=
 OpenBabel10222421183D

 37 39  0  0  1  0  0  0  0  0999 V2000
  188.9740  175.9170  143.1400 C   0  0  0  0  0  1  0  0  0  0  0  0
  188.4810  177.3230  143.5170 C   0  0  1  0  0  0  0  0  0  0  0  0
  187.0610  177.2600  144.1340 C   0  0  1  0  0  3  0  0  0  0  0  0
  186.9940  177.8350  145.8680 S   0  0  0  0  0  1  0  0  0  0  0  0
  186.0280  178.0250  143.3120 C   0  0  0  0  0  2  0  0  0  0  0  0
  184.8840  178.4820  144.1990 C   0  0  0  0  0  2  0  0  0  0  0  0
  178.9350  176.4190  140.9710 N   0  0  0  0  0  0  0  0  0  0  0  0
  180.9210  177.2270  140.4610 C   0  0  0  0  0  0  0  0  0  0  0  0
  183.6560  178.6860  143.3830 C   0  0  0  0  0  0  0  0  0  0  0  0
  182.1780  177.5430  140.2000 C   0  0  0  0  0  2  0  0  0  0  0  0
  180.0900  175.2550  139.0490 C   0  0  0  0  0  1  0  0  0  0  0  0
  183.6760  178.3790  142.0730 C   0  0  0  0  0  3  0  0  0  0  0  0
  181.2310  178.7370  142.0160 C   0  0  2  0  0  3  0  0  0  0  0  0
  182.4900  178.6630  141.1850 C   0  0  2  0  0  3  0  0  0  0  0  0
  179.9810  176.2930  140.1090 C   0  0  0  0  0  0  0  0  0  0  0  0
  181.2420  179.1880  143.4080 C   0  0  0  0  0  3  0  0  0  0  0  0
  179.2310  177.3850  141.8110 O   0  0  0  0  0  0  0  0  0  0  0  0
  180.4030  177.8700  141.4920 C   0  0  0  0  0  0  0  0  0  0  0  0
  182.4200  179.1850  144.0440 C   0  0  0  0  0  3  0  0  0  0  0  0
  189.4310  177.9000  144.5800 C   0  0  0  0  0  2  0  0  0  0  0  0
  191.5630  179.0510  143.9920 C   0  0  0  0  0  1  0  0  0  0  0  0
  190.9100  177.7040  144.2550 C   0  0  1  0  0  3  0  0  0  0  0  0
  191.5900  177.0230  145.4310 C   0  0  0  0  0  2  0  0  0  0  0  0
  191.3390  176.4420  147.7400 O   0  0  0  0  0  1  0  0  0  0  0  0
  190.6520  176.9220  146.6230 C   0  0  0  0  0  2  0  0  0  0  0  0
  188.4890  178.2420  142.3670 N   0  0  0  0  0  2  0  0  0  0  0  0
  189.2550  177.7200  141.3100 N   0  0  0  0  0  2  0  0  0  0  0  0
  188.4850  177.9180  140.0930 C   0  0  0  0  0  2  0  0  0  0  0  0
  189.0510  178.4400  137.7250 C   0  0  0  0  0  3  0  0  0  0  0  0
  189.3630  178.4910  139.0250 C   0  0  0  0  0  3  0  0  0  0  0  0
  187.8010  177.7890  137.2000 C   0  0  2  0  0  3  0  0  0  0  0  0
  188.0060  175.8820  135.7590 O   0  0  0  0  0  1  0  0  0  0  0  0
  187.9880  177.2770  135.7760 C   0  0  0  0  0  2  0  0  0  0  0  0
  186.6890  178.6840  137.2790 O   0  0  0  0  0  0  0  0  0  0  0  0
  185.1330  179.1260  138.9380 O   0  0  0  0  0  0  0  0  0  0  0  0
  184.7000  177.3070  137.5690 N   0  0  0  0  0  1  0  0  0  0  0  0
  185.5020  178.4100  137.9700 C   0  0  0  0  0  0  0  0  0  0  0  0
  2  1  1  6  0  0  0
  2  3  1  0  0  0  0
  2 20  1  0  0  0  0
  3  4  1  1  0  0  0
  5  3  1  0  0  0  0
  5  6  1  0  0  0  0
  7 17  1  0  0  0  0
  8 18  2  0  0  0  0
  9 19  1  0  0  0  0
  9  6  1  0  0  0  0
 10  8  1  0  0  0  0
 11 15  1  0  0  0  0
 12  9  2  0  0  0  0
 13 16  1  1  0  0  0
 14 10  1  6  0  0  0
 14 13  1  0  0  0  0
 14 12  1  0  0  0  0
 15  8  1  0  0  0  0
 15  7  2  0  0  0  0
 16 19  2  0  0  0  0
 18 17  1  0  0  0  0
 18 13  1  0  0  0  0
 22 21  1  1  0  0  0
 22 20  1  0  0  0  0
 22 23  1  0  0  0  0
 23 25  1  0  0  0  0
 25 24  1  0  0  0  0
 26  2  1  0  0  0  0
 27 26  1  0  0  0  0
 28 27  1  0  0  0  0
 29 30  2  0  0  0  0
 30 28  1  0  0  0  0
 31 33  1  6  0  0  0
 31 34  1  0  0  0  0
 31 29  1  0  0  0  0
 32 33  1  0  0  0  0
 34 37  1  0  0  0  0
 36 37  1  0  0  0  0
 37 35  2  0  0  0  0
M  END
>  <MODEL>
1

>  <REMARK>
 VINA RESULT:      -7.5      0.000      0.000
  Name = 
  16 active torsions:
  status: ('A' for Active; 'I' for Inactive)
    1  A    between atoms: C_2  and  N_6
    2  A    between atoms: C_2  and  C_20
    3  A    between atoms: C_3  and  C_4
    4  A    between atoms: C_4  and  O_10
    5  A    between atoms: C_4  and  C_27
    6  A    between atoms: N_6  and  N_14
    7  A    between atoms: C_8  and  C_15
    8  A    between atoms: C_8  and  C_17
    9  A    between atoms: O_10  and  C_33
   10  A    between atoms: C_11  and  C_29
   11  A    between atoms: C_11  and  C_36
   12  A    between atoms: C_13  and  C_15
   13  A    between atoms: C_13  and  C_16
   14  A    between atoms: N_14  and  C_17
   15  A    between atoms: C_17  and  C_19
   16  A    between atoms: C_19  and  C_29
                            x       y       z     vdW  Elec       q    Type
                         _______ _______ _______ _____ _____    ______ ____

>  <TORSDO>
F 16

$$$$
=
 OpenBabel10222421183D

 37 39  0  0  1  0  0  0  0  0999 V2000
  182.9510  178.7560  138.2240 C   0  0  0  0  0  1  0  0  0  0  0  0
  183.7210  178.1030  139.3820 C   0  0  1  0  0  0  0  0  0  0  0  0
  183.6750  178.9970  140.6460 C   0  0  1  0  0  3  0  0  0  0  0  0
  182.1600  178.7740  141.6430 S   0  0  0  0  0  1  0  0  0  0  0  0
  184.8970  178.8120  141.5420 C   0  0  0  0  0  2  0  0  0  0  0  0
  184.6800  179.5040  142.8760 C   0  0  0  0  0  2  0  0  0  0  0  0
  189.5490  177.9840  147.7800 N   0  0  0  0  0  0  0  0  0  0  0  0
  188.7420  177.1470  145.9070 C   0  0  0  0  0  0  0  0  0  0  0  0
  185.2770  178.6940  143.9730 C   0  0  0  0  0  0  0  0  0  0  0  0
  188.3500  176.7820  144.6990 C   0  0  0  0  0  2  0  0  0  0  0  0
  191.2950  177.1670  146.1460 C   0  0  0  0  0  1  0  0  0  0  0  0
  186.2660  177.8270  143.6900 C   0  0  0  0  0  3  0  0  0  0  0  0
  186.5920  177.5020  146.1180 C   0  0  2  0  0  3  0  0  0  0  0  0
  186.8330  176.9130  144.7480 C   0  0  2  0  0  3  0  0  0  0  0  0
  189.8980  177.3950  146.6030 C   0  0  0  0  0  0  0  0  0  0  0  0
  185.4360  178.3500  146.4090 C   0  0  0  0  0  3  0  0  0  0  0  0
  188.2400  178.0900  147.7940 O   0  0  0  0  0  0  0  0  0  0  0  0
  187.7670  177.5760  146.6890 C   0  0  0  0  0  0  0  0  0  0  0  0
  184.7960  178.8940  145.3670 C   0  0  0  0  0  3  0  0  0  0  0  0
  183.0370  176.7680  139.7250 C   0  0  0  0  0  2  0  0  0  0  0  0
  183.4560  175.0330  137.9850 C   0  0  0  0  0  1  0  0  0  0  0  0
  182.4540  176.0460  138.5140 C   0  0  1  0  0  3  0  0  0  0  0  0
  181.1750  175.3370  138.9270 C   0  0  0  0  0  2  0  0  0  0  0  0
  179.0250  175.7550  139.8930 O   0  0  0  0  0  1  0  0  0  0  0  0
  180.3460  176.2030  139.8620 C   0  0  0  0  0  2  0  0  0  0  0  0
  185.1180  177.8080  139.0250 N   0  0  0  0  0  2  0  0  0  0  0  0
  185.5830  178.6940  138.0360 N   0  0  0  0  0  2  0  0  0  0  0  0
  186.4620  177.9310  137.1660 C   0  0  0  0  0  2  0  0  0  0  0  0
  188.8620  178.2860  137.7280 C   0  0  0  0  0  3  0  0  0  0  0  0
  187.7760  178.6340  137.0290 C   0  0  0  0  0  3  0  0  0  0  0  0
  188.8740  177.1670  138.7330 C   0  0  2  0  0  3  0  0  0  0  0  0
  188.1960  178.8440  140.3080 O   0  0  0  0  0  1  0  0  0  0  0  0
  188.9710  177.6930  140.1610 C   0  0  0  0  0  2  0  0  0  0  0  0
  189.9310  176.2450  138.4560 O   0  0  0  0  0  0  0  0  0  0  0  0
  188.7360  174.8980  136.9970 O   0  0  0  0  0  0  0  0  0  0  0  0
  190.8980  174.2240  137.4960 N   0  0  0  0  0  1  0  0  0  0  0  0
  189.8040  175.1220  137.6270 C   0  0  0  0  0  0  0  0  0  0  0  0
  2  1  1  6  0  0  0
  2 20  1  0  0  0  0
  2  3  1  0  0  0  0
  3  5  1  0  0  0  0
  3  4  1  1  0  0  0
  5  6  1  0  0  0  0
  6  9  1  0  0  0  0
  7 17  1  0  0  0  0
  8 15  1  0  0  0  0
  8 18  2  0  0  0  0
  9 19  1  0  0  0  0
 10 14  1  0  0  0  0
 10  8  1  0  0  0  0
 11 15  1  0  0  0  0
 12  9  2  0  0  0  0
 13 16  1  6  0  0  0
 13 18  1  0  0  0  0
 14 12  1  6  0  0  0
 14 13  1  0  0  0  0
 15  7  2  0  0  0  0
 18 17  1  0  0  0  0
 19 16  2  0  0  0  0
 22 21  1  1  0  0  0
 22 23  1  0  0  0  0
 22 20  1  0  0  0  0
 23 25  1  0  0  0  0
 25 24  1  0  0  0  0
 26  2  1  0  0  0  0
 27 26  1  0  0  0  0
 28 27  1  0  0  0  0
 30 28  1  0  0  0  0
 30 29  2  0  0  0  0
 31 29  1  6  0  0  0
 31 33  1  0  0  0  0
 33 32  1  0  0  0  0
 34 31  1  0  0  0  0
 35 37  2  0  0  0  0
 36 37  1  0  0  0  0
 37 34  1  0  0  0  0
M  END
>  <MODEL>
2

>  <REMARK>
 VINA RESULT:      -7.1      2.607      7.724
  Name = 
  16 active torsions:
  status: ('A' for Active; 'I' for Inactive)
    1  A    between atoms: C_2  and  N_6
    2  A    between atoms: C_2  and  C_20
    3  A    between atoms: C_3  and  C_4
    4  A    between atoms: C_4  and  O_10
    5  A    between atoms: C_4  and  C_27
    6  A    between atoms: N_6  and  N_14
    7  A    between atoms: C_8  and  C_15
    8  A    between atoms: C_8  and  C_17
    9  A    between atoms: O_10  and  C_33
   10  A    between atoms: C_11  and  C_29
   11  A    between atoms: C_11  and  C_36
   12  A    between atoms: C_13  and  C_15
   13  A    between atoms: C_13  and  C_16
   14  A    between atoms: N_14  and  C_17
   15  A    between atoms: C_17  and  C_19
   16  A    between atoms: C_19  and  C_29
                            x       y       z     vdW  Elec       q    Type
                         _______ _______ _______ _____ _____    ______ ____

>  <TORSDO>
F 16

$$$$
=
 OpenBabel10222421183D

 37 39  0  0  1  0  0  0  0  0999 V2000
  189.3560  176.6280  135.8350 C   0  0  0  0  0  1  0  0  0  0  0  0
  189.1790  176.2890  137.3230 C   0  0  1  0  0  0  0  0  0  0  0  0
  189.6680  177.4570  138.2150 C   0  0  1  0  0  3  0  0  0  0  0  0
  188.9970  179.0840  137.7190 S   0  0  0  0  0  1  0  0  0  0  0  0
  189.3800  177.2280  139.6960 C   0  0  0  0  0  2  0  0  0  0  0  0
  188.8280  178.4930  140.3270 C   0  0  0  0  0  2  0  0  0  0  0  0
  185.6540  179.2390  146.6060 N   0  0  0  0  0  0  0  0  0  0  0  0
  186.8850  177.7700  145.5180 C   0  0  0  0  0  0  0  0  0  0  0  0
  187.8400  178.1460  141.3840 C   0  0  0  0  0  0  0  0  0  0  0  0
  187.7640  177.0060  144.8940 C   0  0  0  0  0  2  0  0  0  0  0  0
  187.5370  178.2300  147.9550 C   0  0  0  0  0  1  0  0  0  0  0  0
  188.2260  177.3860  142.4250 C   0  0  0  0  0  3  0  0  0  0  0  0
  186.0490  177.8570  143.4960 C   0  0  2  0  0  3  0  0  0  0  0  0
  187.2370  176.9250  143.4670 C   0  0  2  0  0  3  0  0  0  0  0  0
  186.7030  178.3800  146.7330 C   0  0  0  0  0  0  0  0  0  0  0  0
  185.5940  178.5770  142.3070 C   0  0  0  0  0  3  0  0  0  0  0  0
  185.2220  179.1530  145.3690 O   0  0  0  0  0  0  0  0  0  0  0  0
  185.9460  178.2680  144.7340 C   0  0  0  0  0  0  0  0  0  0  0  0
  186.4550  178.6840  141.2870 C   0  0  0  0  0  3  0  0  0  0  0  0
  187.6790  176.0830  137.5960 C   0  0  0  0  0  2  0  0  0  0  0  0
  185.9510  174.7920  136.3480 C   0  0  0  0  0  1  0  0  0  0  0  0
  186.8240  176.0350  136.3330 C   0  0  1  0  0  3  0  0  0  0  0  0
  185.9500  177.2770  136.2790 C   0  0  0  0  0  2  0  0  0  0  0  0
  185.2780  178.5250  138.2080 O   0  0  0  0  0  1  0  0  0  0  0  0
  185.0320  177.3550  137.4880 C   0  0  0  0  0  2  0  0  0  0  0  0
  189.8740  175.0470  137.6970 N   0  0  0  0  0  2  0  0  0  0  0  0
  190.2270  174.3040  136.5560 N   0  0  0  0  0  2  0  0  0  0  0  0
  191.4960  173.6590  136.8500 C   0  0  0  0  0  2  0  0  0  0  0  0
  193.5330  175.0730  136.6160 C   0  0  0  0  0  3  0  0  0  0  0  0
  192.5890  174.3070  136.0580 C   0  0  0  0  0  3  0  0  0  0  0  0
  193.5850  175.3790  138.0870 C   0  0  2  0  0  3  0  0  0  0  0  0
  193.5730  177.2150  139.6320 O   0  0  0  0  0  1  0  0  0  0  0  0
  193.1040  176.7950  138.3860 C   0  0  0  0  0  2  0  0  0  0  0  0
  194.9010  175.1670  138.6050 O   0  0  0  0  0  0  0  0  0  0  0  0
  196.7540  174.2120  137.5940 O   0  0  0  0  0  0  0  0  0  0  0  0
  195.3450  172.7750  138.7440 N   0  0  0  0  0  1  0  0  0  0  0  0
  195.7100  174.0700  138.2830 C   0  0  0  0  0  0  0  0  0  0  0  0
  2  1  1  6  0  0  0
  2 20  1  0  0  0  0
  2 26  1  0  0  0  0
  2  3  1  0  0  0  0
  3  4  1  6  0  0  0
  3  5  1  0  0  0  0
  5  6  1  0  0  0  0
  6  9  1  0  0  0  0
  7 15  2  0  0  0  0
  8 15  1  0  0  0  0
  9 12  2  0  0  0  0
 10  8  1  0  0  0  0
 13 16  1  6  0  0  0
 13 18  1  0  0  0  0
 14 12  1  6  0  0  0
 14 13  1  0  0  0  0
 14 10  1  0  0  0  0
 15 11  1  0  0  0  0
 17  7  1  0  0  0  0
 18 17  1  0  0  0  0
 18  8  2  0  0  0  0
 19  9  1  0  0  0  0
 19 16  2  0  0  0  0
 22 21  1  1  0  0  0
 22 20  1  0  0  0  0
 23 22  1  0  0  0  0
 23 25  1  0  0  0  0
 25 24  1  0  0  0  0
 27 28  1  0  0  0  0
 27 26  1  0  0  0  0
 30 29  2  0  0  0  0
 30 28  1  0  0  0  0
 31 29  1  6  0  0  0
 31 33  1  0  0  0  0
 31 34  1  0  0  0  0
 33 32  1  0  0  0  0
 35 37  2  0  0  0  0
 37 34  1  0  0  0  0
 37 36  1  0  0  0  0
M  END
>  <MODEL>
3

>  <REMARK>
 VINA RESULT:      -6.9      4.400      7.961
  Name = 
  16 active torsions:
  status: ('A' for Active; 'I' for Inactive)
    1  A    between atoms: C_2  and  N_6
    2  A    between atoms: C_2  and  C_20
    3  A    between atoms: C_3  and  C_4
    4  A    between atoms: C_4  and  O_10
    5  A    between atoms: C_4  and  C_27
    6  A    between atoms: N_6  and  N_14
    7  A    between atoms: C_8  and  C_15
    8  A    between atoms: C_8  and  C_17
    9  A    between atoms: O_10  and  C_33
   10  A    between atoms: C_11  and  C_29
   11  A    between atoms: C_11  and  C_36
   12  A    between atoms: C_13  and  C_15
   13  A    between atoms: C_13  and  C_16
   14  A    between atoms: N_14  and  C_17
   15  A    between atoms: C_17  and  C_19
   16  A    between atoms: C_19  and  C_29
                            x       y       z     vdW  Elec       q    Type
                         _______ _______ _______ _____ _____    ______ ____

>  <TORSDO>
F 16

$$$$
=
 OpenBabel10222421183D

 37 39  0  0  1  0  0  0  0  0999 V2000
  182.2140  179.3970  139.6860 C   0  0  0  0  0  1  0  0  0  0  0  0
  183.0380  178.7530  140.8110 C   0  0  1  0  0  0  0  0  0  0  0  0
  182.4560  179.1220  142.1990 C   0  0  1  0  0  3  0  0  0  0  0  0
  180.6630  178.7990  142.3470 S   0  0  0  0  0  1  0  0  0  0  0  0
  183.1860  178.4300  143.3460 C   0  0  0  0  0  2  0  0  0  0  0  0
  184.2690  179.3360  143.9040 C   0  0  0  0  0  2  0  0  0  0  0  0
  191.1410  177.9580  144.8730 N   0  0  0  0  0  0  0  0  0  0  0  0
  189.4130  177.1530  143.7670 C   0  0  0  0  0  0  0  0  0  0  0  0
  185.4240  178.5230  144.3700 C   0  0  0  0  0  0  0  0  0  0  0  0
  188.3950  176.8180  142.9930 C   0  0  0  0  0  2  0  0  0  0  0  0
  191.6120  177.3570  142.4640 C   0  0  0  0  0  1  0  0  0  0  0  0
  186.0840  177.7480  143.4890 C   0  0  0  0  0  3  0  0  0  0  0  0
  187.7910  177.3320  145.2270 C   0  0  2  0  0  3  0  0  0  0  0  0
  187.1960  176.8310  143.9330 C   0  0  2  0  0  3  0  0  0  0  0  0
  190.7470  177.4550  143.6710 C   0  0  0  0  0  0  0  0  0  0  0  0
  187.0020  178.0740  146.2110 C   0  0  0  0  0  3  0  0  0  0  0  0
  190.0900  177.9620  145.6610 O   0  0  0  0  0  0  0  0  0  0  0  0
  189.0730  177.4680  145.0040 C   0  0  0  0  0  0  0  0  0  0  0  0
  185.8530  178.6180  145.7920 C   0  0  0  0  0  3  0  0  0  0  0  0
  182.9560  177.2250  140.6570 C   0  0  0  0  0  2  0  0  0  0  0  0
  183.3300  176.0320  138.5010 C   0  0  0  0  0  1  0  0  0  0  0  0
  182.3110  176.7720  139.3510 C   0  0  1  0  0  3  0  0  0  0  0  0
  181.1410  175.8540  139.6670 C   0  0  0  0  0  2  0  0  0  0  0  0
  179.2540  177.2990  139.3810 O   0  0  0  0  0  1  0  0  0  0  0  0
  179.9250  176.2070  138.8270 C   0  0  0  0  0  2  0  0  0  0  0  0
  184.4590  179.1310  140.7460 N   0  0  0  0  0  2  0  0  0  0  0  0
  184.8340  179.4600  139.4310 N   0  0  0  0  0  2  0  0  0  0  0  0
  185.9280  178.5740  139.0700 C   0  0  0  0  0  2  0  0  0  0  0  0
  186.9470  177.7550  136.9510 C   0  0  0  0  0  3  0  0  0  0  0  0
  185.9360  178.3530  137.5900 C   0  0  0  0  0  3  0  0  0  0  0  0
  188.1850  177.2580  137.6460 C   0  0  2  0  0  3  0  0  0  0  0  0
  188.9330  179.5020  137.2450 O   0  0  0  0  0  1  0  0  0  0  0  0
  189.3710  178.1890  137.4170 C   0  0  0  0  0  2  0  0  0  0  0  0
  188.4970  175.9240  137.2390 O   0  0  0  0  0  0  0  0  0  0  0  0
  187.7680  174.9620  135.2600 O   0  0  0  0  0  0  0  0  0  0  0  0
  186.5910  174.4060  137.1770 N   0  0  0  0  0  1  0  0  0  0  0  0
  187.6340  175.0990  136.5050 C   0  0  0  0  0  0  0  0  0  0  0  0
  2  1  1  6  0  0  0
  2  3  1  0  0  0  0
  3  4  1  6  0  0  0
  3  5  1  0  0  0  0
  5  6  1  0  0  0  0
  6  9  1  0  0  0  0
  7 17  1  0  0  0  0
  8 18  2  0  0  0  0
  9 19  1  0  0  0  0
 10  8  1  0  0  0  0
 11 15  1  0  0  0  0
 12 14  1  0  0  0  0
 12  9  2  0  0  0  0
 13 16  1  6  0  0  0
 14 10  1  6  0  0  0
 14 13  1  0  0  0  0
 15  8  1  0  0  0  0
 15  7  2  0  0  0  0
 18 13  1  0  0  0  0
 18 17  1  0  0  0  0
 19 16  2  0  0  0  0
 20  2  1  0  0  0  0
 22 21  1  6  0  0  0
 22 23  1  0  0  0  0
 22 20  1  0  0  0  0
 25 24  1  0  0  0  0
 25 23  1  0  0  0  0
 26  2  1  0  0  0  0
 27 26  1  0  0  0  0
 28 27  1  0  0  0  0
 29 30  2  0  0  0  0
 30 28  1  0  0  0  0
 31 29  1  6  0  0  0
 32 33  1  0  0  0  0
 33 31  1  0  0  0  0
 34 31  1  0  0  0  0
 35 37  2  0  0  0  0
 37 36  1  0  0  0  0
 37 34  1  0  0  0  0
M  END
>  <MODEL>
4

>  <REMARK>
 VINA RESULT:      -6.9      2.427      7.585
  Name = 
  16 active torsions:
  status: ('A' for Active; 'I' for Inactive)
    1  A    between atoms: C_2  and  N_6
    2  A    between atoms: C_2  and  C_20
    3  A    between atoms: C_3  and  C_4
    4  A    between atoms: C_4  and  O_10
    5  A    between atoms: C_4  and  C_27
    6  A    between atoms: N_6  and  N_14
    7  A    between atoms: C_8  and  C_15
    8  A    between atoms: C_8  and  C_17
    9  A    between atoms: O_10  and  C_33
   10  A    between atoms: C_11  and  C_29
   11  A    between atoms: C_11  and  C_36
   12  A    between atoms: C_13  and  C_15
   13  A    between atoms: C_13  and  C_16
   14  A    between atoms: N_14  and  C_17
   15  A    between atoms: C_17  and  C_19
   16  A    between atoms: C_19  and  C_29
                            x       y       z     vdW  Elec       q    Type
                         _______ _______ _______ _____ _____    ______ ____

>  <TORSDO>
F 16

$$$$
=
 OpenBabel10222421183D

 37 39  0  0  1  0  0  0  0  0999 V2000
  188.6690  175.9530  143.2190 C   0  0  0  0  0  1  0  0  0  0  0  0
  188.9530  177.4410  142.9610 C   0  0  1  0  0  0  0  0  0  0  0  0
  187.6500  178.1960  142.6000 C   0  0  1  0  0  3  0  0  0  0  0  0
  187.5130  178.6070  140.8240 S   0  0  0  0  0  1  0  0  0  0  0  0
  186.3950  177.4460  143.0390 C   0  0  0  0  0  2  0  0  0  0  0  0
  185.5880  178.2920  144.0080 C   0  0  0  0  0  2  0  0  0  0  0  0
  179.2330  176.6840  141.3460 N   0  0  0  0  0  0  0  0  0  0  0  0
  181.1260  177.6160  140.7100 C   0  0  0  0  0  0  0  0  0  0  0  0
  184.2560  178.6060  143.4240 C   0  0  0  0  0  0  0  0  0  0  0  0
  182.3320  178.0030  140.3320 C   0  0  0  0  0  2  0  0  0  0  0  0
  180.0970  175.9020  139.1040 C   0  0  0  0  0  1  0  0  0  0  0  0
  184.0860  178.5340  142.0910 C   0  0  0  0  0  3  0  0  0  0  0  0
  181.6600  178.8380  142.4470 C   0  0  2  0  0  3  0  0  0  0  0  0
  182.7850  178.9400  141.4450 C   0  0  2  0  0  3  0  0  0  0  0  0
  180.1430  176.7370  140.3350 C   0  0  0  0  0  0  0  0  0  0  0  0
  181.8720  179.0390  143.8800 C   0  0  0  0  0  3  0  0  0  0  0  0
  179.6490  177.4950  142.2920 O   0  0  0  0  0  0  0  0  0  0  0  0
  180.7630  178.0570  141.9010 C   0  0  0  0  0  0  0  0  0  0  0  0
  183.1290  178.9520  144.3320 C   0  0  0  0  0  3  0  0  0  0  0  0
  189.5110  178.0570  144.2560 C   0  0  0  0  0  2  0  0  0  0  0  0
  190.7300  177.0600  146.1890 C   0  0  0  0  0  1  0  0  0  0  0  0
  189.3920  177.1440  145.4730 C   0  0  1  0  0  3  0  0  0  0  0  0
  188.3390  177.7070  146.4140 C   0  0  0  0  0  2  0  0  0  0  0  0
  188.0710  177.5540  148.7880 O   0  0  0  0  0  1  0  0  0  0  0  0
  188.9300  178.0020  147.7840 C   0  0  0  0  0  2  0  0  0  0  0  0
  189.9580  177.6410  141.9050 N   0  0  0  0  0  2  0  0  0  0  0  0
  190.2960  176.4200  141.2930 N   0  0  0  0  0  2  0  0  0  0  0  0
  190.6430  176.7210  139.9140 C   0  0  0  0  0  2  0  0  0  0  0  0
  192.9290  176.7680  138.9270 C   0  0  0  0  0  3  0  0  0  0  0  0
  192.0570  177.2060  139.8420 C   0  0  0  0  0  3  0  0  0  0  0  0
  192.5870  175.7330  137.8900 C   0  0  2  0  0  3  0  0  0  0  0  0
  194.9220  175.2360  138.1360 O   0  0  0  0  0  1  0  0  0  0  0  0
  193.6960  174.6970  137.7420 C   0  0  0  0  0  2  0  0  0  0  0  0
  192.2940  176.3480  136.6340 O   0  0  0  0  0  0  0  0  0  0  0  0
  191.7940  174.8330  134.9530 O   0  0  0  0  0  0  0  0  0  0  0  0
  193.6320  176.2010  134.6020 N   0  0  0  0  0  1  0  0  0  0  0  0
  192.5350  175.7540  135.3880 C   0  0  0  0  0  0  0  0  0  0  0  0
  2  1  1  1  0  0  0
  2 20  1  0  0  0  0
  3  4  1  6  0  0  0
  3  2  1  0  0  0  0
  3  5  1  0  0  0  0
  5  6  1  0  0  0  0
  7 17  1  0  0  0  0
  8 18  2  0  0  0  0
  9  6  1  0  0  0  0
  9 19  1  0  0  0  0
 10  8  1  0  0  0  0
 11 15  1  0  0  0  0
 12  9  2  0  0  0  0
 13 16  1  1  0  0  0
 14 10  1  6  0  0  0
 14 12  1  0  0  0  0
 14 13  1  0  0  0  0
 15  8  1  0  0  0  0
 15  7  2  0  0  0  0
 16 19  2  0  0  0  0
 18 17  1  0  0  0  0
 18 13  1  0  0  0  0
 20 22  1  0  0  0  0
 22 21  1  1  0  0  0
 22 23  1  0  0  0  0
 23 25  1  0  0  0  0
 25 24  1  0  0  0  0
 26  2  1  0  0  0  0
 27 26  1  0  0  0  0
 28 27  1  0  0  0  0
 29 30  2  0  0  0  0
 30 28  1  0  0  0  0
 31 33  1  6  0  0  0
 31 29  1  0  0  0  0
 33 32  1  0  0  0  0
 34 31  1  0  0  0  0
 35 37  2  0  0  0  0
 36 37  1  0  0  0  0
 37 34  1  0  0  0  0
M  END
>  <MODEL>
5

>  <REMARK>
 VINA RESULT:      -6.9      2.973      3.729
  Name = 
  16 active torsions:
  status: ('A' for Active; 'I' for Inactive)
    1  A    between atoms: C_2  and  N_6
    2  A    between atoms: C_2  and  C_20
    3  A    between atoms: C_3  and  C_4
    4  A    between atoms: C_4  and  O_10
    5  A    between atoms: C_4  and  C_27
    6  A    between atoms: N_6  and  N_14
    7  A    between atoms: C_8  and  C_15
    8  A    between atoms: C_8  and  C_17
    9  A    between atoms: O_10  and  C_33
   10  A    between atoms: C_11  and  C_29
   11  A    between atoms: C_11  and  C_36
   12  A    between atoms: C_13  and  C_15
   13  A    between atoms: C_13  and  C_16
   14  A    between atoms: N_14  and  C_17
   15  A    between atoms: C_17  and  C_19
   16  A    between atoms: C_19  and  C_29
                            x       y       z     vdW  Elec       q    Type
                         _______ _______ _______ _____ _____    ______ ____

>  <TORSDO>
F 16

$$$$
=
 OpenBabel10222421183D

 37 39  0  0  1  0  0  0  0  0999 V2000
  183.0910  180.1710  138.7990 C   0  0  0  0  0  1  0  0  0  0  0  0
  183.2110  178.8650  139.5980 C   0  0  1  0  0  0  0  0  0  0  0  0
  182.8750  179.1020  141.0920 C   0  0  1  0  0  3  0  0  0  0  0  0
  181.1130  178.8280  141.4960 S   0  0  0  0  0  1  0  0  0  0  0  0
  183.7400  178.2650  142.0300 C   0  0  0  0  0  2  0  0  0  0  0  0
  184.3510  179.1430  143.1070 C   0  0  0  0  0  2  0  0  0  0  0  0
  190.9530  177.8290  145.2860 N   0  0  0  0  0  0  0  0  0  0  0  0
  189.3830  176.9000  144.0500 C   0  0  0  0  0  0  0  0  0  0  0  0
  185.3970  178.3880  143.8480 C   0  0  0  0  0  0  0  0  0  0  0  0
  188.4810  176.4730  143.1820 C   0  0  0  0  0  2  0  0  0  0  0  0
  191.7570  176.8940  143.0810 C   0  0  0  0  0  1  0  0  0  0  0  0
  186.1540  177.4910  143.1910 C   0  0  0  0  0  3  0  0  0  0  0  0
  187.5690  177.2990  145.2080 C   0  0  2  0  0  3  0  0  0  0  0  0
  187.1570  176.6300  143.9180 C   0  0  2  0  0  3  0  0  0  0  0  0
  190.7260  177.1690  144.1170 C   0  0  0  0  0  0  0  0  0  0  0  0
  186.6670  178.1800  145.9520 C   0  0  0  0  0  3  0  0  0  0  0  0
  189.7970  177.9550  145.8980 O   0  0  0  0  0  0  0  0  0  0  0  0
  188.8740  177.3870  145.1670 C   0  0  0  0  0  0  0  0  0  0  0  0
  185.6120  178.6740  145.2930 C   0  0  0  0  0  3  0  0  0  0  0  0
  182.1880  177.8600  139.0400 C   0  0  0  0  0  2  0  0  0  0  0  0
  181.6000  175.5300  139.6980 C   0  0  0  0  0  1  0  0  0  0  0  0
  182.6670  176.4120  139.0730 C   0  0  1  0  0  3  0  0  0  0  0  0
  182.9490  175.9500  137.6530 C   0  0  0  0  0  2  0  0  0  0  0  0
  182.9490  173.6490  136.9950 O   0  0  0  0  0  1  0  0  0  0  0  0
  183.7000  174.6290  137.6450 C   0  0  0  0  0  2  0  0  0  0  0  0
  184.5450  178.2560  139.4740 N   0  0  0  0  0  2  0  0  0  0  0  0
  185.3190  178.9300  138.5120 N   0  0  0  0  0  2  0  0  0  0  0  0
  186.0690  177.9170  137.7890 C   0  0  0  0  0  2  0  0  0  0  0  0
  188.3110  178.0730  136.7180 C   0  0  0  0  0  3  0  0  0  0  0  0
  187.0850  178.5710  136.9060 C   0  0  0  0  0  3  0  0  0  0  0  0
  188.8040  176.8180  137.3850 C   0  0  2  0  0  3  0  0  0  0  0  0
  188.9920  174.4510  137.0430 O   0  0  0  0  0  1  0  0  0  0  0  0
  188.2120  175.5680  136.7410 C   0  0  0  0  0  2  0  0  0  0  0  0
  188.5330  176.8460  138.7880 O   0  0  0  0  0  0  0  0  0  0  0  0
  190.4220  177.6560  139.8600 O   0  0  0  0  0  0  0  0  0  0  0  0
  188.4000  178.6200  140.4540 N   0  0  0  0  0  1  0  0  0  0  0  0
  189.1730  177.6960  139.7000 C   0  0  0  0  0  0  0  0  0  0  0  0
  2  1  1  6  0  0  0
  2  3  1  0  0  0  0
  3  4  1  6  0  0  0
  3  5  1  0  0  0  0
  5  6  1  0  0  0  0
  6  9  1  0  0  0  0
  7 17  1  0  0  0  0
  8 15  1  0  0  0  0
  8 18  2  0  0  0  0
  9 19  1  0  0  0  0
 10  8  1  0  0  0  0
 11 15  1  0  0  0  0
 12  9  2  0  0  0  0
 12 14  1  0  0  0  0
 13 16  1  6  0  0  0
 14 10  1  6  0  0  0
 14 13  1  0  0  0  0
 15  7  2  0  0  0  0
 18 13  1  0  0  0  0
 18 17  1  0  0  0  0
 19 16  2  0  0  0  0
 20 22  1  0  0  0  0
 20  2  1  0  0  0  0
 22 21  1  6  0  0  0
 23 22  1  0  0  0  0
 24 25  1  0  0  0  0
 25 23  1  0  0  0  0
 26  2  1  0  0  0  0
 27 26  1  0  0  0  0
 28 27  1  0  0  0  0
 29 30  2  0  0  0  0
 30 28  1  0  0  0  0
 31 29  1  6  0  0  0
 31 34  1  0  0  0  0
 33 32  1  0  0  0  0
 33 31  1  0  0  0  0
 34 37  1  0  0  0  0
 37 35  2  0  0  0  0
 37 36  1  0  0  0  0
M  END
>  <MODEL>
6

>  <REMARK>
 VINA RESULT:      -6.8      2.602      7.524
  Name = 
  16 active torsions:
  status: ('A' for Active; 'I' for Inactive)
    1  A    between atoms: C_2  and  N_6
    2  A    between atoms: C_2  and  C_20
    3  A    between atoms: C_3  and  C_4
    4  A    between atoms: C_4  and  O_10
    5  A    between atoms: C_4  and  C_27
    6  A    between atoms: N_6  and  N_14
    7  A    between atoms: C_8  and  C_15
    8  A    between atoms: C_8  and  C_17
    9  A    between atoms: O_10  and  C_33
   10  A    between atoms: C_11  and  C_29
   11  A    between atoms: C_11  and  C_36
   12  A    between atoms: C_13  and  C_15
   13  A    between atoms: C_13  and  C_16
   14  A    between atoms: N_14  and  C_17
   15  A    between atoms: C_17  and  C_19
   16  A    between atoms: C_19  and  C_29
                            x       y       z     vdW  Elec       q    Type
                         _______ _______ _______ _____ _____    ______ ____

>  <TORSDO>
F 16

$$$$
=
 OpenBabel10222421183D

 37 39  0  0  1  0  0  0  0  0999 V2000
  190.2730  179.0490  144.0040 C   0  0  0  0  0  1  0  0  0  0  0  0
  189.9100  177.5880  143.7000 C   0  0  1  0  0  0  0  0  0  0  0  0
  191.0990  176.8540  143.0310 C   0  0  1  0  0  3  0  0  0  0  0  0
  191.7400  175.4540  144.0170 S   0  0  0  0  0  1  0  0  0  0  0  0
  190.7720  176.3660  141.6220 C   0  0  0  0  0  2  0  0  0  0  0  0
  191.2290  177.3840  140.5930 C   0  0  0  0  0  2  0  0  0  0  0  0
  186.2290  174.5550  136.4640 N   0  0  0  0  0  0  0  0  0  0  0  0
  188.4230  174.5560  136.6730 C   0  0  0  0  0  0  0  0  0  0  0  0
  190.5050  177.1730  139.3110 C   0  0  0  0  0  0  0  0  0  0  0  0
  189.7110  174.4500  136.9480 C   0  0  0  0  0  2  0  0  0  0  0  0
  187.3090  172.2770  136.2960 C   0  0  0  0  0  1  0  0  0  0  0  0
  190.7850  176.0890  138.5650 C   0  0  0  0  0  3  0  0  0  0  0  0
  188.8540  176.6530  137.1300 C   0  0  2  0  0  3  0  0  0  0  0  0
  190.1520  175.8850  137.2110 C   0  0  2  0  0  3  0  0  0  0  0  0
  187.3320  173.7570  136.4440 C   0  0  0  0  0  0  0  0  0  0  0  0
  188.6360  177.8940  137.8730 C   0  0  0  0  0  3  0  0  0  0  0  0
  186.6350  175.7820  136.6960 O   0  0  0  0  0  0  0  0  0  0  0  0
  187.9380  175.7780  136.8020 C   0  0  0  0  0  0  0  0  0  0  0  0
  189.4540  178.1450  138.9020 C   0  0  0  0  0  3  0  0  0  0  0  0
  189.6080  176.8780  145.0310 C   0  0  0  0  0  2  0  0  0  0  0  0
  187.5530  177.5210  146.2870 C   0  0  0  0  0  1  0  0  0  0  0  0
  189.0350  177.8010  146.1040 C   0  0  1  0  0  3  0  0  0  0  0  0
  189.7700  177.5570  147.4120 C   0  0  0  0  0  2  0  0  0  0  0  0
  192.0370  177.0880  148.0220 O   0  0  0  0  0  1  0  0  0  0  0  0
  190.9890  176.6740  147.1990 C   0  0  0  0  0  2  0  0  0  0  0  0
  188.7110  177.4760  142.8540 N   0  0  0  0  0  2  0  0  0  0  0  0
  188.4560  178.6840  142.1810 N   0  0  0  0  0  2  0  0  0  0  0  0
  187.0470  178.6790  141.8240 C   0  0  0  0  0  2  0  0  0  0  0  0
  184.9360  177.9290  142.9120 C   0  0  0  0  0  3  0  0  0  0  0  0
  186.2710  177.8900  142.8320 C   0  0  0  0  0  3  0  0  0  0  0  0
  184.0790  178.7770  142.0130 C   0  0  2  0  0  3  0  0  0  0  0  0
  182.6720  178.6460  143.9530 O   0  0  0  0  0  1  0  0  0  0  0  0
  182.6880  178.9930  142.6010 C   0  0  0  0  0  2  0  0  0  0  0  0
  183.9970  178.2100  140.7040 O   0  0  0  0  0  0  0  0  0  0  0  0
  184.2550  180.1050  139.3930 O   0  0  0  0  0  0  0  0  0  0  0  0
  185.0100  178.1080  138.4890 N   0  0  0  0  0  1  0  0  0  0  0  0
  184.4080  178.8620  139.5330 C   0  0  0  0  0  0  0  0  0  0  0  0
  2  1  1  1  0  0  0
  2 20  1  0  0  0  0
  3  2  1  0  0  0  0
  3  4  1  1  0  0  0
  5  3  1  0  0  0  0
  6  5  1  0  0  0  0
  7 17  1  0  0  0  0
  8 18  2  0  0  0  0
  8 10  1  0  0  0  0
  9  6  1  0  0  0  0
 11 15  1  0  0  0  0
 12  9  2  0  0  0  0
 13 14  1  0  0  0  0
 13 16  1  1  0  0  0
 14 10  1  1  0  0  0
 14 12  1  0  0  0  0
 15  7  2  0  0  0  0
 15  8  1  0  0  0  0
 16 19  2  0  0  0  0
 17 18  1  0  0  0  0
 18 13  1  0  0  0  0
 19  9  1  0  0  0  0
 20 22  1  0  0  0  0
 22 21  1  1  0  0  0
 22 23  1  0  0  0  0
 25 23  1  0  0  0  0
 25 24  1  0  0  0  0
 26  2  1  0  0  0  0
 27 26  1  0  0  0  0
 28 27  1  0  0  0  0
 28 30  1  0  0  0  0
 30 29  2  0  0  0  0
 31 33  1  1  0  0  0
 31 29  1  0  0  0  0
 33 32  1  0  0  0  0
 34 31  1  0  0  0  0
 35 37  2  0  0  0  0
 36 37  1  0  0  0  0
 37 34  1  0  0  0  0
M  END
>  <MODEL>
7

>  <REMARK>
 VINA RESULT:      -6.7      2.518      6.403
  Name = 
  16 active torsions:
  status: ('A' for Active; 'I' for Inactive)
    1  A    between atoms: C_2  and  N_6
    2  A    between atoms: C_2  and  C_20
    3  A    between atoms: C_3  and  C_4
    4  A    between atoms: C_4  and  O_10
    5  A    between atoms: C_4  and  C_27
    6  A    between atoms: N_6  and  N_14
    7  A    between atoms: C_8  and  C_15
    8  A    between atoms: C_8  and  C_17
    9  A    between atoms: O_10  and  C_33
   10  A    between atoms: C_11  and  C_29
   11  A    between atoms: C_11  and  C_36
   12  A    between atoms: C_13  and  C_15
   13  A    between atoms: C_13  and  C_16
   14  A    between atoms: N_14  and  C_17
   15  A    between atoms: C_17  and  C_19
   16  A    between atoms: C_19  and  C_29
                            x       y       z     vdW  Elec       q    Type
                         _______ _______ _______ _____ _____    ______ ____

>  <TORSDO>
F 16

$$$$
=
 OpenBabel10222421183D

 37 39  0  0  1  0  0  0  0  0999 V2000
  190.5780  175.9910  139.0400 C   0  0  0  0  0  1  0  0  0  0  0  0
  189.5510  176.5300  138.0320 C   0  0  1  0  0  0  0  0  0  0  0  0
  189.1620  177.9900  138.3720 C   0  0  1  0  0  3  0  0  0  0  0  0
  188.7640  179.0000  136.9010 S   0  0  0  0  0  1  0  0  0  0  0  0
  188.0070  178.0760  139.3660 C   0  0  0  0  0  2  0  0  0  0  0  0
  188.4770  178.7020  140.6660 C   0  0  0  0  0  2  0  0  0  0  0  0
  185.6920  179.2110  147.1500 N   0  0  0  0  0  0  0  0  0  0  0  0
  186.9360  177.8290  145.9680 C   0  0  0  0  0  0  0  0  0  0  0  0
  187.5860  178.2870  141.7830 C   0  0  0  0  0  0  0  0  0  0  0  0
  187.8180  177.1250  145.2790 C   0  0  0  0  0  2  0  0  0  0  0  0
  187.7210  178.3160  148.3600 C   0  0  0  0  0  1  0  0  0  0  0  0
  188.0880  177.5470  142.7890 C   0  0  0  0  0  3  0  0  0  0  0  0
  185.9630  177.8740  144.0080 C   0  0  2  0  0  3  0  0  0  0  0  0
  187.2020  177.0190  143.8900 C   0  0  2  0  0  3  0  0  0  0  0  0
  186.7980  178.4200  147.1980 C   0  0  0  0  0  0  0  0  0  0  0  0
  185.3840  178.5700  142.8580 C   0  0  0  0  0  3  0  0  0  0  0  0
  185.1840  179.1050  145.9430 O   0  0  0  0  0  0  0  0  0  0  0  0
  185.9170  178.2710  145.2540 C   0  0  0  0  0  0  0  0  0  0  0  0
  186.1670  178.7370  141.7850 C   0  0  0  0  0  3  0  0  0  0  0  0
  190.1970  176.5270  136.6360 C   0  0  0  0  0  2  0  0  0  0  0  0
  190.6480  174.2610  135.7010 C   0  0  0  0  0  1  0  0  0  0  0  0
  191.2500  175.4400  136.4470 C   0  0  1  0  0  3  0  0  0  0  0  0
  192.4150  176.0100  135.6540 C   0  0  0  0  0  2  0  0  0  0  0  0
  193.6930  175.3690  137.5730 O   0  0  0  0  0  1  0  0  0  0  0  0
  193.5940  176.3240  136.5600 C   0  0  0  0  0  2  0  0  0  0  0  0
  188.3430  175.6910  137.9660 N   0  0  0  0  0  2  0  0  0  0  0  0
  187.6930  175.8430  136.7280 N   0  0  0  0  0  2  0  0  0  0  0  0
  186.2670  175.7180  136.9840 C   0  0  0  0  0  2  0  0  0  0  0  0
  184.5430  177.5030  137.1900 C   0  0  0  0  0  3  0  0  0  0  0  0
  185.5580  176.9510  136.5170 C   0  0  0  0  0  3  0  0  0  0  0  0
  183.9980  176.9380  138.4730 C   0  0  2  0  0  3  0  0  0  0  0  0
  182.2330  175.6340  139.4440 O   0  0  0  0  0  1  0  0  0  0  0  0
  182.7420  176.1060  138.2330 C   0  0  0  0  0  2  0  0  0  0  0  0
  183.7480  177.9770  139.4220 O   0  0  0  0  0  0  0  0  0  0  0  0
  184.5590  180.1260  139.1110 O   0  0  0  0  0  0  0  0  0  0  0  0
  182.2970  179.8060  138.7210 N   0  0  0  0  0  1  0  0  0  0  0  0
  183.5840  179.3280  139.0900 C   0  0  0  0  0  0  0  0  0  0  0  0
  2  3  1  0  0  0  0
  2  1  1  1  0  0  0
  3  4  1  6  0  0  0
  3  5  1  0  0  0  0
  5  6  1  0  0  0  0
  6  9  1  0  0  0  0
  7 15  2  0  0  0  0
  8 15  1  0  0  0  0
  9 19  1  0  0  0  0
  9 12  2  0  0  0  0
 10  8  1  0  0  0  0
 13 16  1  6  0  0  0
 13 18  1  0  0  0  0
 14 12  1  6  0  0  0
 14 13  1  0  0  0  0
 14 10  1  0  0  0  0
 15 11  1  0  0  0  0
 17  7  1  0  0  0  0
 18 17  1  0  0  0  0
 18  8  2  0  0  0  0
 19 16  2  0  0  0  0
 20  2  1  0  0  0  0
 22 21  1  6  0  0  0
 22 20  1  0  0  0  0
 23 22  1  0  0  0  0
 23 25  1  0  0  0  0
 25 24  1  0  0  0  0
 26  2  1  0  0  0  0
 27 28  1  0  0  0  0
 27 26  1  0  0  0  0
 30 28  1  0  0  0  0
 30 29  2  0  0  0  0
 31 29  1  6  0  0  0
 31 34  1  0  0  0  0
 33 31  1  0  0  0  0
 33 32  1  0  0  0  0
 36 37  1  0  0  0  0
 37 35  2  0  0  0  0
 37 34  1  0  0  0  0
M  END
>  <MODEL>
8

>  <REMARK>
 VINA RESULT:      -6.6      3.538      6.815
  Name = 
  16 active torsions:
  status: ('A' for Active; 'I' for Inactive)
    1  A    between atoms: C_2  and  N_6
    2  A    between atoms: C_2  and  C_20
    3  A    between atoms: C_3  and  C_4
    4  A    between atoms: C_4  and  O_10
    5  A    between atoms: C_4  and  C_27
    6  A    between atoms: N_6  and  N_14
    7  A    between atoms: C_8  and  C_15
    8  A    between atoms: C_8  and  C_17
    9  A    between atoms: O_10  and  C_33
   10  A    between atoms: C_11  and  C_29
   11  A    between atoms: C_11  and  C_36
   12  A    between atoms: C_13  and  C_15
   13  A    between atoms: C_13  and  C_16
   14  A    between atoms: N_14  and  C_17
   15  A    between atoms: C_17  and  C_19
   16  A    between atoms: C_19  and  C_29
                            x       y       z     vdW  Elec       q    Type
                         _______ _______ _______ _____ _____    ______ ____

>  <TORSDO>
F 16

$$$$
=
 OpenBabel10222421183D

 37 39  0  0  1  0  0  0  0  0999 V2000
  190.9160  178.9120  144.5060 C   0  0  0  0  0  1  0  0  0  0  0  0
  190.2040  177.6190  144.0790 C   0  0  1  0  0  0  0  0  0  0  0  0
  191.1170  176.7660  143.1630 C   0  0  1  0  0  3  0  0  0  0  0  0
  191.6810  175.2100  143.9400 S   0  0  0  0  0  1  0  0  0  0  0  0
  190.4700  176.4480  141.8180 C   0  0  0  0  0  2  0  0  0  0  0  0
  191.0160  177.3680  140.7410 C   0  0  0  0  0  2  0  0  0  0  0  0
  185.6390  174.9290  136.8420 N   0  0  0  0  0  0  0  0  0  0  0  0
  187.8420  174.9970  136.7980 C   0  0  0  0  0  0  0  0  0  0  0  0
  190.1510  177.3070  139.5320 C   0  0  0  0  0  0  0  0  0  0  0  0
  189.1560  174.9110  136.9070 C   0  0  0  0  0  2  0  0  0  0  0  0
  186.7540  172.7470  136.2250 C   0  0  0  0  0  1  0  0  0  0  0  0
  190.3700  176.3520  138.6100 C   0  0  0  0  0  3  0  0  0  0  0  0
  188.2670  177.0270  137.5020 C   0  0  2  0  0  3  0  0  0  0  0  0
  189.5860  176.3120  137.3230 C   0  0  2  0  0  3  0  0  0  0  0  0
  186.7530  174.1910  136.5820 C   0  0  0  0  0  0  0  0  0  0  0  0
  188.1050  178.1400  138.4360 C   0  0  0  0  0  3  0  0  0  0  0  0
  186.0370  176.1290  137.2020 O   0  0  0  0  0  0  0  0  0  0  0  0
  187.3430  176.1660  137.1570 C   0  0  0  0  0  0  0  0  0  0  0  0
  189.0330  178.2800  139.3910 C   0  0  0  0  0  3  0  0  0  0  0  0
  189.9020  176.7940  145.3420 C   0  0  0  0  0  2  0  0  0  0  0  0
  188.4420  177.8470  147.0660 C   0  0  0  0  0  1  0  0  0  0  0  0
  189.8780  177.6200  146.6250 C   0  0  1  0  0  3  0  0  0  0  0  0
  190.6380  176.8740  147.7100 C   0  0  0  0  0  2  0  0  0  0  0  0
  192.8050  176.0190  148.2600 O   0  0  0  0  0  1  0  0  0  0  0  0
  191.9760  176.3710  147.1940 C   0  0  0  0  0  2  0  0  0  0  0  0
  188.9240  177.8850  143.4040 N   0  0  0  0  0  2  0  0  0  0  0  0
  187.9600  176.9230  143.7570 N   0  0  0  0  0  2  0  0  0  0  0  0
  186.6580  177.5240  143.5190 C   0  0  0  0  0  2  0  0  0  0  0  0
  185.6210  178.7990  141.6490 C   0  0  0  0  0  3  0  0  0  0  0  0
  186.7150  178.3930  142.3020 C   0  0  0  0  0  3  0  0  0  0  0  0
  184.2250  178.4120  142.0540 C   0  0  2  0  0  3  0  0  0  0  0  0
  182.1040  178.8990  141.0430 O   0  0  0  0  0  1  0  0  0  0  0  0
  183.3150  178.2340  140.8430 C   0  0  0  0  0  2  0  0  0  0  0  0
  183.6770  179.3650  142.9680 O   0  0  0  0  0  0  0  0  0  0  0  0
  183.8700  179.1110  145.2640 O   0  0  0  0  0  0  0  0  0  0  0  0
  181.8000  178.6310  144.3380 N   0  0  0  0  0  1  0  0  0  0  0  0
  183.1560  179.0420  144.2280 C   0  0  0  0  0  0  0  0  0  0  0  0
  2  1  1  1  0  0  0
  2 20  1  0  0  0  0
  3  4  1  1  0  0  0
  3  2  1  0  0  0  0
  5  3  1  0  0  0  0
  6  5  1  0  0  0  0
  7 17  1  0  0  0  0
  8 10  1  0  0  0  0
  8 18  2  0  0  0  0
  9  6  1  0  0  0  0
 11 15  1  0  0  0  0
 12  9  2  0  0  0  0
 13 16  1  1  0  0  0
 14 10  1  1  0  0  0
 14 13  1  0  0  0  0
 14 12  1  0  0  0  0
 15  8  1  0  0  0  0
 15  7  2  0  0  0  0
 16 19  2  0  0  0  0
 18 17  1  0  0  0  0
 18 13  1  0  0  0  0
 19  9  1  0  0  0  0
 20 22  1  0  0  0  0
 22 21  1  1  0  0  0
 22 23  1  0  0  0  0
 25 23  1  0  0  0  0
 25 24  1  0  0  0  0
 26 27  1  0  0  0  0
 26  2  1  0  0  0  0
 28 27  1  0  0  0  0
 29 31  1  0  0  0  0
 29 30  2  0  0  0  0
 30 28  1  0  0  0  0
 31 33  1  6  0  0  0
 31 34  1  0  0  0  0
 33 32  1  0  0  0  0
 34 37  1  0  0  0  0
 37 36  1  0  0  0  0
 37 35  2  0  0  0  0
M  END
>  <MODEL>
9

>  <REMARK>
 VINA RESULT:      -6.6      2.578      6.272
  Name = 
  16 active torsions:
  status: ('A' for Active; 'I' for Inactive)
    1  A    between atoms: C_2  and  N_6
    2  A    between atoms: C_2  and  C_20
    3  A    between atoms: C_3  and  C_4
    4  A    between atoms: C_4  and  O_10
    5  A    between atoms: C_4  and  C_27
    6  A    between atoms: N_6  and  N_14
    7  A    between atoms: C_8  and  C_15
    8  A    between atoms: C_8  and  C_17
    9  A    between atoms: O_10  and  C_33
   10  A    between atoms: C_11  and  C_29
   11  A    between atoms: C_11  and  C_36
   12  A    between atoms: C_13  and  C_15
   13  A    between atoms: C_13  and  C_16
   14  A    between atoms: N_14  and  C_17
   15  A    between atoms: C_17  and  C_19
   16  A    between atoms: C_19  and  C_29
                            x       y       z     vdW  Elec       q    Type
                         _______ _______ _______ _____ _____    ______ ____

>  <TORSDO>
F 16

$$$$
