=
 OpenBabel10222416423D

 30 32  0  0  1  0  0  0  0  0999 V2000
  191.1570  177.3300  139.9550 C   0  0  0  0  0  0  0  0  0  0  0  0
  190.0990  177.0890  140.8960 N   0  0  0  0  0  0  0  0  0  0  0  0
  188.3900  177.7590  139.3060 C   0  0  0  0  0  0  0  0  0  0  0  0
  189.4470  178.0330  138.2950 C   0  0  0  0  0  0  0  0  0  0  0  0
  188.7300  177.2980  140.5130 C   0  0  0  0  0  3  0  0  0  0  0  0
  189.1470  178.5930  137.1260 C   0  0  0  0  0  2  0  0  0  0  0  0
  192.3590  177.3420  140.3350 O   0  0  0  0  0  0  0  0  0  0  0  0
  190.8450  177.5150  138.5000 C   0  0  2  0  0  3  0  0  0  0  0  0
  186.4130  177.4570  137.8370 C   0  0  0  0  0  3  0  0  0  0  0  0
  186.6040  179.1560  141.1500 N   0  0  0  0  0  1  0  0  0  0  0  0
  185.0610  177.6390  137.5490 C   0  0  0  0  0  0  0  0  0  0  0  0
  186.9570  177.9720  139.0180 C   0  0  0  0  0  0  0  0  0  0  0  0
  184.7960  178.8260  139.6020 N   0  0  0  0  0  0  0  0  0  0  0  0
  184.2600  178.3400  138.4510 C   0  0  0  0  0  3  0  0  0  0  0  0
  186.1110  178.6600  139.9090 C   0  0  0  0  0  0  0  0  0  0  0  0
  184.3660  176.9970  136.0330 S   0  0  0  0  0  0  0  0  0  0  0  0
  185.9490  177.1240  135.1520 C   0  0  0  0  0  1  0  0  0  0  0  0
  191.3580  177.6820  142.9430 C   0  0  0  0  0  2  0  0  0  0  0  0
  189.4120  176.2580  144.4140 O   0  0  0  0  0  0  0  0  0  0  0  0
  190.4210  176.6720  142.2590 C   0  0  1  0  0  3  0  0  0  0  0  0
  188.9750  177.4830  144.9330 C   0  0  2  0  0  3  0  0  0  0  0  0
  190.1400  178.4740  144.9920 C   0  0  0  0  0  2  0  0  0  0  0  0
  190.6230  178.8500  143.5960 C   0  0  0  0  0  2  0  0  0  0  0  0
  189.1470  176.3370  143.0430 C   0  0  0  0  0  2  0  0  0  0  0  0
  189.2100  177.0710  147.2520 C   0  0  0  0  0  2  0  0  0  0  0  0
  188.4340  177.2750  146.2510 N   0  0  0  0  0  0  0  0  0  0  0  0
  191.7700  176.2100  136.5270 N   0  0  0  0  0  2  0  0  0  0  0  0
  191.0510  176.2270  137.7620 C   0  0  0  0  0  0  0  0  0  0  0  0
  190.5840  175.1600  138.2420 O   0  0  0  0  0  0  0  0  0  0  0  0
  191.9930  174.9840  135.7810 C   0  0  0  0  0  1  0  0  0  0  0  0
  1  7  2  0  0  0  0
  1  2  1  0  0  0  0
  3  5  2  0  0  0  0
  4  8  1  0  0  0  0
  4  3  1  0  0  0  0
  5  2  1  0  0  0  0
  6  4  2  0  0  0  0
  8 28  1  6  0  0  0
  8  1  1  0  0  0  0
  9 12  1  0  0  0  0
 11  9  2  0  0  0  0
 11 14  1  0  0  0  0
 12  3  1  0  0  0  0
 12 15  2  0  0  0  0
 13 15  1  0  0  0  0
 14 13  2  0  0  0  0
 15 10  1  0  0  0  0
 16 11  1  0  0  0  0
 17 16  1  0  0  0  0
 18 23  1  0  0  0  0
 19 21  1  0  0  0  0
 20  2  1  6  0  0  0
 20 18  1  0  0  0  0
 20 24  1  0  0  0  0
 21 22  1  0  0  0  0
 21 26  1  1  0  0  0
 23 22  1  0  0  0  0
 24 19  1  0  0  0  0
 26 25  2  0  0  0  0
 27 28  1  0  0  0  0
 28 29  2  0  0  0  0
 30 27  1  0  0  0  0
M  END
>  <MODEL>
1

>  <REMARK>
 VINA RESULT:      -7.4      0.000      0.000
  Name = 
  5 active torsions:
  status: ('A' for Active; 'I' for Inactive)
    1  A    between atoms: C_2  and  C_27
    2  A    between atoms: N_4  and  C_10
    3  A    between atoms: C_9  and  C_21
    4  A    between atoms: C_14  and  S_17
    5  A    between atoms: C_18  and  N_25
                            x       y       z     vdW  Elec       q    Type
                         _______ _______ _______ _____ _____    ______ ____

>  <TORSDO>
F 5

$$$$
=
 OpenBabel10222416423D

 30 32  0  0  1  0  0  0  0  0999 V2000
  191.4350  177.1910  139.8490 C   0  0  0  0  0  0  0  0  0  0  0  0
  190.3090  176.8560  140.6760 N   0  0  0  0  0  0  0  0  0  0  0  0
  188.7340  177.2250  138.8650 C   0  0  0  0  0  0  0  0  0  0  0  0
  189.8630  177.5900  137.9660 C   0  0  0  0  0  0  0  0  0  0  0  0
  188.9800  176.8680  140.1280 C   0  0  0  0  0  3  0  0  0  0  0  0
  189.6390  178.0530  136.7390 C   0  0  0  0  0  2  0  0  0  0  0  0
  192.5710  177.3770  140.3620 O   0  0  0  0  0  0  0  0  0  0  0  0
  191.2790  177.2680  138.3590 C   0  0  2  0  0  3  0  0  0  0  0  0
  186.4650  178.2290  138.8730 C   0  0  0  0  0  3  0  0  0  0  0  0
  187.6960  175.2910  136.9340 N   0  0  0  0  0  1  0  0  0  0  0  0
  185.1390  178.2630  138.4440 C   0  0  0  0  0  0  0  0  0  0  0  0
  187.3320  177.2360  138.4030 C   0  0  0  0  0  0  0  0  0  0  0  0
  185.5400  176.3440  137.0840 N   0  0  0  0  0  0  0  0  0  0  0  0
  184.6880  177.2970  137.5440 C   0  0  0  0  0  3  0  0  0  0  0  0
  186.8400  176.2900  137.4840 C   0  0  0  0  0  0  0  0  0  0  0  0
  184.0240  179.5200  139.0550 S   0  0  0  0  0  0  0  0  0  0  0  0
  184.2940  179.0410  140.7850 C   0  0  0  0  0  1  0  0  0  0  0  0
  191.4170  177.5930  142.7640 C   0  0  0  0  0  2  0  0  0  0  0  0
  189.3300  176.3260  144.1840 O   0  0  0  0  0  0  0  0  0  0  0  0
  190.5130  176.5460  142.0890 C   0  0  1  0  0  3  0  0  0  0  0  0
  188.8820  177.5970  144.5660 C   0  0  2  0  0  3  0  0  0  0  0  0
  190.0610  178.5690  144.6390 C   0  0  0  0  0  2  0  0  0  0  0  0
  190.6600  178.8230  143.2600 C   0  0  0  0  0  2  0  0  0  0  0  0
  189.1740  176.2980  142.7930 C   0  0  0  0  0  2  0  0  0  0  0  0
  186.9620  177.6370  145.9510 C   0  0  0  0  0  2  0  0  0  0  0  0
  188.2340  177.5060  145.8500 N   0  0  0  0  0  0  0  0  0  0  0  0
  192.8090  175.9860  136.7890 N   0  0  0  0  0  2  0  0  0  0  0  0
  191.7320  175.9860  137.7290 C   0  0  0  0  0  0  0  0  0  0  0  0
  191.1530  174.9100  138.0350 O   0  0  0  0  0  0  0  0  0  0  0  0
  193.2790  174.7660  136.1550 C   0  0  0  0  0  1  0  0  0  0  0  0
  1  7  2  0  0  0  0
  1  2  1  0  0  0  0
  3  5  2  0  0  0  0
  4  8  1  0  0  0  0
  4  3  1  0  0  0  0
  5  2  1  0  0  0  0
  6  4  2  0  0  0  0
  8 28  1  6  0  0  0
  8  1  1  0  0  0  0
 10 15  1  0  0  0  0
 11  9  1  0  0  0  0
 11 16  1  0  0  0  0
 12  3  1  0  0  0  0
 12  9  2  0  0  0  0
 13 15  2  0  0  0  0
 13 14  1  0  0  0  0
 14 11  2  0  0  0  0
 15 12  1  0  0  0  0
 16 17  1  0  0  0  0
 18 23  1  0  0  0  0
 19 21  1  0  0  0  0
 20  2  1  6  0  0  0
 20 18  1  0  0  0  0
 20 24  1  0  0  0  0
 21 22  1  0  0  0  0
 21 26  1  1  0  0  0
 23 22  1  0  0  0  0
 24 19  1  0  0  0  0
 26 25  2  0  0  0  0
 27 28  1  0  0  0  0
 28 29  2  0  0  0  0
 30 27  1  0  0  0  0
M  END
>  <MODEL>
2

>  <REMARK>
 VINA RESULT:      -7.3      1.565      2.109
  Name = 
  5 active torsions:
  status: ('A' for Active; 'I' for Inactive)
    1  A    between atoms: C_2  and  C_27
    2  A    between atoms: N_4  and  C_10
    3  A    between atoms: C_9  and  C_21
    4  A    between atoms: C_14  and  S_17
    5  A    between atoms: C_18  and  N_25
                            x       y       z     vdW  Elec       q    Type
                         _______ _______ _______ _____ _____    ______ ____

>  <TORSDO>
F 5

$$$$
=
 OpenBabel10222416423D

 30 32  0  0  1  0  0  0  0  0999 V2000
  190.1960  176.7270  135.9720 C   0  0  0  0  0  0  0  0  0  0  0  0
  191.0280  175.8590  136.7590 N   0  0  0  0  0  0  0  0  0  0  0  0
  190.3900  176.9520  138.8310 C   0  0  0  0  0  0  0  0  0  0  0  0
  189.5190  177.8830  138.0640 C   0  0  0  0  0  0  0  0  0  0  0  0
  191.0720  176.0000  138.1880 C   0  0  0  0  0  3  0  0  0  0  0  0
  188.9150  178.9060  138.6640 C   0  0  0  0  0  2  0  0  0  0  0  0
  190.3010  176.7440  134.7150 O   0  0  0  0  0  0  0  0  0  0  0  0
  189.1570  177.5790  136.6350 C   0  0  2  0  0  3  0  0  0  0  0  0
  189.4120  176.7710  141.1040 C   0  0  0  0  0  3  0  0  0  0  0  0
  192.9240  177.5790  140.1470 N   0  0  0  0  0  1  0  0  0  0  0  0
  189.5190  176.8360  142.4930 C   0  0  0  0  0  0  0  0  0  0  0  0
  190.5240  177.0360  140.2990 C   0  0  0  0  0  0  0  0  0  0  0  0
  191.8240  177.4140  142.2770 N   0  0  0  0  0  0  0  0  0  0  0  0
  190.7450  177.1690  143.0680 C   0  0  0  0  0  3  0  0  0  0  0  0
  191.7480  177.3540  140.9200 C   0  0  0  0  0  0  0  0  0  0  0  0
  188.0950  176.5140  143.5240 S   0  0  0  0  0  0  0  0  0  0  0  0
  188.9340  177.1110  145.0190 C   0  0  0  0  0  1  0  0  0  0  0  0
  193.1460  175.4940  135.5290 C   0  0  0  0  0  2  0  0  0  0  0  0
  193.1390  172.8530  136.5280 O   0  0  0  0  0  0  0  0  0  0  0  0
  191.8650  174.8600  136.0980 C   0  0  1  0  0  3  0  0  0  0  0  0
  194.2420  173.1990  137.3180 C   0  0  2  0  0  3  0  0  0  0  0  0
  195.0580  174.2950  136.6300 C   0  0  0  0  0  2  0  0  0  0  0  0
  194.2780  175.6020  136.5480 C   0  0  0  0  0  2  0  0  0  0  0  0
  192.0930  173.6480  137.0090 C   0  0  0  0  0  2  0  0  0  0  0  0
  196.3390  172.1230  137.5400 C   0  0  0  0  0  2  0  0  0  0  0  0
  195.0590  172.0320  137.5300 N   0  0  0  0  0  0  0  0  0  0  0  0
  187.6470  175.5730  137.0170 N   0  0  0  0  0  2  0  0  0  0  0  0
  187.8170  176.9140  136.5520 C   0  0  0  0  0  0  0  0  0  0  0  0
  186.8430  177.5490  136.0670 O   0  0  0  0  0  0  0  0  0  0  0  0
  186.3650  174.8920  136.9550 C   0  0  0  0  0  1  0  0  0  0  0  0
  1  8  1  0  0  0  0
  1  2  1  0  0  0  0
  2  5  1  0  0  0  0
  3 12  1  0  0  0  0
  4  6  2  0  0  0  0
  4  3  1  0  0  0  0
  5  3  2  0  0  0  0
  7  1  2  0  0  0  0
  8 28  1  1  0  0  0
  8  4  1  0  0  0  0
  9 11  1  0  0  0  0
 10 15  1  0  0  0  0
 11 14  2  0  0  0  0
 11 16  1  0  0  0  0
 12 15  1  0  0  0  0
 12  9  2  0  0  0  0
 13 14  1  0  0  0  0
 15 13  2  0  0  0  0
 16 17  1  0  0  0  0
 18 23  1  0  0  0  0
 19 24  1  0  0  0  0
 19 21  1  0  0  0  0
 20 18  1  1  0  0  0
 20  2  1  0  0  0  0
 20 24  1  0  0  0  0
 21 26  1  6  0  0  0
 22 21  1  0  0  0  0
 23 22  1  0  0  0  0
 26 25  2  0  0  0  0
 28 27  1  0  0  0  0
 29 28  2  0  0  0  0
 30 27  1  0  0  0  0
M  END
>  <MODEL>
3

>  <REMARK>
 VINA RESULT:      -6.8      3.458      7.065
  Name = 
  5 active torsions:
  status: ('A' for Active; 'I' for Inactive)
    1  A    between atoms: C_2  and  C_27
    2  A    between atoms: N_4  and  C_10
    3  A    between atoms: C_9  and  C_21
    4  A    between atoms: C_14  and  S_17
    5  A    between atoms: C_18  and  N_25
                            x       y       z     vdW  Elec       q    Type
                         _______ _______ _______ _____ _____    ______ ____

>  <TORSDO>
F 5

$$$$
=
 OpenBabel10222416423D

 30 32  0  0  1  0  0  0  0  0999 V2000
  188.5690  177.7360  137.3460 C   0  0  0  0  0  0  0  0  0  0  0  0
  188.0800  177.9350  138.6820 N   0  0  0  0  0  0  0  0  0  0  0  0
  185.7640  177.7580  137.9750 C   0  0  0  0  0  0  0  0  0  0  0  0
  186.2140  177.5560  136.5710 C   0  0  0  0  0  0  0  0  0  0  0  0
  186.6680  177.9160  138.9460 C   0  0  0  0  0  3  0  0  0  0  0  0
  185.3380  177.5050  135.5720 C   0  0  0  0  0  2  0  0  0  0  0  0
  189.7810  177.9470  137.0710 O   0  0  0  0  0  0  0  0  0  0  0  0
  187.6510  177.2200  136.2780 C   0  0  2  0  0  3  0  0  0  0  0  0
  183.5670  176.6250  138.1880 C   0  0  0  0  0  3  0  0  0  0  0  0
  184.4670  180.1280  139.0940 N   0  0  0  0  0  1  0  0  0  0  0  0
  182.2170  176.6240  138.5370 C   0  0  0  0  0  0  0  0  0  0  0  0
  184.3340  177.7840  138.3420 C   0  0  0  0  0  0  0  0  0  0  0  0
  182.3980  178.9100  139.1950 N   0  0  0  0  0  0  0  0  0  0  0  0
  181.6420  177.7920  139.0380 C   0  0  0  0  0  3  0  0  0  0  0  0
  183.7180  178.9370  138.8670 C   0  0  0  0  0  0  0  0  0  0  0  0
  181.2300  175.1490  138.3260 S   0  0  0  0  0  0  0  0  0  0  0  0
  180.2850  175.4600  139.8440 C   0  0  0  0  0  1  0  0  0  0  0  0
  188.3160  178.8500  140.9700 C   0  0  0  0  0  2  0  0  0  0  0  0
  190.5020  177.0980  141.3240 O   0  0  0  0  0  0  0  0  0  0  0  0
  189.0220  178.2030  139.7670 C   0  0  1  0  0  3  0  0  0  0  0  0
  189.7170  176.3780  142.2340 C   0  0  2  0  0  3  0  0  0  0  0  0
  188.7130  177.3100  142.9140 C   0  0  0  0  0  2  0  0  0  0  0  0
  187.6820  177.8390  141.9230 C   0  0  0  0  0  2  0  0  0  0  0  0
  189.8460  176.9530  140.0960 C   0  0  0  0  0  2  0  0  0  0  0  0
  191.5910  176.3940  143.6790 C   0  0  0  0  0  2  0  0  0  0  0  0
  190.5720  175.7660  143.2180 N   0  0  0  0  0  0  0  0  0  0  0  0
  187.2540  174.8350  137.0550 N   0  0  0  0  0  2  0  0  0  0  0  0
  187.8330  175.7420  136.1140 C   0  0  0  0  0  0  0  0  0  0  0  0
  188.5040  175.3070  135.1400 O   0  0  0  0  0  0  0  0  0  0  0  0
  187.4060  173.3950  136.9320 C   0  0  0  0  0  1  0  0  0  0  0  0
  1  2  1  0  0  0  0
  2  5  1  0  0  0  0
  3 12  1  0  0  0  0
  3  5  2  0  0  0  0
  4  3  1  0  0  0  0
  6  4  2  0  0  0  0
  7  1  2  0  0  0  0
  8 28  1  1  0  0  0
  8  4  1  0  0  0  0
  8  1  1  0  0  0  0
  9 12  2  0  0  0  0
  9 11  1  0  0  0  0
 11 14  2  0  0  0  0
 12 15  1  0  0  0  0
 14 13  1  0  0  0  0
 15 10  1  0  0  0  0
 15 13  2  0  0  0  0
 16 11  1  0  0  0  0
 16 17  1  0  0  0  0
 18 23  1  0  0  0  0
 19 21  1  0  0  0  0
 20  2  1  6  0  0  0
 20 24  1  0  0  0  0
 20 18  1  0  0  0  0
 21 22  1  0  0  0  0
 21 26  1  1  0  0  0
 23 22  1  0  0  0  0
 24 19  1  0  0  0  0
 26 25  2  0  0  0  0
 28 27  1  0  0  0  0
 29 28  2  0  0  0  0
 30 27  1  0  0  0  0
M  END
>  <MODEL>
4

>  <REMARK>
 VINA RESULT:      -6.6      2.483      3.744
  Name = 
  5 active torsions:
  status: ('A' for Active; 'I' for Inactive)
    1  A    between atoms: C_2  and  C_27
    2  A    between atoms: N_4  and  C_10
    3  A    between atoms: C_9  and  C_21
    4  A    between atoms: C_14  and  S_17
    5  A    between atoms: C_18  and  N_25
                            x       y       z     vdW  Elec       q    Type
                         _______ _______ _______ _____ _____    ______ ____

>  <TORSDO>
F 5

$$$$
=
 OpenBabel10222416423D

 30 32  0  0  1  0  0  0  0  0999 V2000
  190.1000  176.7530  140.9870 C   0  0  0  0  0  0  0  0  0  0  0  0
  189.2320  177.6280  140.2500 N   0  0  0  0  0  0  0  0  0  0  0  0
  187.6320  177.7510  142.0730 C   0  0  0  0  0  0  0  0  0  0  0  0
  188.4900  176.8390  142.8780 C   0  0  0  0  0  0  0  0  0  0  0  0
  188.0200  178.1160  140.8470 C   0  0  0  0  0  3  0  0  0  0  0  0
  188.0780  176.3740  144.0540 C   0  0  0  0  0  2  0  0  0  0  0  0
  191.0540  176.1650  140.4100 O   0  0  0  0  0  0  0  0  0  0  0  0
  189.9120  176.5750  142.4640 C   0  0  2  0  0  3  0  0  0  0  0  0
  186.0910  178.2190  143.9600 C   0  0  0  0  0  3  0  0  0  0  0  0
  185.6380  179.0090  140.3440 N   0  0  0  0  0  1  0  0  0  0  0  0
  184.8940  178.7210  144.4690 C   0  0  0  0  0  0  0  0  0  0  0  0
  186.3540  178.2810  142.5880 C   0  0  0  0  0  0  0  0  0  0  0  0
  184.2340  179.3510  142.2640 N   0  0  0  0  0  0  0  0  0  0  0  0
  183.9640  179.2840  143.5950 C   0  0  0  0  0  3  0  0  0  0  0  0
  185.3960  178.8720  141.7420 C   0  0  0  0  0  0  0  0  0  0  0  0
  184.5480  178.6280  146.2200 S   0  0  0  0  0  0  0  0  0  0  0  0
  186.3080  178.5230  146.6510 C   0  0  0  0  0  1  0  0  0  0  0  0
  190.0640  176.7640  138.0840 C   0  0  0  0  0  2  0  0  0  0  0  0
  188.5760  178.8090  136.8260 O   0  0  0  0  0  0  0  0  0  0  0  0
  189.5620  177.9860  138.8720 C   0  0  1  0  0  3  0  0  0  0  0  0
  187.7250  177.8150  136.3240 C   0  0  2  0  0  3  0  0  0  0  0  0
  188.4960  176.5070  136.1380 C   0  0  0  0  0  2  0  0  0  0  0  0
  188.9400  175.9270  137.4760 C   0  0  0  0  0  2  0  0  0  0  0  0
  188.4080  178.7510  138.2140 C   0  0  0  0  0  2  0  0  0  0  0  0
  186.1130  177.7130  134.5940 C   0  0  0  0  0  2  0  0  0  0  0  0
  187.1780  178.2510  135.0650 N   0  0  0  0  0  0  0  0  0  0  0  0
  190.4680  178.7790  143.5970 N   0  0  0  0  0  2  0  0  0  0  0  0
  190.8610  177.4590  143.2130 C   0  0  0  0  0  0  0  0  0  0  0  0
  192.0100  177.0280  143.5000 O   0  0  0  0  0  0  0  0  0  0  0  0
  191.3570  179.6680  144.3240 C   0  0  0  0  0  1  0  0  0  0  0  0
  1  8  1  0  0  0  0
  2  5  1  0  0  0  0
  2  1  1  0  0  0  0
  3 12  1  0  0  0  0
  3  4  1  0  0  0  0
  4  6  2  0  0  0  0
  5  3  2  0  0  0  0
  7  1  2  0  0  0  0
  8  4  1  0  0  0  0
  8 28  1  1  0  0  0
  9 11  1  0  0  0  0
 10 15  1  0  0  0  0
 11 16  1  0  0  0  0
 12  9  2  0  0  0  0
 13 14  1  0  0  0  0
 14 11  2  0  0  0  0
 15 13  2  0  0  0  0
 15 12  1  0  0  0  0
 16 17  1  0  0  0  0
 19 24  1  0  0  0  0
 20 18  1  6  0  0  0
 20  2  1  0  0  0  0
 21 26  1  6  0  0  0
 21 19  1  0  0  0  0
 22 21  1  0  0  0  0
 22 23  1  0  0  0  0
 23 18  1  0  0  0  0
 24 20  1  0  0  0  0
 25 26  2  0  0  0  0
 27 30  1  0  0  0  0
 28 29  2  0  0  0  0
 28 27  1  0  0  0  0
M  END
>  <MODEL>
5

>  <REMARK>
 VINA RESULT:      -6.5      3.068      6.717
  Name = 
  5 active torsions:
  status: ('A' for Active; 'I' for Inactive)
    1  A    between atoms: C_2  and  C_27
    2  A    between atoms: N_4  and  C_10
    3  A    between atoms: C_9  and  C_21
    4  A    between atoms: C_14  and  S_17
    5  A    between atoms: C_18  and  N_25
                            x       y       z     vdW  Elec       q    Type
                         _______ _______ _______ _____ _____    ______ ____

>  <TORSDO>
F 5

$$$$
=
 OpenBabel10222416423D

 30 32  0  0  1  0  0  0  0  0999 V2000
  191.6650  177.0730  139.8980 C   0  0  0  0  0  0  0  0  0  0  0  0
  190.4950  176.6220  140.6000 N   0  0  0  0  0  0  0  0  0  0  0  0
  189.1310  176.7000  138.5920 C   0  0  0  0  0  0  0  0  0  0  0  0
  190.3090  177.1780  137.8180 C   0  0  0  0  0  0  0  0  0  0  0  0
  189.2580  176.4310  139.8950 C   0  0  0  0  0  3  0  0  0  0  0  0
  190.1860  177.5560  136.5490 C   0  0  0  0  0  2  0  0  0  0  0  0
  192.6920  177.4320  140.5340 O   0  0  0  0  0  0  0  0  0  0  0  0
  191.6930  177.0670  138.3990 C   0  0  2  0  0  3  0  0  0  0  0  0
  187.5560  175.3180  137.2630 C   0  0  0  0  0  3  0  0  0  0  0  0
  186.9720  178.6580  138.8130 N   0  0  0  0  0  1  0  0  0  0  0  0
  186.3130  175.1060  136.6700 C   0  0  0  0  0  0  0  0  0  0  0  0
  187.8100  176.5020  137.9640 C   0  0  0  0  0  0  0  0  0  0  0  0
  185.5790  177.2290  137.4740 N   0  0  0  0  0  0  0  0  0  0  0  0
  185.3280  176.0870  136.7810 C   0  0  0  0  0  3  0  0  0  0  0  0
  186.7830  177.4600  138.0660 C   0  0  0  0  0  0  0  0  0  0  0  0
  185.9910  173.6010  135.7600 S   0  0  0  0  0  0  0  0  0  0  0  0
  187.7580  173.2880  135.4840 C   0  0  0  0  0  1  0  0  0  0  0  0
  191.4250  177.4650  142.7340 C   0  0  0  0  0  2  0  0  0  0  0  0
  189.1730  176.3500  144.0230 O   0  0  0  0  0  0  0  0  0  0  0  0
  190.5550  176.4000  142.0430 C   0  0  1  0  0  3  0  0  0  0  0  0
  188.7330  177.6550  144.2810 C   0  0  2  0  0  3  0  0  0  0  0  0
  189.9310  178.5980  144.4050 C   0  0  0  0  0  2  0  0  0  0  0  0
  190.6660  178.7440  143.0770 C   0  0  0  0  0  2  0  0  0  0  0  0
  189.1480  176.2350  142.6290 C   0  0  0  0  0  2  0  0  0  0  0  0
  188.5370  177.4970  146.6340 C   0  0  0  0  0  2  0  0  0  0  0  0
  187.9640  177.6660  145.4990 N   0  0  0  0  0  0  0  0  0  0  0  0
  193.7100  175.9150  137.3730 N   0  0  0  0  0  2  0  0  0  0  0  0
  192.3850  175.8350  137.9030 C   0  0  0  0  0  0  0  0  0  0  0  0
  191.7860  174.7280  137.9560 O   0  0  0  0  0  0  0  0  0  0  0  0
  194.4170  174.7440  136.8820 C   0  0  0  0  0  1  0  0  0  0  0  0
  1  7  2  0  0  0  0
  1  2  1  0  0  0  0
  3  5  2  0  0  0  0
  4  8  1  0  0  0  0
  4  3  1  0  0  0  0
  5  2  1  0  0  0  0
  6  4  2  0  0  0  0
  8 28  1  1  0  0  0
  8  1  1  0  0  0  0
  9 12  1  0  0  0  0
 11 14  1  0  0  0  0
 11  9  2  0  0  0  0
 12 15  2  0  0  0  0
 12  3  1  0  0  0  0
 13 15  1  0  0  0  0
 14 13  2  0  0  0  0
 15 10  1  0  0  0  0
 16 11  1  0  0  0  0
 17 16  1  0  0  0  0
 18 23  1  0  0  0  0
 19 21  1  0  0  0  0
 20  2  1  6  0  0  0
 20 24  1  0  0  0  0
 20 18  1  0  0  0  0
 21 22  1  0  0  0  0
 21 26  1  1  0  0  0
 23 22  1  0  0  0  0
 24 19  1  0  0  0  0
 26 25  2  0  0  0  0
 27 28  1  0  0  0  0
 28 29  2  0  0  0  0
 30 27  1  0  0  0  0
M  END
>  <MODEL>
6

>  <REMARK>
 VINA RESULT:      -6.5      1.752      1.897
  Name = 
  5 active torsions:
  status: ('A' for Active; 'I' for Inactive)
    1  A    between atoms: C_2  and  C_27
    2  A    between atoms: N_4  and  C_10
    3  A    between atoms: C_9  and  C_21
    4  A    between atoms: C_14  and  S_17
    5  A    between atoms: C_18  and  N_25
                            x       y       z     vdW  Elec       q    Type
                         _______ _______ _______ _____ _____    ______ ____

>  <TORSDO>
F 5

$$$$
=
 OpenBabel10222416423D

 30 32  0  0  1  0  0  0  0  0999 V2000
  185.6170  178.4780  138.5550 C   0  0  0  0  0  0  0  0  0  0  0  0
  185.1640  178.5460  139.9170 N   0  0  0  0  0  0  0  0  0  0  0  0
  182.9070  177.8880  139.3080 C   0  0  0  0  0  0  0  0  0  0  0  0
  183.3200  177.8110  137.8810 C   0  0  0  0  0  0  0  0  0  0  0  0
  183.8030  178.2190  140.2430 C   0  0  0  0  0  3  0  0  0  0  0  0
  182.4270  177.5910  136.9200 C   0  0  0  0  0  2  0  0  0  0  0  0
  186.7410  178.9490  138.2330 O   0  0  0  0  0  0  0  0  0  0  0  0
  184.7800  177.7960  137.5150 C   0  0  2  0  0  3  0  0  0  0  0  0
  181.1470  176.2770  139.9910 C   0  0  0  0  0  3  0  0  0  0  0  0
  180.9210  179.9900  139.7370 N   0  0  0  0  0  1  0  0  0  0  0  0
  179.8490  175.9830  140.4060 C   0  0  0  0  0  0  0  0  0  0  0  0
  181.5240  177.6000  139.7390 C   0  0  0  0  0  0  0  0  0  0  0  0
  179.3110  178.3070  140.3310 N   0  0  0  0  0  0  0  0  0  0  0  0
  178.9330  177.0230  140.5670 C   0  0  0  0  0  3  0  0  0  0  0  0
  180.5730  178.6210  139.9280 C   0  0  0  0  0  0  0  0  0  0  0  0
  179.3600  174.2920  140.7130 S   0  0  0  0  0  0  0  0  0  0  0  0
  179.6670  173.8000  138.9930 C   0  0  0  0  0  1  0  0  0  0  0  0
  185.3150  179.3720  142.2450 C   0  0  0  0  0  2  0  0  0  0  0  0
  187.8930  178.2240  142.3650 O   0  0  0  0  0  0  0  0  0  0  0  0
  186.0790  178.9900  140.9650 C   0  0  1  0  0  3  0  0  0  0  0  0
  187.3800  177.2810  143.2650 C   0  0  2  0  0  3  0  0  0  0  0  0
  186.2210  177.8880  144.0580 C   0  0  0  0  0  2  0  0  0  0  0  0
  185.0250  178.1850  143.1600 C   0  0  0  0  0  2  0  0  0  0  0  0
  187.2130  177.9790  141.1660 C   0  0  0  0  0  2  0  0  0  0  0  0
  188.5630  177.4090  145.3110 C   0  0  0  0  0  2  0  0  0  0  0  0
  188.4270  176.8600  144.1600 N   0  0  0  0  0  0  0  0  0  0  0  0
  186.5630  176.1550  136.7540 N   0  0  0  0  0  2  0  0  0  0  0  0
  185.2650  176.3940  137.3030 C   0  0  0  0  0  0  0  0  0  0  0  0
  184.5160  175.4300  137.6130 O   0  0  0  0  0  0  0  0  0  0  0  0
  187.0710  174.8120  136.5340 C   0  0  0  0  0  1  0  0  0  0  0  0
  1  2  1  0  0  0  0
  2  5  1  0  0  0  0
  3 12  1  0  0  0  0
  3  5  2  0  0  0  0
  4  3  1  0  0  0  0
  6  4  2  0  0  0  0
  7  1  2  0  0  0  0
  8 28  1  1  0  0  0
  8  4  1  0  0  0  0
  8  1  1  0  0  0  0
  9 11  1  0  0  0  0
 10 15  1  0  0  0  0
 11 14  2  0  0  0  0
 11 16  1  0  0  0  0
 12 15  1  0  0  0  0
 12  9  2  0  0  0  0
 13 14  1  0  0  0  0
 15 13  2  0  0  0  0
 17 16  1  0  0  0  0
 18 23  1  0  0  0  0
 19 21  1  0  0  0  0
 20  2  1  6  0  0  0
 20 24  1  0  0  0  0
 20 18  1  0  0  0  0
 21 22  1  0  0  0  0
 21 26  1  1  0  0  0
 23 22  1  0  0  0  0
 24 19  1  0  0  0  0
 26 25  2  0  0  0  0
 27 28  1  0  0  0  0
 28 29  2  0  0  0  0
 30 27  1  0  0  0  0
M  END
>  <MODEL>
7

>  <REMARK>
 VINA RESULT:      -6.5      3.701      5.482
  Name = 
  5 active torsions:
  status: ('A' for Active; 'I' for Inactive)
    1  A    between atoms: C_2  and  C_27
    2  A    between atoms: N_4  and  C_10
    3  A    between atoms: C_9  and  C_21
    4  A    between atoms: C_14  and  S_17
    5  A    between atoms: C_18  and  N_25
                            x       y       z     vdW  Elec       q    Type
                         _______ _______ _______ _____ _____    ______ ____

>  <TORSDO>
F 5

$$$$
=
 OpenBabel10222416423D

 30 32  0  0  1  0  0  0  0  0999 V2000
  189.1820  177.7320  144.5460 C   0  0  0  0  0  0  0  0  0  0  0  0
  188.2050  177.2990  143.5860 N   0  0  0  0  0  0  0  0  0  0  0  0
  189.7860  177.4530  141.7500 C   0  0  0  0  0  0  0  0  0  0  0  0
  190.8350  177.9140  142.6990 C   0  0  0  0  0  0  0  0  0  0  0  0
  188.5650  177.1550  142.2020 C   0  0  0  0  0  3  0  0  0  0  0  0
  192.0240  178.3200  142.2630 C   0  0  0  0  0  2  0  0  0  0  0  0
  188.8310  178.0500  145.7150 O   0  0  0  0  0  0  0  0  0  0  0  0
  190.6360  177.7550  144.1830 C   0  0  2  0  0  3  0  0  0  0  0  0
  191.0080  176.3780  139.8770 C   0  0  0  0  0  3  0  0  0  0  0  0
  188.3280  178.9650  139.7160 N   0  0  0  0  0  1  0  0  0  0  0  0
  191.2680  176.2130  138.5170 C   0  0  0  0  0  0  0  0  0  0  0  0
  190.0510  177.3030  140.3050 C   0  0  0  0  0  0  0  0  0  0  0  0
  189.6260  177.8710  138.0150 N   0  0  0  0  0  0  0  0  0  0  0  0
  190.5630  176.9820  137.5910 C   0  0  0  0  0  3  0  0  0  0  0  0
  189.3510  178.0480  139.3360 C   0  0  0  0  0  0  0  0  0  0  0  0
  192.5020  175.0430  137.9680 S   0  0  0  0  0  0  0  0  0  0  0  0
  193.3230  176.2720  136.9130 C   0  0  0  0  0  1  0  0  0  0  0  0
  186.6790  177.2170  145.5340 C   0  0  0  0  0  2  0  0  0  0  0  0
  184.5750  177.8800  143.7700 O   0  0  0  0  0  0  0  0  0  0  0  0
  186.8300  177.0470  144.0120 C   0  0  1  0  0  3  0  0  0  0  0  0
  184.5030  179.1290  144.4020 C   0  0  2  0  0  3  0  0  0  0  0  0
  184.9470  179.0060  145.8610 C   0  0  0  0  0  2  0  0  0  0  0  0
  186.4280  178.6600  145.9650 C   0  0  0  0  0  2  0  0  0  0  0  0
  185.8390  177.8590  143.1700 C   0  0  0  0  0  2  0  0  0  0  0  0
  182.2670  179.0020  143.6360 C   0  0  0  0  0  2  0  0  0  0  0  0
  183.1490  179.6160  144.3350 N   0  0  0  0  0  0  0  0  0  0  0  0
  191.7710  176.4380  146.0340 N   0  0  0  0  0  2  0  0  0  0  0  0
  191.3110  176.5140  144.6830 C   0  0  0  0  0  0  0  0  0  0  0  0
  191.4680  175.5400  143.9000 O   0  0  0  0  0  0  0  0  0  0  0  0
  192.4290  175.2530  146.5590 C   0  0  0  0  0  1  0  0  0  0  0  0
  1  7  2  0  0  0  0
  2 20  1  0  0  0  0
  2  1  1  0  0  0  0
  3  5  2  0  0  0  0
  3  4  1  0  0  0  0
  4  8  1  0  0  0  0
  5  2  1  0  0  0  0
  6  4  2  0  0  0  0
  8  1  1  0  0  0  0
  8 28  1  6  0  0  0
  9 12  1  0  0  0  0
 11  9  2  0  0  0  0
 12  3  1  0  0  0  0
 13 15  1  0  0  0  0
 14 13  2  0  0  0  0
 14 11  1  0  0  0  0
 15 10  1  0  0  0  0
 15 12  2  0  0  0  0
 16 11  1  0  0  0  0
 17 16  1  0  0  0  0
 18 23  1  0  0  0  0
 19 21  1  0  0  0  0
 20 24  1  6  0  0  0
 20 18  1  0  0  0  0
 21 26  1  1  0  0  0
 21 22  1  0  0  0  0
 22 23  1  0  0  0  0
 24 19  1  0  0  0  0
 25 26  2  0  0  0  0
 27 30  1  0  0  0  0
 28 27  1  0  0  0  0
 29 28  2  0  0  0  0
M  END
>  <MODEL>
8

>  <REMARK>
 VINA RESULT:      -6.5      3.181      5.840
  Name = 
  5 active torsions:
  status: ('A' for Active; 'I' for Inactive)
    1  A    between atoms: C_2  and  C_27
    2  A    between atoms: N_4  and  C_10
    3  A    between atoms: C_9  and  C_21
    4  A    between atoms: C_14  and  S_17
    5  A    between atoms: C_18  and  N_25
                            x       y       z     vdW  Elec       q    Type
                         _______ _______ _______ _____ _____    ______ ____

>  <TORSDO>
F 5

$$$$
=
 OpenBabel10222416423D

 30 32  0  0  1  0  0  0  0  0999 V2000
  186.3720  178.1780  137.0040 C   0  0  0  0  0  0  0  0  0  0  0  0
  185.3260  177.8560  137.9360 N   0  0  0  0  0  0  0  0  0  0  0  0
  184.8890  175.7190  136.8690 C   0  0  0  0  0  0  0  0  0  0  0  0
  185.9560  176.0050  135.8730 C   0  0  0  0  0  0  0  0  0  0  0  0
  184.6310  176.6020  137.8370 C   0  0  0  0  0  3  0  0  0  0  0  0
  186.1610  175.1950  134.8370 C   0  0  0  0  0  2  0  0  0  0  0  0
  186.8480  179.3440  136.9570 O   0  0  0  0  0  0  0  0  0  0  0  0
  186.9450  177.1130  136.1170 C   0  0  2  0  0  3  0  0  0  0  0  0
  182.7960  174.5030  136.3220 C   0  0  0  0  0  3  0  0  0  0  0  0
  185.9610  173.1470  137.7550 N   0  0  0  0  0  1  0  0  0  0  0  0
  182.0350  173.3360  136.2710 C   0  0  0  0  0  0  0  0  0  0  0  0
  184.0980  174.4720  136.8330 C   0  0  0  0  0  0  0  0  0  0  0  0
  183.8560  172.1190  137.2180 N   0  0  0  0  0  0  0  0  0  0  0  0
  182.5850  172.1410  136.7340 C   0  0  0  0  0  3  0  0  0  0  0  0
  184.6220  173.2420  137.2760 C   0  0  0  0  0  0  0  0  0  0  0  0
  180.3650  173.3750  135.6340 S   0  0  0  0  0  0  0  0  0  0  0  0
  179.7150  172.4280  137.0400 C   0  0  0  0  0  1  0  0  0  0  0  0
  183.4170  178.8430  139.1640 C   0  0  0  0  0  2  0  0  0  0  0  0
  185.1890  179.3180  141.3100 O   0  0  0  0  0  0  0  0  0  0  0  0
  184.9410  178.8260  138.9580 C   0  0  1  0  0  3  0  0  0  0  0  0
  184.5000  178.3370  142.0350 C   0  0  2  0  0  3  0  0  0  0  0  0
  183.0400  178.2780  141.5820 C   0  0  0  0  0  2  0  0  0  0  0  0
  182.9220  177.7830  140.1450 C   0  0  0  0  0  2  0  0  0  0  0  0
  185.7640  178.6290  140.2370 C   0  0  0  0  0  2  0  0  0  0  0  0
  183.5210  179.0000  144.0850 C   0  0  0  0  0  2  0  0  0  0  0  0
  184.5710  178.6470  143.4400 N   0  0  0  0  0  0  0  0  0  0  0  0
  189.4650  176.8050  136.0580 N   0  0  0  0  0  2  0  0  0  0  0  0
  188.2130  176.5790  136.7100 C   0  0  0  0  0  0  0  0  0  0  0  0
  188.1630  175.9270  137.7870 O   0  0  0  0  0  0  0  0  0  0  0  0
  190.7170  176.3050  136.5990 C   0  0  0  0  0  1  0  0  0  0  0  0
  1  2  1  0  0  0  0
  3  5  2  0  0  0  0
  4  8  1  0  0  0  0
  4  3  1  0  0  0  0
  5  2  1  0  0  0  0
  6  4  2  0  0  0  0
  7  1  2  0  0  0  0
  8 28  1  1  0  0  0
  8  1  1  0  0  0  0
  9 12  1  0  0  0  0
 11  9  2  0  0  0  0
 11 14  1  0  0  0  0
 12  3  1  0  0  0  0
 12 15  2  0  0  0  0
 13 15  1  0  0  0  0
 14 13  2  0  0  0  0
 15 10  1  0  0  0  0
 16 11  1  0  0  0  0
 16 17  1  0  0  0  0
 18 23  1  0  0  0  0
 19 21  1  0  0  0  0
 20  2  1  6  0  0  0
 20 18  1  0  0  0  0
 20 24  1  0  0  0  0
 21 26  1  1  0  0  0
 22 21  1  0  0  0  0
 23 22  1  0  0  0  0
 24 19  1  0  0  0  0
 26 25  2  0  0  0  0
 27 30  1  0  0  0  0
 27 28  1  0  0  0  0
 28 29  2  0  0  0  0
M  END
>  <MODEL>
9

>  <REMARK>
 VINA RESULT:      -6.3      3.973      5.850
  Name = 
  5 active torsions:
  status: ('A' for Active; 'I' for Inactive)
    1  A    between atoms: C_2  and  C_27
    2  A    between atoms: N_4  and  C_10
    3  A    between atoms: C_9  and  C_21
    4  A    between atoms: C_14  and  S_17
    5  A    between atoms: C_18  and  N_25
                            x       y       z     vdW  Elec       q    Type
                         _______ _______ _______ _____ _____    ______ ____

>  <TORSDO>
F 5

$$$$
