=
 OpenBabel10222420313D

 37 40  0  0  1  0  0  0  0  0999 V2000
  184.8050  179.4970  139.3690 O   0  0  0  0  0  0  0  0  0  0  0  0
  185.9790  178.8370  141.4140 C   0  0  0  0  0  0  0  0  0  0  0  0
  188.5380  177.6730  137.8200 C   0  0  0  0  0  3  0  0  0  0  0  0
  188.9770  177.3720  140.2050 C   0  0  0  0  0  0  0  0  0  0  0  0
  189.3820  177.2140  138.8620 C   0  0  0  0  0  0  0  0  0  0  0  0
  187.3390  178.2660  138.0970 N   0  0  0  0  0  0  0  0  0  0  0  0
  186.9700  178.4090  139.3910 C   0  0  0  0  0  0  0  0  0  0  0  0
  185.7840  178.9840  139.9700 C   0  0  0  0  0  0  0  0  0  0  0  0
  185.0180  179.2810  142.4590 C   0  0  0  0  0  1  0  0  0  0  0  0
  187.1120  178.2590  141.6940 N   0  0  0  0  0  0  0  0  0  0  0  0
  187.7410  177.9870  140.4370 C   0  0  0  0  0  0  0  0  0  0  0  0
  189.8480  176.8870  141.3270 C   0  0  1  0  0  3  0  0  0  0  0  0
  190.9280  177.8410  141.5790 N   0  0  0  0  0  2  0  0  0  0  0  0
  191.8590  177.2550  142.5440 C   0  0  0  0  0  2  0  0  0  0  0  0
  189.0250  176.6660  142.5950 C   0  0  0  0  0  2  0  0  0  0  0  0
  191.1700  176.9920  143.8880 C   0  0  2  0  0  3  0  0  0  0  0  0
  189.9220  176.1260  143.7040 C   0  0  0  0  0  2  0  0  0  0  0  0
  191.1080  179.3790  144.1200 O   0  0  0  0  0  0  0  0  0  0  0  0
  190.8750  178.2580  144.6450 C   0  0  0  0  0  0  0  0  0  0  0  0
  190.3070  178.2080  145.9540 N   0  0  0  0  0  2  0  0  0  0  0  0
  189.9970  176.9530  146.6250 C   0  0  0  0  0  2  0  0  0  0  0  0
  187.5880  177.1680  146.3490 N   0  0  0  0  0  2  0  0  0  0  0  0
  186.8850  178.4120  146.6400 C   0  0  1  0  0  3  0  0  0  0  0  0
  188.6080  178.2400  148.2570 C   0  0  0  0  0  2  0  0  0  0  0  0
  188.6530  177.0320  147.3390 C   0  0  2  0  0  0  0  0  0  0  0  0
  185.3890  178.1980  146.5330 C   0  0  0  0  0  1  0  0  0  0  0  0
  187.2450  178.8340  148.0420 C   0  0  0  0  0  2  0  0  0  0  0  0
  188.4400  175.8690  148.0830 O   0  0  0  0  0  1  0  0  0  0  0  0
  190.6100  176.6060  138.5740 O   0  0  0  0  0  0  0  0  0  0  0  0
  190.7070  175.2610  138.2790 N   0  0  0  0  0  2  0  0  0  0  0  0
  191.5910  175.1300  137.1280 C   0  0  0  0  0  2  0  0  0  0  0  0
  192.9870  175.6380  137.4620 C   0  0  2  0  0  3  0  0  0  0  0  0
  193.4560  176.4460  136.4440 F   0  0  0  0  0  0  0  0  0  0  0  0
  193.9570  174.4850  137.6920 C   0  0  0  0  0  2  0  0  0  0  0  0
  195.7430  174.3020  139.1770 C   0  0  0  0  0  1  0  0  0  0  0  0
  196.1550  174.5620  136.9020 C   0  0  0  0  0  1  0  0  0  0  0  0
  195.2880  174.9940  137.9850 N   0  0  0  0  0  0  0  0  0  0  0  0
  1  8  2  0  0  0  0
  2 10  2  0  0  0  0
  2  9  1  0  0  0  0
  3  6  2  0  0  0  0
  3  5  1  0  0  0  0
  4 11  1  0  0  0  0
  5  4  2  0  0  0  0
  6  7  1  0  0  0  0
  7  8  1  0  0  0  0
  7 11  2  0  0  0  0
  8  2  1  0  0  0  0
 11 10  1  0  0  0  0
 12  4  1  6  0  0  0
 12 13  1  0  0  0  0
 12 15  1  0  0  0  0
 13 14  1  0  0  0  0
 14 16  1  0  0  0  0
 15 17  1  0  0  0  0
 16 19  1  6  0  0  0
 17 16  1  0  0  0  0
 18 19  2  0  0  0  0
 19 20  1  0  0  0  0
 20 21  1  0  0  0  0
 21 25  1  0  0  0  0
 22 23  1  0  0  0  0
 22 25  1  0  0  0  0
 23 26  1  1  0  0  0
 23 27  1  0  0  0  0
 25 28  1  1  0  0  0
 25 24  1  0  0  0  0
 27 24  1  0  0  0  0
 29  5  1  0  0  0  0
 30 29  1  0  0  0  0
 31 32  1  0  0  0  0
 31 30  1  0  0  0  0
 32 33  1  6  0  0  0
 32 34  1  0  0  0  0
 34 37  1  0  0  0  0
 36 37  1  0  0  0  0
 37 35  1  0  0  0  0
M  END
>  <MODEL>
1

>  <REMARK>
 VINA RESULT:      -7.9      0.000      0.000
  Name = 
  10 active torsions:
  status: ('A' for Active; 'I' for Inactive)
    1  A    between atoms: C_2  and  C_3
    2  A    between atoms: C_2  and  C_15
    3  A    between atoms: C_3  and  N_30
    4  A    between atoms: C_6  and  C_16
    5  A    between atoms: O_9  and  C_17
    6  A    between atoms: O_9  and  N_30
    7  A    between atoms: C_14  and  C_24
    8  A    between atoms: C_15  and  N_31
    9  A    between atoms: N_19  and  C_25
   10  A    between atoms: C_21  and  C_25
                            x       y       z     vdW  Elec       q    Type
                         _______ _______ _______ _____ _____    ______ ____

>  <TORSDO>
F 10

$$$$
=
 OpenBabel10222420313D

 37 40  0  0  1  0  0  0  0  0999 V2000
  188.9820  177.9400  149.0440 O   0  0  0  0  0  0  0  0  0  0  0  0
  190.0740  177.2130  146.9760 C   0  0  0  0  0  0  0  0  0  0  0  0
  185.7680  178.3840  146.0220 C   0  0  0  0  0  3  0  0  0  0  0  0
  187.5230  177.5570  144.5340 C   0  0  0  0  0  0  0  0  0  0  0  0
  186.1980  178.0090  144.7240 C   0  0  0  0  0  0  0  0  0  0  0  0
  186.6170  178.3170  147.0900 N   0  0  0  0  0  0  0  0  0  0  0  0
  187.8830  177.8840  146.8850 C   0  0  0  0  0  0  0  0  0  0  0  0
  188.9750  177.7110  147.8070 C   0  0  0  0  0  0  0  0  0  0  0  0
  191.4360  176.8750  147.4680 C   0  0  0  0  0  1  0  0  0  0  0  0
  189.7220  177.0920  145.7280 N   0  0  0  0  0  0  0  0  0  0  0  0
  188.3540  177.5080  145.6580 C   0  0  0  0  0  0  0  0  0  0  0  0
  188.0000  177.1470  143.1720 C   0  0  1  0  0  3  0  0  0  0  0  0
  188.4610  178.3150  142.4220 N   0  0  0  0  0  2  0  0  0  0  0  0
  188.7440  177.9090  141.0440 C   0  0  0  0  0  2  0  0  0  0  0  0
  189.1150  176.1080  143.2800 C   0  0  0  0  0  2  0  0  0  0  0  0
  189.8690  176.8700  140.9930 C   0  0  2  0  0  3  0  0  0  0  0  0
  189.5480  175.6690  141.8850 C   0  0  0  0  0  2  0  0  0  0  0  0
  191.4690  177.8950  142.4590 O   0  0  0  0  0  0  0  0  0  0  0  0
  191.2180  177.4610  141.3030 C   0  0  0  0  0  0  0  0  0  0  0  0
  192.2350  177.5170  140.3040 N   0  0  0  0  0  2  0  0  0  0  0  0
  192.0290  177.0260  138.9480 C   0  0  0  0  0  2  0  0  0  0  0  0
  193.7930  176.9590  137.2720 N   0  0  0  0  0  2  0  0  0  0  0  0
  193.7770  176.0030  136.1710 C   0  0  1  0  0  3  0  0  0  0  0  0
  192.8870  174.8590  138.0450 C   0  0  0  0  0  2  0  0  0  0  0  0
  193.2560  176.2760  138.4450 C   0  0  2  0  0  0  0  0  0  0  0  0
  195.0730  176.0900  135.3910 C   0  0  0  0  0  1  0  0  0  0  0  0
  193.6200  174.6220  136.7560 C   0  0  0  0  0  2  0  0  0  0  0  0
  194.2340  176.2420  139.4420 O   0  0  0  0  0  1  0  0  0  0  0  0
  185.3240  178.0780  143.6320 O   0  0  0  0  0  0  0  0  0  0  0  0
  184.8420  179.2810  143.1580 N   0  0  0  0  0  2  0  0  0  0  0  0
  183.5860  179.0080  142.4720 C   0  0  0  0  0  2  0  0  0  0  0  0
  182.4050  179.2130  143.4120 C   0  0  2  0  0  3  0  0  0  0  0  0
  182.5360  178.4040  144.5250 F   0  0  0  0  0  0  0  0  0  0  0  0
  181.0830  178.9180  142.7140 C   0  0  0  0  0  2  0  0  0  0  0  0
  179.6510  180.0880  141.2980 C   0  0  0  0  0  1  0  0  0  0  0  0
  179.2220  180.0320  143.5840 C   0  0  0  0  0  1  0  0  0  0  0  0
  180.2880  180.1300  142.6010 N   0  0  0  0  0  0  0  0  0  0  0  0
  2  9  1  0  0  0  0
  2  8  1  0  0  0  0
  3  6  1  0  0  0  0
  4  5  1  0  0  0  0
  4 11  2  0  0  0  0
  5  3  2  0  0  0  0
  7  6  2  0  0  0  0
  7  8  1  0  0  0  0
  8  1  2  0  0  0  0
 10  2  2  0  0  0  0
 11 10  1  0  0  0  0
 11  7  1  0  0  0  0
 12 15  1  0  0  0  0
 12  4  1  1  0  0  0
 13 12  1  0  0  0  0
 14 13  1  0  0  0  0
 16 14  1  0  0  0  0
 16 19  1  1  0  0  0
 16 17  1  0  0  0  0
 17 15  1  0  0  0  0
 19 18  2  0  0  0  0
 20 19  1  0  0  0  0
 21 20  1  0  0  0  0
 22 25  1  0  0  0  0
 23 26  1  1  0  0  0
 23 27  1  0  0  0  0
 23 22  1  0  0  0  0
 24 25  1  0  0  0  0
 25 21  1  0  0  0  0
 25 28  1  1  0  0  0
 27 24  1  0  0  0  0
 29  5  1  0  0  0  0
 30 29  1  0  0  0  0
 31 30  1  0  0  0  0
 31 32  1  0  0  0  0
 32 33  1  1  0  0  0
 34 32  1  0  0  0  0
 35 37  1  0  0  0  0
 37 34  1  0  0  0  0
 37 36  1  0  0  0  0
M  END
>  <MODEL>
2

>  <REMARK>
 VINA RESULT:      -7.7      3.462      9.811
  Name = 
  10 active torsions:
  status: ('A' for Active; 'I' for Inactive)
    1  A    between atoms: C_2  and  C_3
    2  A    between atoms: C_2  and  C_15
    3  A    between atoms: C_3  and  N_30
    4  A    between atoms: C_6  and  C_16
    5  A    between atoms: O_9  and  C_17
    6  A    between atoms: O_9  and  N_30
    7  A    between atoms: C_14  and  C_24
    8  A    between atoms: C_15  and  N_31
    9  A    between atoms: N_19  and  C_25
   10  A    between atoms: C_21  and  C_25
                            x       y       z     vdW  Elec       q    Type
                         _______ _______ _______ _____ _____    ______ ____

>  <TORSDO>
F 10

$$$$
=
 OpenBabel10222420313D

 37 40  0  0  1  0  0  0  0  0999 V2000
  188.8570  177.9310  149.0080 O   0  0  0  0  0  0  0  0  0  0  0  0
  189.9840  177.1980  146.9600 C   0  0  0  0  0  0  0  0  0  0  0  0
  185.7230  178.4480  145.9130 C   0  0  0  0  0  3  0  0  0  0  0  0
  187.4980  177.6020  144.4610 C   0  0  0  0  0  0  0  0  0  0  0  0
  186.1770  178.0740  144.6230 C   0  0  0  0  0  0  0  0  0  0  0  0
  186.5450  178.3600  147.0000 N   0  0  0  0  0  0  0  0  0  0  0  0
  187.8080  177.9070  146.8230 C   0  0  0  0  0  0  0  0  0  0  0  0
  188.8750  177.7100  147.7690 C   0  0  0  0  0  0  0  0  0  0  0  0
  191.3280  176.8340  147.4820 C   0  0  0  0  0  1  0  0  0  0  0  0
  189.6600  177.0910  145.7040 N   0  0  0  0  0  0  0  0  0  0  0  0
  188.3010  177.5310  145.6050 C   0  0  0  0  0  0  0  0  0  0  0  0
  188.0000  177.1910  143.1080 C   0  0  1  0  0  3  0  0  0  0  0  0
  188.4980  178.3560  142.3770 N   0  0  0  0  0  2  0  0  0  0  0  0
  188.8060  177.9550  141.0030 C   0  0  0  0  0  2  0  0  0  0  0  0
  189.0950  176.1340  143.2360 C   0  0  0  0  0  2  0  0  0  0  0  0
  189.9160  176.8980  140.9720 C   0  0  2  0  0  3  0  0  0  0  0  0
  189.5540  175.6970  141.8480 C   0  0  0  0  0  2  0  0  0  0  0  0
  191.5140  177.8380  142.4940 O   0  0  0  0  0  0  0  0  0  0  0  0
  191.2660  177.4640  141.3180 C   0  0  0  0  0  0  0  0  0  0  0  0
  192.2890  177.5640  140.3270 N   0  0  0  0  0  2  0  0  0  0  0  0
  192.0860  177.1430  138.9470 C   0  0  0  0  0  2  0  0  0  0  0  0
  193.8540  177.0220  137.2780 N   0  0  0  0  0  2  0  0  0  0  0  0
  193.8010  176.0850  136.1620 C   0  0  1  0  0  3  0  0  0  0  0  0
  192.8500  174.9530  138.0130 C   0  0  0  0  0  2  0  0  0  0  0  0
  193.2810  176.3460  138.4380 C   0  0  2  0  0  0  0  0  0  0  0  0
  195.1030  176.1260  135.3900 C   0  0  0  0  0  1  0  0  0  0  0  0
  193.5780  174.7040  136.7240 C   0  0  0  0  0  2  0  0  0  0  0  0
  194.2510  176.2510  139.4380 O   0  0  0  0  0  1  0  0  0  0  0  0
  185.3300  178.1650  143.5110 O   0  0  0  0  0  0  0  0  0  0  0  0
  184.9930  179.3790  142.9490 N   0  0  0  0  0  2  0  0  0  0  0  0
  185.3310  179.3120  141.5330 C   0  0  0  0  0  2  0  0  0  0  0  0
  184.1460  178.8070  140.7200 C   0  0  2  0  0  3  0  0  0  0  0  0
  183.8460  177.5050  141.0760 F   0  0  0  0  0  0  0  0  0  0  0  0
  184.4270  178.8800  139.2250 C   0  0  0  0  0  2  0  0  0  0  0  0
  182.5960  178.0980  138.0140 C   0  0  0  0  0  1  0  0  0  0  0  0
  184.7450  177.4450  137.4070 C   0  0  0  0  0  1  0  0  0  0  0  0
  183.8870  177.7100  138.5500 N   0  0  0  0  0  0  0  0  0  0  0  0
  2  9  1  0  0  0  0
  2  8  1  0  0  0  0
  3  6  1  0  0  0  0
  4  5  1  0  0  0  0
  4 11  2  0  0  0  0
  5  3  2  0  0  0  0
  7  6  2  0  0  0  0
  7  8  1  0  0  0  0
  8  1  2  0  0  0  0
 10  2  2  0  0  0  0
 11 10  1  0  0  0  0
 11  7  1  0  0  0  0
 12 15  1  0  0  0  0
 12  4  1  1  0  0  0
 13 12  1  0  0  0  0
 14 13  1  0  0  0  0
 16 14  1  0  0  0  0
 16 19  1  1  0  0  0
 16 17  1  0  0  0  0
 17 15  1  0  0  0  0
 19 18  2  0  0  0  0
 20 19  1  0  0  0  0
 21 20  1  0  0  0  0
 22 25  1  0  0  0  0
 23 26  1  1  0  0  0
 23 27  1  0  0  0  0
 23 22  1  0  0  0  0
 24 25  1  0  0  0  0
 25 21  1  0  0  0  0
 25 28  1  1  0  0  0
 27 24  1  0  0  0  0
 29  5  1  0  0  0  0
 30 29  1  0  0  0  0
 31 30  1  0  0  0  0
 32 33  1  1  0  0  0
 32 31  1  0  0  0  0
 34 32  1  0  0  0  0
 35 37  1  0  0  0  0
 36 37  1  0  0  0  0
 37 34  1  0  0  0  0
M  END
>  <MODEL>
3

>  <REMARK>
 VINA RESULT:      -7.6      2.705      8.725
  Name = 
  10 active torsions:
  status: ('A' for Active; 'I' for Inactive)
    1  A    between atoms: C_2  and  C_3
    2  A    between atoms: C_2  and  C_15
    3  A    between atoms: C_3  and  N_30
    4  A    between atoms: C_6  and  C_16
    5  A    between atoms: O_9  and  C_17
    6  A    between atoms: O_9  and  N_30
    7  A    between atoms: C_14  and  C_24
    8  A    between atoms: C_15  and  N_31
    9  A    between atoms: N_19  and  C_25
   10  A    between atoms: C_21  and  C_25
                            x       y       z     vdW  Elec       q    Type
                         _______ _______ _______ _____ _____    ______ ____

>  <TORSDO>
F 10

$$$$
=
 OpenBabel10222420313D

 37 40  0  0  1  0  0  0  0  0999 V2000
  187.4370  177.7430  145.6200 O   0  0  0  0  0  0  0  0  0  0  0  0
  187.2500  177.6940  143.1780 C   0  0  0  0  0  0  0  0  0  0  0  0
  183.2210  178.9310  144.9260 C   0  0  0  0  0  3  0  0  0  0  0  0
  183.8820  178.6430  142.5900 C   0  0  0  0  0  0  0  0  0  0  0  0
  182.8950  178.9690  143.5470 C   0  0  0  0  0  0  0  0  0  0  0  0
  184.4750  178.5860  145.3420 N   0  0  0  0  0  0  0  0  0  0  0  0
  185.4070  178.2800  144.4090 C   0  0  0  0  0  0  0  0  0  0  0  0
  186.7840  177.8860  144.5530 C   0  0  0  0  0  0  0  0  0  0  0  0
  188.6240  177.2780  142.7890 C   0  0  0  0  0  1  0  0  0  0  0  0
  186.3100  177.9310  142.3090 N   0  0  0  0  0  0  0  0  0  0  0  0
  185.1520  178.2980  143.0670 C   0  0  0  0  0  0  0  0  0  0  0  0
  183.5610  178.6670  141.1250 C   0  0  1  0  0  3  0  0  0  0  0  0
  184.4650  179.5760  140.4210 N   0  0  0  0  0  2  0  0  0  0  0  0
  184.0110  179.7180  139.0370 C   0  0  0  0  0  2  0  0  0  0  0  0
  183.6460  177.2630  140.5290 C   0  0  0  0  0  2  0  0  0  0  0  0
  184.0600  178.3750  138.2990 C   0  0  2  0  0  3  0  0  0  0  0  0
  183.2660  177.3060  139.0520 C   0  0  0  0  0  2  0  0  0  0  0  0
  186.4400  178.4690  138.5870 O   0  0  0  0  0  0  0  0  0  0  0  0
  185.4650  177.9300  137.9980 C   0  0  0  0  0  0  0  0  0  0  0  0
  185.7130  176.8800  137.0640 N   0  0  0  0  0  2  0  0  0  0  0  0
  184.6400  176.1980  136.3510 C   0  0  0  0  0  2  0  0  0  0  0  0
  183.7360  173.9420  136.2210 N   0  0  0  0  0  2  0  0  0  0  0  0
  183.8940  172.9820  137.3080 C   0  0  1  0  0  3  0  0  0  0  0  0
  185.9040  174.2340  137.2420 C   0  0  0  0  0  2  0  0  0  0  0  0
  184.9680  174.7230  136.1520 C   0  0  2  0  0  0  0  0  0  0  0  0
  183.3750  171.6250  136.8790 C   0  0  0  0  0  1  0  0  0  0  0  0
  185.3620  172.8910  137.6380 C   0  0  0  0  0  2  0  0  0  0  0  0
  185.5620  174.5320  134.9030 O   0  0  0  0  0  1  0  0  0  0  0  0
  181.6080  179.3220  143.1240 O   0  0  0  0  0  0  0  0  0  0  0  0
  180.4760  178.8150  143.7290 N   0  0  0  0  0  2  0  0  0  0  0  0
  179.3350  179.1890  142.9040 C   0  0  0  0  0  2  0  0  0  0  0  0
  179.2460  178.2960  141.6730 C   0  0  2  0  0  3  0  0  0  0  0  0
  180.4050  177.5550  141.5370 F   0  0  0  0  0  0  0  0  0  0  0  0
  179.0060  179.1140  140.4100 C   0  0  0  0  0  2  0  0  0  0  0  0
  179.9990  178.9150  138.3120 C   0  0  0  0  0  1  0  0  0  0  0  0
  180.5180  180.7330  139.6660 C   0  0  0  0  0  1  0  0  0  0  0  0
  180.2530  179.3050  139.6860 N   0  0  0  0  0  0  0  0  0  0  0  0
  2  8  1  0  0  0  0
  3  6  1  0  0  0  0
  4 11  2  0  0  0  0
  4  5  1  0  0  0  0
  5  3  2  0  0  0  0
  7  8  1  0  0  0  0
  7  6  2  0  0  0  0
  8  1  2  0  0  0  0
  9  2  1  0  0  0  0
 10 11  1  0  0  0  0
 10  2  2  0  0  0  0
 11  7  1  0  0  0  0
 12  4  1  1  0  0  0
 13 12  1  0  0  0  0
 14 13  1  0  0  0  0
 15 12  1  0  0  0  0
 16 19  1  1  0  0  0
 16 14  1  0  0  0  0
 16 17  1  0  0  0  0
 17 15  1  0  0  0  0
 19 18  2  0  0  0  0
 20 19  1  0  0  0  0
 21 20  1  0  0  0  0
 22 23  1  0  0  0  0
 23 26  1  6  0  0  0
 23 27  1  0  0  0  0
 24 27  1  0  0  0  0
 25 28  1  6  0  0  0
 25 22  1  0  0  0  0
 25 21  1  0  0  0  0
 25 24  1  0  0  0  0
 29  5  1  0  0  0  0
 29 30  1  0  0  0  0
 31 30  1  0  0  0  0
 32 33  1  6  0  0  0
 32 31  1  0  0  0  0
 34 32  1  0  0  0  0
 35 37  1  0  0  0  0
 36 37  1  0  0  0  0
 37 34  1  0  0  0  0
M  END
>  <MODEL>
4

>  <REMARK>
 VINA RESULT:      -7.5      4.988     10.446
  Name = 
  10 active torsions:
  status: ('A' for Active; 'I' for Inactive)
    1  A    between atoms: C_2  and  C_3
    2  A    between atoms: C_2  and  C_15
    3  A    between atoms: C_3  and  N_30
    4  A    between atoms: C_6  and  C_16
    5  A    between atoms: O_9  and  C_17
    6  A    between atoms: O_9  and  N_30
    7  A    between atoms: C_14  and  C_24
    8  A    between atoms: C_15  and  N_31
    9  A    between atoms: N_19  and  C_25
   10  A    between atoms: C_21  and  C_25
                            x       y       z     vdW  Elec       q    Type
                         _______ _______ _______ _____ _____    ______ ____

>  <TORSDO>
F 10

$$$$
=
 OpenBabel10222420313D

 37 40  0  0  1  0  0  0  0  0999 V2000
  183.1960  179.6580  144.1950 O   0  0  0  0  0  0  0  0  0  0  0  0
  185.2620  178.5220  144.8590 C   0  0  0  0  0  0  0  0  0  0  0  0
  185.3100  179.1140  140.3350 C   0  0  0  0  0  3  0  0  0  0  0  0
  186.9790  178.0730  141.7860 C   0  0  0  0  0  0  0  0  0  0  0  0
  186.5590  178.4620  140.4950 C   0  0  0  0  0  0  0  0  0  0  0  0
  184.5090  179.3730  141.4110 N   0  0  0  0  0  0  0  0  0  0  0  0
  184.9320  178.9930  142.6390 C   0  0  0  0  0  0  0  0  0  0  0  0
  184.3080  179.1320  143.9290 C   0  0  0  0  0  0  0  0  0  0  0  0
  185.0740  178.4130  146.3300 C   0  0  0  0  0  1  0  0  0  0  0  0
  186.3180  178.0730  144.2450 N   0  0  0  0  0  0  0  0  0  0  0  0
  186.1240  178.3620  142.8560 C   0  0  0  0  0  0  0  0  0  0  0  0
  188.2920  177.3740  141.9820 C   0  0  1  0  0  3  0  0  0  0  0  0
  189.3960  178.2490  141.5910 N   0  0  0  0  0  2  0  0  0  0  0  0
  190.6410  177.4800  141.6180 C   0  0  0  0  0  2  0  0  0  0  0  0
  188.4540  176.9260  143.4340 C   0  0  0  0  0  2  0  0  0  0  0  0
  190.9480  176.9740  143.0330 C   0  0  2  0  0  3  0  0  0  0  0  0
  189.7720  176.1740  143.5960 C   0  0  0  0  0  2  0  0  0  0  0  0
  191.4050  179.2700  143.5590 O   0  0  0  0  0  0  0  0  0  0  0  0
  191.3800  178.0760  143.9610 C   0  0  0  0  0  0  0  0  0  0  0  0
  191.7430  177.7910  145.3110 N   0  0  0  0  0  2  0  0  0  0  0  0
  191.7290  176.4400  145.8570 C   0  0  0  0  0  2  0  0  0  0  0  0
  189.5850  176.5610  147.0030 N   0  0  0  0  0  2  0  0  0  0  0  0
  189.1710  177.7450  147.7460 C   0  0  1  0  0  3  0  0  0  0  0  0
  191.5050  177.5360  148.0920 C   0  0  0  0  0  2  0  0  0  0  0  0
  191.0220  176.4030  147.2060 C   0  0  2  0  0  0  0  0  0  0  0  0
  187.8750  177.4690  148.4800 C   0  0  0  0  0  1  0  0  0  0  0  0
  190.2600  178.0780  148.7330 C   0  0  0  0  0  2  0  0  0  0  0  0
  191.2630  175.1790  147.8360 O   0  0  0  0  0  1  0  0  0  0  0  0
  187.3770  178.1980  139.3900 O   0  0  0  0  0  0  0  0  0  0  0  0
  186.9600  178.4470  138.0980 N   0  0  0  0  0  2  0  0  0  0  0  0
  186.9940  177.1810  137.3770 C   0  0  0  0  0  2  0  0  0  0  0  0
  185.6010  176.8000  136.8940 C   0  0  2  0  0  3  0  0  0  0  0  0
  184.6980  176.8750  137.9390 F   0  0  0  0  0  0  0  0  0  0  0  0
  185.5840  175.3970  136.3000 C   0  0  0  0  0  2  0  0  0  0  0  0
  183.8200  173.8780  136.3840 C   0  0  0  0  0  1  0  0  0  0  0  0
  185.7980  173.4140  137.5180 C   0  0  0  0  0  1  0  0  0  0  0  0
  184.8730  174.4820  137.1790 N   0  0  0  0  0  0  0  0  0  0  0  0
  2  9  1  0  0  0  0
  3  5  2  0  0  0  0
  3  6  1  0  0  0  0
  4 11  2  0  0  0  0
  5  4  1  0  0  0  0
  6  7  2  0  0  0  0
  7 11  1  0  0  0  0
  7  8  1  0  0  0  0
  8  1  2  0  0  0  0
  8  2  1  0  0  0  0
 10  2  2  0  0  0  0
 11 10  1  0  0  0  0
 12  4  1  1  0  0  0
 12 15  1  0  0  0  0
 13 14  1  0  0  0  0
 13 12  1  0  0  0  0
 14 16  1  0  0  0  0
 15 17  1  0  0  0  0
 16 17  1  0  0  0  0
 16 19  1  1  0  0  0
 18 19  2  0  0  0  0
 19 20  1  0  0  0  0
 20 21  1  0  0  0  0
 21 25  1  0  0  0  0
 22 25  1  0  0  0  0
 22 23  1  0  0  0  0
 23 26  1  1  0  0  0
 23 27  1  0  0  0  0
 24 27  1  0  0  0  0
 25 28  1  1  0  0  0
 25 24  1  0  0  0  0
 29  5  1  0  0  0  0
 30 29  1  0  0  0  0
 31 30  1  0  0  0  0
 32 31  1  0  0  0  0
 32 33  1  1  0  0  0
 34 32  1  0  0  0  0
 34 37  1  0  0  0  0
 35 37  1  0  0  0  0
 37 36  1  0  0  0  0
M  END
>  <MODEL>
5

>  <REMARK>
 VINA RESULT:      -7.5      3.405      4.861
  Name = 
  10 active torsions:
  status: ('A' for Active; 'I' for Inactive)
    1  A    between atoms: C_2  and  C_3
    2  A    between atoms: C_2  and  C_15
    3  A    between atoms: C_3  and  N_30
    4  A    between atoms: C_6  and  C_16
    5  A    between atoms: O_9  and  C_17
    6  A    between atoms: O_9  and  N_30
    7  A    between atoms: C_14  and  C_24
    8  A    between atoms: C_15  and  N_31
    9  A    between atoms: N_19  and  C_25
   10  A    between atoms: C_21  and  C_25
                            x       y       z     vdW  Elec       q    Type
                         _______ _______ _______ _____ _____    ______ ____

>  <TORSDO>
F 10

$$$$
=
 OpenBabel10222420313D

 37 40  0  0  1  0  0  0  0  0999 V2000
  183.0180  179.5720  144.3940 O   0  0  0  0  0  0  0  0  0  0  0  0
  185.1070  178.4410  144.9920 C   0  0  0  0  0  0  0  0  0  0  0  0
  185.1120  179.2360  140.4990 C   0  0  0  0  0  3  0  0  0  0  0  0
  186.8080  178.1580  141.8910 C   0  0  0  0  0  0  0  0  0  0  0  0
  186.3720  178.5980  140.6220 C   0  0  0  0  0  0  0  0  0  0  0  0
  184.3150  179.4330  141.5910 N   0  0  0  0  0  0  0  0  0  0  0  0
  184.7530  179.0060  142.7990 C   0  0  0  0  0  0  0  0  0  0  0  0
  184.1360  179.0760  144.0970 C   0  0  0  0  0  0  0  0  0  0  0  0
  184.9320  178.2630  146.4590 C   0  0  0  0  0  1  0  0  0  0  0  0
  186.1650  178.0380  144.3520 N   0  0  0  0  0  0  0  0  0  0  0  0
  185.9560  178.3850  142.9790 C   0  0  0  0  0  0  0  0  0  0  0  0
  188.1330  177.4730  142.0470 C   0  0  1  0  0  3  0  0  0  0  0  0
  189.2180  178.3680  141.6450 N   0  0  0  0  0  2  0  0  0  0  0  0
  190.4730  177.6140  141.6330 C   0  0  0  0  0  2  0  0  0  0  0  0
  188.3340  177.0050  143.4870 C   0  0  0  0  0  2  0  0  0  0  0  0
  190.8170  177.0910  143.0310 C   0  0  2  0  0  3  0  0  0  0  0  0
  189.6640  176.2670  143.6080 C   0  0  0  0  0  2  0  0  0  0  0  0
  191.2520  179.3840  143.5860 O   0  0  0  0  0  0  0  0  0  0  0  0
  191.2570  178.1840  143.9670 C   0  0  0  0  0  0  0  0  0  0  0  0
  191.6610  177.8810  145.3020 N   0  0  0  0  0  2  0  0  0  0  0  0
  191.6830  176.5210  145.8240 C   0  0  0  0  0  2  0  0  0  0  0  0
  189.5430  176.6920  146.9710 N   0  0  0  0  0  2  0  0  0  0  0  0
  189.1940  177.8490  147.7880 C   0  0  1  0  0  3  0  0  0  0  0  0
  191.5100  177.4830  148.1240 C   0  0  0  0  0  2  0  0  0  0  0  0
  190.9670  176.4390  147.1660 C   0  0  2  0  0  0  0  0  0  0  0  0
  187.8800  177.6020  148.4990 C   0  0  0  0  0  1  0  0  0  0  0  0
  190.2950  178.0550  148.7960 C   0  0  0  0  0  2  0  0  0  0  0  0
  191.1340  175.1660  147.7180 O   0  0  0  0  0  1  0  0  0  0  0  0
  187.1860  178.3970  139.5000 O   0  0  0  0  0  0  0  0  0  0  0  0
  186.6690  178.3630  138.2210 N   0  0  0  0  0  2  0  0  0  0  0  0
  187.2910  177.2410  137.5300 C   0  0  0  0  0  2  0  0  0  0  0  0
  188.6750  177.6230  137.0200 C   0  0  2  0  0  3  0  0  0  0  0  0
  188.8110  178.9990  137.0010 F   0  0  0  0  0  0  0  0  0  0  0  0
  188.9290  177.0610  135.6280 C   0  0  0  0  0  2  0  0  0  0  0  0
  190.8160  176.4910  136.8680 C   0  0  0  0  0  1  0  0  0  0  0  0
  189.6490  174.8390  135.7190 C   0  0  0  0  0  1  0  0  0  0  0  0
  190.1110  176.2140  135.6310 N   0  0  0  0  0  0  0  0  0  0  0  0
  2  9  1  0  0  0  0
  3  5  2  0  0  0  0
  3  6  1  0  0  0  0
  4 11  2  0  0  0  0
  5  4  1  0  0  0  0
  6  7  2  0  0  0  0
  7 11  1  0  0  0  0
  7  8  1  0  0  0  0
  8  1  2  0  0  0  0
  8  2  1  0  0  0  0
 10  2  2  0  0  0  0
 11 10  1  0  0  0  0
 12  4  1  1  0  0  0
 12 15  1  0  0  0  0
 13 12  1  0  0  0  0
 14 13  1  0  0  0  0
 14 16  1  0  0  0  0
 15 17  1  0  0  0  0
 16 17  1  0  0  0  0
 16 19  1  1  0  0  0
 18 19  2  0  0  0  0
 19 20  1  0  0  0  0
 20 21  1  0  0  0  0
 21 25  1  0  0  0  0
 22 25  1  0  0  0  0
 22 23  1  0  0  0  0
 23 26  1  1  0  0  0
 23 27  1  0  0  0  0
 24 27  1  0  0  0  0
 25 28  1  1  0  0  0
 25 24  1  0  0  0  0
 29  5  1  0  0  0  0
 30 29  1  0  0  0  0
 31 30  1  0  0  0  0
 32 33  1  6  0  0  0
 32 31  1  0  0  0  0
 34 37  1  0  0  0  0
 34 32  1  0  0  0  0
 37 36  1  0  0  0  0
 37 35  1  0  0  0  0
M  END
>  <MODEL>
6

>  <REMARK>
 VINA RESULT:      -7.4      2.524      3.743
  Name = 
  10 active torsions:
  status: ('A' for Active; 'I' for Inactive)
    1  A    between atoms: C_2  and  C_3
    2  A    between atoms: C_2  and  C_15
    3  A    between atoms: C_3  and  N_30
    4  A    between atoms: C_6  and  C_16
    5  A    between atoms: O_9  and  C_17
    6  A    between atoms: O_9  and  N_30
    7  A    between atoms: C_14  and  C_24
    8  A    between atoms: C_15  and  N_31
    9  A    between atoms: N_19  and  C_25
   10  A    between atoms: C_21  and  C_25
                            x       y       z     vdW  Elec       q    Type
                         _______ _______ _______ _____ _____    ______ ____

>  <TORSDO>
F 10

$$$$
=
 OpenBabel10222420313D

 37 40  0  0  1  0  0  0  0  0999 V2000
  182.5860  178.9920  141.7910 O   0  0  0  0  0  0  0  0  0  0  0  0
  184.2330  179.1420  139.9840 C   0  0  0  0  0  0  0  0  0  0  0  0
  186.3720  177.8700  143.8080 C   0  0  0  0  0  3  0  0  0  0  0  0
  187.2790  178.2480  141.5700 C   0  0  0  0  0  0  0  0  0  0  0  0
  187.4780  177.8920  142.9220 C   0  0  0  0  0  0  0  0  0  0  0  0
  185.1170  178.1860  143.3730 N   0  0  0  0  0  0  0  0  0  0  0  0
  184.9470  178.5230  142.0730 C   0  0  0  0  0  0  0  0  0  0  0  0
  183.7610  178.8980  141.3500 C   0  0  0  0  0  0  0  0  0  0  0  0
  183.3760  179.5620  138.8440 C   0  0  0  0  0  1  0  0  0  0  0  0
  185.5150  178.9500  139.8730 N   0  0  0  0  0  0  0  0  0  0  0  0
  185.9740  178.5620  141.1730 C   0  0  0  0  0  0  0  0  0  0  0  0
  188.4330  178.2870  140.6130 C   0  0  1  0  0  3  0  0  0  0  0  0
  189.2990  177.1250  140.8140 N   0  0  0  0  0  2  0  0  0  0  0  0
  190.5040  177.2880  139.9990 C   0  0  0  0  0  2  0  0  0  0  0  0
  187.9380  178.3400  139.1690 C   0  0  0  0  0  2  0  0  0  0  0  0
  190.1600  177.3390  138.5060 C   0  0  2  0  0  3  0  0  0  0  0  0
  189.1280  178.4310  138.2190 C   0  0  0  0  0  2  0  0  0  0  0  0
  188.5270  175.7830  137.6900 O   0  0  0  0  0  0  0  0  0  0  0  0
  189.7370  176.0020  137.9630 C   0  0  0  0  0  0  0  0  0  0  0  0
  190.6990  174.9740  137.7280 N   0  0  0  0  0  2  0  0  0  0  0  0
  192.1180  175.1510  138.0060 C   0  0  0  0  0  2  0  0  0  0  0  0
  194.1260  174.0370  137.1960 N   0  0  0  0  0  2  0  0  0  0  0  0
  195.3100  174.7820  136.7850 C   0  0  1  0  0  3  0  0  0  0  0  0
  193.4510  176.0840  136.1080 C   0  0  0  0  0  2  0  0  0  0  0  0
  192.9610  174.8150  136.7820 C   0  0  2  0  0  0  0  0  0  0  0  0
  196.3300  173.8390  136.1800 C   0  0  0  0  0  1  0  0  0  0  0  0
  194.8860  175.8050  135.7630 C   0  0  0  0  0  2  0  0  0  0  0  0
  192.2080  174.0640  135.8770 O   0  0  0  0  0  1  0  0  0  0  0  0
  188.7640  177.5680  143.3720 O   0  0  0  0  0  0  0  0  0  0  0  0
  189.2560  178.0360  144.5730 N   0  0  0  0  0  2  0  0  0  0  0  0
  190.5380  178.6730  144.3010 C   0  0  0  0  0  2  0  0  0  0  0  0
  191.6740  177.6640  144.4080 C   0  0  2  0  0  3  0  0  0  0  0  0
  191.9820  177.1600  143.1580 F   0  0  0  0  0  0  0  0  0  0  0  0
  191.3150  176.5220  145.3500 C   0  0  0  0  0  2  0  0  0  0  0  0
  190.6140  176.9820  147.5230 C   0  0  0  0  0  1  0  0  0  0  0  0
  192.4540  175.6020  147.1730 C   0  0  0  0  0  1  0  0  0  0  0  0
  191.7910  176.8050  146.6950 N   0  0  0  0  0  0  0  0  0  0  0  0
  2  8  1  0  0  0  0
  4  5  1  0  0  0  0
  5 29  1  0  0  0  0
  5  3  2  0  0  0  0
  6  3  1  0  0  0  0
  7  6  2  0  0  0  0
  8  1  2  0  0  0  0
  8  7  1  0  0  0  0
  9  2  1  0  0  0  0
 10  2  2  0  0  0  0
 10 11  1  0  0  0  0
 11  4  2  0  0  0  0
 11  7  1  0  0  0  0
 12 13  1  0  0  0  0
 12  4  1  1  0  0  0
 14 13  1  0  0  0  0
 15 12  1  0  0  0  0
 16 19  1  1  0  0  0
 16 14  1  0  0  0  0
 17 16  1  0  0  0  0
 17 15  1  0  0  0  0
 18 19  2  0  0  0  0
 20 19  1  0  0  0  0
 20 21  1  0  0  0  0
 23 26  1  6  0  0  0
 23 22  1  0  0  0  0
 24 25  1  0  0  0  0
 25 28  1  6  0  0  0
 25 22  1  0  0  0  0
 25 21  1  0  0  0  0
 27 24  1  0  0  0  0
 27 23  1  0  0  0  0
 29 30  1  0  0  0  0
 31 32  1  0  0  0  0
 31 30  1  0  0  0  0
 32 33  1  6  0  0  0
 32 34  1  0  0  0  0
 34 37  1  0  0  0  0
 37 36  1  0  0  0  0
 37 35  1  0  0  0  0
M  END
>  <MODEL>
7

>  <REMARK>
 VINA RESULT:      -7.4      2.365      8.082
  Name = 
  10 active torsions:
  status: ('A' for Active; 'I' for Inactive)
    1  A    between atoms: C_2  and  C_3
    2  A    between atoms: C_2  and  C_15
    3  A    between atoms: C_3  and  N_30
    4  A    between atoms: C_6  and  C_16
    5  A    between atoms: O_9  and  C_17
    6  A    between atoms: O_9  and  N_30
    7  A    between atoms: C_14  and  C_24
    8  A    between atoms: C_15  and  N_31
    9  A    between atoms: N_19  and  C_25
   10  A    between atoms: C_21  and  C_25
                            x       y       z     vdW  Elec       q    Type
                         _______ _______ _______ _____ _____    ______ ____

>  <TORSDO>
F 10

$$$$
=
 OpenBabel10222420313D

 37 40  0  0  1  0  0  0  0  0999 V2000
  188.2610  177.1400  146.8840 O   0  0  0  0  0  0  0  0  0  0  0  0
  190.0040  177.1160  145.1630 C   0  0  0  0  0  0  0  0  0  0  0  0
  186.0320  178.2130  143.2040 C   0  0  0  0  0  3  0  0  0  0  0  0
  188.2490  177.9740  142.2010 C   0  0  0  0  0  0  0  0  0  0  0  0
  186.8730  178.2590  142.0630 C   0  0  0  0  0  0  0  0  0  0  0  0
  186.5350  177.9000  144.4340 N   0  0  0  0  0  0  0  0  0  0  0  0
  187.8580  177.6330  144.5450 C   0  0  0  0  0  0  0  0  0  0  0  0
  188.6490  177.2780  145.6940 C   0  0  0  0  0  0  0  0  0  0  0  0
  191.2000  176.7460  145.9650 C   0  0  0  0  0  1  0  0  0  0  0  0
  190.0520  177.3370  143.8810 N   0  0  0  0  0  0  0  0  0  0  0  0
  188.7160  177.6600  143.4820 C   0  0  0  0  0  0  0  0  0  0  0  0
  189.1580  178.0080  141.0080 C   0  0  1  0  0  3  0  0  0  0  0  0
  189.6200  176.6580  140.6840 N   0  0  0  0  0  2  0  0  0  0  0  0
  190.6430  176.7470  139.6400 C   0  0  0  0  0  2  0  0  0  0  0  0
  188.4520  178.6330  139.8070 C   0  0  0  0  0  2  0  0  0  0  0  0
  190.0680  177.3460  138.3520 C   0  0  2  0  0  3  0  0  0  0  0  0
  189.4130  178.7020  138.6230 C   0  0  0  0  0  2  0  0  0  0  0  0
  187.9200  176.3580  137.9430 O   0  0  0  0  0  0  0  0  0  0  0  0
  189.1410  176.4020  137.6370 C   0  0  0  0  0  0  0  0  0  0  0  0
  189.6240  175.5620  136.5880 N   0  0  0  0  0  2  0  0  0  0  0  0
  191.0180  175.5610  136.1650 C   0  0  0  0  0  2  0  0  0  0  0  0
  192.8680  174.9130  137.6090 N   0  0  0  0  0  2  0  0  0  0  0  0
  194.1090  174.3620  137.0750 C   0  0  1  0  0  3  0  0  0  0  0  0
  192.3720  173.5110  135.7070 C   0  0  0  0  0  2  0  0  0  0  0  0
  191.7770  174.3960  136.7870 C   0  0  2  0  0  0  0  0  0  0  0  0
  195.0020  173.9050  138.2100 C   0  0  0  0  0  1  0  0  0  0  0  0
  193.7570  173.1920  136.1930 C   0  0  0  0  0  2  0  0  0  0  0  0
  190.9180  173.6420  137.5900 O   0  0  0  0  0  1  0  0  0  0  0  0
  186.3530  178.5800  140.8020 O   0  0  0  0  0  0  0  0  0  0  0  0
  185.1970  179.3190  140.6560 N   0  0  0  0  0  2  0  0  0  0  0  0
  184.5380  178.8610  139.4400 C   0  0  0  0  0  2  0  0  0  0  0  0
  183.0400  178.7070  139.6650 C   0  0  2  0  0  3  0  0  0  0  0  0
  182.4020  179.9180  139.4660 F   0  0  0  0  0  0  0  0  0  0  0  0
  182.7390  178.1910  141.0660 C   0  0  0  0  0  2  0  0  0  0  0  0
  180.4540  178.2840  141.5100 C   0  0  0  0  0  1  0  0  0  0  0  0
  181.9730  178.9990  143.1210 C   0  0  0  0  0  1  0  0  0  0  0  0
  181.7040  178.9980  141.6930 N   0  0  0  0  0  0  0  0  0  0  0  0
  2  8  1  0  0  0  0
  2  9  1  0  0  0  0
  3  6  1  0  0  0  0
  4 11  2  0  0  0  0
  5  4  1  0  0  0  0
  5  3  2  0  0  0  0
  6  7  2  0  0  0  0
  7  8  1  0  0  0  0
  8  1  2  0  0  0  0
 10  2  2  0  0  0  0
 11 10  1  0  0  0  0
 11  7  1  0  0  0  0
 12  4  1  1  0  0  0
 13 12  1  0  0  0  0
 14 13  1  0  0  0  0
 15 12  1  0  0  0  0
 16 19  1  1  0  0  0
 16 17  1  0  0  0  0
 16 14  1  0  0  0  0
 17 15  1  0  0  0  0
 19 18  2  0  0  0  0
 20 19  1  0  0  0  0
 21 20  1  0  0  0  0
 21 25  1  0  0  0  0
 23 22  1  0  0  0  0
 23 26  1  1  0  0  0
 24 27  1  0  0  0  0
 24 25  1  0  0  0  0
 25 28  1  1  0  0  0
 25 22  1  0  0  0  0
 27 23  1  0  0  0  0
 29  5  1  0  0  0  0
 30 29  1  0  0  0  0
 31 32  1  0  0  0  0
 31 30  1  0  0  0  0
 32 33  1  1  0  0  0
 32 34  1  0  0  0  0
 34 37  1  0  0  0  0
 35 37  1  0  0  0  0
 37 36  1  0  0  0  0
M  END
>  <MODEL>
8

>  <REMARK>
 VINA RESULT:      -7.1      2.958      9.249
  Name = 
  10 active torsions:
  status: ('A' for Active; 'I' for Inactive)
    1  A    between atoms: C_2  and  C_3
    2  A    between atoms: C_2  and  C_15
    3  A    between atoms: C_3  and  N_30
    4  A    between atoms: C_6  and  C_16
    5  A    between atoms: O_9  and  C_17
    6  A    between atoms: O_9  and  N_30
    7  A    between atoms: C_14  and  C_24
    8  A    between atoms: C_15  and  N_31
    9  A    between atoms: N_19  and  C_25
   10  A    between atoms: C_21  and  C_25
                            x       y       z     vdW  Elec       q    Type
                         _______ _______ _______ _____ _____    ______ ____

>  <TORSDO>
F 10

$$$$
=
 OpenBabel10222420313D

 37 40  0  0  1  0  0  0  0  0999 V2000
  188.7000  176.9690  146.9770 O   0  0  0  0  0  0  0  0  0  0  0  0
  190.3570  177.0540  145.1750 C   0  0  0  0  0  0  0  0  0  0  0  0
  186.2660  178.1020  143.4480 C   0  0  0  0  0  3  0  0  0  0  0  0
  188.4360  177.9600  142.3320 C   0  0  0  0  0  0  0  0  0  0  0  0
  187.0470  178.2100  142.2700 C   0  0  0  0  0  0  0  0  0  0  0  0
  186.8360  177.7620  144.6410 N   0  0  0  0  0  0  0  0  0  0  0  0
  188.1690  177.5290  144.6790 C   0  0  0  0  0  0  0  0  0  0  0  0
  189.0250  177.1580  145.7750 C   0  0  0  0  0  0  0  0  0  0  0  0
  191.6000  176.6900  145.9050 C   0  0  0  0  0  1  0  0  0  0  0  0
  190.3360  177.3180  143.9000 N   0  0  0  0  0  0  0  0  0  0  0  0
  188.9730  177.6170  143.5780 C   0  0  0  0  0  0  0  0  0  0  0  0
  189.2850  178.0600  141.0990 C   0  0  1  0  0  3  0  0  0  0  0  0
  190.1120  176.8620  140.9530 N   0  0  0  0  0  2  0  0  0  0  0  0
  191.0540  177.0690  139.8530 C   0  0  0  0  0  2  0  0  0  0  0  0
  188.4160  178.2620  139.8590 C   0  0  0  0  0  2  0  0  0  0  0  0
  190.3170  177.2700  138.5240 C   0  0  2  0  0  3  0  0  0  0  0  0
  189.3030  178.4110  138.6260 C   0  0  0  0  0  2  0  0  0  0  0  0
  188.4440  175.9220  137.8680 O   0  0  0  0  0  0  0  0  0  0  0  0
  189.6930  176.0020  138.0090 C   0  0  0  0  0  0  0  0  0  0  0  0
  190.5060  174.8830  137.6530 N   0  0  0  0  0  2  0  0  0  0  0  0
  191.9570  174.8990  137.7750 C   0  0  0  0  0  2  0  0  0  0  0  0
  194.0700  174.5940  136.6060 N   0  0  0  0  0  2  0  0  0  0  0  0
  194.6480  175.6390  135.7690 C   0  0  1  0  0  3  0  0  0  0  0  0
  192.3040  175.7740  135.4590 C   0  0  0  0  0  2  0  0  0  0  0  0
  192.6220  174.6490  136.4280 C   0  0  2  0  0  0  0  0  0  0  0  0
  195.8700  175.1070  135.0490 C   0  0  0  0  0  1  0  0  0  0  0  0
  193.6050  176.0640  134.7680 C   0  0  0  0  0  2  0  0  0  0  0  0
  192.1800  173.4350  135.8970 O   0  0  0  0  0  1  0  0  0  0  0  0
  186.4590  178.5580  141.0480 O   0  0  0  0  0  0  0  0  0  0  0  0
  185.3540  179.3820  140.9790 N   0  0  0  0  0  2  0  0  0  0  0  0
  184.6120  179.0170  139.7800 C   0  0  0  0  0  2  0  0  0  0  0  0
  183.3430  178.2570  140.1440 C   0  0  2  0  0  3  0  0  0  0  0  0
  183.5690  177.4530  141.2450 F   0  0  0  0  0  0  0  0  0  0  0  0
  182.8500  177.4070  138.9790 C   0  0  0  0  0  2  0  0  0  0  0  0
  181.3850  175.6840  139.5320 C   0  0  0  0  0  1  0  0  0  0  0  0
  183.2550  175.2320  138.2250 C   0  0  0  0  0  1  0  0  0  0  0  0
  182.7890  176.0060  139.3630 N   0  0  0  0  0  0  0  0  0  0  0  0
  2  8  1  0  0  0  0
  2  9  1  0  0  0  0
  3  6  1  0  0  0  0
  4 11  2  0  0  0  0
  5  4  1  0  0  0  0
  5  3  2  0  0  0  0
  6  7  2  0  0  0  0
  7  8  1  0  0  0  0
  8  1  2  0  0  0  0
 10  2  2  0  0  0  0
 11 10  1  0  0  0  0
 11  7  1  0  0  0  0
 12  4  1  1  0  0  0
 13 12  1  0  0  0  0
 14 13  1  0  0  0  0
 15 12  1  0  0  0  0
 16 19  1  1  0  0  0
 16 17  1  0  0  0  0
 16 14  1  0  0  0  0
 17 15  1  0  0  0  0
 18 19  2  0  0  0  0
 20 21  1  0  0  0  0
 20 19  1  0  0  0  0
 23 26  1  6  0  0  0
 23 22  1  0  0  0  0
 24 25  1  0  0  0  0
 25 28  1  6  0  0  0
 25 22  1  0  0  0  0
 25 21  1  0  0  0  0
 27 24  1  0  0  0  0
 27 23  1  0  0  0  0
 29  5  1  0  0  0  0
 30 29  1  0  0  0  0
 31 32  1  0  0  0  0
 31 30  1  0  0  0  0
 32 33  1  1  0  0  0
 34 37  1  0  0  0  0
 34 32  1  0  0  0  0
 36 37  1  0  0  0  0
 37 35  1  0  0  0  0
M  END
>  <MODEL>
9

>  <REMARK>
 VINA RESULT:      -7.0      3.001      9.142
  Name = 
  10 active torsions:
  status: ('A' for Active; 'I' for Inactive)
    1  A    between atoms: C_2  and  C_3
    2  A    between atoms: C_2  and  C_15
    3  A    between atoms: C_3  and  N_30
    4  A    between atoms: C_6  and  C_16
    5  A    between atoms: O_9  and  C_17
    6  A    between atoms: O_9  and  N_30
    7  A    between atoms: C_14  and  C_24
    8  A    between atoms: C_15  and  N_31
    9  A    between atoms: N_19  and  C_25
   10  A    between atoms: C_21  and  C_25
                            x       y       z     vdW  Elec       q    Type
                         _______ _______ _______ _____ _____    ______ ____

>  <TORSDO>
F 10

$$$$
