=
 OpenBabel10222417263D

 28 31  0  0  1  0  0  0  0  0999 V2000
  184.4110  178.8390  138.7680 S   0  0  1  0  0  0  0  0  0  0  0  0
  183.5790  179.0490  141.2560 O   0  0  0  0  0  0  0  0  0  0  0  0
  185.8960  178.7890  139.7060 N   0  0  0  0  0  0  0  0  0  0  0  0
  184.6030  178.1910  141.6900 C   0  0  1  0  0  3  0  0  0  0  0  0
  187.1400  178.4360  141.6880 N   0  0  0  0  0  2  0  0  0  0  0  0
  185.9010  178.5070  140.9750 C   0  0  0  0  0  0  0  0  0  0  0  0
  184.4390  177.5230  138.0020 O   0  0  0  0  0  0  0  0  0  0  0  0
  183.1460  178.5410  140.0230 C   0  0  0  0  0  2  0  0  0  0  0  0
  187.9560  178.0970  148.3040 S   0  0  0  0  0  0  0  0  0  0  0  0
  183.8830  179.0440  145.4920 C   0  0  0  0  0  3  0  0  0  0  0  0
  186.0650  178.0460  145.1640 C   0  0  0  0  0  0  0  0  0  0  0  0
  184.7440  178.2670  143.1780 C   0  0  0  0  0  0  0  0  0  0  0  0
  185.9130  177.8910  143.7230 C   0  0  0  0  0  3  0  0  0  0  0  0
  189.0170  177.4480  147.1230 C   0  0  0  0  0  3  0  0  0  0  0  0
  186.7010  178.2760  147.2210 C   0  0  0  0  0  0  0  0  0  0  0  0
  185.0430  178.6350  145.9930 C   0  0  1  0  0  3  0  0  0  0  0  0
  188.3700  177.3820  145.8730 C   0  0  0  0  0  3  0  0  0  0  0  0
  183.5880  178.8320  144.0150 C   0  0  0  0  0  3  0  0  0  0  0  0
  185.5090  178.7720  147.3420 N   0  0  0  0  0  0  0  0  0  0  0  0
  187.0670  177.8570  145.9870 C   0  0  0  0  0  0  0  0  0  0  0  0
  188.4370  178.6300  141.0610 C   0  0  0  0  0  2  0  0  0  0  0  0
  189.2700  177.4090  141.2570 C   0  0  0  0  0  0  0  0  0  0  0  0
  189.9860  177.0130  140.3520 O   0  0  0  0  0  0  0  0  0  0  0  0
  189.2140  176.6600  142.5500 C   0  0  0  0  0  2  0  0  0  0  0  0
  190.5210  175.9220  142.7810 C   0  0  0  0  0  2  0  0  0  0  0  0
  191.3710  176.6870  143.7310 C   0  0  0  0  0  0  0  0  0  0  0  0
  191.7570  177.8480  143.4380 O   0  0  0  0  0  0  0  0  0  0  0  0
  191.7110  176.1350  144.9590 O   0  0  0  0  0  1  0  0  0  0  0  0
  1  7  2  6  0  0  0
  1  3  1  0  0  0  0
  1  8  1  0  0  0  0
  2  4  1  0  0  0  0
  3  6  2  0  0  0  0
  4 12  1  1  0  0  0
  6  5  1  0  0  0  0
  6  4  1  0  0  0  0
  8  2  1  0  0  0  0
 11 20  2  0  0  0  0
 11 16  1  0  0  0  0
 12 13  2  0  0  0  0
 12 18  1  0  0  0  0
 13 11  1  0  0  0  0
 14  9  1  0  0  0  0
 15 19  2  0  0  0  0
 15  9  1  0  0  0  0
 16 10  1  6  0  0  0
 16 19  1  0  0  0  0
 17 20  1  0  0  0  0
 17 14  2  0  0  0  0
 18 10  2  0  0  0  0
 20 15  1  0  0  0  0
 21 22  1  0  0  0  0
 21  5  1  0  0  0  0
 22 24  1  0  0  0  0
 23 22  2  0  0  0  0
 24 25  1  0  0  0  0
 25 26  1  0  0  0  0
 26 28  1  0  0  0  0
 27 26  2  0  0  0  0
M  END
>  <MODEL>
1

>  <REMARK>
 VINA RESULT:      -9.3      0.000      0.000
  Name = 
  6 active torsions:
  status: ('A' for Active; 'I' for Inactive)
    1  A    between atoms: C_1  and  C_21
    2  A    between atoms: C_1  and  C_24
    3  A    between atoms: C_6  and  C_15
    4  A    between atoms: C_9  and  C_13
    5  A    between atoms: C_15  and  C_21
    6  A    between atoms: N_18  and  C_24
                            x       y       z     vdW  Elec       q    Type
                         _______ _______ _______ _____ _____    ______ ____

>  <TORSDO>
F 6

$$$$
=
 OpenBabel10222417263D

 28 31  0  0  1  0  0  0  0  0999 V2000
  184.0270  178.9870  139.1070 S   0  0  1  0  0  0  0  0  0  0  0  0
  183.4850  179.0410  141.6820 O   0  0  0  0  0  0  0  0  0  0  0  0
  185.6120  178.9600  139.8640 N   0  0  0  0  0  0  0  0  0  0  0  0
  184.5860  178.2100  141.9490 C   0  0  1  0  0  3  0  0  0  0  0  0
  187.0930  178.5690  141.6680 N   0  0  0  0  0  2  0  0  0  0  0  0
  185.7770  178.6180  141.1080 C   0  0  0  0  0  0  0  0  0  0  0  0
  184.0170  177.7120  138.2750 O   0  0  0  0  0  0  0  0  0  0  0  0
  182.9300  178.5730  140.4820 C   0  0  0  0  0  2  0  0  0  0  0  0
  188.6660  177.7640  148.1260 S   0  0  0  0  0  0  0  0  0  0  0  0
  184.3270  178.9220  145.8380 C   0  0  0  0  0  3  0  0  0  0  0  0
  186.4290  177.8870  145.2240 C   0  0  0  0  0  0  0  0  0  0  0  0
  184.8970  178.2210  143.4130 C   0  0  0  0  0  0  0  0  0  0  0  0
  186.1090  177.7960  143.8060 C   0  0  0  0  0  3  0  0  0  0  0  0
  189.5670  177.1400  146.8070 C   0  0  0  0  0  3  0  0  0  0  0  0
  187.3020  178.0170  147.2010 C   0  0  0  0  0  0  0  0  0  0  0  0
  185.5250  178.4650  146.1870 C   0  0  1  0  0  3  0  0  0  0  0  0
  188.7800  177.1410  145.6380 C   0  0  0  0  0  3  0  0  0  0  0  0
  183.8600  178.7780  144.3990 C   0  0  0  0  0  3  0  0  0  0  0  0
  186.1450  178.5360  147.4780 N   0  0  0  0  0  0  0  0  0  0  0  0
  187.5130  177.6410  145.9180 C   0  0  0  0  0  0  0  0  0  0  0  0
  188.2990  178.8510  140.9070 C   0  0  0  0  0  2  0  0  0  0  0  0
  189.0810  177.5930  140.7320 C   0  0  0  0  0  0  0  0  0  0  0  0
  189.4030  176.9390  141.7110 O   0  0  0  0  0  0  0  0  0  0  0  0
  189.4870  177.1440  139.3650 C   0  0  0  0  0  2  0  0  0  0  0  0
  188.3960  177.4790  138.3630 C   0  0  0  0  0  2  0  0  0  0  0  0
  188.9360  178.3820  137.3120 C   0  0  0  0  0  0  0  0  0  0  0  0
  188.9850  179.6230  137.5120 O   0  0  0  0  0  1  0  0  0  0  0  0
  189.4170  177.8530  136.1220 O   0  0  0  0  0  0  0  0  0  0  0  0
  1  7  2  6  0  0  0
  1  3  1  0  0  0  0
  1  8  1  0  0  0  0
  2  4  1  0  0  0  0
  3  6  2  0  0  0  0
  4 12  1  1  0  0  0
  6  5  1  0  0  0  0
  6  4  1  0  0  0  0
  8  2  1  0  0  0  0
 11 20  2  0  0  0  0
 11 16  1  0  0  0  0
 12 13  2  0  0  0  0
 12 18  1  0  0  0  0
 13 11  1  0  0  0  0
 14  9  1  0  0  0  0
 15 19  2  0  0  0  0
 15  9  1  0  0  0  0
 16 10  1  6  0  0  0
 16 19  1  0  0  0  0
 17 20  1  0  0  0  0
 17 14  2  0  0  0  0
 18 10  2  0  0  0  0
 20 15  1  0  0  0  0
 21  5  1  0  0  0  0
 22 21  1  0  0  0  0
 22 23  2  0  0  0  0
 24 22  1  0  0  0  0
 25 24  1  0  0  0  0
 26 27  1  0  0  0  0
 26 25  1  0  0  0  0
 28 26  2  0  0  0  0
M  END
>  <MODEL>
2

>  <REMARK>
 VINA RESULT:      -8.9      1.571      2.846
  Name = 
  6 active torsions:
  status: ('A' for Active; 'I' for Inactive)
    1  A    between atoms: C_1  and  C_21
    2  A    between atoms: C_1  and  C_24
    3  A    between atoms: C_6  and  C_15
    4  A    between atoms: C_9  and  C_13
    5  A    between atoms: C_15  and  C_21
    6  A    between atoms: N_18  and  C_24
                            x       y       z     vdW  Elec       q    Type
                         _______ _______ _______ _____ _____    ______ ____

>  <TORSDO>
F 6

$$$$
=
 OpenBabel10222417263D

 28 31  0  0  1  0  0  0  0  0999 V2000
  192.0520  175.6230  146.8660 S   0  0  1  0  0  0  0  0  0  0  0  0
  189.4640  175.9390  147.2270 O   0  0  0  0  0  0  0  0  0  0  0  0
  191.6110  176.8260  145.6650 N   0  0  0  0  0  0  0  0  0  0  0  0
  189.5700  177.3050  146.9170 C   0  0  1  0  0  3  0  0  0  0  0  0
  190.2160  178.5150  144.7690 N   0  0  0  0  0  2  0  0  0  0  0  0
  190.5110  177.5150  145.7490 C   0  0  0  0  0  0  0  0  0  0  0  0
  193.1070  176.3350  147.7010 O   0  0  0  0  0  0  0  0  0  0  0  0
  190.6140  175.6200  147.9620 C   0  0  0  0  0  2  0  0  0  0  0  0
  183.2980  178.7940  143.2490 S   0  0  0  0  0  0  0  0  0  0  0  0
  185.9750  178.8590  147.5180 C   0  0  0  0  0  3  0  0  0  0  0  0
  186.3690  178.3090  145.1930 C   0  0  0  0  0  0  0  0  0  0  0  0
  188.2130  177.8840  146.6600 C   0  0  0  0  0  0  0  0  0  0  0  0
  187.7210  177.8160  145.4120 C   0  0  0  0  0  3  0  0  0  0  0  0
  184.4570  178.1600  142.1540 C   0  0  0  0  0  3  0  0  0  0  0  0
  184.3640  178.7920  144.5310 C   0  0  0  0  0  0  0  0  0  0  0  0
  185.5380  178.7980  146.2650 C   0  0  0  0  0  0  0  0  0  0  0  0
  185.6830  177.9460  142.8150 C   0  0  0  0  0  3  0  0  0  0  0  0
  187.4090  178.4630  147.8330 C   0  0  0  0  0  2  0  0  0  0  0  0
  184.2220  179.1010  145.7830 N   0  0  0  0  0  0  0  0  0  0  0  0
  185.5750  178.3230  144.1500 C   0  0  0  0  0  0  0  0  0  0  0  0
  191.1080  178.8480  143.6700 C   0  0  0  0  0  2  0  0  0  0  0  0
  190.8200  177.9540  142.5110 C   0  0  0  0  0  0  0  0  0  0  0  0
  191.7310  177.3410  141.9790 O   0  0  0  0  0  0  0  0  0  0  0  0
  189.4250  177.8250  141.9890 C   0  0  0  0  0  2  0  0  0  0  0  0
  189.4520  177.4570  140.5160 C   0  0  0  0  0  2  0  0  0  0  0  0
  188.5950  178.3960  139.7450 C   0  0  0  0  0  0  0  0  0  0  0  0
  187.4200  178.6350  140.1260 O   0  0  0  0  0  1  0  0  0  0  0  0
  189.1030  179.0380  138.6230 O   0  0  0  0  0  0  0  0  0  0  0  0
  1  7  2  1  0  0  0
  1  8  1  0  0  0  0
  2  8  1  0  0  0  0
  3  6  2  0  0  0  0
  3  1  1  0  0  0  0
  4 12  1  6  0  0  0
  4  2  1  0  0  0  0
  5  6  1  0  0  0  0
  6  4  1  0  0  0  0
  9 15  1  0  0  0  0
 10 18  1  0  0  0  0
 11 13  1  0  0  0  0
 11 16  1  0  0  0  0
 12 18  1  0  0  0  0
 13 12  2  0  0  0  0
 14 17  2  0  0  0  0
 14  9  1  0  0  0  0
 15 19  2  0  0  0  0
 16 10  2  0  0  0  0
 17 20  1  0  0  0  0
 19 16  1  0  0  0  0
 20 15  1  0  0  0  0
 20 11  2  0  0  0  0
 21  5  1  0  0  0  0
 22 21  1  0  0  0  0
 23 22  2  0  0  0  0
 24 22  1  0  0  0  0
 25 24  1  0  0  0  0
 26 27  1  0  0  0  0
 26 25  1  0  0  0  0
 28 26  2  0  0  0  0
M  END
>  <MODEL>
3

>  <REMARK>
 VINA RESULT:      -8.7      2.584      6.124
  Name = 
  6 active torsions:
  status: ('A' for Active; 'I' for Inactive)
    1  A    between atoms: C_1  and  C_21
    2  A    between atoms: C_1  and  C_24
    3  A    between atoms: C_6  and  C_15
    4  A    between atoms: C_9  and  C_13
    5  A    between atoms: C_15  and  C_21
    6  A    between atoms: N_18  and  C_24
                            x       y       z     vdW  Elec       q    Type
                         _______ _______ _______ _____ _____    ______ ____

>  <TORSDO>
F 6

$$$$
=
 OpenBabel10222417263D

 28 31  0  0  1  0  0  0  0  0999 V2000
  183.9520  179.1380  140.0590 S   0  0  1  0  0  0  0  0  0  0  0  0
  184.1380  178.9730  142.6790 O   0  0  0  0  0  0  0  0  0  0  0  0
  185.6810  179.0140  140.3430 N   0  0  0  0  0  0  0  0  0  0  0  0
  185.2340  178.1010  142.5630 C   0  0  1  0  0  3  0  0  0  0  0  0
  187.5810  178.4360  141.6290 N   0  0  0  0  0  2  0  0  0  0  0  0
  186.1660  178.5590  141.4610 C   0  0  0  0  0  0  0  0  0  0  0  0
  183.6600  177.9430  139.1620 O   0  0  0  0  0  0  0  0  0  0  0  0
  183.2570  178.6240  141.6460 C   0  0  0  0  0  2  0  0  0  0  0  0
  190.8370  177.0790  147.3140 S   0  0  0  0  0  0  0  0  0  0  0  0
  186.0690  178.4470  146.4210 C   0  0  0  0  0  3  0  0  0  0  0  0
  187.8940  177.4730  145.1620 C   0  0  0  0  0  0  0  0  0  0  0  0
  185.9350  177.9750  143.8800 C   0  0  0  0  0  0  0  0  0  0  0  0
  187.1960  177.5150  143.8850 C   0  0  0  0  0  3  0  0  0  0  0  0
  191.3250  176.5800  145.7470 C   0  0  0  0  0  3  0  0  0  0  0  0
  189.2790  177.4180  146.8270 C   0  0  0  0  0  0  0  0  0  0  0  0
  187.3050  177.9600  146.3840 C   0  0  1  0  0  3  0  0  0  0  0  0
  190.2490  176.6900  144.8450 C   0  0  0  0  0  3  0  0  0  0  0  0
  185.2220  178.4390  145.1590 C   0  0  0  0  0  3  0  0  0  0  0  0
  188.2560  177.9100  147.4560 N   0  0  0  0  0  0  0  0  0  0  0  0
  189.1200  177.1630  145.5070 C   0  0  0  0  0  0  0  0  0  0  0  0
  188.5440  178.7620  140.5900 C   0  0  0  0  0  2  0  0  0  0  0  0
  188.9850  177.5090  139.9120 C   0  0  0  0  0  0  0  0  0  0  0  0
  188.3600  177.0870  138.9520 O   0  0  0  0  0  0  0  0  0  0  0  0
  190.1780  176.7620  140.4180 C   0  0  0  0  0  2  0  0  0  0  0  0
  191.4410  177.2930  139.7620 C   0  0  0  0  0  2  0  0  0  0  0  0
  191.8690  176.3740  138.6740 C   0  0  0  0  0  0  0  0  0  0  0  0
  192.9280  176.6050  138.0350 O   0  0  0  0  0  0  0  0  0  0  0  0
  191.1180  175.2430  138.3850 O   0  0  0  0  0  1  0  0  0  0  0  0
  1  7  2  6  0  0  0
  1  3  1  0  0  0  0
  1  8  1  0  0  0  0
  3  6  2  0  0  0  0
  4  2  1  0  0  0  0
  4 12  1  1  0  0  0
  6  5  1  0  0  0  0
  6  4  1  0  0  0  0
  8  2  1  0  0  0  0
 11 20  2  0  0  0  0
 11 16  1  0  0  0  0
 12 13  2  0  0  0  0
 12 18  1  0  0  0  0
 13 11  1  0  0  0  0
 14  9  1  0  0  0  0
 15  9  1  0  0  0  0
 15 19  2  0  0  0  0
 16 10  1  6  0  0  0
 16 19  1  0  0  0  0
 17 20  1  0  0  0  0
 17 14  2  0  0  0  0
 18 10  2  0  0  0  0
 20 15  1  0  0  0  0
 21  5  1  0  0  0  0
 22 24  1  0  0  0  0
 22 21  1  0  0  0  0
 23 22  2  0  0  0  0
 25 24  1  0  0  0  0
 26 25  1  0  0  0  0
 27 26  2  0  0  0  0
 28 26  1  0  0  0  0
M  END
>  <MODEL>
4

>  <REMARK>
 VINA RESULT:      -8.6      2.211      2.707
  Name = 
  6 active torsions:
  status: ('A' for Active; 'I' for Inactive)
    1  A    between atoms: C_1  and  C_21
    2  A    between atoms: C_1  and  C_24
    3  A    between atoms: C_6  and  C_15
    4  A    between atoms: C_9  and  C_13
    5  A    between atoms: C_15  and  C_21
    6  A    between atoms: N_18  and  C_24
                            x       y       z     vdW  Elec       q    Type
                         _______ _______ _______ _____ _____    ______ ____

>  <TORSDO>
F 6

$$$$
=
 OpenBabel10222417263D

 28 31  0  0  1  0  0  0  0  0999 V2000
  189.0180  176.9760  138.2160 S   0  0  1  0  0  0  0  0  0  0  0  0
  190.1540  176.1820  140.4550 O   0  0  0  0  0  0  0  0  0  0  0  0
  188.1090  177.8170  139.4630 N   0  0  0  0  0  0  0  0  0  0  0  0
  189.9450  177.4470  141.0300 C   0  0  1  0  0  3  0  0  0  0  0  0
  187.8140  178.7070  141.6350 N   0  0  0  0  0  2  0  0  0  0  0  0
  188.5730  177.9770  140.6670 C   0  0  0  0  0  0  0  0  0  0  0  0
  189.5620  178.1100  137.3580 O   0  0  0  0  0  0  0  0  0  0  0  0
  190.4850  176.4180  139.1130 C   0  0  0  0  0  2  0  0  0  0  0  0
  188.1950  177.4810  148.2370 S   0  0  0  0  0  0  0  0  0  0  0  0
  191.5490  176.6600  144.5660 C   0  0  0  0  0  3  0  0  0  0  0  0
  189.3130  177.5720  144.7460 C   0  0  0  0  0  0  0  0  0  0  0  0
  190.1520  177.3810  142.5110 C   0  0  0  0  0  0  0  0  0  0  0  0
  189.1250  177.7170  143.3090 C   0  0  0  0  0  3  0  0  0  0  0  0
  186.8670  178.0770  147.3290 C   0  0  0  0  0  3  0  0  0  0  0  0
  189.1740  177.3380  146.8940 C   0  0  0  0  0  0  0  0  0  0  0  0
  190.5190  177.0300  145.3200 C   0  0  0  0  0  0  0  0  0  0  0  0
  187.2070  178.1550  145.9650 C   0  0  0  0  0  3  0  0  0  0  0  0
  191.4900  176.8680  143.0610 C   0  0  0  0  0  3  0  0  0  0  0  0
  190.3810  176.8880  146.7400 N   0  0  0  0  0  0  0  0  0  0  0  0
  188.5190  177.7310  145.7770 C   0  0  2  0  0  3  0  0  0  0  0  0
  186.5340  179.3320  141.3450 C   0  0  0  0  0  2  0  0  0  0  0  0
  185.4310  178.4230  141.7740 C   0  0  0  0  0  0  0  0  0  0  0  0
  184.6980  177.9240  140.9360 O   0  0  0  0  0  0  0  0  0  0  0  0
  185.2120  178.1400  143.2250 C   0  0  0  0  0  2  0  0  0  0  0  0
  184.6620  179.3750  143.9190 C   0  0  0  0  0  2  0  0  0  0  0  0
  183.5500  178.9910  144.8270 C   0  0  0  0  0  0  0  0  0  0  0  0
  183.7150  179.0230  146.0740 O   0  0  0  0  0  1  0  0  0  0  0  0
  182.3170  178.6300  144.3010 O   0  0  0  0  0  0  0  0  0  0  0  0
  1  7  2  6  0  0  0
  1  8  1  0  0  0  0
  1  3  1  0  0  0  0
  2  4  1  0  0  0  0
  3  6  2  0  0  0  0
  4 12  1  1  0  0  0
  6  4  1  0  0  0  0
  6  5  1  0  0  0  0
  8  2  1  0  0  0  0
 10 16  1  0  0  0  0
 11 16  2  0  0  0  0
 11 20  1  0  0  0  0
 12 18  1  0  0  0  0
 12 13  2  0  0  0  0
 13 11  1  0  0  0  0
 14  9  1  0  0  0  0
 15  9  1  0  0  0  0
 16 19  1  0  0  0  0
 17 14  2  0  0  0  0
 18 10  2  0  0  0  0
 19 15  2  0  0  0  0
 20 17  1  6  0  0  0
 20 15  1  0  0  0  0
 21  5  1  0  0  0  0
 21 22  1  0  0  0  0
 22 24  1  0  0  0  0
 23 22  2  0  0  0  0
 24 25  1  0  0  0  0
 25 26  1  0  0  0  0
 26 27  1  0  0  0  0
 28 26  2  0  0  0  0
M  END
>  <MODEL>
5

>  <REMARK>
 VINA RESULT:      -8.6      2.170      5.411
  Name = 
  6 active torsions:
  status: ('A' for Active; 'I' for Inactive)
    1  A    between atoms: C_1  and  C_21
    2  A    between atoms: C_1  and  C_24
    3  A    between atoms: C_6  and  C_15
    4  A    between atoms: C_9  and  C_13
    5  A    between atoms: C_15  and  C_21
    6  A    between atoms: N_18  and  C_24
                            x       y       z     vdW  Elec       q    Type
                         _______ _______ _______ _____ _____    ______ ____

>  <TORSDO>
F 6

$$$$
=
 OpenBabel10222417263D

 28 31  0  0  1  0  0  0  0  0999 V2000
  188.0500  177.5530  147.6920 S   0  0  1  0  0  0  0  0  0  0  0  0
  185.6510  178.2070  146.8280 O   0  0  0  0  0  0  0  0  0  0  0  0
  188.0740  177.0740  146.0020 N   0  0  0  0  0  0  0  0  0  0  0  0
  186.1780  178.5520  145.5730 C   0  0  1  0  0  3  0  0  0  0  0  0
  187.3100  177.1580  143.7640 N   0  0  0  0  0  2  0  0  0  0  0  0
  187.2230  177.5450  145.1390 C   0  0  0  0  0  0  0  0  0  0  0  0
  189.2040  178.5420  147.7900 O   0  0  0  0  0  0  0  0  0  0  0  0
  186.5980  178.6270  147.7730 C   0  0  0  0  0  2  0  0  0  0  0  0
  182.8590  178.5510  138.9400 S   0  0  0  0  0  0  0  0  0  0  0  0
  182.5580  178.6980  143.9690 C   0  0  0  0  0  3  0  0  0  0  0  0
  184.3120  178.7490  142.3010 C   0  0  0  0  0  0  0  0  0  0  0  0
  185.0750  178.6890  144.5700 C   0  0  0  0  0  0  0  0  0  0  0  0
  185.4010  178.6960  143.2670 C   0  0  0  0  0  3  0  0  0  0  0  0
  184.5600  178.5480  138.7220 C   0  0  0  0  0  3  0  0  0  0  0  0
  182.9740  178.6610  140.6000 C   0  0  0  0  0  0  0  0  0  0  0  0
  182.9250  178.7310  142.6930 C   0  0  0  0  0  0  0  0  0  0  0  0
  185.2100  178.6300  139.9690 C   0  0  0  0  0  3  0  0  0  0  0  0
  183.6190  178.7440  145.0560 C   0  0  0  0  0  2  0  0  0  0  0  0
  182.0770  178.6680  141.5380 N   0  0  0  0  0  0  0  0  0  0  0  0
  184.2700  178.6950  140.9920 C   0  0  0  0  0  0  0  0  0  0  0  0
  188.3390  176.2720  143.2440 C   0  0  0  0  0  2  0  0  0  0  0  0
  189.2100  177.0270  142.2970 C   0  0  0  0  0  0  0  0  0  0  0  0
  188.7060  177.6500  141.3770 O   0  0  0  0  0  0  0  0  0  0  0  0
  190.6960  177.0040  142.4620 C   0  0  0  0  0  2  0  0  0  0  0  0
  191.0610  176.3790  143.7970 C   0  0  0  0  0  2  0  0  0  0  0  0
  191.4980  177.4350  144.7470 C   0  0  0  0  0  0  0  0  0  0  0  0
  191.6710  178.6140  144.3420 O   0  0  0  0  0  0  0  0  0  0  0  0
  191.6840  177.1300  146.0890 O   0  0  0  0  0  1  0  0  0  0  0  0
  1  8  1  0  0  0  0
  1  7  2  6  0  0  0
  2  8  1  0  0  0  0
  3  1  1  0  0  0  0
  4 12  1  6  0  0  0
  4  2  1  0  0  0  0
  5  6  1  0  0  0  0
  6  4  1  0  0  0  0
  6  3  2  0  0  0  0
  9 15  1  0  0  0  0
 10 18  1  0  0  0  0
 11 16  1  0  0  0  0
 11 13  1  0  0  0  0
 12 18  1  0  0  0  0
 13 12  2  0  0  0  0
 14  9  1  0  0  0  0
 14 17  2  0  0  0  0
 15 20  1  0  0  0  0
 15 19  2  0  0  0  0
 16 10  2  0  0  0  0
 17 20  1  0  0  0  0
 19 16  1  0  0  0  0
 20 11  2  0  0  0  0
 21  5  1  0  0  0  0
 22 24  1  0  0  0  0
 22 21  1  0  0  0  0
 23 22  2  0  0  0  0
 24 25  1  0  0  0  0
 25 26  1  0  0  0  0
 26 28  1  0  0  0  0
 27 26  2  0  0  0  0
M  END
>  <MODEL>
6

>  <REMARK>
 VINA RESULT:      -8.4      2.144      5.547
  Name = 
  6 active torsions:
  status: ('A' for Active; 'I' for Inactive)
    1  A    between atoms: C_1  and  C_21
    2  A    between atoms: C_1  and  C_24
    3  A    between atoms: C_6  and  C_15
    4  A    between atoms: C_9  and  C_13
    5  A    between atoms: C_15  and  C_21
    6  A    between atoms: N_18  and  C_24
                            x       y       z     vdW  Elec       q    Type
                         _______ _______ _______ _____ _____    ______ ____

>  <TORSDO>
F 6

$$$$
=
 OpenBabel10222417263D

 28 31  0  0  1  0  0  0  0  0999 V2000
  190.5310  176.5330  147.1890 S   0  0  1  0  0  0  0  0  0  0  0  0
  188.0240  177.2960  147.4430 O   0  0  0  0  0  0  0  0  0  0  0  0
  189.9020  176.4420  145.5500 N   0  0  0  0  0  0  0  0  0  0  0  0
  188.0700  177.9260  146.1880 C   0  0  1  0  0  3  0  0  0  0  0  0
  188.3730  177.0000  143.8330 N   0  0  0  0  0  2  0  0  0  0  0  0
  188.8220  177.0690  145.1890 C   0  0  0  0  0  0  0  0  0  0  0  0
  191.6940  177.5060  147.0610 O   0  0  0  0  0  0  0  0  0  0  0  0
  189.2750  177.5220  148.0340 C   0  0  0  0  0  2  0  0  0  0  0  0
  182.3650  178.6330  141.5020 S   0  0  0  0  0  0  0  0  0  0  0  0
  184.1720  178.6330  146.2070 C   0  0  0  0  0  3  0  0  0  0  0  0
  185.0780  178.5020  143.9650 C   0  0  0  0  0  0  0  0  0  0  0  0
  186.6850  178.2520  145.7230 C   0  0  0  0  0  0  0  0  0  0  0  0
  186.4470  178.2630  144.4010 C   0  0  0  0  0  3  0  0  0  0  0  0
  183.8090  178.4010  140.6050 C   0  0  0  0  0  3  0  0  0  0  0  0
  183.1640  178.6640  142.9650 C   0  0  0  0  0  0  0  0  0  0  0  0
  183.9860  178.6620  144.8920 C   0  0  0  0  0  0  0  0  0  0  0  0
  184.9170  178.3460  141.4730 C   0  0  0  0  0  3  0  0  0  0  0  0
  185.5800  178.4900  146.7620 C   0  0  0  0  0  2  0  0  0  0  0  0
  182.7400  178.7600  144.1880 N   0  0  0  0  0  0  0  0  0  0  0  0
  184.4970  178.5030  142.7900 C   0  0  0  0  0  0  0  0  0  0  0  0
  189.0850  176.2800  142.7890 C   0  0  0  0  0  2  0  0  0  0  0  0
  189.6530  177.2560  141.8140 C   0  0  0  0  0  0  0  0  0  0  0  0
  190.8560  177.4610  141.7940 O   0  0  0  0  0  0  0  0  0  0  0  0
  188.7510  177.9930  140.8770 C   0  0  0  0  0  2  0  0  0  0  0  0
  189.1430  177.7000  139.4390 C   0  0  0  0  0  2  0  0  0  0  0  0
  188.3800  178.5840  138.5170 C   0  0  0  0  0  0  0  0  0  0  0  0
  187.1240  178.6260  138.5810 O   0  0  0  0  0  1  0  0  0  0  0  0
  189.0550  179.3880  137.6100 O   0  0  0  0  0  0  0  0  0  0  0  0
  1  7  2  6  0  0  0
  1  8  1  0  0  0  0
  2  8  1  0  0  0  0
  3  1  1  0  0  0  0
  4 12  1  6  0  0  0
  4  2  1  0  0  0  0
  5  6  1  0  0  0  0
  6  3  2  0  0  0  0
  6  4  1  0  0  0  0
  9 15  1  0  0  0  0
 10 18  1  0  0  0  0
 11 13  1  0  0  0  0
 11 16  1  0  0  0  0
 12 18  1  0  0  0  0
 13 12  2  0  0  0  0
 14 17  2  0  0  0  0
 14  9  1  0  0  0  0
 15 19  2  0  0  0  0
 16 10  2  0  0  0  0
 17 20  1  0  0  0  0
 19 16  1  0  0  0  0
 20 15  1  0  0  0  0
 20 11  2  0  0  0  0
 21  5  1  0  0  0  0
 22 21  1  0  0  0  0
 23 22  2  0  0  0  0
 24 22  1  0  0  0  0
 25 24  1  0  0  0  0
 26 27  1  0  0  0  0
 26 25  1  0  0  0  0
 28 26  2  0  0  0  0
M  END
>  <MODEL>
7

>  <REMARK>
 VINA RESULT:      -8.3      2.295      5.982
  Name = 
  6 active torsions:
  status: ('A' for Active; 'I' for Inactive)
    1  A    between atoms: C_1  and  C_21
    2  A    between atoms: C_1  and  C_24
    3  A    between atoms: C_6  and  C_15
    4  A    between atoms: C_9  and  C_13
    5  A    between atoms: C_15  and  C_21
    6  A    between atoms: N_18  and  C_24
                            x       y       z     vdW  Elec       q    Type
                         _______ _______ _______ _____ _____    ______ ____

>  <TORSDO>
F 6

$$$$
=
 OpenBabel10222417263D

 28 31  0  0  1  0  0  0  0  0999 V2000
  189.3100  176.8790  138.3520 S   0  0  1  0  0  0  0  0  0  0  0  0
  190.4130  176.1760  140.6370 O   0  0  0  0  0  0  0  0  0  0  0  0
  188.2950  177.6560  139.5570 N   0  0  0  0  0  0  0  0  0  0  0  0
  190.0900  177.4240  141.1960 C   0  0  1  0  0  3  0  0  0  0  0  0
  187.8520  178.5280  141.7120 N   0  0  0  0  0  2  0  0  0  0  0  0
  188.6990  177.8530  140.7770 C   0  0  0  0  0  0  0  0  0  0  0  0
  189.8030  178.0470  137.5080 O   0  0  0  0  0  0  0  0  0  0  0  0
  190.7780  176.4320  139.3080 C   0  0  0  0  0  2  0  0  0  0  0  0
  188.0830  177.5590  148.3340 S   0  0  0  0  0  0  0  0  0  0  0  0
  191.5650  176.6810  144.7980 C   0  0  0  0  0  3  0  0  0  0  0  0
  189.3260  177.6010  144.8850 C   0  0  0  0  0  0  0  0  0  0  0  0
  190.2440  177.3770  142.6850 C   0  0  0  0  0  0  0  0  0  0  0  0
  189.1900  177.7270  143.4410 C   0  0  0  0  0  3  0  0  0  0  0  0
  186.7900  178.1460  147.3720 C   0  0  0  0  0  3  0  0  0  0  0  0
  189.1090  177.3960  147.0300 C   0  0  0  0  0  0  0  0  0  0  0  0
  190.5090  177.0640  145.5090 C   0  0  0  0  0  0  0  0  0  0  0  0
  187.1800  178.2050  146.0200 C   0  0  0  0  0  3  0  0  0  0  0  0
  191.5600  176.8690  143.2890 C   0  0  0  0  0  3  0  0  0  0  0  0
  190.3200  176.9420  146.9250 N   0  0  0  0  0  0  0  0  0  0  0  0
  188.4960  177.7760  145.8850 C   0  0  2  0  0  3  0  0  0  0  0  0
  186.5420  179.0570  141.3690 C   0  0  0  0  0  2  0  0  0  0  0  0
  185.5010  178.3690  142.1860 C   0  0  0  0  0  0  0  0  0  0  0  0
  185.8360  177.5950  143.0670 O   0  0  0  0  0  0  0  0  0  0  0  0
  184.0510  178.6100  141.9120 C   0  0  0  0  0  2  0  0  0  0  0  0
  183.6970  178.1260  140.5170 C   0  0  0  0  0  2  0  0  0  0  0  0
  183.2950  179.2790  139.6690 C   0  0  0  0  0  0  0  0  0  0  0  0
  182.0780  179.4960  139.4340 O   0  0  0  0  0  1  0  0  0  0  0  0
  184.2610  180.1390  139.1630 O   0  0  0  0  0  0  0  0  0  0  0  0
  1  7  2  6  0  0  0
  1  8  1  0  0  0  0
  1  3  1  0  0  0  0
  2  4  1  0  0  0  0
  3  6  2  0  0  0  0
  4 12  1  1  0  0  0
  6  4  1  0  0  0  0
  6  5  1  0  0  0  0
  8  2  1  0  0  0  0
 10 16  1  0  0  0  0
 11 16  2  0  0  0  0
 11 20  1  0  0  0  0
 12 18  1  0  0  0  0
 12 13  2  0  0  0  0
 13 11  1  0  0  0  0
 14  9  1  0  0  0  0
 15  9  1  0  0  0  0
 16 19  1  0  0  0  0
 17 14  2  0  0  0  0
 18 10  2  0  0  0  0
 19 15  2  0  0  0  0
 20 17  1  6  0  0  0
 20 15  1  0  0  0  0
 21  5  1  0  0  0  0
 21 22  1  0  0  0  0
 22 23  2  0  0  0  0
 24 22  1  0  0  0  0
 25 24  1  0  0  0  0
 26 25  1  0  0  0  0
 27 26  1  0  0  0  0
 28 26  2  0  0  0  0
M  END
>  <MODEL>
8

>  <REMARK>
 VINA RESULT:      -8.3      2.283      5.741
  Name = 
  6 active torsions:
  status: ('A' for Active; 'I' for Inactive)
    1  A    between atoms: C_1  and  C_21
    2  A    between atoms: C_1  and  C_24
    3  A    between atoms: C_6  and  C_15
    4  A    between atoms: C_9  and  C_13
    5  A    between atoms: C_15  and  C_21
    6  A    between atoms: N_18  and  C_24
                            x       y       z     vdW  Elec       q    Type
                         _______ _______ _______ _____ _____    ______ ____

>  <TORSDO>
F 6

$$$$
=
 OpenBabel10222417263D

 28 31  0  0  1  0  0  0  0  0999 V2000
  184.0740  179.1490  140.3830 S   0  0  1  0  0  0  0  0  0  0  0  0
  184.3260  178.9450  142.9960 O   0  0  0  0  0  0  0  0  0  0  0  0
  185.8100  179.0130  140.6220 N   0  0  0  0  0  0  0  0  0  0  0  0
  185.4140  178.0700  142.8400 C   0  0  1  0  0  3  0  0  0  0  0  0
  187.7390  178.4080  141.8520 N   0  0  0  0  0  2  0  0  0  0  0  0
  186.3200  178.5400  141.7210 C   0  0  0  0  0  0  0  0  0  0  0  0
  183.7540  177.9680  139.4780 O   0  0  0  0  0  0  0  0  0  0  0  0
  183.4170  178.6150  141.9800 C   0  0  0  0  0  2  0  0  0  0  0  0
  191.1430  177.0370  147.4350 S   0  0  0  0  0  0  0  0  0  0  0  0
  186.3290  178.3260  146.6870 C   0  0  0  0  0  3  0  0  0  0  0  0
  188.1450  177.4270  145.3610 C   0  0  0  0  0  0  0  0  0  0  0  0
  186.1470  177.9230  144.1370 C   0  0  0  0  0  0  0  0  0  0  0  0
  187.4180  177.4900  144.1000 C   0  0  0  0  0  3  0  0  0  0  0  0
  191.6070  176.5930  145.8440 C   0  0  0  0  0  3  0  0  0  0  0  0
  189.5680  177.3560  146.9920 C   0  0  0  0  0  0  0  0  0  0  0  0
  187.5730  177.8670  146.6090 C   0  0  1  0  0  3  0  0  0  0  0  0
  190.5080  176.7050  144.9690 C   0  0  0  0  0  3  0  0  0  0  0  0
  185.4540  178.3340  145.4440 C   0  0  0  0  0  3  0  0  0  0  0  0
  188.5490  177.8070  147.6580 N   0  0  0  0  0  0  0  0  0  0  0  0
  189.3850  177.1340  145.6690 C   0  0  0  0  0  0  0  0  0  0  0  0
  188.6760  178.7450  140.7940 C   0  0  0  0  0  2  0  0  0  0  0  0
  189.1550  177.4940  140.1380 C   0  0  0  0  0  0  0  0  0  0  0  0
  189.9600  176.7790  140.7120 O   0  0  0  0  0  0  0  0  0  0  0  0
  188.6640  177.1250  138.7750 C   0  0  0  0  0  2  0  0  0  0  0  0
  188.7050  178.3380  137.8620 C   0  0  0  0  0  2  0  0  0  0  0  0
  188.6110  177.9050  136.4420 C   0  0  0  0  0  0  0  0  0  0  0  0
  189.5310  177.2150  135.9320 O   0  0  0  0  0  1  0  0  0  0  0  0
  187.4920  178.2310  135.6890 O   0  0  0  0  0  0  0  0  0  0  0  0
  1  7  2  6  0  0  0
  1  3  1  0  0  0  0
  1  8  1  0  0  0  0
  3  6  2  0  0  0  0
  4  2  1  0  0  0  0
  4 12  1  1  0  0  0
  6  5  1  0  0  0  0
  6  4  1  0  0  0  0
  8  2  1  0  0  0  0
 11 20  2  0  0  0  0
 11 16  1  0  0  0  0
 12 18  1  0  0  0  0
 13 12  2  0  0  0  0
 13 11  1  0  0  0  0
 14  9  1  0  0  0  0
 15  9  1  0  0  0  0
 15 19  2  0  0  0  0
 16 10  1  6  0  0  0
 16 19  1  0  0  0  0
 17 20  1  0  0  0  0
 17 14  2  0  0  0  0
 18 10  2  0  0  0  0
 20 15  1  0  0  0  0
 21  5  1  0  0  0  0
 22 23  2  0  0  0  0
 22 21  1  0  0  0  0
 24 22  1  0  0  0  0
 25 24  1  0  0  0  0
 26 25  1  0  0  0  0
 27 26  1  0  0  0  0
 28 26  2  0  0  0  0
M  END
>  <MODEL>
9

>  <REMARK>
 VINA RESULT:      -8.3      2.107      3.697
  Name = 
  6 active torsions:
  status: ('A' for Active; 'I' for Inactive)
    1  A    between atoms: C_1  and  C_21
    2  A    between atoms: C_1  and  C_24
    3  A    between atoms: C_6  and  C_15
    4  A    between atoms: C_9  and  C_13
    5  A    between atoms: C_15  and  C_21
    6  A    between atoms: N_18  and  C_24
                            x       y       z     vdW  Elec       q    Type
                         _______ _______ _______ _____ _____    ______ ____

>  <TORSDO>
F 6

$$$$
