=
 OpenBabel10222420183D

 27 29  0  0  1  0  0  0  0  0999 V2000
  188.7930  177.8690  140.9860 C   0  0  0  0  0  0  0  0  0  0  0  0
  186.1770  178.9340  141.4130 C   0  0  2  0  0  3  0  0  0  0  0  0
  186.6980  178.6950  140.0230 C   0  0  0  0  0  3  0  0  0  0  0  0
  188.2560  177.8420  142.2150 C   0  0  0  0  0  0  0  0  0  0  0  0
  186.9100  178.1930  142.3930 O   0  0  0  0  0  0  0  0  0  0  0  0
  187.9350  178.2340  139.8380 C   0  0  0  0  0  3  0  0  0  0  0  0
  182.0050  177.9940  141.5440 N   0  0  0  0  0  2  0  0  0  0  0  0
  183.9890  178.9960  142.5830 C   0  0  0  0  0  0  0  0  0  0  0  0
  184.7110  178.6310  141.5090 C   0  0  0  0  0  0  0  0  0  0  0  0
  184.6260  179.7230  143.7290 C   0  0  0  0  0  1  0  0  0  0  0  0
  181.7530  179.0460  143.7560 C   0  0  0  0  0  1  0  0  0  0  0  0
  184.0540  177.9130  140.3960 C   0  0  0  0  0  3  0  0  0  0  0  0
  182.7890  177.6280  140.4380 N   0  0  0  0  0  0  0  0  0  0  0  0
  182.5870  178.6770  142.6230 N   0  0  0  0  0  0  0  0  0  0  0  0
  190.5750  176.7630  139.6780 C   0  0  0  0  0  1  0  0  0  0  0  0
  190.1340  177.5150  140.7990 O   0  0  0  0  0  0  0  0  0  0  0  0
  189.0730  177.4000  143.3970 C   0  0  1  0  0  3  0  0  0  0  0  0
  187.1000  177.7850  147.2030 C   0  0  0  0  0  3  0  0  0  0  0  0
  186.9800  177.3270  144.8290 C   0  0  0  0  0  3  0  0  0  0  0  0
  186.3510  177.4530  146.0710 C   0  0  0  0  0  3  0  0  0  0  0  0
  189.1080  177.8670  145.8520 C   0  0  0  0  0  3  0  0  0  0  0  0
  188.3630  177.5370  144.7130 C   0  0  0  0  0  0  0  0  0  0  0  0
  188.4780  177.9900  147.0940 C   0  0  0  0  0  3  0  0  0  0  0  0
  189.7780  176.0540  143.2000 C   0  0  0  0  0  2  0  0  0  0  0  0
  191.8010  175.0270  143.9450 O   0  0  0  0  0  1  0  0  0  0  0  0
  191.9510  177.2590  143.4510 O   0  0  0  0  0  0  0  0  0  0  0  0
  191.2300  176.0790  143.5550 C   0  0  0  0  0  0  0  0  0  0  0  0
  1  4  2  0  0  0  0
  2  9  1  6  0  0  0
  2  5  1  0  0  0  0
  3  2  1  0  0  0  0
  4  5  1  0  0  0  0
  4 17  1  0  0  0  0
  6  3  2  0  0  0  0
  6  1  1  0  0  0  0
  7 14  1  0  0  0  0
  8 14  1  0  0  0  0
  8 10  1  0  0  0  0
  9  8  2  0  0  0  0
 12 13  2  0  0  0  0
 12  9  1  0  0  0  0
 13  7  1  0  0  0  0
 14 11  1  0  0  0  0
 15 16  1  0  0  0  0
 16  1  1  0  0  0  0
 17 24  1  6  0  0  0
 17 22  1  0  0  0  0
 19 20  1  0  0  0  0
 20 18  2  0  0  0  0
 21 23  2  0  0  0  0
 22 19  2  0  0  0  0
 22 21  1  0  0  0  0
 23 18  1  0  0  0  0
 24 27  1  0  0  0  0
 26 27  2  0  0  0  0
 27 25  1  0  0  0  0
M  END
>  <MODEL>
1

>  <REMARK>
 VINA RESULT:      -7.9      0.000      0.000
  Name = 
  6 active torsions:
  status: ('A' for Active; 'I' for Inactive)
    1  A    between atoms: C_5  and  O_23
    2  A    between atoms: C_7  and  C_8
    3  A    between atoms: C_11  and  C_14
    4  A    between atoms: C_11  and  C_15
    5  A    between atoms: C_11  and  C_20
    6  A    between atoms: C_14  and  C_27
                            x       y       z     vdW  Elec       q    Type
                         _______ _______ _______ _____ _____    ______ ____

>  <TORSDO>
F 6

$$$$
=
 OpenBabel10222420183D

 27 29  0  0  1  0  0  0  0  0999 V2000
  187.2370  178.4150  140.9510 C   0  0  0  0  0  0  0  0  0  0  0  0
  184.4050  178.7580  141.0910 C   0  0  2  0  0  3  0  0  0  0  0  0
  185.1300  178.8380  139.7770 C   0  0  0  0  0  3  0  0  0  0  0  0
  186.5830  178.0970  142.0780 C   0  0  0  0  0  0  0  0  0  0  0  0
  185.1810  178.0880  142.0890 O   0  0  0  0  0  0  0  0  0  0  0  0
  186.4560  178.7160  139.7310 C   0  0  0  0  0  3  0  0  0  0  0  0
  180.6410  176.8010  140.5370 N   0  0  0  0  0  2  0  0  0  0  0  0
  182.0320  178.4250  141.7390 C   0  0  0  0  0  0  0  0  0  0  0  0
  183.0640  178.1030  140.9390 C   0  0  0  0  0  0  0  0  0  0  0  0
  182.1860  179.4540  142.8190 C   0  0  0  0  0  1  0  0  0  0  0  0
  179.6160  178.0680  142.3830 C   0  0  0  0  0  1  0  0  0  0  0  0
  182.8800  177.0830  139.8850 C   0  0  0  0  0  3  0  0  0  0  0  0
  181.7380  176.4900  139.7180 N   0  0  0  0  0  0  0  0  0  0  0  0
  180.7680  177.7640  141.5500 N   0  0  0  0  0  0  0  0  0  0  0  0
  189.3860  177.7460  139.9300 C   0  0  0  0  0  1  0  0  0  0  0  0
  188.6370  178.4200  140.9300 O   0  0  0  0  0  0  0  0  0  0  0  0
  187.3400  177.7080  143.3170 C   0  0  1  0  0  3  0  0  0  0  0  0
  185.3120  178.5580  147.0180 C   0  0  0  0  0  3  0  0  0  0  0  0
  185.2750  178.4330  144.6000 C   0  0  0  0  0  3  0  0  0  0  0  0
  184.6270  178.7040  145.8090 C   0  0  0  0  0  3  0  0  0  0  0  0
  187.2960  177.8690  145.8100 C   0  0  0  0  0  3  0  0  0  0  0  0
  186.6160  178.0160  144.5960 C   0  0  0  0  0  0  0  0  0  0  0  0
  186.6460  178.1390  147.0190 C   0  0  0  0  0  3  0  0  0  0  0  0
  187.9460  176.3010  143.2620 C   0  0  0  0  0  2  0  0  0  0  0  0
  190.0680  177.2850  143.7450 O   0  0  0  0  0  1  0  0  0  0  0  0
  190.1380  175.1780  142.8460 O   0  0  0  0  0  0  0  0  0  0  0  0
  189.4400  176.2890  143.2990 C   0  0  0  0  0  0  0  0  0  0  0  0
  1  4  2  0  0  0  0
  2  9  1  6  0  0  0
  2  5  1  0  0  0  0
  3  2  1  0  0  0  0
  4  5  1  0  0  0  0
  4 17  1  0  0  0  0
  6  3  2  0  0  0  0
  6  1  1  0  0  0  0
  7 14  1  0  0  0  0
  8 10  1  0  0  0  0
  9  8  2  0  0  0  0
 12  9  1  0  0  0  0
 13 12  2  0  0  0  0
 13  7  1  0  0  0  0
 14  8  1  0  0  0  0
 14 11  1  0  0  0  0
 15 16  1  0  0  0  0
 16  1  1  0  0  0  0
 17 24  1  6  0  0  0
 17 22  1  0  0  0  0
 18 23  1  0  0  0  0
 19 20  1  0  0  0  0
 20 18  2  0  0  0  0
 21 23  2  0  0  0  0
 22 19  2  0  0  0  0
 22 21  1  0  0  0  0
 24 27  1  0  0  0  0
 26 27  2  0  0  0  0
 27 25  1  0  0  0  0
M  END
>  <MODEL>
2

>  <REMARK>
 VINA RESULT:      -7.8      1.537      2.003
  Name = 
  6 active torsions:
  status: ('A' for Active; 'I' for Inactive)
    1  A    between atoms: C_5  and  O_23
    2  A    between atoms: C_7  and  C_8
    3  A    between atoms: C_11  and  C_14
    4  A    between atoms: C_11  and  C_15
    5  A    between atoms: C_11  and  C_20
    6  A    between atoms: C_14  and  C_27
                            x       y       z     vdW  Elec       q    Type
                         _______ _______ _______ _____ _____    ______ ____

>  <TORSDO>
F 6

$$$$
=
 OpenBabel10222420183D

 27 29  0  0  1  0  0  0  0  0999 V2000
  190.7020  176.9810  145.1600 C   0  0  0  0  0  0  0  0  0  0  0  0
  190.3730  177.8220  142.4510 C   0  0  2  0  0  3  0  0  0  0  0  0
  191.5510  176.9850  142.8630 C   0  0  0  0  0  3  0  0  0  0  0  0
  189.5340  177.5090  144.7650 C   0  0  0  0  0  0  0  0  0  0  0  0
  189.3070  177.7510  143.4010 O   0  0  0  0  0  0  0  0  0  0  0  0
  191.7130  176.6330  144.1390 C   0  0  0  0  0  3  0  0  0  0  0  0
  189.1060  176.6470  138.5370 N   0  0  0  0  0  2  0  0  0  0  0  0
  188.7810  178.0040  140.5550 C   0  0  0  0  0  0  0  0  0  0  0  0
  189.8860  177.4480  141.0820 C   0  0  0  0  0  0  0  0  0  0  0  0
  187.9920  179.0250  141.3190 C   0  0  0  0  0  1  0  0  0  0  0  0
  187.1730  178.1710  138.6150 C   0  0  0  0  0  1  0  0  0  0  0  0
  190.6410  176.4430  140.3040 C   0  0  0  0  0  3  0  0  0  0  0  0
  190.2550  176.0870  139.1170 N   0  0  0  0  0  0  0  0  0  0  0  0
  188.3580  177.6060  139.2390 N   0  0  0  0  0  0  0  0  0  0  0  0
  192.0490  175.9800  146.9750 C   0  0  0  0  0  1  0  0  0  0  0  0
  190.9340  176.7320  146.5180 O   0  0  0  0  0  0  0  0  0  0  0  0
  188.4500  177.8040  145.7630 C   0  0  1  0  0  3  0  0  0  0  0  0
  184.6000  178.4240  143.9400 C   0  0  0  0  0  3  0  0  0  0  0  0
  186.1400  178.8530  145.7590 C   0  0  0  0  0  3  0  0  0  0  0  0
  184.8940  179.0480  145.1560 C   0  0  0  0  0  3  0  0  0  0  0  0
  186.7990  177.4080  143.9300 C   0  0  0  0  0  3  0  0  0  0  0  0
  187.0980  178.0280  145.1480 C   0  0  0  0  0  0  0  0  0  0  0  0
  185.5530  177.6060  143.3270 C   0  0  0  0  0  3  0  0  0  0  0  0
  188.4420  176.8620  146.9720 C   0  0  0  0  0  2  0  0  0  0  0  0
  187.4740  177.3340  149.1040 O   0  0  0  0  0  1  0  0  0  0  0  0
  189.3880  178.4920  148.6110 O   0  0  0  0  0  0  0  0  0  0  0  0
  188.4010  177.5720  148.2870 C   0  0  0  0  0  0  0  0  0  0  0  0
  1 16  1  0  0  0  0
  2  9  1  6  0  0  0
  2  3  1  0  0  0  0
  2  5  1  0  0  0  0
  3  6  2  0  0  0  0
  4  1  2  0  0  0  0
  4 17  1  0  0  0  0
  5  4  1  0  0  0  0
  6  1  1  0  0  0  0
  7 13  1  0  0  0  0
  7 14  1  0  0  0  0
  8  9  2  0  0  0  0
  8 10  1  0  0  0  0
 11 14  1  0  0  0  0
 12  9  1  0  0  0  0
 13 12  2  0  0  0  0
 14  8  1  0  0  0  0
 16 15  1  0  0  0  0
 17 24  1  1  0  0  0
 18 20  1  0  0  0  0
 20 19  2  0  0  0  0
 21 22  2  0  0  0  0
 22 19  1  0  0  0  0
 22 17  1  0  0  0  0
 23 21  1  0  0  0  0
 23 18  2  0  0  0  0
 24 27  1  0  0  0  0
 27 26  2  0  0  0  0
 27 25  1  0  0  0  0
M  END
>  <MODEL>
3

>  <REMARK>
 VINA RESULT:      -7.7      3.215      5.312
  Name = 
  6 active torsions:
  status: ('A' for Active; 'I' for Inactive)
    1  A    between atoms: C_5  and  O_23
    2  A    between atoms: C_7  and  C_8
    3  A    between atoms: C_11  and  C_14
    4  A    between atoms: C_11  and  C_15
    5  A    between atoms: C_11  and  C_20
    6  A    between atoms: C_14  and  C_27
                            x       y       z     vdW  Elec       q    Type
                         _______ _______ _______ _____ _____    ______ ____

>  <TORSDO>
F 6

$$$$
=
 OpenBabel10222420183D

 27 29  0  0  1  0  0  0  0  0999 V2000
  184.9640  179.0740  140.9850 C   0  0  0  0  0  0  0  0  0  0  0  0
  185.8090  177.8040  143.4000 C   0  0  2  0  0  3  0  0  0  0  0  0
  186.8020  178.4600  142.4820 C   0  0  0  0  0  3  0  0  0  0  0  0
  184.0530  178.7170  141.9030 C   0  0  0  0  0  0  0  0  0  0  0  0
  184.4760  178.2650  143.1620 O   0  0  0  0  0  0  0  0  0  0  0  0
  186.3990  179.0150  141.3390 C   0  0  0  0  0  3  0  0  0  0  0  0
  186.7350  178.4200  147.5310 N   0  0  0  0  0  2  0  0  0  0  0  0
  187.3450  177.5250  145.3300 C   0  0  0  0  0  0  0  0  0  0  0  0
  186.1840  177.9940  144.8400 C   0  0  0  0  0  0  0  0  0  0  0  0
  188.3120  176.7900  144.4500 C   0  0  0  0  0  1  0  0  0  0  0  0
  188.8910  177.2500  147.3080 C   0  0  0  0  0  1  0  0  0  0  0  0
  185.2510  178.7120  145.7330 C   0  0  0  0  0  3  0  0  0  0  0  0
  185.5320  178.8970  146.9860 N   0  0  0  0  0  0  0  0  0  0  0  0
  187.6520  177.7330  146.7200 N   0  0  0  0  0  0  0  0  0  0  0  0
  184.8930  178.8640  138.5230 C   0  0  0  0  0  1  0  0  0  0  0  0
  184.5500  179.5320  139.7280 O   0  0  0  0  0  0  0  0  0  0  0  0
  182.5840  178.8380  141.6100 C   0  0  1  0  0  3  0  0  0  0  0  0
  181.1780  176.3710  138.3750 C   0  0  0  0  0  3  0  0  0  0  0  0
  182.5250  176.6250  140.3700 C   0  0  0  0  0  3  0  0  0  0  0  0
  182.0600  175.8340  139.3170 C   0  0  0  0  0  3  0  0  0  0  0  0
  181.2260  178.4940  139.5420 C   0  0  0  0  0  3  0  0  0  0  0  0
  182.1110  177.9620  140.4860 C   0  0  0  0  0  0  0  0  0  0  0  0
  180.7600  177.7000  138.4890 C   0  0  0  0  0  3  0  0  0  0  0  0
  181.6940  178.7940  142.8580 C   0  0  0  0  0  2  0  0  0  0  0  0
  180.1340  180.5570  142.4580 O   0  0  0  0  0  0  0  0  0  0  0  0
  179.2320  178.4560  142.6060 O   0  0  0  0  0  1  0  0  0  0  0  0
  180.3150  179.3230  142.6310 C   0  0  0  0  0  0  0  0  0  0  0  0
  1  6  1  0  0  0  0
  1  4  2  0  0  0  0
  2  9  1  1  0  0  0
  3  2  1  0  0  0  0
  4  5  1  0  0  0  0
  5  2  1  0  0  0  0
  6  3  2  0  0  0  0
  8 14  1  0  0  0  0
  9  8  2  0  0  0  0
  9 12  1  0  0  0  0
 10  8  1  0  0  0  0
 12 13  2  0  0  0  0
 13  7  1  0  0  0  0
 14 11  1  0  0  0  0
 14  7  1  0  0  0  0
 15 16  1  0  0  0  0
 16  1  1  0  0  0  0
 17  4  1  0  0  0  0
 17 24  1  1  0  0  0
 18 23  2  0  0  0  0
 18 20  1  0  0  0  0
 19 22  1  0  0  0  0
 20 19  2  0  0  0  0
 21 22  2  0  0  0  0
 22 17  1  0  0  0  0
 23 21  1  0  0  0  0
 25 27  2  0  0  0  0
 26 27  1  0  0  0  0
 27 24  1  0  0  0  0
M  END
>  <MODEL>
4

>  <REMARK>
 VINA RESULT:      -7.6      3.668      7.551
  Name = 
  6 active torsions:
  status: ('A' for Active; 'I' for Inactive)
    1  A    between atoms: C_5  and  O_23
    2  A    between atoms: C_7  and  C_8
    3  A    between atoms: C_11  and  C_14
    4  A    between atoms: C_11  and  C_15
    5  A    between atoms: C_11  and  C_20
    6  A    between atoms: C_14  and  C_27
                            x       y       z     vdW  Elec       q    Type
                         _______ _______ _______ _____ _____    ______ ____

>  <TORSDO>
F 6

$$$$
=
 OpenBabel10222420183D

 27 29  0  0  1  0  0  0  0  0999 V2000
  190.8600  177.7900  142.3580 C   0  0  0  0  0  0  0  0  0  0  0  0
  190.0520  177.4200  139.6440 C   0  0  2  0  0  3  0  0  0  0  0  0
  191.5000  177.3420  140.0370 C   0  0  0  0  0  3  0  0  0  0  0  0
  189.5620  177.6160  142.0680 C   0  0  0  0  0  0  0  0  0  0  0  0
  189.1830  177.2520  140.7680 O   0  0  0  0  0  0  0  0  0  0  0  0
  191.8670  177.5560  141.3010 C   0  0  0  0  0  3  0  0  0  0  0  0
  189.2410  174.5030  136.6210 N   0  0  0  0  0  2  0  0  0  0  0  0
  188.6290  176.5670  137.7980 C   0  0  0  0  0  0  0  0  0  0  0  0
  189.7220  176.4270  138.5690 C   0  0  0  0  0  0  0  0  0  0  0  0
  187.6960  177.7250  137.9860 C   0  0  0  0  0  1  0  0  0  0  0  0
  187.1950  175.6790  135.9180 C   0  0  0  0  0  1  0  0  0  0  0  0
  190.6210  175.2730  138.3590 C   0  0  0  0  0  3  0  0  0  0  0  0
  190.3730  174.3880  137.4430 N   0  0  0  0  0  0  0  0  0  0  0  0
  188.3600  175.5830  136.7830 N   0  0  0  0  0  0  0  0  0  0  0  0
  191.4220  179.5000  144.0520 C   0  0  0  0  0  1  0  0  0  0  0  0
  191.2460  178.1480  143.6550 O   0  0  0  0  0  0  0  0  0  0  0  0
  188.5120  177.7670  143.1340 C   0  0  1  0  0  3  0  0  0  0  0  0
  184.5770  178.6980  141.6600 C   0  0  0  0  0  3  0  0  0  0  0  0
  186.9800  178.7450  141.3650 C   0  0  0  0  0  3  0  0  0  0  0  0
  185.6970  179.0400  140.8960 C   0  0  0  0  0  3  0  0  0  0  0  0
  186.0240  177.7650  143.3630 C   0  0  0  0  0  3  0  0  0  0  0  0
  187.1490  178.1070  142.6050 C   0  0  0  0  0  0  0  0  0  0  0  0
  184.7410  178.0590  142.8920 C   0  0  0  0  0  3  0  0  0  0  0  0
  188.5190  176.6450  144.1780 C   0  0  0  0  0  2  0  0  0  0  0  0
  189.8160  176.7250  146.1820 O   0  0  0  0  0  0  0  0  0  0  0  0
  187.9130  178.0010  146.1870 O   0  0  0  0  0  1  0  0  0  0  0  0
  188.7900  177.1200  145.5690 C   0  0  0  0  0  0  0  0  0  0  0  0
  1 16  1  0  0  0  0
  2  9  1  6  0  0  0
  2  3  1  0  0  0  0
  2  5  1  0  0  0  0
  3  6  2  0  0  0  0
  4  1  2  0  0  0  0
  4 17  1  0  0  0  0
  5  4  1  0  0  0  0
  6  1  1  0  0  0  0
  7 14  1  0  0  0  0
  7 13  1  0  0  0  0
  8 10  1  0  0  0  0
  8  9  2  0  0  0  0
 11 14  1  0  0  0  0
 12  9  1  0  0  0  0
 13 12  2  0  0  0  0
 14  8  1  0  0  0  0
 16 15  1  0  0  0  0
 17 24  1  6  0  0  0
 18 23  1  0  0  0  0
 19 22  2  0  0  0  0
 20 19  1  0  0  0  0
 20 18  2  0  0  0  0
 22 17  1  0  0  0  0
 22 21  1  0  0  0  0
 23 21  2  0  0  0  0
 24 27  1  0  0  0  0
 27 25  2  0  0  0  0
 27 26  1  0  0  0  0
M  END
>  <MODEL>
5

>  <REMARK>
 VINA RESULT:      -7.5      3.300      5.571
  Name = 
  6 active torsions:
  status: ('A' for Active; 'I' for Inactive)
    1  A    between atoms: C_5  and  O_23
    2  A    between atoms: C_7  and  C_8
    3  A    between atoms: C_11  and  C_14
    4  A    between atoms: C_11  and  C_15
    5  A    between atoms: C_11  and  C_20
    6  A    between atoms: C_14  and  C_27
                            x       y       z     vdW  Elec       q    Type
                         _______ _______ _______ _____ _____    ______ ____

>  <TORSDO>
F 6

$$$$
=
 OpenBabel10222420183D

 27 29  0  0  1  0  0  0  0  0999 V2000
  182.8900  179.1630  139.8160 C   0  0  0  0  0  0  0  0  0  0  0  0
  184.1670  178.1080  142.1430 C   0  0  2  0  0  3  0  0  0  0  0  0
  184.8970  179.0380  141.2150 C   0  0  0  0  0  3  0  0  0  0  0  0
  182.1580  178.5430  140.7530 C   0  0  0  0  0  0  0  0  0  0  0  0
  182.7490  178.1900  141.9760 O   0  0  0  0  0  0  0  0  0  0  0  0
  184.3020  179.4910  140.1110 C   0  0  0  0  0  3  0  0  0  0  0  0
  185.0930  178.8630  146.2510 N   0  0  0  0  0  2  0  0  0  0  0  0
  185.7700  178.0520  144.0370 C   0  0  0  0  0  0  0  0  0  0  0  0
  184.5450  178.3540  143.5740 C   0  0  0  0  0  0  0  0  0  0  0  0
  186.8090  177.4540  143.1360 C   0  0  0  0  0  1  0  0  0  0  0  0
  187.3840  178.0010  145.9800 C   0  0  0  0  0  1  0  0  0  0  0  0
  183.5420  178.9400  144.4880 C   0  0  0  0  0  3  0  0  0  0  0  0
  183.8230  179.1670  145.7340 N   0  0  0  0  0  0  0  0  0  0  0  0
  186.0770  178.3060  145.4190 N   0  0  0  0  0  0  0  0  0  0  0  0
  181.9380  180.8610  138.2930 C   0  0  0  0  0  1  0  0  0  0  0  0
  182.3070  179.5230  138.5950 O   0  0  0  0  0  0  0  0  0  0  0  0
  180.6990  178.2620  140.5230 C   0  0  1  0  0  3  0  0  0  0  0  0
  179.8900  174.2250  139.2700 C   0  0  0  0  0  3  0  0  0  0  0  0
  179.5040  176.0440  140.8190 C   0  0  0  0  0  3  0  0  0  0  0  0
  179.2470  174.7360  140.4010 C   0  0  0  0  0  3  0  0  0  0  0  0
  181.0460  176.3320  138.9740 C   0  0  0  0  0  3  0  0  0  0  0  0
  180.4080  176.8490  140.1080 C   0  0  0  0  0  0  0  0  0  0  0  0
  180.7880  175.0230  138.5560 C   0  0  0  0  0  3  0  0  0  0  0  0
  179.7800  178.7940  141.6280 C   0  0  0  0  0  2  0  0  0  0  0  0
  180.1930  180.6760  143.0400 O   0  0  0  0  0  1  0  0  0  0  0  0
  179.7850  181.1640  140.8390 O   0  0  0  0  0  0  0  0  0  0  0  0
  179.9310  180.2600  141.8810 C   0  0  0  0  0  0  0  0  0  0  0  0
  1  6  1  0  0  0  0
  1  4  2  0  0  0  0
  2  9  1  1  0  0  0
  3  2  1  0  0  0  0
  4  5  1  0  0  0  0
  5  2  1  0  0  0  0
  6  3  2  0  0  0  0
  8 14  1  0  0  0  0
  9  8  2  0  0  0  0
  9 12  1  0  0  0  0
 10  8  1  0  0  0  0
 12 13  2  0  0  0  0
 13  7  1  0  0  0  0
 14 11  1  0  0  0  0
 14  7  1  0  0  0  0
 15 16  1  0  0  0  0
 16  1  1  0  0  0  0
 17  4  1  0  0  0  0
 17 24  1  1  0  0  0
 18 20  1  0  0  0  0
 20 19  2  0  0  0  0
 21 22  2  0  0  0  0
 22 17  1  0  0  0  0
 22 19  1  0  0  0  0
 23 21  1  0  0  0  0
 23 18  2  0  0  0  0
 24 27  1  0  0  0  0
 26 27  2  0  0  0  0
 27 25  1  0  0  0  0
M  END
>  <MODEL>
6

>  <REMARK>
 VINA RESULT:      -7.5      4.035      8.052
  Name = 
  6 active torsions:
  status: ('A' for Active; 'I' for Inactive)
    1  A    between atoms: C_5  and  O_23
    2  A    between atoms: C_7  and  C_8
    3  A    between atoms: C_11  and  C_14
    4  A    between atoms: C_11  and  C_15
    5  A    between atoms: C_11  and  C_20
    6  A    between atoms: C_14  and  C_27
                            x       y       z     vdW  Elec       q    Type
                         _______ _______ _______ _____ _____    ______ ____

>  <TORSDO>
F 6

$$$$
=
 OpenBabel10222420183D

 27 29  0  0  1  0  0  0  0  0999 V2000
  185.9000  178.5360  145.6690 C   0  0  0  0  0  0  0  0  0  0  0  0
  184.9300  177.9940  143.0380 C   0  0  2  0  0  3  0  0  0  0  0  0
  184.1990  178.9350  143.9530 C   0  0  0  0  0  3  0  0  0  0  0  0
  186.6850  177.8980  144.7900 C   0  0  0  0  0  0  0  0  0  0  0  0
  186.2860  177.7950  143.4490 O   0  0  0  0  0  0  0  0  0  0  0  0
  184.6410  179.1480  145.1930 C   0  0  0  0  0  3  0  0  0  0  0  0
  184.9300  179.3050  138.9660 N   0  0  0  0  0  2  0  0  0  0  0  0
  183.7030  178.7420  141.0140 C   0  0  0  0  0  0  0  0  0  0  0  0
  184.8740  178.4590  141.6130 C   0  0  0  0  0  0  0  0  0  0  0  0
  182.4060  178.6010  141.7520 C   0  0  0  0  0  1  0  0  0  0  0  0
  182.4760  179.5020  138.9420 C   0  0  0  0  0  1  0  0  0  0  0  0
  186.1350  178.6060  140.8570 C   0  0  0  0  0  3  0  0  0  0  0  0
  186.1340  179.0030  139.6220 N   0  0  0  0  0  0  0  0  0  0  0  0
  183.7080  179.1820  139.6450 N   0  0  0  0  0  0  0  0  0  0  0  0
  186.0560  179.8180  147.7770 C   0  0  0  0  0  1  0  0  0  0  0  0
  186.2940  178.6480  147.0080 O   0  0  0  0  0  0  0  0  0  0  0  0
  188.0100  177.3300  145.2170 C   0  0  1  0  0  3  0  0  0  0  0  0
  190.9910  177.3230  142.1120 C   0  0  0  0  0  3  0  0  0  0  0  0
  188.9890  176.3690  143.0840 C   0  0  0  0  0  3  0  0  0  0  0  0
  189.9620  176.3780  142.0800 C   0  0  0  0  0  3  0  0  0  0  0  0
  190.0750  178.2510  144.1530 C   0  0  0  0  0  3  0  0  0  0  0  0
  189.0430  177.3060  144.1280 C   0  0  0  0  0  0  0  0  0  0  0  0
  191.0460  178.2610  143.1480 C   0  0  0  0  0  3  0  0  0  0  0  0
  188.5200  177.8760  146.5550 C   0  0  0  0  0  2  0  0  0  0  0  0
  188.3080  176.3310  148.3640 O   0  0  0  0  0  1  0  0  0  0  0  0
  190.3570  176.3770  147.3400 O   0  0  0  0  0  0  0  0  0  0  0  0
  189.0490  176.8210  147.4720 C   0  0  0  0  0  0  0  0  0  0  0  0
  1 16  1  0  0  0  0
  2  9  1  6  0  0  0
  2  5  1  0  0  0  0
  2  3  1  0  0  0  0
  3  6  2  0  0  0  0
  4 17  1  0  0  0  0
  4  1  2  0  0  0  0
  5  4  1  0  0  0  0
  6  1  1  0  0  0  0
  7 13  1  0  0  0  0
  7 14  1  0  0  0  0
  8  9  2  0  0  0  0
  8 10  1  0  0  0  0
 11 14  1  0  0  0  0
 12  9  1  0  0  0  0
 13 12  2  0  0  0  0
 14  8  1  0  0  0  0
 16 15  1  0  0  0  0
 17 24  1  1  0  0  0
 18 23  1  0  0  0  0
 19 22  2  0  0  0  0
 20 18  2  0  0  0  0
 20 19  1  0  0  0  0
 22 21  1  0  0  0  0
 22 17  1  0  0  0  0
 23 21  2  0  0  0  0
 24 27  1  0  0  0  0
 26 27  2  0  0  0  0
 27 25  1  0  0  0  0
M  END
>  <MODEL>
7

>  <REMARK>
 VINA RESULT:      -7.3      2.282      4.476
  Name = 
  6 active torsions:
  status: ('A' for Active; 'I' for Inactive)
    1  A    between atoms: C_5  and  O_23
    2  A    between atoms: C_7  and  C_8
    3  A    between atoms: C_11  and  C_14
    4  A    between atoms: C_11  and  C_15
    5  A    between atoms: C_11  and  C_20
    6  A    between atoms: C_14  and  C_27
                            x       y       z     vdW  Elec       q    Type
                         _______ _______ _______ _____ _____    ______ ____

>  <TORSDO>
F 6

$$$$
=
 OpenBabel10222420183D

 27 29  0  0  1  0  0  0  0  0999 V2000
  182.3540  178.9510  143.2260 C   0  0  0  0  0  0  0  0  0  0  0  0
  185.2020  178.9300  143.0100 C   0  0  2  0  0  3  0  0  0  0  0  0
  184.5290  179.1600  144.3340 C   0  0  0  0  0  3  0  0  0  0  0  0
  182.9330  178.5030  142.1020 C   0  0  0  0  0  0  0  0  0  0  0  0
  184.3230  178.3190  142.0620 O   0  0  0  0  0  0  0  0  0  0  0  0
  183.1980  179.2070  144.4130 C   0  0  0  0  0  3  0  0  0  0  0  0
  188.7300  176.5840  143.6040 N   0  0  0  0  0  2  0  0  0  0  0  0
  187.3390  177.9970  142.1600 C   0  0  0  0  0  0  0  0  0  0  0  0
  186.4560  178.1210  143.1660 C   0  0  0  0  0  0  0  0  0  0  0  0
  187.1020  178.6660  140.8390 C   0  0  0  0  0  1  0  0  0  0  0  0
  189.5160  177.0340  141.3150 C   0  0  0  0  0  1  0  0  0  0  0  0
  186.7170  177.4480  144.4550 C   0  0  0  0  0  3  0  0  0  0  0  0
  187.7870  176.7350  144.6340 N   0  0  0  0  0  0  0  0  0  0  0  0
  188.5230  177.2060  142.3640 N   0  0  0  0  0  0  0  0  0  0  0  0
  180.1150  178.2860  144.0340 C   0  0  0  0  0  1  0  0  0  0  0  0
  180.9670  179.1330  143.2760 O   0  0  0  0  0  0  0  0  0  0  0  0
  182.1010  178.1560  140.8990 C   0  0  1  0  0  3  0  0  0  0  0  0
  180.9690  181.5790  138.5460 C   0  0  0  0  0  3  0  0  0  0  0  0
  180.4010  179.9040  140.2000 C   0  0  0  0  0  3  0  0  0  0  0  0
  180.0460  181.0170  139.4320 C   0  0  0  0  0  3  0  0  0  0  0  0
  182.6050  179.9140  139.1960 C   0  0  0  0  0  3  0  0  0  0  0  0
  181.6830  179.3450  140.0820 C   0  0  0  0  0  0  0  0  0  0  0  0
  182.2490  181.0280  138.4290 C   0  0  0  0  0  3  0  0  0  0  0  0
  182.6550  176.9900  140.0730 C   0  0  0  0  0  2  0  0  0  0  0  0
  181.8430  175.2930  138.6030 O   0  0  0  0  0  0  0  0  0  0  0  0
  180.3620  176.0090  140.1980 O   0  0  0  0  0  1  0  0  0  0  0  0
  181.6030  176.0510  139.5790 C   0  0  0  0  0  0  0  0  0  0  0  0
  1 16  1  0  0  0  0
  1  6  1  0  0  0  0
  2  9  1  1  0  0  0
  2  3  1  0  0  0  0
  3  6  2  0  0  0  0
  4  1  2  0  0  0  0
  5  4  1  0  0  0  0
  5  2  1  0  0  0  0
  7 13  1  0  0  0  0
  8 14  1  0  0  0  0
  8  9  2  0  0  0  0
  9 12  1  0  0  0  0
 10  8  1  0  0  0  0
 11 14  1  0  0  0  0
 12 13  2  0  0  0  0
 14  7  1  0  0  0  0
 16 15  1  0  0  0  0
 17 24  1  6  0  0  0
 17  4  1  0  0  0  0
 18 20  1  0  0  0  0
 20 19  2  0  0  0  0
 21 22  2  0  0  0  0
 22 19  1  0  0  0  0
 22 17  1  0  0  0  0
 23 18  2  0  0  0  0
 23 21  1  0  0  0  0
 25 27  2  0  0  0  0
 27 24  1  0  0  0  0
 27 26  1  0  0  0  0
M  END
>  <MODEL>
8

>  <REMARK>
 VINA RESULT:      -7.2      3.815      7.972
  Name = 
  6 active torsions:
  status: ('A' for Active; 'I' for Inactive)
    1  A    between atoms: C_5  and  O_23
    2  A    between atoms: C_7  and  C_8
    3  A    between atoms: C_11  and  C_14
    4  A    between atoms: C_11  and  C_15
    5  A    between atoms: C_11  and  C_20
    6  A    between atoms: C_14  and  C_27
                            x       y       z     vdW  Elec       q    Type
                         _______ _______ _______ _____ _____    ______ ____

>  <TORSDO>
F 6

$$$$
=
 OpenBabel10222420183D

 27 29  0  0  1  0  0  0  0  0999 V2000
  185.8240  178.3380  145.2810 C   0  0  0  0  0  0  0  0  0  0  0  0
  184.4130  178.0490  142.8150 C   0  0  2  0  0  3  0  0  0  0  0  0
  183.8040  178.7900  143.9710 C   0  0  0  0  0  3  0  0  0  0  0  0
  186.4710  177.8970  144.1930 C   0  0  0  0  0  0  0  0  0  0  0  0
  185.8320  177.9290  142.9440 O   0  0  0  0  0  0  0  0  0  0  0  0
  184.4570  178.8840  145.1300 C   0  0  0  0  0  3  0  0  0  0  0  0
  183.5480  179.8800  139.0460 N   0  0  0  0  0  2  0  0  0  0  0  0
  182.7720  178.8360  141.1260 C   0  0  0  0  0  0  0  0  0  0  0  0
  184.0540  178.6860  141.5050 C   0  0  0  0  0  0  0  0  0  0  0  0
  181.6500  178.3700  142.0040 C   0  0  0  0  0  1  0  0  0  0  0  0
  181.1220  179.6430  139.3930 C   0  0  0  0  0  1  0  0  0  0  0  0
  185.1380  179.1540  140.6160 C   0  0  0  0  0  3  0  0  0  0  0  0
  184.8750  179.7080  139.4720 N   0  0  0  0  0  0  0  0  0  0  0  0
  182.4870  179.4520  139.8580 N   0  0  0  0  0  0  0  0  0  0  0  0
  186.0540  179.1540  147.6030 C   0  0  0  0  0  1  0  0  0  0  0  0
  186.4560  178.3150  146.5300 O   0  0  0  0  0  0  0  0  0  0  0  0
  187.8890  177.4080  144.2910 C   0  0  1  0  0  3  0  0  0  0  0  0
  189.9750  177.1420  140.5350 C   0  0  0  0  0  3  0  0  0  0  0  0
  188.3430  178.2480  141.9400 C   0  0  0  0  0  3  0  0  0  0  0  0
  189.0290  178.1520  140.7260 C   0  0  0  0  0  3  0  0  0  0  0  0
  189.5510  176.3210  142.7740 C   0  0  0  0  0  3  0  0  0  0  0  0
  188.6000  177.3290  142.9710 C   0  0  0  0  0  0  0  0  0  0  0  0
  190.2370  176.2270  141.5590 C   0  0  0  0  0  3  0  0  0  0  0  0
  188.7030  178.0760  145.4040 C   0  0  0  0  0  2  0  0  0  0  0  0
  190.7100  176.8540  145.8340 O   0  0  0  0  0  0  0  0  0  0  0  0
  189.0130  176.5260  147.3380 O   0  0  0  0  0  1  0  0  0  0  0  0
  189.5340  177.1200  146.1970 C   0  0  0  0  0  0  0  0  0  0  0  0
  1 16  1  0  0  0  0
  2  9  1  6  0  0  0
  2  5  1  0  0  0  0
  2  3  1  0  0  0  0
  3  6  2  0  0  0  0
  4 17  1  0  0  0  0
  4  1  2  0  0  0  0
  5  4  1  0  0  0  0
  6  1  1  0  0  0  0
  7 13  1  0  0  0  0
  7 14  1  0  0  0  0
  8  9  2  0  0  0  0
  8 10  1  0  0  0  0
 11 14  1  0  0  0  0
 12  9  1  0  0  0  0
 13 12  2  0  0  0  0
 14  8  1  0  0  0  0
 16 15  1  0  0  0  0
 17 24  1  1  0  0  0
 18 20  2  0  0  0  0
 18 23  1  0  0  0  0
 19 22  2  0  0  0  0
 20 19  1  0  0  0  0
 21 22  1  0  0  0  0
 22 17  1  0  0  0  0
 23 21  2  0  0  0  0
 24 27  1  0  0  0  0
 25 27  2  0  0  0  0
 27 26  1  0  0  0  0
M  END
>  <MODEL>
9

>  <REMARK>
 VINA RESULT:      -7.2      1.999      4.392
  Name = 
  6 active torsions:
  status: ('A' for Active; 'I' for Inactive)
    1  A    between atoms: C_5  and  O_23
    2  A    between atoms: C_7  and  C_8
    3  A    between atoms: C_11  and  C_14
    4  A    between atoms: C_11  and  C_15
    5  A    between atoms: C_11  and  C_20
    6  A    between atoms: C_14  and  C_27
                            x       y       z     vdW  Elec       q    Type
                         _______ _______ _______ _____ _____    ______ ____

>  <TORSDO>
F 6

$$$$
