=
 OpenBabel10222416573D

 28 31  0  0  1  0  0  0  0  0999 V2000
  184.3230  178.2700  138.3940 N   0  0  0  0  0  0  0  0  0  0  0  0
  183.5910  178.8620  139.5570 C   0  0  1  0  0  3  0  0  0  0  0  0
  182.9220  177.9160  138.7800 C   0  0  2  0  0  3  0  0  0  0  0  0
  181.1310  175.1790  138.9670 C   0  0  0  0  0  0  0  0  0  0  0  0
  181.5380  176.1350  139.7280 N   0  0  0  0  0  0  0  0  0  0  0  0
  182.0620  174.7720  137.9820 N   0  0  0  0  0  0  0  0  0  0  0  0
  182.8850  176.4730  139.2920 C   0  0  1  0  0  3  0  0  0  0  0  0
  183.0990  175.5220  138.1560 C   0  0  0  0  0  3  0  0  0  0  0  0
  179.8430  174.5900  139.1010 N   0  0  0  0  0  1  0  0  0  0  0  0
  185.1830  179.0530  141.4130 C   0  0  0  0  0  3  0  0  0  0  0  0
  184.2040  178.3720  140.8320 C   0  0  0  0  0  3  0  0  0  0  0  0
  185.8110  178.6280  142.6310 N   0  0  0  0  0  0  0  0  0  0  0  0
  188.4650  176.9030  145.8590 N   0  0  0  0  0  0  0  0  0  0  0  0
  185.4080  178.8170  143.9180 C   0  0  0  0  0  0  0  0  0  0  0  0
  185.3880  178.7090  147.0710 C   0  0  0  0  0  1  0  0  0  0  0  0
  186.4120  178.1300  146.1590 C   0  0  0  0  0  0  0  0  0  0  0  0
  187.2920  177.6780  143.9600 C   0  0  0  0  0  0  0  0  0  0  0  0
  188.3800  177.0030  144.5010 C   0  0  0  0  0  3  0  0  0  0  0  0
  186.3300  178.2300  144.7660 C   0  0  0  0  0  0  0  0  0  0  0  0
  186.9680  177.9260  142.6440 C   0  0  0  0  0  3  0  0  0  0  0  0
  187.5180  177.4430  146.6890 C   0  0  0  0  0  3  0  0  0  0  0  0
  184.1950  179.5840  144.3450 C   0  0  0  0  0  2  0  0  0  0  0  0
  182.9750  178.6840  144.3170 C   0  0  0  0  0  1  0  0  0  0  0  0
  186.5660  178.6260  137.9630 N   0  0  0  0  0  0  0  0  0  0  0  0
  185.4600  178.1260  137.5920 N   0  0  0  0  0  0  0  0  0  0  0  0
  188.7770  179.4050  137.2670 O   0  0  0  0  0  1  0  0  0  0  0  0
  187.7370  178.4880  137.1610 C   0  0  0  0  0  0  0  0  0  0  0  0
  187.8300  177.5290  136.3530 O   0  0  0  0  0  0  0  0  0  0  0  0
  1  2  1  0  0  0  0
  2 11  1  1  0  0  0
  3  1  1  6  0  0  0
  3  7  1  0  0  0  0
  3  2  1  0  0  0  0
  4  9  1  0  0  0  0
  4  5  2  0  0  0  0
  6  8  2  0  0  0  0
  6  4  1  0  0  0  0
  7  8  1  6  0  0  0
  7  5  1  0  0  0  0
 10 12  1  0  0  0  0
 11 10  2  0  0  0  0
 12 20  1  0  0  0  0
 12 14  1  0  0  0  0
 13 21  1  0  0  0  0
 14 22  1  0  0  0  0
 14 19  2  0  0  0  0
 16 21  2  0  0  0  0
 16 15  1  0  0  0  0
 17 18  1  0  0  0  0
 17 19  1  0  0  0  0
 18 13  2  0  0  0  0
 19 16  1  0  0  0  0
 20 17  2  0  0  0  0
 23 22  1  0  0  0  0
 25 24  2  0  0  0  0
 25  1  1  0  0  0  0
 27 26  1  0  0  0  0
 27 24  1  0  0  0  0
 28 27  2  0  0  0  0
M  END
>  <MODEL>
1

>  <REMARK>
 VINA RESULT:      -7.6      0.000      0.000
  Name = 
  6 active torsions:
  status: ('A' for Active; 'I' for Inactive)
    1  A    between atoms: C_1  and  C_9
    2  A    between atoms: N_4  and  C_8
    3  A    between atoms: C_12  and  C_28
    4  A    between atoms: C_13  and  N_15
    5  A    between atoms: N_16  and  N_17
    6  A    between atoms: C_20  and  C_23
                            x       y       z     vdW  Elec       q    Type
                         _______ _______ _______ _____ _____    ______ ____

>  <TORSDO>
F 6

$$$$
=
 OpenBabel10222416573D

 28 31  0  0  1  0  0  0  0  0999 V2000
  190.9880  176.1000  138.3750 N   0  0  0  0  0  0  0  0  0  0  0  0
  191.1450  177.3220  139.2230 C   0  0  1  0  0  3  0  0  0  0  0  0
  190.0920  177.2960  138.3090 C   0  0  2  0  0  3  0  0  0  0  0  0
  186.8960  178.0050  138.1910 C   0  0  0  0  0  0  0  0  0  0  0  0
  187.8930  178.1190  138.9970 N   0  0  0  0  0  0  0  0  0  0  0  0
  186.8920  176.8160  137.4220 N   0  0  0  0  0  0  0  0  0  0  0  0
  188.7030  176.9210  138.8340 C   0  0  1  0  0  3  0  0  0  0  0  0
  187.9460  176.1670  137.7850 C   0  0  0  0  0  3  0  0  0  0  0  0
  185.8870  179.0020  138.0770 N   0  0  0  0  0  1  0  0  0  0  0  0
  191.1650  177.8020  141.6290 C   0  0  0  0  0  3  0  0  0  0  0  0
  190.8100  176.9880  140.6440 C   0  0  0  0  0  3  0  0  0  0  0  0
  190.8750  177.5300  143.0080 N   0  0  0  0  0  0  0  0  0  0  0  0
  190.9060  176.3730  147.3780 N   0  0  0  0  0  0  0  0  0  0  0  0
  189.7100  177.7000  143.6920 C   0  0  0  0  0  0  0  0  0  0  0  0
  187.6350  177.7100  146.0690 C   0  0  0  0  0  1  0  0  0  0  0  0
  189.0570  177.2680  146.1190 C   0  0  0  0  0  0  0  0  0  0  0  0
  191.2010  176.8790  145.0890 C   0  0  0  0  0  0  0  0  0  0  0  0
  191.7250  176.4070  146.2870 C   0  0  0  0  0  3  0  0  0  0  0  0
  189.9000  177.3000  145.0030 C   0  0  0  0  0  0  0  0  0  0  0  0
  191.7990  177.0220  143.8560 C   0  0  0  0  0  3  0  0  0  0  0  0
  189.6020  176.7870  147.3220 C   0  0  0  0  0  3  0  0  0  0  0  0
  188.4490  178.2800  143.1310 C   0  0  0  0  0  2  0  0  0  0  0  0
  187.5800  177.1760  142.5600 C   0  0  0  0  0  1  0  0  0  0  0  0
  191.8300  174.6150  136.8170 N   0  0  0  0  0  0  0  0  0  0  0  0
  191.3630  174.8120  137.9810 N   0  0  0  0  0  0  0  0  0  0  0  0
  193.4830  172.8160  136.7090 O   0  0  0  0  0  1  0  0  0  0  0  0
  192.2210  173.3090  136.3970 C   0  0  0  0  0  0  0  0  0  0  0  0
  191.4180  172.5990  135.7400 O   0  0  0  0  0  0  0  0  0  0  0  0
  1  2  1  0  0  0  0
  2 11  1  1  0  0  0
  3  1  1  6  0  0  0
  3  7  1  0  0  0  0
  3  2  1  0  0  0  0
  4  5  2  0  0  0  0
  6  8  2  0  0  0  0
  6  4  1  0  0  0  0
  7  8  1  6  0  0  0
  7  5  1  0  0  0  0
  9  4  1  0  0  0  0
 10 12  1  0  0  0  0
 11 10  2  0  0  0  0
 12 14  1  0  0  0  0
 12 20  1  0  0  0  0
 14 19  2  0  0  0  0
 15 16  1  0  0  0  0
 16 21  2  0  0  0  0
 17 18  1  0  0  0  0
 18 13  2  0  0  0  0
 19 17  1  0  0  0  0
 19 16  1  0  0  0  0
 20 17  2  0  0  0  0
 21 13  1  0  0  0  0
 22 14  1  0  0  0  0
 23 22  1  0  0  0  0
 24 25  2  0  0  0  0
 25  1  1  0  0  0  0
 27 26  1  0  0  0  0
 27 24  1  0  0  0  0
 28 27  2  0  0  0  0
M  END
>  <MODEL>
2

>  <REMARK>
 VINA RESULT:      -7.5      4.008      5.701
  Name = 
  6 active torsions:
  status: ('A' for Active; 'I' for Inactive)
    1  A    between atoms: C_1  and  C_9
    2  A    between atoms: N_4  and  C_8
    3  A    between atoms: C_12  and  C_28
    4  A    between atoms: C_13  and  N_15
    5  A    between atoms: N_16  and  N_17
    6  A    between atoms: C_20  and  C_23
                            x       y       z     vdW  Elec       q    Type
                         _______ _______ _______ _____ _____    ______ ____

>  <TORSDO>
F 6

$$$$
=
 OpenBabel10222416573D

 28 31  0  0  1  0  0  0  0  0999 V2000
  189.8420  177.2470  138.2640 N   0  0  0  0  0  0  0  0  0  0  0  0
  189.1690  178.5080  138.7040 C   0  0  1  0  0  3  0  0  0  0  0  0
  188.6060  177.8090  137.6360 C   0  0  2  0  0  3  0  0  0  0  0  0
  185.6980  176.7430  136.5680 C   0  0  0  0  0  0  0  0  0  0  0  0
  186.1830  177.5070  137.4840 N   0  0  0  0  0  0  0  0  0  0  0  0
  186.4770  175.5950  136.2840 N   0  0  0  0  0  0  0  0  0  0  0  0
  187.4200  176.8870  137.9360 C   0  0  1  0  0  3  0  0  0  0  0  0
  187.4930  175.6630  137.0770 C   0  0  0  0  0  3  0  0  0  0  0  0
  184.4820  177.0380  135.8910 N   0  0  0  0  0  1  0  0  0  0  0  0
  189.3020  178.2260  141.1370 C   0  0  0  0  0  3  0  0  0  0  0  0
  188.5460  178.2960  140.0490 C   0  0  0  0  0  3  0  0  0  0  0  0
  188.7610  178.0190  142.4500 N   0  0  0  0  0  0  0  0  0  0  0  0
  186.1850  177.4650  146.1230 N   0  0  0  0  0  0  0  0  0  0  0  0
  189.4130  177.8150  143.6270 C   0  0  0  0  0  0  0  0  0  0  0  0
  189.9050  177.2940  146.7000 C   0  0  0  0  0  1  0  0  0  0  0  0
  188.5920  177.4320  146.0100 C   0  0  0  0  0  0  0  0  0  0  0  0
  187.2510  177.7930  144.0400 C   0  0  0  0  0  0  0  0  0  0  0  0
  186.0790  177.6930  144.7820 C   0  0  0  0  0  3  0  0  0  0  0  0
  188.4780  177.6660  144.6360 C   0  0  0  0  0  0  0  0  0  0  0  0
  187.4290  178.0110  142.6910 C   0  0  0  0  0  3  0  0  0  0  0  0
  187.3980  177.3350  146.7460 C   0  0  0  0  0  3  0  0  0  0  0  0
  190.8980  177.7100  143.7910 C   0  0  0  0  0  2  0  0  0  0  0  0
  191.4980  179.0920  143.9700 C   0  0  0  0  0  1  0  0  0  0  0  0
  191.9230  176.3910  137.7360 N   0  0  0  0  0  0  0  0  0  0  0  0
  190.8370  176.2700  138.3810 N   0  0  0  0  0  0  0  0  0  0  0  0
  194.2450  175.7750  138.1950 O   0  0  0  0  0  1  0  0  0  0  0  0
  192.9510  175.4070  137.8440 C   0  0  0  0  0  0  0  0  0  0  0  0
  192.6840  174.1990  137.6190 O   0  0  0  0  0  0  0  0  0  0  0  0
  1 25  1  0  0  0  0
  1  2  1  0  0  0  0
  2 11  1  1  0  0  0
  3  7  1  0  0  0  0
  3  1  1  1  0  0  0
  3  2  1  0  0  0  0
  4  5  2  0  0  0  0
  5  7  1  0  0  0  0
  6  4  1  0  0  0  0
  6  8  2  0  0  0  0
  7  8  1  6  0  0  0
  9  4  1  0  0  0  0
 10 12  1  0  0  0  0
 11 10  2  0  0  0  0
 12 20  1  0  0  0  0
 12 14  1  0  0  0  0
 13 21  1  0  0  0  0
 14 22  1  0  0  0  0
 14 19  2  0  0  0  0
 16 15  1  0  0  0  0
 16 21  2  0  0  0  0
 17 19  1  0  0  0  0
 17 18  1  0  0  0  0
 18 13  2  0  0  0  0
 19 16  1  0  0  0  0
 20 17  2  0  0  0  0
 22 23  1  0  0  0  0
 24 27  1  0  0  0  0
 24 25  2  0  0  0  0
 27 26  1  0  0  0  0
 28 27  2  0  0  0  0
M  END
>  <MODEL>
3

>  <REMARK>
 VINA RESULT:      -7.3      3.371      4.900
  Name = 
  6 active torsions:
  status: ('A' for Active; 'I' for Inactive)
    1  A    between atoms: C_1  and  C_9
    2  A    between atoms: N_4  and  C_8
    3  A    between atoms: C_12  and  C_28
    4  A    between atoms: C_13  and  N_15
    5  A    between atoms: N_16  and  N_17
    6  A    between atoms: C_20  and  C_23
                            x       y       z     vdW  Elec       q    Type
                         _______ _______ _______ _____ _____    ______ ____

>  <TORSDO>
F 6

$$$$
=
 OpenBabel10222416573D

 28 31  0  0  1  0  0  0  0  0999 V2000
  184.6610  177.9150  137.9050 N   0  0  0  0  0  0  0  0  0  0  0  0
  183.5640  178.5660  138.6860 C   0  0  1  0  0  3  0  0  0  0  0  0
  183.2360  177.4630  137.8980 C   0  0  2  0  0  3  0  0  0  0  0  0
  181.5700  174.6460  138.0400 C   0  0  0  0  0  0  0  0  0  0  0  0
  181.7330  175.7210  138.7300 N   0  0  0  0  0  0  0  0  0  0  0  0
  182.7350  174.1860  137.3810 N   0  0  0  0  0  0  0  0  0  0  0  0
  183.1310  176.1000  138.5900 C   0  0  1  0  0  3  0  0  0  0  0  0
  183.6630  175.0280  137.6910 C   0  0  0  0  0  3  0  0  0  0  0  0
  180.3150  173.9830  137.9430 N   0  0  0  0  0  1  0  0  0  0  0  0
  184.7210  178.9560  140.8130 C   0  0  0  0  0  3  0  0  0  0  0  0
  183.7730  178.3110  140.1460 C   0  0  0  0  0  3  0  0  0  0  0  0
  184.9690  178.7480  142.2110 N   0  0  0  0  0  0  0  0  0  0  0  0
  184.8490  178.4810  146.7230 N   0  0  0  0  0  0  0  0  0  0  0  0
  186.0710  178.2280  142.8210 C   0  0  0  0  0  0  0  0  0  0  0  0
  188.0070  177.2210  145.0990 C   0  0  0  0  0  1  0  0  0  0  0  0
  186.6450  177.7990  145.2680 C   0  0  0  0  0  0  0  0  0  0  0  0
  184.6140  178.7540  144.3870 C   0  0  0  0  0  0  0  0  0  0  0  0
  184.0880  178.8910  145.6660 C   0  0  0  0  0  3  0  0  0  0  0  0
  185.8610  178.2210  144.1890 C   0  0  0  0  0  0  0  0  0  0  0  0
  184.0670  179.0770  143.1650 C   0  0  0  0  0  3  0  0  0  0  0  0
  186.0990  177.9460  146.5550 C   0  0  0  0  0  3  0  0  0  0  0  0
  187.2840  177.6990  142.1210 C   0  0  0  0  0  2  0  0  0  0  0  0
  188.1190  178.8490  141.5920 C   0  0  0  0  0  1  0  0  0  0  0  0
  186.8950  178.4750  138.1080 N   0  0  0  0  0  0  0  0  0  0  0  0
  186.0000  177.7950  137.5180 N   0  0  0  0  0  0  0  0  0  0  0  0
  188.8710  177.1180  137.6240 O   0  0  0  0  0  1  0  0  0  0  0  0
  188.2660  178.3650  137.7300 C   0  0  0  0  0  0  0  0  0  0  0  0
  188.9320  179.4050  137.4900 O   0  0  0  0  0  0  0  0  0  0  0  0
  1  2  1  0  0  0  0
  2 11  1  1  0  0  0
  3  1  1  6  0  0  0
  3  7  1  0  0  0  0
  3  2  1  0  0  0  0
  4  5  2  0  0  0  0
  6  8  2  0  0  0  0
  6  4  1  0  0  0  0
  7  8  1  6  0  0  0
  7  5  1  0  0  0  0
  9  4  1  0  0  0  0
 10 12  1  0  0  0  0
 11 10  2  0  0  0  0
 12 14  1  0  0  0  0
 12 20  1  0  0  0  0
 14 19  2  0  0  0  0
 15 16  1  0  0  0  0
 16 21  2  0  0  0  0
 17 18  1  0  0  0  0
 18 13  2  0  0  0  0
 19 17  1  0  0  0  0
 19 16  1  0  0  0  0
 20 17  2  0  0  0  0
 21 13  1  0  0  0  0
 22 14  1  0  0  0  0
 23 22  1  0  0  0  0
 25  1  1  0  0  0  0
 25 24  2  0  0  0  0
 26 27  1  0  0  0  0
 27 24  1  0  0  0  0
 28 27  2  0  0  0  0
M  END
>  <MODEL>
4

>  <REMARK>
 VINA RESULT:      -7.3      1.243      2.338
  Name = 
  6 active torsions:
  status: ('A' for Active; 'I' for Inactive)
    1  A    between atoms: C_1  and  C_9
    2  A    between atoms: N_4  and  C_8
    3  A    between atoms: C_12  and  C_28
    4  A    between atoms: C_13  and  N_15
    5  A    between atoms: N_16  and  N_17
    6  A    between atoms: C_20  and  C_23
                            x       y       z     vdW  Elec       q    Type
                         _______ _______ _______ _____ _____    ______ ____

>  <TORSDO>
F 6

$$$$
=
 OpenBabel10222416573D

 28 31  0  0  1  0  0  0  0  0999 V2000
  189.2220  177.2100  138.7430 N   0  0  0  0  0  0  0  0  0  0  0  0
  189.1310  178.4680  139.5470 C   0  0  1  0  0  3  0  0  0  0  0  0
  188.1950  178.2770  138.5300 C   0  0  2  0  0  3  0  0  0  0  0  0
  185.0100  178.9970  138.7950 C   0  0  0  0  0  0  0  0  0  0  0  0
  186.0330  178.7970  139.5510 N   0  0  0  0  0  0  0  0  0  0  0  0
  184.9620  178.1800  137.6400 N   0  0  0  0  0  0  0  0  0  0  0  0
  186.8150  177.7410  138.9260 C   0  0  1  0  0  3  0  0  0  0  0  0
  186.0150  177.4360  137.6980 C   0  0  0  0  0  3  0  0  0  0  0  0
  184.0170  179.9700  139.0940 N   0  0  0  0  0  1  0  0  0  0  0  0
  189.5050  178.3300  141.9670 C   0  0  0  0  0  3  0  0  0  0  0  0
  188.6890  178.1380  140.9390 C   0  0  0  0  0  3  0  0  0  0  0  0
  189.1360  178.0260  143.3210 N   0  0  0  0  0  0  0  0  0  0  0  0
  187.0630  177.2910  147.2700 N   0  0  0  0  0  0  0  0  0  0  0  0
  189.9250  177.6390  144.3610 C   0  0  0  0  0  0  0  0  0  0  0  0
  190.7920  176.7460  147.2600 C   0  0  0  0  0  1  0  0  0  0  0  0
  189.4150  177.0680  146.7930 C   0  0  0  0  0  0  0  0  0  0  0  0
  187.8510  177.7540  145.0910 C   0  0  0  0  0  0  0  0  0  0  0  0
  186.7920  177.6720  145.9880 C   0  0  0  0  0  3  0  0  0  0  0  0
  189.1320  177.4600  145.4800 C   0  0  0  0  0  0  0  0  0  0  0  0
  187.8580  178.1030  143.7590 C   0  0  0  0  0  3  0  0  0  0  0  0
  188.3340  176.9920  147.6880 C   0  0  0  0  0  3  0  0  0  0  0  0
  191.4010  177.3940  144.2890 C   0  0  0  0  0  2  0  0  0  0  0  0
  191.6720  176.0690  143.6020 C   0  0  0  0  0  1  0  0  0  0  0  0
  189.3040  175.2440  137.5310 N   0  0  0  0  0  0  0  0  0  0  0  0
  189.7970  175.9700  138.4480 N   0  0  0  0  0  0  0  0  0  0  0  0
  191.2260  173.7340  137.4450 O   0  0  0  0  0  1  0  0  0  0  0  0
  189.8770  173.9760  137.2130 C   0  0  0  0  0  0  0  0  0  0  0  0
  189.1560  173.0720  136.7200 O   0  0  0  0  0  0  0  0  0  0  0  0
  1  2  1  0  0  0  0
  2 11  1  1  0  0  0
  3  1  1  6  0  0  0
  3  7  1  0  0  0  0
  3  2  1  0  0  0  0
  4  9  1  0  0  0  0
  4  5  2  0  0  0  0
  6  8  2  0  0  0  0
  6  4  1  0  0  0  0
  7  8  1  6  0  0  0
  7  5  1  0  0  0  0
 10 12  1  0  0  0  0
 11 10  2  0  0  0  0
 12 20  1  0  0  0  0
 12 14  1  0  0  0  0
 13 21  1  0  0  0  0
 14 19  2  0  0  0  0
 16 15  1  0  0  0  0
 16 21  2  0  0  0  0
 17 19  1  0  0  0  0
 17 18  1  0  0  0  0
 18 13  2  0  0  0  0
 19 16  1  0  0  0  0
 20 17  2  0  0  0  0
 22 14  1  0  0  0  0
 23 22  1  0  0  0  0
 24 25  2  0  0  0  0
 25  1  1  0  0  0  0
 27 26  1  0  0  0  0
 27 24  1  0  0  0  0
 28 27  2  0  0  0  0
M  END
>  <MODEL>
5

>  <REMARK>
 VINA RESULT:      -7.1      3.187      4.803
  Name = 
  6 active torsions:
  status: ('A' for Active; 'I' for Inactive)
    1  A    between atoms: C_1  and  C_9
    2  A    between atoms: N_4  and  C_8
    3  A    between atoms: C_12  and  C_28
    4  A    between atoms: C_13  and  N_15
    5  A    between atoms: N_16  and  N_17
    6  A    between atoms: C_20  and  C_23
                            x       y       z     vdW  Elec       q    Type
                         _______ _______ _______ _____ _____    ______ ____

>  <TORSDO>
F 6

$$$$
=
 OpenBabel10222416573D

 28 31  0  0  1  0  0  0  0  0999 V2000
  183.4910  177.7860  138.3900 N   0  0  0  0  0  0  0  0  0  0  0  0
  183.9730  178.9330  139.2200 C   0  0  1  0  0  3  0  0  0  0  0  0
  182.5970  178.7910  139.0450 C   0  0  2  0  0  3  0  0  0  0  0  0
  179.9020  178.9460  140.9010 C   0  0  0  0  0  0  0  0  0  0  0  0
  181.1730  179.1170  141.0080 N   0  0  0  0  0  0  0  0  0  0  0  0
  179.5190  177.8940  140.0350 N   0  0  0  0  0  0  0  0  0  0  0  0
  181.8040  178.1110  140.1660 C   0  0  1  0  0  3  0  0  0  0  0  0
  180.6230  177.3920  139.5920 C   0  0  0  0  0  3  0  0  0  0  0  0
  178.9600  179.7600  141.5910 N   0  0  0  0  0  1  0  0  0  0  0  0
  185.3680  179.1610  141.2250 C   0  0  0  0  0  3  0  0  0  0  0  0
  184.5450  178.4130  140.5020 C   0  0  0  0  0  3  0  0  0  0  0  0
  185.9490  178.7110  142.4580 N   0  0  0  0  0  0  0  0  0  0  0  0
  188.4950  176.9480  145.7520 N   0  0  0  0  0  0  0  0  0  0  0  0
  185.4810  178.8460  143.7300 C   0  0  0  0  0  0  0  0  0  0  0  0
  185.3150  178.6300  146.8730 C   0  0  0  0  0  1  0  0  0  0  0  0
  186.3970  178.1100  145.9920 C   0  0  0  0  0  0  0  0  0  0  0  0
  187.3910  177.7560  143.8250 C   0  0  0  0  0  0  0  0  0  0  0  0
  188.4710  177.0920  144.3950 C   0  0  0  0  0  3  0  0  0  0  0  0
  186.3780  178.2540  144.6010 C   0  0  0  0  0  0  0  0  0  0  0  0
  187.1240  178.0400  142.5040 C   0  0  0  0  0  3  0  0  0  0  0  0
  187.4960  177.4350  146.5530 C   0  0  0  0  0  3  0  0  0  0  0  0
  184.2280  179.5660  144.1230 C   0  0  0  0  0  2  0  0  0  0  0  0
  183.0330  178.6430  143.9810 C   0  0  0  0  0  1  0  0  0  0  0  0
  183.3570  175.5000  138.0760 N   0  0  0  0  0  0  0  0  0  0  0  0
  183.7080  176.6340  137.6270 N   0  0  0  0  0  0  0  0  0  0  0  0
  182.9560  174.1540  136.0740 O   0  0  0  0  0  0  0  0  0  0  0  0
  183.5670  174.3140  137.3120 C   0  0  0  0  0  0  0  0  0  0  0  0
  184.3120  173.4060  137.7620 O   0  0  0  0  0  1  0  0  0  0  0  0
  1  2  1  0  0  0  0
  2 11  1  1  0  0  0
  3  1  1  6  0  0  0
  3  2  1  0  0  0  0
  3  7  1  0  0  0  0
  4  5  2  0  0  0  0
  4  9  1  0  0  0  0
  6  4  1  0  0  0  0
  7  8  1  6  0  0  0
  7  5  1  0  0  0  0
  8  6  2  0  0  0  0
 10 12  1  0  0  0  0
 11 10  2  0  0  0  0
 12 20  1  0  0  0  0
 12 14  1  0  0  0  0
 13 21  1  0  0  0  0
 14 22  1  0  0  0  0
 14 19  2  0  0  0  0
 16 21  2  0  0  0  0
 16 15  1  0  0  0  0
 17 18  1  0  0  0  0
 17 19  1  0  0  0  0
 18 13  2  0  0  0  0
 19 16  1  0  0  0  0
 20 17  2  0  0  0  0
 23 22  1  0  0  0  0
 25 24  2  0  0  0  0
 25  1  1  0  0  0  0
 26 27  2  0  0  0  0
 27 28  1  0  0  0  0
 27 24  1  0  0  0  0
M  END
>  <MODEL>
6

>  <REMARK>
 VINA RESULT:      -6.9      2.369      3.035
  Name = 
  6 active torsions:
  status: ('A' for Active; 'I' for Inactive)
    1  A    between atoms: C_1  and  C_9
    2  A    between atoms: N_4  and  C_8
    3  A    between atoms: C_12  and  C_28
    4  A    between atoms: C_13  and  N_15
    5  A    between atoms: N_16  and  N_17
    6  A    between atoms: C_20  and  C_23
                            x       y       z     vdW  Elec       q    Type
                         _______ _______ _______ _____ _____    ______ ____

>  <TORSDO>
F 6

$$$$
=
 OpenBabel10222416573D

 28 31  0  0  1  0  0  0  0  0999 V2000
  187.6910  176.8300  137.4510 N   0  0  0  0  0  0  0  0  0  0  0  0
  188.2460  177.9770  138.2340 C   0  0  1  0  0  3  0  0  0  0  0  0
  186.9690  178.1170  137.6910 C   0  0  2  0  0  3  0  0  0  0  0  0
  184.0980  179.2900  138.7480 C   0  0  0  0  0  0  0  0  0  0  0  0
  185.3010  179.1230  139.1730 N   0  0  0  0  0  0  0  0  0  0  0  0
  183.6230  178.2590  137.9010 N   0  0  0  0  0  0  0  0  0  0  0  0
  185.7720  177.8640  138.6140 C   0  0  1  0  0  3  0  0  0  0  0  0
  184.5930  177.4130  137.8100 C   0  0  0  0  0  3  0  0  0  0  0  0
  183.3160  180.4270  139.0930 N   0  0  0  0  0  1  0  0  0  0  0  0
  188.4830  178.5320  140.6110 C   0  0  0  0  0  3  0  0  0  0  0  0
  188.3240  177.6000  139.6810 C   0  0  0  0  0  3  0  0  0  0  0  0
  188.5700  178.2280  142.0110 N   0  0  0  0  0  0  0  0  0  0  0  0
  189.8190  177.3010  146.2560 N   0  0  0  0  0  0  0  0  0  0  0  0
  187.5680  178.0300  142.9120 C   0  0  0  0  0  0  0  0  0  0  0  0
  186.1030  177.4400  145.6440 C   0  0  0  0  0  1  0  0  0  0  0  0
  187.5720  177.4930  145.4050 C   0  0  0  0  0  0  0  0  0  0  0  0
  189.4850  177.7940  143.9700 C   0  0  0  0  0  0  0  0  0  0  0  0
  190.3550  177.5640  145.0290 C   0  0  0  0  0  3  0  0  0  0  0  0
  188.1270  177.7610  144.1490 C   0  0  0  0  0  0  0  0  0  0  0  0
  189.7540  178.0830  142.6500 C   0  0  0  0  0  3  0  0  0  0  0  0
  188.4650  177.2600  146.4650 C   0  0  0  0  0  3  0  0  0  0  0  0
  186.1030  178.1430  142.6230 C   0  0  0  0  0  2  0  0  0  0  0  0
  185.6630  179.5900  142.7350 C   0  0  0  0  0  1  0  0  0  0  0  0
  186.8800  174.6770  137.2260 N   0  0  0  0  0  0  0  0  0  0  0  0
  187.7700  175.5330  136.9330 N   0  0  0  0  0  0  0  0  0  0  0  0
  187.9730  172.9730  135.8540 O   0  0  0  0  0  0  0  0  0  0  0  0
  186.9410  173.3500  136.7060 C   0  0  0  0  0  0  0  0  0  0  0  0
  186.0560  172.5150  137.0220 O   0  0  0  0  0  1  0  0  0  0  0  0
  1  2  1  0  0  0  0
  2 11  1  1  0  0  0
  3  1  1  6  0  0  0
  3  2  1  0  0  0  0
  3  7  1  0  0  0  0
  4  9  1  0  0  0  0
  4  5  2  0  0  0  0
  6  4  1  0  0  0  0
  7  8  1  6  0  0  0
  7  5  1  0  0  0  0
  8  6  2  0  0  0  0
 10 12  1  0  0  0  0
 11 10  2  0  0  0  0
 12 20  1  0  0  0  0
 12 14  1  0  0  0  0
 13 21  1  0  0  0  0
 14 19  2  0  0  0  0
 16 15  1  0  0  0  0
 16 21  2  0  0  0  0
 17 19  1  0  0  0  0
 17 18  1  0  0  0  0
 18 13  2  0  0  0  0
 19 16  1  0  0  0  0
 20 17  2  0  0  0  0
 22 23  1  0  0  0  0
 22 14  1  0  0  0  0
 25 24  2  0  0  0  0
 25  1  1  0  0  0  0
 26 27  2  0  0  0  0
 27 28  1  0  0  0  0
 27 24  1  0  0  0  0
M  END
>  <MODEL>
7

>  <REMARK>
 VINA RESULT:      -6.9      2.730      3.809
  Name = 
  6 active torsions:
  status: ('A' for Active; 'I' for Inactive)
    1  A    between atoms: C_1  and  C_9
    2  A    between atoms: N_4  and  C_8
    3  A    between atoms: C_12  and  C_28
    4  A    between atoms: C_13  and  N_15
    5  A    between atoms: N_16  and  N_17
    6  A    between atoms: C_20  and  C_23
                            x       y       z     vdW  Elec       q    Type
                         _______ _______ _______ _____ _____    ______ ____

>  <TORSDO>
F 6

$$$$
=
 OpenBabel10222416573D

 28 31  0  0  1  0  0  0  0  0999 V2000
  189.9110  177.4110  137.3400 N   0  0  0  0  0  0  0  0  0  0  0  0
  189.0550  178.4520  137.9890 C   0  0  1  0  0  3  0  0  0  0  0  0
  188.4510  177.5930  137.0710 C   0  0  2  0  0  3  0  0  0  0  0  0
  185.9160  175.5760  136.5830 C   0  0  0  0  0  0  0  0  0  0  0  0
  186.2560  176.5490  137.3550 N   0  0  0  0  0  0  0  0  0  0  0  0
  186.9710  174.6980  136.2390 N   0  0  0  0  0  0  0  0  0  0  0  0
  187.6780  176.3910  137.6240 C   0  0  1  0  0  3  0  0  0  0  0  0
  188.0160  175.1610  136.8400 C   0  0  0  0  0  3  0  0  0  0  0  0
  184.5850  175.4080  136.1070 N   0  0  0  0  0  1  0  0  0  0  0  0
  187.8680  178.6280  140.1280 C   0  0  0  0  0  3  0  0  0  0  0  0
  188.8800  178.1190  139.4380 C   0  0  0  0  0  3  0  0  0  0  0  0
  187.6550  178.3480  141.5190 N   0  0  0  0  0  0  0  0  0  0  0  0
  187.9080  177.1180  145.8620 N   0  0  0  0  0  0  0  0  0  0  0  0
  186.5480  178.5690  142.2810 C   0  0  0  0  0  0  0  0  0  0  0  0
  184.6350  178.6470  144.7900 C   0  0  0  0  0  1  0  0  0  0  0  0
  186.0310  178.1300  144.7390 C   0  0  0  0  0  0  0  0  0  0  0  0
  188.0800  177.6460  143.5660 C   0  0  0  0  0  0  0  0  0  0  0  0
  188.6550  177.1260  144.7200 C   0  0  0  0  0  3  0  0  0  0  0  0
  186.8010  178.1370  143.5710 C   0  0  0  0  0  0  0  0  0  0  0  0
  188.6040  177.7780  142.2980 C   0  0  0  0  0  3  0  0  0  0  0  0
  186.6260  177.6000  145.8980 C   0  0  0  0  0  3  0  0  0  0  0  0
  185.2860  179.2240  141.8120 C   0  0  0  0  0  2  0  0  0  0  0  0
  184.3290  178.1780  141.2720 C   0  0  0  0  0  1  0  0  0  0  0  0
  191.6700  176.1370  138.1320 N   0  0  0  0  0  0  0  0  0  0  0  0
  191.1290  176.7480  137.1600 N   0  0  0  0  0  0  0  0  0  0  0  0
  192.9440  174.1710  137.4320 O   0  0  0  0  0  0  0  0  0  0  0  0
  192.9110  175.4530  137.9680 C   0  0  0  0  0  0  0  0  0  0  0  0
  193.9830  176.0140  138.3110 O   0  0  0  0  0  1  0  0  0  0  0  0
  1  2  1  0  0  0  0
  2 11  1  1  0  0  0
  3  1  1  6  0  0  0
  3  7  1  0  0  0  0
  3  2  1  0  0  0  0
  4  5  2  0  0  0  0
  5  7  1  0  0  0  0
  6  4  1  0  0  0  0
  6  8  2  0  0  0  0
  7  8  1  6  0  0  0
  9  4  1  0  0  0  0
 10 12  1  0  0  0  0
 11 10  2  0  0  0  0
 12 14  1  0  0  0  0
 12 20  1  0  0  0  0
 13 21  1  0  0  0  0
 14 19  2  0  0  0  0
 16 15  1  0  0  0  0
 16 21  2  0  0  0  0
 17 19  1  0  0  0  0
 17 18  1  0  0  0  0
 18 13  2  0  0  0  0
 19 16  1  0  0  0  0
 20 17  2  0  0  0  0
 22 14  1  0  0  0  0
 23 22  1  0  0  0  0
 25  1  1  0  0  0  0
 25 24  2  0  0  0  0
 26 27  2  0  0  0  0
 27 24  1  0  0  0  0
 27 28  1  0  0  0  0
M  END
>  <MODEL>
8

>  <REMARK>
 VINA RESULT:      -6.9      3.112      4.370
  Name = 
  6 active torsions:
  status: ('A' for Active; 'I' for Inactive)
    1  A    between atoms: C_1  and  C_9
    2  A    between atoms: N_4  and  C_8
    3  A    between atoms: C_12  and  C_28
    4  A    between atoms: C_13  and  N_15
    5  A    between atoms: N_16  and  N_17
    6  A    between atoms: C_20  and  C_23
                            x       y       z     vdW  Elec       q    Type
                         _______ _______ _______ _____ _____    ______ ____

>  <TORSDO>
F 6

$$$$
=
 OpenBabel10222416573D

 28 31  0  0  1  0  0  0  0  0999 V2000
  182.1550  179.1960  140.1570 N   0  0  0  0  0  0  0  0  0  0  0  0
  182.4500  178.6460  141.5160 C   0  0  1  0  0  3  0  0  0  0  0  0
  181.8200  177.8060  140.5970 C   0  0  2  0  0  3  0  0  0  0  0  0
  181.8510  175.4920  138.2790 C   0  0  0  0  0  0  0  0  0  0  0  0
  181.9380  175.5940  139.5590 N   0  0  0  0  0  0  0  0  0  0  0  0
  182.4760  176.5390  137.5600 N   0  0  0  0  0  0  0  0  0  0  0  0
  182.6940  176.8070  139.8320 C   0  0  1  0  0  3  0  0  0  0  0  0
  182.9760  177.3220  138.4560 C   0  0  0  0  0  3  0  0  0  0  0  0
  181.1700  174.4170  137.6420 N   0  0  0  0  0  1  0  0  0  0  0  0
  184.4570  178.2530  142.8700 C   0  0  0  0  0  3  0  0  0  0  0  0
  183.9290  178.4800  141.6750 C   0  0  0  0  0  3  0  0  0  0  0  0
  185.8670  178.0910  143.0820 N   0  0  0  0  0  0  0  0  0  0  0  0
  190.3660  177.7630  142.7760 N   0  0  0  0  0  0  0  0  0  0  0  0
  186.5370  177.8060  144.2320 C   0  0  0  0  0  0  0  0  0  0  0  0
  188.9210  177.2170  146.2140 C   0  0  0  0  0  1  0  0  0  0  0  0
  189.0140  177.4970  144.7540 C   0  0  0  0  0  0  0  0  0  0  0  0
  188.0190  177.9920  142.6140 C   0  0  0  0  0  0  0  0  0  0  0  0
  189.2680  178.0050  142.0030 C   0  0  0  0  0  3  0  0  0  0  0  0
  187.8920  177.7450  143.9560 C   0  0  0  0  0  0  0  0  0  0  0  0
  186.7680  178.2050  142.0780 C   0  0  0  0  0  3  0  0  0  0  0  0
  190.2680  177.5120  144.1190 C   0  0  0  0  0  3  0  0  0  0  0  0
  185.9140  177.6430  145.5840 C   0  0  0  0  0  2  0  0  0  0  0  0
  185.6800  179.0030  146.2140 C   0  0  0  0  0  1  0  0  0  0  0  0
  181.1360  180.5750  138.6070 N   0  0  0  0  0  0  0  0  0  0  0  0
  182.1990  180.2130  139.1980 N   0  0  0  0  0  0  0  0  0  0  0  0
  181.5710  182.8960  137.9690 O   0  0  0  0  0  1  0  0  0  0  0  0
  181.1600  181.6130  137.6280 C   0  0  0  0  0  0  0  0  0  0  0  0
  180.8070  181.3640  136.4460 O   0  0  0  0  0  0  0  0  0  0  0  0
  1  2  1  0  0  0  0
  2 11  1  6  0  0  0
  3  1  1  6  0  0  0
  3  2  1  0  0  0  0
  4  5  2  0  0  0  0
  5  7  1  0  0  0  0
  6  4  1  0  0  0  0
  6  8  2  0  0  0  0
  7  8  1  6  0  0  0
  7  3  1  0  0  0  0
  9  4  1  0  0  0  0
 10 12  1  0  0  0  0
 11 10  2  0  0  0  0
 12 14  1  0  0  0  0
 13 21  1  0  0  0  0
 14 22  1  0  0  0  0
 16 15  1  0  0  0  0
 17 19  1  0  0  0  0
 18 17  1  0  0  0  0
 18 13  2  0  0  0  0
 19 14  2  0  0  0  0
 19 16  1  0  0  0  0
 20 17  2  0  0  0  0
 20 12  1  0  0  0  0
 21 16  2  0  0  0  0
 22 23  1  0  0  0  0
 24 25  2  0  0  0  0
 25  1  1  0  0  0  0
 27 26  1  0  0  0  0
 27 24  1  0  0  0  0
 28 27  2  0  0  0  0
M  END
>  <MODEL>
9

>  <REMARK>
 VINA RESULT:      -6.7      2.931      3.573
  Name = 
  6 active torsions:
  status: ('A' for Active; 'I' for Inactive)
    1  A    between atoms: C_1  and  C_9
    2  A    between atoms: N_4  and  C_8
    3  A    between atoms: C_12  and  C_28
    4  A    between atoms: C_13  and  N_15
    5  A    between atoms: N_16  and  N_17
    6  A    between atoms: C_20  and  C_23
                            x       y       z     vdW  Elec       q    Type
                         _______ _______ _______ _____ _____    ______ ____

>  <TORSDO>
F 6

$$$$
