=
 OpenBabel10222418143D

 59 61  0  0  1  0  0  0  0  0999 V2000
  182.2900  176.9170  139.0600 C   0  0  0  0  0  2  0  0  0  0  0  0
  181.6330  179.2550  139.7960 C   0  0  1  0  0  3  0  0  0  0  0  0
  182.4640  178.4130  138.8060 C   0  0  1  0  0  3  0  0  0  0  0  0
  180.8160  176.5380  138.8910 C   0  0  2  0  0  3  0  0  0  0  0  0
  180.1490  178.8710  139.6320 C   0  0  2  0  0  3  0  0  0  0  0  0
  179.9360  177.3630  139.8310 C   0  0  0  0  0  2  0  0  0  0  0  0
  183.8990  178.8220  138.7010 C   0  0  0  0  0  0  0  0  0  0  0  0
  184.2130  180.0220  138.9220 O   0  0  0  0  0  0  0  0  0  0  0  0
  184.8840  177.8670  138.4240 O   0  0  0  0  0  0  0  0  0  0  0  0
  185.9470  178.1060  137.5730 N   0  0  0  0  0  2  0  0  0  0  0  0
  184.9980  177.6520  135.2650 C   0  0  0  0  0  1  0  0  0  0  0  0
  187.0080  176.6220  136.0880 C   0  0  0  0  0  0  0  0  0  0  0  0
  186.0840  177.5180  136.2750 C   0  0  0  0  0  0  0  0  0  0  0  0
  187.9330  175.7130  135.9110 C   0  0  0  0  0  3  0  0  0  0  0  0
  189.1390  175.5920  136.8010 C   0  0  2  0  0  0  0  0  0  0  0  0
  188.8770  176.3460  138.0970 C   0  0  0  0  0  1  0  0  0  0  0  0
  191.5530  176.3540  137.0980 C   0  0  0  0  0  1  0  0  0  0  0  0
  190.3870  176.1840  136.1320 C   0  0  0  0  0  2  0  0  0  0  0  0
  189.3460  174.1090  137.1260 C   0  0  0  0  0  2  0  0  0  0  0  0
  190.5410  173.6360  136.5740 O   0  0  0  0  0  1  0  0  0  0  0  0
  179.5290  180.6480  138.4610 C   0  0  0  0  0  1  0  0  0  0  0  0
  179.6770  179.2650  138.3790 O   0  0  0  0  0  0  0  0  0  0  0  0
  180.6160  175.0630  139.1890 C   0  0  0  0  0  2  0  0  0  0  0  0
  179.6220  174.4510  138.2100 C   0  0  0  0  0  2  0  0  0  0  0  0
  178.9360  174.5710  135.7910 C   0  0  0  0  0  1  0  0  0  0  0  0
  180.1010  174.6240  136.7760 C   0  0  2  0  0  3  0  0  0  0  0  0
  181.2710  173.6700  136.4200 C   0  0  2  0  0  3  0  0  0  0  0  0
  182.5180  174.3910  135.8970 C   0  0  0  0  0  3  0  0  0  0  0  0
  183.6450  174.4190  136.9150 C   0  0  0  0  0  1  0  0  0  0  0  0
  182.1740  175.8060  135.4840 C   0  0  0  0  0  1  0  0  0  0  0  0
  180.8380  171.2600  136.5350 C   0  0  0  0  0  1  0  0  0  0  0  0
  180.9680  172.4290  135.6750 N   0  0  0  0  0  0  0  0  0  0  0  0
  182.0470  172.1740  134.7360 C   0  0  0  0  0  1  0  0  0  0  0  0
  182.1210  179.1340  141.2670 C   0  0  1  0  0  3  0  0  0  0  0  0
  180.4570  180.5720  142.1540 O   0  0  0  0  0  0  0  0  0  0  0  0
  181.0620  179.5160  142.2610 C   0  0  0  0  0  0  0  0  0  0  0  0
  180.7290  178.5900  143.3800 C   0  0  0  0  0  1  0  0  0  0  0  0
  182.7280  177.7720  141.6230 C   0  0  0  0  0  2  0  0  0  0  0  0
  184.2470  177.8020  141.6770 C   0  0  0  0  0  2  0  0  0  0  0  0
  184.6760  178.5950  142.8880 C   0  0  0  0  0  2  0  0  0  0  0  0
  186.0210  179.0190  142.7310 O   0  0  0  0  0  0  0  0  0  0  0  0
  187.5810  178.1240  141.3120 O   0  0  0  0  0  0  0  0  0  0  0  0
  187.0500  178.1160  142.4530 C   0  0  0  0  0  0  0  0  0  0  0  0
  188.1070  177.9200  144.7080 C   0  0  0  0  0  0  0  0  0  0  0  0
  190.3470  178.4110  143.6780 C   0  0  0  0  0  3  0  0  0  0  0  0
  189.3100  178.5010  144.7210 C   0  0  0  0  0  3  0  0  0  0  0  0
  189.7040  176.2250  142.6520 C   0  0  0  0  0  3  0  0  0  0  0  0
  188.4280  176.0860  143.0120 C   0  0  0  0  0  3  0  0  0  0  0  0
  187.5590  177.1900  143.5230 C   0  0  2  0  0  3  0  0  0  0  0  0
  190.5130  177.4530  142.7560 C   0  0  0  0  0  0  0  0  0  0  0  0
  191.2440  177.2860  140.5200 O   0  0  0  0  0  1  0  0  0  0  0  0
  191.6630  177.5930  141.8180 C   0  0  0  0  0  2  0  0  0  0  0  0
  187.1720  178.1900  145.8390 C   0  0  0  0  0  2  0  0  0  0  0  0
  187.0270  176.9610  146.7220 C   0  0  0  0  0  2  0  0  0  0  0  0
  188.3340  178.3130  148.3580 C   0  0  0  0  0  2  0  0  0  0  0  0
  188.1270  176.9370  147.7730 C   0  0  2  0  0  3  0  0  0  0  0  0
  190.3480  177.1290  147.9350 C   0  0  0  0  0  2  0  0  0  0  0  0
  189.8170  178.4140  148.5290 C   0  0  0  0  0  2  0  0  0  0  0  0
  189.3290  176.5180  147.1860 O   0  0  0  0  0  0  0  0  0  0  0  0
  2 34  1  1  0  0  0
  3  7  1  1  0  0  0
  3  1  1  0  0  0  0
  3  2  1  0  0  0  0
  4  1  1  0  0  0  0
  4 23  1  1  0  0  0
  4  6  1  0  0  0  0
  5 22  1  6  0  0  0
  5  2  1  0  0  0  0
  5  6  1  0  0  0  0
  7  8  2  0  0  0  0
  9  7  1  0  0  0  0
 10  9  1  0  0  0  0
 11 13  1  0  0  0  0
 12 13  2  0  0  0  0
 13 10  1  0  0  0  0
 14 12  2  0  0  0  0
 14 15  1  0  0  0  0
 15 19  1  0  0  0  0
 15 16  1  1  0  0  0
 18 15  1  0  0  0  0
 18 17  1  0  0  0  0
 20 19  1  0  0  0  0
 22 21  1  0  0  0  0
 24 23  1  0  0  0  0
 26 25  1  6  0  0  0
 26 24  1  0  0  0  0
 27 28  1  6  0  0  0
 27 26  1  0  0  0  0
 28 29  1  0  0  0  0
 30 28  1  0  0  0  0
 32 27  1  0  0  0  0
 32 31  1  0  0  0  0
 33 32  1  0  0  0  0
 34 38  1  1  0  0  0
 34 36  1  0  0  0  0
 35 36  2  0  0  0  0
 36 37  1  0  0  0  0
 38 39  1  0  0  0  0
 39 40  1  0  0  0  0
 41 40  1  0  0  0  0
 42 43  2  0  0  0  0
 43 41  1  0  0  0  0
 44 46  2  0  0  0  0
 44 53  1  0  0  0  0
 45 46  1  0  0  0  0
 47 50  1  0  0  0  0
 47 48  2  0  0  0  0
 48 49  1  0  0  0  0
 49 43  1  6  0  0  0
 49 44  1  0  0  0  0
 50 45  2  0  0  0  0
 51 52  1  0  0  0  0
 52 50  1  0  0  0  0
 53 54  1  0  0  0  0
 55 58  1  0  0  0  0
 56 54  1  6  0  0  0
 56 55  1  0  0  0  0
 57 58  1  0  0  0  0
 59 56  1  0  0  0  0
 59 57  1  0  0  0  0
M  END
>  <MODEL>
1

>  <REMARK>
 VINA RESULT:      -5.8      0.000      0.000
  Name = 
  26 active torsions:
  status: ('A' for Active; 'I' for Inactive)
    1  A    between atoms: C_1  and  C_50
    2  A    between atoms: C_3  and  C_5
    3  A    between atoms: C_4  and  C_18
    4  A    between atoms: C_5  and  C_6
    5  A    between atoms: C_5  and  C_29
    6  A    between atoms: C_6  and  C_57
    7  A    between atoms: O_13  and  C_38
    8  A    between atoms: O_13  and  C_54
    9  A    between atoms: N_15  and  C_42
   10  A    between atoms: C_17  and  C_28
   11  A    between atoms: C_17  and  C_47
   12  A    between atoms: C_18  and  C_53
   13  A    between atoms: C_18  and  C_59
   14  A    between atoms: C_20  and  C_21
   15  A    between atoms: C_21  and  O_30
   16  A    between atoms: C_23  and  C_33
   17  A    between atoms: C_25  and  C_28
   18  A    between atoms: O_30  and  N_56
   19  A    between atoms: C_33  and  C_50
   20  A    between atoms: C_34  and  O_58
   21  A    between atoms: C_37  and  C_42
   22  A    between atoms: C_38  and  C_39
   23  A    between atoms: C_41  and  C_46
   24  A    between atoms: C_42  and  C_47
   25  A    between atoms: C_43  and  N_56
   26  A    between atoms: C_54  and  C_57
                            x       y       z     vdW  Elec       q    Type
                         _______ _______ _______ _____ _____    ______ ____

>  <TORSDO>
F 26

$$$$
=
 OpenBabel10222418143D

 59 61  0  0  1  0  0  0  0  0999 V2000
  191.1250  176.2930  139.2930 C   0  0  0  0  0  2  0  0  0  0  0  0
  188.9640  176.8520  138.0850 C   0  0  1  0  0  3  0  0  0  0  0  0
  189.8700  175.7290  138.6300 C   0  0  1  0  0  3  0  0  0  0  0  0
  190.7230  177.1950  140.4630 C   0  0  2  0  0  3  0  0  0  0  0  0
  188.5630  177.7640  139.2600 C   0  0  2  0  0  3  0  0  0  0  0  0
  189.7990  178.3160  139.9870 C   0  0  0  0  0  2  0  0  0  0  0  0
  190.1710  174.6440  137.6450 C   0  0  0  0  0  0  0  0  0  0  0  0
  189.2330  173.9110  137.2330 O   0  0  0  0  0  0  0  0  0  0  0  0
  191.4670  174.4910  137.1410 O   0  0  0  0  0  0  0  0  0  0  0  0
  191.7310  174.0010  135.8750 N   0  0  0  0  0  2  0  0  0  0  0  0
  191.8360  171.6020  135.0590 C   0  0  0  0  0  1  0  0  0  0  0  0
  193.6760  172.7050  136.1420 C   0  0  0  0  0  0  0  0  0  0  0  0
  192.4930  172.8170  135.6140 C   0  0  0  0  0  0  0  0  0  0  0  0
  194.8610  172.5950  136.6860 C   0  0  0  0  0  3  0  0  0  0  0  0
  195.6590  173.7820  137.1520 C   0  0  2  0  0  0  0  0  0  0  0  0
  197.0480  173.3170  137.5630 C   0  0  0  0  0  1  0  0  0  0  0  0
  195.9320  174.6110  139.5470 C   0  0  0  0  0  1  0  0  0  0  0  0
  194.9930  174.4630  138.3560 C   0  0  0  0  0  2  0  0  0  0  0  0
  195.7920  174.7590  135.9790 C   0  0  0  0  0  2  0  0  0  0  0  0
  195.1270  175.9590  136.2470 O   0  0  0  0  0  1  0  0  0  0  0  0
  187.2890  178.0440  141.0520 C   0  0  0  0  0  1  0  0  0  0  0  0
  187.7420  177.0770  140.1570 O   0  0  0  0  0  0  0  0  0  0  0  0
  191.9580  177.8060  141.1020 C   0  0  0  0  0  2  0  0  0  0  0  0
  192.0600  177.3930  142.5650 C   0  0  0  0  0  2  0  0  0  0  0  0
  191.1020  179.5080  143.5390 C   0  0  0  0  0  1  0  0  0  0  0  0
  190.9260  178.0000  143.3780 C   0  0  2  0  0  3  0  0  0  0  0  0
  190.6830  177.2490  144.7130 C   0  0  2  0  0  3  0  0  0  0  0  0
  191.8430  176.3380  145.1300 C   0  0  0  0  0  3  0  0  0  0  0  0
  191.7880  174.9780  144.4550 C   0  0  0  0  0  1  0  0  0  0  0  0
  191.8560  176.1570  146.6320 C   0  0  0  0  0  1  0  0  0  0  0  0
  188.5930  176.4330  143.7270 C   0  0  0  0  0  1  0  0  0  0  0  0
  189.3570  176.6380  144.9490 N   0  0  0  0  0  0  0  0  0  0  0  0
  188.5870  177.5150  145.8150 C   0  0  0  0  0  1  0  0  0  0  0  0
  189.6040  177.6410  136.9080 C   0  0  1  0  0  3  0  0  0  0  0  0
  190.3950  176.8360  134.8230 O   0  0  0  0  0  0  0  0  0  0  0  0
  189.4500  176.9400  135.5900 C   0  0  0  0  0  0  0  0  0  0  0  0
  188.1350  176.3460  135.2170 C   0  0  0  0  0  1  0  0  0  0  0  0
  189.1450  179.1000  136.8010 C   0  0  0  0  0  2  0  0  0  0  0  0
  187.7670  179.2360  136.1720 C   0  0  0  0  0  2  0  0  0  0  0  0
  186.7840  179.6600  137.2360 C   0  0  0  0  0  2  0  0  0  0  0  0
  185.9270  178.5760  137.5570 O   0  0  0  0  0  0  0  0  0  0  0  0
  184.8140  179.7570  139.1740 O   0  0  0  0  0  0  0  0  0  0  0  0
  184.8940  178.7040  138.4880 C   0  0  0  0  0  0  0  0  0  0  0  0
  183.1300  177.3570  137.3430 C   0  0  0  0  0  0  0  0  0  0  0  0
  181.5450  179.2980  137.5460 C   0  0  0  0  0  3  0  0  0  0  0  0
  182.1640  178.1460  136.8650 C   0  0  0  0  0  3  0  0  0  0  0  0
  181.9610  178.6400  139.9200 C   0  0  0  0  0  3  0  0  0  0  0  0
  182.9720  177.7770  139.8220 C   0  0  0  0  0  3  0  0  0  0  0  0
  183.8540  177.6270  138.6240 C   0  0  2  0  0  3  0  0  0  0  0  0
  181.4760  179.5440  138.8600 C   0  0  0  0  0  0  0  0  0  0  0  0
  179.3930  180.6060  139.1680 O   0  0  0  0  0  1  0  0  0  0  0  0
  180.7730  180.7850  139.2930 C   0  0  0  0  0  2  0  0  0  0  0  0
  183.6680  176.2770  136.4660 C   0  0  0  0  0  2  0  0  0  0  0  0
  184.4760  175.2770  137.2780 C   0  0  0  0  0  2  0  0  0  0  0  0
  184.6720  172.8080  137.5630 C   0  0  0  0  0  2  0  0  0  0  0  0
  183.7150  173.9650  137.4030 C   0  0  2  0  0  3  0  0  0  0  0  0
  182.8440  172.3590  136.1150 C   0  0  0  0  0  2  0  0  0  0  0  0
  184.0510  171.7120  136.7550 C   0  0  0  0  0  2  0  0  0  0  0  0
  182.9500  173.7530  136.2470 O   0  0  0  0  0  0  0  0  0  0  0  0
  1  4  1  0  0  0  0
  2 34  1  6  0  0  0
  2  3  1  0  0  0  0
  2  5  1  0  0  0  0
  3  7  1  6  0  0  0
  3  1  1  0  0  0  0
  4 23  1  6  0  0  0
  5  6  1  0  0  0  0
  5 22  1  1  0  0  0
  6  4  1  0  0  0  0
  8  7  2  0  0  0  0
  9  7  1  0  0  0  0
 10  9  1  0  0  0  0
 11 13  1  0  0  0  0
 12 14  2  0  0  0  0
 13 10  1  0  0  0  0
 13 12  2  0  0  0  0
 14 15  1  0  0  0  0
 15 16  1  1  0  0  0
 15 18  1  0  0  0  0
 18 17  1  0  0  0  0
 19 20  1  0  0  0  0
 19 15  1  0  0  0  0
 22 21  1  0  0  0  0
 23 24  1  0  0  0  0
 24 26  1  0  0  0  0
 26 25  1  1  0  0  0
 26 27  1  0  0  0  0
 27 32  1  0  0  0  0
 27 28  1  6  0  0  0
 28 30  1  0  0  0  0
 29 28  1  0  0  0  0
 31 32  1  0  0  0  0
 32 33  1  0  0  0  0
 34 38  1  6  0  0  0
 35 36  2  0  0  0  0
 36 34  1  0  0  0  0
 37 36  1  0  0  0  0
 39 38  1  0  0  0  0
 39 40  1  0  0  0  0
 40 41  1  0  0  0  0
 41 43  1  0  0  0  0
 43 42  2  0  0  0  0
 44 49  1  0  0  0  0
 45 50  2  0  0  0  0
 46 44  2  0  0  0  0
 46 45  1  0  0  0  0
 48 47  2  0  0  0  0
 49 43  1  6  0  0  0
 49 48  1  0  0  0  0
 50 52  1  0  0  0  0
 50 47  1  0  0  0  0
 51 52  1  0  0  0  0
 53 54  1  0  0  0  0
 53 44  1  0  0  0  0
 56 54  1  6  0  0  0
 56 55  1  0  0  0  0
 57 59  1  0  0  0  0
 57 58  1  0  0  0  0
 58 55  1  0  0  0  0
 59 56  1  0  0  0  0
M  END
>  <MODEL>
2

>  <REMARK>
 VINA RESULT:      -4.9      2.980     10.039
  Name = 
  26 active torsions:
  status: ('A' for Active; 'I' for Inactive)
    1  A    between atoms: C_1  and  C_50
    2  A    between atoms: C_3  and  C_5
    3  A    between atoms: C_4  and  C_18
    4  A    between atoms: C_5  and  C_6
    5  A    between atoms: C_5  and  C_29
    6  A    between atoms: C_6  and  C_57
    7  A    between atoms: O_13  and  C_38
    8  A    between atoms: O_13  and  C_54
    9  A    between atoms: N_15  and  C_42
   10  A    between atoms: C_17  and  C_28
   11  A    between atoms: C_17  and  C_47
   12  A    between atoms: C_18  and  C_53
   13  A    between atoms: C_18  and  C_59
   14  A    between atoms: C_20  and  C_21
   15  A    between atoms: C_21  and  O_30
   16  A    between atoms: C_23  and  C_33
   17  A    between atoms: C_25  and  C_28
   18  A    between atoms: O_30  and  N_56
   19  A    between atoms: C_33  and  C_50
   20  A    between atoms: C_34  and  O_58
   21  A    between atoms: C_37  and  C_42
   22  A    between atoms: C_38  and  C_39
   23  A    between atoms: C_41  and  C_46
   24  A    between atoms: C_42  and  C_47
   25  A    between atoms: C_43  and  N_56
   26  A    between atoms: C_54  and  C_57
                            x       y       z     vdW  Elec       q    Type
                         _______ _______ _______ _____ _____    ______ ____

>  <TORSDO>
F 26

$$$$
=
 OpenBabel10222418143D

 59 61  0  0  1  0  0  0  0  0999 V2000
  183.5410  178.4410  137.0650 C   0  0  0  0  0  2  0  0  0  0  0  0
  181.8640  177.3190  138.6040 C   0  0  1  0  0  3  0  0  0  0  0  0
  182.0600  178.2100  137.3600 C   0  0  1  0  0  3  0  0  0  0  0  0
  184.2250  177.0970  136.8030 C   0  0  2  0  0  3  0  0  0  0  0  0
  182.5580  175.9660  138.3440 C   0  0  2  0  0  3  0  0  0  0  0  0
  184.0410  176.1570  137.9940 C   0  0  0  0  0  2  0  0  0  0  0  0
  181.2660  179.4780  137.3780 C   0  0  0  0  0  0  0  0  0  0  0  0
  181.8680  180.5780  137.5020 O   0  0  0  0  0  0  0  0  0  0  0  0
  179.8790  179.4410  137.1940 O   0  0  0  0  0  0  0  0  0  0  0  0
  179.0350  180.4460  137.6280 N   0  0  0  0  0  2  0  0  0  0  0  0
  178.9390  180.7120  140.1480 C   0  0  0  0  0  1  0  0  0  0  0  0
  179.4700  182.5180  138.6550 C   0  0  0  0  0  0  0  0  0  0  0  0
  179.2670  181.2410  138.7960 C   0  0  0  0  0  0  0  0  0  0  0  0
  179.6640  183.8040  138.5040 C   0  0  0  0  0  3  0  0  0  0  0  0
  180.1290  184.4130  137.2110 C   0  0  2  0  0  0  0  0  0  0  0  0
  181.6220  184.6910  137.3010 C   0  0  0  0  0  1  0  0  0  0  0  0
  179.0430  186.5010  138.1920 C   0  0  0  0  0  1  0  0  0  0  0  0
  179.4000  185.7350  136.9240 C   0  0  0  0  0  2  0  0  0  0  0  0
  179.8820  183.4010  136.0880 C   0  0  0  0  0  2  0  0  0  0  0  0
  179.0110  183.9210  135.1250 O   0  0  0  0  0  1  0  0  0  0  0  0
  181.2390  174.2260  137.9650 C   0  0  0  0  0  1  0  0  0  0  0  0
  181.9070  175.2690  137.3260 O   0  0  0  0  0  0  0  0  0  0  0  0
  185.7100  177.3040  136.5570 C   0  0  0  0  0  2  0  0  0  0  0  0
  186.5040  176.0990  137.0460 C   0  0  0  0  0  2  0  0  0  0  0  0
  187.3870  176.4370  134.7120 C   0  0  0  0  0  1  0  0  0  0  0  0
  187.3230  175.4980  135.9130 C   0  0  2  0  0  3  0  0  0  0  0  0
  186.8810  174.0540  135.5600 C   0  0  2  0  0  3  0  0  0  0  0  0
  185.4250  173.7470  135.9270 C   0  0  0  0  0  3  0  0  0  0  0  0
  185.3060  172.6700  136.9920 C   0  0  0  0  0  1  0  0  0  0  0  0
  184.6490  173.3290  134.6960 C   0  0  0  0  0  1  0  0  0  0  0  0
  188.9020  173.3240  136.7390 C   0  0  0  0  0  1  0  0  0  0  0  0
  187.8000  172.9370  135.8690 N   0  0  0  0  0  0  0  0  0  0  0  0
  188.3660  172.4420  134.6250 C   0  0  0  0  0  1  0  0  0  0  0  0
  182.3400  177.9890  139.9230 C   0  0  1  0  0  3  0  0  0  0  0  0
  180.1320  177.6460  140.7170 O   0  0  0  0  0  0  0  0  0  0  0  0
  181.2450  178.0950  140.9450 C   0  0  0  0  0  0  0  0  0  0  0  0
  181.5220  178.7360  142.2620 C   0  0  0  0  0  1  0  0  0  0  0  0
  183.5940  177.3580  140.5380 C   0  0  0  0  0  2  0  0  0  0  0  0
  184.5790  178.3930  141.0570 C   0  0  0  0  0  2  0  0  0  0  0  0
  185.6650  178.5920  140.0280 C   0  0  0  0  0  2  0  0  0  0  0  0
  186.8700  177.9950  140.4810 O   0  0  0  0  0  0  0  0  0  0  0  0
  188.2310  178.6060  138.7410 O   0  0  0  0  0  0  0  0  0  0  0  0
  188.1150  178.3740  139.9740 C   0  0  0  0  0  0  0  0  0  0  0  0
  190.1760  177.3620  140.9570 C   0  0  0  0  0  0  0  0  0  0  0  0
  188.7470  176.0820  142.5830 C   0  0  0  0  0  3  0  0  0  0  0  0
  189.8790  176.2620  141.6550 C   0  0  0  0  0  3  0  0  0  0  0  0
  188.3660  178.4650  143.2270 C   0  0  0  0  0  3  0  0  0  0  0  0
  188.9280  179.1430  142.2280 C   0  0  0  0  0  3  0  0  0  0  0  0
  189.2870  178.5630  140.8970 C   0  0  2  0  0  3  0  0  0  0  0  0
  188.0620  177.0220  143.2450 C   0  0  0  0  0  0  0  0  0  0  0  0
  186.9810  177.3220  145.3190 O   0  0  0  0  0  1  0  0  0  0  0  0
  186.9610  176.5690  144.1420 C   0  0  0  0  0  2  0  0  0  0  0  0
  191.3350  177.3200  140.0180 C   0  0  0  0  0  2  0  0  0  0  0  0
  191.0280  176.4300  138.8240 C   0  0  0  0  0  2  0  0  0  0  0  0
  191.7980  175.7570  136.5510 C   0  0  0  0  0  2  0  0  0  0  0  0
  192.1670  176.4920  137.8170 C   0  0  2  0  0  3  0  0  0  0  0  0
  194.0310  175.3880  137.2670 C   0  0  0  0  0  2  0  0  0  0  0  0
  193.0670  175.0730  136.1470 C   0  0  0  0  0  2  0  0  0  0  0  0
  193.3100  175.8920  138.3620 O   0  0  0  0  0  0  0  0  0  0  0  0
  1  3  1  0  0  0  0
  2 34  1  1  0  0  0
  3  7  1  1  0  0  0
  3  2  1  0  0  0  0
  4 23  1  1  0  0  0
  4  1  1  0  0  0  0
  4  6  1  0  0  0  0
  5 22  1  6  0  0  0
  5  2  1  0  0  0  0
  6  5  1  0  0  0  0
  7  8  2  0  0  0  0
  9  7  1  0  0  0  0
  9 10  1  0  0  0  0
 10 13  1  0  0  0  0
 12 13  2  0  0  0  0
 13 11  1  0  0  0  0
 14 12  2  0  0  0  0
 15 16  1  1  0  0  0
 15 14  1  0  0  0  0
 18 15  1  0  0  0  0
 18 17  1  0  0  0  0
 19 15  1  0  0  0  0
 20 19  1  0  0  0  0
 22 21  1  0  0  0  0
 23 24  1  0  0  0  0
 26 25  1  6  0  0  0
 26 24  1  0  0  0  0
 27 32  1  0  0  0  0
 27 26  1  0  0  0  0
 27 28  1  1  0  0  0
 28 29  1  0  0  0  0
 30 28  1  0  0  0  0
 32 31  1  0  0  0  0
 33 32  1  0  0  0  0
 34 38  1  1  0  0  0
 34 36  1  0  0  0  0
 35 36  2  0  0  0  0
 36 37  1  0  0  0  0
 38 39  1  0  0  0  0
 40 41  1  0  0  0  0
 40 39  1  0  0  0  0
 42 43  2  0  0  0  0
 43 41  1  0  0  0  0
 44 46  2  0  0  0  0
 45 50  2  0  0  0  0
 46 45  1  0  0  0  0
 47 50  1  0  0  0  0
 48 47  2  0  0  0  0
 49 43  1  1  0  0  0
 49 44  1  0  0  0  0
 49 48  1  0  0  0  0
 50 52  1  0  0  0  0
 52 51  1  0  0  0  0
 53 44  1  0  0  0  0
 54 53  1  0  0  0  0
 55 56  1  0  0  0  0
 56 59  1  0  0  0  0
 56 54  1  1  0  0  0
 57 59  1  0  0  0  0
 58 55  1  0  0  0  0
 58 57  1  0  0  0  0
M  END
>  <MODEL>
3

>  <REMARK>
 VINA RESULT:      -4.8      2.702      7.392
  Name = 
  26 active torsions:
  status: ('A' for Active; 'I' for Inactive)
    1  A    between atoms: C_1  and  C_50
    2  A    between atoms: C_3  and  C_5
    3  A    between atoms: C_4  and  C_18
    4  A    between atoms: C_5  and  C_6
    5  A    between atoms: C_5  and  C_29
    6  A    between atoms: C_6  and  C_57
    7  A    between atoms: O_13  and  C_38
    8  A    between atoms: O_13  and  C_54
    9  A    between atoms: N_15  and  C_42
   10  A    between atoms: C_17  and  C_28
   11  A    between atoms: C_17  and  C_47
   12  A    between atoms: C_18  and  C_53
   13  A    between atoms: C_18  and  C_59
   14  A    between atoms: C_20  and  C_21
   15  A    between atoms: C_21  and  O_30
   16  A    between atoms: C_23  and  C_33
   17  A    between atoms: C_25  and  C_28
   18  A    between atoms: O_30  and  N_56
   19  A    between atoms: C_33  and  C_50
   20  A    between atoms: C_34  and  O_58
   21  A    between atoms: C_37  and  C_42
   22  A    between atoms: C_38  and  C_39
   23  A    between atoms: C_41  and  C_46
   24  A    between atoms: C_42  and  C_47
   25  A    between atoms: C_43  and  N_56
   26  A    between atoms: C_54  and  C_57
                            x       y       z     vdW  Elec       q    Type
                         _______ _______ _______ _____ _____    ______ ____

>  <TORSDO>
F 26

$$$$
=
 OpenBabel10222418143D

 59 61  0  0  1  0  0  0  0  0999 V2000
  182.6230  176.7770  137.9000 C   0  0  0  0  0  2  0  0  0  0  0  0
  182.2920  179.2780  137.6250 C   0  0  1  0  0  3  0  0  0  0  0  0
  183.2610  178.0900  137.4520 C   0  0  1  0  0  3  0  0  0  0  0  0
  181.3740  176.5020  137.0590 C   0  0  2  0  0  3  0  0  0  0  0  0
  181.0300  179.0000  136.7840 C   0  0  2  0  0  3  0  0  0  0  0  0
  180.3840  177.6620  137.1690 C   0  0  0  0  0  2  0  0  0  0  0  0
  184.6180  178.3090  138.0420 C   0  0  0  0  0  0  0  0  0  0  0  0
  184.9140  179.4470  138.4940 O   0  0  0  0  0  0  0  0  0  0  0  0
  185.5200  177.2450  138.1460 O   0  0  0  0  0  0  0  0  0  0  0  0
  186.0620  176.6060  137.0460 N   0  0  0  0  0  2  0  0  0  0  0  0
  186.9170  178.5290  135.6320 C   0  0  0  0  0  1  0  0  0  0  0  0
  187.9910  176.3820  135.7190 C   0  0  0  0  0  0  0  0  0  0  0  0
  187.0810  177.1680  136.2120 C   0  0  0  0  0  0  0  0  0  0  0  0
  188.8980  175.5810  135.2190 C   0  0  0  0  0  3  0  0  0  0  0  0
  189.2280  174.2430  135.8210 C   0  0  2  0  0  0  0  0  0  0  0  0
  189.5950  174.4340  137.2850 C   0  0  0  0  0  1  0  0  0  0  0  0
  191.6190  174.5080  134.9780 C   0  0  0  0  0  1  0  0  0  0  0  0
  190.4130  173.5850  135.0990 C   0  0  0  0  0  2  0  0  0  0  0  0
  187.9800  173.3600  135.7360 C   0  0  0  0  0  2  0  0  0  0  0  0
  187.4260  173.1490  137.0030 O   0  0  0  0  0  1  0  0  0  0  0  0
  180.2450  179.6260  134.8070 C   0  0  0  0  0  1  0  0  0  0  0  0
  181.3370  179.0140  135.4220 O   0  0  0  0  0  0  0  0  0  0  0  0
  180.6980  175.2250  137.5250 C   0  0  0  0  0  2  0  0  0  0  0  0
  180.5460  174.2490  136.3660 C   0  0  0  0  0  2  0  0  0  0  0  0
  180.3550  172.6140  138.2710 C   0  0  0  0  0  1  0  0  0  0  0  0
  180.8000  172.8200  136.8260 C   0  0  2  0  0  3  0  0  0  0  0  0
  182.2510  172.3520  136.5420 C   0  0  2  0  0  3  0  0  0  0  0  0
  183.2580  173.5010  136.4210 C   0  0  0  0  0  3  0  0  0  0  0  0
  183.9780  173.5090  135.0840 C   0  0  0  0  0  1  0  0  0  0  0  0
  184.2730  173.4310  137.5420 C   0  0  0  0  0  1  0  0  0  0  0  0
  181.2310  170.8020  134.9410 C   0  0  0  0  0  1  0  0  0  0  0  0
  182.4670  171.2890  135.5370 N   0  0  0  0  0  0  0  0  0  0  0  0
  183.1260  170.1660  136.1800 C   0  0  0  0  0  1  0  0  0  0  0  0
  181.9600  179.5890  139.1120 C   0  0  1  0  0  3  0  0  0  0  0  0
  180.7990  181.6400  138.8500 O   0  0  0  0  0  0  0  0  0  0  0  0
  180.7690  180.4900  139.2620 C   0  0  0  0  0  0  0  0  0  0  0  0
  179.5270  179.9740  139.9030 C   0  0  0  0  0  1  0  0  0  0  0  0
  181.8140  178.3480  140.0010 C   0  0  0  0  0  2  0  0  0  0  0  0
  182.6930  178.4070  141.2400 C   0  0  0  0  0  2  0  0  0  0  0  0
  181.8180  178.3090  142.4650 C   0  0  0  0  0  2  0  0  0  0  0  0
  182.3370  179.1370  143.4940 O   0  0  0  0  0  0  0  0  0  0  0  0
  183.3950  177.8820  145.0920 O   0  0  0  0  0  0  0  0  0  0  0  0
  183.4780  178.7840  144.2170 C   0  0  0  0  0  0  0  0  0  0  0  0
  185.7420  178.5090  143.1980 C   0  0  0  0  0  0  0  0  0  0  0  0
  186.4990  177.2850  145.2600 C   0  0  0  0  0  3  0  0  0  0  0  0
  186.4230  177.5360  143.8090 C   0  0  0  0  0  3  0  0  0  0  0  0
  186.0230  179.5900  146.0960 C   0  0  0  0  0  3  0  0  0  0  0  0
  185.4030  180.1650  145.0660 C   0  0  0  0  0  3  0  0  0  0  0  0
  184.8020  179.4290  143.9120 C   0  0  2  0  0  3  0  0  0  0  0  0
  186.2970  178.1510  146.2610 C   0  0  0  0  0  0  0  0  0  0  0  0
  187.7270  177.0890  147.8070 O   0  0  0  0  0  1  0  0  0  0  0  0
  186.4520  177.6420  147.6530 C   0  0  0  0  0  2  0  0  0  0  0  0
  185.7420  178.5530  141.7070 C   0  0  0  0  0  2  0  0  0  0  0  0
  187.0440  179.1390  141.1860 C   0  0  0  0  0  2  0  0  0  0  0  0
  188.8080  177.3790  141.1150 C   0  0  0  0  0  2  0  0  0  0  0  0
  187.7660  178.1210  140.3140 C   0  0  2  0  0  3  0  0  0  0  0  0
  189.5160  177.9850  138.9310 C   0  0  0  0  0  2  0  0  0  0  0  0
  189.9550  177.2280  140.1640 C   0  0  0  0  0  2  0  0  0  0  0  0
  188.4060  178.7800  139.2540 O   0  0  0  0  0  0  0  0  0  0  0  0
  2 34  1  1  0  0  0
  3  2  1  0  0  0  0
  3  1  1  0  0  0  0
  3  7  1  1  0  0  0
  4  6  1  0  0  0  0
  4 23  1  1  0  0  0
  4  1  1  0  0  0  0
  5 22  1  6  0  0  0
  5  6  1  0  0  0  0
  5  2  1  0  0  0  0
  7  9  1  0  0  0  0
  7  8  2  0  0  0  0
 10  9  1  0  0  0  0
 11 13  1  0  0  0  0
 12 13  2  0  0  0  0
 13 10  1  0  0  0  0
 14 12  2  0  0  0  0
 14 15  1  0  0  0  0
 15 16  1  1  0  0  0
 17 18  1  0  0  0  0
 18 15  1  0  0  0  0
 19 15  1  0  0  0  0
 19 20  1  0  0  0  0
 21 22  1  0  0  0  0
 24 26  1  0  0  0  0
 24 23  1  0  0  0  0
 26 25  1  1  0  0  0
 27 28  1  6  0  0  0
 27 26  1  0  0  0  0
 28 30  1  0  0  0  0
 29 28  1  0  0  0  0
 31 32  1  0  0  0  0
 32 33  1  0  0  0  0
 32 27  1  0  0  0  0
 34 36  1  0  0  0  0
 34 38  1  1  0  0  0
 35 36  2  0  0  0  0
 36 37  1  0  0  0  0
 38 39  1  0  0  0  0
 39 40  1  0  0  0  0
 40 41  1  0  0  0  0
 41 43  1  0  0  0  0
 43 42  2  0  0  0  0
 44 46  2  0  0  0  0
 44 49  1  0  0  0  0
 45 50  2  0  0  0  0
 46 45  1  0  0  0  0
 47 50  1  0  0  0  0
 48 47  2  0  0  0  0
 49 43  1  1  0  0  0
 49 48  1  0  0  0  0
 50 52  1  0  0  0  0
 52 51  1  0  0  0  0
 53 44  1  0  0  0  0
 54 53  1  0  0  0  0
 56 55  1  0  0  0  0
 56 54  1  1  0  0  0
 57 59  1  0  0  0  0
 57 58  1  0  0  0  0
 58 55  1  0  0  0  0
 59 56  1  0  0  0  0
M  END
>  <MODEL>
4

>  <REMARK>
 VINA RESULT:      -4.6      1.951      4.010
  Name = 
  26 active torsions:
  status: ('A' for Active; 'I' for Inactive)
    1  A    between atoms: C_1  and  C_50
    2  A    between atoms: C_3  and  C_5
    3  A    between atoms: C_4  and  C_18
    4  A    between atoms: C_5  and  C_6
    5  A    between atoms: C_5  and  C_29
    6  A    between atoms: C_6  and  C_57
    7  A    between atoms: O_13  and  C_38
    8  A    between atoms: O_13  and  C_54
    9  A    between atoms: N_15  and  C_42
   10  A    between atoms: C_17  and  C_28
   11  A    between atoms: C_17  and  C_47
   12  A    between atoms: C_18  and  C_53
   13  A    between atoms: C_18  and  C_59
   14  A    between atoms: C_20  and  C_21
   15  A    between atoms: C_21  and  O_30
   16  A    between atoms: C_23  and  C_33
   17  A    between atoms: C_25  and  C_28
   18  A    between atoms: O_30  and  N_56
   19  A    between atoms: C_33  and  C_50
   20  A    between atoms: C_34  and  O_58
   21  A    between atoms: C_37  and  C_42
   22  A    between atoms: C_38  and  C_39
   23  A    between atoms: C_41  and  C_46
   24  A    between atoms: C_42  and  C_47
   25  A    between atoms: C_43  and  N_56
   26  A    between atoms: C_54  and  C_57
                            x       y       z     vdW  Elec       q    Type
                         _______ _______ _______ _____ _____    ______ ____

>  <TORSDO>
F 26

$$$$
=
 OpenBabel10222418143D

 59 61  0  0  1  0  0  0  0  0999 V2000
  183.8730  175.9190  137.7010 C   0  0  0  0  0  2  0  0  0  0  0  0
  183.4270  178.2750  136.8710 C   0  0  1  0  0  3  0  0  0  0  0  0
  184.3030  177.0140  136.7270 C   0  0  1  0  0  3  0  0  0  0  0  0
  182.4200  175.5270  137.4200 C   0  0  2  0  0  3  0  0  0  0  0  0
  181.9630  177.8820  136.5940 C   0  0  2  0  0  3  0  0  0  0  0  0
  181.5040  176.7460  137.5210 C   0  0  0  0  0  2  0  0  0  0  0  0
  185.7760  177.2780  136.7610 C   0  0  0  0  0  0  0  0  0  0  0  0
  186.2760  178.0790  135.9270 O   0  0  0  0  0  0  0  0  0  0  0  0
  186.5730  176.6890  137.7500 O   0  0  0  0  0  0  0  0  0  0  0  0
  187.8100  177.1870  138.1150 N   0  0  0  0  0  2  0  0  0  0  0  0
  188.9240  179.1100  136.8940 C   0  0  0  0  0  1  0  0  0  0  0  0
  189.3540  176.8010  136.3830 C   0  0  0  0  0  0  0  0  0  0  0  0
  188.7930  177.6560  137.1870 C   0  0  0  0  0  0  0  0  0  0  0  0
  189.9060  175.9360  135.5710 C   0  0  0  0  0  3  0  0  0  0  0  0
  189.9440  174.4600  135.8540 C   0  0  2  0  0  0  0  0  0  0  0  0
  189.5500  173.7020  134.5940 C   0  0  0  0  0  1  0  0  0  0  0  0
  188.2380  172.7710  136.7140 C   0  0  0  0  0  1  0  0  0  0  0  0
  188.9670  174.0830  136.9780 C   0  0  0  0  0  2  0  0  0  0  0  0
  191.3790  174.0800  136.2300 C   0  0  0  0  0  2  0  0  0  0  0  0
  191.5740  174.1580  137.6120 O   0  0  0  0  0  1  0  0  0  0  0  0
  181.2830  178.6400  134.6260 C   0  0  0  0  0  1  0  0  0  0  0  0
  181.7990  177.5110  135.2580 O   0  0  0  0  0  0  0  0  0  0  0  0
  181.9600  174.4740  138.4120 C   0  0  0  0  0  2  0  0  0  0  0  0
  180.9550  173.5320  137.7620 C   0  0  0  0  0  2  0  0  0  0  0  0
  179.7800  174.0860  135.6050 C   0  0  0  0  0  1  0  0  0  0  0  0
  181.0710  173.5830  136.2450 C   0  0  2  0  0  3  0  0  0  0  0  0
  181.5950  172.2530  135.6430 C   0  0  2  0  0  3  0  0  0  0  0  0
  183.0950  172.2650  135.3300 C   0  0  0  0  0  3  0  0  0  0  0  0
  183.9500  171.9860  136.5540 C   0  0  0  0  0  1  0  0  0  0  0  0
  183.4940  173.5940  134.7250 C   0  0  0  0  0  1  0  0  0  0  0  0
  179.3620  171.8270  134.7260 C   0  0  0  0  0  1  0  0  0  0  0  0
  180.7920  171.5870  134.5950 N   0  0  0  0  0  0  0  0  0  0  0  0
  181.0140  170.1540  134.6780 C   0  0  0  0  0  1  0  0  0  0  0  0
  183.6030  178.9930  138.2380 C   0  0  1  0  0  3  0  0  0  0  0  0
  181.9800  180.7160  138.0950 O   0  0  0  0  0  0  0  0  0  0  0  0
  182.3600  179.7120  138.6780 C   0  0  0  0  0  0  0  0  0  0  0  0
  181.5690  179.1870  139.8260 C   0  0  0  0  0  1  0  0  0  0  0  0
  184.1330  178.0950  139.3620 C   0  0  0  0  0  2  0  0  0  0  0  0
  185.2560  178.7450  140.1530 C   0  0  0  0  0  2  0  0  0  0  0  0
  184.9660  178.5960  141.6270 C   0  0  0  0  0  2  0  0  0  0  0  0
  186.1590  178.2660  142.3200 O   0  0  0  0  0  0  0  0  0  0  0  0
  185.4800  178.9890  144.3860 O   0  0  0  0  0  0  0  0  0  0  0  0
  186.2090  178.2120  143.7150 C   0  0  0  0  0  0  0  0  0  0  0  0
  188.0740  177.8160  145.3290 C   0  0  0  0  0  0  0  0  0  0  0  0
  189.7280  178.4110  143.5310 C   0  0  0  0  0  3  0  0  0  0  0  0
  189.1990  178.4000  144.9070 C   0  0  0  0  0  3  0  0  0  0  0  0
  188.6580  176.3250  142.6670 C   0  0  0  0  0  3  0  0  0  0  0  0
  187.6300  176.1460  143.4960 C   0  0  0  0  0  3  0  0  0  0  0  0
  187.0740  177.1940  144.4060 C   0  0  2  0  0  3  0  0  0  0  0  0
  189.4800  177.5420  142.5420 C   0  0  0  0  0  0  0  0  0  0  0  0
  190.0720  176.6180  140.4550 O   0  0  0  0  0  1  0  0  0  0  0  0
  190.1620  177.7730  141.2360 C   0  0  0  0  0  2  0  0  0  0  0  0
  187.6790  177.9770  146.7580 C   0  0  0  0  0  2  0  0  0  0  0  0
  187.8430  176.6660  147.5120 C   0  0  0  0  0  2  0  0  0  0  0  0
  189.6730  178.0320  148.5120 C   0  0  0  0  0  2  0  0  0  0  0  0
  189.1910  176.6310  148.2180 C   0  0  2  0  0  3  0  0  0  0  0  0
  191.3730  176.5640  147.7420 C   0  0  0  0  0  2  0  0  0  0  0  0
  191.1470  177.9670  148.2590 C   0  0  0  0  0  2  0  0  0  0  0  0
  190.1350  175.9990  147.3970 O   0  0  0  0  0  0  0  0  0  0  0  0
  2 34  1  1  0  0  0
  3  7  1  1  0  0  0
  3  2  1  0  0  0  0
  3  1  1  0  0  0  0
  4  6  1  0  0  0  0
  4  1  1  0  0  0  0
  4 23  1  1  0  0  0
  5 22  1  6  0  0  0
  5  2  1  0  0  0  0
  5  6  1  0  0  0  0
  7  9  1  0  0  0  0
  8  7  2  0  0  0  0
  9 10  1  0  0  0  0
 11 13  1  0  0  0  0
 12 13  2  0  0  0  0
 13 10  1  0  0  0  0
 14 15  1  0  0  0  0
 14 12  2  0  0  0  0
 15 16  1  6  0  0  0
 15 19  1  0  0  0  0
 15 18  1  0  0  0  0
 17 18  1  0  0  0  0
 19 20  1  0  0  0  0
 21 22  1  0  0  0  0
 24 23  1  0  0  0  0
 26 25  1  6  0  0  0
 26 24  1  0  0  0  0
 27 28  1  6  0  0  0
 27 26  1  0  0  0  0
 28 29  1  0  0  0  0
 30 28  1  0  0  0  0
 32 33  1  0  0  0  0
 32 31  1  0  0  0  0
 32 27  1  0  0  0  0
 34 36  1  0  0  0  0
 34 38  1  1  0  0  0
 35 36  2  0  0  0  0
 36 37  1  0  0  0  0
 38 39  1  0  0  0  0
 39 40  1  0  0  0  0
 40 41  1  0  0  0  0
 41 43  1  0  0  0  0
 43 42  2  0  0  0  0
 44 53  1  0  0  0  0
 45 46  1  0  0  0  0
 46 44  2  0  0  0  0
 47 48  2  0  0  0  0
 48 49  1  0  0  0  0
 49 43  1  6  0  0  0
 49 44  1  0  0  0  0
 50 47  1  0  0  0  0
 50 45  2  0  0  0  0
 51 52  1  0  0  0  0
 52 50  1  0  0  0  0
 53 54  1  0  0  0  0
 56 54  1  6  0  0  0
 56 55  1  0  0  0  0
 57 58  1  0  0  0  0
 58 55  1  0  0  0  0
 59 57  1  0  0  0  0
 59 56  1  0  0  0  0
M  END
>  <MODEL>
5

>  <REMARK>
 VINA RESULT:      -4.0      1.667      2.542
  Name = 
  26 active torsions:
  status: ('A' for Active; 'I' for Inactive)
    1  A    between atoms: C_1  and  C_50
    2  A    between atoms: C_3  and  C_5
    3  A    between atoms: C_4  and  C_18
    4  A    between atoms: C_5  and  C_6
    5  A    between atoms: C_5  and  C_29
    6  A    between atoms: C_6  and  C_57
    7  A    between atoms: O_13  and  C_38
    8  A    between atoms: O_13  and  C_54
    9  A    between atoms: N_15  and  C_42
   10  A    between atoms: C_17  and  C_28
   11  A    between atoms: C_17  and  C_47
   12  A    between atoms: C_18  and  C_53
   13  A    between atoms: C_18  and  C_59
   14  A    between atoms: C_20  and  C_21
   15  A    between atoms: C_21  and  O_30
   16  A    between atoms: C_23  and  C_33
   17  A    between atoms: C_25  and  C_28
   18  A    between atoms: O_30  and  N_56
   19  A    between atoms: C_33  and  C_50
   20  A    between atoms: C_34  and  O_58
   21  A    between atoms: C_37  and  C_42
   22  A    between atoms: C_38  and  C_39
   23  A    between atoms: C_41  and  C_46
   24  A    between atoms: C_42  and  C_47
   25  A    between atoms: C_43  and  N_56
   26  A    between atoms: C_54  and  C_57
                            x       y       z     vdW  Elec       q    Type
                         _______ _______ _______ _____ _____    ______ ____

>  <TORSDO>
F 26

$$$$
=
 OpenBabel10222418143D

 59 61  0  0  1  0  0  0  0  0999 V2000
  183.6760  178.5970  137.3120 C   0  0  0  0  0  2  0  0  0  0  0  0
  181.9490  177.3080  138.6520 C   0  0  1  0  0  3  0  0  0  0  0  0
  182.1890  178.2970  137.4930 C   0  0  1  0  0  3  0  0  0  0  0  0
  184.4250  177.3000  136.9990 C   0  0  2  0  0  3  0  0  0  0  0  0
  182.7080  176.0030  138.3410 C   0  0  2  0  0  3  0  0  0  0  0  0
  184.2020  176.2670  138.1040 C   0  0  0  0  0  2  0  0  0  0  0  0
  181.3490  179.5330  137.5510 C   0  0  0  0  0  0  0  0  0  0  0  0
  181.8940  180.6340  137.8270 O   0  0  0  0  0  0  0  0  0  0  0  0
  179.9860  179.4720  137.2390 O   0  0  0  0  0  0  0  0  0  0  0  0
  179.1360  180.5550  137.3620 N   0  0  0  0  0  2  0  0  0  0  0  0
  178.9320  181.1350  139.8220 C   0  0  0  0  0  1  0  0  0  0  0  0
  179.2320  182.7860  138.1020 C   0  0  0  0  0  0  0  0  0  0  0  0
  179.2150  181.5240  138.4130 C   0  0  0  0  0  0  0  0  0  0  0  0
  179.2380  184.0550  137.7800 C   0  0  0  0  0  3  0  0  0  0  0  0
  179.6440  184.5500  136.4190 C   0  0  2  0  0  0  0  0  0  0  0  0
  178.9390  185.8700  136.1400 C   0  0  0  0  0  1  0  0  0  0  0  0
  180.3750  182.5590  135.0030 C   0  0  0  0  0  1  0  0  0  0  0  0
  179.2580  183.5460  135.3230 C   0  0  0  0  0  2  0  0  0  0  0  0
  181.1570  184.7910  136.4290 C   0  0  0  0  0  2  0  0  0  0  0  0
  181.7120  184.4470  137.6650 O   0  0  0  0  0  1  0  0  0  0  0  0
  180.8130  175.7620  137.2170 C   0  0  0  0  0  1  0  0  0  0  0  0
  182.1480  175.3630  137.2340 O   0  0  0  0  0  0  0  0  0  0  0  0
  185.9130  177.5730  136.8660 C   0  0  0  0  0  2  0  0  0  0  0  0
  186.6950  176.2660  136.8500 C   0  0  0  0  0  2  0  0  0  0  0  0
  187.9270  176.0080  134.6690 C   0  0  0  0  0  1  0  0  0  0  0  0
  188.0240  176.4410  136.1290 C   0  0  2  0  0  3  0  0  0  0  0  0
  189.2070  175.7970  136.8980 C   0  0  2  0  0  3  0  0  0  0  0  0
  190.0780  176.8090  137.6520 C   0  0  0  0  0  3  0  0  0  0  0  0
  190.6430  176.2450  138.9440 C   0  0  0  0  0  1  0  0  0  0  0  0
  189.2860  178.0640  137.9520 C   0  0  0  0  0  1  0  0  0  0  0  0
  190.0140  173.4840  136.9520 C   0  0  0  0  0  1  0  0  0  0  0  0
  189.9990  174.7450  136.2250 N   0  0  0  0  0  0  0  0  0  0  0  0
  191.3720  175.2040  136.0980 C   0  0  0  0  0  1  0  0  0  0  0  0
  182.3160  177.8930  140.0450 C   0  0  1  0  0  3  0  0  0  0  0  0
  181.2460  178.4210  142.0950 O   0  0  0  0  0  0  0  0  0  0  0  0
  181.1520  177.8970  140.9950 C   0  0  0  0  0  0  0  0  0  0  0  0
  179.8620  177.2740  140.5870 C   0  0  0  0  0  1  0  0  0  0  0  0
  183.5440  177.2490  140.6990 C   0  0  0  0  0  2  0  0  0  0  0  0
  184.3930  178.2500  141.4660 C   0  0  0  0  0  2  0  0  0  0  0  0
  185.8040  177.7240  141.5590 C   0  0  0  0  0  2  0  0  0  0  0  0
  185.9880  177.0600  142.8000 O   0  0  0  0  0  0  0  0  0  0  0  0
  188.0400  176.0930  143.1250 O   0  0  0  0  0  0  0  0  0  0  0  0
  187.2330  177.0110  143.4310 C   0  0  0  0  0  0  0  0  0  0  0  0
  187.6900  177.5690  145.8220 C   0  0  0  0  0  0  0  0  0  0  0  0
  185.2140  177.7160  146.2390 C   0  0  0  0  0  3  0  0  0  0  0  0
  186.6060  177.3600  146.5740 C   0  0  0  0  0  3  0  0  0  0  0  0
  185.6460  179.5920  144.6470 C   0  0  0  0  0  3  0  0  0  0  0  0
  186.8970  179.3680  144.2470 C   0  0  0  0  0  3  0  0  0  0  0  0
  187.6300  178.0750  144.4160 C   0  0  2  0  0  3  0  0  0  0  0  0
  184.7820  178.6530  145.3860 C   0  0  0  0  0  0  0  0  0  0  0  0
  183.0480  179.9100  144.3980 O   0  0  0  0  0  1  0  0  0  0  0  0
  183.3090  178.8240  145.2390 C   0  0  0  0  0  2  0  0  0  0  0  0
  189.0070  177.0740  146.3170 C   0  0  0  0  0  2  0  0  0  0  0  0
  190.0910  178.1170  146.0970 C   0  0  0  0  0  2  0  0  0  0  0  0
  191.6570  178.6340  144.2270 C   0  0  0  0  0  2  0  0  0  0  0  0
  191.1710  177.5650  145.1770 C   0  0  2  0  0  3  0  0  0  0  0  0
  191.3790  176.4990  143.2240 C   0  0  0  0  0  2  0  0  0  0  0  0
  191.8610  177.9030  142.9360 C   0  0  0  0  0  2  0  0  0  0  0  0
  190.6510  176.5030  144.4240 O   0  0  0  0  0  0  0  0  0  0  0  0
  1  3  1  0  0  0  0
  2 34  1  1  0  0  0
  3  7  1  1  0  0  0
  3  2  1  0  0  0  0
  4 23  1  1  0  0  0
  4  1  1  0  0  0  0
  4  6  1  0  0  0  0
  5 22  1  6  0  0  0
  5  2  1  0  0  0  0
  6  5  1  0  0  0  0
  7  8  2  0  0  0  0
  9 10  1  0  0  0  0
  9  7  1  0  0  0  0
 10 13  1  0  0  0  0
 12 13  2  0  0  0  0
 13 11  1  0  0  0  0
 14 12  2  0  0  0  0
 15 16  1  6  0  0  0
 15 19  1  0  0  0  0
 15 14  1  0  0  0  0
 17 18  1  0  0  0  0
 18 15  1  0  0  0  0
 19 20  1  0  0  0  0
 21 22  1  0  0  0  0
 24 23  1  0  0  0  0
 26 25  1  6  0  0  0
 26 24  1  0  0  0  0
 26 27  1  0  0  0  0
 27 28  1  6  0  0  0
 28 30  1  0  0  0  0
 28 29  1  0  0  0  0
 32 27  1  0  0  0  0
 32 31  1  0  0  0  0
 33 32  1  0  0  0  0
 34 38  1  1  0  0  0
 34 36  1  0  0  0  0
 36 35  2  0  0  0  0
 37 36  1  0  0  0  0
 38 39  1  0  0  0  0
 39 40  1  0  0  0  0
 40 41  1  0  0  0  0
 41 43  1  0  0  0  0
 42 43  2  0  0  0  0
 44 53  1  0  0  0  0
 44 46  2  0  0  0  0
 45 46  1  0  0  0  0
 47 50  1  0  0  0  0
 48 49  1  0  0  0  0
 48 47  2  0  0  0  0
 49 43  1  6  0  0  0
 49 44  1  0  0  0  0
 50 45  2  0  0  0  0
 51 52  1  0  0  0  0
 52 50  1  0  0  0  0
 54 53  1  0  0  0  0
 55 56  1  0  0  0  0
 56 54  1  1  0  0  0
 57 59  1  0  0  0  0
 58 57  1  0  0  0  0
 58 55  1  0  0  0  0
 59 56  1  0  0  0  0
M  END
>  <MODEL>
6

>  <REMARK>
 VINA RESULT:      -3.8      2.570      7.065
  Name = 
  26 active torsions:
  status: ('A' for Active; 'I' for Inactive)
    1  A    between atoms: C_1  and  C_50
    2  A    between atoms: C_3  and  C_5
    3  A    between atoms: C_4  and  C_18
    4  A    between atoms: C_5  and  C_6
    5  A    between atoms: C_5  and  C_29
    6  A    between atoms: C_6  and  C_57
    7  A    between atoms: O_13  and  C_38
    8  A    between atoms: O_13  and  C_54
    9  A    between atoms: N_15  and  C_42
   10  A    between atoms: C_17  and  C_28
   11  A    between atoms: C_17  and  C_47
   12  A    between atoms: C_18  and  C_53
   13  A    between atoms: C_18  and  C_59
   14  A    between atoms: C_20  and  C_21
   15  A    between atoms: C_21  and  O_30
   16  A    between atoms: C_23  and  C_33
   17  A    between atoms: C_25  and  C_28
   18  A    between atoms: O_30  and  N_56
   19  A    between atoms: C_33  and  C_50
   20  A    between atoms: C_34  and  O_58
   21  A    between atoms: C_37  and  C_42
   22  A    between atoms: C_38  and  C_39
   23  A    between atoms: C_41  and  C_46
   24  A    between atoms: C_42  and  C_47
   25  A    between atoms: C_43  and  N_56
   26  A    between atoms: C_54  and  C_57
                            x       y       z     vdW  Elec       q    Type
                         _______ _______ _______ _____ _____    ______ ____

>  <TORSDO>
F 26

$$$$
=
 OpenBabel10222418143D

 59 61  0  0  1  0  0  0  0  0999 V2000
  188.7760  178.9880  142.8330 C   0  0  0  0  0  2  0  0  0  0  0  0
  190.2280  177.0260  142.1420 C   0  0  1  0  0  3  0  0  0  0  0  0
  189.8870  178.0320  143.2600 C   0  0  1  0  0  3  0  0  0  0  0  0
  187.5110  178.1900  142.5060 C   0  0  2  0  0  3  0  0  0  0  0  0
  188.9540  176.2240  141.8070 C   0  0  2  0  0  3  0  0  0  0  0  0
  187.7950  177.1530  141.4180 C   0  0  0  0  0  2  0  0  0  0  0  0
  191.0720  178.7380  143.8380 C   0  0  0  0  0  0  0  0  0  0  0  0
  191.2540  179.9550  143.5670 O   0  0  0  0  0  0  0  0  0  0  0  0
  191.9290  178.0690  144.7190 O   0  0  0  0  0  0  0  0  0  0  0  0
  191.6290  176.8370  145.2720 N   0  0  0  0  0  2  0  0  0  0  0  0
  192.4470  175.9090  147.4850 C   0  0  0  0  0  1  0  0  0  0  0  0
  190.2200  176.7490  147.1530 C   0  0  0  0  0  0  0  0  0  0  0  0
  191.4200  176.6140  146.6700 C   0  0  0  0  0  0  0  0  0  0  0  0
  189.0080  176.8770  147.6290 C   0  0  0  0  0  3  0  0  0  0  0  0
  187.9420  177.6850  146.9420 C   0  0  2  0  0  0  0  0  0  0  0  0
  188.6030  178.6760  145.9950 C   0  0  0  0  0  1  0  0  0  0  0  0
  185.6930  178.7760  147.4450 C   0  0  0  0  0  1  0  0  0  0  0  0
  187.0940  178.4660  147.9570 C   0  0  0  0  0  2  0  0  0  0  0  0
  187.0680  176.7290  146.1240 C   0  0  0  0  0  2  0  0  0  0  0  0
  186.3120  177.4260  145.1770 O   0  0  0  0  0  1  0  0  0  0  0  0
  189.7860  175.0350  143.4820 C   0  0  0  0  0  1  0  0  0  0  0  0
  188.5860  175.4160  142.8840 O   0  0  0  0  0  0  0  0  0  0  0  0
  186.4110  179.1210  142.0300 C   0  0  0  0  0  2  0  0  0  0  0  0
  185.1830  178.3250  141.6090 C   0  0  0  0  0  2  0  0  0  0  0  0
  183.4000  178.6130  143.3640 C   0  0  0  0  0  1  0  0  0  0  0  0
  183.9060  179.0580  141.9940 C   0  0  2  0  0  3  0  0  0  0  0  0
  182.8300  179.0040  140.8780 C   0  0  2  0  0  3  0  0  0  0  0  0
  181.5870  178.1910  141.2570 C   0  0  0  0  0  3  0  0  0  0  0  0
  181.2680  177.1060  140.2430 C   0  0  0  0  0  1  0  0  0  0  0  0
  180.3890  179.1040  141.4150 C   0  0  0  0  0  1  0  0  0  0  0  0
  184.5500  179.3880  139.1750 C   0  0  0  0  0  1  0  0  0  0  0  0
  183.2670  178.7720  139.4850 N   0  0  0  0  0  0  0  0  0  0  0  0
  182.2740  179.3330  138.5850 C   0  0  0  0  0  1  0  0  0  0  0  0
  190.8610  177.6910  140.8880 C   0  0  1  0  0  3  0  0  0  0  0  0
  193.0160  177.1430  141.7100 O   0  0  0  0  0  0  0  0  0  0  0  0
  192.3180  177.3630  140.7320 C   0  0  0  0  0  0  0  0  0  0  0  0
  192.9160  177.2840  139.3700 C   0  0  0  0  0  1  0  0  0  0  0  0
  190.1050  177.4260  139.5810 C   0  0  0  0  0  2  0  0  0  0  0  0
  189.3430  178.6440  139.0850 C   0  0  0  0  0  2  0  0  0  0  0  0
  189.4300  178.6960  137.5790 C   0  0  0  0  0  2  0  0  0  0  0  0
  189.5690  177.3820  137.0610 O   0  0  0  0  0  0  0  0  0  0  0  0
  189.4390  177.9790  134.8530 O   0  0  0  0  0  0  0  0  0  0  0  0
  189.2890  177.0840  135.7260 C   0  0  0  0  0  0  0  0  0  0  0  0
  188.2030  174.9500  136.4390 C   0  0  0  0  0  0  0  0  0  0  0  0
  190.3300  174.2800  137.6010 C   0  0  0  0  0  3  0  0  0  0  0  0
  188.8670  174.3960  137.4570 C   0  0  0  0  0  3  0  0  0  0  0  0
  190.9820  174.3450  135.1900 C   0  0  0  0  0  3  0  0  0  0  0  0
  189.9330  174.9230  134.6070 C   0  0  0  0  0  3  0  0  0  0  0  0
  188.8730  175.6950  135.3270 C   0  0  2  0  0  3  0  0  0  0  0  0
  191.2600  174.2890  136.6370 C   0  0  0  0  0  0  0  0  0  0  0  0
  193.4650  175.0860  136.3850 O   0  0  0  0  0  1  0  0  0  0  0  0
  192.6830  174.1380  137.0520 C   0  0  0  0  0  2  0  0  0  0  0  0
  186.7150  175.0260  136.5140 C   0  0  0  0  0  2  0  0  0  0  0  0
  186.2470  176.4720  136.4760 C   0  0  0  0  0  2  0  0  0  0  0  0
  184.1760  175.8430  137.7140 C   0  0  0  0  0  2  0  0  0  0  0  0
  184.7260  176.5320  136.4880 C   0  0  2  0  0  3  0  0  0  0  0  0
  182.9600  175.3950  135.7240 C   0  0  0  0  0  2  0  0  0  0  0  0
  182.9540  175.1380  137.2130 C   0  0  0  0  0  2  0  0  0  0  0  0
  184.2210  175.8860  135.3510 O   0  0  0  0  0  0  0  0  0  0  0  0
  1  3  1  0  0  0  0
  2 34  1  6  0  0  0
  2  3  1  0  0  0  0
  3  7  1  6  0  0  0
  4 23  1  6  0  0  0
  4  1  1  0  0  0  0
  5  2  1  0  0  0  0
  5 22  1  1  0  0  0
  6  5  1  0  0  0  0
  6  4  1  0  0  0  0
  7  9  1  0  0  0  0
  8  7  2  0  0  0  0
  9 10  1  0  0  0  0
 10 13  1  0  0  0  0
 12 14  2  0  0  0  0
 13 12  2  0  0  0  0
 13 11  1  0  0  0  0
 15 16  1  6  0  0  0
 15 14  1  0  0  0  0
 15 18  1  0  0  0  0
 17 18  1  0  0  0  0
 19 15  1  0  0  0  0
 20 19  1  0  0  0  0
 22 21  1  0  0  0  0
 24 26  1  0  0  0  0
 24 23  1  0  0  0  0
 26 25  1  1  0  0  0
 27 28  1  1  0  0  0
 27 26  1  0  0  0  0
 28 30  1  0  0  0  0
 29 28  1  0  0  0  0
 31 32  1  0  0  0  0
 32 27  1  0  0  0  0
 33 32  1  0  0  0  0
 34 38  1  6  0  0  0
 36 34  1  0  0  0  0
 36 35  2  0  0  0  0
 37 36  1  0  0  0  0
 39 38  1  0  0  0  0
 40 39  1  0  0  0  0
 41 40  1  0  0  0  0
 42 43  2  0  0  0  0
 43 41  1  0  0  0  0
 44 53  1  0  0  0  0
 44 46  2  0  0  0  0
 46 45  1  0  0  0  0
 47 50  1  0  0  0  0
 48 47  2  0  0  0  0
 48 49  1  0  0  0  0
 49 43  1  1  0  0  0
 49 44  1  0  0  0  0
 50 52  1  0  0  0  0
 50 45  2  0  0  0  0
 51 52  1  0  0  0  0
 54 53  1  0  0  0  0
 56 54  1  1  0  0  0
 56 55  1  0  0  0  0
 57 58  1  0  0  0  0
 58 55  1  0  0  0  0
 59 57  1  0  0  0  0
 59 56  1  0  0  0  0
M  END
>  <MODEL>
7

>  <REMARK>
 VINA RESULT:      -3.5      2.659      9.550
  Name = 
  26 active torsions:
  status: ('A' for Active; 'I' for Inactive)
    1  A    between atoms: C_1  and  C_50
    2  A    between atoms: C_3  and  C_5
    3  A    between atoms: C_4  and  C_18
    4  A    between atoms: C_5  and  C_6
    5  A    between atoms: C_5  and  C_29
    6  A    between atoms: C_6  and  C_57
    7  A    between atoms: O_13  and  C_38
    8  A    between atoms: O_13  and  C_54
    9  A    between atoms: N_15  and  C_42
   10  A    between atoms: C_17  and  C_28
   11  A    between atoms: C_17  and  C_47
   12  A    between atoms: C_18  and  C_53
   13  A    between atoms: C_18  and  C_59
   14  A    between atoms: C_20  and  C_21
   15  A    between atoms: C_21  and  O_30
   16  A    between atoms: C_23  and  C_33
   17  A    between atoms: C_25  and  C_28
   18  A    between atoms: O_30  and  N_56
   19  A    between atoms: C_33  and  C_50
   20  A    between atoms: C_34  and  O_58
   21  A    between atoms: C_37  and  C_42
   22  A    between atoms: C_38  and  C_39
   23  A    between atoms: C_41  and  C_46
   24  A    between atoms: C_42  and  C_47
   25  A    between atoms: C_43  and  N_56
   26  A    between atoms: C_54  and  C_57
                            x       y       z     vdW  Elec       q    Type
                         _______ _______ _______ _____ _____    ______ ____

>  <TORSDO>
F 26

$$$$
=
 OpenBabel10222418143D

 59 61  0  0  1  0  0  0  0  0999 V2000
  191.2440  177.8540  141.3450 C   0  0  0  0  0  2  0  0  0  0  0  0
  189.1050  176.6860  140.6410 C   0  0  1  0  0  3  0  0  0  0  0  0
  190.6470  176.6380  140.6420 C   0  0  1  0  0  3  0  0  0  0  0  0
  190.7660  177.8910  142.7990 C   0  0  2  0  0  3  0  0  0  0  0  0
  188.6210  176.7280  142.1040 C   0  0  2  0  0  3  0  0  0  0  0  0
  189.2380  177.9110  142.8630 C   0  0  0  0  0  2  0  0  0  0  0  0
  191.2570  176.3840  139.3000 C   0  0  0  0  0  0  0  0  0  0  0  0
  192.3320  176.9660  138.9940 O   0  0  0  0  0  0  0  0  0  0  0  0
  190.6730  175.4610  138.4240 O   0  0  0  0  0  0  0  0  0  0  0  0
  191.0330  175.3530  137.0940 N   0  0  0  0  0  2  0  0  0  0  0  0
  189.9320  173.3970  135.9130 C   0  0  0  0  0  1  0  0  0  0  0  0
  192.2760  173.4640  136.4420 C   0  0  0  0  0  0  0  0  0  0  0  0
  191.1480  174.1110  136.3910 C   0  0  0  0  0  0  0  0  0  0  0  0
  193.4110  172.8160  136.5060 C   0  0  0  0  0  3  0  0  0  0  0  0
  194.7140  173.4830  136.8470 C   0  0  2  0  0  0  0  0  0  0  0  0
  195.1780  174.3060  135.6540 C   0  0  0  0  0  1  0  0  0  0  0  0
  196.7780  172.2250  136.0350 C   0  0  0  0  0  1  0  0  0  0  0  0
  195.7990  172.4480  137.1810 C   0  0  0  0  0  2  0  0  0  0  0  0
  194.4750  174.4240  138.0320 C   0  0  0  0  0  2  0  0  0  0  0  0
  195.6860  174.8670  138.5740 O   0  0  0  0  0  1  0  0  0  0  0  0
  187.8530  175.3100  143.6240 C   0  0  0  0  0  1  0  0  0  0  0  0
  188.9190  175.5280  142.7530 O   0  0  0  0  0  0  0  0  0  0  0  0
  191.3100  179.1220  143.5000 C   0  0  0  0  0  2  0  0  0  0  0  0
  190.6590  179.2890  144.8670 C   0  0  0  0  0  2  0  0  0  0  0  0
  188.5690  178.0290  145.4840 C   0  0  0  0  0  1  0  0  0  0  0  0
  190.0880  177.9660  145.3580 C   0  0  2  0  0  3  0  0  0  0  0  0
  190.8050  177.4450  146.6310 C   0  0  2  0  0  3  0  0  0  0  0  0
  191.9530  176.4720  146.3390 C   0  0  0  0  0  3  0  0  0  0  0  0
  191.6660  175.5700  145.1510 C   0  0  0  0  0  1  0  0  0  0  0  0
  192.2470  175.6250  147.5580 C   0  0  0  0  0  1  0  0  0  0  0  0
  188.6940  176.4660  147.4030 C   0  0  0  0  0  1  0  0  0  0  0  0
  189.9800  177.0320  147.7870 N   0  0  0  0  0  0  0  0  0  0  0  0
  189.7250  178.1960  148.6170 C   0  0  0  0  0  1  0  0  0  0  0  0
  188.5260  177.8490  139.7870 C   0  0  1  0  0  3  0  0  0  0  0  0
  188.1510  179.7660  141.1310 O   0  0  0  0  0  0  0  0  0  0  0  0
  187.6670  178.7830  140.5900 C   0  0  0  0  0  0  0  0  0  0  0  0
  186.2060  178.5230  140.7140 C   0  0  0  0  0  1  0  0  0  0  0  0
  189.5750  178.6310  138.9890 C   0  0  0  0  0  2  0  0  0  0  0  0
  189.1050  178.9810  137.5860 C   0  0  0  0  0  2  0  0  0  0  0  0
  188.4580  177.7640  136.9710 C   0  0  0  0  0  2  0  0  0  0  0  0
  187.0640  177.9860  136.8200 O   0  0  0  0  0  0  0  0  0  0  0  0
  186.6130  175.7620  136.5000 O   0  0  0  0  0  0  0  0  0  0  0  0
  186.1820  176.9450  136.5230 C   0  0  0  0  0  0  0  0  0  0  0  0
  183.9240  177.1940  137.5620 C   0  0  0  0  0  0  0  0  0  0  0  0
  183.7120  174.6900  137.6520 C   0  0  0  0  0  3  0  0  0  0  0  0
  183.5510  176.0630  138.1670 C   0  0  0  0  0  3  0  0  0  0  0  0
  183.7740  175.1790  135.2030 C   0  0  0  0  0  3  0  0  0  0  0  0
  184.1220  176.4640  135.1590 C   0  0  0  0  0  3  0  0  0  0  0  0
  184.7220  177.2270  136.2970 C   0  0  2  0  0  3  0  0  0  0  0  0
  183.8420  174.2930  136.3800 C   0  0  0  0  0  0  0  0  0  0  0  0
  184.1840  172.1650  137.3360 O   0  0  0  0  0  1  0  0  0  0  0  0
  183.9740  172.8300  136.1260 C   0  0  0  0  0  2  0  0  0  0  0  0
  183.7300  178.4860  138.2830 C   0  0  0  0  0  2  0  0  0  0  0  0
  182.2520  178.8200  138.4010 C   0  0  0  0  0  2  0  0  0  0  0  0
  182.3590  178.4800  140.8680 C   0  0  0  0  0  2  0  0  0  0  0  0
  181.9580  179.4290  139.7640 C   0  0  2  0  0  3  0  0  0  0  0  0
  180.2940  179.5900  141.2480 C   0  0  0  0  0  2  0  0  0  0  0  0
  181.2780  178.6400  141.8920 C   0  0  0  0  0  2  0  0  0  0  0  0
  180.5850  179.6890  139.8780 O   0  0  0  0  0  0  0  0  0  0  0  0
  1  4  1  0  0  0  0
  2 34  1  6  0  0  0
  2  3  1  0  0  0  0
  2  5  1  0  0  0  0
  3  7  1  6  0  0  0
  3  1  1  0  0  0  0
  4  6  1  0  0  0  0
  4 23  1  6  0  0  0
  5 22  1  1  0  0  0
  5  6  1  0  0  0  0
  8  7  2  0  0  0  0
  9  7  1  0  0  0  0
 10  9  1  0  0  0  0
 11 13  1  0  0  0  0
 12 14  2  0  0  0  0
 13 12  2  0  0  0  0
 13 10  1  0  0  0  0
 14 15  1  0  0  0  0
 15 16  1  6  0  0  0
 15 18  1  0  0  0  0
 15 19  1  0  0  0  0
 17 18  1  0  0  0  0
 19 20  1  0  0  0  0
 22 21  1  0  0  0  0
 23 24  1  0  0  0  0
 24 26  1  0  0  0  0
 26 25  1  1  0  0  0
 26 27  1  0  0  0  0
 27 28  1  6  0  0  0
 27 32  1  0  0  0  0
 28 30  1  0  0  0  0
 29 28  1  0  0  0  0
 31 32  1  0  0  0  0
 32 33  1  0  0  0  0
 34 38  1  1  0  0  0
 34 36  1  0  0  0  0
 36 37  1  0  0  0  0
 36 35  2  0  0  0  0
 39 38  1  0  0  0  0
 40 39  1  0  0  0  0
 41 40  1  0  0  0  0
 42 43  2  0  0  0  0
 43 41  1  0  0  0  0
 44 46  2  0  0  0  0
 44 53  1  0  0  0  0
 45 46  1  0  0  0  0
 47 50  1  0  0  0  0
 48 47  2  0  0  0  0
 48 49  1  0  0  0  0
 49 43  1  1  0  0  0
 49 44  1  0  0  0  0
 50 45  2  0  0  0  0
 52 50  1  0  0  0  0
 52 51  1  0  0  0  0
 53 54  1  0  0  0  0
 55 58  1  0  0  0  0
 56 54  1  6  0  0  0
 56 59  1  0  0  0  0
 56 55  1  0  0  0  0
 57 58  1  0  0  0  0
 59 57  1  0  0  0  0
M  END
>  <MODEL>
8

>  <REMARK>
 VINA RESULT:      -2.9      2.990      9.748
  Name = 
  26 active torsions:
  status: ('A' for Active; 'I' for Inactive)
    1  A    between atoms: C_1  and  C_50
    2  A    between atoms: C_3  and  C_5
    3  A    between atoms: C_4  and  C_18
    4  A    between atoms: C_5  and  C_6
    5  A    between atoms: C_5  and  C_29
    6  A    between atoms: C_6  and  C_57
    7  A    between atoms: O_13  and  C_38
    8  A    between atoms: O_13  and  C_54
    9  A    between atoms: N_15  and  C_42
   10  A    between atoms: C_17  and  C_28
   11  A    between atoms: C_17  and  C_47
   12  A    between atoms: C_18  and  C_53
   13  A    between atoms: C_18  and  C_59
   14  A    between atoms: C_20  and  C_21
   15  A    between atoms: C_21  and  O_30
   16  A    between atoms: C_23  and  C_33
   17  A    between atoms: C_25  and  C_28
   18  A    between atoms: O_30  and  N_56
   19  A    between atoms: C_33  and  C_50
   20  A    between atoms: C_34  and  O_58
   21  A    between atoms: C_37  and  C_42
   22  A    between atoms: C_38  and  C_39
   23  A    between atoms: C_41  and  C_46
   24  A    between atoms: C_42  and  C_47
   25  A    between atoms: C_43  and  N_56
   26  A    between atoms: C_54  and  C_57
                            x       y       z     vdW  Elec       q    Type
                         _______ _______ _______ _____ _____    ______ ____

>  <TORSDO>
F 26

$$$$
=
 OpenBabel10222418143D

 59 61  0  0  1  0  0  0  0  0999 V2000
  189.4380  174.7000  137.5210 C   0  0  0  0  0  2  0  0  0  0  0  0
  190.0150  177.0990  136.9310 C   0  0  1  0  0  3  0  0  0  0  0  0
  190.5510  175.6650  137.1200 C   0  0  1  0  0  3  0  0  0  0  0  0
  188.3670  174.6700  136.4280 C   0  0  2  0  0  3  0  0  0  0  0  0
  188.9320  177.0710  135.8340 C   0  0  2  0  0  3  0  0  0  0  0  0
  187.8160  176.0740  136.1750 C   0  0  0  0  0  2  0  0  0  0  0  0
  191.7540  175.5670  138.0040 C   0  0  0  0  0  0  0  0  0  0  0  0
  191.6090  175.6710  139.2510 O   0  0  0  0  0  0  0  0  0  0  0  0
  193.0120  175.2990  137.4530 O   0  0  0  0  0  0  0  0  0  0  0  0
  193.6990  174.1200  137.6810 N   0  0  0  0  0  2  0  0  0  0  0  0
  193.0080  172.3220  136.0320 C   0  0  0  0  0  1  0  0  0  0  0  0
  195.3010  172.8730  136.4930 C   0  0  0  0  0  0  0  0  0  0  0  0
  194.0490  173.1840  136.6560 C   0  0  0  0  0  0  0  0  0  0  0  0
  196.5630  172.5590  136.3430 C   0  0  0  0  0  3  0  0  0  0  0  0
  197.6860  173.4370  136.8200 C   0  0  2  0  0  0  0  0  0  0  0  0
  199.0090  172.7220  136.5880 C   0  0  0  0  0  1  0  0  0  0  0  0
  198.2780  175.0230  138.7260 C   0  0  0  0  0  1  0  0  0  0  0  0
  197.5520  173.7470  138.3180 C   0  0  0  0  0  2  0  0  0  0  0  0
  197.6700  174.7260  135.9940 C   0  0  0  0  0  2  0  0  0  0  0  0
  198.0930  174.4880  134.6820 O   0  0  0  0  0  1  0  0  0  0  0  0
  190.8630  176.9920  134.7480 C   0  0  0  0  0  1  0  0  0  0  0  0
  189.4970  176.7590  134.5960 O   0  0  0  0  0  0  0  0  0  0  0  0
  187.2280  173.7530  136.8340 C   0  0  0  0  0  2  0  0  0  0  0  0
  185.9620  174.1010  136.0610 C   0  0  0  0  0  2  0  0  0  0  0  0
  184.4870  172.4490  137.2590 C   0  0  0  0  0  1  0  0  0  0  0  0
  184.7290  173.9210  136.9350 C   0  0  2  0  0  3  0  0  0  0  0  0
  183.4850  174.6530  136.3670 C   0  0  2  0  0  3  0  0  0  0  0  0
  183.0520  175.8670  137.1960 C   0  0  0  0  0  3  0  0  0  0  0  0
  183.6230  177.1710  136.6650 C   0  0  0  0  0  1  0  0  0  0  0  0
  183.4580  175.6890  138.6430 C   0  0  0  0  0  1  0  0  0  0  0  0
  181.7750  174.3270  134.6430 C   0  0  0  0  0  1  0  0  0  0  0  0
  182.3430  173.8420  135.8920 N   0  0  0  0  0  0  0  0  0  0  0  0
  181.2980  173.8740  136.9010 C   0  0  0  0  0  1  0  0  0  0  0  0
  189.5090  177.7450  138.2510 C   0  0  1  0  0  3  0  0  0  0  0  0
  188.6750  179.9460  137.9610 O   0  0  0  0  0  0  0  0  0  0  0  0
  188.4200  178.7530  138.0220 C   0  0  0  0  0  0  0  0  0  0  0  0
  187.0130  178.2930  137.8460 C   0  0  0  0  0  1  0  0  0  0  0  0
  189.0950  176.7390  139.3310 C   0  0  0  0  0  2  0  0  0  0  0  0
  189.4650  177.1950  140.7330 C   0  0  0  0  0  2  0  0  0  0  0  0
  188.2040  177.5690  141.4740 C   0  0  0  0  0  2  0  0  0  0  0  0
  188.1010  176.8010  142.6630 O   0  0  0  0  0  0  0  0  0  0  0  0
  186.3410  176.2330  144.0160 O   0  0  0  0  0  0  0  0  0  0  0  0
  187.1730  177.1090  143.6590 C   0  0  0  0  0  0  0  0  0  0  0  0
  187.0070  178.3480  145.8220 C   0  0  0  0  0  0  0  0  0  0  0  0
  184.5020  178.1550  145.7160 C   0  0  0  0  0  3  0  0  0  0  0  0
  185.8130  178.1550  146.3900 C   0  0  0  0  0  3  0  0  0  0  0  0
  185.0560  179.5930  143.7490 C   0  0  0  0  0  3  0  0  0  0  0  0
  186.3820  179.4990  143.6690 C   0  0  0  0  0  3  0  0  0  0  0  0
  187.2070  178.4490  144.3430 C   0  0  2  0  0  3  0  0  0  0  0  0
  184.1650  178.7430  144.5610 C   0  0  0  0  0  0  0  0  0  0  0  0
  182.6890  178.8160  142.7230 O   0  0  0  0  0  1  0  0  0  0  0  0
  182.7530  178.6040  144.1020 C   0  0  0  0  0  2  0  0  0  0  0  0
  188.2270  178.2440  146.6730 C   0  0  0  0  0  2  0  0  0  0  0  0
  189.1220  177.1120  146.1940 C   0  0  0  0  0  2  0  0  0  0  0  0
  190.2670  179.1270  145.2770 C   0  0  0  0  0  2  0  0  0  0  0  0
  190.4260  177.6710  145.6420 C   0  0  2  0  0  3  0  0  0  0  0  0
  191.5240  177.8650  143.7060 C   0  0  0  0  0  2  0  0  0  0  0  0
  191.0600  179.2710  144.0150 C   0  0  0  0  0  2  0  0  0  0  0  0
  190.7920  176.9600  144.4910 O   0  0  0  0  0  0  0  0  0  0  0  0
  2  3  1  0  0  0  0
  2 34  1  1  0  0  0
  3  1  1  0  0  0  0
  3  7  1  1  0  0  0
  4 23  1  1  0  0  0
  4  1  1  0  0  0  0
  5 22  1  6  0  0  0
  5  6  1  0  0  0  0
  5  2  1  0  0  0  0
  6  4  1  0  0  0  0
  7  8  2  0  0  0  0
  9 10  1  0  0  0  0
  9  7  1  0  0  0  0
 11 13  1  0  0  0  0
 12 13  2  0  0  0  0
 13 10  1  0  0  0  0
 14 12  2  0  0  0  0
 14 15  1  0  0  0  0
 15 16  1  6  0  0  0
 15 18  1  0  0  0  0
 18 17  1  0  0  0  0
 19 15  1  0  0  0  0
 20 19  1  0  0  0  0
 22 21  1  0  0  0  0
 24 23  1  0  0  0  0
 24 26  1  0  0  0  0
 26 25  1  6  0  0  0
 27 26  1  0  0  0  0
 27 28  1  1  0  0  0
 28 30  1  0  0  0  0
 29 28  1  0  0  0  0
 31 32  1  0  0  0  0
 32 27  1  0  0  0  0
 32 33  1  0  0  0  0
 34 38  1  1  0  0  0
 35 36  2  0  0  0  0
 36 34  1  0  0  0  0
 37 36  1  0  0  0  0
 38 39  1  0  0  0  0
 39 40  1  0  0  0  0
 40 41  1  0  0  0  0
 41 43  1  0  0  0  0
 43 42  2  0  0  0  0
 44 46  2  0  0  0  0
 44 53  1  0  0  0  0
 45 46  1  0  0  0  0
 47 50  1  0  0  0  0
 48 47  2  0  0  0  0
 48 49  1  0  0  0  0
 49 43  1  6  0  0  0
 49 44  1  0  0  0  0
 50 45  2  0  0  0  0
 51 52  1  0  0  0  0
 52 50  1  0  0  0  0
 54 53  1  0  0  0  0
 55 56  1  0  0  0  0
 56 54  1  6  0  0  0
 57 58  1  0  0  0  0
 57 59  1  0  0  0  0
 58 55  1  0  0  0  0
 59 56  1  0  0  0  0
M  END
>  <MODEL>
9

>  <REMARK>
 VINA RESULT:      -2.9      3.366      6.926
  Name = 
  26 active torsions:
  status: ('A' for Active; 'I' for Inactive)
    1  A    between atoms: C_1  and  C_50
    2  A    between atoms: C_3  and  C_5
    3  A    between atoms: C_4  and  C_18
    4  A    between atoms: C_5  and  C_6
    5  A    between atoms: C_5  and  C_29
    6  A    between atoms: C_6  and  C_57
    7  A    between atoms: O_13  and  C_38
    8  A    between atoms: O_13  and  C_54
    9  A    between atoms: N_15  and  C_42
   10  A    between atoms: C_17  and  C_28
   11  A    between atoms: C_17  and  C_47
   12  A    between atoms: C_18  and  C_53
   13  A    between atoms: C_18  and  C_59
   14  A    between atoms: C_20  and  C_21
   15  A    between atoms: C_21  and  O_30
   16  A    between atoms: C_23  and  C_33
   17  A    between atoms: C_25  and  C_28
   18  A    between atoms: O_30  and  N_56
   19  A    between atoms: C_33  and  C_50
   20  A    between atoms: C_34  and  O_58
   21  A    between atoms: C_37  and  C_42
   22  A    between atoms: C_38  and  C_39
   23  A    between atoms: C_41  and  C_46
   24  A    between atoms: C_42  and  C_47
   25  A    between atoms: C_43  and  N_56
   26  A    between atoms: C_54  and  C_57
                            x       y       z     vdW  Elec       q    Type
                         _______ _______ _______ _____ _____    ______ ____

>  <TORSDO>
F 26

$$$$
