=
 OpenBabel10222416293D

 32 34  0  0  1  0  0  0  0  0999 V2000
  186.1580  178.0500  145.6400 C   0  0  0  0  0  0  0  0  0  0  0  0
  188.5360  177.6220  145.4140 C   0  0  0  0  0  0  0  0  0  0  0  0
  187.4140  177.8630  146.2140 C   0  0  0  0  0  3  0  0  0  0  0  0
  183.7670  179.0220  144.5150 C   0  0  0  0  0  0  0  0  0  0  0  0
  186.0100  178.0110  144.2480 C   0  0  0  0  0  0  0  0  0  0  0  0
  183.9320  179.0380  145.8090 N   0  0  0  0  0  0  0  0  0  0  0  0
  187.1230  177.7830  143.4390 C   0  0  0  0  0  3  0  0  0  0  0  0
  190.7830  175.9380  144.4890 C   0  0  0  0  0  2  0  0  0  0  0  0
  190.5910  176.7790  143.2770 C   0  0  0  0  0  0  0  0  0  0  0  0
  190.8780  176.8020  145.7060 C   0  0  0  0  0  0  0  0  0  0  0  0
  188.3890  177.5780  143.9990 C   0  0  0  0  0  0  0  0  0  0  0  0
  184.6540  178.1850  143.6330 C   0  0  0  0  0  2  0  0  0  0  0  0
  189.8310  177.5170  146.1160 C   0  0  0  0  0  3  0  0  0  0  0  0
  189.4950  177.4540  143.0880 N   0  0  0  0  0  0  0  0  0  0  0  0
  191.6110  176.7730  142.2770 N   0  0  0  0  0  2  0  0  0  0  0  0
  184.9450  178.2370  146.5000 C   0  0  0  0  0  2  0  0  0  0  0  0
  192.0520  176.8510  146.4580 O   0  0  0  0  0  0  0  0  0  0  0  0
  192.3450  175.9040  147.4760 C   0  0  0  0  0  1  0  0  0  0  0  0
  181.8120  179.2560  143.2680 O   0  0  0  0  0  1  0  0  0  0  0  0
  182.7310  179.7970  143.9150 N   0  0  0  0  0  2  0  0  0  0  0  0
  191.5030  177.5400  141.0470 C   0  0  0  0  0  2  0  0  0  0  0  0
  191.2620  176.6370  139.9340 N   0  0  0  0  0  2  0  0  0  0  0  0
  190.8880  176.5930  137.2780 S   0  0  0  0  0  0  0  0  0  0  0  0
  190.4430  176.9730  138.8100 C   0  0  0  0  0  0  0  0  0  0  0  0
  189.2140  177.7810  139.0280 C   0  0  0  0  0  2  0  0  0  0  0  0
  189.0650  178.8000  137.9140 C   0  0  0  0  0  2  0  0  0  0  0  0
  187.8580  178.4780  137.0470 C   0  0  0  0  0  2  0  0  0  0  0  0
  186.6570  176.0510  136.6730 S   0  0  0  0  0  1  0  0  0  0  0  0
  186.9300  177.4920  137.7440 C   0  0  2  0  0  3  0  0  0  0  0  0
  185.6220  178.1290  138.0760 C   0  0  0  0  0  0  0  0  0  0  0  0
  184.5880  177.8000  137.4420 O   0  0  0  0  0  0  0  0  0  0  0  0
  185.5390  179.0780  139.0890 O   0  0  0  0  0  1  0  0  0  0  0  0
  1  3  1  0  0  0  0
  1 16  1  0  0  0  0
  2 13  1  0  0  0  0
  2  3  2  0  0  0  0
  4  6  2  0  0  0  0
  5  1  2  0  0  0  0
  6 16  1  0  0  0  0
  7 11  2  0  0  0  0
  7  5  1  0  0  0  0
  8 10  1  0  0  0  0
  9  8  1  0  0  0  0
 10 13  2  0  0  0  0
 10 17  1  0  0  0  0
 11  2  1  0  0  0  0
 12  5  1  0  0  0  0
 12  4  1  0  0  0  0
 14  9  2  0  0  0  0
 14 11  1  0  0  0  0
 15  9  1  0  0  0  0
 17 18  1  0  0  0  0
 19 20  1  0  0  0  0
 20  4  1  0  0  0  0
 21 15  1  0  0  0  0
 22 21  1  0  0  0  0
 23 24  2  0  0  0  0
 24 25  1  0  0  0  0
 24 22  1  0  0  0  0
 26 25  1  0  0  0  0
 27 29  1  0  0  0  0
 27 26  1  0  0  0  0
 29 28  1  6  0  0  0
 29 30  1  0  0  0  0
 30 32  1  0  0  0  0
 31 30  2  0  0  0  0
M  END
>  <MODEL>
1

>  <REMARK>
 VINA RESULT:      -8.4      0.000      0.000
  Name = 
  10 active torsions:
  status: ('A' for Active; 'I' for Inactive)
    1  A    between atoms: C_2  and  C_24
    2  A    between atoms: C_2  and  C_30
    3  A    between atoms: C_5  and  N_23
    4  A    between atoms: O_8  and  C_16
    5  A    between atoms: C_15  and  C_27
    6  A    between atoms: C_22  and  C_24
    7  A    between atoms: C_22  and  C_27
    8  A    between atoms: N_26  and  C_30
    9  A    between atoms: N_26  and  C_31
   10  A    between atoms: N_29  and  C_31
                            x       y       z     vdW  Elec       q    Type
                         _______ _______ _______ _____ _____    ______ ____

>  <TORSDO>
F 10

$$$$
=
 OpenBabel10222416293D

 32 34  0  0  1  0  0  0  0  0999 V2000
  188.4130  177.4540  145.9650 C   0  0  0  0  0  0  0  0  0  0  0  0
  186.8040  177.8130  144.1840 C   0  0  0  0  0  0  0  0  0  0  0  0
  187.0950  177.5900  145.5340 C   0  0  0  0  0  3  0  0  0  0  0  0
  190.9680  176.5790  146.7650 C   0  0  0  0  0  0  0  0  0  0  0  0
  189.4640  177.5270  145.0420 C   0  0  0  0  0  0  0  0  0  0  0  0
  189.9700  176.5310  147.6040 N   0  0  0  0  0  0  0  0  0  0  0  0
  189.1860  177.7360  143.6910 C   0  0  0  0  0  3  0  0  0  0  0  0
  185.7180  179.4460  141.9720 C   0  0  0  0  0  2  0  0  0  0  0  0
  186.7120  178.6370  141.2150 C   0  0  0  0  0  0  0  0  0  0  0  0
  184.8560  178.5540  142.8080 C   0  0  0  0  0  0  0  0  0  0  0  0
  187.8700  177.8900  143.2440 C   0  0  0  0  0  0  0  0  0  0  0  0
  190.8830  177.4070  145.5090 C   0  0  0  0  0  2  0  0  0  0  0  0
  185.3730  177.8640  143.8220 C   0  0  0  0  0  3  0  0  0  0  0  0
  187.6700  177.9990  141.8240 N   0  0  0  0  0  0  0  0  0  0  0  0
  186.6400  178.6320  139.7890 N   0  0  0  0  0  2  0  0  0  0  0  0
  188.7280  177.2860  147.4210 C   0  0  0  0  0  2  0  0  0  0  0  0
  183.4860  178.4540  142.5650 O   0  0  0  0  0  0  0  0  0  0  0  0
  182.9250  178.6390  141.2730 C   0  0  0  0  0  1  0  0  0  0  0  0
  192.8460  176.0740  148.0490 O   0  0  0  0  0  1  0  0  0  0  0  0
  192.1640  175.8490  147.0290 N   0  0  0  0  0  2  0  0  0  0  0  0
  187.5810  177.8940  138.9620 C   0  0  0  0  0  2  0  0  0  0  0  0
  187.8360  178.6370  137.7400 N   0  0  0  0  0  2  0  0  0  0  0  0
  187.1450  177.8250  135.2790 S   0  0  0  0  0  0  0  0  0  0  0  0
  188.2140  178.0180  136.5060 C   0  0  0  0  0  0  0  0  0  0  0  0
  189.5780  177.4400  136.3770 C   0  0  0  0  0  2  0  0  0  0  0  0
  189.5200  175.9370  136.5760 C   0  0  0  0  0  2  0  0  0  0  0  0
  190.4360  175.5080  137.7110 C   0  0  0  0  0  2  0  0  0  0  0  0
  193.0320  176.3590  137.6560 S   0  0  0  0  0  1  0  0  0  0  0  0
  191.3180  176.6610  138.1700 C   0  0  2  0  0  3  0  0  0  0  0  0
  191.2570  176.8260  139.6510 C   0  0  0  0  0  0  0  0  0  0  0  0
  190.3180  176.3010  140.3000 O   0  0  0  0  0  0  0  0  0  0  0  0
  192.2380  177.5510  140.3190 O   0  0  0  0  0  1  0  0  0  0  0  0
  1 16  1  0  0  0  0
  2  3  2  0  0  0  0
  3  1  1  0  0  0  0
  4 20  1  0  0  0  0
  4  6  2  0  0  0  0
  5 12  1  0  0  0  0
  5  1  2  0  0  0  0
  7  5  1  0  0  0  0
  8 10  1  0  0  0  0
  9 14  2  0  0  0  0
  9  8  1  0  0  0  0
 10 13  2  0  0  0  0
 11  7  2  0  0  0  0
 11  2  1  0  0  0  0
 12  4  1  0  0  0  0
 13  2  1  0  0  0  0
 14 11  1  0  0  0  0
 15  9  1  0  0  0  0
 16  6  1  0  0  0  0
 17 10  1  0  0  0  0
 18 17  1  0  0  0  0
 20 19  1  0  0  0  0
 21 15  1  0  0  0  0
 22 21  1  0  0  0  0
 23 24  2  0  0  0  0
 24 22  1  0  0  0  0
 25 24  1  0  0  0  0
 25 26  1  0  0  0  0
 26 27  1  0  0  0  0
 27 29  1  0  0  0  0
 29 28  1  1  0  0  0
 29 30  1  0  0  0  0
 30 31  2  0  0  0  0
 30 32  1  0  0  0  0
M  END
>  <MODEL>
2

>  <REMARK>
 VINA RESULT:      -8.3      2.679      6.035
  Name = 
  10 active torsions:
  status: ('A' for Active; 'I' for Inactive)
    1  A    between atoms: C_2  and  C_24
    2  A    between atoms: C_2  and  C_30
    3  A    between atoms: C_5  and  N_23
    4  A    between atoms: O_8  and  C_16
    5  A    between atoms: C_15  and  C_27
    6  A    between atoms: C_22  and  C_24
    7  A    between atoms: C_22  and  C_27
    8  A    between atoms: N_26  and  C_30
    9  A    between atoms: N_26  and  C_31
   10  A    between atoms: N_29  and  C_31
                            x       y       z     vdW  Elec       q    Type
                         _______ _______ _______ _____ _____    ______ ____

>  <TORSDO>
F 10

$$$$
=
 OpenBabel10222416293D

 32 34  0  0  1  0  0  0  0  0999 V2000
  188.6900  177.3580  146.0410 C   0  0  0  0  0  0  0  0  0  0  0  0
  187.1030  177.7520  144.2480 C   0  0  0  0  0  0  0  0  0  0  0  0
  187.3780  177.5130  145.5990 C   0  0  0  0  0  3  0  0  0  0  0  0
  191.2270  176.4470  146.8580 C   0  0  0  0  0  0  0  0  0  0  0  0
  189.7510  177.4270  145.1290 C   0  0  0  0  0  0  0  0  0  0  0  0
  190.2200  176.4030  147.6870 N   0  0  0  0  0  0  0  0  0  0  0  0
  189.4890  177.6530  143.7780 C   0  0  0  0  0  3  0  0  0  0  0  0
  186.0580  179.4170  142.0400 C   0  0  0  0  0  2  0  0  0  0  0  0
  187.0490  178.6030  141.2860 C   0  0  0  0  0  0  0  0  0  0  0  0
  185.1770  178.5270  142.8590 C   0  0  0  0  0  0  0  0  0  0  0  0
  188.1790  177.8250  143.3190 C   0  0  0  0  0  0  0  0  0  0  0  0
  191.1640  177.2880  145.6090 C   0  0  0  0  0  2  0  0  0  0  0  0
  185.6770  177.8220  143.8720 C   0  0  0  0  0  3  0  0  0  0  0  0
  187.9940  177.9500  141.8980 N   0  0  0  0  0  0  0  0  0  0  0  0
  186.9910  178.6130  139.8590 N   0  0  0  0  0  2  0  0  0  0  0  0
  188.9890  177.1730  147.4980 C   0  0  0  0  0  2  0  0  0  0  0  0
  183.8080  178.4440  142.6020 O   0  0  0  0  0  0  0  0  0  0  0  0
  182.8330  178.9820  143.4840 C   0  0  0  0  0  1  0  0  0  0  0  0
  193.0890  175.9140  148.1530 O   0  0  0  0  0  1  0  0  0  0  0  0
  192.4120  175.7020  147.1270 N   0  0  0  0  0  2  0  0  0  0  0  0
  187.9330  177.8720  139.0350 C   0  0  0  0  0  2  0  0  0  0  0  0
  187.8520  178.3460  137.6640 N   0  0  0  0  0  2  0  0  0  0  0  0
  188.4810  176.5650  135.7590 S   0  0  0  0  0  0  0  0  0  0  0  0
  187.4290  177.5270  136.5700 C   0  0  0  0  0  0  0  0  0  0  0  0
  186.0260  177.6330  136.0890 C   0  0  0  0  0  2  0  0  0  0  0  0
  185.1230  176.7620  136.9410 C   0  0  0  0  0  2  0  0  0  0  0  0
  183.8420  177.5000  137.2970 C   0  0  0  0  0  2  0  0  0  0  0  0
  182.7230  176.8030  139.6910 S   0  0  0  0  0  1  0  0  0  0  0  0
  183.8310  177.9030  138.7650 C   0  0  2  0  0  3  0  0  0  0  0  0
  183.3900  179.3180  138.9300 C   0  0  0  0  0  0  0  0  0  0  0  0
  184.2470  180.2290  139.0570 O   0  0  0  0  0  1  0  0  0  0  0  0
  182.0360  179.6380  138.9350 O   0  0  0  0  0  0  0  0  0  0  0  0
  1 16  1  0  0  0  0
  2  3  2  0  0  0  0
  3  1  1  0  0  0  0
  4 20  1  0  0  0  0
  4  6  2  0  0  0  0
  5 12  1  0  0  0  0
  5  1  2  0  0  0  0
  7  5  1  0  0  0  0
  8 10  1  0  0  0  0
  9 14  2  0  0  0  0
  9  8  1  0  0  0  0
 10 13  2  0  0  0  0
 11  7  2  0  0  0  0
 11  2  1  0  0  0  0
 12  4  1  0  0  0  0
 13  2  1  0  0  0  0
 14 11  1  0  0  0  0
 15  9  1  0  0  0  0
 16  6  1  0  0  0  0
 17 10  1  0  0  0  0
 17 18  1  0  0  0  0
 20 19  1  0  0  0  0
 21 15  1  0  0  0  0
 22 21  1  0  0  0  0
 23 24  2  0  0  0  0
 24 22  1  0  0  0  0
 25 24  1  0  0  0  0
 25 26  1  0  0  0  0
 26 27  1  0  0  0  0
 27 29  1  0  0  0  0
 29 30  1  0  0  0  0
 29 28  1  1  0  0  0
 30 32  2  0  0  0  0
 30 31  1  0  0  0  0
M  END
>  <MODEL>
3

>  <REMARK>
 VINA RESULT:      -8.2      2.454      5.703
  Name = 
  10 active torsions:
  status: ('A' for Active; 'I' for Inactive)
    1  A    between atoms: C_2  and  C_24
    2  A    between atoms: C_2  and  C_30
    3  A    between atoms: C_5  and  N_23
    4  A    between atoms: O_8  and  C_16
    5  A    between atoms: C_15  and  C_27
    6  A    between atoms: C_22  and  C_24
    7  A    between atoms: C_22  and  C_27
    8  A    between atoms: N_26  and  C_30
    9  A    between atoms: N_26  and  C_31
   10  A    between atoms: N_29  and  C_31
                            x       y       z     vdW  Elec       q    Type
                         _______ _______ _______ _____ _____    ______ ____

>  <TORSDO>
F 10

$$$$
=
 OpenBabel10222416293D

 32 34  0  0  1  0  0  0  0  0999 V2000
  188.6750  177.4730  144.8910 C   0  0  0  0  0  0  0  0  0  0  0  0
  189.9140  177.5880  142.8070 C   0  0  0  0  0  0  0  0  0  0  0  0
  189.8870  177.4950  144.2030 C   0  0  0  0  0  3  0  0  0  0  0  0
  186.3190  178.0300  146.3280 C   0  0  0  0  0  0  0  0  0  0  0  0
  187.4670  177.5560  144.1880 C   0  0  0  0  0  0  0  0  0  0  0  0
  187.4590  177.9390  146.9560 N   0  0  0  0  0  0  0  0  0  0  0  0
  187.4810  177.6610  142.7970 C   0  0  0  0  0  3  0  0  0  0  0  0
  190.5600  176.5340  140.1220 C   0  0  0  0  0  2  0  0  0  0  0  0
  189.4370  177.4430  139.7650 C   0  0  0  0  0  0  0  0  0  0  0  0
  191.5640  177.2600  140.9610 C   0  0  0  0  0  0  0  0  0  0  0  0
  188.6880  177.6700  142.0890 C   0  0  0  0  0  0  0  0  0  0  0  0
  186.1640  177.5040  144.9260 C   0  0  0  0  0  2  0  0  0  0  0  0
  191.2490  177.6850  142.1830 C   0  0  0  0  0  3  0  0  0  0  0  0
  188.6120  177.8860  140.6690 N   0  0  0  0  0  0  0  0  0  0  0  0
  189.2340  177.7640  138.3890 N   0  0  0  0  0  2  0  0  0  0  0  0
  188.6450  177.3020  146.3790 C   0  0  0  0  0  2  0  0  0  0  0  0
  192.8620  177.4740  140.4960 O   0  0  0  0  0  0  0  0  0  0  0  0
  193.2660  177.1300  139.1780 C   0  0  0  0  0  1  0  0  0  0  0  0
  184.1860  178.9690  146.3170 O   0  0  0  0  0  1  0  0  0  0  0  0
  185.1930  178.6280  146.9680 N   0  0  0  0  0  2  0  0  0  0  0  0
  188.1490  178.6210  137.9390 C   0  0  0  0  0  2  0  0  0  0  0  0
  186.9340  177.8340  137.8080 N   0  0  0  0  0  2  0  0  0  0  0  0
  187.3890  176.9130  135.3310 S   0  0  0  0  0  0  0  0  0  0  0  0
  186.4080  177.4000  136.5510 C   0  0  0  0  0  0  0  0  0  0  0  0
  184.9440  177.4980  136.3080 C   0  0  0  0  0  2  0  0  0  0  0  0
  184.1890  176.8510  137.4540 C   0  0  0  0  0  2  0  0  0  0  0  0
  183.2660  177.8540  138.1260 C   0  0  0  0  0  2  0  0  0  0  0  0
  182.1460  178.1120  140.6060 S   0  0  0  0  0  1  0  0  0  0  0  0
  183.6470  178.0580  139.5860 C   0  0  2  0  0  3  0  0  0  0  0  0
  184.4260  179.3170  139.7670 C   0  0  0  0  0  0  0  0  0  0  0  0
  185.3100  179.3820  140.6570 O   0  0  0  0  0  1  0  0  0  0  0  0
  184.1850  180.4170  138.9500 O   0  0  0  0  0  0  0  0  0  0  0  0
  1 16  1  0  0  0  0
  2  3  2  0  0  0  0
  3  1  1  0  0  0  0
  4  6  2  0  0  0  0
  4 20  1  0  0  0  0
  5  1  2  0  0  0  0
  5 12  1  0  0  0  0
  7  5  1  0  0  0  0
  8 10  1  0  0  0  0
  9  8  1  0  0  0  0
  9 14  2  0  0  0  0
 10 13  2  0  0  0  0
 11  7  2  0  0  0  0
 11  2  1  0  0  0  0
 12  4  1  0  0  0  0
 13  2  1  0  0  0  0
 14 11  1  0  0  0  0
 15  9  1  0  0  0  0
 16  6  1  0  0  0  0
 17 10  1  0  0  0  0
 18 17  1  0  0  0  0
 19 20  1  0  0  0  0
 21 15  1  0  0  0  0
 22 21  1  0  0  0  0
 23 24  2  0  0  0  0
 24 22  1  0  0  0  0
 25 24  1  0  0  0  0
 25 26  1  0  0  0  0
 26 27  1  0  0  0  0
 27 29  1  0  0  0  0
 29 30  1  0  0  0  0
 29 28  1  1  0  0  0
 30 31  1  0  0  0  0
 32 30  2  0  0  0  0
M  END
>  <MODEL>
4

>  <REMARK>
 VINA RESULT:      -8.0      2.551      4.175
  Name = 
  10 active torsions:
  status: ('A' for Active; 'I' for Inactive)
    1  A    between atoms: C_2  and  C_24
    2  A    between atoms: C_2  and  C_30
    3  A    between atoms: C_5  and  N_23
    4  A    between atoms: O_8  and  C_16
    5  A    between atoms: C_15  and  C_27
    6  A    between atoms: C_22  and  C_24
    7  A    between atoms: C_22  and  C_27
    8  A    between atoms: N_26  and  C_30
    9  A    between atoms: N_26  and  C_31
   10  A    between atoms: N_29  and  C_31
                            x       y       z     vdW  Elec       q    Type
                         _______ _______ _______ _____ _____    ______ ____

>  <TORSDO>
F 10

$$$$
=
 OpenBabel10222416293D

 32 34  0  0  1  0  0  0  0  0999 V2000
  190.6310  177.2630  141.2490 C   0  0  0  0  0  0  0  0  0  0  0  0
  190.1870  177.0530  143.6260 C   0  0  0  0  0  0  0  0  0  0  0  0
  191.0410  176.8960  142.5300 C   0  0  0  0  0  3  0  0  0  0  0  0
  189.6420  177.4160  138.6180 C   0  0  0  0  0  0  0  0  0  0  0  0
  189.3470  177.7850  141.0470 C   0  0  0  0  0  0  0  0  0  0  0  0
  190.8370  176.9420  138.8380 N   0  0  0  0  0  0  0  0  0  0  0  0
  188.4810  177.9350  142.1310 C   0  0  0  0  0  3  0  0  0  0  0  0
  189.4620  178.2390  146.2360 C   0  0  0  0  0  2  0  0  0  0  0  0
  188.1020  177.9190  145.7250 C   0  0  0  0  0  0  0  0  0  0  0  0
  190.3520  177.0410  146.1190 C   0  0  0  0  0  0  0  0  0  0  0  0
  188.8820  177.5850  143.4250 C   0  0  0  0  0  0  0  0  0  0  0  0
  188.9160  178.2050  139.6750 C   0  0  0  0  0  2  0  0  0  0  0  0
  190.6900  176.5590  144.9240 C   0  0  0  0  0  3  0  0  0  0  0  0
  187.8920  177.6760  144.4630 N   0  0  0  0  0  0  0  0  0  0  0  0
  187.0060  177.9550  146.6400 N   0  0  0  0  0  2  0  0  0  0  0  0
  191.5710  177.1610  140.0870 C   0  0  0  0  0  2  0  0  0  0  0  0
  190.8750  176.4270  147.2560 O   0  0  0  0  0  0  0  0  0  0  0  0
  192.1450  175.7890  147.2630 C   0  0  0  0  0  1  0  0  0  0  0  0
  188.1060  176.3420  137.2320 O   0  0  0  0  0  1  0  0  0  0  0  0
  189.0040  177.1980  137.3610 N   0  0  0  0  0  2  0  0  0  0  0  0
  185.6380  177.6840  146.2310 C   0  0  0  0  0  2  0  0  0  0  0  0
  184.9870  178.9310  145.8660 N   0  0  0  0  0  2  0  0  0  0  0  0
  182.6960  178.8770  144.4730 S   0  0  0  0  0  0  0  0  0  0  0  0
  184.3080  179.1310  144.6220 C   0  0  0  0  0  0  0  0  0  0  0  0
  185.1040  179.4710  143.4130 C   0  0  0  0  0  2  0  0  0  0  0  0
  184.6730  178.5940  142.2520 C   0  0  0  0  0  2  0  0  0  0  0  0
  185.2970  179.0770  140.9520 C   0  0  0  0  0  2  0  0  0  0  0  0
  182.8180  178.1030  140.3400 S   0  0  0  0  0  1  0  0  0  0  0  0
  184.2990  179.0070  139.8050 C   0  0  2  0  0  3  0  0  0  0  0  0
  184.8960  178.3360  138.6140 C   0  0  0  0  0  0  0  0  0  0  0  0
  184.3800  177.2810  138.1670 O   0  0  0  0  0  1  0  0  0  0  0  0
  186.0160  178.8750  137.9900 O   0  0  0  0  0  0  0  0  0  0  0  0
  1  3  1  0  0  0  0
  2 13  1  0  0  0  0
  3  2  2  0  0  0  0
  4  6  2  0  0  0  0
  4 12  1  0  0  0  0
  5  1  2  0  0  0  0
  5  7  1  0  0  0  0
  6 16  1  0  0  0  0
  7 11  2  0  0  0  0
  9  8  1  0  0  0  0
  9 15  1  0  0  0  0
 10  8  1  0  0  0  0
 10 17  1  0  0  0  0
 11  2  1  0  0  0  0
 11 14  1  0  0  0  0
 12  5  1  0  0  0  0
 13 10  2  0  0  0  0
 14  9  2  0  0  0  0
 16  1  1  0  0  0  0
 17 18  1  0  0  0  0
 19 20  1  0  0  0  0
 20  4  1  0  0  0  0
 21 15  1  0  0  0  0
 22 21  1  0  0  0  0
 23 24  2  0  0  0  0
 24 22  1  0  0  0  0
 25 24  1  0  0  0  0
 26 25  1  0  0  0  0
 27 26  1  0  0  0  0
 29 28  1  1  0  0  0
 29 27  1  0  0  0  0
 30 29  1  0  0  0  0
 31 30  1  0  0  0  0
 32 30  2  0  0  0  0
M  END
>  <MODEL>
5

>  <REMARK>
 VINA RESULT:      -7.9      2.574      5.944
  Name = 
  10 active torsions:
  status: ('A' for Active; 'I' for Inactive)
    1  A    between atoms: C_2  and  C_24
    2  A    between atoms: C_2  and  C_30
    3  A    between atoms: C_5  and  N_23
    4  A    between atoms: O_8  and  C_16
    5  A    between atoms: C_15  and  C_27
    6  A    between atoms: C_22  and  C_24
    7  A    between atoms: C_22  and  C_27
    8  A    between atoms: N_26  and  C_30
    9  A    between atoms: N_26  and  C_31
   10  A    between atoms: N_29  and  C_31
                            x       y       z     vdW  Elec       q    Type
                         _______ _______ _______ _____ _____    ______ ____

>  <TORSDO>
F 10

$$$$
=
 OpenBabel10222416293D

 32 34  0  0  1  0  0  0  0  0999 V2000
  188.2510  177.6670  146.5530 C   0  0  0  0  0  0  0  0  0  0  0  0
  186.2440  178.1000  145.2600 C   0  0  0  0  0  0  0  0  0  0  0  0
  186.8720  177.8590  146.4860 C   0  0  0  0  0  3  0  0  0  0  0  0
  190.8880  176.6840  146.6530 C   0  0  0  0  0  0  0  0  0  0  0  0
  189.0220  177.7000  145.3840 C   0  0  0  0  0  0  0  0  0  0  0  0
  190.1480  176.6740  147.7270 N   0  0  0  0  0  0  0  0  0  0  0  0
  188.4040  177.9270  144.1540 C   0  0  0  0  0  3  0  0  0  0  0  0
  184.6780  179.7860  143.4030 C   0  0  0  0  0  2  0  0  0  0  0  0
  185.4010  178.9390  142.4160 C   0  0  0  0  0  0  0  0  0  0  0  0
  184.0320  178.9270  144.4440 C   0  0  0  0  0  0  0  0  0  0  0  0
  187.0240  178.1370  144.0700 C   0  0  0  0  0  0  0  0  0  0  0  0
  190.5070  177.5200  145.4590 C   0  0  0  0  0  2  0  0  0  0  0  0
  184.7710  178.2110  145.2900 C   0  0  0  0  0  3  0  0  0  0  0  0
  186.4590  178.2600  142.7530 N   0  0  0  0  0  0  0  0  0  0  0  0
  184.9530  178.9430  141.0600 N   0  0  0  0  0  2  0  0  0  0  0  0
  188.9330  177.4800  147.8740 C   0  0  0  0  0  2  0  0  0  0  0  0
  182.6430  178.8840  144.5740 O   0  0  0  0  0  0  0  0  0  0  0  0
  181.7700  179.0020  143.4600 C   0  0  0  0  0  1  0  0  0  0  0  0
  192.2610  175.0660  145.6890 O   0  0  0  0  0  1  0  0  0  0  0  0
  192.0800  175.9040  146.5960 N   0  0  0  0  0  2  0  0  0  0  0  0
  185.6110  178.1700  140.0180 C   0  0  0  0  0  2  0  0  0  0  0  0
  185.4450  178.8420  138.7410 N   0  0  0  0  0  2  0  0  0  0  0  0
  184.8850  177.1180  136.7640 S   0  0  0  0  0  0  0  0  0  0  0  0
  185.8150  178.2570  137.4890 C   0  0  0  0  0  0  0  0  0  0  0  0
  187.1280  178.6110  136.8860 C   0  0  0  0  0  2  0  0  0  0  0  0
  188.2150  177.7280  137.4700 C   0  0  0  0  0  2  0  0  0  0  0  0
  189.0640  178.5060  138.4620 C   0  0  0  0  0  2  0  0  0  0  0  0
  190.3130  176.1170  138.0110 S   0  0  0  0  0  1  0  0  0  0  0  0
  190.2530  177.6790  138.9340 C   0  0  2  0  0  3  0  0  0  0  0  0
  190.1640  177.3980  140.3960 C   0  0  0  0  0  0  0  0  0  0  0  0
  189.0520  177.1320  140.9150 O   0  0  0  0  0  0  0  0  0  0  0  0
  191.3080  177.4210  141.1870 O   0  0  0  0  0  1  0  0  0  0  0  0
  1 16  1  0  0  0  0
  2 13  1  0  0  0  0
  2  3  2  0  0  0  0
  3  1  1  0  0  0  0
  4  6  2  0  0  0  0
  5 12  1  0  0  0  0
  5  1  2  0  0  0  0
  6 16  1  0  0  0  0
  7  5  1  0  0  0  0
  8 10  1  0  0  0  0
  9 14  2  0  0  0  0
  9  8  1  0  0  0  0
 10 17  1  0  0  0  0
 10 13  2  0  0  0  0
 11  7  2  0  0  0  0
 11  2  1  0  0  0  0
 12  4  1  0  0  0  0
 14 11  1  0  0  0  0
 15  9  1  0  0  0  0
 18 17  1  0  0  0  0
 19 20  1  0  0  0  0
 20  4  1  0  0  0  0
 21 15  1  0  0  0  0
 22 21  1  0  0  0  0
 23 24  2  0  0  0  0
 24 22  1  0  0  0  0
 25 26  1  0  0  0  0
 25 24  1  0  0  0  0
 26 27  1  0  0  0  0
 27 29  1  0  0  0  0
 29 28  1  6  0  0  0
 29 30  1  0  0  0  0
 30 31  2  0  0  0  0
 30 32  1  0  0  0  0
M  END
>  <MODEL>
6

>  <REMARK>
 VINA RESULT:      -7.8      2.433      6.054
  Name = 
  10 active torsions:
  status: ('A' for Active; 'I' for Inactive)
    1  A    between atoms: C_2  and  C_24
    2  A    between atoms: C_2  and  C_30
    3  A    between atoms: C_5  and  N_23
    4  A    between atoms: O_8  and  C_16
    5  A    between atoms: C_15  and  C_27
    6  A    between atoms: C_22  and  C_24
    7  A    between atoms: C_22  and  C_27
    8  A    between atoms: N_26  and  C_30
    9  A    between atoms: N_26  and  C_31
   10  A    between atoms: N_29  and  C_31
                            x       y       z     vdW  Elec       q    Type
                         _______ _______ _______ _____ _____    ______ ____

>  <TORSDO>
F 10

$$$$
=
 OpenBabel10222416293D

 32 34  0  0  1  0  0  0  0  0999 V2000
  182.6090  178.8100  143.5290 C   0  0  0  0  0  0  0  0  0  0  0  0
  184.7600  178.5710  144.6280 C   0  0  0  0  0  0  0  0  0  0  0  0
  183.3810  178.8010  144.6890 C   0  0  0  0  0  3  0  0  0  0  0  0
  181.1470  179.4340  141.2050 C   0  0  0  0  0  0  0  0  0  0  0  0
  183.2130  178.6010  142.2830 C   0  0  0  0  0  0  0  0  0  0  0  0
  180.6090  179.6110  142.3810 N   0  0  0  0  0  0  0  0  0  0  0  0
  184.5890  178.3830  142.2080 C   0  0  0  0  0  3  0  0  0  0  0  0
  187.1850  176.9990  145.2490 C   0  0  0  0  0  2  0  0  0  0  0  0
  187.6440  177.6770  144.0070 C   0  0  0  0  0  0  0  0  0  0  0  0
  186.6140  178.0000  146.2020 C   0  0  0  0  0  0  0  0  0  0  0  0
  185.3770  178.3560  143.3640 C   0  0  0  0  0  0  0  0  0  0  0  0
  182.3790  178.5840  141.0380 C   0  0  0  0  0  2  0  0  0  0  0  0
  185.4960  178.6610  145.9050 C   0  0  0  0  0  3  0  0  0  0  0  0
  186.7980  178.2280  143.1840 N   0  0  0  0  0  0  0  0  0  0  0  0
  189.0360  177.6490  143.6910 N   0  0  0  0  0  2  0  0  0  0  0  0
  181.1230  178.9860  143.6020 C   0  0  0  0  0  2  0  0  0  0  0  0
  187.2190  178.2370  147.4370 O   0  0  0  0  0  0  0  0  0  0  0  0
  188.3820  177.5410  147.8620 C   0  0  0  0  0  1  0  0  0  0  0  0
  181.1360  179.9950  138.9430 O   0  0  0  0  0  1  0  0  0  0  0  0
  180.5680  180.0420  140.0520 N   0  0  0  0  0  2  0  0  0  0  0  0
  189.5760  178.2600  142.4860 C   0  0  0  0  0  2  0  0  0  0  0  0
  190.1250  177.2260  141.6250 N   0  0  0  0  0  2  0  0  0  0  0  0
  191.1280  176.6300  139.2100 S   0  0  0  0  0  0  0  0  0  0  0  0
  189.9640  177.2170  140.2030 C   0  0  0  0  0  0  0  0  0  0  0  0
  188.7590  177.8550  139.6100 C   0  0  0  0  0  2  0  0  0  0  0  0
  189.1460  178.6200  138.3590 C   0  0  0  0  0  2  0  0  0  0  0  0
  188.1240  178.4010  137.2550 C   0  0  0  0  0  2  0  0  0  0  0  0
  187.2330  175.9020  136.6000 S   0  0  0  0  0  1  0  0  0  0  0  0
  187.0870  177.3650  137.6650 C   0  0  2  0  0  3  0  0  0  0  0  0
  185.7060  177.9210  137.5730 C   0  0  0  0  0  0  0  0  0  0  0  0
  184.9120  177.4810  136.7040 O   0  0  0  0  0  0  0  0  0  0  0  0
  185.2890  178.9180  138.4490 O   0  0  0  0  0  1  0  0  0  0  0  0
  1 16  1  0  0  0  0
  1  3  1  0  0  0  0
  2  3  2  0  0  0  0
  2 13  1  0  0  0  0
  4  6  2  0  0  0  0
  5  1  2  0  0  0  0
  6 16  1  0  0  0  0
  7  5  1  0  0  0  0
  7 11  2  0  0  0  0
  8 10  1  0  0  0  0
  9  8  1  0  0  0  0
 10 17  1  0  0  0  0
 11  2  1  0  0  0  0
 12  4  1  0  0  0  0
 12  5  1  0  0  0  0
 13 10  2  0  0  0  0
 14 11  1  0  0  0  0
 14  9  2  0  0  0  0
 15  9  1  0  0  0  0
 17 18  1  0  0  0  0
 19 20  1  0  0  0  0
 20  4  1  0  0  0  0
 21 15  1  0  0  0  0
 22 21  1  0  0  0  0
 23 24  2  0  0  0  0
 24 22  1  0  0  0  0
 25 24  1  0  0  0  0
 26 25  1  0  0  0  0
 27 29  1  0  0  0  0
 27 26  1  0  0  0  0
 29 28  1  6  0  0  0
 30 29  1  0  0  0  0
 30 32  1  0  0  0  0
 31 30  2  0  0  0  0
M  END
>  <MODEL>
7

>  <REMARK>
 VINA RESULT:      -7.8      2.175      3.287
  Name = 
  10 active torsions:
  status: ('A' for Active; 'I' for Inactive)
    1  A    between atoms: C_2  and  C_24
    2  A    between atoms: C_2  and  C_30
    3  A    between atoms: C_5  and  N_23
    4  A    between atoms: O_8  and  C_16
    5  A    between atoms: C_15  and  C_27
    6  A    between atoms: C_22  and  C_24
    7  A    between atoms: C_22  and  C_27
    8  A    between atoms: N_26  and  C_30
    9  A    between atoms: N_26  and  C_31
   10  A    between atoms: N_29  and  C_31
                            x       y       z     vdW  Elec       q    Type
                         _______ _______ _______ _____ _____    ______ ____

>  <TORSDO>
F 10

$$$$
=
 OpenBabel10222416293D

 32 34  0  0  1  0  0  0  0  0999 V2000
  187.3070  177.9770  146.9030 C   0  0  0  0  0  0  0  0  0  0  0  0
  185.4160  178.2780  145.4110 C   0  0  0  0  0  0  0  0  0  0  0  0
  185.9390  178.1520  146.7030 C   0  0  0  0  0  3  0  0  0  0  0  0
  189.9260  177.0290  147.3130 C   0  0  0  0  0  0  0  0  0  0  0  0
  188.1740  177.9130  145.8050 C   0  0  0  0  0  0  0  0  0  0  0  0
  189.0970  177.1070  148.3170 N   0  0  0  0  0  0  0  0  0  0  0  0
  187.6640  178.0260  144.5120 C   0  0  0  0  0  3  0  0  0  0  0  0
  184.0130  179.7810  143.2870 C   0  0  0  0  0  2  0  0  0  0  0  0
  184.8190  178.8570  142.4430 C   0  0  0  0  0  0  0  0  0  0  0  0
  183.2820  179.0120  144.3410 C   0  0  0  0  0  0  0  0  0  0  0  0
  186.2950  178.2170  144.2940 C   0  0  0  0  0  0  0  0  0  0  0  0
  189.6480  177.7530  146.0220 C   0  0  0  0  0  2  0  0  0  0  0  0
  183.9470  178.3800  145.3070 C   0  0  0  0  0  3  0  0  0  0  0  0
  185.8450  178.2190  142.9280 N   0  0  0  0  0  0  0  0  0  0  0  0
  184.4880  178.7380  141.0590 N   0  0  0  0  0  2  0  0  0  0  0  0
  187.8740  177.9130  148.2890 C   0  0  0  0  0  2  0  0  0  0  0  0
  181.8870  178.9700  144.3560 O   0  0  0  0  0  0  0  0  0  0  0  0
  181.1190  178.7450  143.1820 C   0  0  0  0  0  1  0  0  0  0  0  0
  192.0060  176.3040  146.5500 O   0  0  0  0  0  1  0  0  0  0  0  0
  191.1190  176.2560  147.4270 N   0  0  0  0  0  2  0  0  0  0  0  0
  185.2330  177.8820  140.1500 C   0  0  0  0  0  2  0  0  0  0  0  0
  186.3000  178.6480  139.5300 N   0  0  0  0  0  2  0  0  0  0  0  0
  187.7020  177.1780  137.7790 S   0  0  0  0  0  0  0  0  0  0  0  0
  187.5540  178.0800  139.1390 C   0  0  0  0  0  0  0  0  0  0  0  0
  188.7240  178.2210  140.0460 C   0  0  0  0  0  2  0  0  0  0  0  0
  189.8550  177.3300  139.5680 C   0  0  0  0  0  2  0  0  0  0  0  0
  190.8620  177.0950  140.6820 C   0  0  0  0  0  2  0  0  0  0  0  0
  191.3230  178.3570  143.0620 S   0  0  0  0  0  1  0  0  0  0  0  0
  190.2310  177.3180  142.0490 C   0  0  2  0  0  3  0  0  0  0  0  0
  189.9810  176.0220  142.7440 C   0  0  0  0  0  0  0  0  0  0  0  0
  190.9410  175.3910  143.2530 O   0  0  0  0  0  1  0  0  0  0  0  0
  188.6910  175.5120  142.8380 O   0  0  0  0  0  0  0  0  0  0  0  0
  1 16  1  0  0  0  0
  2  3  2  0  0  0  0
  3  1  1  0  0  0  0
  4 20  1  0  0  0  0
  4  6  2  0  0  0  0
  5 12  1  0  0  0  0
  5  1  2  0  0  0  0
  7  5  1  0  0  0  0
  8 10  1  0  0  0  0
  9 14  2  0  0  0  0
  9  8  1  0  0  0  0
 10 17  1  0  0  0  0
 10 13  2  0  0  0  0
 11  7  2  0  0  0  0
 11  2  1  0  0  0  0
 12  4  1  0  0  0  0
 13  2  1  0  0  0  0
 14 11  1  0  0  0  0
 15  9  1  0  0  0  0
 16  6  1  0  0  0  0
 18 17  1  0  0  0  0
 19 20  1  0  0  0  0
 21 15  1  0  0  0  0
 22 21  1  0  0  0  0
 23 24  2  0  0  0  0
 24 22  1  0  0  0  0
 24 25  1  0  0  0  0
 26 25  1  0  0  0  0
 26 27  1  0  0  0  0
 27 29  1  0  0  0  0
 29 30  1  0  0  0  0
 29 28  1  1  0  0  0
 30 32  2  0  0  0  0
 30 31  1  0  0  0  0
M  END
>  <MODEL>
8

>  <REMARK>
 VINA RESULT:      -7.7      2.735      6.355
  Name = 
  10 active torsions:
  status: ('A' for Active; 'I' for Inactive)
    1  A    between atoms: C_2  and  C_24
    2  A    between atoms: C_2  and  C_30
    3  A    between atoms: C_5  and  N_23
    4  A    between atoms: O_8  and  C_16
    5  A    between atoms: C_15  and  C_27
    6  A    between atoms: C_22  and  C_24
    7  A    between atoms: C_22  and  C_27
    8  A    between atoms: N_26  and  C_30
    9  A    between atoms: N_26  and  C_31
   10  A    between atoms: N_29  and  C_31
                            x       y       z     vdW  Elec       q    Type
                         _______ _______ _______ _____ _____    ______ ____

>  <TORSDO>
F 10

$$$$
=
 OpenBabel10222416293D

 32 34  0  0  1  0  0  0  0  0999 V2000
  188.6530  177.4330  145.7720 C   0  0  0  0  0  0  0  0  0  0  0  0
  187.1020  177.7430  143.9310 C   0  0  0  0  0  0  0  0  0  0  0  0
  187.3480  177.5160  145.2890 C   0  0  0  0  0  3  0  0  0  0  0  0
  191.2090  176.6640  146.6660 C   0  0  0  0  0  0  0  0  0  0  0  0
  189.7360  177.5650  144.8940 C   0  0  0  0  0  0  0  0  0  0  0  0
  190.1820  176.5600  147.4630 N   0  0  0  0  0  0  0  0  0  0  0  0
  189.5030  177.7800  143.5360 C   0  0  0  0  0  3  0  0  0  0  0  0
  186.0340  179.3540  141.6940 C   0  0  0  0  0  2  0  0  0  0  0  0
  187.0930  178.6010  140.9700 C   0  0  0  0  0  0  0  0  0  0  0  0
  185.1800  178.4130  142.4840 C   0  0  0  0  0  0  0  0  0  0  0  0
  188.2000  177.8810  143.0360 C   0  0  0  0  0  0  0  0  0  0  0  0
  191.1380  177.5040  145.4180 C   0  0  0  0  0  2  0  0  0  0  0  0
  185.6860  177.7340  143.5110 C   0  0  0  0  0  3  0  0  0  0  0  0
  188.0540  178.0000  141.6110 N   0  0  0  0  0  0  0  0  0  0  0  0
  187.0790  178.6120  139.5420 N   0  0  0  0  0  2  0  0  0  0  0  0
  188.9150  177.2600  147.2370 C   0  0  0  0  0  2  0  0  0  0  0  0
  183.8260  178.2550  142.1840 O   0  0  0  0  0  0  0  0  0  0  0  0
  182.7960  178.7510  143.0260 C   0  0  0  0  0  1  0  0  0  0  0  0
  192.7760  175.7870  148.1520 O   0  0  0  0  0  1  0  0  0  0  0  0
  192.4260  175.9850  146.9710 N   0  0  0  0  0  2  0  0  0  0  0  0
  188.0860  177.9280  138.7470 C   0  0  0  0  0  2  0  0  0  0  0  0
  188.1820  178.5610  137.4420 N   0  0  0  0  0  2  0  0  0  0  0  0
  189.4480  177.1200  135.5670 S   0  0  0  0  0  0  0  0  0  0  0  0
  188.1210  177.8370  136.2090 C   0  0  0  0  0  0  0  0  0  0  0  0
  186.8490  177.8290  135.4390 C   0  0  0  0  0  2  0  0  0  0  0  0
  185.7420  177.2260  136.2830 C   0  0  0  0  0  2  0  0  0  0  0  0
  185.8470  175.7090  136.3060 C   0  0  0  0  0  2  0  0  0  0  0  0
  183.2250  176.3370  135.8600 S   0  0  0  0  0  1  0  0  0  0  0  0
  184.4740  175.0620  136.1910 C   0  0  2  0  0  3  0  0  0  0  0  0
  184.1230  174.3240  137.4390 C   0  0  0  0  0  0  0  0  0  0  0  0
  183.3770  174.8620  138.2940 O   0  0  0  0  0  1  0  0  0  0  0  0
  184.6100  173.0390  137.6570 O   0  0  0  0  0  0  0  0  0  0  0  0
  1 16  1  0  0  0  0
  2  3  2  0  0  0  0
  3  1  1  0  0  0  0
  4 20  1  0  0  0  0
  4  6  2  0  0  0  0
  5 12  1  0  0  0  0
  5  1  2  0  0  0  0
  7  5  1  0  0  0  0
  8 10  1  0  0  0  0
  9 14  2  0  0  0  0
  9  8  1  0  0  0  0
 10 13  2  0  0  0  0
 11  7  2  0  0  0  0
 11  2  1  0  0  0  0
 12  4  1  0  0  0  0
 13  2  1  0  0  0  0
 14 11  1  0  0  0  0
 15  9  1  0  0  0  0
 16  6  1  0  0  0  0
 17 10  1  0  0  0  0
 17 18  1  0  0  0  0
 20 19  1  0  0  0  0
 21 15  1  0  0  0  0
 22 21  1  0  0  0  0
 23 24  2  0  0  0  0
 24 22  1  0  0  0  0
 25 24  1  0  0  0  0
 25 26  1  0  0  0  0
 26 27  1  0  0  0  0
 29 28  1  1  0  0  0
 29 27  1  0  0  0  0
 29 30  1  0  0  0  0
 30 32  2  0  0  0  0
 30 31  1  0  0  0  0
M  END
>  <MODEL>
9

>  <REMARK>
 VINA RESULT:      -7.6      2.657      5.741
  Name = 
  10 active torsions:
  status: ('A' for Active; 'I' for Inactive)
    1  A    between atoms: C_2  and  C_24
    2  A    between atoms: C_2  and  C_30
    3  A    between atoms: C_5  and  N_23
    4  A    between atoms: O_8  and  C_16
    5  A    between atoms: C_15  and  C_27
    6  A    between atoms: C_22  and  C_24
    7  A    between atoms: C_22  and  C_27
    8  A    between atoms: N_26  and  C_30
    9  A    between atoms: N_26  and  C_31
   10  A    between atoms: N_29  and  C_31
                            x       y       z     vdW  Elec       q    Type
                         _______ _______ _______ _____ _____    ______ ____

>  <TORSDO>
F 10

$$$$
