=
 OpenBabel10222415513D

 29 31  0  0  1  0  0  0  0  0999 V2000
  187.1440  178.2860  139.7290 C   0  0  0  0  0  0  0  0  0  0  0  0
  189.9740  177.9270  138.8570 C   0  0  2  0  0  3  0  0  0  0  0  0
  189.2820  179.1570  136.9220 O   0  0  0  0  0  0  0  0  0  0  0  0
  185.9210  178.2820  140.0190 O   0  0  0  0  0  0  0  0  0  0  0  0
  187.5660  178.7330  138.4370 N   0  0  0  0  0  2  0  0  0  0  0  0
  188.9370  178.6450  138.0200 C   0  0  0  0  0  0  0  0  0  0  0  0
  188.1720  177.8050  140.6630 C   0  0  0  0  0  0  0  0  0  0  0  0
  190.1960  177.0930  141.2920 C   0  0  0  0  0  3  0  0  0  0  0  0
  189.3660  176.9450  142.3470 N   0  0  0  0  0  0  0  0  0  0  0  0
  188.1370  177.3720  141.9860 C   0  0  0  0  0  0  0  0  0  0  0  0
  190.3730  176.6300  138.1730 C   0  0  0  0  0  1  0  0  0  0  0  0
  189.4740  177.6380  140.2450 C   0  0  0  0  0  0  0  0  0  0  0  0
  189.7090  176.3630  143.6430 C   0  0  1  0  0  3  0  0  0  0  0  0
  190.6970  175.2140  143.4780 C   0  0  0  0  0  1  0  0  0  0  0  0
  191.2820  176.9370  145.5670 C   0  0  0  0  0  2  0  0  0  0  0  0
  190.1670  177.4260  144.6530 C   0  0  2  0  0  3  0  0  0  0  0  0
  189.5320  177.9220  146.8450 C   0  0  1  0  0  3  0  0  0  0  0  0
  190.7030  176.9720  146.9550 C   0  0  0  0  0  2  0  0  0  0  0  0
  189.0400  177.8580  145.4740 N   0  0  0  0  0  2  0  0  0  0  0  0
  188.6950  178.1240  149.0680 F   0  0  0  0  0  0  0  0  0  0  0  0
  187.2190  178.0750  147.3700 F   0  0  0  0  0  0  0  0  0  0  0  0
  188.4200  177.5680  147.8310 C   0  0  0  0  0  0  0  0  0  0  0  0
  188.3100  176.1940  147.9660 F   0  0  0  0  0  0  0  0  0  0  0  0
  187.0500  177.3410  142.8680 O   0  0  0  0  0  0  0  0  0  0  0  0
  186.2680  178.4750  143.1990 C   0  0  0  0  0  2  0  0  0  0  0  0
  183.8590  179.8120  144.0790 O   0  0  0  0  0  0  0  0  0  0  0  0
  185.7460  178.3250  144.5460 N   0  0  0  0  0  2  0  0  0  0  0  0
  184.5530  178.9890  144.9590 C   0  0  0  0  0  0  0  0  0  0  0  0
  184.1230  178.8290  146.1310 O   0  0  0  0  0  1  0  0  0  0  0  0
  1  4  2  0  0  0  0
  1  7  1  0  0  0  0
  2 11  1  6  0  0  0
  2 12  1  0  0  0  0
  3  6  2  0  0  0  0
  5  1  1  0  0  0  0
  6  5  1  0  0  0  0
  6  2  1  0  0  0  0
  7 10  2  0  0  0  0
  8  9  1  0  0  0  0
  9 13  1  0  0  0  0
 10  9  1  0  0  0  0
 10 24  1  0  0  0  0
 12  7  1  0  0  0  0
 12  8  2  0  0  0  0
 13 14  1  6  0  0  0
 15 18  1  0  0  0  0
 16 13  1  6  0  0  0
 16 19  1  0  0  0  0
 16 15  1  0  0  0  0
 17 18  1  0  0  0  0
 17 22  1  1  0  0  0
 19 17  1  0  0  0  0
 21 22  1  0  0  0  0
 22 23  1  0  0  0  0
 22 20  1  0  0  0  0
 24 25  1  0  0  0  0
 25 27  1  0  0  0  0
 26 28  2  0  0  0  0
 27 28  1  0  0  0  0
 28 29  1  0  0  0  0
M  END
>  <MODEL>
1

>  <REMARK>
 VINA RESULT:      -8.4      0.000      0.000
  Name = 
  6 active torsions:
  status: ('A' for Active; 'I' for Inactive)
    1  A    between atoms: C_8  and  C_12
    2  A    between atoms: N_10  and  C_14
    3  A    between atoms: C_11  and  C_13
    4  A    between atoms: C_13  and  N_25
    5  A    between atoms: C_14  and  O_18
    6  A    between atoms: O_18  and  C_26
                            x       y       z     vdW  Elec       q    Type
                         _______ _______ _______ _____ _____    ______ ____

>  <TORSDO>
F 6

$$$$
=
 OpenBabel10222415513D

 29 31  0  0  1  0  0  0  0  0999 V2000
  186.8240  178.6510  138.8230 C   0  0  0  0  0  0  0  0  0  0  0  0
  189.5470  177.4980  138.4270 C   0  0  2  0  0  3  0  0  0  0  0  0
  189.2100  178.1080  136.1360 O   0  0  0  0  0  0  0  0  0  0  0  0
  185.6180  178.9740  138.9640 O   0  0  0  0  0  0  0  0  0  0  0  0
  187.3830  178.5480  137.5100 N   0  0  0  0  0  2  0  0  0  0  0  0
  188.7200  178.0710  137.2960 C   0  0  0  0  0  0  0  0  0  0  0  0
  187.6890  178.3310  139.9680 C   0  0  0  0  0  0  0  0  0  0  0  0
  189.4890  177.5100  141.0090 C   0  0  0  0  0  3  0  0  0  0  0  0
  188.6040  177.8840  141.9590 N   0  0  0  0  0  0  0  0  0  0  0  0
  187.5090  178.3850  141.3480 C   0  0  0  0  0  0  0  0  0  0  0  0
  189.6890  175.9960  138.2450 C   0  0  0  0  0  1  0  0  0  0  0  0
  188.9410  177.7940  139.7710 C   0  0  0  0  0  0  0  0  0  0  0  0
  188.7630  177.7210  143.4020 C   0  0  1  0  0  3  0  0  0  0  0  0
  188.1600  176.4020  143.8700 C   0  0  0  0  0  1  0  0  0  0  0  0
  191.1500  176.8200  143.3670 C   0  0  0  0  0  2  0  0  0  0  0  0
  190.2190  177.9240  143.8510 C   0  0  2  0  0  3  0  0  0  0  0  0
  191.4330  177.1820  145.7030 C   0  0  1  0  0  3  0  0  0  0  0  0
  191.6630  176.1560  144.6160 C   0  0  0  0  0  2  0  0  0  0  0  0
  190.2900  177.9940  145.3080 N   0  0  0  0  0  2  0  0  0  0  0  0
  189.8260  176.3170  147.2370 F   0  0  0  0  0  0  0  0  0  0  0  0
  191.8300  175.3020  147.1030 F   0  0  0  0  0  0  0  0  0  0  0  0
  191.1830  176.5240  147.0590 C   0  0  0  0  0  0  0  0  0  0  0  0
  191.6580  177.3260  148.0830 F   0  0  0  0  0  0  0  0  0  0  0  0
  186.4050  178.8570  142.0700 O   0  0  0  0  0  0  0  0  0  0  0  0
  185.3180  178.0440  142.4730 C   0  0  0  0  0  2  0  0  0  0  0  0
  182.8810  179.2540  143.4520 O   0  0  0  0  0  0  0  0  0  0  0  0
  185.0660  178.2420  143.8900 N   0  0  0  0  0  2  0  0  0  0  0  0
  183.8540  178.8360  144.3530 C   0  0  0  0  0  0  0  0  0  0  0  0
  183.6640  178.9830  145.5880 O   0  0  0  0  0  1  0  0  0  0  0  0
  1  4  2  0  0  0  0
  1  7  1  0  0  0  0
  2 11  1  6  0  0  0
  2 12  1  0  0  0  0
  3  6  2  0  0  0  0
  5  1  1  0  0  0  0
  6  5  1  0  0  0  0
  6  2  1  0  0  0  0
  7 10  2  0  0  0  0
  8  9  1  0  0  0  0
  9 13  1  0  0  0  0
 10  9  1  0  0  0  0
 10 24  1  0  0  0  0
 12  7  1  0  0  0  0
 12  8  2  0  0  0  0
 13 14  1  6  0  0  0
 15 16  1  0  0  0  0
 15 18  1  0  0  0  0
 16 13  1  1  0  0  0
 16 19  1  0  0  0  0
 17 22  1  1  0  0  0
 18 17  1  0  0  0  0
 19 17  1  0  0  0  0
 22 21  1  0  0  0  0
 22 20  1  0  0  0  0
 22 23  1  0  0  0  0
 24 25  1  0  0  0  0
 25 27  1  0  0  0  0
 26 28  2  0  0  0  0
 27 28  1  0  0  0  0
 28 29  1  0  0  0  0
M  END
>  <MODEL>
2

>  <REMARK>
 VINA RESULT:      -8.1      1.492      1.963
  Name = 
  6 active torsions:
  status: ('A' for Active; 'I' for Inactive)
    1  A    between atoms: C_8  and  C_12
    2  A    between atoms: N_10  and  C_14
    3  A    between atoms: C_11  and  C_13
    4  A    between atoms: C_13  and  N_25
    5  A    between atoms: C_14  and  O_18
    6  A    between atoms: O_18  and  C_26
                            x       y       z     vdW  Elec       q    Type
                         _______ _______ _______ _____ _____    ______ ____

>  <TORSDO>
F 6

$$$$
=
 OpenBabel10222415513D

 29 31  0  0  1  0  0  0  0  0999 V2000
  185.5010  179.0630  142.0010 C   0  0  0  0  0  0  0  0  0  0  0  0
  184.7600  178.0190  144.6950 C   0  0  2  0  0  3  0  0  0  0  0  0
  182.5460  178.6970  144.0850 O   0  0  0  0  0  0  0  0  0  0  0  0
  185.8460  179.6550  140.9470 O   0  0  0  0  0  0  0  0  0  0  0  0
  184.1640  179.2070  142.4910 N   0  0  0  0  0  2  0  0  0  0  0  0
  183.7590  178.6460  143.7490 C   0  0  0  0  0  0  0  0  0  0  0  0
  186.4390  178.2470  142.7850 C   0  0  0  0  0  0  0  0  0  0  0  0
  187.1810  177.1270  144.5720 C   0  0  0  0  0  3  0  0  0  0  0  0
  188.1880  177.1720  143.6720 N   0  0  0  0  0  0  0  0  0  0  0  0
  187.7570  177.8450  142.5840 C   0  0  0  0  0  0  0  0  0  0  0  0
  184.9480  178.9160  145.9070 C   0  0  0  0  0  1  0  0  0  0  0  0
  186.0860  177.7770  144.0300 C   0  0  0  0  0  0  0  0  0  0  0  0
  189.5380  176.6450  143.8580 C   0  0  1  0  0  3  0  0  0  0  0  0
  190.2770  176.5630  142.5270 C   0  0  0  0  0  1  0  0  0  0  0  0
  191.1970  176.4970  145.7900 C   0  0  0  0  0  2  0  0  0  0  0  0
  190.3140  177.4050  144.9450 C   0  0  2  0  0  3  0  0  0  0  0  0
  189.8590  177.8880  147.1840 C   0  0  1  0  0  3  0  0  0  0  0  0
  190.6500  176.5990  147.1880 C   0  0  0  0  0  2  0  0  0  0  0  0
  189.3860  178.1100  145.8230 N   0  0  0  0  0  2  0  0  0  0  0  0
  188.2110  176.5400  148.2550 F   0  0  0  0  0  0  0  0  0  0  0  0
  189.1090  178.2490  149.4100 F   0  0  0  0  0  0  0  0  0  0  0  0
  188.6860  177.8360  148.1600 C   0  0  0  0  0  0  0  0  0  0  0  0
  187.6620  178.6640  147.7320 F   0  0  0  0  0  0  0  0  0  0  0  0
  188.5800  178.0640  141.4710 O   0  0  0  0  0  0  0  0  0  0  0  0
  188.3170  177.5450  140.1800 C   0  0  0  0  0  2  0  0  0  0  0  0
  190.0040  177.6310  137.8320 O   0  0  0  0  0  1  0  0  0  0  0  0
  188.2590  178.6360  139.2230 N   0  0  0  0  0  2  0  0  0  0  0  0
  189.0960  178.6570  138.0680 C   0  0  0  0  0  0  0  0  0  0  0  0
  189.0120  179.6130  137.2540 O   0  0  0  0  0  0  0  0  0  0  0  0
  1  5  1  0  0  0  0
  1  7  1  0  0  0  0
  2 11  1  1  0  0  0
  4  1  2  0  0  0  0
  5  6  1  0  0  0  0
  6  3  2  0  0  0  0
  6  2  1  0  0  0  0
  7 12  1  0  0  0  0
  9 13  1  0  0  0  0
  9  8  1  0  0  0  0
 10  7  2  0  0  0  0
 10  9  1  0  0  0  0
 12  8  2  0  0  0  0
 12  2  1  0  0  0  0
 13 14  1  6  0  0  0
 15 18  1  0  0  0  0
 16 13  1  6  0  0  0
 16 15  1  0  0  0  0
 16 19  1  0  0  0  0
 17 18  1  0  0  0  0
 17 22  1  1  0  0  0
 19 17  1  0  0  0  0
 22 20  1  0  0  0  0
 22 21  1  0  0  0  0
 23 22  1  0  0  0  0
 24 10  1  0  0  0  0
 25 24  1  0  0  0  0
 26 28  1  0  0  0  0
 27 25  1  0  0  0  0
 28 27  1  0  0  0  0
 29 28  2  0  0  0  0
M  END
>  <MODEL>
3

>  <REMARK>
 VINA RESULT:      -7.9      1.318      5.045
  Name = 
  6 active torsions:
  status: ('A' for Active; 'I' for Inactive)
    1  A    between atoms: C_8  and  C_12
    2  A    between atoms: N_10  and  C_14
    3  A    between atoms: C_11  and  C_13
    4  A    between atoms: C_13  and  N_25
    5  A    between atoms: C_14  and  O_18
    6  A    between atoms: O_18  and  C_26
                            x       y       z     vdW  Elec       q    Type
                         _______ _______ _______ _____ _____    ______ ____

>  <TORSDO>
F 6

$$$$
=
 OpenBabel10222415513D

 29 31  0  0  1  0  0  0  0  0999 V2000
  184.5860  178.6130  138.9890 C   0  0  0  0  0  0  0  0  0  0  0  0
  182.1830  177.8840  140.5980 C   0  0  2  0  0  3  0  0  0  0  0  0
  181.2410  177.2880  138.4790 O   0  0  0  0  0  0  0  0  0  0  0  0
  185.5310  179.0810  138.3050 O   0  0  0  0  0  0  0  0  0  0  0  0
  183.3820  178.1910  138.3420 N   0  0  0  0  0  2  0  0  0  0  0  0
  182.2360  177.7600  139.0910 C   0  0  0  0  0  0  0  0  0  0  0  0
  184.6540  178.5150  140.4540 C   0  0  0  0  0  0  0  0  0  0  0  0
  183.8600  178.2550  142.5280 C   0  0  0  0  0  3  0  0  0  0  0  0
  185.1610  178.6030  142.6300 N   0  0  0  0  0  0  0  0  0  0  0  0
  185.6590  178.7620  141.3860 C   0  0  0  0  0  0  0  0  0  0  0  0
  181.2000  178.9770  140.9860 C   0  0  0  0  0  1  0  0  0  0  0  0
  183.5340  178.1830  141.1850 C   0  0  0  0  0  0  0  0  0  0  0  0
  185.9000  178.8320  143.8700 C   0  0  1  0  0  3  0  0  0  0  0  0
  185.0360  179.5630  144.8900 C   0  0  0  0  0  1  0  0  0  0  0  0
  186.5190  177.4690  145.9350 C   0  0  0  0  0  2  0  0  0  0  0  0
  186.5350  177.5430  144.4140 C   0  0  2  0  0  3  0  0  0  0  0  0
  188.6990  176.9990  145.1020 C   0  0  1  0  0  3  0  0  0  0  0  0
  187.9660  177.4450  146.3480 C   0  0  0  0  0  2  0  0  0  0  0  0
  187.9140  177.4290  143.9520 N   0  0  0  0  0  2  0  0  0  0  0  0
  190.7460  177.4110  146.2550 F   0  0  0  0  0  0  0  0  0  0  0  0
  190.8340  176.9220  144.0600 F   0  0  0  0  0  0  0  0  0  0  0  0
  190.1100  177.5810  145.0380 C   0  0  0  0  0  0  0  0  0  0  0  0
  190.0650  178.9310  144.7340 F   0  0  0  0  0  0  0  0  0  0  0  0
  186.9920  179.1290  141.1590 O   0  0  0  0  0  0  0  0  0  0  0  0
  187.9800  178.2460  140.6600 C   0  0  0  0  0  2  0  0  0  0  0  0
  188.2880  176.8560  138.1420 O   0  0  0  0  0  1  0  0  0  0  0  0
  188.6370  178.8520  139.5150 N   0  0  0  0  0  2  0  0  0  0  0  0
  188.7740  178.1520  138.2800 C   0  0  0  0  0  0  0  0  0  0  0  0
  189.3380  178.7120  137.3050 O   0  0  0  0  0  0  0  0  0  0  0  0
  1  7  1  0  0  0  0
  2 11  1  6  0  0  0
  2 12  1  0  0  0  0
  3  6  2  0  0  0  0
  4  1  2  0  0  0  0
  5  1  1  0  0  0  0
  5  6  1  0  0  0  0
  6  2  1  0  0  0  0
  7 12  1  0  0  0  0
  7 10  2  0  0  0  0
  8  9  1  0  0  0  0
  9 13  1  0  0  0  0
 10  9  1  0  0  0  0
 12  8  2  0  0  0  0
 13 14  1  1  0  0  0
 15 18  1  0  0  0  0
 16 13  1  1  0  0  0
 16 15  1  0  0  0  0
 17 22  1  6  0  0  0
 17 18  1  0  0  0  0
 19 16  1  0  0  0  0
 19 17  1  0  0  0  0
 21 22  1  0  0  0  0
 22 20  1  0  0  0  0
 23 22  1  0  0  0  0
 24 10  1  0  0  0  0
 25 24  1  0  0  0  0
 26 28  1  0  0  0  0
 27 25  1  0  0  0  0
 28 27  1  0  0  0  0
 29 28  2  0  0  0  0
M  END
>  <MODEL>
4

>  <REMARK>
 VINA RESULT:      -7.9      2.902      5.590
  Name = 
  6 active torsions:
  status: ('A' for Active; 'I' for Inactive)
    1  A    between atoms: C_8  and  C_12
    2  A    between atoms: N_10  and  C_14
    3  A    between atoms: C_11  and  C_13
    4  A    between atoms: C_13  and  N_25
    5  A    between atoms: C_14  and  O_18
    6  A    between atoms: O_18  and  C_26
                            x       y       z     vdW  Elec       q    Type
                         _______ _______ _______ _____ _____    ______ ____

>  <TORSDO>
F 6

$$$$
=
 OpenBabel10222415513D

 29 31  0  0  1  0  0  0  0  0999 V2000
  184.7620  178.5660  138.9200 C   0  0  0  0  0  0  0  0  0  0  0  0
  182.2490  177.9470  140.4020 C   0  0  2  0  0  3  0  0  0  0  0  0
  181.4190  177.3110  138.2470 O   0  0  0  0  0  0  0  0  0  0  0  0
  185.7580  178.9900  138.2800 O   0  0  0  0  0  0  0  0  0  0  0  0
  183.5880  178.1560  138.2130 N   0  0  0  0  0  2  0  0  0  0  0  0
  182.3880  177.7760  138.9050 C   0  0  0  0  0  0  0  0  0  0  0  0
  184.7400  178.5100  140.3880 C   0  0  0  0  0  0  0  0  0  0  0  0
  183.8180  178.3320  142.4170 C   0  0  0  0  0  3  0  0  0  0  0  0
  185.1200  178.6490  142.5880 N   0  0  0  0  0  0  0  0  0  0  0  0
  185.6950  178.7590  141.3710 C   0  0  0  0  0  0  0  0  0  0  0  0
  181.2750  179.0750  140.6980 C   0  0  0  0  0  1  0  0  0  0  0  0
  183.5710  178.2290  141.0600 C   0  0  0  0  0  0  0  0  0  0  0  0
  185.7910  178.8970  143.8620 C   0  0  1  0  0  3  0  0  0  0  0  0
  184.9020  179.7110  144.7950 C   0  0  0  0  0  1  0  0  0  0  0  0
  186.1500  177.5680  146.0090 C   0  0  0  0  0  2  0  0  0  0  0  0
  186.3250  177.6040  144.4970 C   0  0  2  0  0  3  0  0  0  0  0  0
  188.3890  177.0160  145.4190 C   0  0  1  0  0  3  0  0  0  0  0  0
  187.5440  177.5130  146.5710 C   0  0  0  0  0  2  0  0  0  0  0  0
  187.7410  177.4390  144.1840 N   0  0  0  0  0  2  0  0  0  0  0  0
  189.9060  178.7440  144.7860 F   0  0  0  0  0  0  0  0  0  0  0  0
  190.1540  177.7910  146.8100 F   0  0  0  0  0  0  0  0  0  0  0  0
  189.8160  177.5550  145.4890 C   0  0  0  0  0  0  0  0  0  0  0  0
  190.7070  176.6410  144.9510 F   0  0  0  0  0  0  0  0  0  0  0  0
  187.0480  179.0850  141.2140 O   0  0  0  0  0  0  0  0  0  0  0  0
  188.0240  178.1880  140.7150 C   0  0  0  0  0  2  0  0  0  0  0  0
  190.2320  176.3420  140.4270 O   0  0  0  0  0  0  0  0  0  0  0  0
  189.2290  178.2880  141.5210 N   0  0  0  0  0  2  0  0  0  0  0  0
  190.3090  177.3710  141.3600 C   0  0  0  0  0  0  0  0  0  0  0  0
  191.3420  177.4930  142.0680 O   0  0  0  0  0  1  0  0  0  0  0  0
  1  7  1  0  0  0  0
  2 11  1  6  0  0  0
  2 12  1  0  0  0  0
  3  6  2  0  0  0  0
  4  1  2  0  0  0  0
  5  6  1  0  0  0  0
  5  1  1  0  0  0  0
  6  2  1  0  0  0  0
  7 12  1  0  0  0  0
  7 10  2  0  0  0  0
  8  9  1  0  0  0  0
  9 13  1  0  0  0  0
 10  9  1  0  0  0  0
 12  8  2  0  0  0  0
 13 14  1  1  0  0  0
 15 18  1  0  0  0  0
 16 13  1  1  0  0  0
 16 15  1  0  0  0  0
 17 22  1  1  0  0  0
 17 18  1  0  0  0  0
 19 16  1  0  0  0  0
 19 17  1  0  0  0  0
 20 22  1  0  0  0  0
 22 21  1  0  0  0  0
 23 22  1  0  0  0  0
 24 10  1  0  0  0  0
 25 24  1  0  0  0  0
 25 27  1  0  0  0  0
 26 28  2  0  0  0  0
 28 27  1  0  0  0  0
 28 29  1  0  0  0  0
M  END
>  <MODEL>
5

>  <REMARK>
 VINA RESULT:      -7.8      2.990      5.337
  Name = 
  6 active torsions:
  status: ('A' for Active; 'I' for Inactive)
    1  A    between atoms: C_8  and  C_12
    2  A    between atoms: N_10  and  C_14
    3  A    between atoms: C_11  and  C_13
    4  A    between atoms: C_13  and  N_25
    5  A    between atoms: C_14  and  O_18
    6  A    between atoms: O_18  and  C_26
                            x       y       z     vdW  Elec       q    Type
                         _______ _______ _______ _____ _____    ______ ____

>  <TORSDO>
F 6

$$$$
=
 OpenBabel10222415513D

 29 31  0  0  1  0  0  0  0  0999 V2000
  188.4130  178.3180  137.7980 C   0  0  0  0  0  0  0  0  0  0  0  0
  190.6990  176.4170  138.0360 C   0  0  2  0  0  3  0  0  0  0  0  0
  190.9770  176.8330  135.6940 O   0  0  0  0  0  0  0  0  0  0  0  0
  187.3510  178.9780  137.6690 O   0  0  0  0  0  0  0  0  0  0  0  0
  189.1440  177.9170  136.6360 N   0  0  0  0  0  2  0  0  0  0  0  0
  190.2970  177.0650  136.7290 C   0  0  0  0  0  0  0  0  0  0  0  0
  188.9220  177.9020  139.1130 C   0  0  0  0  0  0  0  0  0  0  0  0
  190.1800  176.7360  140.5460 C   0  0  0  0  0  3  0  0  0  0  0  0
  189.2890  177.4460  141.2710 N   0  0  0  0  0  0  0  0  0  0  0  0
  188.5200  178.1600  140.4210 C   0  0  0  0  0  0  0  0  0  0  0  0
  190.4210  174.9240  137.9710 C   0  0  0  0  0  1  0  0  0  0  0  0
  189.9750  177.0190  139.2080 C   0  0  0  0  0  0  0  0  0  0  0  0
  189.1290  177.4090  142.7230 C   0  0  1  0  0  3  0  0  0  0  0  0
  188.4670  176.1100  143.1640 C   0  0  0  0  0  1  0  0  0  0  0  0
  191.4600  176.5790  143.3450 C   0  0  0  0  0  2  0  0  0  0  0  0
  190.4440  177.7080  143.4590 C   0  0  2  0  0  3  0  0  0  0  0  0
  191.2050  177.2410  145.6170 C   0  0  1  0  0  3  0  0  0  0  0  0
  191.6750  176.0930  144.7520 C   0  0  0  0  0  2  0  0  0  0  0  0
  190.1820  177.9640  144.8720 N   0  0  0  0  0  2  0  0  0  0  0  0
  190.8910  177.7000  147.9360 F   0  0  0  0  0  0  0  0  0  0  0  0
  189.2870  176.5600  146.8440 F   0  0  0  0  0  0  0  0  0  0  0  0
  190.6520  176.7540  146.9540 C   0  0  0  0  0  0  0  0  0  0  0  0
  191.2500  175.5590  147.3210 F   0  0  0  0  0  0  0  0  0  0  0  0
  187.4930  178.9990  140.8720 O   0  0  0  0  0  0  0  0  0  0  0  0
  186.1570  178.5750  141.0720 C   0  0  0  0  0  2  0  0  0  0  0  0
  184.3640  178.0410  138.8670 O   0  0  0  0  0  0  0  0  0  0  0  0
  185.2480  179.5810  140.5510 N   0  0  0  0  0  2  0  0  0  0  0  0
  184.3670  179.2950  139.4650 C   0  0  0  0  0  0  0  0  0  0  0  0
  183.5850  180.1870  139.0460 O   0  0  0  0  0  1  0  0  0  0  0  0
  1  7  1  0  0  0  0
  2 11  1  6  0  0  0
  2 12  1  0  0  0  0
  3  6  2  0  0  0  0
  4  1  2  0  0  0  0
  5  6  1  0  0  0  0
  5  1  1  0  0  0  0
  6  2  1  0  0  0  0
  7 12  1  0  0  0  0
  7 10  2  0  0  0  0
  8  9  1  0  0  0  0
  9 13  1  0  0  0  0
 10 24  1  0  0  0  0
 10  9  1  0  0  0  0
 12  8  2  0  0  0  0
 13 14  1  6  0  0  0
 15 16  1  0  0  0  0
 15 18  1  0  0  0  0
 16 13  1  6  0  0  0
 16 19  1  0  0  0  0
 17 22  1  1  0  0  0
 18 17  1  0  0  0  0
 19 17  1  0  0  0  0
 21 22  1  0  0  0  0
 22 23  1  0  0  0  0
 22 20  1  0  0  0  0
 24 25  1  0  0  0  0
 26 28  2  0  0  0  0
 27 25  1  0  0  0  0
 28 27  1  0  0  0  0
 29 28  1  0  0  0  0
M  END
>  <MODEL>
6

>  <REMARK>
 VINA RESULT:      -7.7      2.393      2.944
  Name = 
  6 active torsions:
  status: ('A' for Active; 'I' for Inactive)
    1  A    between atoms: C_8  and  C_12
    2  A    between atoms: N_10  and  C_14
    3  A    between atoms: C_11  and  C_13
    4  A    between atoms: C_13  and  N_25
    5  A    between atoms: C_14  and  O_18
    6  A    between atoms: O_18  and  C_26
                            x       y       z     vdW  Elec       q    Type
                         _______ _______ _______ _____ _____    ______ ____

>  <TORSDO>
F 6

$$$$
=
 OpenBabel10222415513D

 29 31  0  0  1  0  0  0  0  0999 V2000
  191.5570  175.9970  144.4450 C   0  0  0  0  0  0  0  0  0  0  0  0
  190.0680  177.4840  146.5580 C   0  0  2  0  0  3  0  0  0  0  0  0
  191.8740  176.8010  147.9750 O   0  0  0  0  0  0  0  0  0  0  0  0
  192.0860  175.2330  143.5990 O   0  0  0  0  0  0  0  0  0  0  0  0
  192.0160  175.9830  145.7990 N   0  0  0  0  0  2  0  0  0  0  0  0
  191.3660  176.7520  146.8230 C   0  0  0  0  0  0  0  0  0  0  0  0
  190.4420  176.8920  144.1030 C   0  0  0  0  0  0  0  0  0  0  0  0
  188.7130  178.2540  144.4980 C   0  0  0  0  0  3  0  0  0  0  0  0
  188.7580  178.0280  143.1670 N   0  0  0  0  0  0  0  0  0  0  0  0
  189.7980  177.2070  142.9080 C   0  0  0  0  0  0  0  0  0  0  0  0
  188.9310  176.7850  147.2850 C   0  0  0  0  0  1  0  0  0  0  0  0
  189.7590  177.5670  145.0900 C   0  0  0  0  0  0  0  0  0  0  0  0
  187.8110  178.5270  142.1730 C   0  0  1  0  0  3  0  0  0  0  0  0
  188.2840  178.2030  140.7610 C   0  0  0  0  0  1  0  0  0  0  0  0
  185.3350  179.1410  142.1610 C   0  0  0  0  0  2  0  0  0  0  0  0
  186.3730  178.0680  142.4580 C   0  0  2  0  0  3  0  0  0  0  0  0
  184.9900  178.2310  144.3330 C   0  0  1  0  0  3  0  0  0  0  0  0
  184.6850  179.4440  143.4830 C   0  0  0  0  0  2  0  0  0  0  0  0
  186.2440  177.6620  143.8540 N   0  0  0  0  0  2  0  0  0  0  0  0
  185.6810  179.8330  145.9580 F   0  0  0  0  0  0  0  0  0  0  0  0
  183.8260  178.6260  146.3670 F   0  0  0  0  0  0  0  0  0  0  0  0
  185.0940  178.5890  145.8150 C   0  0  0  0  0  0  0  0  0  0  0  0
  185.8540  177.6480  146.4890 F   0  0  0  0  0  0  0  0  0  0  0  0
  190.1070  176.7830  141.6100 O   0  0  0  0  0  0  0  0  0  0  0  0
  191.2820  177.1570  140.9140 C   0  0  0  0  0  2  0  0  0  0  0  0
  193.5560  177.1270  139.1270 O   0  0  0  0  0  1  0  0  0  0  0  0
  191.1700  176.7530  139.5230 N   0  0  0  0  0  2  0  0  0  0  0  0
  192.3050  176.7400  138.6590 C   0  0  0  0  0  0  0  0  0  0  0  0
  192.1730  176.3740  137.4630 O   0  0  0  0  0  0  0  0  0  0  0  0
  1  5  1  0  0  0  0
  2  6  1  0  0  0  0
  2 11  1  1  0  0  0
  4  1  2  0  0  0  0
  5  6  1  0  0  0  0
  6  3  2  0  0  0  0
  7  1  1  0  0  0  0
  7 12  1  0  0  0  0
  8 12  2  0  0  0  0
  9  8  1  0  0  0  0
 10  9  1  0  0  0  0
 10  7  2  0  0  0  0
 12  2  1  0  0  0  0
 13 14  1  6  0  0  0
 13  9  1  0  0  0  0
 15 16  1  0  0  0  0
 15 18  1  0  0  0  0
 16 13  1  1  0  0  0
 16 19  1  0  0  0  0
 17 22  1  1  0  0  0
 18 17  1  0  0  0  0
 19 17  1  0  0  0  0
 22 20  1  0  0  0  0
 22 21  1  0  0  0  0
 22 23  1  0  0  0  0
 24 10  1  0  0  0  0
 25 24  1  0  0  0  0
 27 25  1  0  0  0  0
 28 26  1  0  0  0  0
 28 27  1  0  0  0  0
 29 28  2  0  0  0  0
M  END
>  <MODEL>
7

>  <REMARK>
 VINA RESULT:      -7.3      2.966      6.822
  Name = 
  6 active torsions:
  status: ('A' for Active; 'I' for Inactive)
    1  A    between atoms: C_8  and  C_12
    2  A    between atoms: N_10  and  C_14
    3  A    between atoms: C_11  and  C_13
    4  A    between atoms: C_13  and  N_25
    5  A    between atoms: C_14  and  O_18
    6  A    between atoms: O_18  and  C_26
                            x       y       z     vdW  Elec       q    Type
                         _______ _______ _______ _____ _____    ______ ____

>  <TORSDO>
F 6

$$$$
=
 OpenBabel10222415513D

 29 31  0  0  1  0  0  0  0  0999 V2000
  188.5330  177.2800  145.7660 C   0  0  0  0  0  0  0  0  0  0  0  0
  191.2400  177.2210  144.5150 C   0  0  2  0  0  3  0  0  0  0  0  0
  191.9860  176.6850  146.7270 O   0  0  0  0  0  0  0  0  0  0  0  0
  187.4190  177.4770  146.3160 O   0  0  0  0  0  0  0  0  0  0  0  0
  189.6980  177.0850  146.5720 N   0  0  0  0  0  2  0  0  0  0  0  0
  191.0060  176.9730  145.9900 C   0  0  0  0  0  0  0  0  0  0  0  0
  188.6960  177.2810  144.3050 C   0  0  0  0  0  0  0  0  0  0  0  0
  189.8110  177.3610  142.3690 C   0  0  0  0  0  3  0  0  0  0  0  0
  188.4920  177.4210  142.0820 N   0  0  0  0  0  0  0  0  0  0  0  0
  187.8010  177.3730  143.2410 C   0  0  0  0  0  0  0  0  0  0  0  0
  191.9920  178.5280  144.3310 C   0  0  0  0  0  1  0  0  0  0  0  0
  189.9520  177.2600  143.7410 C   0  0  0  0  0  0  0  0  0  0  0  0
  187.9010  177.5770  140.7550 C   0  0  1  0  0  3  0  0  0  0  0  0
  187.0260  178.8230  140.6930 C   0  0  0  0  0  1  0  0  0  0  0  0
  189.1820  178.8530  138.9550 C   0  0  0  0  0  2  0  0  0  0  0  0
  188.9550  177.5110  139.6390 C   0  0  2  0  0  3  0  0  0  0  0  0
  188.8190  177.1450  137.3370 C   0  0  1  0  0  3  0  0  0  0  0  0
  188.7670  178.6450  137.5240 C   0  0  0  0  0  2  0  0  0  0  0  0
  188.5610  176.5310  138.6330 N   0  0  0  0  0  2  0  0  0  0  0  0
  187.2680  177.7540  135.6310 F   0  0  0  0  0  0  0  0  0  0  0  0
  188.4270  175.8400  135.3890 F   0  0  0  0  0  0  0  0  0  0  0  0
  187.8000  176.6680  136.3030 C   0  0  0  0  0  0  0  0  0  0  0  0
  186.7760  175.9690  136.9190 F   0  0  0  0  0  0  0  0  0  0  0  0
  186.4020  177.4200  143.2760 O   0  0  0  0  0  0  0  0  0  0  0  0
  185.6610  178.4700  143.8720 C   0  0  0  0  0  2  0  0  0  0  0  0
  183.5010  179.1720  145.6630 O   0  0  0  0  0  1  0  0  0  0  0  0
  184.2650  178.3560  143.4860 N   0  0  0  0  0  2  0  0  0  0  0  0
  183.2150  178.7130  144.3820 C   0  0  0  0  0  0  0  0  0  0  0  0
  182.0170  178.6130  144.0100 O   0  0  0  0  0  0  0  0  0  0  0  0
  1  4  2  0  0  0  0
  1  5  1  0  0  0  0
  2 11  1  1  0  0  0
  2  6  1  0  0  0  0
  6  5  1  0  0  0  0
  6  3  2  0  0  0  0
  7  1  1  0  0  0  0
  8 12  2  0  0  0  0
  9  8  1  0  0  0  0
  9 10  1  0  0  0  0
 10 24  1  0  0  0  0
 10  7  2  0  0  0  0
 12  7  1  0  0  0  0
 12  2  1  0  0  0  0
 13 14  1  1  0  0  0
 13  9  1  0  0  0  0
 15 16  1  0  0  0  0
 16 13  1  1  0  0  0
 17 22  1  6  0  0  0
 17 18  1  0  0  0  0
 17 19  1  0  0  0  0
 18 15  1  0  0  0  0
 19 16  1  0  0  0  0
 20 22  1  0  0  0  0
 21 22  1  0  0  0  0
 22 23  1  0  0  0  0
 24 25  1  0  0  0  0
 27 25  1  0  0  0  0
 27 28  1  0  0  0  0
 28 26  1  0  0  0  0
 29 28  2  0  0  0  0
M  END
>  <MODEL>
8

>  <REMARK>
 VINA RESULT:      -7.3      4.170      6.988
  Name = 
  6 active torsions:
  status: ('A' for Active; 'I' for Inactive)
    1  A    between atoms: C_8  and  C_12
    2  A    between atoms: N_10  and  C_14
    3  A    between atoms: C_11  and  C_13
    4  A    between atoms: C_13  and  N_25
    5  A    between atoms: C_14  and  O_18
    6  A    between atoms: O_18  and  C_26
                            x       y       z     vdW  Elec       q    Type
                         _______ _______ _______ _____ _____    ______ ____

>  <TORSDO>
F 6

$$$$
=
 OpenBabel10222415513D

 29 31  0  0  1  0  0  0  0  0999 V2000
  188.3470  177.4420  145.1040 C   0  0  0  0  0  0  0  0  0  0  0  0
  191.2460  177.3510  144.4100 C   0  0  2  0  0  3  0  0  0  0  0  0
  191.5440  176.8840  146.7400 O   0  0  0  0  0  0  0  0  0  0  0  0
  187.1490  177.6520  145.4200 O   0  0  0  0  0  0  0  0  0  0  0  0
  189.3320  177.2730  146.1280 N   0  0  0  0  0  2  0  0  0  0  0  0
  190.7280  177.1470  145.8170 C   0  0  0  0  0  0  0  0  0  0  0  0
  188.7930  177.4000  143.7040 C   0  0  0  0  0  0  0  0  0  0  0  0
  190.2650  177.4230  142.0220 C   0  0  0  0  0  3  0  0  0  0  0  0
  189.0280  177.4720  141.4820 N   0  0  0  0  0  0  0  0  0  0  0  0
  188.1240  177.4570  142.4840 C   0  0  0  0  0  0  0  0  0  0  0  0
  192.0250  178.6540  144.3370 C   0  0  0  0  0  1  0  0  0  0  0  0
  190.1350  177.3640  143.3980 C   0  0  0  0  0  0  0  0  0  0  0  0
  188.7090  177.5870  140.0600 C   0  0  1  0  0  3  0  0  0  0  0  0
  189.0570  178.9740  139.5350 C   0  0  0  0  0  1  0  0  0  0  0  0
  190.8160  176.6230  138.9950 C   0  0  0  0  0  2  0  0  0  0  0  0
  189.3230  176.4470  139.2340 C   0  0  2  0  0  3  0  0  0  0  0  0
  189.6960  176.1570  136.9470 C   0  0  1  0  0  3  0  0  0  0  0  0
  190.9680  176.7560  137.5040 C   0  0  0  0  0  2  0  0  0  0  0  0
  188.6490  176.3420  137.9440 N   0  0  0  0  0  2  0  0  0  0  0  0
  189.1060  178.1640  135.8020 F   0  0  0  0  0  0  0  0  0  0  0  0
  190.3070  176.6150  134.6960 F   0  0  0  0  0  0  0  0  0  0  0  0
  189.2970  176.8060  135.6220 C   0  0  0  0  0  0  0  0  0  0  0  0
  188.1280  176.2430  135.1390 F   0  0  0  0  0  0  0  0  0  0  0  0
  186.7450  177.5020  142.2430 O   0  0  0  0  0  0  0  0  0  0  0  0
  185.9360  178.6390  142.4880 C   0  0  0  0  0  2  0  0  0  0  0  0
  183.7800  178.0670  140.6490 O   0  0  0  0  0  1  0  0  0  0  0  0
  185.7550  179.3790  141.2520 N   0  0  0  0  0  2  0  0  0  0  0  0
  184.6820  179.0850  140.3600 C   0  0  0  0  0  0  0  0  0  0  0  0
  184.5480  179.7530  139.3020 O   0  0  0  0  0  0  0  0  0  0  0  0
  1  4  2  0  0  0  0
  1  5  1  0  0  0  0
  2 11  1  1  0  0  0
  2  6  1  0  0  0  0
  6  5  1  0  0  0  0
  6  3  2  0  0  0  0
  7  1  1  0  0  0  0
  8 12  2  0  0  0  0
  9  8  1  0  0  0  0
  9 10  1  0  0  0  0
 10  7  2  0  0  0  0
 12  7  1  0  0  0  0
 12  2  1  0  0  0  0
 13 14  1  6  0  0  0
 13  9  1  0  0  0  0
 15 16  1  0  0  0  0
 16 13  1  6  0  0  0
 17 22  1  6  0  0  0
 17 18  1  0  0  0  0
 17 19  1  0  0  0  0
 18 15  1  0  0  0  0
 19 16  1  0  0  0  0
 21 22  1  0  0  0  0
 22 20  1  0  0  0  0
 23 22  1  0  0  0  0
 24 10  1  0  0  0  0
 24 25  1  0  0  0  0
 27 25  1  0  0  0  0
 28 26  1  0  0  0  0
 28 27  1  0  0  0  0
 29 28  2  0  0  0  0
M  END
>  <MODEL>
9

>  <REMARK>
 VINA RESULT:      -7.1      4.495      7.267
  Name = 
  6 active torsions:
  status: ('A' for Active; 'I' for Inactive)
    1  A    between atoms: C_8  and  C_12
    2  A    between atoms: N_10  and  C_14
    3  A    between atoms: C_11  and  C_13
    4  A    between atoms: C_13  and  N_25
    5  A    between atoms: C_14  and  O_18
    6  A    between atoms: O_18  and  C_26
                            x       y       z     vdW  Elec       q    Type
                         _______ _______ _______ _____ _____    ______ ____

>  <TORSDO>
F 6

$$$$
