=
 OpenBabel10222419293D

 42 49  0  0  1  0  0  0  0  0999 V2000
  181.7510  174.0540  137.0780 C   0  0  0  0  0  0  0  0  0  0  0  0
  184.3410  178.5280  144.3560 C   0  0  0  0  0  0  0  0  0  0  0  0
  181.6090  178.3970  139.9690 S   0  0  0  0  0  0  0  0  0  0  0  0
  185.2480  178.3590  143.3830 C   0  0  0  0  0  0  0  0  0  0  0  0
  183.0710  178.7250  143.6930 C   0  0  0  0  0  0  0  0  0  0  0  0
  182.3500  175.3960  136.8580 C   0  0  0  0  0  2  0  0  0  0  0  0
  182.0530  178.7980  141.6580 C   0  0  0  0  0  0  0  0  0  0  0  0
  180.9590  174.0830  138.1740 C   0  0  0  0  0  0  0  0  0  0  0  0
  178.9350  171.3830  136.8270 C   0  0  0  0  0  1  0  0  0  0  0  0
  181.0500  175.4110  138.7230 C   0  0  0  0  0  0  0  0  0  0  0  0
  183.3230  178.6660  142.3200 C   0  0  0  0  0  0  0  0  0  0  0  0
  179.7070  178.6010  142.3330 C   0  0  0  0  0  2  0  0  0  0  0  0
  179.6260  177.3800  141.5260 N   0  0  0  0  0  0  0  0  0  0  0  0
  181.1440  178.8900  142.6320 C   0  0  0  0  0  0  0  0  0  0  0  0
  184.5950  178.4350  142.0380 C   0  0  0  0  0  3  0  0  0  0  0  0
  181.8250  176.1610  137.9990 N   0  0  0  0  0  0  0  0  0  0  0  0
  180.3940  177.1500  140.4970 C   0  0  0  0  0  0  0  0  0  0  0  0
  180.3130  175.8660  139.8640 N   0  0  0  0  0  2  0  0  0  0  0  0
  181.1650  172.8970  136.0120 S   0  0  0  0  0  0  0  0  0  0  0  0
  179.9550  172.4270  137.1100 C   0  0  0  0  0  0  0  0  0  0  0  0
  179.9190  173.2160  138.2120 N   0  0  0  0  0  0  0  0  0  0  0  0
  181.7790  178.8310  143.9760 C   0  0  0  0  0  3  0  0  0  0  0  0
  187.3440  177.3240  142.5680 C   0  0  1  0  0  3  0  0  0  0  0  0
  186.9270  176.7390  143.7770 O   0  0  0  0  0  0  0  0  0  0  0  0
  186.7060  178.1220  143.6420 C   0  0  2  0  0  3  0  0  0  0  0  0
  188.8440  177.5260  142.6080 C   0  0  2  0  0  3  0  0  0  0  0  0
  189.4630  176.8560  141.3970 C   0  0  2  0  0  3  0  0  0  0  0  0
  189.5260  176.1840  142.7510 C   0  0  0  0  0  2  0  0  0  0  0  0
  190.7980  177.5120  141.0970 C   0  0  0  0  0  2  0  0  0  0  0  0
  191.2670  177.1480  139.7010 C   0  0  0  0  0  2  0  0  0  0  0  0
  190.1650  176.4370  138.9360 C   0  0  0  0  0  1  0  0  0  0  0  0
  184.6070  178.5090  145.7260 O   0  0  0  0  0  0  0  0  0  0  0  0
  189.5640  178.0080  148.8120 C   0  0  0  0  0  2  0  0  0  0  0  0
  185.7190  179.1470  146.2650 C   0  0  0  0  0  3  0  0  0  0  0  0
  188.0590  178.2190  148.7940 C   0  0  0  0  0  2  0  0  0  0  0  0
  187.5650  177.7600  147.4690 C   0  0  0  0  0  0  0  0  0  0  0  0
  190.0390  177.8880  147.3720 C   0  0  2  0  0  3  0  0  0  0  0  0
  186.6400  178.4530  146.8690 C   0  0  0  0  0  0  0  0  0  0  0  0
  188.7890  176.9240  146.4830 S   0  0  0  0  0  0  0  0  0  0  0  0
  191.2660  177.2250  147.3300 O   0  0  0  0  0  0  0  0  0  0  0  0
  191.7070  177.7980  145.0660 C   0  0  0  0  0  1  0  0  0  0  0  0
  191.3430  176.6980  146.0400 C   0  0  0  0  0  2  0  0  0  0  0  0
  1  8  2  0  0  0  0
  2 32  1  0  0  0  0
  3 17  1  0  0  0  0
  3  7  1  0  0  0  0
  4  2  2  0  0  0  0
  5 22  2  0  0  0  0
  5  2  1  0  0  0  0
  6  1  1  0  0  0  0
  6 16  1  0  0  0  0
  7 11  1  0  0  0  0
  7 14  2  0  0  0  0
  8 21  1  0  0  0  0
  8 10  1  0  0  0  0
  9 20  1  0  0  0  0
 10 18  1  0  0  0  0
 11  5  1  0  0  0  0
 12 14  1  0  0  0  0
 13 12  1  0  0  0  0
 14 22  1  0  0  0  0
 15 11  2  0  0  0  0
 15  4  1  0  0  0  0
 16 10  2  0  0  0  0
 17 13  2  0  0  0  0
 18 17  1  0  0  0  0
 19  1  1  0  0  0  0
 19 20  1  0  0  0  0
 20 21  2  0  0  0  0
 23 26  1  0  0  0  0
 23 25  1  0  0  0  0
 23 24  1  1  0  0  0
 25  4  1  6  0  0  0
 25 24  1  0  0  0  0
 26 28  1  1  0  0  0
 27 29  1  1  0  0  0
 27 26  1  0  0  0  0
 27 28  1  0  0  0  0
 30 29  1  0  0  0  0
 31 30  1  0  0  0  0
 32 34  1  0  0  0  0
 34 38  2  0  0  0  0
 35 33  1  0  0  0  0
 36 35  1  0  0  0  0
 37 40  1  1  0  0  0
 37 33  1  0  0  0  0
 38 36  2  0  0  0  0
 39 37  1  0  0  0  0
 39 36  1  0  0  0  0
 41 42  1  0  0  0  0
 42 40  1  0  0  0  0
M  END
>  <MODEL>
1

>  <REMARK>
 VINA RESULT:      -9.2      0.000      0.000
  Name = 
  8 active torsions:
  status: ('A' for Active; 'I' for Inactive)
    1  A    between atoms: C_2  and  O_13
    2  A    between atoms: C_5  and  C_6
    3  A    between atoms: C_7  and  O_13
    4  A    between atoms: C_10  and  O_12
    5  A    between atoms: C_11  and  C_30
    6  A    between atoms: O_12  and  C_41
    7  A    between atoms: C_20  and  C_24
    8  A    between atoms: C_20  and  C_31
                            x       y       z     vdW  Elec       q    Type
                         _______ _______ _______ _____ _____    ______ ____

>  <TORSDO>
F 8

$$$$
=
 OpenBabel10222419293D

 42 49  0  0  1  0  0  0  0  0999 V2000
  191.7360  175.2430  137.5640 C   0  0  0  0  0  0  0  0  0  0  0  0
  183.8920  178.2160  140.6170 C   0  0  0  0  0  0  0  0  0  0  0  0
  187.4950  178.2130  136.9100 S   0  0  0  0  0  0  0  0  0  0  0  0
  185.0000  178.6910  141.2040 C   0  0  0  0  0  0  0  0  0  0  0  0
  184.2110  178.0670  139.2140 C   0  0  0  0  0  0  0  0  0  0  0  0
  191.5560  176.7180  137.6160 C   0  0  0  0  0  2  0  0  0  0  0  0
  185.8770  178.2820  137.6770 C   0  0  0  0  0  0  0  0  0  0  0  0
  190.5860  174.6590  137.1600 C   0  0  0  0  0  0  0  0  0  0  0  0
  192.4490  171.8550  135.7920 C   0  0  0  0  0  1  0  0  0  0  0  0
  189.6190  175.7110  136.9840 C   0  0  0  0  0  0  0  0  0  0  0  0
  185.5350  178.4880  139.0580 C   0  0  0  0  0  0  0  0  0  0  0  0
  184.9280  176.9980  135.8190 C   0  0  0  0  0  2  0  0  0  0  0  0
  186.0950  176.1140  135.8960 N   0  0  0  0  0  0  0  0  0  0  0  0
  184.7960  177.7390  137.1120 C   0  0  0  0  0  0  0  0  0  0  0  0
  186.0940  178.8640  140.1980 C   0  0  0  0  0  3  0  0  0  0  0  0
  190.1440  176.8720  137.2340 N   0  0  0  0  0  0  0  0  0  0  0  0
  187.2530  176.4950  136.3610 C   0  0  0  0  0  0  0  0  0  0  0  0
  188.2820  175.5090  136.5080 N   0  0  0  0  0  2  0  0  0  0  0  0
  193.0310  174.2860  137.0890 S   0  0  0  0  0  0  0  0  0  0  0  0
  191.9870  173.0970  136.4660 C   0  0  0  0  0  0  0  0  0  0  0  0
  190.6850  173.4760  136.5060 N   0  0  0  0  0  0  0  0  0  0  0  0
  183.6940  177.5730  138.0970 C   0  0  0  0  0  3  0  0  0  0  0  0
  185.7710  177.9010  143.4200 C   0  0  1  0  0  3  0  0  0  0  0  0
  184.3700  178.0150  143.3830 O   0  0  0  0  0  0  0  0  0  0  0  0
  185.0960  178.9880  142.6710 C   0  0  2  0  0  3  0  0  0  0  0  0
  186.2770  178.4340  144.7440 C   0  0  2  0  0  3  0  0  0  0  0  0
  187.1710  177.3910  145.3850 C   0  0  2  0  0  3  0  0  0  0  0  0
  185.7470  177.5690  145.8660 C   0  0  0  0  0  2  0  0  0  0  0  0
  188.1180  178.0780  146.3510 C   0  0  0  0  0  2  0  0  0  0  0  0
  188.3430  177.2140  147.5780 C   0  0  0  0  0  2  0  0  0  0  0  0
  188.2200  178.0440  148.8440 C   0  0  0  0  0  1  0  0  0  0  0  0
  182.6880  177.9320  141.2630 O   0  0  0  0  0  0  0  0  0  0  0  0
  179.1490  181.9800  138.9310 C   0  0  0  0  0  2  0  0  0  0  0  0
  181.4580  178.2130  140.6760 C   0  0  0  0  0  3  0  0  0  0  0  0
  179.6530  181.2480  140.1640 C   0  0  0  0  0  2  0  0  0  0  0  0
  180.9470  180.6130  139.8010 C   0  0  0  0  0  0  0  0  0  0  0  0
  179.8600  181.4010  137.7170 C   0  0  2  0  0  3  0  0  0  0  0  0
  181.2030  179.4130  140.2410 C   0  0  0  0  0  0  0  0  0  0  0  0
  181.5770  181.0950  138.2070 S   0  0  0  0  0  0  0  0  0  0  0  0
  179.8240  182.3160  136.6640 O   0  0  0  0  0  0  0  0  0  0  0  0
  180.4220  184.6030  136.4240 C   0  0  0  0  0  1  0  0  0  0  0  0
  180.8190  183.2470  136.9660 C   0  0  0  0  0  2  0  0  0  0  0  0
  1  6  1  0  0  0  0
  2  4  1  0  0  0  0
  2 32  1  0  0  0  0
  3  7  1  0  0  0  0
  5  2  2  0  0  0  0
  7 11  2  0  0  0  0
  8  1  2  0  0  0  0
  9 20  1  0  0  0  0
 10  8  1  0  0  0  0
 10 16  2  0  0  0  0
 11  5  1  0  0  0  0
 11 15  1  0  0  0  0
 12 13  1  0  0  0  0
 12 14  1  0  0  0  0
 13 17  2  0  0  0  0
 14  7  1  0  0  0  0
 14 22  2  0  0  0  0
 15  4  2  0  0  0  0
 16  6  1  0  0  0  0
 17 18  1  0  0  0  0
 17  3  1  0  0  0  0
 18 10  1  0  0  0  0
 19  1  1  0  0  0  0
 20 21  2  0  0  0  0
 20 19  1  0  0  0  0
 21  8  1  0  0  0  0
 22  5  1  0  0  0  0
 23 24  1  1  0  0  0
 23 26  1  0  0  0  0
 25  4  1  6  0  0  0
 25 24  1  0  0  0  0
 25 23  1  0  0  0  0
 26 27  1  0  0  0  0
 26 28  1  1  0  0  0
 27 28  1  0  0  0  0
 27 29  1  1  0  0  0
 29 30  1  0  0  0  0
 30 31  1  0  0  0  0
 33 35  1  0  0  0  0
 34 32  1  0  0  0  0
 36 35  1  0  0  0  0
 36 38  2  0  0  0  0
 37 40  1  6  0  0  0
 37 39  1  0  0  0  0
 37 33  1  0  0  0  0
 38 34  2  0  0  0  0
 39 36  1  0  0  0  0
 40 42  1  0  0  0  0
 41 42  1  0  0  0  0
M  END
>  <MODEL>
2

>  <REMARK>
 VINA RESULT:      -8.3      4.642      9.199
  Name = 
  8 active torsions:
  status: ('A' for Active; 'I' for Inactive)
    1  A    between atoms: C_2  and  O_13
    2  A    between atoms: C_5  and  C_6
    3  A    between atoms: C_7  and  O_13
    4  A    between atoms: C_10  and  O_12
    5  A    between atoms: C_11  and  C_30
    6  A    between atoms: O_12  and  C_41
    7  A    between atoms: C_20  and  C_24
    8  A    between atoms: C_20  and  C_31
                            x       y       z     vdW  Elec       q    Type
                         _______ _______ _______ _____ _____    ______ ____

>  <TORSDO>
F 8

$$$$
=
 OpenBabel10222419293D

 42 49  0  0  1  0  0  0  0  0999 V2000
  195.1720  172.5690  137.9790 C   0  0  0  0  0  0  0  0  0  0  0  0
  188.5630  177.1600  141.8450 C   0  0  0  0  0  0  0  0  0  0  0  0
  192.6310  177.0770  138.6560 S   0  0  0  0  0  0  0  0  0  0  0  0
  189.6060  176.8170  142.6150 C   0  0  0  0  0  0  0  0  0  0  0  0
  189.1090  177.4680  140.5410 C   0  0  0  0  0  0  0  0  0  0  0  0
  195.5560  173.8100  138.7020 C   0  0  0  0  0  2  0  0  0  0  0  0
  191.0320  177.5320  139.3230 C   0  0  0  0  0  0  0  0  0  0  0  0
  194.0080  172.7680  137.3200 C   0  0  0  0  0  0  0  0  0  0  0  0
  194.9300  170.2550  134.8620 C   0  0  0  0  0  1  0  0  0  0  0  0
  193.5770  174.1080  137.6230 C   0  0  0  0  0  0  0  0  0  0  0  0
  190.4920  177.2880  140.6340 C   0  0  0  0  0  0  0  0  0  0  0  0
  190.1120  177.6700  137.0580 C   0  0  0  0  0  2  0  0  0  0  0  0
  190.8090  176.4180  136.7490 N   0  0  0  0  0  0  0  0  0  0  0  0
  189.9820  177.7990  138.5430 C   0  0  0  0  0  0  0  0  0  0  0  0
  190.8800  176.8830  141.8330 C   0  0  0  0  0  3  0  0  0  0  0  0
  194.4310  174.7080  138.3960 N   0  0  0  0  0  0  0  0  0  0  0  0
  191.8880  176.0270  137.3690 C   0  0  0  0  0  0  0  0  0  0  0  0
  192.4070  174.7250  137.0710 N   0  0  0  0  0  2  0  0  0  0  0  0
  196.0800  171.4250  137.1510 S   0  0  0  0  0  0  0  0  0  0  0  0
  194.8330  171.1820  136.0210 C   0  0  0  0  0  0  0  0  0  0  0  0
  193.7980  172.0410  136.1970 N   0  0  0  0  0  0  0  0  0  0  0  0
  188.7080  177.7510  139.3090 C   0  0  0  0  0  3  0  0  0  0  0  0
  189.4590  177.5930  144.9610 C   0  0  1  0  0  3  0  0  0  0  0  0
  190.6260  176.8350  144.7500 O   0  0  0  0  0  0  0  0  0  0  0  0
  189.4750  176.4190  144.0550 C   0  0  2  0  0  3  0  0  0  0  0  0
  188.8480  177.2010  146.2900 C   0  0  2  0  0  3  0  0  0  0  0  0
  188.4960  178.4590  147.0590 C   0  0  2  0  0  3  0  0  0  0  0  0
  189.7430  177.6770  147.4120 C   0  0  0  0  0  2  0  0  0  0  0  0
  187.4010  178.1370  148.0590 C   0  0  0  0  0  2  0  0  0  0  0  0
  186.1230  178.8720  147.7000 C   0  0  0  0  0  2  0  0  0  0  0  0
  185.5540  178.3470  146.3950 C   0  0  0  0  0  1  0  0  0  0  0  0
  187.2290  177.1990  142.2540 O   0  0  0  0  0  0  0  0  0  0  0  0
  183.0570  179.7980  139.0620 C   0  0  0  0  0  2  0  0  0  0  0  0
  186.4360  178.3250  142.0590 C   0  0  0  0  0  3  0  0  0  0  0  0
  184.5310  179.4980  139.2790 C   0  0  0  0  0  2  0  0  0  0  0  0
  184.6130  178.3330  140.1990 C   0  0  0  0  0  0  0  0  0  0  0  0
  182.2750  179.1570  140.1980 C   0  0  2  0  0  3  0  0  0  0  0  0
  185.5270  178.3290  141.1270 C   0  0  0  0  0  0  0  0  0  0  0  0
  183.0480  177.5530  140.5310 S   0  0  0  0  0  0  0  0  0  0  0  0
  180.9460  178.9720  139.8140 O   0  0  0  0  0  0  0  0  0  0  0  0
  180.0160  179.8510  141.8160 C   0  0  0  0  0  1  0  0  0  0  0  0
  180.2660  180.0710  140.3400 C   0  0  0  0  0  2  0  0  0  0  0  0
  1  6  1  0  0  0  0
  2 32  1  0  0  0  0
  2  4  1  0  0  0  0
  3  7  1  0  0  0  0
  5 11  1  0  0  0  0
  5  2  2  0  0  0  0
  7 11  2  0  0  0  0
  8 10  1  0  0  0  0
  8  1  2  0  0  0  0
  9 20  1  0  0  0  0
 10 16  2  0  0  0  0
 11 15  1  0  0  0  0
 12 14  1  0  0  0  0
 13 12  1  0  0  0  0
 13 17  2  0  0  0  0
 14 22  2  0  0  0  0
 14  7  1  0  0  0  0
 15  4  2  0  0  0  0
 16  6  1  0  0  0  0
 17  3  1  0  0  0  0
 18 17  1  0  0  0  0
 18 10  1  0  0  0  0
 19  1  1  0  0  0  0
 20 21  2  0  0  0  0
 20 19  1  0  0  0  0
 21  8  1  0  0  0  0
 22  5  1  0  0  0  0
 23 24  1  1  0  0  0
 23 26  1  0  0  0  0
 25  4  1  6  0  0  0
 25 24  1  0  0  0  0
 25 23  1  0  0  0  0
 26 27  1  0  0  0  0
 26 28  1  1  0  0  0
 27 28  1  0  0  0  0
 27 29  1  1  0  0  0
 30 29  1  0  0  0  0
 31 30  1  0  0  0  0
 33 35  1  0  0  0  0
 33 37  1  0  0  0  0
 34 32  1  0  0  0  0
 35 36  1  0  0  0  0
 36 39  1  0  0  0  0
 36 38  2  0  0  0  0
 37 40  1  6  0  0  0
 37 39  1  0  0  0  0
 38 34  2  0  0  0  0
 40 42  1  0  0  0  0
 42 41  1  0  0  0  0
M  END
>  <MODEL>
3

>  <REMARK>
 VINA RESULT:      -8.1      5.244     10.135
  Name = 
  8 active torsions:
  status: ('A' for Active; 'I' for Inactive)
    1  A    between atoms: C_2  and  O_13
    2  A    between atoms: C_5  and  C_6
    3  A    between atoms: C_7  and  O_13
    4  A    between atoms: C_10  and  O_12
    5  A    between atoms: C_11  and  C_30
    6  A    between atoms: O_12  and  C_41
    7  A    between atoms: C_20  and  C_24
    8  A    between atoms: C_20  and  C_31
                            x       y       z     vdW  Elec       q    Type
                         _______ _______ _______ _____ _____    ______ ____

>  <TORSDO>
F 8

$$$$
=
 OpenBabel10222419293D

 42 49  0  0  1  0  0  0  0  0999 V2000
  183.4520  172.1450  135.6540 C   0  0  0  0  0  0  0  0  0  0  0  0
  190.8330  176.3580  138.3830 C   0  0  0  0  0  0  0  0  0  0  0  0
  186.5710  176.3250  135.4590 S   0  0  0  0  0  0  0  0  0  0  0  0
  190.9910  175.3230  137.5460 C   0  0  0  0  0  0  0  0  0  0  0  0
  189.6220  177.0320  137.9690 C   0  0  0  0  0  0  0  0  0  0  0  0
  184.3740  172.6290  134.5940 C   0  0  0  0  0  2  0  0  0  0  0  0
  187.8930  176.9560  136.4890 C   0  0  0  0  0  0  0  0  0  0  0  0
  183.3830  173.0580  136.6490 C   0  0  0  0  0  0  0  0  0  0  0  0
  180.0380  171.9250  137.5050 C   0  0  0  0  0  1  0  0  0  0  0  0
  184.2790  174.1290  136.2990 C   0  0  0  0  0  0  0  0  0  0  0  0
  189.1310  176.3280  136.8660 C   0  0  0  0  0  0  0  0  0  0  0  0
  186.3330  178.5120  137.5590 C   0  0  0  0  0  2  0  0  0  0  0  0
  185.3650  177.4130  137.6400 N   0  0  0  0  0  0  0  0  0  0  0  0
  187.7020  177.9400  137.3730 C   0  0  0  0  0  0  0  0  0  0  0  0
  189.8750  175.2800  136.5500 C   0  0  0  0  0  3  0  0  0  0  0  0
  184.8430  173.9070  135.1510 N   0  0  0  0  0  0  0  0  0  0  0  0
  185.3640  176.4000  136.8180 C   0  0  0  0  0  0  0  0  0  0  0  0
  184.4530  175.3220  137.0740 N   0  0  0  0  0  2  0  0  0  0  0  0
  181.9990  171.3050  135.5820 S   0  0  0  0  0  0  0  0  0  0  0  0
  181.3990  172.1290  136.9430 C   0  0  0  0  0  0  0  0  0  0  0  0
  182.2360  173.1090  137.3680 N   0  0  0  0  0  0  0  0  0  0  0  0
  188.8110  178.0050  138.3620 C   0  0  0  0  0  3  0  0  0  0  0  0
  193.1550  174.6040  136.5840 C   0  0  1  0  0  3  0  0  0  0  0  0
  192.1810  173.5990  136.4460 O   0  0  0  0  0  0  0  0  0  0  0  0
  192.1340  174.3570  137.6300 C   0  0  2  0  0  3  0  0  0  0  0  0
  194.4670  173.9700  136.9930 C   0  0  2  0  0  3  0  0  0  0  0  0
  195.5940  174.6290  136.2230 C   0  0  2  0  0  3  0  0  0  0  0  0
  195.0790  173.2710  135.8000 C   0  0  0  0  0  2  0  0  0  0  0  0
  196.8890  174.4580  136.9960 C   0  0  0  0  0  2  0  0  0  0  0  0
  198.0720  174.8920  136.1520 C   0  0  0  0  0  2  0  0  0  0  0  0
  197.6040  175.6620  134.9310 C   0  0  0  0  0  1  0  0  0  0  0  0
  191.6880  176.6890  139.4360 O   0  0  0  0  0  0  0  0  0  0  0  0
  189.1600  177.3740  144.6790 C   0  0  0  0  0  2  0  0  0  0  0  0
  191.3020  177.5680  140.4440 C   0  0  0  0  0  3  0  0  0  0  0  0
  189.0170  177.2800  143.1690 C   0  0  0  0  0  2  0  0  0  0  0  0
  190.2600  176.6510  142.6480 C   0  0  0  0  0  0  0  0  0  0  0  0
  190.6380  177.2650  145.0200 C   0  0  2  0  0  3  0  0  0  0  0  0
  190.7790  177.1090  141.5430 C   0  0  0  0  0  0  0  0  0  0  0  0
  191.3440  176.0190  143.9090 S   0  0  0  0  0  0  0  0  0  0  0  0
  190.7920  176.8580  146.3450 O   0  0  0  0  0  0  0  0  0  0  0  0
  192.3490  175.7800  147.7810 C   0  0  0  0  0  1  0  0  0  0  0  0
  191.9620  176.0980  146.3530 C   0  0  0  0  0  2  0  0  0  0  0  0
  1  8  2  0  0  0  0
  2 32  1  0  0  0  0
  3  7  1  0  0  0  0
  3 17  1  0  0  0  0
  4  2  2  0  0  0  0
  5 22  2  0  0  0  0
  5  2  1  0  0  0  0
  6 16  1  0  0  0  0
  6  1  1  0  0  0  0
  7 11  1  0  0  0  0
  7 14  2  0  0  0  0
  8 21  1  0  0  0  0
 10  8  1  0  0  0  0
 10 18  1  0  0  0  0
 11  5  1  0  0  0  0
 12 13  1  0  0  0  0
 14 12  1  0  0  0  0
 14 22  1  0  0  0  0
 15 11  2  0  0  0  0
 15  4  1  0  0  0  0
 16 10  2  0  0  0  0
 17 18  1  0  0  0  0
 17 13  2  0  0  0  0
 19  1  1  0  0  0  0
 19 20  1  0  0  0  0
 20 21  2  0  0  0  0
 20  9  1  0  0  0  0
 23 24  1  6  0  0  0
 23 26  1  0  0  0  0
 23 25  1  0  0  0  0
 24 25  1  0  0  0  0
 25  4  1  6  0  0  0
 26 28  1  6  0  0  0
 27 26  1  0  0  0  0
 27 29  1  1  0  0  0
 28 27  1  0  0  0  0
 30 29  1  0  0  0  0
 31 30  1  0  0  0  0
 32 34  1  0  0  0  0
 33 37  1  0  0  0  0
 34 38  2  0  0  0  0
 35 33  1  0  0  0  0
 36 35  1  0  0  0  0
 36 39  1  0  0  0  0
 37 40  1  1  0  0  0
 38 36  2  0  0  0  0
 39 37  1  0  0  0  0
 40 42  1  0  0  0  0
 42 41  1  0  0  0  0
M  END
>  <MODEL>
4

>  <REMARK>
 VINA RESULT:      -7.9      4.114      6.749
  Name = 
  8 active torsions:
  status: ('A' for Active; 'I' for Inactive)
    1  A    between atoms: C_2  and  O_13
    2  A    between atoms: C_5  and  C_6
    3  A    between atoms: C_7  and  O_13
    4  A    between atoms: C_10  and  O_12
    5  A    between atoms: C_11  and  C_30
    6  A    between atoms: O_12  and  C_41
    7  A    between atoms: C_20  and  C_24
    8  A    between atoms: C_20  and  C_31
                            x       y       z     vdW  Elec       q    Type
                         _______ _______ _______ _____ _____    ______ ____

>  <TORSDO>
F 8

$$$$
=
 OpenBabel10222419293D

 42 49  0  0  1  0  0  0  0  0999 V2000
  192.9170  174.5840  137.6290 C   0  0  0  0  0  0  0  0  0  0  0  0
  185.1120  178.3150  139.8290 C   0  0  0  0  0  0  0  0  0  0  0  0
  189.1570  178.0600  136.6210 S   0  0  0  0  0  0  0  0  0  0  0  0
  186.1760  178.6280  140.5820 C   0  0  0  0  0  0  0  0  0  0  0  0
  185.5980  178.1950  138.4720 C   0  0  0  0  0  0  0  0  0  0  0  0
  192.8970  176.0660  137.7490 C   0  0  0  0  0  2  0  0  0  0  0  0
  187.4690  178.2830  137.1770 C   0  0  0  0  0  0  0  0  0  0  0  0
  191.7740  174.1590  137.0460 C   0  0  0  0  0  0  0  0  0  0  0  0
  193.4830  171.2220  135.7570 C   0  0  0  0  0  1  0  0  0  0  0  0
  190.9620  175.3250  136.8120 C   0  0  0  0  0  0  0  0  0  0  0  0
  186.9690  178.4640  138.5140 C   0  0  0  0  0  0  0  0  0  0  0  0
  186.6420  177.2090  135.1380 C   0  0  0  0  0  2  0  0  0  0  0  0
  187.6830  176.1900  135.3080 N   0  0  0  0  0  0  0  0  0  0  0  0
  186.4200  177.8990  136.4460 C   0  0  0  0  0  0  0  0  0  0  0  0
  187.4080  178.7180  139.7370 C   0  0  0  0  0  3  0  0  0  0  0  0
  191.5740  176.4020  137.1990 N   0  0  0  0  0  0  0  0  0  0  0  0
  188.8030  176.4100  135.9410 C   0  0  0  0  0  0  0  0  0  0  0  0
  189.6870  175.3040  136.1570 N   0  0  0  0  0  2  0  0  0  0  0  0
  194.1500  173.5040  137.2650 S   0  0  0  0  0  0  0  0  0  0  0  0
  193.0740  172.4770  136.4420 C   0  0  0  0  0  0  0  0  0  0  0  0
  191.8290  173.0050  136.3380 N   0  0  0  0  0  0  0  0  0  0  0  0
  185.1840  177.8180  137.2700 C   0  0  0  0  0  3  0  0  0  0  0  0
  186.7260  177.7290  142.8220 C   0  0  1  0  0  3  0  0  0  0  0  0
  185.3340  177.8170  142.6390 O   0  0  0  0  0  0  0  0  0  0  0  0
  186.1070  178.8430  142.0640 C   0  0  2  0  0  3  0  0  0  0  0  0
  187.0720  178.1960  144.2200 C   0  0  2  0  0  3  0  0  0  0  0  0
  188.0070  177.1880  144.8580 C   0  0  2  0  0  3  0  0  0  0  0  0
  186.5390  177.2000  145.2260 C   0  0  0  0  0  2  0  0  0  0  0  0
  188.8060  177.8750  145.9490 C   0  0  0  0  0  2  0  0  0  0  0  0
  188.6790  177.1170  147.2580 C   0  0  0  0  0  2  0  0  0  0  0  0
  188.2410  178.0490  148.3730 C   0  0  0  0  0  1  0  0  0  0  0  0
  183.8070  178.1450  140.2970 O   0  0  0  0  0  0  0  0  0  0  0  0
  180.1860  174.2870  137.7760 C   0  0  0  0  0  2  0  0  0  0  0  0
  183.2090  176.8910  140.3560 C   0  0  0  0  0  3  0  0  0  0  0  0
  180.3800  175.4730  138.7060 C   0  0  0  0  0  2  0  0  0  0  0  0
  181.7070  176.0670  138.3940 C   0  0  0  0  0  0  0  0  0  0  0  0
  181.5530  173.8690  137.2570 C   0  0  2  0  0  3  0  0  0  0  0  0
  182.4560  176.4810  139.3760 C   0  0  0  0  0  0  0  0  0  0  0  0
  182.4870  175.3900  136.9440 S   0  0  0  0  0  0  0  0  0  0  0  0
  181.4110  173.1480  136.0710 O   0  0  0  0  0  0  0  0  0  0  0  0
  182.8940  171.4810  136.8880 C   0  0  0  0  0  1  0  0  0  0  0  0
  182.6600  172.5630  135.8570 C   0  0  0  0  0  2  0  0  0  0  0  0
  1  6  1  0  0  0  0
  2 32  1  0  0  0  0
  2  4  1  0  0  0  0
  3  7  1  0  0  0  0
  5 11  1  0  0  0  0
  5  2  2  0  0  0  0
  7 11  2  0  0  0  0
  8  1  2  0  0  0  0
  9 20  1  0  0  0  0
 10  8  1  0  0  0  0
 10 16  2  0  0  0  0
 11 15  1  0  0  0  0
 12 13  1  0  0  0  0
 12 14  1  0  0  0  0
 13 17  2  0  0  0  0
 14  7  1  0  0  0  0
 14 22  2  0  0  0  0
 15  4  2  0  0  0  0
 16  6  1  0  0  0  0
 17 18  1  0  0  0  0
 17  3  1  0  0  0  0
 18 10  1  0  0  0  0
 19  1  1  0  0  0  0
 20 19  1  0  0  0  0
 21 20  2  0  0  0  0
 21  8  1  0  0  0  0
 22  5  1  0  0  0  0
 23 24  1  1  0  0  0
 23 26  1  0  0  0  0
 25  4  1  6  0  0  0
 25 24  1  0  0  0  0
 25 23  1  0  0  0  0
 26 27  1  0  0  0  0
 26 28  1  1  0  0  0
 27 28  1  0  0  0  0
 27 29  1  1  0  0  0
 29 30  1  0  0  0  0
 30 31  1  0  0  0  0
 32 34  1  0  0  0  0
 33 35  1  0  0  0  0
 36 35  1  0  0  0  0
 36 38  2  0  0  0  0
 37 40  1  6  0  0  0
 37 33  1  0  0  0  0
 38 34  2  0  0  0  0
 39 37  1  0  0  0  0
 39 36  1  0  0  0  0
 42 40  1  0  0  0  0
 42 41  1  0  0  0  0
M  END
>  <MODEL>
5

>  <REMARK>
 VINA RESULT:      -7.6      4.736      9.569
  Name = 
  8 active torsions:
  status: ('A' for Active; 'I' for Inactive)
    1  A    between atoms: C_2  and  O_13
    2  A    between atoms: C_5  and  C_6
    3  A    between atoms: C_7  and  O_13
    4  A    between atoms: C_10  and  O_12
    5  A    between atoms: C_11  and  C_30
    6  A    between atoms: O_12  and  C_41
    7  A    between atoms: C_20  and  C_24
    8  A    between atoms: C_20  and  C_31
                            x       y       z     vdW  Elec       q    Type
                         _______ _______ _______ _____ _____    ______ ____

>  <TORSDO>
F 8

$$$$
=
 OpenBabel10222419293D

 42 49  0  0  1  0  0  0  0  0999 V2000
  186.4850  177.6490  144.2860 C   0  0  0  0  0  0  0  0  0  0  0  0
  189.6490  174.2680  136.6540 C   0  0  0  0  0  0  0  0  0  0  0  0
  189.1270  178.3100  139.8340 S   0  0  0  0  0  0  0  0  0  0  0  0
  188.3280  174.4870  136.7280 C   0  0  0  0  0  0  0  0  0  0  0  0
  190.2790  175.3450  137.3860 C   0  0  0  0  0  0  0  0  0  0  0  0
  186.1330  178.3760  143.0380 C   0  0  0  0  0  2  0  0  0  0  0  0
  189.8670  177.2040  138.6350 C   0  0  0  0  0  0  0  0  0  0  0  0
  187.7630  177.2150  144.2150 C   0  0  0  0  0  0  0  0  0  0  0  0
  188.0360  177.3180  147.8370 C   0  0  0  0  0  1  0  0  0  0  0  0
  188.2660  177.5970  142.9210 C   0  0  0  0  0  0  0  0  0  0  0  0
  189.2490  176.1660  137.8530 C   0  0  0  0  0  0  0  0  0  0  0  0
  192.0630  177.5350  139.6670 C   0  0  0  0  0  2  0  0  0  0  0  0
  191.4180  177.3920  140.9750 N   0  0  0  0  0  0  0  0  0  0  0  0
  191.1760  176.9380  138.6210 C   0  0  0  0  0  0  0  0  0  0  0  0
  188.0460  175.7240  137.5230 C   0  0  0  0  0  3  0  0  0  0  0  0
  187.3670  178.2490  142.2470 N   0  0  0  0  0  0  0  0  0  0  0  0
  190.1600  177.6680  141.1870 C   0  0  0  0  0  0  0  0  0  0  0  0
  189.6080  177.3670  142.4750 N   0  0  0  0  0  2  0  0  0  0  0  0
  186.0890  177.9230  145.8940 S   0  0  0  0  0  0  0  0  0  0  0  0
  187.6030  177.3510  146.4150 C   0  0  0  0  0  0  0  0  0  0  0  0
  188.4370  177.0730  145.3820 N   0  0  0  0  0  0  0  0  0  0  0  0
  191.4740  175.7190  137.8220 C   0  0  0  0  0  3  0  0  0  0  0  0
  186.1380  173.3640  136.9820 C   0  0  1  0  0  3  0  0  0  0  0  0
  187.1790  172.4240  136.8710 O   0  0  0  0  0  0  0  0  0  0  0  0
  187.3050  173.5930  136.0960 C   0  0  2  0  0  3  0  0  0  0  0  0
  184.9580  172.8950  136.1570 C   0  0  2  0  0  3  0  0  0  0  0  0
  183.6890  173.4970  136.7270 C   0  0  2  0  0  3  0  0  0  0  0  0
  184.0450  172.0560  137.0220 C   0  0  0  0  0  2  0  0  0  0  0  0
  182.6310  173.5420  135.6400 C   0  0  0  0  0  2  0  0  0  0  0  0
  181.3020  174.0000  136.2120 C   0  0  0  0  0  2  0  0  0  0  0  0
  180.6920  172.9130  137.0800 C   0  0  0  0  0  1  0  0  0  0  0  0
  190.2600  173.2000  135.9950 O   0  0  0  0  0  0  0  0  0  0  0  0
  196.0030  173.6480  134.9130 C   0  0  0  0  0  2  0  0  0  0  0  0
  191.5470  172.7810  136.3160 C   0  0  0  0  0  3  0  0  0  0  0  0
  194.6670  172.9970  134.5960 C   0  0  0  0  0  2  0  0  0  0  0  0
  193.6050  173.8760  135.1520 C   0  0  0  0  0  0  0  0  0  0  0  0
  195.7870  174.6320  136.0520 C   0  0  2  0  0  3  0  0  0  0  0  0
  192.5740  173.3270  135.7320 C   0  0  0  0  0  0  0  0  0  0  0  0
  194.1940  175.4430  135.7540 S   0  0  0  0  0  0  0  0  0  0  0  0
  196.8080  175.5830  136.0580 O   0  0  0  0  0  0  0  0  0  0  0  0
  197.4980  174.4760  138.0450 C   0  0  0  0  0  1  0  0  0  0  0  0
  197.8910  174.9400  136.6590 C   0  0  0  0  0  2  0  0  0  0  0  0
  1 19  1  0  0  0  0
  2  4  2  0  0  0  0
  2  5  1  0  0  0  0
  3 17  1  0  0  0  0
  4 15  1  0  0  0  0
  5 22  2  0  0  0  0
  5 11  1  0  0  0  0
  6  1  1  0  0  0  0
  7  3  1  0  0  0  0
  8  1  2  0  0  0  0
  8 21  1  0  0  0  0
 10  8  1  0  0  0  0
 11  7  1  0  0  0  0
 12 13  1  0  0  0  0
 13 17  2  0  0  0  0
 14  7  2  0  0  0  0
 14 12  1  0  0  0  0
 15 11  2  0  0  0  0
 16 10  2  0  0  0  0
 16  6  1  0  0  0  0
 17 18  1  0  0  0  0
 18 10  1  0  0  0  0
 19 20  1  0  0  0  0
 20  9  1  0  0  0  0
 21 20  2  0  0  0  0
 22 14  1  0  0  0  0
 23 24  1  1  0  0  0
 25  4  1  1  0  0  0
 25 24  1  0  0  0  0
 25 23  1  0  0  0  0
 26 27  1  0  0  0  0
 26 23  1  0  0  0  0
 26 28  1  1  0  0  0
 27 29  1  6  0  0  0
 27 28  1  0  0  0  0
 29 30  1  0  0  0  0
 30 31  1  0  0  0  0
 32 34  1  0  0  0  0
 32  2  1  0  0  0  0
 33 37  1  0  0  0  0
 35 33  1  0  0  0  0
 35 36  1  0  0  0  0
 36 38  2  0  0  0  0
 36 39  1  0  0  0  0
 37 40  1  6  0  0  0
 38 34  2  0  0  0  0
 39 37  1  0  0  0  0
 40 42  1  0  0  0  0
 42 41  1  0  0  0  0
M  END
>  <MODEL>
6

>  <REMARK>
 VINA RESULT:      -7.1      5.559     10.945
  Name = 
  8 active torsions:
  status: ('A' for Active; 'I' for Inactive)
    1  A    between atoms: C_2  and  O_13
    2  A    between atoms: C_5  and  C_6
    3  A    between atoms: C_7  and  O_13
    4  A    between atoms: C_10  and  O_12
    5  A    between atoms: C_11  and  C_30
    6  A    between atoms: O_12  and  C_41
    7  A    between atoms: C_20  and  C_24
    8  A    between atoms: C_20  and  C_31
                            x       y       z     vdW  Elec       q    Type
                         _______ _______ _______ _____ _____    ______ ____

>  <TORSDO>
F 8

$$$$
=
 OpenBabel10222419293D

 42 49  0  0  1  0  0  0  0  0999 V2000
  189.9030  177.2370  144.0500 C   0  0  0  0  0  0  0  0  0  0  0  0
  185.0460  176.8930  136.5680 C   0  0  0  0  0  0  0  0  0  0  0  0
  189.2000  178.6670  139.0800 S   0  0  0  0  0  0  0  0  0  0  0  0
  184.5570  177.6180  137.5850 C   0  0  0  0  0  0  0  0  0  0  0  0
  186.4800  177.0750  136.5950 C   0  0  0  0  0  0  0  0  0  0  0  0
  189.5040  178.5390  143.4540 C   0  0  0  0  0  2  0  0  0  0  0  0
  188.1840  178.0700  137.7320 C   0  0  0  0  0  0  0  0  0  0  0  0
  190.2310  176.3680  143.0680 C   0  0  0  0  0  0  0  0  0  0  0  0
  192.4580  174.5990  145.3300 C   0  0  0  0  0  1  0  0  0  0  0  0
  190.0160  177.0470  141.8170 C   0  0  0  0  0  0  0  0  0  0  0  0
  186.7540  177.9360  137.6610 C   0  0  0  0  0  0  0  0  0  0  0  0
  190.0960  176.8400  136.8200 C   0  0  0  0  0  2  0  0  0  0  0  0
  190.4040  176.4000  138.1840 N   0  0  0  0  0  0  0  0  0  0  0  0
  188.6700  177.2870  136.7650 C   0  0  0  0  0  0  0  0  0  0  0  0
  185.6660  178.3010  138.3220 C   0  0  0  0  0  3  0  0  0  0  0  0
  189.6090  178.2640  142.0120 N   0  0  0  0  0  0  0  0  0  0  0  0
  190.0610  177.0730  139.2480 C   0  0  0  0  0  0  0  0  0  0  0  0
  190.3010  176.4810  140.5310 N   0  0  0  0  0  2  0  0  0  0  0  0
  190.7780  176.8560  145.4320 S   0  0  0  0  0  0  0  0  0  0  0  0
  191.4650  175.4950  144.6800 C   0  0  0  0  0  0  0  0  0  0  0  0
  191.1320  175.4020  143.3680 N   0  0  0  0  0  0  0  0  0  0  0  0
  187.5780  176.6120  136.0130 C   0  0  0  0  0  3  0  0  0  0  0  0
  182.8380  177.5420  139.3650 C   0  0  1  0  0  3  0  0  0  0  0  0
  182.6790  176.4760  138.4610 O   0  0  0  0  0  0  0  0  0  0  0  0
  183.0970  177.7040  137.9140 C   0  0  2  0  0  3  0  0  0  0  0  0
  181.4770  178.1110  139.7050 C   0  0  2  0  0  3  0  0  0  0  0  0
  181.3070  178.1120  141.2110 C   0  0  2  0  0  3  0  0  0  0  0  0
  180.6410  177.0420  140.3720 C   0  0  0  0  0  2  0  0  0  0  0  0
  180.2810  179.1630  141.5930 C   0  0  0  0  0  2  0  0  0  0  0  0
  180.4830  179.6040  143.0300 C   0  0  0  0  0  2  0  0  0  0  0  0
  180.1800  178.4640  143.9860 C   0  0  0  0  0  1  0  0  0  0  0  0
  184.2890  176.1250  135.6810 O   0  0  0  0  0  0  0  0  0  0  0  0
  183.1710  170.4140  136.3780 C   0  0  0  0  0  2  0  0  0  0  0  0
  184.6400  174.8170  135.3630 C   0  0  0  0  0  3  0  0  0  0  0  0
  183.8770  171.6700  136.8630 C   0  0  0  0  0  2  0  0  0  0  0  0
  183.1950  172.8300  136.2310 C   0  0  0  0  0  0  0  0  0  0  0  0
  182.4060  170.7650  135.1110 C   0  0  2  0  0  3  0  0  0  0  0  0
  183.9190  173.8250  135.8000 C   0  0  0  0  0  0  0  0  0  0  0  0
  181.7000  172.4150  135.3600 S   0  0  0  0  0  0  0  0  0  0  0  0
  181.3830  169.8390  134.9020 O   0  0  0  0  0  0  0  0  0  0  0  0
  179.1220  169.6280  135.6020 C   0  0  0  0  0  1  0  0  0  0  0  0
  180.2040  170.5590  135.0990 C   0  0  0  0  0  2  0  0  0  0  0  0
  1 19  1  0  0  0  0
  2  5  2  0  0  0  0
  2  4  1  0  0  0  0
  3 17  1  0  0  0  0
  4 15  2  0  0  0  0
  5 11  1  0  0  0  0
  6  1  1  0  0  0  0
  7  3  1  0  0  0  0
  8 21  1  0  0  0  0
  8  1  2  0  0  0  0
 10 16  2  0  0  0  0
 10  8  1  0  0  0  0
 11  7  2  0  0  0  0
 11 15  1  0  0  0  0
 12 13  1  0  0  0  0
 13 17  2  0  0  0  0
 14 12  1  0  0  0  0
 14  7  1  0  0  0  0
 16  6  1  0  0  0  0
 17 18  1  0  0  0  0
 18 10  1  0  0  0  0
 20  9  1  0  0  0  0
 20 19  1  0  0  0  0
 21 20  2  0  0  0  0
 22  5  1  0  0  0  0
 22 14  2  0  0  0  0
 23 24  1  6  0  0  0
 23 26  1  0  0  0  0
 25  4  1  1  0  0  0
 25 24  1  0  0  0  0
 25 23  1  0  0  0  0
 26 28  1  6  0  0  0
 26 27  1  0  0  0  0
 27 29  1  6  0  0  0
 28 27  1  0  0  0  0
 29 30  1  0  0  0  0
 30 31  1  0  0  0  0
 32  2  1  0  0  0  0
 33 35  1  0  0  0  0
 34 32  1  0  0  0  0
 34 38  2  0  0  0  0
 36 35  1  0  0  0  0
 37 40  1  1  0  0  0
 37 39  1  0  0  0  0
 37 33  1  0  0  0  0
 38 36  2  0  0  0  0
 39 36  1  0  0  0  0
 40 42  1  0  0  0  0
 42 41  1  0  0  0  0
M  END
>  <MODEL>
7

>  <REMARK>
 VINA RESULT:      -7.1      4.807     11.357
  Name = 
  8 active torsions:
  status: ('A' for Active; 'I' for Inactive)
    1  A    between atoms: C_2  and  O_13
    2  A    between atoms: C_5  and  C_6
    3  A    between atoms: C_7  and  O_13
    4  A    between atoms: C_10  and  O_12
    5  A    between atoms: C_11  and  C_30
    6  A    between atoms: O_12  and  C_41
    7  A    between atoms: C_20  and  C_24
    8  A    between atoms: C_20  and  C_31
                            x       y       z     vdW  Elec       q    Type
                         _______ _______ _______ _____ _____    ______ ____

>  <TORSDO>
F 8

$$$$
=
 OpenBabel10222419293D

 42 49  0  0  1  0  0  0  0  0999 V2000
  186.1080  177.9890  143.9240 C   0  0  0  0  0  0  0  0  0  0  0  0
  188.0650  174.5270  135.9320 C   0  0  0  0  0  0  0  0  0  0  0  0
  188.3120  178.5070  139.2220 S   0  0  0  0  0  0  0  0  0  0  0  0
  186.7900  174.8770  136.1540 C   0  0  0  0  0  0  0  0  0  0  0  0
  188.8790  175.5120  136.6090 C   0  0  0  0  0  0  0  0  0  0  0  0
  185.7030  178.7840  142.7350 C   0  0  0  0  0  2  0  0  0  0  0  0
  188.8000  177.3660  137.9290 C   0  0  0  0  0  0  0  0  0  0  0  0
  187.3190  177.4300  143.7060 C   0  0  0  0  0  0  0  0  0  0  0  0
  187.9880  177.3990  147.2770 C   0  0  0  0  0  1  0  0  0  0  0  0
  187.7170  177.7960  142.3710 C   0  0  0  0  0  0  0  0  0  0  0  0
  187.9970  176.4200  137.2020 C   0  0  0  0  0  0  0  0  0  0  0  0
  191.1170  177.4410  138.7200 C   0  0  0  0  0  2  0  0  0  0  0  0
  190.6040  177.3280  140.0880 N   0  0  0  0  0  0  0  0  0  0  0  0
  190.0640  176.9690  137.7670 C   0  0  0  0  0  0  0  0  0  0  0  0
  186.7260  176.1130  136.9970 C   0  0  0  0  0  3  0  0  0  0  0  0
  186.8250  178.5550  141.8120 N   0  0  0  0  0  0  0  0  0  0  0  0
  189.4120  177.7240  140.4410 C   0  0  0  0  0  0  0  0  0  0  0  0
  188.9730  177.4430  141.7770 N   0  0  0  0  0  2  0  0  0  0  0  0
  185.9180  178.2550  145.5710 S   0  0  0  0  0  0  0  0  0  0  0  0
  187.4110  177.5170  145.9120 C   0  0  0  0  0  0  0  0  0  0  0  0
  188.0960  177.1860  144.7880 N   0  0  0  0  0  0  0  0  0  0  0  0
  190.1470  175.7500  136.9190 C   0  0  0  0  0  3  0  0  0  0  0  0
  184.7250  173.6290  136.7050 C   0  0  1  0  0  3  0  0  0  0  0  0
  185.6790  172.7890  136.1030 O   0  0  0  0  0  0  0  0  0  0  0  0
  185.6170  174.1110  135.6230 C   0  0  2  0  0  3  0  0  0  0  0  0
  183.3580  173.3150  136.1350 C   0  0  2  0  0  3  0  0  0  0  0  0
  182.3130  173.5440  137.2090 C   0  0  2  0  0  3  0  0  0  0  0  0
  182.7650  172.1380  136.8780 C   0  0  0  0  0  2  0  0  0  0  0  0
  180.9730  173.8110  136.5470 C   0  0  0  0  0  2  0  0  0  0  0  0
  180.2090  174.8780  137.3080 C   0  0  0  0  0  2  0  0  0  0  0  0
  179.9080  174.4140  138.7210 C   0  0  0  0  0  1  0  0  0  0  0  0
  188.4870  173.4210  135.1910 O   0  0  0  0  0  0  0  0  0  0  0  0
  193.8710  171.1070  135.2310 C   0  0  0  0  0  2  0  0  0  0  0  0
  189.3460  172.4670  135.7250 C   0  0  0  0  0  3  0  0  0  0  0  0
  192.4730  171.1380  134.6350 C   0  0  0  0  0  2  0  0  0  0  0  0
  191.8550  172.4320  135.0270 C   0  0  0  0  0  0  0  0  0  0  0  0
  193.9240  172.1250  136.3590 C   0  0  2  0  0  3  0  0  0  0  0  0
  190.5990  172.4480  135.3740 C   0  0  0  0  0  0  0  0  0  0  0  0
  192.9770  173.5700  135.8110 S   0  0  0  0  0  0  0  0  0  0  0  0
  195.2470  172.4920  136.6070 O   0  0  0  0  0  0  0  0  0  0  0  0
  195.4450  173.5220  138.7390 C   0  0  0  0  0  1  0  0  0  0  0  0
  195.4440  172.2230  137.9620 C   0  0  0  0  0  2  0  0  0  0  0  0
  1 19  1  0  0  0  0
  2  4  2  0  0  0  0
  2  5  1  0  0  0  0
  3 17  1  0  0  0  0
  4 15  1  0  0  0  0
  5 22  2  0  0  0  0
  5 11  1  0  0  0  0
  6  1  1  0  0  0  0
  7  3  1  0  0  0  0
  8  1  2  0  0  0  0
  8 21  1  0  0  0  0
 10  8  1  0  0  0  0
 11  7  1  0  0  0  0
 12 13  1  0  0  0  0
 13 17  2  0  0  0  0
 14  7  2  0  0  0  0
 14 12  1  0  0  0  0
 15 11  2  0  0  0  0
 16 10  2  0  0  0  0
 16  6  1  0  0  0  0
 17 18  1  0  0  0  0
 18 10  1  0  0  0  0
 19 20  1  0  0  0  0
 20  9  1  0  0  0  0
 21 20  2  0  0  0  0
 22 14  1  0  0  0  0
 23 24  1  6  0  0  0
 25 24  1  0  0  0  0
 25  4  1  1  0  0  0
 25 23  1  0  0  0  0
 26 23  1  0  0  0  0
 26 28  1  1  0  0  0
 26 27  1  0  0  0  0
 27 29  1  6  0  0  0
 28 27  1  0  0  0  0
 29 30  1  0  0  0  0
 30 31  1  0  0  0  0
 32 34  1  0  0  0  0
 32  2  1  0  0  0  0
 33 37  1  0  0  0  0
 35 36  1  0  0  0  0
 35 33  1  0  0  0  0
 36 38  2  0  0  0  0
 36 39  1  0  0  0  0
 37 40  1  6  0  0  0
 38 34  2  0  0  0  0
 39 37  1  0  0  0  0
 40 42  1  0  0  0  0
 42 41  1  0  0  0  0
M  END
>  <MODEL>
8

>  <REMARK>
 VINA RESULT:      -7.1      5.372     10.720
  Name = 
  8 active torsions:
  status: ('A' for Active; 'I' for Inactive)
    1  A    between atoms: C_2  and  O_13
    2  A    between atoms: C_5  and  C_6
    3  A    between atoms: C_7  and  O_13
    4  A    between atoms: C_10  and  O_12
    5  A    between atoms: C_11  and  C_30
    6  A    between atoms: O_12  and  C_41
    7  A    between atoms: C_20  and  C_24
    8  A    between atoms: C_20  and  C_31
                            x       y       z     vdW  Elec       q    Type
                         _______ _______ _______ _____ _____    ______ ____

>  <TORSDO>
F 8

$$$$
=
 OpenBabel10222419293D

 42 49  0  0  1  0  0  0  0  0999 V2000
  189.9690  177.3080  143.9070 C   0  0  0  0  0  0  0  0  0  0  0  0
  185.1670  176.7840  136.4000 C   0  0  0  0  0  0  0  0  0  0  0  0
  189.3530  178.5400  138.8730 S   0  0  0  0  0  0  0  0  0  0  0  0
  184.6930  177.5670  137.3800 C   0  0  0  0  0  0  0  0  0  0  0  0
  186.6060  176.9230  136.4330 C   0  0  0  0  0  0  0  0  0  0  0  0
  189.6150  178.5940  143.2510 C   0  0  0  0  0  2  0  0  0  0  0  0
  188.3300  177.9150  137.5420 C   0  0  0  0  0  0  0  0  0  0  0  0
  190.2780  176.3870  142.9670 C   0  0  0  0  0  0  0  0  0  0  0  0
  192.4300  174.6510  145.3260 C   0  0  0  0  0  1  0  0  0  0  0  0
  190.0950  177.0160  141.6850 C   0  0  0  0  0  0  0  0  0  0  0  0
  186.8970  177.8210  137.4640 C   0  0  0  0  0  0  0  0  0  0  0  0
  190.2110  176.5880  136.7030 C   0  0  0  0  0  2  0  0  0  0  0  0
  190.4930  176.1990  138.0890 N   0  0  0  0  0  0  0  0  0  0  0  0
  188.7990  177.0750  136.6150 C   0  0  0  0  0  0  0  0  0  0  0  0
  185.8160  178.2470  138.0970 C   0  0  0  0  0  3  0  0  0  0  0  0
  189.7240  178.2530  141.8240 N   0  0  0  0  0  0  0  0  0  0  0  0
  190.1630  176.9290  139.1180 C   0  0  0  0  0  0  0  0  0  0  0  0
  190.3730  176.3860  140.4280 N   0  0  0  0  0  2  0  0  0  0  0  0
  190.8200  176.9620  145.3120 S   0  0  0  0  0  0  0  0  0  0  0  0
  191.4710  175.5480  144.6280 C   0  0  0  0  0  0  0  0  0  0  0  0
  191.1470  175.4080  143.3180 N   0  0  0  0  0  0  0  0  0  0  0  0
  187.6940  176.4020  135.8820 C   0  0  0  0  0  3  0  0  0  0  0  0
  182.9410  178.9500  138.4510 C   0  0  1  0  0  3  0  0  0  0  0  0
  183.0590  177.7010  139.0860 O   0  0  0  0  0  0  0  0  0  0  0  0
  183.2330  177.7110  137.6900 C   0  0  2  0  0  3  0  0  0  0  0  0
  181.4740  179.2980  138.3120 C   0  0  2  0  0  3  0  0  0  0  0  0
  181.3210  180.8060  138.3460 C   0  0  2  0  0  3  0  0  0  0  0  0
  181.0010  179.9830  139.5750 C   0  0  0  0  0  2  0  0  0  0  0  0
  180.0310  181.1890  137.6460 C   0  0  0  0  0  2  0  0  0  0  0  0
  180.2530  182.3860  136.7410 C   0  0  0  0  0  2  0  0  0  0  0  0
  181.1630  183.4000  137.4100 C   0  0  0  0  0  1  0  0  0  0  0  0
  184.3950  176.0010  135.5400 O   0  0  0  0  0  0  0  0  0  0  0  0
  183.0870  170.3390  136.3020 C   0  0  0  0  0  2  0  0  0  0  0  0
  184.7210  174.6770  135.2640 C   0  0  0  0  0  3  0  0  0  0  0  0
  183.8060  171.5850  136.7920 C   0  0  0  0  0  2  0  0  0  0  0  0
  183.1860  172.7500  136.1080 C   0  0  0  0  0  0  0  0  0  0  0  0
  182.3870  170.6830  134.9970 C   0  0  2  0  0  3  0  0  0  0  0  0
  183.9550  173.7150  135.6880 C   0  0  0  0  0  0  0  0  0  0  0  0
  181.7180  172.3570  135.1820 S   0  0  0  0  0  0  0  0  0  0  0  0
  181.3480  169.7820  134.7620 O   0  0  0  0  0  0  0  0  0  0  0  0
  179.1780  169.6320  135.7180 C   0  0  0  0  0  1  0  0  0  0  0  0
  180.1820  170.5090  135.0030 C   0  0  0  0  0  2  0  0  0  0  0  0
  1 19  1  0  0  0  0
  2  5  2  0  0  0  0
  2  4  1  0  0  0  0
  3 17  1  0  0  0  0
  4 15  2  0  0  0  0
  5 11  1  0  0  0  0
  6  1  1  0  0  0  0
  7  3  1  0  0  0  0
  8 21  1  0  0  0  0
  8  1  2  0  0  0  0
 10 16  2  0  0  0  0
 10  8  1  0  0  0  0
 11  7  2  0  0  0  0
 11 15  1  0  0  0  0
 12 13  1  0  0  0  0
 13 17  2  0  0  0  0
 14 12  1  0  0  0  0
 14  7  1  0  0  0  0
 16  6  1  0  0  0  0
 17 18  1  0  0  0  0
 18 10  1  0  0  0  0
 20 19  1  0  0  0  0
 20  9  1  0  0  0  0
 21 20  2  0  0  0  0
 22  5  1  0  0  0  0
 22 14  2  0  0  0  0
 23 24  1  1  0  0  0
 25  4  1  1  0  0  0
 25 23  1  0  0  0  0
 25 24  1  0  0  0  0
 26 27  1  0  0  0  0
 26 23  1  0  0  0  0
 26 28  1  1  0  0  0
 27 29  1  6  0  0  0
 27 28  1  0  0  0  0
 30 31  1  0  0  0  0
 30 29  1  0  0  0  0
 32  2  1  0  0  0  0
 33 35  1  0  0  0  0
 34 32  1  0  0  0  0
 34 38  2  0  0  0  0
 36 35  1  0  0  0  0
 37 40  1  1  0  0  0
 37 39  1  0  0  0  0
 37 33  1  0  0  0  0
 38 36  2  0  0  0  0
 39 36  1  0  0  0  0
 40 42  1  0  0  0  0
 42 41  1  0  0  0  0
M  END
>  <MODEL>
9

>  <REMARK>
 VINA RESULT:      -6.7      5.001     11.541
  Name = 
  8 active torsions:
  status: ('A' for Active; 'I' for Inactive)
    1  A    between atoms: C_2  and  O_13
    2  A    between atoms: C_5  and  C_6
    3  A    between atoms: C_7  and  O_13
    4  A    between atoms: C_10  and  O_12
    5  A    between atoms: C_11  and  C_30
    6  A    between atoms: O_12  and  C_41
    7  A    between atoms: C_20  and  C_24
    8  A    between atoms: C_20  and  C_31
                            x       y       z     vdW  Elec       q    Type
                         _______ _______ _______ _____ _____    ______ ____

>  <TORSDO>
F 8

$$$$
