=
 OpenBabel10222420323D

 37 40  0  0  1  0  0  0  0  0999 V2000
  188.0600  177.2300  142.6790 C   0  0  0  0  0  0  0  0  0  0  0  0
  191.1000  176.3690  144.5690 C   0  0  0  0  0  0  0  0  0  0  0  0
  190.4700  177.0700  142.5570 C   0  0  0  0  0  0  0  0  0  0  0  0
  191.8600  176.3600  145.7780 N   0  0  0  0  0  0  0  0  0  0  0  0
  191.6090  176.7430  143.3980 C   0  0  0  0  0  3  0  0  0  0  0  0
  190.4780  177.5150  141.2370 C   0  0  0  0  0  3  0  0  0  0  0  0
  189.1670  177.2680  145.7690 C   0  0  0  0  0  3  0  0  0  0  0  0
  191.3130  176.7950  146.8790 C   0  0  0  0  0  0  0  0  0  0  0  0
  188.0460  177.6680  141.3450 C   0  0  0  0  0  3  0  0  0  0  0  0
  189.2480  177.8180  140.6270 C   0  0  0  0  0  0  0  0  0  0  0  0
  189.2980  176.9520  143.2710 C   0  0  0  0  0  0  0  0  0  0  0  0
  192.0770  176.8000  148.0810 N   0  0  0  0  0  1  0  0  0  0  0  0
  189.9440  177.3940  146.8570 C   0  0  0  0  0  0  0  0  0  0  0  0
  189.6000  176.3990  144.6200 C   0  0  1  0  0  3  0  0  0  0  0  0
  189.4400  178.1790  148.0210 C   0  0  0  0  0  2  0  0  0  0  0  0
  187.9710  177.8770  148.2550 C   0  0  0  0  0  1  0  0  0  0  0  0
  189.1960  178.3810  138.9460 S   0  0  2  0  0  0  0  0  0  0  0  0
  187.7530  178.8060  138.7120 O   0  0  0  0  0  0  0  0  0  0  0  0
  188.5230  176.0980  137.8610 O   0  0  0  0  0  0  0  0  0  0  0  0
  189.4160  176.9260  137.9460 C   0  0  0  0  0  0  0  0  0  0  0  0
  190.6830  176.7350  137.1800 C   0  0  0  0  0  2  0  0  0  0  0  0
  191.6490  175.9250  137.9740 C   0  0  0  0  0  0  0  0  0  0  0  0
  191.4380  174.6990  138.1620 O   0  0  0  0  0  0  0  0  0  0  0  0
  192.7700  176.5290  138.5300 O   0  0  0  0  0  1  0  0  0  0  0  0
  186.7790  177.0260  143.4140 C   0  0  0  0  0  2  0  0  0  0  0  0
  185.8610  178.2120  143.1890 C   0  0  0  0  0  2  0  0  0  0  0  0
  185.5730  178.8920  144.5180 C   0  0  0  0  0  2  0  0  0  0  0  0
  184.1410  179.4080  144.5880 C   0  0  2  0  0  3  0  0  0  0  0  0
  183.5440  179.0230  145.7910 O   0  0  0  0  0  1  0  0  0  0  0  0
  183.3660  178.9090  143.4630 N   0  0  0  0  0  2  0  0  0  0  0  0
  181.9700  178.9180  143.8640 C   0  0  0  0  0  2  0  0  0  0  0  0
  180.2980  178.9340  140.4160 C   0  0  0  0  0  3  0  0  0  0  0  0
  179.3720  180.7750  141.7970 C   0  0  0  0  0  2  0  0  0  0  0  0
  180.2530  180.2920  142.8680 N   0  0  0  0  0  0  0  0  0  0  0  0
  181.1210  179.3360  142.7170 C   0  0  0  0  0  0  0  0  0  0  0  0
  181.2010  178.6260  141.4780 N   0  0  0  0  0  2  0  0  0  0  0  0
  179.4180  179.9240  140.5530 C   0  0  0  0  0  3  0  0  0  0  0  0
  1 11  1  0  0  0  0
  1 25  1  0  0  0  0
  2 14  1  0  0  0  0
  2  4  1  0  0  0  0
  3 11  2  0  0  0  0
  3  5  1  0  0  0  0
  4  8  2  0  0  0  0
  5  2  2  0  0  0  0
  6  3  1  0  0  0  0
  7 13  2  0  0  0  0
  8 12  1  0  0  0  0
  9  1  2  0  0  0  0
 10  6  2  0  0  0  0
 10  9  1  0  0  0  0
 11 14  1  0  0  0  0
 13  8  1  0  0  0  0
 13 15  1  0  0  0  0
 14  7  1  1  0  0  0
 15 16  1  0  0  0  0
 17 18  2  6  0  0  0
 17 10  1  0  0  0  0
 19 20  2  0  0  0  0
 20 17  1  0  0  0  0
 21 20  1  0  0  0  0
 21 22  1  0  0  0  0
 22 23  2  0  0  0  0
 22 24  1  0  0  0  0
 26 25  1  0  0  0  0
 26 27  1  0  0  0  0
 27 28  1  0  0  0  0
 28 29  1  1  0  0  0
 30 31  1  0  0  0  0
 30 28  1  0  0  0  0
 32 37  2  0  0  0  0
 32 36  1  0  0  0  0
 33 34  1  0  0  0  0
 35 34  2  0  0  0  0
 35 31  1  0  0  0  0
 36 35  1  0  0  0  0
 37 33  1  0  0  0  0
M  END
>  <MODEL>
1

>  <REMARK>
 VINA RESULT:      -8.9      0.000      0.000
  Name = 
  12 active torsions:
  status: ('A' for Active; 'I' for Inactive)
    1  A    between atoms: C_1  and  C_13
    2  A    between atoms: C_3  and  C_34
    3  A    between atoms: C_9  and  C_13
    4  A    between atoms: C_9  and  C_16
    5  A    between atoms: C_12  and  C_16
    6  A    between atoms: C_12  and  N_33
    7  A    between atoms: C_18  and  C_31
    8  A    between atoms: S_19  and  C_21
    9  A    between atoms: S_19  and  C_28
   10  A    between atoms: C_21  and  C_34
   11  A    between atoms: C_23  and  C_24
   12  A    between atoms: C_24  and  N_33
                            x       y       z     vdW  Elec       q    Type
                         _______ _______ _______ _____ _____    ______ ____

>  <TORSDO>
F 12

$$$$
=
 OpenBabel10222420323D

 37 40  0  0  1  0  0  0  0  0999 V2000
  188.2090  177.0940  142.3960 C   0  0  0  0  0  0  0  0  0  0  0  0
  191.1790  176.2750  144.4110 C   0  0  0  0  0  0  0  0  0  0  0  0
  190.6210  176.9260  142.3610 C   0  0  0  0  0  0  0  0  0  0  0  0
  191.8970  176.2960  145.6460 N   0  0  0  0  0  0  0  0  0  0  0  0
  191.7300  176.6180  143.2490 C   0  0  0  0  0  3  0  0  0  0  0  0
  190.6760  177.3370  141.0310 C   0  0  0  0  0  3  0  0  0  0  0  0
  189.2090  177.2090  145.5210 C   0  0  0  0  0  3  0  0  0  0  0  0
  191.3140  176.7600  146.7150 C   0  0  0  0  0  0  0  0  0  0  0  0
  188.2420  177.4970  141.0520 C   0  0  0  0  0  3  0  0  0  0  0  0
  189.4680  177.6260  140.3720 C   0  0  0  0  0  0  0  0  0  0  0  0
  189.4250  176.8280  143.0380 C   0  0  0  0  0  0  0  0  0  0  0  0
  192.0370  176.7950  147.9430 N   0  0  0  0  0  1  0  0  0  0  0  0
  189.9480  177.3610  146.6310 C   0  0  0  0  0  0  0  0  0  0  0  0
  189.6780  176.3090  144.4090 C   0  0  1  0  0  3  0  0  0  0  0  0
  189.4070  178.1770  147.7570 C   0  0  0  0  0  2  0  0  0  0  0  0
  188.0880  177.5960  148.2320 C   0  0  0  0  0  1  0  0  0  0  0  0
  189.4760  178.1470  138.6760 S   0  0  2  0  0  0  0  0  0  0  0  0
  189.0060  179.5950  138.7010 O   0  0  0  0  0  0  0  0  0  0  0  0
  188.1230  176.0280  137.9510 O   0  0  0  0  0  0  0  0  0  0  0  0
  188.1550  177.2470  137.8940 C   0  0  0  0  0  0  0  0  0  0  0  0
  187.0620  177.9880  137.1970 C   0  0  0  0  0  2  0  0  0  0  0  0
  185.8190  177.9670  138.0190 C   0  0  0  0  0  0  0  0  0  0  0  0
  184.9000  177.1520  137.7490 O   0  0  0  0  0  0  0  0  0  0  0  0
  185.6640  178.8650  139.0680 O   0  0  0  0  0  1  0  0  0  0  0  0
  186.9020  176.9110  143.0920 C   0  0  0  0  0  2  0  0  0  0  0  0
  186.3200  178.2630  143.4590 C   0  0  0  0  0  2  0  0  0  0  0  0
  185.8490  178.2380  144.9040 C   0  0  0  0  0  2  0  0  0  0  0  0
  184.7900  179.3010  145.1690 C   0  0  2  0  0  3  0  0  0  0  0  0
  183.9310  178.8870  146.1910 O   0  0  0  0  0  1  0  0  0  0  0  0
  184.0320  179.5750  143.9580 N   0  0  0  0  0  2  0  0  0  0  0  0
  182.7300  178.9480  144.1150 C   0  0  0  0  0  2  0  0  0  0  0  0
  181.4510  178.7610  140.5070 C   0  0  0  0  0  3  0  0  0  0  0  0
  179.9050  180.1440  141.8670 C   0  0  0  0  0  2  0  0  0  0  0  0
  180.7860  179.8490  143.0040 N   0  0  0  0  0  0  0  0  0  0  0  0
  181.9050  179.1970  142.9020 C   0  0  0  0  0  0  0  0  0  0  0  0
  182.3030  178.6410  141.6460 N   0  0  0  0  0  2  0  0  0  0  0  0
  180.3120  179.4450  140.5950 C   0  0  0  0  0  3  0  0  0  0  0  0
  1 11  1  0  0  0  0
  1 25  1  0  0  0  0
  2  4  1  0  0  0  0
  3 11  2  0  0  0  0
  3  5  1  0  0  0  0
  4  8  2  0  0  0  0
  5  2  2  0  0  0  0
  6  3  1  0  0  0  0
  7 13  2  0  0  0  0
  8 12  1  0  0  0  0
  9  1  2  0  0  0  0
 10  6  2  0  0  0  0
 10  9  1  0  0  0  0
 11 14  1  0  0  0  0
 13  8  1  0  0  0  0
 13 15  1  0  0  0  0
 14  2  1  0  0  0  0
 14  7  1  1  0  0  0
 15 16  1  0  0  0  0
 17 18  2  1  0  0  0
 17 10  1  0  0  0  0
 20 19  2  0  0  0  0
 20 17  1  0  0  0  0
 21 20  1  0  0  0  0
 21 22  1  0  0  0  0
 22 24  1  0  0  0  0
 23 22  2  0  0  0  0
 25 26  1  0  0  0  0
 26 27  1  0  0  0  0
 27 28  1  0  0  0  0
 28 29  1  1  0  0  0
 30 31  1  0  0  0  0
 30 28  1  0  0  0  0
 32 37  2  0  0  0  0
 32 36  1  0  0  0  0
 33 34  1  0  0  0  0
 35 34  2  0  0  0  0
 35 31  1  0  0  0  0
 36 35  1  0  0  0  0
 37 33  1  0  0  0  0
M  END
>  <MODEL>
2

>  <REMARK>
 VINA RESULT:      -8.8      1.358      2.162
  Name = 
  12 active torsions:
  status: ('A' for Active; 'I' for Inactive)
    1  A    between atoms: C_1  and  C_13
    2  A    between atoms: C_3  and  C_34
    3  A    between atoms: C_9  and  C_13
    4  A    between atoms: C_9  and  C_16
    5  A    between atoms: C_12  and  C_16
    6  A    between atoms: C_12  and  N_33
    7  A    between atoms: C_18  and  C_31
    8  A    between atoms: S_19  and  C_21
    9  A    between atoms: S_19  and  C_28
   10  A    between atoms: C_21  and  C_34
   11  A    between atoms: C_23  and  C_24
   12  A    between atoms: C_24  and  N_33
                            x       y       z     vdW  Elec       q    Type
                         _______ _______ _______ _____ _____    ______ ____

>  <TORSDO>
F 12

$$$$
=
 OpenBabel10222420323D

 37 40  0  0  1  0  0  0  0  0999 V2000
  183.8170  178.8500  141.6310 C   0  0  0  0  0  0  0  0  0  0  0  0
  184.9260  179.0370  145.1370 C   0  0  0  0  0  0  0  0  0  0  0  0
  183.0670  178.8740  143.9310 C   0  0  0  0  0  0  0  0  0  0  0  0
  185.8500  178.7090  146.1750 N   0  0  0  0  0  0  0  0  0  0  0  0
  183.6080  178.9180  145.2790 C   0  0  0  0  0  3  0  0  0  0  0  0
  181.7340  178.7550  143.5450 C   0  0  0  0  0  3  0  0  0  0  0  0
  186.3990  178.0090  143.4760 C   0  0  0  0  0  3  0  0  0  0  0  0
  186.9420  178.0630  145.8760 C   0  0  0  0  0  0  0  0  0  0  0  0
  182.4780  178.7420  141.2220 C   0  0  0  0  0  3  0  0  0  0  0  0
  181.4400  178.6870  142.1720 C   0  0  0  0  0  0  0  0  0  0  0  0
  184.0870  178.8980  143.0050 C   0  0  0  0  0  0  0  0  0  0  0  0
  187.8570  177.7230  146.9150 N   0  0  0  0  0  1  0  0  0  0  0  0
  187.1770  177.5780  144.4820 C   0  0  0  0  0  0  0  0  0  0  0  0
  185.3840  179.0950  143.7090 C   0  0  1  0  0  3  0  0  0  0  0  0
  188.2430  176.5750  144.1950 C   0  0  0  0  0  2  0  0  0  0  0  0
  189.6090  177.2260  144.2940 C   0  0  0  0  0  1  0  0  0  0  0  0
  179.7600  178.5420  141.6210 S   0  0  2  0  0  0  0  0  0  0  0  0
  178.9310  178.4340  142.8940 O   0  0  0  0  0  0  0  0  0  0  0  0
  179.2250  175.9850  141.4940 O   0  0  0  0  0  0  0  0  0  0  0  0
  179.6430  176.9390  140.8580 C   0  0  0  0  0  0  0  0  0  0  0  0
  180.0230  176.7690  139.4240 C   0  0  0  0  0  2  0  0  0  0  0  0
  180.9270  175.5950  139.2660 C   0  0  0  0  0  0  0  0  0  0  0  0
  180.4910  174.5290  138.7610 O   0  0  0  0  0  0  0  0  0  0  0  0
  182.2450  175.6690  139.7000 O   0  0  0  0  0  1  0  0  0  0  0  0
  184.9050  178.9590  140.6170 C   0  0  0  0  0  2  0  0  0  0  0  0
  184.3130  178.9230  139.2220 C   0  0  0  0  0  2  0  0  0  0  0  0
  184.8020  177.6810  138.4930 C   0  0  0  0  0  2  0  0  0  0  0  0
  185.5030  178.0330  137.1870 C   0  0  2  0  0  3  0  0  0  0  0  0
  185.8900  176.8710  136.5150 O   0  0  0  0  0  1  0  0  0  0  0  0
  186.6630  178.8730  137.4440 N   0  0  0  0  0  2  0  0  0  0  0  0
  187.8400  178.1080  137.0690 C   0  0  0  0  0  2  0  0  0  0  0  0
  188.9720  177.9930  140.7280 C   0  0  0  0  0  3  0  0  0  0  0  0
  190.4880  176.5990  139.3450 C   0  0  0  0  0  2  0  0  0  0  0  0
  189.6330  176.9600  138.2070 N   0  0  0  0  0  0  0  0  0  0  0  0
  188.6490  177.8060  138.2800 C   0  0  0  0  0  0  0  0  0  0  0  0
  188.2840  178.3800  139.5380 N   0  0  0  0  0  2  0  0  0  0  0  0
  189.9950  177.1430  140.6620 C   0  0  0  0  0  3  0  0  0  0  0  0
  1 11  1  0  0  0  0
  2  5  2  0  0  0  0
  2  4  1  0  0  0  0
  3  5  1  0  0  0  0
  6  3  1  0  0  0  0
  7 13  2  0  0  0  0
  8  4  2  0  0  0  0
  8 12  1  0  0  0  0
  9  1  2  0  0  0  0
  9 10  1  0  0  0  0
 10  6  2  0  0  0  0
 11 14  1  0  0  0  0
 11  3  2  0  0  0  0
 13  8  1  0  0  0  0
 14  7  1  1  0  0  0
 14  2  1  0  0  0  0
 15 16  1  0  0  0  0
 15 13  1  0  0  0  0
 17 10  1  0  0  0  0
 17 18  2  1  0  0  0
 20 19  2  0  0  0  0
 20 17  1  0  0  0  0
 21 20  1  0  0  0  0
 22 21  1  0  0  0  0
 22 24  1  0  0  0  0
 23 22  2  0  0  0  0
 25  1  1  0  0  0  0
 26 25  1  0  0  0  0
 27 26  1  0  0  0  0
 28 29  1  1  0  0  0
 28 30  1  0  0  0  0
 28 27  1  0  0  0  0
 31 30  1  0  0  0  0
 31 35  1  0  0  0  0
 33 37  1  0  0  0  0
 34 35  2  0  0  0  0
 34 33  1  0  0  0  0
 35 36  1  0  0  0  0
 36 32  1  0  0  0  0
 37 32  2  0  0  0  0
M  END
>  <MODEL>
3

>  <REMARK>
 VINA RESULT:      -8.3      4.011      8.052
  Name = 
  12 active torsions:
  status: ('A' for Active; 'I' for Inactive)
    1  A    between atoms: C_1  and  C_13
    2  A    between atoms: C_3  and  C_34
    3  A    between atoms: C_9  and  C_13
    4  A    between atoms: C_9  and  C_16
    5  A    between atoms: C_12  and  C_16
    6  A    between atoms: C_12  and  N_33
    7  A    between atoms: C_18  and  C_31
    8  A    between atoms: S_19  and  C_21
    9  A    between atoms: S_19  and  C_28
   10  A    between atoms: C_21  and  C_34
   11  A    between atoms: C_23  and  C_24
   12  A    between atoms: C_24  and  N_33
                            x       y       z     vdW  Elec       q    Type
                         _______ _______ _______ _____ _____    ______ ____

>  <TORSDO>
F 12

$$$$
=
 OpenBabel10222420323D

 37 40  0  0  1  0  0  0  0  0999 V2000
  187.8780  177.3620  142.8840 C   0  0  0  0  0  0  0  0  0  0  0  0
  190.9650  176.3780  144.6340 C   0  0  0  0  0  0  0  0  0  0  0  0
  190.2710  177.0980  142.6500 C   0  0  0  0  0  0  0  0  0  0  0  0
  191.7800  176.3420  145.8060 N   0  0  0  0  0  0  0  0  0  0  0  0
  191.4340  176.7250  143.4380 C   0  0  0  0  0  3  0  0  0  0  0  0
  190.2360  177.5360  141.3280 C   0  0  0  0  0  3  0  0  0  0  0  0
  189.1310  177.3650  145.9190 C   0  0  0  0  0  3  0  0  0  0  0  0
  191.3050  176.8050  146.9280 C   0  0  0  0  0  0  0  0  0  0  0  0
  187.8200  177.7940  141.5500 C   0  0  0  0  0  3  0  0  0  0  0  0
  188.9920  177.8890  140.7750 C   0  0  0  0  0  0  0  0  0  0  0  0
  189.1300  177.0330  143.4190 C   0  0  0  0  0  0  0  0  0  0  0  0
  192.1250  176.7820  148.0940 N   0  0  0  0  0  1  0  0  0  0  0  0
  189.9630  177.4610  146.9680 C   0  0  0  0  0  0  0  0  0  0  0  0
  189.4720  176.4730  144.7550 C   0  0  1  0  0  3  0  0  0  0  0  0
  189.5490  178.2720  148.1490 C   0  0  0  0  0  2  0  0  0  0  0  0
  188.1840  177.8230  148.6350 C   0  0  0  0  0  1  0  0  0  0  0  0
  188.8850  178.4480  139.0950 S   0  0  2  0  0  0  0  0  0  0  0  0
  187.4010  178.6840  138.8470 O   0  0  0  0  0  0  0  0  0  0  0  0
  188.4360  176.2350  137.7730 O   0  0  0  0  0  0  0  0  0  0  0  0
  189.2990  177.0360  138.0940 C   0  0  0  0  0  0  0  0  0  0  0  0
  190.7010  176.8500  137.6150 C   0  0  0  0  0  2  0  0  0  0  0  0
  190.9400  175.4230  137.2580 C   0  0  0  0  0  0  0  0  0  0  0  0
  191.2760  174.6000  138.1480 O   0  0  0  0  0  1  0  0  0  0  0  0
  190.8180  175.0070  135.9380 O   0  0  0  0  0  0  0  0  0  0  0  0
  186.6260  177.2160  143.6800 C   0  0  0  0  0  2  0  0  0  0  0  0
  185.9400  178.5610  143.8130 C   0  0  0  0  0  2  0  0  0  0  0  0
  184.4380  178.3580  143.9250 C   0  0  0  0  0  2  0  0  0  0  0  0
  183.7100  178.8430  142.6770 C   0  0  2  0  0  3  0  0  0  0  0  0
  182.3390  178.9560  142.9270 O   0  0  0  0  0  1  0  0  0  0  0  0
  183.9420  177.9310  141.5680 N   0  0  0  0  0  2  0  0  0  0  0  0
  183.1900  178.4370  140.4310 C   0  0  0  0  0  2  0  0  0  0  0  0
  184.3890  177.0690  137.0580 C   0  0  0  0  0  3  0  0  0  0  0  0
  183.0620  175.3340  138.2340 C   0  0  0  0  0  2  0  0  0  0  0  0
  182.9330  176.3050  139.3290 N   0  0  0  0  0  0  0  0  0  0  0  0
  183.3690  177.5270  139.2670 C   0  0  0  0  0  0  0  0  0  0  0  0
  184.0980  177.9760  138.1220 N   0  0  0  0  0  2  0  0  0  0  0  0
  183.9300  175.8200  137.1010 C   0  0  0  0  0  3  0  0  0  0  0  0
  1 11  1  0  0  0  0
  1 25  1  0  0  0  0
  2 14  1  0  0  0  0
  2  4  1  0  0  0  0
  3 11  2  0  0  0  0
  3  5  1  0  0  0  0
  4  8  2  0  0  0  0
  5  2  2  0  0  0  0
  6  3  1  0  0  0  0
  7 13  2  0  0  0  0
  8 13  1  0  0  0  0
  8 12  1  0  0  0  0
  9  1  2  0  0  0  0
 10  6  2  0  0  0  0
 10  9  1  0  0  0  0
 11 14  1  0  0  0  0
 13 15  1  0  0  0  0
 14  7  1  1  0  0  0
 15 16  1  0  0  0  0
 17 18  2  6  0  0  0
 17 10  1  0  0  0  0
 19 20  2  0  0  0  0
 20 17  1  0  0  0  0
 21 20  1  0  0  0  0
 22 21  1  0  0  0  0
 22 23  1  0  0  0  0
 24 22  2  0  0  0  0
 25 26  1  0  0  0  0
 26 27  1  0  0  0  0
 28 29  1  1  0  0  0
 28 27  1  0  0  0  0
 30 28  1  0  0  0  0
 31 30  1  0  0  0  0
 32 37  2  0  0  0  0
 32 36  1  0  0  0  0
 33 34  1  0  0  0  0
 35 34  2  0  0  0  0
 35 31  1  0  0  0  0
 36 35  1  0  0  0  0
 37 33  1  0  0  0  0
M  END
>  <MODEL>
4

>  <REMARK>
 VINA RESULT:      -8.2      2.125      2.665
  Name = 
  12 active torsions:
  status: ('A' for Active; 'I' for Inactive)
    1  A    between atoms: C_1  and  C_13
    2  A    between atoms: C_3  and  C_34
    3  A    between atoms: C_9  and  C_13
    4  A    between atoms: C_9  and  C_16
    5  A    between atoms: C_12  and  C_16
    6  A    between atoms: C_12  and  N_33
    7  A    between atoms: C_18  and  C_31
    8  A    between atoms: S_19  and  C_21
    9  A    between atoms: S_19  and  C_28
   10  A    between atoms: C_21  and  C_34
   11  A    between atoms: C_23  and  C_24
   12  A    between atoms: C_24  and  N_33
                            x       y       z     vdW  Elec       q    Type
                         _______ _______ _______ _____ _____    ______ ____

>  <TORSDO>
F 12

$$$$
=
 OpenBabel10222420323D

 37 40  0  0  1  0  0  0  0  0999 V2000
  184.2580  178.5510  140.5810 C   0  0  0  0  0  0  0  0  0  0  0  0
  183.4940  179.2650  144.1110 C   0  0  0  0  0  0  0  0  0  0  0  0
  182.4770  178.7410  142.2060 C   0  0  0  0  0  0  0  0  0  0  0  0
  183.8060  179.1710  145.5010 N   0  0  0  0  0  0  0  0  0  0  0  0
  182.2840  179.0020  143.6230 C   0  0  0  0  0  3  0  0  0  0  0  0
  181.5130  178.4170  141.2540 C   0  0  0  0  0  3  0  0  0  0  0  0
  185.6440  178.2450  143.5410 C   0  0  0  0  0  3  0  0  0  0  0  0
  184.9370  178.6340  145.8670 C   0  0  0  0  0  0  0  0  0  0  0  0
  183.3000  178.2350  139.6040 C   0  0  0  0  0  3  0  0  0  0  0  0
  181.9340  178.1600  139.9380 C   0  0  0  0  0  0  0  0  0  0  0  0
  183.8170  178.7850  141.8890 C   0  0  0  0  0  0  0  0  0  0  0  0
  185.2410  178.5280  147.2550 N   0  0  0  0  0  1  0  0  0  0  0  0
  185.8500  178.0290  144.8500 C   0  0  0  0  0  0  0  0  0  0  0  0
  184.5900  179.2180  143.0860 C   0  0  1  0  0  3  0  0  0  0  0  0
  186.9700  177.1380  145.2700 C   0  0  0  0  0  2  0  0  0  0  0  0
  188.1050  177.9650  145.8430 C   0  0  0  0  0  1  0  0  0  0  0  0
  180.7500  177.7490  138.6830 S   0  0  2  0  0  0  0  0  0  0  0  0
  179.4240  178.3020  139.1880 O   0  0  0  0  0  0  0  0  0  0  0  0
  181.5290  175.2550  138.5520 O   0  0  0  0  0  0  0  0  0  0  0  0
  180.5690  175.9800  138.7560 C   0  0  0  0  0  0  0  0  0  0  0  0
  179.2460  175.3820  139.1040 C   0  0  0  0  0  2  0  0  0  0  0  0
  179.2330  174.9550  140.5310 C   0  0  0  0  0  0  0  0  0  0  0  0
  179.1950  173.7310  140.8210 O   0  0  0  0  0  0  0  0  0  0  0  0
  179.2350  175.9070  141.5420 O   0  0  0  0  0  1  0  0  0  0  0  0
  185.6960  178.6770  140.2070 C   0  0  0  0  0  2  0  0  0  0  0  0
  185.8940  178.2470  138.7660 C   0  0  0  0  0  2  0  0  0  0  0  0
  187.2850  177.6570  138.5980 C   0  0  0  0  0  2  0  0  0  0  0  0
  188.3300  178.4470  139.3760 C   0  0  2  0  0  3  0  0  0  0  0  0
  189.0540  179.2750  138.5140 O   0  0  0  0  0  1  0  0  0  0  0  0
  189.2300  177.5440  140.0760 N   0  0  0  0  0  2  0  0  0  0  0  0
  188.6220  177.2410  141.3610 C   0  0  0  0  0  2  0  0  0  0  0  0
  191.3450  176.4270  143.9310 C   0  0  0  0  0  3  0  0  0  0  0  0
  190.9390  178.8740  143.8970 C   0  0  0  0  0  2  0  0  0  0  0  0
  189.9590  178.6050  142.8360 N   0  0  0  0  0  0  0  0  0  0  0  0
  189.6270  177.4110  142.4440 C   0  0  0  0  0  0  0  0  0  0  0  0
  190.2860  176.2650  142.9870 N   0  0  0  0  0  2  0  0  0  0  0  0
  191.6800  177.6450  144.3550 C   0  0  0  0  0  3  0  0  0  0  0  0
  1 11  1  0  0  0  0
  2  4  1  0  0  0  0
  3  5  1  0  0  0  0
  4  8  2  0  0  0  0
  5  2  2  0  0  0  0
  6  3  1  0  0  0  0
  7 13  2  0  0  0  0
  8 12  1  0  0  0  0
  9 10  1  0  0  0  0
  9  1  2  0  0  0  0
 10  6  2  0  0  0  0
 11  3  2  0  0  0  0
 11 14  1  0  0  0  0
 13 15  1  0  0  0  0
 13  8  1  0  0  0  0
 14  7  1  1  0  0  0
 14  2  1  0  0  0  0
 15 16  1  0  0  0  0
 17 20  1  0  0  0  0
 17 18  2  1  0  0  0
 17 10  1  0  0  0  0
 19 20  2  0  0  0  0
 20 21  1  0  0  0  0
 21 22  1  0  0  0  0
 22 23  2  0  0  0  0
 22 24  1  0  0  0  0
 25  1  1  0  0  0  0
 26 25  1  0  0  0  0
 27 26  1  0  0  0  0
 27 28  1  0  0  0  0
 28 29  1  6  0  0  0
 28 30  1  0  0  0  0
 30 31  1  0  0  0  0
 31 35  1  0  0  0  0
 32 37  2  0  0  0  0
 33 37  1  0  0  0  0
 34 33  1  0  0  0  0
 35 34  2  0  0  0  0
 35 36  1  0  0  0  0
 36 32  1  0  0  0  0
M  END
>  <MODEL>
5

>  <REMARK>
 VINA RESULT:      -8.2      3.750      8.456
  Name = 
  12 active torsions:
  status: ('A' for Active; 'I' for Inactive)
    1  A    between atoms: C_1  and  C_13
    2  A    between atoms: C_3  and  C_34
    3  A    between atoms: C_9  and  C_13
    4  A    between atoms: C_9  and  C_16
    5  A    between atoms: C_12  and  C_16
    6  A    between atoms: C_12  and  N_33
    7  A    between atoms: C_18  and  C_31
    8  A    between atoms: S_19  and  C_21
    9  A    between atoms: S_19  and  C_28
   10  A    between atoms: C_21  and  C_34
   11  A    between atoms: C_23  and  C_24
   12  A    between atoms: C_24  and  N_33
                            x       y       z     vdW  Elec       q    Type
                         _______ _______ _______ _____ _____    ______ ____

>  <TORSDO>
F 12

$$$$
=
 OpenBabel10222420323D

 37 40  0  0  1  0  0  0  0  0999 V2000
  184.3190  178.5160  140.5770 C   0  0  0  0  0  0  0  0  0  0  0  0
  183.5330  179.2560  144.0960 C   0  0  0  0  0  0  0  0  0  0  0  0
  182.5270  178.7270  142.1880 C   0  0  0  0  0  0  0  0  0  0  0  0
  183.8350  179.1700  145.4900 N   0  0  0  0  0  0  0  0  0  0  0  0
  182.3260  178.9970  143.6010 C   0  0  0  0  0  3  0  0  0  0  0  0
  181.5680  178.4020  141.2310 C   0  0  0  0  0  3  0  0  0  0  0  0
  185.6810  178.2210  143.5490 C   0  0  0  0  0  3  0  0  0  0  0  0
  184.9600  178.6280  145.8670 C   0  0  0  0  0  0  0  0  0  0  0  0
  183.3660  178.2000  139.5950 C   0  0  0  0  0  3  0  0  0  0  0  0
  181.9970  178.1350  139.9200 C   0  0  0  0  0  0  0  0  0  0  0  0
  183.8700  178.7610  141.8800 C   0  0  0  0  0  0  0  0  0  0  0  0
  185.2530  178.5290  147.2570 N   0  0  0  0  0  1  0  0  0  0  0  0
  185.8770  178.0110  144.8610 C   0  0  0  0  0  0  0  0  0  0  0  0
  184.6360  179.1970  143.0800 C   0  0  1  0  0  3  0  0  0  0  0  0
  186.9890  177.1170  145.2940 C   0  0  0  0  0  2  0  0  0  0  0  0
  188.1970  177.9440  145.6890 C   0  0  0  0  0  1  0  0  0  0  0  0
  180.8200  177.7230  138.6580 S   0  0  2  0  0  0  0  0  0  0  0  0
  181.4040  176.5090  137.9480 O   0  0  0  0  0  0  0  0  0  0  0  0
  181.5710  178.9060  136.4490 O   0  0  0  0  0  0  0  0  0  0  0  0
  180.9130  179.0420  137.4680 C   0  0  0  0  0  0  0  0  0  0  0  0
  180.1530  180.3070  137.6980 C   0  0  0  0  0  2  0  0  0  0  0  0
  181.0930  181.4520  137.8580 C   0  0  0  0  0  0  0  0  0  0  0  0
  182.0790  181.3530  138.6340 O   0  0  0  0  0  1  0  0  0  0  0  0
  180.8660  182.6380  137.1720 O   0  0  0  0  0  0  0  0  0  0  0  0
  185.7600  178.6320  140.2120 C   0  0  0  0  0  2  0  0  0  0  0  0
  185.9560  178.2500  138.7580 C   0  0  0  0  0  2  0  0  0  0  0  0
  187.3530  177.6820  138.5650 C   0  0  0  0  0  2  0  0  0  0  0  0
  188.3920  178.4560  139.3660 C   0  0  2  0  0  3  0  0  0  0  0  0
  189.0540  179.3730  138.5450 O   0  0  0  0  0  1  0  0  0  0  0  0
  189.3490  177.5440  139.9720 N   0  0  0  0  0  2  0  0  0  0  0  0
  188.7940  177.1220  141.2470 C   0  0  0  0  0  2  0  0  0  0  0  0
  191.2350  178.5490  143.8340 C   0  0  0  0  0  3  0  0  0  0  0  0
  191.2900  176.0700  143.9180 C   0  0  0  0  0  2  0  0  0  0  0  0
  190.2590  176.1030  142.8720 N   0  0  0  0  0  0  0  0  0  0  0  0
  189.8440  177.1930  142.2990 C   0  0  0  0  0  0  0  0  0  0  0  0
  190.3270  178.4660  142.7360 N   0  0  0  0  0  2  0  0  0  0  0  0
  191.6830  177.4380  144.4160 C   0  0  0  0  0  3  0  0  0  0  0  0
  1 11  1  0  0  0  0
  2  4  1  0  0  0  0
  3  5  1  0  0  0  0
  4  8  2  0  0  0  0
  5  2  2  0  0  0  0
  6  3  1  0  0  0  0
  7 13  2  0  0  0  0
  8 12  1  0  0  0  0
  9 10  1  0  0  0  0
  9  1  2  0  0  0  0
 10  6  2  0  0  0  0
 11  3  2  0  0  0  0
 11 14  1  0  0  0  0
 13 15  1  0  0  0  0
 13  8  1  0  0  0  0
 14  7  1  1  0  0  0
 14  2  1  0  0  0  0
 15 16  1  0  0  0  0
 17 18  2  6  0  0  0
 17 10  1  0  0  0  0
 19 20  2  0  0  0  0
 20 21  1  0  0  0  0
 20 17  1  0  0  0  0
 21 22  1  0  0  0  0
 22 23  1  0  0  0  0
 24 22  2  0  0  0  0
 25  1  1  0  0  0  0
 26 25  1  0  0  0  0
 27 26  1  0  0  0  0
 27 28  1  0  0  0  0
 28 29  1  6  0  0  0
 28 30  1  0  0  0  0
 30 31  1  0  0  0  0
 31 35  1  0  0  0  0
 32 37  2  0  0  0  0
 33 37  1  0  0  0  0
 34 33  1  0  0  0  0
 35 36  1  0  0  0  0
 35 34  2  0  0  0  0
 36 32  1  0  0  0  0
M  END
>  <MODEL>
6

>  <REMARK>
 VINA RESULT:      -8.1      3.553      8.373
  Name = 
  12 active torsions:
  status: ('A' for Active; 'I' for Inactive)
    1  A    between atoms: C_1  and  C_13
    2  A    between atoms: C_3  and  C_34
    3  A    between atoms: C_9  and  C_13
    4  A    between atoms: C_9  and  C_16
    5  A    between atoms: C_12  and  C_16
    6  A    between atoms: C_12  and  N_33
    7  A    between atoms: C_18  and  C_31
    8  A    between atoms: S_19  and  C_21
    9  A    between atoms: S_19  and  C_28
   10  A    between atoms: C_21  and  C_34
   11  A    between atoms: C_23  and  C_24
   12  A    between atoms: C_24  and  N_33
                            x       y       z     vdW  Elec       q    Type
                         _______ _______ _______ _____ _____    ______ ____

>  <TORSDO>
F 12

$$$$
=
 OpenBabel10222420323D

 37 40  0  0  1  0  0  0  0  0999 V2000
  183.8080  178.7890  141.3590 C   0  0  0  0  0  0  0  0  0  0  0  0
  184.2920  179.2110  144.9840 C   0  0  0  0  0  0  0  0  0  0  0  0
  182.6760  178.8910  143.4940 C   0  0  0  0  0  0  0  0  0  0  0  0
  185.0390  178.9840  146.1810 N   0  0  0  0  0  0  0  0  0  0  0  0
  182.9760  179.0300  144.9090 C   0  0  0  0  0  3  0  0  0  0  0  0
  181.4340  178.6830  142.8970 C   0  0  0  0  0  3  0  0  0  0  0  0
  186.0700  178.1780  143.6580 C   0  0  0  0  0  3  0  0  0  0  0  0
  186.1930  178.3820  146.1090 C   0  0  0  0  0  0  0  0  0  0  0  0
  182.5650  178.5910  140.7370 C   0  0  0  0  0  3  0  0  0  0  0  0
  181.3830  178.5300  141.5010 C   0  0  0  0  0  0  0  0  0  0  0  0
  183.8370  178.9200  142.7530 C   0  0  0  0  0  0  0  0  0  0  0  0
  186.9300  178.1430  147.3040 N   0  0  0  0  0  1  0  0  0  0  0  0
  186.6830  177.8400  144.8050 C   0  0  0  0  0  0  0  0  0  0  0  0
  184.9840  179.2200  143.6530 C   0  0  1  0  0  3  0  0  0  0  0  0
  187.8240  176.8800  144.7610 C   0  0  0  0  0  2  0  0  0  0  0  0
  189.1390  177.6370  144.7640 C   0  0  0  0  0  1  0  0  0  0  0  0
  179.8290  178.2700  140.6850 S   0  0  2  0  0  0  0  0  0  0  0  0
  179.0850  177.2650  141.5540 O   0  0  0  0  0  0  0  0  0  0  0  0
  180.6560  176.2500  139.2420 O   0  0  0  0  0  0  0  0  0  0  0  0
  180.2160  177.3870  139.1880 C   0  0  0  0  0  0  0  0  0  0  0  0
  179.9670  178.0270  137.8630 C   0  0  0  0  0  2  0  0  0  0  0  0
  181.2180  178.6540  137.3500 C   0  0  0  0  0  0  0  0  0  0  0  0
  182.0070  177.9880  136.6320 O   0  0  0  0  0  0  0  0  0  0  0  0
  181.5260  179.9670  137.6860 O   0  0  0  0  0  1  0  0  0  0  0  0
  185.0470  178.9020  140.5380 C   0  0  0  0  0  2  0  0  0  0  0  0
  184.6840  179.0220  139.0710 C   0  0  0  0  0  2  0  0  0  0  0  0
  185.1150  177.7620  138.3360 C   0  0  0  0  0  2  0  0  0  0  0  0
  186.0350  178.0810  137.1640 C   0  0  2  0  0  3  0  0  0  0  0  0
  186.4840  176.9010  136.5640 O   0  0  0  0  0  1  0  0  0  0  0  0
  187.1670  178.8780  137.6100 N   0  0  0  0  0  2  0  0  0  0  0  0
  188.3670  178.0920  137.3710 C   0  0  0  0  0  2  0  0  0  0  0  0
  189.0010  177.7290  141.1330 C   0  0  0  0  0  3  0  0  0  0  0  0
  191.0230  177.0290  139.8780 C   0  0  0  0  0  2  0  0  0  0  0  0
  190.2540  177.3150  138.6590 N   0  0  0  0  0  0  0  0  0  0  0  0
  189.0650  177.8400  138.6600 C   0  0  0  0  0  0  0  0  0  0  0  0
  188.3900  178.0930  139.8950 N   0  0  0  0  0  2  0  0  0  0  0  0
  190.2270  177.2100  141.1450 C   0  0  0  0  0  3  0  0  0  0  0  0
  1 11  1  0  0  0  0
  2  4  1  0  0  0  0
  3  5  1  0  0  0  0
  5  2  2  0  0  0  0
  6  3  1  0  0  0  0
  7 13  2  0  0  0  0
  8  4  2  0  0  0  0
  8 12  1  0  0  0  0
  9  1  2  0  0  0  0
  9 10  1  0  0  0  0
 10  6  2  0  0  0  0
 11  3  2  0  0  0  0
 11 14  1  0  0  0  0
 13  8  1  0  0  0  0
 14  7  1  1  0  0  0
 14  2  1  0  0  0  0
 15 16  1  0  0  0  0
 15 13  1  0  0  0  0
 17 10  1  0  0  0  0
 17 18  2  1  0  0  0
 20 19  2  0  0  0  0
 20 17  1  0  0  0  0
 21 20  1  0  0  0  0
 22 24  1  0  0  0  0
 22 21  1  0  0  0  0
 23 22  2  0  0  0  0
 25  1  1  0  0  0  0
 26 25  1  0  0  0  0
 27 26  1  0  0  0  0
 28 29  1  1  0  0  0
 28 30  1  0  0  0  0
 28 27  1  0  0  0  0
 31 30  1  0  0  0  0
 31 35  1  0  0  0  0
 32 37  2  0  0  0  0
 33 37  1  0  0  0  0
 34 35  2  0  0  0  0
 34 33  1  0  0  0  0
 35 36  1  0  0  0  0
 36 32  1  0  0  0  0
M  END
>  <MODEL>
7

>  <REMARK>
 VINA RESULT:      -8.1      3.938      8.093
  Name = 
  12 active torsions:
  status: ('A' for Active; 'I' for Inactive)
    1  A    between atoms: C_1  and  C_13
    2  A    between atoms: C_3  and  C_34
    3  A    between atoms: C_9  and  C_13
    4  A    between atoms: C_9  and  C_16
    5  A    between atoms: C_12  and  C_16
    6  A    between atoms: C_12  and  N_33
    7  A    between atoms: C_18  and  C_31
    8  A    between atoms: S_19  and  C_21
    9  A    between atoms: S_19  and  C_28
   10  A    between atoms: C_21  and  C_34
   11  A    between atoms: C_23  and  C_24
   12  A    between atoms: C_24  and  N_33
                            x       y       z     vdW  Elec       q    Type
                         _______ _______ _______ _____ _____    ______ ____

>  <TORSDO>
F 12

$$$$
=
 OpenBabel10222420323D

 37 40  0  0  1  0  0  0  0  0999 V2000
  183.5370  178.7320  141.7040 C   0  0  0  0  0  0  0  0  0  0  0  0
  185.0330  179.0020  145.0570 C   0  0  0  0  0  0  0  0  0  0  0  0
  183.0480  178.8690  144.0680 C   0  0  0  0  0  0  0  0  0  0  0  0
  186.0550  178.6750  146.0000 N   0  0  0  0  0  0  0  0  0  0  0  0
  183.7360  178.9400  145.3470 C   0  0  0  0  0  3  0  0  0  0  0  0
  181.6770  178.7890  143.8360 C   0  0  0  0  0  3  0  0  0  0  0  0
  186.2760  177.8560  143.2870 C   0  0  0  0  0  3  0  0  0  0  0  0
  187.0840  177.9760  145.6100 C   0  0  0  0  0  0  0  0  0  0  0  0
  182.1580  178.6630  141.4480 C   0  0  0  0  0  3  0  0  0  0  0  0
  181.2310  178.6830  142.5070 C   0  0  0  0  0  0  0  0  0  0  0  0
  183.9590  178.8190  143.0360 C   0  0  0  0  0  0  0  0  0  0  0  0
  188.0950  177.6370  146.5550 N   0  0  0  0  0  1  0  0  0  0  0  0
  187.1450  177.4320  144.2190 C   0  0  0  0  0  0  0  0  0  0  0  0
  185.3320  178.9900  143.5860 C   0  0  1  0  0  3  0  0  0  0  0  0
  188.1370  176.3780  143.8580 C   0  0  0  0  0  2  0  0  0  0  0  0
  189.4700  177.0140  143.5140 C   0  0  0  0  0  1  0  0  0  0  0  0
  179.4960  178.5850  142.1500 S   0  0  2  0  0  0  0  0  0  0  0  0
  179.2580  177.1440  141.7190 O   0  0  0  0  0  0  0  0  0  0  0  0
  178.9860  179.0040  139.6180 O   0  0  0  0  0  0  0  0  0  0  0  0
  179.2550  179.5520  140.6750 C   0  0  0  0  0  0  0  0  0  0  0  0
  179.3470  181.0410  140.7390 C   0  0  0  0  0  2  0  0  0  0  0  0
  179.9090  181.5790  139.4690 C   0  0  0  0  0  0  0  0  0  0  0  0
  179.1990  182.3020  138.7230 O   0  0  0  0  0  0  0  0  0  0  0  0
  181.2080  181.2600  139.0930 O   0  0  0  0  0  1  0  0  0  0  0  0
  184.5090  178.7610  140.5730 C   0  0  0  0  0  2  0  0  0  0  0  0
  183.7630  178.7890  139.2530 C   0  0  0  0  0  2  0  0  0  0  0  0
  183.8400  177.4200  138.5960 C   0  0  0  0  0  2  0  0  0  0  0  0
  184.4090  177.5030  137.1860 C   0  0  2  0  0  3  0  0  0  0  0  0
  183.4880  177.0070  136.2590 O   0  0  0  0  0  1  0  0  0  0  0  0
  185.6570  176.7600  137.0970 N   0  0  0  0  0  2  0  0  0  0  0  0
  186.7030  177.7140  136.7700 C   0  0  0  0  0  2  0  0  0  0  0  0
  188.5270  178.2530  140.0970 C   0  0  0  0  0  3  0  0  0  0  0  0
  189.9080  176.8210  138.6140 C   0  0  0  0  0  2  0  0  0  0  0  0
  188.8100  176.9260  137.6430 N   0  0  0  0  0  0  0  0  0  0  0  0
  187.7620  177.6740  137.8140 C   0  0  0  0  0  0  0  0  0  0  0  0
  187.5800  178.3910  139.0370 N   0  0  0  0  0  2  0  0  0  0  0  0
  189.6150  177.5040  139.9260 C   0  0  0  0  0  3  0  0  0  0  0  0
  1 11  1  0  0  0  0
  2  5  2  0  0  0  0
  2  4  1  0  0  0  0
  3  5  1  0  0  0  0
  6  3  1  0  0  0  0
  7 13  2  0  0  0  0
  8  4  2  0  0  0  0
  8 12  1  0  0  0  0
  9  1  2  0  0  0  0
  9 10  1  0  0  0  0
 10  6  2  0  0  0  0
 11 14  1  0  0  0  0
 11  3  2  0  0  0  0
 13  8  1  0  0  0  0
 14  7  1  1  0  0  0
 14  2  1  0  0  0  0
 15 13  1  0  0  0  0
 16 15  1  0  0  0  0
 17 18  2  6  0  0  0
 17 10  1  0  0  0  0
 19 20  2  0  0  0  0
 20 21  1  0  0  0  0
 20 17  1  0  0  0  0
 22 21  1  0  0  0  0
 23 22  2  0  0  0  0
 24 22  1  0  0  0  0
 25  1  1  0  0  0  0
 26 25  1  0  0  0  0
 27 26  1  0  0  0  0
 28 29  1  6  0  0  0
 28 27  1  0  0  0  0
 30 28  1  0  0  0  0
 31 30  1  0  0  0  0
 31 35  1  0  0  0  0
 33 37  1  0  0  0  0
 34 35  2  0  0  0  0
 34 33  1  0  0  0  0
 35 36  1  0  0  0  0
 36 32  1  0  0  0  0
 37 32  2  0  0  0  0
M  END
>  <MODEL>
8

>  <REMARK>
 VINA RESULT:      -8.1      4.184      8.394
  Name = 
  12 active torsions:
  status: ('A' for Active; 'I' for Inactive)
    1  A    between atoms: C_1  and  C_13
    2  A    between atoms: C_3  and  C_34
    3  A    between atoms: C_9  and  C_13
    4  A    between atoms: C_9  and  C_16
    5  A    between atoms: C_12  and  C_16
    6  A    between atoms: C_12  and  N_33
    7  A    between atoms: C_18  and  C_31
    8  A    between atoms: S_19  and  C_21
    9  A    between atoms: S_19  and  C_28
   10  A    between atoms: C_21  and  C_34
   11  A    between atoms: C_23  and  C_24
   12  A    between atoms: C_24  and  N_33
                            x       y       z     vdW  Elec       q    Type
                         _______ _______ _______ _____ _____    ______ ____

>  <TORSDO>
F 12

$$$$
=
 OpenBabel10222420323D

 37 40  0  0  1  0  0  0  0  0999 V2000
  184.9850  179.0250  142.0490 C   0  0  0  0  0  0  0  0  0  0  0  0
  184.9380  179.0410  145.7300 C   0  0  0  0  0  0  0  0  0  0  0  0
  183.5720  178.7790  143.9970 C   0  0  0  0  0  0  0  0  0  0  0  0
  185.5360  178.7300  146.9900 N   0  0  0  0  0  0  0  0  0  0  0  0
  183.6660  178.7690  145.4470 C   0  0  0  0  0  3  0  0  0  0  0  0
  182.4480  178.5490  143.2090 C   0  0  0  0  0  3  0  0  0  0  0  0
  186.9660  178.3180  144.5690 C   0  0  0  0  0  3  0  0  0  0  0  0
  186.7400  178.2320  147.0190 C   0  0  0  0  0  0  0  0  0  0  0  0
  183.8600  178.8080  141.2370 C   0  0  0  0  0  3  0  0  0  0  0  0
  182.5980  178.5630  141.8110 C   0  0  0  0  0  0  0  0  0  0  0  0
  184.8150  178.9890  143.4390 C   0  0  0  0  0  0  0  0  0  0  0  0
  187.3300  177.9090  148.2750 N   0  0  0  0  0  1  0  0  0  0  0  0
  187.4490  177.8930  145.7480 C   0  0  0  0  0  0  0  0  0  0  0  0
  185.7980  179.2660  144.5210 C   0  0  1  0  0  3  0  0  0  0  0  0
  188.6710  177.0380  145.7640 C   0  0  0  0  0  2  0  0  0  0  0  0
  189.1270  176.7560  144.3450 C   0  0  0  0  0  1  0  0  0  0  0  0
  181.1990  178.2840  140.7570 S   0  0  2  0  0  0  0  0  0  0  0  0
  181.6930  177.3200  139.6850 O   0  0  0  0  0  0  0  0  0  0  0  0
  180.2980  180.7190  140.4400 O   0  0  0  0  0  0  0  0  0  0  0  0
  180.9280  179.8220  139.9040 C   0  0  0  0  0  0  0  0  0  0  0  0
  181.5040  180.0280  138.5420 C   0  0  0  0  0  2  0  0  0  0  0  0
  181.7750  181.4750  138.3100 C   0  0  0  0  0  0  0  0  0  0  0  0
  182.8530  181.9850  138.7130 O   0  0  0  0  0  1  0  0  0  0  0  0
  180.8280  182.2660  137.6740 O   0  0  0  0  0  0  0  0  0  0  0  0
  186.3070  179.3340  141.4320 C   0  0  0  0  0  2  0  0  0  0  0  0
  187.1070  178.0580  141.2610 C   0  0  0  0  0  2  0  0  0  0  0  0
  188.5770  178.3990  141.0770 C   0  0  0  0  0  2  0  0  0  0  0  0
  189.1070  177.9020  139.7390 C   0  0  2  0  0  3  0  0  0  0  0  0
  190.4380  177.4960  139.8640 O   0  0  0  0  0  1  0  0  0  0  0  0
  188.9950  178.9450  138.7300 N   0  0  0  0  0  2  0  0  0  0  0  0
  188.6700  178.2930  137.4720 C   0  0  0  0  0  2  0  0  0  0  0  0
  184.8610  178.2130  137.8800 C   0  0  0  0  0  3  0  0  0  0  0  0
  185.6580  176.0040  137.0820 C   0  0  0  0  0  2  0  0  0  0  0  0
  187.0030  176.5920  137.0790 N   0  0  0  0  0  0  0  0  0  0  0  0
  187.2720  177.7860  137.5170 C   0  0  0  0  0  0  0  0  0  0  0  0
  186.2190  178.6450  137.9590 N   0  0  0  0  0  2  0  0  0  0  0  0
  184.5750  176.9850  137.4510 C   0  0  0  0  0  3  0  0  0  0  0  0
  1 11  1  0  0  0  0
  2  4  1  0  0  0  0
  3  5  1  0  0  0  0
  4  8  2  0  0  0  0
  5  2  2  0  0  0  0
  6  3  1  0  0  0  0
  7 13  2  0  0  0  0
  8 12  1  0  0  0  0
  9 10  1  0  0  0  0
  9  1  2  0  0  0  0
 10  6  2  0  0  0  0
 11  3  2  0  0  0  0
 11 14  1  0  0  0  0
 13 15  1  0  0  0  0
 13  8  1  0  0  0  0
 14  7  1  1  0  0  0
 14  2  1  0  0  0  0
 16 15  1  0  0  0  0
 17 18  2  6  0  0  0
 17 10  1  0  0  0  0
 20 19  2  0  0  0  0
 20 17  1  0  0  0  0
 21 20  1  0  0  0  0
 22 21  1  0  0  0  0
 22 23  1  0  0  0  0
 24 22  2  0  0  0  0
 25  1  1  0  0  0  0
 26 25  1  0  0  0  0
 27 26  1  0  0  0  0
 28 29  1  1  0  0  0
 28 27  1  0  0  0  0
 30 28  1  0  0  0  0
 31 35  1  0  0  0  0
 31 30  1  0  0  0  0
 32 36  1  0  0  0  0
 33 37  1  0  0  0  0
 34 33  1  0  0  0  0
 34 35  2  0  0  0  0
 35 36  1  0  0  0  0
 37 32  2  0  0  0  0
M  END
>  <MODEL>
9

>  <REMARK>
 VINA RESULT:      -8.0      3.929      7.317
  Name = 
  12 active torsions:
  status: ('A' for Active; 'I' for Inactive)
    1  A    between atoms: C_1  and  C_13
    2  A    between atoms: C_3  and  C_34
    3  A    between atoms: C_9  and  C_13
    4  A    between atoms: C_9  and  C_16
    5  A    between atoms: C_12  and  C_16
    6  A    between atoms: C_12  and  N_33
    7  A    between atoms: C_18  and  C_31
    8  A    between atoms: S_19  and  C_21
    9  A    between atoms: S_19  and  C_28
   10  A    between atoms: C_21  and  C_34
   11  A    between atoms: C_23  and  C_24
   12  A    between atoms: C_24  and  N_33
                            x       y       z     vdW  Elec       q    Type
                         _______ _______ _______ _____ _____    ______ ____

>  <TORSDO>
F 12

$$$$
