=
 OpenBabel10222418193D

 34 36  0  0  1  0  0  0  0  0999 V2000
  188.6590  177.2870  145.6050 C   0  0  2  0  0  3  0  0  0  0  0  0
  189.9840  176.6780  147.3760 O   0  0  0  0  0  0  0  0  0  0  0  0
  191.9670  176.1720  146.2430 C   0  0  0  0  0  2  0  0  0  0  0  0
  191.7350  178.0460  144.8300 O   0  0  0  0  0  1  0  0  0  0  0  0
  191.3240  176.3250  147.5890 C   0  0  0  0  0  2  0  0  0  0  0  0
  189.9770  177.4390  146.2410 N   0  0  0  0  0  0  0  0  0  0  0  0
  191.0480  176.9590  145.3680 C   0  0  2  0  0  3  0  0  0  0  0  0
  188.6560  177.6730  144.1240 C   0  0  0  0  0  2  0  0  0  0  0  0
  188.4140  176.4410  143.2740 C   0  0  0  0  0  2  0  0  0  0  0  0
  188.8330  176.7010  141.9030 N   0  0  0  0  0  0  0  0  0  0  0  0
  190.2290  176.3040  141.7770 C   0  0  0  0  0  2  0  0  0  0  0  0
  192.3180  177.4890  141.3320 C   0  0  0  0  0  2  0  0  0  0  0  0
  191.0080  177.3990  141.1300 C   0  0  0  0  0  3  0  0  0  0  0  0
  188.6740  178.1280  141.5860 C   0  0  0  0  0  2  0  0  0  0  0  0
  187.6900  178.4110  140.4470 C   0  0  0  0  0  2  0  0  0  0  0  0
  189.3550  178.2050  137.0270 N   0  0  0  0  0  1  0  0  0  0  0  0
  188.2220  176.6290  138.2980 O   0  0  0  0  0  0  0  0  0  0  0  0
  188.4120  178.7600  139.2340 N   0  0  0  0  0  2  0  0  0  0  0  0
  188.6440  177.8100  138.1940 C   0  0  0  0  0  0  0  0  0  0  0  0
  187.5840  178.0380  146.3870 C   0  0  0  0  0  2  0  0  0  0  0  0
  186.1970  177.5620  145.9880 C   0  0  0  0  0  2  0  0  0  0  0  0
  185.2460  178.7430  145.8840 C   0  0  0  0  0  2  0  0  0  0  0  0
  182.0330  179.0890  143.7130 C   0  0  0  0  0  3  0  0  0  0  0  0
  182.2660  178.7730  142.4610 C   0  0  0  0  0  0  0  0  0  0  0  0
  183.5000  178.3280  141.7890 C   0  0  0  0  0  0  0  0  0  0  0  0
  184.4710  178.6660  144.6170 C   0  0  0  0  0  0  0  0  0  0  0  0
  181.5040  178.7180  141.2150 N   0  0  0  0  0  2  0  0  0  0  0  0
  185.1620  178.2750  143.5230 C   0  0  0  0  0  3  0  0  0  0  0  0
  182.7060  178.2660  140.5980 C   0  0  1  0  0  3  0  0  0  0  0  0
  183.0720  179.0310  144.6980 N   0  0  0  0  0  2  0  0  0  0  0  0
  184.7070  178.1050  142.1700 N   0  0  0  0  0  0  0  0  0  0  0  0
  183.1960  179.2880  139.5810 C   0  0  0  0  0  2  0  0  0  0  0  0
  182.1310  178.4530  137.5470 C   0  0  0  0  0  2  0  0  0  0  0  0
  183.2520  178.6750  138.2230 C   0  0  0  0  0  3  0  0  0  0  0  0
  1  8  1  6  0  0  0
  1  6  1  0  0  0  0
  1 20  1  0  0  0  0
  2  5  1  0  0  0  0
  3  5  1  0  0  0  0
  6  2  1  0  0  0  0
  7  4  1  1  0  0  0
  7  6  1  0  0  0  0
  7  3  1  0  0  0  0
  9  8  1  0  0  0  0
 10  9  1  0  0  0  0
 11 10  1  0  0  0  0
 13 12  2  0  0  0  0
 13 11  1  0  0  0  0
 14 10  1  0  0  0  0
 15 14  1  0  0  0  0
 16 19  1  0  0  0  0
 18 15  1  0  0  0  0
 19 17  2  0  0  0  0
 19 18  1  0  0  0  0
 21 20  1  0  0  0  0
 22 21  1  0  0  0  0
 23 30  1  0  0  0  0
 24 23  2  0  0  0  0
 25 31  2  0  0  0  0
 25 24  1  0  0  0  0
 26 30  1  0  0  0  0
 26 22  1  0  0  0  0
 27 24  1  0  0  0  0
 28 26  2  0  0  0  0
 29 32  1  6  0  0  0
 29 27  1  0  0  0  0
 29 25  1  0  0  0  0
 31 28  1  0  0  0  0
 33 34  2  0  0  0  0
 34 32  1  0  0  0  0
M  END
>  <MODEL>
1

>  <REMARK>
 VINA RESULT:      -7.2      0.000      0.000
  Name = 
  15 active torsions:
  status: ('A' for Active; 'I' for Inactive)
    1  A    between atoms: C_7  and  C_13
    2  A    between atoms: C_7  and  N_33
    3  A    between atoms: C_9  and  C_20
    4  A    between atoms: C_9  and  C_22
    5  A    between atoms: C_10  and  C_24
    6  A    between atoms: C_15  and  C_28
    7  A    between atoms: C_15  and  N_30
    8  A    between atoms: C_16  and  C_18
    9  A    between atoms: C_16  and  C_24
   10  A    between atoms: N_17  and  C_20
   11  A    between atoms: C_18  and  C_20
   12  A    between atoms: C_21  and  C_25
   13  A    between atoms: C_21  and  C_27
   14  A    between atoms: C_22  and  N_33
   15  A    between atoms: C_28  and  N_33
                            x       y       z     vdW  Elec       q    Type
                         _______ _______ _______ _____ _____    ______ ____

>  <TORSDO>
F 15

$$$$
=
 OpenBabel10222418193D

 34 36  0  0  1  0  0  0  0  0999 V2000
  187.1690  177.3830  145.3440 C   0  0  2  0  0  3  0  0  0  0  0  0
  187.5780  178.0220  147.5090 O   0  0  0  0  0  0  0  0  0  0  0  0
  189.7980  177.3170  147.7260 C   0  0  0  0  0  2  0  0  0  0  0  0
  190.3430  178.0980  145.5680 O   0  0  0  0  0  1  0  0  0  0  0  0
  188.6710  178.0530  148.3870 C   0  0  0  0  0  2  0  0  0  0  0  0
  188.1110  178.0560  146.2520 N   0  0  0  0  0  0  0  0  0  0  0  0
  189.4000  177.3650  146.2880 C   0  0  2  0  0  3  0  0  0  0  0  0
  187.4380  177.6800  143.8670 C   0  0  0  0  0  2  0  0  0  0  0  0
  188.0910  176.4770  143.2140 C   0  0  0  0  0  2  0  0  0  0  0  0
  188.7050  176.8750  141.9550 N   0  0  0  0  0  0  0  0  0  0  0  0
  190.1490  176.7430  142.0970 C   0  0  0  0  0  2  0  0  0  0  0  0
  191.6330  175.6710  143.7130 C   0  0  0  0  0  2  0  0  0  0  0  0
  190.4620  175.6730  143.0860 C   0  0  0  0  0  3  0  0  0  0  0  0
  188.3450  178.2640  141.6320 C   0  0  0  0  0  2  0  0  0  0  0  0
  187.6180  178.4290  140.2940 C   0  0  0  0  0  2  0  0  0  0  0  0
  189.1540  178.6950  136.8180 N   0  0  0  0  0  1  0  0  0  0  0  0
  186.9500  178.6950  137.5440 O   0  0  0  0  0  0  0  0  0  0  0  0
  188.5800  178.4970  139.2050 N   0  0  0  0  0  2  0  0  0  0  0  0
  188.1710  178.6310  137.8440 C   0  0  0  0  0  0  0  0  0  0  0  0
  185.7240  177.6930  145.7280 C   0  0  0  0  0  2  0  0  0  0  0  0
  185.1830  178.8480  144.9010 C   0  0  0  0  0  2  0  0  0  0  0  0
  183.6890  179.0050  145.1320 C   0  0  0  0  0  2  0  0  0  0  0  0
  180.4860  178.6550  142.9480 C   0  0  0  0  0  3  0  0  0  0  0  0
  180.7840  178.5370  141.6760 C   0  0  0  0  0  0  0  0  0  0  0  0
  182.0870  178.5160  140.9860 C   0  0  0  0  0  0  0  0  0  0  0  0
  182.9530  178.8380  143.8500 C   0  0  0  0  0  0  0  0  0  0  0  0
  180.0560  178.3930  140.4180 N   0  0  0  0  0  2  0  0  0  0  0  0
  183.7160  178.7600  142.7360 C   0  0  0  0  0  3  0  0  0  0  0  0
  181.3300  178.3520  139.7810 C   0  0  1  0  0  3  0  0  0  0  0  0
  181.5090  178.7930  143.9410 N   0  0  0  0  0  2  0  0  0  0  0  0
  183.3120  178.6010  141.3650 N   0  0  0  0  0  0  0  0  0  0  0  0
  181.5080  179.5630  138.8740 C   0  0  0  0  0  2  0  0  0  0  0  0
  181.6780  177.8470  137.1430 C   0  0  0  0  0  2  0  0  0  0  0  0
  181.8260  179.1220  137.4860 C   0  0  0  0  0  3  0  0  0  0  0  0
  1  8  1  6  0  0  0
  1 20  1  0  0  0  0
  1  6  1  0  0  0  0
  2  5  1  0  0  0  0
  3  5  1  0  0  0  0
  6  7  1  0  0  0  0
  6  2  1  0  0  0  0
  7  4  1  6  0  0  0
  7  3  1  0  0  0  0
  9  8  1  0  0  0  0
 10 11  1  0  0  0  0
 10  9  1  0  0  0  0
 11 13  1  0  0  0  0
 13 12  2  0  0  0  0
 14 10  1  0  0  0  0
 15 14  1  0  0  0  0
 16 19  1  0  0  0  0
 17 19  2  0  0  0  0
 18 15  1  0  0  0  0
 19 18  1  0  0  0  0
 21 22  1  0  0  0  0
 21 20  1  0  0  0  0
 23 30  1  0  0  0  0
 24 23  2  0  0  0  0
 25 31  2  0  0  0  0
 25 24  1  0  0  0  0
 26 30  1  0  0  0  0
 26 22  1  0  0  0  0
 27 24  1  0  0  0  0
 28 26  2  0  0  0  0
 29 32  1  6  0  0  0
 29 27  1  0  0  0  0
 29 25  1  0  0  0  0
 31 28  1  0  0  0  0
 33 34  2  0  0  0  0
 34 32  1  0  0  0  0
M  END
>  <MODEL>
2

>  <REMARK>
 VINA RESULT:      -7.0      1.443      1.792
  Name = 
  15 active torsions:
  status: ('A' for Active; 'I' for Inactive)
    1  A    between atoms: C_7  and  C_13
    2  A    between atoms: C_7  and  N_33
    3  A    between atoms: C_9  and  C_20
    4  A    between atoms: C_9  and  C_22
    5  A    between atoms: C_10  and  C_24
    6  A    between atoms: C_15  and  C_28
    7  A    between atoms: C_15  and  N_30
    8  A    between atoms: C_16  and  C_18
    9  A    between atoms: C_16  and  C_24
   10  A    between atoms: N_17  and  C_20
   11  A    between atoms: C_18  and  C_20
   12  A    between atoms: C_21  and  C_25
   13  A    between atoms: C_21  and  C_27
   14  A    between atoms: C_22  and  N_33
   15  A    between atoms: C_28  and  N_33
                            x       y       z     vdW  Elec       q    Type
                         _______ _______ _______ _____ _____    ______ ____

>  <TORSDO>
F 15

$$$$
=
 OpenBabel10222418193D

 34 36  0  0  1  0  0  0  0  0999 V2000
  186.6550  177.4840  144.6870 C   0  0  2  0  0  3  0  0  0  0  0  0
  187.8830  177.1330  146.5930 O   0  0  0  0  0  0  0  0  0  0  0  0
  187.0090  178.8210  147.9550 C   0  0  0  0  0  2  0  0  0  0  0  0
  184.8100  178.3890  147.2200 O   0  0  0  0  0  1  0  0  0  0  0  0
  187.9260  177.6360  147.9010 C   0  0  0  0  0  2  0  0  0  0  0  0
  186.6100  177.3530  146.1520 N   0  0  0  0  0  0  0  0  0  0  0  0
  186.1200  178.5800  146.7800 C   0  0  2  0  0  3  0  0  0  0  0  0
  188.0790  177.5660  144.1320 C   0  0  0  0  0  2  0  0  0  0  0  0
  188.3150  176.4300  143.1560 C   0  0  0  0  0  2  0  0  0  0  0  0
  189.7450  176.2460  142.9530 N   0  0  0  0  0  0  0  0  0  0  0  0
  190.4470  177.1560  143.8480 C   0  0  0  0  0  2  0  0  0  0  0  0
  191.5920  176.6270  145.9400 C   0  0  0  0  0  2  0  0  0  0  0  0
  191.4640  176.4020  144.6370 C   0  0  0  0  0  3  0  0  0  0  0  0
  190.0990  176.5280  141.5540 C   0  0  0  0  0  2  0  0  0  0  0  0
  189.2810  177.6540  140.9140 C   0  0  0  0  0  2  0  0  0  0  0  0
  189.2980  178.5600  137.2140 N   0  0  0  0  0  1  0  0  0  0  0  0
  187.6250  178.6280  138.8200 O   0  0  0  0  0  0  0  0  0  0  0  0
  189.7120  177.8710  139.5430 N   0  0  0  0  0  2  0  0  0  0  0  0
  188.8230  178.3640  138.5410 C   0  0  0  0  0  0  0  0  0  0  0  0
  185.7970  178.6560  144.2160 C   0  0  0  0  0  2  0  0  0  0  0  0
  184.6540  178.1690  143.3410 C   0  0  0  0  0  2  0  0  0  0  0  0
  185.0730  178.1680  141.8800 C   0  0  0  0  0  2  0  0  0  0  0  0
  181.3650  178.9360  140.9790 C   0  0  0  0  0  3  0  0  0  0  0  0
  181.2760  179.6240  139.8650 C   0  0  0  0  0  0  0  0  0  0  0  0
  182.3190  180.1230  138.9510 C   0  0  0  0  0  0  0  0  0  0  0  0
  183.9910  178.7410  141.0370 C   0  0  0  0  0  0  0  0  0  0  0  0
  180.2100  180.2020  139.0510 N   0  0  0  0  0  2  0  0  0  0  0  0
  184.3930  179.4040  139.9280 C   0  0  0  0  0  3  0  0  0  0  0  0
  181.2380  180.6500  138.1730 C   0  0  1  0  0  3  0  0  0  0  0  0
  182.6370  178.5350  141.5040 N   0  0  0  0  0  2  0  0  0  0  0  0
  183.6020  180.0630  138.9250 N   0  0  0  0  0  0  0  0  0  0  0  0
  181.2910  182.1730  138.1530 C   0  0  0  0  0  2  0  0  0  0  0  0
  181.0630  183.9440  136.4870 C   0  0  0  0  0  2  0  0  0  0  0  0
  180.8170  182.6870  136.8370 C   0  0  0  0  0  3  0  0  0  0  0  0
  1  8  1  1  0  0  0
  1  6  1  0  0  0  0
  2  5  1  0  0  0  0
  5  3  1  0  0  0  0
  6  2  1  0  0  0  0
  6  7  1  0  0  0  0
  7  4  1  1  0  0  0
  7  3  1  0  0  0  0
  9  8  1  0  0  0  0
 10  9  1  0  0  0  0
 10 11  1  0  0  0  0
 11 13  1  0  0  0  0
 13 12  2  0  0  0  0
 14 10  1  0  0  0  0
 15 14  1  0  0  0  0
 16 19  1  0  0  0  0
 18 15  1  0  0  0  0
 19 17  2  0  0  0  0
 19 18  1  0  0  0  0
 20  1  1  0  0  0  0
 21 20  1  0  0  0  0
 22 21  1  0  0  0  0
 23 30  1  0  0  0  0
 24 23  2  0  0  0  0
 25 24  1  0  0  0  0
 26 30  1  0  0  0  0
 26 22  1  0  0  0  0
 27 24  1  0  0  0  0
 28 26  2  0  0  0  0
 29 32  1  1  0  0  0
 29 25  1  0  0  0  0
 29 27  1  0  0  0  0
 31 25  2  0  0  0  0
 31 28  1  0  0  0  0
 33 34  2  0  0  0  0
 34 32  1  0  0  0  0
M  END
>  <MODEL>
3

>  <REMARK>
 VINA RESULT:      -6.9      2.301      3.521
  Name = 
  15 active torsions:
  status: ('A' for Active; 'I' for Inactive)
    1  A    between atoms: C_7  and  C_13
    2  A    between atoms: C_7  and  N_33
    3  A    between atoms: C_9  and  C_20
    4  A    between atoms: C_9  and  C_22
    5  A    between atoms: C_10  and  C_24
    6  A    between atoms: C_15  and  C_28
    7  A    between atoms: C_15  and  N_30
    8  A    between atoms: C_16  and  C_18
    9  A    between atoms: C_16  and  C_24
   10  A    between atoms: N_17  and  C_20
   11  A    between atoms: C_18  and  C_20
   12  A    between atoms: C_21  and  C_25
   13  A    between atoms: C_21  and  C_27
   14  A    between atoms: C_22  and  N_33
   15  A    between atoms: C_28  and  N_33
                            x       y       z     vdW  Elec       q    Type
                         _______ _______ _______ _____ _____    ______ ____

>  <TORSDO>
F 15

$$$$
=
 OpenBabel10222418193D

 34 36  0  0  1  0  0  0  0  0999 V2000
  189.5640  177.5260  144.7890 C   0  0  2  0  0  3  0  0  0  0  0  0
  191.4200  176.3440  145.4380 O   0  0  0  0  0  0  0  0  0  0  0  0
  191.4040  176.7960  147.7330 C   0  0  0  0  0  2  0  0  0  0  0  0
  189.0640  176.5280  147.8530 O   0  0  0  0  0  1  0  0  0  0  0  0
  192.0640  176.0110  146.6390 C   0  0  0  0  0  2  0  0  0  0  0  0
  190.1160  176.5780  145.7690 N   0  0  0  0  0  0  0  0  0  0  0  0
  190.0850  177.1340  147.1220 C   0  0  2  0  0  3  0  0  0  0  0  0
  188.3130  177.0020  144.0810 C   0  0  0  0  0  2  0  0  0  0  0  0
  187.0910  177.2620  144.9410 C   0  0  0  0  0  2  0  0  0  0  0  0
  186.2950  178.3300  144.3520 N   0  0  0  0  0  0  0  0  0  0  0  0
  184.9780  178.3040  144.9730 C   0  0  0  0  0  2  0  0  0  0  0  0
  185.8080  179.3050  147.0410 C   0  0  0  0  0  2  0  0  0  0  0  0
  185.1200  178.3300  146.4570 C   0  0  0  0  0  3  0  0  0  0  0  0
  186.1820  178.1370  142.8990 C   0  0  0  0  0  2  0  0  0  0  0  0
  184.7990  178.4660  142.3280 C   0  0  0  0  0  2  0  0  0  0  0  0
  184.5630  180.0250  138.8600 N   0  0  0  0  0  1  0  0  0  0  0  0
  183.8350  177.9870  139.6980 O   0  0  0  0  0  0  0  0  0  0  0  0
  184.9240  179.3910  141.2120 N   0  0  0  0  0  2  0  0  0  0  0  0
  184.4150  179.0830  139.9150 C   0  0  0  0  0  0  0  0  0  0  0  0
  190.6340  177.9660  143.7920 C   0  0  0  0  0  2  0  0  0  0  0  0
  190.0390  178.1400  142.4050 C   0  0  0  0  0  2  0  0  0  0  0  0
  190.7260  177.2100  141.4180 C   0  0  0  0  0  2  0  0  0  0  0  0
  189.9150  175.8020  137.8810 C   0  0  0  0  0  3  0  0  0  0  0  0
  188.8080  176.3190  137.4020 C   0  0  0  0  0  0  0  0  0  0  0  0
  187.8750  177.3060  137.9750 C   0  0  0  0  0  0  0  0  0  0  0  0
  189.9180  177.0960  140.1750 C   0  0  0  0  0  0  0  0  0  0  0  0
  188.0080  176.1880  136.1870 N   0  0  0  0  0  2  0  0  0  0  0  0
  188.8000  177.8550  140.1240 C   0  0  0  0  0  3  0  0  0  0  0  0
  187.1370  177.1610  136.7560 C   0  0  1  0  0  3  0  0  0  0  0  0
  190.4120  176.1770  139.1710 N   0  0  0  0  0  2  0  0  0  0  0  0
  187.8210  177.9650  139.0770 N   0  0  0  0  0  0  0  0  0  0  0  0
  185.7690  176.5510  137.0340 C   0  0  0  0  0  2  0  0  0  0  0  0
  183.4480  176.9720  136.3980 C   0  0  0  0  0  2  0  0  0  0  0  0
  184.7380  177.1820  136.1610 C   0  0  0  0  0  3  0  0  0  0  0  0
  1 20  1  6  0  0  0
  1  6  1  0  0  0  0
  2  6  1  0  0  0  0
  2  5  1  0  0  0  0
  5  3  1  0  0  0  0
  6  7  1  0  0  0  0
  7  3  1  0  0  0  0
  7  4  1  1  0  0  0
  8  1  1  0  0  0  0
  8  9  1  0  0  0  0
 10  9  1  0  0  0  0
 10 11  1  0  0  0  0
 11 13  1  0  0  0  0
 13 12  2  0  0  0  0
 14 10  1  0  0  0  0
 15 14  1  0  0  0  0
 16 19  1  0  0  0  0
 17 19  2  0  0  0  0
 18 15  1  0  0  0  0
 19 18  1  0  0  0  0
 21 20  1  0  0  0  0
 22 21  1  0  0  0  0
 23 30  1  0  0  0  0
 24 23  2  0  0  0  0
 24 25  1  0  0  0  0
 25 31  2  0  0  0  0
 26 22  1  0  0  0  0
 27 29  1  0  0  0  0
 27 24  1  0  0  0  0
 28 26  2  0  0  0  0
 29 32  1  1  0  0  0
 29 25  1  0  0  0  0
 30 26  1  0  0  0  0
 31 28  1  0  0  0  0
 34 33  2  0  0  0  0
 34 32  1  0  0  0  0
M  END
>  <MODEL>
4

>  <REMARK>
 VINA RESULT:      -6.8      1.989      5.415
  Name = 
  15 active torsions:
  status: ('A' for Active; 'I' for Inactive)
    1  A    between atoms: C_7  and  C_13
    2  A    between atoms: C_7  and  N_33
    3  A    between atoms: C_9  and  C_20
    4  A    between atoms: C_9  and  C_22
    5  A    between atoms: C_10  and  C_24
    6  A    between atoms: C_15  and  C_28
    7  A    between atoms: C_15  and  N_30
    8  A    between atoms: C_16  and  C_18
    9  A    between atoms: C_16  and  C_24
   10  A    between atoms: N_17  and  C_20
   11  A    between atoms: C_18  and  C_20
   12  A    between atoms: C_21  and  C_25
   13  A    between atoms: C_21  and  C_27
   14  A    between atoms: C_22  and  N_33
   15  A    between atoms: C_28  and  N_33
                            x       y       z     vdW  Elec       q    Type
                         _______ _______ _______ _____ _____    ______ ____

>  <TORSDO>
F 15

$$$$
=
 OpenBabel10222418193D

 34 36  0  0  1  0  0  0  0  0999 V2000
  187.2570  177.2400  146.0050 C   0  0  2  0  0  3  0  0  0  0  0  0
  189.4020  176.6710  146.5840 O   0  0  0  0  0  0  0  0  0  0  0  0
  189.7880  178.2240  148.2890 C   0  0  0  0  0  2  0  0  0  0  0  0
  187.6240  177.9110  149.1760 O   0  0  0  0  0  1  0  0  0  0  0  0
  190.3390  177.0350  147.5620 C   0  0  0  0  0  2  0  0  0  0  0  0
  188.1780  176.9590  147.1170 N   0  0  0  0  0  0  0  0  0  0  0  0
  188.3290  178.1230  147.9910 C   0  0  2  0  0  3  0  0  0  0  0  0
  187.9580  177.8080  144.7690 C   0  0  0  0  0  2  0  0  0  0  0  0
  187.9760  176.7660  143.6670 C   0  0  0  0  0  2  0  0  0  0  0  0
  189.1720  176.9340  142.8530 N   0  0  0  0  0  0  0  0  0  0  0  0
  189.9750  177.9950  143.4460 C   0  0  0  0  0  2  0  0  0  0  0  0
  191.5720  176.1630  143.6890 C   0  0  0  0  0  2  0  0  0  0  0  0
  191.2840  177.4430  143.8990 C   0  0  0  0  0  3  0  0  0  0  0  0
  188.8010  177.2810  141.4730 C   0  0  0  0  0  2  0  0  0  0  0  0
  189.9710  177.2590  140.4840 C   0  0  0  0  0  2  0  0  0  0  0  0
  189.4520  176.0630  136.9050 N   0  0  0  0  0  1  0  0  0  0  0  0
  190.8690  175.3370  138.5930 O   0  0  0  0  0  0  0  0  0  0  0  0
  189.4750  177.1340  139.1230 N   0  0  0  0  0  2  0  0  0  0  0  0
  189.9740  176.1420  138.2260 C   0  0  0  0  0  0  0  0  0  0  0  0
  186.1060  178.1350  146.4620 C   0  0  0  0  0  2  0  0  0  0  0  0
  185.6840  179.0800  145.3490 C   0  0  0  0  0  2  0  0  0  0  0  0
  184.2660  178.7660  144.9020 C   0  0  0  0  0  2  0  0  0  0  0  0
  185.7030  179.1830  141.3090 C   0  0  0  0  0  3  0  0  0  0  0  0
  184.7550  179.1120  140.4030 C   0  0  0  0  0  0  0  0  0  0  0  0
  183.3020  178.9100  140.5390 C   0  0  0  0  0  0  0  0  0  0  0  0
  184.1650  178.8520  143.4210 C   0  0  0  0  0  0  0  0  0  0  0  0
  184.6650  179.1770  138.9470 N   0  0  0  0  0  2  0  0  0  0  0  0
  182.9230  178.7120  142.9040 C   0  0  0  0  0  3  0  0  0  0  0  0
  183.2600  179.0050  139.1100 C   0  0  1  0  0  3  0  0  0  0  0  0
  185.4060  179.0600  142.7050 N   0  0  0  0  0  2  0  0  0  0  0  0
  182.5000  178.7430  141.5300 N   0  0  0  0  0  0  0  0  0  0  0  0
  182.8140  177.6800  138.5040 C   0  0  0  0  0  2  0  0  0  0  0  0
  182.9670  177.4340  136.0780 C   0  0  0  0  0  2  0  0  0  0  0  0
  182.2920  177.8970  137.1240 C   0  0  0  0  0  3  0  0  0  0  0  0
  1  8  1  6  0  0  0
  1 20  1  0  0  0  0
  1  6  1  0  0  0  0
  2  6  1  0  0  0  0
  2  5  1  0  0  0  0
  5  3  1  0  0  0  0
  6  7  1  0  0  0  0
  7  3  1  0  0  0  0
  7  4  1  1  0  0  0
  9  8  1  0  0  0  0
 10 11  1  0  0  0  0
 10  9  1  0  0  0  0
 11 13  1  0  0  0  0
 12 13  2  0  0  0  0
 14 10  1  0  0  0  0
 15 14  1  0  0  0  0
 16 19  1  0  0  0  0
 18 15  1  0  0  0  0
 19 17  2  0  0  0  0
 19 18  1  0  0  0  0
 21 20  1  0  0  0  0
 22 21  1  0  0  0  0
 23 30  1  0  0  0  0
 24 25  1  0  0  0  0
 24 23  2  0  0  0  0
 25 31  2  0  0  0  0
 26 22  1  0  0  0  0
 27 29  1  0  0  0  0
 27 24  1  0  0  0  0
 28 26  2  0  0  0  0
 29 32  1  6  0  0  0
 29 25  1  0  0  0  0
 30 26  1  0  0  0  0
 31 28  1  0  0  0  0
 33 34  2  0  0  0  0
 34 32  1  0  0  0  0
M  END
>  <MODEL>
5

>  <REMARK>
 VINA RESULT:      -6.7      1.673      2.521
  Name = 
  15 active torsions:
  status: ('A' for Active; 'I' for Inactive)
    1  A    between atoms: C_7  and  C_13
    2  A    between atoms: C_7  and  N_33
    3  A    between atoms: C_9  and  C_20
    4  A    between atoms: C_9  and  C_22
    5  A    between atoms: C_10  and  C_24
    6  A    between atoms: C_15  and  C_28
    7  A    between atoms: C_15  and  N_30
    8  A    between atoms: C_16  and  C_18
    9  A    between atoms: C_16  and  C_24
   10  A    between atoms: N_17  and  C_20
   11  A    between atoms: C_18  and  C_20
   12  A    between atoms: C_21  and  C_25
   13  A    between atoms: C_21  and  C_27
   14  A    between atoms: C_22  and  N_33
   15  A    between atoms: C_28  and  N_33
                            x       y       z     vdW  Elec       q    Type
                         _______ _______ _______ _____ _____    ______ ____

>  <TORSDO>
F 15

$$$$
=
 OpenBabel10222418193D

 34 36  0  0  1  0  0  0  0  0999 V2000
  186.9740  178.1470  141.6280 C   0  0  2  0  0  3  0  0  0  0  0  0
  185.7430  178.9220  139.8560 O   0  0  0  0  0  0  0  0  0  0  0  0
  183.5820  178.5350  140.6630 C   0  0  0  0  0  2  0  0  0  0  0  0
  184.1640  179.2940  142.8200 O   0  0  0  0  0  1  0  0  0  0  0  0
  184.3900  179.1380  139.5540 C   0  0  0  0  0  2  0  0  0  0  0  0
  185.8320  178.9770  141.2170 N   0  0  0  0  0  0  0  0  0  0  0  0
  184.5780  178.4700  141.7740 C   0  0  2  0  0  3  0  0  0  0  0  0
  186.9850  177.8320  143.1260 C   0  0  0  0  0  2  0  0  0  0  0  0
  187.7570  176.5510  143.3750 C   0  0  0  0  0  2  0  0  0  0  0  0
  188.5270  176.6740  144.6050 N   0  0  0  0  0  0  0  0  0  0  0  0
  188.0800  177.8740  145.2980 C   0  0  0  0  0  2  0  0  0  0  0  0
  187.5020  178.0770  147.6620 C   0  0  0  0  0  2  0  0  0  0  0  0
  187.2700  177.4950  146.4910 C   0  0  0  0  0  3  0  0  0  0  0  0
  189.9630  176.7620  144.2970 C   0  0  0  0  0  2  0  0  0  0  0  0
  190.7240  177.7870  145.1440 C   0  0  0  0  0  2  0  0  0  0  0  0
  192.7120  175.8400  147.7450 N   0  0  0  0  0  1  0  0  0  0  0  0
  190.4640  176.3970  147.6100 O   0  0  0  0  0  0  0  0  0  0  0  0
  191.8150  177.1400  145.8550 N   0  0  0  0  0  2  0  0  0  0  0  0
  191.6100  176.4580  147.0920 C   0  0  0  0  0  0  0  0  0  0  0  0
  188.2940  178.7670  141.1730 C   0  0  0  0  0  2  0  0  0  0  0  0
  188.9810  177.8790  140.1480 C   0  0  0  0  0  2  0  0  0  0  0  0
  190.2610  177.3000  140.7290 C   0  0  0  0  0  2  0  0  0  0  0  0
  190.9330  175.0800  137.6030 C   0  0  0  0  0  3  0  0  0  0  0  0
  192.1740  175.1950  137.1920 C   0  0  0  0  0  0  0  0  0  0  0  0
  193.2940  175.9990  137.7130 C   0  0  0  0  0  0  0  0  0  0  0  0
  191.1060  176.7360  139.6430 C   0  0  0  0  0  0  0  0  0  0  0  0
  192.9950  174.6540  136.1120 N   0  0  0  0  0  2  0  0  0  0  0  0
  192.3880  177.1680  139.6070 C   0  0  0  0  0  3  0  0  0  0  0  0
  194.0650  175.4230  136.6520 C   0  0  1  0  0  3  0  0  0  0  0  0
  190.4590  175.8040  138.7450 N   0  0  0  0  0  2  0  0  0  0  0  0
  193.4400  176.8190  138.6930 N   0  0  0  0  0  0  0  0  0  0  0  0
  194.4960  176.5000  135.6640 C   0  0  0  0  0  2  0  0  0  0  0  0
  196.7200  175.5040  135.8270 C   0  0  0  0  0  2  0  0  0  0  0  0
  195.8340  176.1710  135.0960 C   0  0  0  0  0  3  0  0  0  0  0  0
  1 20  1  1  0  0  0
  1  8  1  0  0  0  0
  2  6  1  0  0  0  0
  3  7  1  0  0  0  0
  5  2  1  0  0  0  0
  5  3  1  0  0  0  0
  6  1  1  0  0  0  0
  6  7  1  0  0  0  0
  7  4  1  1  0  0  0
  8  9  1  0  0  0  0
  9 10  1  0  0  0  0
 10 11  1  0  0  0  0
 11 13  1  0  0  0  0
 13 12  2  0  0  0  0
 14 10  1  0  0  0  0
 14 15  1  0  0  0  0
 15 18  1  0  0  0  0
 18 19  1  0  0  0  0
 19 17  2  0  0  0  0
 19 16  1  0  0  0  0
 21 22  1  0  0  0  0
 21 20  1  0  0  0  0
 23 30  1  0  0  0  0
 24 23  2  0  0  0  0
 24 25  1  0  0  0  0
 25 31  2  0  0  0  0
 26 22  1  0  0  0  0
 27 29  1  0  0  0  0
 27 24  1  0  0  0  0
 28 26  2  0  0  0  0
 29 32  1  6  0  0  0
 29 25  1  0  0  0  0
 30 26  1  0  0  0  0
 31 28  1  0  0  0  0
 34 32  1  0  0  0  0
 34 33  2  0  0  0  0
M  END
>  <MODEL>
6

>  <REMARK>
 VINA RESULT:      -6.6      3.382      9.017
  Name = 
  15 active torsions:
  status: ('A' for Active; 'I' for Inactive)
    1  A    between atoms: C_7  and  C_13
    2  A    between atoms: C_7  and  N_33
    3  A    between atoms: C_9  and  C_20
    4  A    between atoms: C_9  and  C_22
    5  A    between atoms: C_10  and  C_24
    6  A    between atoms: C_15  and  C_28
    7  A    between atoms: C_15  and  N_30
    8  A    between atoms: C_16  and  C_18
    9  A    between atoms: C_16  and  C_24
   10  A    between atoms: N_17  and  C_20
   11  A    between atoms: C_18  and  C_20
   12  A    between atoms: C_21  and  C_25
   13  A    between atoms: C_21  and  C_27
   14  A    between atoms: C_22  and  N_33
   15  A    between atoms: C_28  and  N_33
                            x       y       z     vdW  Elec       q    Type
                         _______ _______ _______ _____ _____    ______ ____

>  <TORSDO>
F 15

$$$$
=
 OpenBabel10222418193D

 34 36  0  0  1  0  0  0  0  0999 V2000
  183.6600  179.1160  140.2800 C   0  0  2  0  0  3  0  0  0  0  0  0
  181.8530  177.7700  140.7110 O   0  0  0  0  0  0  0  0  0  0  0  0
  180.1260  179.1620  139.9690 C   0  0  0  0  0  2  0  0  0  0  0  0
  181.3650  179.8270  138.0750 O   0  0  0  0  0  1  0  0  0  0  0  0
  180.4690  177.7970  140.4880 C   0  0  0  0  0  2  0  0  0  0  0  0
  182.4000  178.5720  139.7500 N   0  0  0  0  0  0  0  0  0  0  0  0
  181.4440  179.6390  139.4550 C   0  0  2  0  0  3  0  0  0  0  0  0
  184.6900  179.4240  139.1900 C   0  0  0  0  0  2  0  0  0  0  0  0
  185.5770  178.2150  138.9680 C   0  0  0  0  0  2  0  0  0  0  0  0
  186.9740  178.6260  138.9620 N   0  0  0  0  0  0  0  0  0  0  0  0
  187.6680  177.8480  137.9450 C   0  0  0  0  0  2  0  0  0  0  0  0
  186.9090  178.0340  135.6320 C   0  0  0  0  0  2  0  0  0  0  0  0
  187.6030  178.5580  136.6360 C   0  0  0  0  0  3  0  0  0  0  0  0
  187.5760  178.3970  140.2850 C   0  0  0  0  0  2  0  0  0  0  0  0
  188.9500  177.7200  140.2400 C   0  0  0  0  0  2  0  0  0  0  0  0
  190.4280  175.6760  143.0940 N   0  0  0  0  0  1  0  0  0  0  0  0
  191.3760  177.2030  141.6260 O   0  0  0  0  0  0  0  0  0  0  0  0
  189.0920  176.7990  141.3560 N   0  0  0  0  0  2  0  0  0  0  0  0
  190.3450  176.5880  142.0050 C   0  0  0  0  0  0  0  0  0  0  0  0
  184.2380  178.2040  141.3600 C   0  0  0  0  0  2  0  0  0  0  0  0
  184.6720  179.0120  142.5720 C   0  0  0  0  0  2  0  0  0  0  0  0
  184.2450  178.3110  143.8510 C   0  0  0  0  0  2  0  0  0  0  0  0
  185.9340  178.6800  147.3390 C   0  0  0  0  0  3  0  0  0  0  0  0
  187.2000  178.3380  147.2960 C   0  0  2  0  0  3  0  0  0  0  0  0
  188.0350  177.8600  146.1800 C   0  0  0  0  0  0  0  0  0  0  0  0
  185.3880  178.2390  144.8010 C   0  0  0  0  0  0  0  0  0  0  0  0
  188.3140  178.2500  148.2380 N   0  0  0  0  0  2  0  0  0  0  0  0
  186.5600  177.8060  144.2840 C   0  0  0  0  0  3  0  0  0  0  0  0
  189.1030  177.8140  147.1340 C   0  0  1  0  0  3  0  0  0  0  0  0
  185.1110  178.6280  146.1670 N   0  0  0  0  0  0  0  0  0  0  0  0
  187.8300  177.6250  144.9330 N   0  0  0  0  0  0  0  0  0  0  0  0
  189.5620  176.3770  147.3470 C   0  0  0  0  0  2  0  0  0  0  0  0
  191.6390  176.8930  146.1700 C   0  0  0  0  0  2  0  0  0  0  0  0
  191.0410  176.2810  147.1850 C   0  0  0  0  0  3  0  0  0  0  0  0
  1  8  1  6  0  0  0
  1 20  1  0  0  0  0
  3  5  1  0  0  0  0
  5  2  1  0  0  0  0
  6  1  1  0  0  0  0
  6  2  1  0  0  0  0
  7  4  1  6  0  0  0
  7  6  1  0  0  0  0
  7  3  1  0  0  0  0
  9  8  1  0  0  0  0
 10  9  1  0  0  0  0
 10 14  1  0  0  0  0
 11 10  1  0  0  0  0
 12 13  2  0  0  0  0
 13 11  1  0  0  0  0
 15 14  1  0  0  0  0
 15 18  1  0  0  0  0
 17 19  2  0  0  0  0
 18 19  1  0  0  0  0
 19 16  1  0  0  0  0
 20 21  1  0  0  0  0
 21 22  1  0  0  0  0
 22 26  1  0  0  0  0
 24 23  1  1  0  0  0
 24 27  1  0  0  0  0
 25 29  1  0  0  0  0
 25 24  1  0  0  0  0
 26 30  1  0  0  0  0
 28 26  2  0  0  0  0
 28 31  1  0  0  0  0
 29 32  1  1  0  0  0
 29 27  1  0  0  0  0
 30 23  2  0  0  0  0
 31 25  2  0  0  0  0
 33 34  2  0  0  0  0
 34 32  1  0  0  0  0
M  END
>  <MODEL>
7

>  <REMARK>
 VINA RESULT:      -6.5      2.469      7.727
  Name = 
  15 active torsions:
  status: ('A' for Active; 'I' for Inactive)
    1  A    between atoms: C_7  and  C_13
    2  A    between atoms: C_7  and  N_33
    3  A    between atoms: C_9  and  C_20
    4  A    between atoms: C_9  and  C_22
    5  A    between atoms: C_10  and  C_24
    6  A    between atoms: C_15  and  C_28
    7  A    between atoms: C_15  and  N_30
    8  A    between atoms: C_16  and  C_18
    9  A    between atoms: C_16  and  C_24
   10  A    between atoms: N_17  and  C_20
   11  A    between atoms: C_18  and  C_20
   12  A    between atoms: C_21  and  C_25
   13  A    between atoms: C_21  and  C_27
   14  A    between atoms: C_22  and  N_33
   15  A    between atoms: C_28  and  N_33
                            x       y       z     vdW  Elec       q    Type
                         _______ _______ _______ _____ _____    ______ ____

>  <TORSDO>
F 15

$$$$
=
 OpenBabel10222418193D

 34 36  0  0  1  0  0  0  0  0999 V2000
  186.8940  177.2390  144.7710 C   0  0  2  0  0  3  0  0  0  0  0  0
  187.8110  177.1530  146.8710 O   0  0  0  0  0  0  0  0  0  0  0  0
  186.8040  179.0340  147.8300 C   0  0  0  0  0  2  0  0  0  0  0  0
  184.7240  178.5280  146.8370 O   0  0  0  0  0  1  0  0  0  0  0  0
  187.6760  177.8420  148.0860 C   0  0  0  0  0  2  0  0  0  0  0  0
  186.6260  177.3240  146.2150 N   0  0  0  0  0  0  0  0  0  0  0  0
  186.0910  178.6360  146.5800 C   0  0  2  0  0  3  0  0  0  0  0  0
  188.3160  177.6620  144.3950 C   0  0  0  0  0  2  0  0  0  0  0  0
  188.9660  176.5800  143.5540 C   0  0  0  0  0  2  0  0  0  0  0  0
  190.3130  176.3210  144.0460 N   0  0  0  0  0  0  0  0  0  0  0  0
  190.6300  177.3330  145.0440 C   0  0  0  0  0  2  0  0  0  0  0  0
  191.2430  176.7580  147.3370 C   0  0  0  0  0  2  0  0  0  0  0  0
  191.5740  176.7690  146.0510 C   0  0  0  0  0  3  0  0  0  0  0  0
  191.2760  176.3730  142.9360 C   0  0  0  0  0  2  0  0  0  0  0  0
  191.1320  177.6060  142.0380 C   0  0  0  0  0  2  0  0  0  0  0  0
  189.9010  177.0800  138.4720 N   0  0  0  0  0  1  0  0  0  0  0  0
  188.9340  178.1160  140.3090 O   0  0  0  0  0  0  0  0  0  0  0  0
  191.0580  177.2040  140.6420 N   0  0  0  0  0  2  0  0  0  0  0  0
  189.9200  177.4950  139.8320 C   0  0  0  0  0  0  0  0  0  0  0  0
  185.8460  178.0130  143.9740 C   0  0  0  0  0  2  0  0  0  0  0  0
  186.4150  178.4760  142.6420 C   0  0  0  0  0  2  0  0  0  0  0  0
  185.4100  179.3570  141.9190 C   0  0  0  0  0  2  0  0  0  0  0  0
  185.5360  178.2480  138.1900 C   0  0  0  0  0  3  0  0  0  0  0  0
  184.5010  177.5050  137.8760 C   0  0  0  0  0  0  0  0  0  0  0  0
  183.3550  177.0520  138.6850 C   0  0  0  0  0  0  0  0  0  0  0  0
  184.8940  178.6600  140.7110 C   0  0  0  0  0  0  0  0  0  0  0  0
  184.0090  176.8060  136.6920 N   0  0  0  0  0  2  0  0  0  0  0  0
  183.7340  177.9830  140.8680 C   0  0  0  0  0  3  0  0  0  0  0  0
  182.9010  176.4040  137.4920 C   0  0  1  0  0  3  0  0  0  0  0  0
  185.6980  178.7750  139.5120 N   0  0  0  0  0  2  0  0  0  0  0  0
  182.9890  177.2170  139.9070 N   0  0  0  0  0  0  0  0  0  0  0  0
  182.9010  174.8920  137.6760 C   0  0  0  0  0  2  0  0  0  0  0  0
  180.5010  175.0660  137.2590 C   0  0  0  0  0  2  0  0  0  0  0  0
  181.5990  174.3190  137.2310 C   0  0  0  0  0  3  0  0  0  0  0  0
  1 20  1  6  0  0  0
  1  6  1  0  0  0  0
  2  5  1  0  0  0  0
  3  5  1  0  0  0  0
  6  7  1  0  0  0  0
  6  2  1  0  0  0  0
  7  4  1  1  0  0  0
  7  3  1  0  0  0  0
  8  1  1  0  0  0  0
  9 10  1  0  0  0  0
  9  8  1  0  0  0  0
 10 11  1  0  0  0  0
 11 13  1  0  0  0  0
 13 12  2  0  0  0  0
 14 10  1  0  0  0  0
 15 14  1  0  0  0  0
 16 19  1  0  0  0  0
 18 15  1  0  0  0  0
 19 17  2  0  0  0  0
 19 18  1  0  0  0  0
 21 20  1  0  0  0  0
 22 21  1  0  0  0  0
 23 30  1  0  0  0  0
 24 23  2  0  0  0  0
 24 25  1  0  0  0  0
 25 31  2  0  0  0  0
 26 28  2  0  0  0  0
 26 22  1  0  0  0  0
 27 29  1  0  0  0  0
 27 24  1  0  0  0  0
 29 32  1  1  0  0  0
 29 25  1  0  0  0  0
 30 26  1  0  0  0  0
 31 28  1  0  0  0  0
 34 33  2  0  0  0  0
 34 32  1  0  0  0  0
M  END
>  <MODEL>
8

>  <REMARK>
 VINA RESULT:      -6.5      2.453      4.134
  Name = 
  15 active torsions:
  status: ('A' for Active; 'I' for Inactive)
    1  A    between atoms: C_7  and  C_13
    2  A    between atoms: C_7  and  N_33
    3  A    between atoms: C_9  and  C_20
    4  A    between atoms: C_9  and  C_22
    5  A    between atoms: C_10  and  C_24
    6  A    between atoms: C_15  and  C_28
    7  A    between atoms: C_15  and  N_30
    8  A    between atoms: C_16  and  C_18
    9  A    between atoms: C_16  and  C_24
   10  A    between atoms: N_17  and  C_20
   11  A    between atoms: C_18  and  C_20
   12  A    between atoms: C_21  and  C_25
   13  A    between atoms: C_21  and  C_27
   14  A    between atoms: C_22  and  N_33
   15  A    between atoms: C_28  and  N_33
                            x       y       z     vdW  Elec       q    Type
                         _______ _______ _______ _____ _____    ______ ____

>  <TORSDO>
F 15

$$$$
=
 OpenBabel10222418193D

 34 36  0  0  1  0  0  0  0  0999 V2000
  186.4110  177.7680  144.1390 C   0  0  2  0  0  3  0  0  0  0  0  0
  187.4150  177.4950  146.1830 O   0  0  0  0  0  0  0  0  0  0  0  0
  186.3140  179.1600  147.4010 C   0  0  0  0  0  2  0  0  0  0  0  0
  184.2390  178.6220  146.4170 O   0  0  0  0  0  1  0  0  0  0  0  0
  187.2800  178.0160  147.4780 C   0  0  0  0  0  2  0  0  0  0  0  0
  186.1950  177.6530  145.5900 N   0  0  0  0  0  0  0  0  0  0  0  0
  185.5830  178.8650  146.1330 C   0  0  2  0  0  3  0  0  0  0  0  0
  187.8820  177.9460  143.7590 C   0  0  0  0  0  2  0  0  0  0  0  0
  188.1910  177.1370  142.5140 C   0  0  0  0  0  2  0  0  0  0  0  0
  189.5820  177.3360  142.1320 N   0  0  0  0  0  0  0  0  0  0  0  0
  189.7050  177.0440  140.7110 C   0  0  0  0  0  2  0  0  0  0  0  0
  188.1340  177.8640  139.0310 C   0  0  0  0  0  2  0  0  0  0  0  0
  189.0860  178.1420  139.9150 C   0  0  0  0  0  3  0  0  0  0  0  0
  190.4560  176.4500  142.9170 C   0  0  0  0  0  2  0  0  0  0  0  0
  191.6130  177.1700  143.6170 C   0  0  0  0  0  2  0  0  0  0  0  0
  191.0940  177.1030  147.3900 N   0  0  0  0  0  1  0  0  0  0  0  0
  192.0690  175.5840  145.9310 O   0  0  0  0  0  0  0  0  0  0  0  0
  191.2280  177.5390  144.9700 N   0  0  0  0  0  2  0  0  0  0  0  0
  191.4900  176.6910  146.0870 C   0  0  0  0  0  0  0  0  0  0  0  0
  185.5360  178.8680  143.5420 C   0  0  0  0  0  2  0  0  0  0  0  0
  184.3620  178.2700  142.7840 C   0  0  0  0  0  2  0  0  0  0  0  0
  184.6100  178.3450  141.2860 C   0  0  0  0  0  2  0  0  0  0  0  0
  180.8420  179.2510  140.9190 C   0  0  0  0  0  3  0  0  0  0  0  0
  180.6220  179.9460  139.8280 C   0  0  0  0  0  0  0  0  0  0  0  0
  181.5420  180.4090  138.7730 C   0  0  0  0  0  0  0  0  0  0  0  0
  183.4410  178.9590  140.6030 C   0  0  0  0  0  0  0  0  0  0  0  0
  179.4730  180.5650  139.1710 N   0  0  0  0  0  2  0  0  0  0  0  0
  183.7050  179.6100  139.4480 C   0  0  0  0  0  3  0  0  0  0  0  0
  180.3820  180.9780  138.1550 C   0  0  1  0  0  3  0  0  0  0  0  0
  182.1600  178.8020  141.2590 N   0  0  0  0  0  2  0  0  0  0  0  0
  182.8050  180.3010  138.5650 N   0  0  0  0  0  0  0  0  0  0  0  0
  180.4880  182.4970  138.1250 C   0  0  0  0  0  2  0  0  0  0  0  0
  181.1710  184.2210  136.5340 C   0  0  0  0  0  2  0  0  0  0  0  0
  180.7990  182.9630  136.7430 C   0  0  0  0  0  3  0  0  0  0  0  0
  1 20  1  1  0  0  0
  1  6  1  0  0  0  0
  2  5  1  0  0  0  0
  3  5  1  0  0  0  0
  6  7  1  0  0  0  0
  6  2  1  0  0  0  0
  7  4  1  1  0  0  0
  7  3  1  0  0  0  0
  8  1  1  0  0  0  0
  9  8  1  0  0  0  0
 10  9  1  0  0  0  0
 10 14  1  0  0  0  0
 11 10  1  0  0  0  0
 12 13  2  0  0  0  0
 13 11  1  0  0  0  0
 14 15  1  0  0  0  0
 15 18  1  0  0  0  0
 17 19  2  0  0  0  0
 18 19  1  0  0  0  0
 19 16  1  0  0  0  0
 21 20  1  0  0  0  0
 22 21  1  0  0  0  0
 23 30  1  0  0  0  0
 24 23  2  0  0  0  0
 25 24  1  0  0  0  0
 26 30  1  0  0  0  0
 26 22  1  0  0  0  0
 27 24  1  0  0  0  0
 28 26  2  0  0  0  0
 29 32  1  1  0  0  0
 29 25  1  0  0  0  0
 29 27  1  0  0  0  0
 31 25  2  0  0  0  0
 31 28  1  0  0  0  0
 33 34  2  0  0  0  0
 34 32  1  0  0  0  0
M  END
>  <MODEL>
9

>  <REMARK>
 VINA RESULT:      -6.4      2.568      4.922
  Name = 
  15 active torsions:
  status: ('A' for Active; 'I' for Inactive)
    1  A    between atoms: C_7  and  C_13
    2  A    between atoms: C_7  and  N_33
    3  A    between atoms: C_9  and  C_20
    4  A    between atoms: C_9  and  C_22
    5  A    between atoms: C_10  and  C_24
    6  A    between atoms: C_15  and  C_28
    7  A    between atoms: C_15  and  N_30
    8  A    between atoms: C_16  and  C_18
    9  A    between atoms: C_16  and  C_24
   10  A    between atoms: N_17  and  C_20
   11  A    between atoms: C_18  and  C_20
   12  A    between atoms: C_21  and  C_25
   13  A    between atoms: C_21  and  C_27
   14  A    between atoms: C_22  and  N_33
   15  A    between atoms: C_28  and  N_33
                            x       y       z     vdW  Elec       q    Type
                         _______ _______ _______ _____ _____    ______ ____

>  <TORSDO>
F 15

$$$$
