=
 OpenBabel10222415203D

 43 46  0  0  1  0  0  0  0  0999 V2000
  190.7210  177.9210  140.7540 C   0  0  2  0  0  3  0  0  0  0  0  0
  189.3790  178.6000  140.5320 C   0  0  0  0  0  2  0  0  0  0  0  0
  190.8100  176.7830  139.8360 N   0  0  0  0  0  0  0  0  0  0  0  0
  189.0360  178.2200  139.1180 C   0  0  1  0  0  3  0  0  0  0  0  0
  189.6330  176.8420  138.9650 C   0  0  0  0  0  2  0  0  0  0  0  0
  189.6440  177.5390  144.4390 C   0  0  2  0  0  0  0  0  0  0  0  0
  190.8740  179.5860  143.5050 C   0  0  0  0  0  1  0  0  0  0  0  0
  190.0740  178.3250  143.1790 C   0  0  1  0  0  3  0  0  0  0  0  0
  190.3430  176.0750  146.2100 C   0  0  0  0  0  2  0  0  0  0  0  0
  190.6220  175.9190  142.3410 C   0  0  0  0  0  2  0  0  0  0  0  0
  190.7150  176.5120  144.8140 C   0  0  2  0  0  0  0  0  0  0  0  0
  191.9680  177.1090  144.8820 F   0  0  0  0  0  0  0  0  0  0  0  0
  188.2920  176.8840  144.1380 C   0  0  0  0  0  1  0  0  0  0  0  0
  190.7790  175.3830  143.7850 C   0  0  0  0  0  2  0  0  0  0  0  0
  189.7620  177.3340  146.8560 C   0  0  2  0  0  3  0  0  0  0  0  0
  190.8840  177.4390  142.1980 C   0  0  1  0  0  3  0  0  0  0  0  0
  188.5730  177.0060  147.5140 O   0  0  0  0  0  1  0  0  0  0  0  0
  189.4710  178.3360  145.7270 C   0  0  0  0  0  2  0  0  0  0  0  0
  187.5880  178.1810  138.9070 C   0  0  0  0  0  0  0  0  0  0  0  0
  186.3960  178.1970  138.7410 C   0  0  0  0  0  0  0  0  0  0  0  0
  184.9470  178.2720  138.5340 C   0  0  0  0  0  2  0  0  0  0  0  0
  184.0330  180.4350  138.8790 O   0  0  0  0  0  0  0  0  0  0  0  0
  184.3630  179.3390  139.4030 C   0  0  0  0  0  0  0  0  0  0  0  0
  184.1690  179.1350  140.8530 C   0  0  0  0  0  0  0  0  0  0  0  0
  182.6960  178.8020  142.8550 C   0  0  0  0  0  0  0  0  0  0  0  0
  183.8980  178.9710  143.6800 C   0  0  0  0  0  0  0  0  0  0  0  0
  185.0670  179.2000  143.0940 C   0  0  0  0  0  3  0  0  0  0  0  0
  181.5650  178.6570  143.4050 O   0  0  0  0  0  0  0  0  0  0  0  0
  183.8270  178.9020  145.1660 C   0  0  0  0  0  1  0  0  0  0  0  0
  185.1720  179.3070  141.6700 N   0  0  0  0  0  0  0  0  0  0  0  0
  182.8010  178.7470  141.3590 C   0  0  0  0  0  2  0  0  0  0  0  0
  193.1350  177.1400  139.9320 O   0  0  0  0  0  1  0  0  0  0  0  0
  192.0720  176.8510  139.0740 C   0  0  1  0  0  3  0  0  0  0  0  0
  191.5330  174.7390  138.1510 O   0  0  0  0  0  0  0  0  0  0  0  0
  192.3670  175.6280  138.2330 C   0  0  0  0  0  0  0  0  0  0  0  0
  193.6760  175.4730  137.5130 C   0  0  0  0  0  2  0  0  0  0  0  0
  195.1320  173.6900  138.5360 C   0  0  0  0  0  0  0  0  0  0  0  0
  195.6930  174.6610  139.5220 C   0  0  0  0  0  1  0  0  0  0  0  0
  194.1550  174.0950  137.5650 N   0  0  0  0  0  0  0  0  0  0  0  0
  195.5350  172.4960  138.5680 O   0  0  0  0  0  0  0  0  0  0  0  0
  193.6130  173.1280  136.6180 C   0  0  0  0  0  2  0  0  0  0  0  0
  194.3880  173.1950  135.3090 C   0  0  0  0  0  2  0  0  0  0  0  0
  195.0750  171.8660  135.0660 C   0  0  0  0  0  1  0  0  0  0  0  0
  1  2  1  1  0  0  0
  1 16  1  0  0  0  0
  3  1  1  0  0  0  0
  4 19  1  1  0  0  0
  4  2  1  0  0  0  0
  5  4  1  0  0  0  0
  5  3  1  0  0  0  0
  6 13  1  6  0  0  0
  6 11  1  0  0  0  0
  6 18  1  0  0  0  0
  8  7  1  1  0  0  0
  8  6  1  0  0  0  0
  9 15  1  0  0  0  0
 10 14  1  0  0  0  0
 11 12  1  1  0  0  0
 11  9  1  0  0  0  0
 14 11  1  0  0  0  0
 15 17  1  6  0  0  0
 16 10  1  6  0  0  0
 16  8  1  0  0  0  0
 18 15  1  0  0  0  0
 20 19  3  0  0  0  0
 21 20  1  0  0  0  0
 21 23  1  0  0  0  0
 22 23  2  0  0  0  0
 23 24  1  0  0  0  0
 24 31  1  0  0  0  0
 24 30  2  0  0  0  0
 25 28  2  0  0  0  0
 25 26  1  0  0  0  0
 26 29  1  0  0  0  0
 27 26  2  0  0  0  0
 30 27  1  0  0  0  0
 31 25  1  0  0  0  0
 33  3  1  0  0  0  0
 33 32  1  1  0  0  0
 34 35  2  0  0  0  0
 35 33  1  0  0  0  0
 36 39  1  0  0  0  0
 36 35  1  0  0  0  0
 37 40  2  0  0  0  0
 37 38  1  0  0  0  0
 39 37  1  0  0  0  0
 41 39  1  0  0  0  0
 42 41  1  0  0  0  0
 43 42  1  0  0  0  0
M  END
>  <MODEL>
1

>  <REMARK>
 VINA RESULT:      -8.1      0.000      0.000
  Name = 
  11 active torsions:
  status: ('A' for Active; 'I' for Inactive)
    1  A    between atoms: C_1  and  C_38
    2  A    between atoms: C_4  and  C_33
    3  A    between atoms: C_5  and  C_35
    4  A    between atoms: C_5  and  C_38
    5  A    between atoms: C_9  and  C_30
    6  A    between atoms: N_20  and  C_37
    7  A    between atoms: C_22  and  C_37
    8  A    between atoms: C_22  and  C_40
    9  A    between atoms: C_24  and  N_27
   10  A    between atoms: C_24  and  C_29
   11  A    between atoms: N_27  and  C_40
                            x       y       z     vdW  Elec       q    Type
                         _______ _______ _______ _____ _____    ______ ____

>  <TORSDO>
F 11

$$$$
=
 OpenBabel10222415203D

 43 46  0  0  1  0  0  0  0  0999 V2000
  191.5200  176.6960  137.3450 C   0  0  2  0  0  3  0  0  0  0  0  0
  191.8470  176.7710  138.8280 C   0  0  0  0  0  2  0  0  0  0  0  0
  190.0710  176.5310  137.2080 N   0  0  0  0  0  0  0  0  0  0  0  0
  190.5600  177.2580  139.4350 C   0  0  1  0  0  3  0  0  0  0  0  0
  189.4980  176.6510  138.5510 C   0  0  0  0  0  2  0  0  0  0  0  0
  194.4900  174.3030  136.7630 C   0  0  2  0  0  0  0  0  0  0  0  0
  194.3000  176.6390  135.7220 C   0  0  0  0  0  1  0  0  0  0  0  0
  193.7830  175.6770  136.7920 C   0  0  1  0  0  3  0  0  0  0  0  0
  194.7010  172.1930  135.6340 C   0  0  0  0  0  2  0  0  0  0  0  0
  191.6880  174.1580  137.0950 C   0  0  0  0  0  2  0  0  0  0  0  0
  193.7430  173.3430  135.8360 C   0  0  2  0  0  0  0  0  0  0  0  0
  193.5240  173.9270  134.5940 F   0  0  0  0  0  0  0  0  0  0  0  0
  194.5560  173.7850  138.2040 C   0  0  0  0  0  1  0  0  0  0  0  0
  192.3880  172.9510  136.4240 C   0  0  0  0  0  2  0  0  0  0  0  0
  196.0830  172.8500  135.6460 C   0  0  2  0  0  3  0  0  0  0  0  0
  192.2450  175.5360  136.6590 C   0  0  1  0  0  3  0  0  0  0  0  0
  196.9370  172.1090  136.4690 O   0  0  0  0  0  1  0  0  0  0  0  0
  195.9120  174.2670  136.2170 C   0  0  0  0  0  2  0  0  0  0  0  0
  190.4080  176.7950  140.8160 C   0  0  0  0  0  0  0  0  0  0  0  0
  190.2660  176.3730  141.9340 C   0  0  0  0  0  0  0  0  0  0  0  0
  190.0820  175.8090  143.2750 C   0  0  0  0  0  2  0  0  0  0  0  0
  191.2260  177.4400  144.5640 O   0  0  0  0  0  0  0  0  0  0  0  0
  190.1220  176.8990  144.2960 C   0  0  0  0  0  0  0  0  0  0  0  0
  188.9000  177.3480  144.9940 C   0  0  0  0  0  0  0  0  0  0  0  0
  187.5990  177.8020  147.0900 C   0  0  0  0  0  0  0  0  0  0  0  0
  186.4280  178.0160  146.2330 C   0  0  0  0  0  0  0  0  0  0  0  0
  186.5470  177.8870  144.9170 C   0  0  0  0  0  3  0  0  0  0  0  0
  187.4810  177.8500  148.3490 O   0  0  0  0  0  0  0  0  0  0  0  0
  185.1020  178.3640  146.8150 C   0  0  0  0  0  1  0  0  0  0  0  0
  187.7970  177.5220  144.3200 N   0  0  0  0  0  0  0  0  0  0  0  0
  188.9550  177.5780  146.4860 C   0  0  0  0  0  2  0  0  0  0  0  0
  189.8570  177.2050  134.9630 O   0  0  0  0  0  1  0  0  0  0  0  0
  189.5360  177.5440  136.2800 C   0  0  1  0  0  3  0  0  0  0  0  0
  187.6770  178.7120  137.1650 O   0  0  0  0  0  0  0  0  0  0  0  0
  188.0540  177.8140  136.4270 C   0  0  0  0  0  0  0  0  0  0  0  0
  187.0330  176.9850  135.7020 C   0  0  0  0  0  2  0  0  0  0  0  0
  186.8650  174.6680  136.6760 C   0  0  0  0  0  0  0  0  0  0  0  0
  188.0190  174.1980  135.8520 C   0  0  0  0  0  1  0  0  0  0  0  0
  186.3950  176.0220  136.5940 N   0  0  0  0  0  0  0  0  0  0  0  0
  186.3030  173.8490  137.4510 O   0  0  0  0  0  0  0  0  0  0  0  0
  185.2730  176.4630  137.4140 C   0  0  0  0  0  2  0  0  0  0  0  0
  184.3130  177.2950  136.5750 C   0  0  0  0  0  2  0  0  0  0  0  0
  182.9300  176.6760  136.6340 C   0  0  0  0  0  1  0  0  0  0  0  0
  1  2  1  1  0  0  0
  2  4  1  0  0  0  0
  3  1  1  0  0  0  0
  3  5  1  0  0  0  0
  4 19  1  1  0  0  0
  5  4  1  0  0  0  0
  6  8  1  0  0  0  0
  6 13  1  1  0  0  0
  8  7  1  6  0  0  0
  9 15  1  0  0  0  0
  9 11  1  0  0  0  0
 11 12  1  6  0  0  0
 11 14  1  0  0  0  0
 11  6  1  0  0  0  0
 14 10  1  0  0  0  0
 15 18  1  0  0  0  0
 15 17  1  1  0  0  0
 16  8  1  0  0  0  0
 16 10  1  1  0  0  0
 16  1  1  0  0  0  0
 18  6  1  0  0  0  0
 19 20  3  0  0  0  0
 20 21  1  0  0  0  0
 21 23  1  0  0  0  0
 23 22  2  0  0  0  0
 23 24  1  0  0  0  0
 24 31  1  0  0  0  0
 25 28  2  0  0  0  0
 26 29  1  0  0  0  0
 26 25  1  0  0  0  0
 27 26  2  0  0  0  0
 30 27  1  0  0  0  0
 30 24  2  0  0  0  0
 31 25  1  0  0  0  0
 33 32  1  6  0  0  0
 33 35  1  0  0  0  0
 33  3  1  0  0  0  0
 35 34  2  0  0  0  0
 36 35  1  0  0  0  0
 36 39  1  0  0  0  0
 37 40  2  0  0  0  0
 38 37  1  0  0  0  0
 39 37  1  0  0  0  0
 39 41  1  0  0  0  0
 42 43  1  0  0  0  0
 42 41  1  0  0  0  0
M  END
>  <MODEL>
2

>  <REMARK>
 VINA RESULT:      -7.8      3.262      7.982
  Name = 
  11 active torsions:
  status: ('A' for Active; 'I' for Inactive)
    1  A    between atoms: C_1  and  C_38
    2  A    between atoms: C_4  and  C_33
    3  A    between atoms: C_5  and  C_35
    4  A    between atoms: C_5  and  C_38
    5  A    between atoms: C_9  and  C_30
    6  A    between atoms: N_20  and  C_37
    7  A    between atoms: C_22  and  C_37
    8  A    between atoms: C_22  and  C_40
    9  A    between atoms: C_24  and  N_27
   10  A    between atoms: C_24  and  C_29
   11  A    between atoms: N_27  and  C_40
                            x       y       z     vdW  Elec       q    Type
                         _______ _______ _______ _____ _____    ______ ____

>  <TORSDO>
F 11

$$$$
=
 OpenBabel10222415203D

 43 46  0  0  1  0  0  0  0  0999 V2000
  191.8830  176.0260  136.5970 C   0  0  2  0  0  3  0  0  0  0  0  0
  192.2260  176.7920  137.8640 C   0  0  0  0  0  2  0  0  0  0  0  0
  190.6080  175.3380  136.8140 N   0  0  0  0  0  0  0  0  0  0  0  0
  190.8820  177.0120  138.5020 C   0  0  1  0  0  3  0  0  0  0  0  0
  190.0980  175.7810  138.1150 C   0  0  0  0  0  2  0  0  0  0  0  0
  195.3750  174.4110  136.8800 C   0  0  2  0  0  0  0  0  0  0  0  0
  194.8550  176.4690  135.4430 C   0  0  0  0  0  1  0  0  0  0  0  0
  194.3800  175.5520  136.5700 C   0  0  1  0  0  3  0  0  0  0  0  0
  196.2690  172.2980  136.1690 C   0  0  0  0  0  2  0  0  0  0  0  0
  192.6680  173.6020  136.8080 C   0  0  0  0  0  2  0  0  0  0  0  0
  195.0540  173.1820  136.0270 C   0  0  2  0  0  0  0  0  0  0  0  0
  194.9430  173.5290  134.6860 F   0  0  0  0  0  0  0  0  0  0  0  0
  195.2870  174.1140  138.3810 C   0  0  0  0  0  1  0  0  0  0  0  0
  193.7380  172.5370  136.4630 C   0  0  0  0  0  2  0  0  0  0  0  0
  197.4380  173.2800  136.2760 C   0  0  2  0  0  3  0  0  0  0  0  0
  192.9680  175.0090  136.2330 C   0  0  1  0  0  3  0  0  0  0  0  0
  198.2690  172.8910  137.3310 O   0  0  0  0  0  1  0  0  0  0  0  0
  196.8440  174.6680  136.5670 C   0  0  0  0  0  2  0  0  0  0  0  0
  190.9890  177.1180  139.9580 C   0  0  0  0  0  0  0  0  0  0  0  0
  191.1080  177.2410  141.1490 C   0  0  0  0  0  0  0  0  0  0  0  0
  191.2810  177.4400  142.5920 C   0  0  0  0  0  2  0  0  0  0  0  0
  190.2910  175.3010  142.8680 O   0  0  0  0  0  0  0  0  0  0  0  0
  190.4460  176.4550  143.3450 C   0  0  0  0  0  0  0  0  0  0  0  0
  189.8020  176.8090  144.6260 C   0  0  0  0  0  0  0  0  0  0  0  0
  187.8650  177.6970  145.9490 C   0  0  0  0  0  0  0  0  0  0  0  0
  188.7430  177.6640  147.1240 C   0  0  0  0  0  0  0  0  0  0  0  0
  189.9970  177.2480  146.9940 C   0  0  0  0  0  3  0  0  0  0  0  0
  186.6920  178.1610  146.0480 O   0  0  0  0  0  0  0  0  0  0  0  0
  188.2550  178.1020  148.4620 C   0  0  0  0  0  1  0  0  0  0  0  0
  190.5140  176.8500  145.7190 N   0  0  0  0  0  0  0  0  0  0  0  0
  188.3280  177.1350  144.6370 C   0  0  0  0  0  2  0  0  0  0  0  0
  190.3850  176.0850  134.5940 O   0  0  0  0  0  1  0  0  0  0  0  0
  189.6760  175.6470  135.7140 C   0  0  1  0  0  3  0  0  0  0  0  0
  189.1620  173.3870  135.2340 O   0  0  0  0  0  0  0  0  0  0  0  0
  188.7290  174.5230  135.3550 C   0  0  0  0  0  0  0  0  0  0  0  0
  187.2670  174.7780  135.1210 C   0  0  0  0  0  2  0  0  0  0  0  0
  185.8710  173.4910  136.7760 C   0  0  0  0  0  0  0  0  0  0  0  0
  185.9610  172.2530  135.9450 C   0  0  0  0  0  1  0  0  0  0  0  0
  186.5070  174.7110  136.3650 N   0  0  0  0  0  0  0  0  0  0  0  0
  185.2170  173.4500  137.8530 O   0  0  0  0  0  0  0  0  0  0  0  0
  186.4140  175.9060  137.1960 C   0  0  0  0  0  2  0  0  0  0  0  0
  186.1210  177.1210  136.3250 C   0  0  0  0  0  2  0  0  0  0  0  0
  187.1770  178.1800  136.5720 C   0  0  0  0  0  1  0  0  0  0  0  0
  1  3  1  0  0  0  0
  1  2  1  1  0  0  0
  2  4  1  0  0  0  0
  3  5  1  0  0  0  0
  4 19  1  1  0  0  0
  5  4  1  0  0  0  0
  6 13  1  1  0  0  0
  8  7  1  6  0  0  0
  8  6  1  0  0  0  0
  9 15  1  0  0  0  0
 11 12  1  6  0  0  0
 11  9  1  0  0  0  0
 11 14  1  0  0  0  0
 11  6  1  0  0  0  0
 14 10  1  0  0  0  0
 15 18  1  0  0  0  0
 15 17  1  1  0  0  0
 16  8  1  0  0  0  0
 16  1  1  0  0  0  0
 16 10  1  1  0  0  0
 18  6  1  0  0  0  0
 19 20  3  0  0  0  0
 20 21  1  0  0  0  0
 21 23  1  0  0  0  0
 22 23  2  0  0  0  0
 23 24  1  0  0  0  0
 24 31  1  0  0  0  0
 24 30  2  0  0  0  0
 25 28  2  0  0  0  0
 25 26  1  0  0  0  0
 26 29  1  0  0  0  0
 27 26  2  0  0  0  0
 30 27  1  0  0  0  0
 31 25  1  0  0  0  0
 33 32  1  6  0  0  0
 33  3  1  0  0  0  0
 34 35  2  0  0  0  0
 35 33  1  0  0  0  0
 36 35  1  0  0  0  0
 36 39  1  0  0  0  0
 37 40  2  0  0  0  0
 38 37  1  0  0  0  0
 39 37  1  0  0  0  0
 39 41  1  0  0  0  0
 42 43  1  0  0  0  0
 42 41  1  0  0  0  0
M  END
>  <MODEL>
3

>  <REMARK>
 VINA RESULT:      -7.7      3.670      8.119
  Name = 
  11 active torsions:
  status: ('A' for Active; 'I' for Inactive)
    1  A    between atoms: C_1  and  C_38
    2  A    between atoms: C_4  and  C_33
    3  A    between atoms: C_5  and  C_35
    4  A    between atoms: C_5  and  C_38
    5  A    between atoms: C_9  and  C_30
    6  A    between atoms: N_20  and  C_37
    7  A    between atoms: C_22  and  C_37
    8  A    between atoms: C_22  and  C_40
    9  A    between atoms: C_24  and  N_27
   10  A    between atoms: C_24  and  C_29
   11  A    between atoms: N_27  and  C_40
                            x       y       z     vdW  Elec       q    Type
                         _______ _______ _______ _____ _____    ______ ____

>  <TORSDO>
F 11

$$$$
=
 OpenBabel10222415203D

 43 46  0  0  1  0  0  0  0  0999 V2000
  192.1730  175.8860  136.6580 C   0  0  2  0  0  3  0  0  0  0  0  0
  192.5370  176.7350  137.8650 C   0  0  0  0  0  2  0  0  0  0  0  0
  190.9250  175.1810  136.9600 N   0  0  0  0  0  0  0  0  0  0  0  0
  191.2100  176.9600  138.5350 C   0  0  1  0  0  3  0  0  0  0  0  0
  190.4460  175.6890  138.2480 C   0  0  0  0  0  2  0  0  0  0  0  0
  195.7100  174.3690  136.9250 C   0  0  2  0  0  0  0  0  0  0  0  0
  195.1010  176.3350  135.3960 C   0  0  0  0  0  1  0  0  0  0  0  0
  194.6790  175.4690  136.5840 C   0  0  1  0  0  3  0  0  0  0  0  0
  196.6350  172.2420  136.3020 C   0  0  0  0  0  2  0  0  0  0  0  0
  193.0230  173.4960  136.9750 C   0  0  0  0  0  2  0  0  0  0  0  0
  195.3950  173.0890  136.1490 C   0  0  2  0  0  0  0  0  0  0  0  0
  195.2390  173.3600  134.7950 F   0  0  0  0  0  0  0  0  0  0  0  0
  195.6710  174.1510  138.4420 C   0  0  0  0  0  1  0  0  0  0  0  0
  194.1080  172.4380  136.6570 C   0  0  0  0  0  2  0  0  0  0  0  0
  197.7820  173.2540  136.3230 C   0  0  2  0  0  3  0  0  0  0  0  0
  193.2720  174.8770  136.3180 C   0  0  1  0  0  3  0  0  0  0  0  0
  198.6520  172.9420  137.3730 O   0  0  0  0  0  1  0  0  0  0  0  0
  197.1630  174.6420  136.5570 C   0  0  0  0  0  2  0  0  0  0  0  0
  191.3620  177.1550  139.9780 C   0  0  0  0  0  0  0  0  0  0  0  0
  191.4760  177.2690  141.1710 C   0  0  0  0  0  0  0  0  0  0  0  0
  191.6130  177.3520  142.6280 C   0  0  0  0  0  2  0  0  0  0  0  0
  190.3660  175.3360  142.7350 O   0  0  0  0  0  0  0  0  0  0  0  0
  190.6330  176.4360  143.2860 C   0  0  0  0  0  0  0  0  0  0  0  0
  189.9730  176.7950  144.5580 C   0  0  0  0  0  0  0  0  0  0  0  0
  188.0510  177.7570  145.8500 C   0  0  0  0  0  0  0  0  0  0  0  0
  188.8930  177.6500  147.0470 C   0  0  0  0  0  0  0  0  0  0  0  0
  190.1260  177.1700  146.9390 C   0  0  0  0  0  3  0  0  0  0  0  0
  186.9020  178.2810  145.9290 O   0  0  0  0  0  0  0  0  0  0  0  0
  188.3930  178.0830  148.3810 C   0  0  0  0  0  1  0  0  0  0  0  0
  190.6560  176.7730  145.6700 N   0  0  0  0  0  0  0  0  0  0  0  0
  188.5190  177.2000  144.5370 C   0  0  0  0  0  2  0  0  0  0  0  0
  189.3960  174.1850  135.4730 O   0  0  0  0  0  1  0  0  0  0  0  0
  189.9490  175.4020  135.8760 C   0  0  1  0  0  3  0  0  0  0  0  0
  188.9940  177.5670  135.8150 O   0  0  0  0  0  0  0  0  0  0  0  0
  188.8690  176.4130  136.1950 C   0  0  0  0  0  0  0  0  0  0  0  0
  187.6540  176.0320  136.9920 C   0  0  0  0  0  2  0  0  0  0  0  0
  186.7000  178.0690  138.1250 C   0  0  0  0  0  0  0  0  0  0  0  0
  187.7010  177.9690  139.2290 C   0  0  0  0  0  1  0  0  0  0  0  0
  186.6860  177.1220  137.0450 N   0  0  0  0  0  0  0  0  0  0  0  0
  185.8570  179.0050  138.1560 O   0  0  0  0  0  0  0  0  0  0  0  0
  185.7060  177.2440  135.9720 C   0  0  0  0  0  2  0  0  0  0  0  0
  184.5250  176.3220  136.2420 C   0  0  0  0  0  2  0  0  0  0  0  0
  183.3040  177.1560  136.5740 C   0  0  0  0  0  1  0  0  0  0  0  0
  1  3  1  0  0  0  0
  1  2  1  1  0  0  0
  2  4  1  0  0  0  0
  3  5  1  0  0  0  0
  4 19  1  1  0  0  0
  5  4  1  0  0  0  0
  6 13  1  1  0  0  0
  8  7  1  6  0  0  0
  8  6  1  0  0  0  0
  9 15  1  0  0  0  0
 11 12  1  6  0  0  0
 11  9  1  0  0  0  0
 11 14  1  0  0  0  0
 11  6  1  0  0  0  0
 14 10  1  0  0  0  0
 15 18  1  0  0  0  0
 15 17  1  1  0  0  0
 16  8  1  0  0  0  0
 16  1  1  0  0  0  0
 16 10  1  1  0  0  0
 18  6  1  0  0  0  0
 19 20  3  0  0  0  0
 20 21  1  0  0  0  0
 21 23  1  0  0  0  0
 22 23  2  0  0  0  0
 23 24  1  0  0  0  0
 24 30  2  0  0  0  0
 25 28  2  0  0  0  0
 25 26  1  0  0  0  0
 26 29  1  0  0  0  0
 27 26  2  0  0  0  0
 30 27  1  0  0  0  0
 31 24  1  0  0  0  0
 31 25  1  0  0  0  0
 33 32  1  1  0  0  0
 33 35  1  0  0  0  0
 33  3  1  0  0  0  0
 34 35  2  0  0  0  0
 35 36  1  0  0  0  0
 36 39  1  0  0  0  0
 37 40  2  0  0  0  0
 37 38  1  0  0  0  0
 39 37  1  0  0  0  0
 41 42  1  0  0  0  0
 41 39  1  0  0  0  0
 42 43  1  0  0  0  0
M  END
>  <MODEL>
4

>  <REMARK>
 VINA RESULT:      -7.7      3.277      8.344
  Name = 
  11 active torsions:
  status: ('A' for Active; 'I' for Inactive)
    1  A    between atoms: C_1  and  C_38
    2  A    between atoms: C_4  and  C_33
    3  A    between atoms: C_5  and  C_35
    4  A    between atoms: C_5  and  C_38
    5  A    between atoms: C_9  and  C_30
    6  A    between atoms: N_20  and  C_37
    7  A    between atoms: C_22  and  C_37
    8  A    between atoms: C_22  and  C_40
    9  A    between atoms: C_24  and  N_27
   10  A    between atoms: C_24  and  C_29
   11  A    between atoms: N_27  and  C_40
                            x       y       z     vdW  Elec       q    Type
                         _______ _______ _______ _____ _____    ______ ____

>  <TORSDO>
F 11

$$$$
=
 OpenBabel10222415203D

 43 46  0  0  1  0  0  0  0  0999 V2000
  189.0430  176.9820  141.7160 C   0  0  2  0  0  3  0  0  0  0  0  0
  187.6680  176.7930  142.3360 C   0  0  0  0  0  2  0  0  0  0  0  0
  189.8000  177.9050  142.5650 N   0  0  0  0  0  0  0  0  0  0  0  0
  187.9050  177.1050  143.7880 C   0  0  1  0  0  3  0  0  0  0  0  0
  188.9830  178.1620  143.7540 C   0  0  0  0  0  2  0  0  0  0  0  0
  188.9880  176.7050  137.8680 C   0  0  2  0  0  0  0  0  0  0  0  0
  191.1310  176.8030  139.2720 C   0  0  0  0  0  1  0  0  0  0  0  0
  189.6190  176.5770  139.2730 C   0  0  1  0  0  3  0  0  0  0  0  0
  188.2920  178.2030  136.1240 C   0  0  0  0  0  2  0  0  0  0  0  0
  187.5140  177.9690  139.9210 C   0  0  0  0  0  2  0  0  0  0  0  0
  188.5620  178.1510  137.6090 C   0  0  2  0  0  0  0  0  0  0  0  0
  189.6060  179.0280  137.8750 F   0  0  0  0  0  0  0  0  0  0  0  0
  187.8070  175.7310  137.8000 C   0  0  0  0  0  1  0  0  0  0  0  0
  187.3740  178.5420  138.4890 C   0  0  0  0  0  2  0  0  0  0  0  0
  189.3180  177.2400  135.5220 C   0  0  2  0  0  3  0  0  0  0  0  0
  188.9550  177.5380  140.2920 C   0  0  1  0  0  3  0  0  0  0  0  0
  188.6800  176.4090  134.5960 O   0  0  0  0  0  1  0  0  0  0  0  0
  189.8840  176.3950  136.6750 C   0  0  0  0  0  2  0  0  0  0  0  0
  186.6960  177.6230  144.4310 C   0  0  0  0  0  0  0  0  0  0  0  0
  185.6910  178.0710  144.9180 C   0  0  0  0  0  0  0  0  0  0  0  0
  184.4490  178.6320  145.4600 C   0  0  0  0  0  2  0  0  0  0  0  0
  184.1800  180.7000  144.3290 O   0  0  0  0  0  0  0  0  0  0  0  0
  183.7970  179.5070  144.4390 C   0  0  0  0  0  0  0  0  0  0  0  0
  182.7170  179.0020  143.5670 C   0  0  0  0  0  0  0  0  0  0  0  0
  181.8230  178.3580  141.3130 C   0  0  0  0  0  0  0  0  0  0  0  0
  180.5060  178.2370  141.9480 C   0  0  0  0  0  0  0  0  0  0  0  0
  180.3790  178.4910  143.2450 C   0  0  0  0  0  3  0  0  0  0  0  0
  181.9430  178.1900  140.0650 O   0  0  0  0  0  0  0  0  0  0  0  0
  179.3060  177.8440  141.1600 C   0  0  0  0  0  1  0  0  0  0  0  0
  181.5020  178.9030  144.0320 N   0  0  0  0  0  0  0  0  0  0  0  0
  183.0460  178.6290  142.1410 C   0  0  0  0  0  2  0  0  0  0  0  0
  192.1060  177.8590  142.0910 O   0  0  0  0  0  1  0  0  0  0  0  0
  191.1090  177.3150  142.9040 C   0  0  1  0  0  3  0  0  0  0  0  0
  192.1950  178.3320  144.7450 O   0  0  0  0  0  0  0  0  0  0  0  0
  191.4850  177.4140  144.3670 C   0  0  0  0  0  0  0  0  0  0  0  0
  191.0190  176.3900  145.3630 C   0  0  0  0  0  2  0  0  0  0  0  0
  191.9210  176.5800  147.7080 C   0  0  0  0  0  0  0  0  0  0  0  0
  193.0210  175.6170  147.4020 C   0  0  0  0  0  1  0  0  0  0  0  0
  190.9550  176.9460  146.7110 N   0  0  0  0  0  0  0  0  0  0  0  0
  191.8510  177.0690  148.8670 O   0  0  0  0  0  0  0  0  0  0  0  0
  189.8940  177.8960  147.0280 C   0  0  0  0  0  2  0  0  0  0  0  0
  188.6570  177.1500  147.5100 C   0  0  0  0  0  2  0  0  0  0  0  0
  187.8870  178.0290  148.4750 C   0  0  0  0  0  1  0  0  0  0  0  0
  1  2  1  1  0  0  0
  1  3  1  0  0  0  0
  2  4  1  0  0  0  0
  3 33  1  0  0  0  0
  3  5  1  0  0  0  0
  4 19  1  6  0  0  0
  5  4  1  0  0  0  0
  6 13  1  6  0  0  0
  6  8  1  0  0  0  0
  8  7  1  6  0  0  0
  8 16  1  0  0  0  0
  9 11  1  0  0  0  0
 11  6  1  0  0  0  0
 11 12  1  1  0  0  0
 11 14  1  0  0  0  0
 14 10  1  0  0  0  0
 15 17  1  6  0  0  0
 15  9  1  0  0  0  0
 15 18  1  0  0  0  0
 16 10  1  6  0  0  0
 16  1  1  0  0  0  0
 18  6  1  0  0  0  0
 19 20  3  0  0  0  0
 20 21  1  0  0  0  0
 22 23  2  0  0  0  0
 23 21  1  0  0  0  0
 24 30  2  0  0  0  0
 24 23  1  0  0  0  0
 25 26  1  0  0  0  0
 25 31  1  0  0  0  0
 26 27  2  0  0  0  0
 27 30  1  0  0  0  0
 28 25  2  0  0  0  0
 29 26  1  0  0  0  0
 31 24  1  0  0  0  0
 33 32  1  6  0  0  0
 33 35  1  0  0  0  0
 35 34  2  0  0  0  0
 35 36  1  0  0  0  0
 36 39  1  0  0  0  0
 37 40  2  0  0  0  0
 38 37  1  0  0  0  0
 39 41  1  0  0  0  0
 39 37  1  0  0  0  0
 41 42  1  0  0  0  0
 42 43  1  0  0  0  0
M  END
>  <MODEL>
5

>  <REMARK>
 VINA RESULT:      -7.5      3.380      7.472
  Name = 
  11 active torsions:
  status: ('A' for Active; 'I' for Inactive)
    1  A    between atoms: C_1  and  C_38
    2  A    between atoms: C_4  and  C_33
    3  A    between atoms: C_5  and  C_35
    4  A    between atoms: C_5  and  C_38
    5  A    between atoms: C_9  and  C_30
    6  A    between atoms: N_20  and  C_37
    7  A    between atoms: C_22  and  C_37
    8  A    between atoms: C_22  and  C_40
    9  A    between atoms: C_24  and  N_27
   10  A    between atoms: C_24  and  C_29
   11  A    between atoms: N_27  and  C_40
                            x       y       z     vdW  Elec       q    Type
                         _______ _______ _______ _____ _____    ______ ____

>  <TORSDO>
F 11

$$$$
=
 OpenBabel10222415203D

 43 46  0  0  1  0  0  0  0  0999 V2000
  189.3570  176.7580  139.4300 C   0  0  2  0  0  3  0  0  0  0  0  0
  190.4040  175.9270  138.7070 C   0  0  0  0  0  2  0  0  0  0  0  0
  188.9510  177.8490  138.5400 N   0  0  0  0  0  0  0  0  0  0  0  0
  190.1070  176.1930  137.2570 C   0  0  1  0  0  3  0  0  0  0  0  0
  189.6080  177.6180  137.2510 C   0  0  0  0  0  2  0  0  0  0  0  0
  189.9800  176.7350  143.2370 C   0  0  2  0  0  0  0  0  0  0  0  0
  187.8120  177.5530  142.1400 C   0  0  0  0  0  1  0  0  0  0  0  0
  189.1100  176.7660  141.9600 C   0  0  1  0  0  3  0  0  0  0  0  0
  191.4710  177.9650  144.6640 C   0  0  0  0  0  2  0  0  0  0  0  0
  191.4310  177.2010  140.8580 C   0  0  0  0  0  2  0  0  0  0  0  0
  190.9460  177.9220  143.2490 C   0  0  2  0  0  0  0  0  0  0  0  0
  190.2670  179.1120  143.0200 F   0  0  0  0  0  0  0  0  0  0  0  0
  190.7140  175.3900  143.2660 C   0  0  0  0  0  1  0  0  0  0  0  0
  192.0200  177.7700  142.1720 C   0  0  0  0  0  2  0  0  0  0  0  0
  190.2860  177.5100  145.5180 C   0  0  2  0  0  3  0  0  0  0  0  0
  189.8910  177.3300  140.7460 C   0  0  1  0  0  3  0  0  0  0  0  0
  190.7260  176.5610  146.4470 O   0  0  0  0  0  1  0  0  0  0  0  0
  189.2570  176.8710  144.5710 C   0  0  0  0  0  2  0  0  0  0  0  0
  191.3080  176.0640  136.4290 C   0  0  0  0  0  0  0  0  0  0  0  0
  192.3010  175.9130  135.7670 C   0  0  0  0  0  0  0  0  0  0  0  0
  193.5100  175.6750  134.9710 C   0  0  0  0  0  2  0  0  0  0  0  0
  194.7900  177.3330  136.0860 O   0  0  0  0  0  0  0  0  0  0  0  0
  194.7160  176.1290  135.7270 C   0  0  0  0  0  0  0  0  0  0  0  0
  195.8160  175.2000  136.0570 C   0  0  0  0  0  0  0  0  0  0  0  0
  196.6600  172.9600  136.8040 C   0  0  0  0  0  0  0  0  0  0  0  0
  197.9940  173.5670  136.8820 C   0  0  0  0  0  0  0  0  0  0  0  0
  198.1490  174.8490  136.5760 C   0  0  0  0  0  3  0  0  0  0  0  0
  196.4880  171.7580  137.1640 O   0  0  0  0  0  0  0  0  0  0  0  0
  199.1770  172.7700  137.3100 C   0  0  0  0  0  1  0  0  0  0  0  0
  197.0310  175.6570  136.1910 N   0  0  0  0  0  0  0  0  0  0  0  0
  195.5010  173.7360  136.2500 C   0  0  0  0  0  2  0  0  0  0  0  0
  186.9290  178.6300  139.4590 O   0  0  0  0  0  1  0  0  0  0  0  0
  187.4810  177.8780  138.4200 C   0  0  1  0  0  3  0  0  0  0  0  0
  187.0800  179.5210  136.7640 O   0  0  0  0  0  0  0  0  0  0  0  0
  186.9670  178.3450  137.0750 C   0  0  0  0  0  0  0  0  0  0  0  0
  186.2990  177.3960  136.1220 C   0  0  0  0  0  2  0  0  0  0  0  0
  185.4600  175.1950  137.0150 C   0  0  0  0  0  0  0  0  0  0  0  0
  186.7050  174.4990  136.5730 C   0  0  0  0  0  1  0  0  0  0  0  0
  185.2730  176.6010  136.7900 N   0  0  0  0  0  0  0  0  0  0  0  0
  184.5640  174.5240  137.5930 O   0  0  0  0  0  0  0  0  0  0  0  0
  184.0540  177.2640  137.2380 C   0  0  0  0  0  2  0  0  0  0  0  0
  183.0590  177.3510  136.0880 C   0  0  0  0  0  2  0  0  0  0  0  0
  181.6770  177.6320  136.6430 C   0  0  0  0  0  1  0  0  0  0  0  0
  1  2  1  6  0  0  0
  1 16  1  0  0  0  0
  3  1  1  0  0  0  0
  4 19  1  6  0  0  0
  4  2  1  0  0  0  0
  5  4  1  0  0  0  0
  5  3  1  0  0  0  0
  6 11  1  0  0  0  0
  6 13  1  1  0  0  0
  6 18  1  0  0  0  0
  8  7  1  1  0  0  0
  8  6  1  0  0  0  0
  9 15  1  0  0  0  0
 10 14  1  0  0  0  0
 11 12  1  6  0  0  0
 11  9  1  0  0  0  0
 14 11  1  0  0  0  0
 15 17  1  1  0  0  0
 16 10  1  1  0  0  0
 16  8  1  0  0  0  0
 18 15  1  0  0  0  0
 20 19  3  0  0  0  0
 21 23  1  0  0  0  0
 21 20  1  0  0  0  0
 23 24  1  0  0  0  0
 23 22  2  0  0  0  0
 24 30  2  0  0  0  0
 24 31  1  0  0  0  0
 25 26  1  0  0  0  0
 25 28  2  0  0  0  0
 26 29  1  0  0  0  0
 27 26  2  0  0  0  0
 30 27  1  0  0  0  0
 31 25  1  0  0  0  0
 33  3  1  0  0  0  0
 33 32  1  1  0  0  0
 34 35  2  0  0  0  0
 35 33  1  0  0  0  0
 36 39  1  0  0  0  0
 36 35  1  0  0  0  0
 37 40  2  0  0  0  0
 38 37  1  0  0  0  0
 39 37  1  0  0  0  0
 39 41  1  0  0  0  0
 42 43  1  0  0  0  0
 42 41  1  0  0  0  0
M  END
>  <MODEL>
6

>  <REMARK>
 VINA RESULT:      -7.4      2.894      9.163
  Name = 
  11 active torsions:
  status: ('A' for Active; 'I' for Inactive)
    1  A    between atoms: C_1  and  C_38
    2  A    between atoms: C_4  and  C_33
    3  A    between atoms: C_5  and  C_35
    4  A    between atoms: C_5  and  C_38
    5  A    between atoms: C_9  and  C_30
    6  A    between atoms: N_20  and  C_37
    7  A    between atoms: C_22  and  C_37
    8  A    between atoms: C_22  and  C_40
    9  A    between atoms: C_24  and  N_27
   10  A    between atoms: C_24  and  C_29
   11  A    between atoms: N_27  and  C_40
                            x       y       z     vdW  Elec       q    Type
                         _______ _______ _______ _____ _____    ______ ____

>  <TORSDO>
F 11

$$$$
=
 OpenBabel10222415203D

 43 46  0  0  1  0  0  0  0  0999 V2000
  190.1260  177.4360  139.0540 C   0  0  2  0  0  3  0  0  0  0  0  0
  188.9370  178.1940  138.4860 C   0  0  0  0  0  2  0  0  0  0  0  0
  189.8430  176.0030  138.9460 N   0  0  0  0  0  0  0  0  0  0  0  0
  188.3210  177.2000  137.5400 C   0  0  1  0  0  3  0  0  0  0  0  0
  188.5900  175.8680  138.1990 C   0  0  0  0  0  2  0  0  0  0  0  0
  189.5870  177.1790  142.8650 C   0  0  2  0  0  0  0  0  0  0  0  0
  188.1500  178.6180  141.3040 C   0  0  0  0  0  1  0  0  0  0  0  0
  189.1690  177.4840  141.4090 C   0  0  1  0  0  3  0  0  0  0  0  0
  190.8820  177.8920  144.7590 C   0  0  0  0  0  2  0  0  0  0  0  0
  191.7340  177.2240  141.0300 C   0  0  0  0  0  2  0  0  0  0  0  0
  190.8000  178.0260  143.2570 C   0  0  2  0  0  0  0  0  0  0  0  0
  190.5790  179.3670  142.9680 F   0  0  0  0  0  0  0  0  0  0  0  0
  189.8720  175.6770  142.9610 C   0  0  0  0  0  1  0  0  0  0  0  0
  192.0520  177.5750  142.5040 C   0  0  0  0  0  2  0  0  0  0  0  0
  189.4230  177.7980  145.2080 C   0  0  2  0  0  3  0  0  0  0  0  0
  190.3940  177.8060  140.5150 C   0  0  1  0  0  3  0  0  0  0  0  0
  189.2900  176.7500  146.1240 O   0  0  0  0  0  1  0  0  0  0  0  0
  188.5760  177.5060  143.9580 C   0  0  0  0  0  2  0  0  0  0  0  0
  186.8810  177.4200  137.3910 C   0  0  0  0  0  0  0  0  0  0  0  0
  185.6970  177.6150  137.3160 C   0  0  0  0  0  0  0  0  0  0  0  0
  184.2550  177.8800  137.2720 C   0  0  0  0  0  2  0  0  0  0  0  0
  183.3830  175.8420  138.1200 O   0  0  0  0  0  0  0  0  0  0  0  0
  183.5570  177.0720  138.3180 C   0  0  0  0  0  0  0  0  0  0  0  0
  183.0680  177.6870  139.5690 C   0  0  0  0  0  0  0  0  0  0  0  0
  183.4530  178.6140  141.8680 C   0  0  0  0  0  0  0  0  0  0  0  0
  181.9940  178.6580  142.0180 C   0  0  0  0  0  0  0  0  0  0  0  0
  181.2210  178.2420  141.0230 C   0  0  0  0  0  3  0  0  0  0  0  0
  184.2010  178.9380  142.8370 O   0  0  0  0  0  0  0  0  0  0  0  0
  181.3660  179.1510  143.2750 C   0  0  0  0  0  1  0  0  0  0  0  0
  181.7860  177.7310  139.8110 N   0  0  0  0  0  0  0  0  0  0  0  0
  184.0720  178.2360  140.5540 C   0  0  0  0  0  2  0  0  0  0  0  0
  190.5050  174.1910  137.5970 O   0  0  0  0  0  1  0  0  0  0  0  0
  190.9670  175.3180  138.2800 C   0  0  1  0  0  3  0  0  0  0  0  0
  191.2770  176.7170  136.3960 O   0  0  0  0  0  0  0  0  0  0  0  0
  191.7970  176.2030  137.3740 C   0  0  0  0  0  0  0  0  0  0  0  0
  193.2550  176.4440  137.6410 C   0  0  0  0  0  2  0  0  0  0  0  0
  194.7910  175.7750  135.7600 C   0  0  0  0  0  0  0  0  0  0  0  0
  194.6840  177.1300  135.1410 C   0  0  0  0  0  1  0  0  0  0  0  0
  194.0920  175.4530  136.9720 N   0  0  0  0  0  0  0  0  0  0  0  0
  195.5100  174.9070  135.1950 O   0  0  0  0  0  0  0  0  0  0  0  0
  194.2180  174.1270  137.5650 C   0  0  0  0  0  2  0  0  0  0  0  0
  195.0940  174.1970  138.8100 C   0  0  0  0  0  2  0  0  0  0  0  0
  196.5450  174.0260  138.4110 C   0  0  0  0  0  1  0  0  0  0  0  0
  1  2  1  1  0  0  0
  1 16  1  0  0  0  0
  3  1  1  0  0  0  0
  4 19  1  1  0  0  0
  4  5  1  0  0  0  0
  4  2  1  0  0  0  0
  5  3  1  0  0  0  0
  6 13  1  1  0  0  0
  6 11  1  0  0  0  0
  6 18  1  0  0  0  0
  8  7  1  1  0  0  0
  8  6  1  0  0  0  0
  9 15  1  0  0  0  0
 10 14  1  0  0  0  0
 11 12  1  6  0  0  0
 11  9  1  0  0  0  0
 14 11  1  0  0  0  0
 15 17  1  1  0  0  0
 16 10  1  1  0  0  0
 16  8  1  0  0  0  0
 18 15  1  0  0  0  0
 20 19  3  0  0  0  0
 21 20  1  0  0  0  0
 21 23  1  0  0  0  0
 22 23  2  0  0  0  0
 23 24  1  0  0  0  0
 24 30  2  0  0  0  0
 24 31  1  0  0  0  0
 25 26  1  0  0  0  0
 25 28  2  0  0  0  0
 26 29  1  0  0  0  0
 27 26  2  0  0  0  0
 30 27  1  0  0  0  0
 31 25  1  0  0  0  0
 33 32  1  6  0  0  0
 33  3  1  0  0  0  0
 34 35  2  0  0  0  0
 35 36  1  0  0  0  0
 35 33  1  0  0  0  0
 37 39  1  0  0  0  0
 38 37  1  0  0  0  0
 39 41  1  0  0  0  0
 39 36  1  0  0  0  0
 40 37  2  0  0  0  0
 41 42  1  0  0  0  0
 43 42  1  0  0  0  0
M  END
>  <MODEL>
7

>  <REMARK>
 VINA RESULT:      -7.3      2.016      2.746
  Name = 
  11 active torsions:
  status: ('A' for Active; 'I' for Inactive)
    1  A    between atoms: C_1  and  C_38
    2  A    between atoms: C_4  and  C_33
    3  A    between atoms: C_5  and  C_35
    4  A    between atoms: C_5  and  C_38
    5  A    between atoms: C_9  and  C_30
    6  A    between atoms: N_20  and  C_37
    7  A    between atoms: C_22  and  C_37
    8  A    between atoms: C_22  and  C_40
    9  A    between atoms: C_24  and  N_27
   10  A    between atoms: C_24  and  C_29
   11  A    between atoms: N_27  and  C_40
                            x       y       z     vdW  Elec       q    Type
                         _______ _______ _______ _____ _____    ______ ____

>  <TORSDO>
F 11

$$$$
=
 OpenBabel10222415203D

 43 46  0  0  1  0  0  0  0  0999 V2000
  184.4360  177.3900  137.2700 C   0  0  2  0  0  3  0  0  0  0  0  0
  184.7450  178.1970  138.5200 C   0  0  0  0  0  2  0  0  0  0  0  0
  183.4370  176.3770  137.6190 N   0  0  0  0  0  0  0  0  0  0  0  0
  183.4990  178.0310  139.3480 C   0  0  1  0  0  3  0  0  0  0  0  0
  183.0240  176.6400  139.0000 C   0  0  0  0  0  2  0  0  0  0  0  0
  188.2400  176.8960  136.8550 C   0  0  2  0  0  0  0  0  0  0  0  0
  186.8590  178.6060  135.5340 C   0  0  0  0  0  1  0  0  0  0  0  0
  186.9070  177.6710  136.7420 C   0  0  1  0  0  3  0  0  0  0  0  0
  189.5780  175.0950  135.9970 C   0  0  0  0  0  2  0  0  0  0  0  0
  185.9410  175.3250  137.3400 C   0  0  0  0  0  2  0  0  0  0  0  0
  188.1480  175.5710  136.0960 C   0  0  2  0  0  0  0  0  0  0  0  0
  187.6850  175.7750  134.8020 F   0  0  0  0  0  0  0  0  0  0  0  0
  188.5330  176.6920  138.3460 C   0  0  0  0  0  1  0  0  0  0  0  0
  187.1970  174.6000  136.7960 C   0  0  0  0  0  2  0  0  0  0  0  0
  190.3930  176.3820  135.8570 C   0  0  2  0  0  3  0  0  0  0  0  0
  185.6880  176.7150  136.7030 C   0  0  1  0  0  3  0  0  0  0  0  0
  191.4880  176.3290  136.7250 O   0  0  0  0  0  1  0  0  0  0  0  0
  189.4750  177.5510  136.2490 C   0  0  0  0  0  2  0  0  0  0  0  0
  183.7870  178.1340  140.7790 C   0  0  0  0  0  0  0  0  0  0  0  0
  184.0680  178.2350  141.9450 C   0  0  0  0  0  0  0  0  0  0  0  0
  184.4560  178.3860  143.3510 C   0  0  0  0  0  2  0  0  0  0  0  0
  186.6370  178.1330  142.4500 O   0  0  0  0  0  0  0  0  0  0  0  0
  185.9360  178.2280  143.4910 C   0  0  0  0  0  0  0  0  0  0  0  0
  186.5850  178.1770  144.8170 C   0  0  0  0  0  0  0  0  0  0  0  0
  188.4050  177.3890  146.3520 C   0  0  0  0  0  0  0  0  0  0  0  0
  187.6280  177.9640  147.4550 C   0  0  0  0  0  0  0  0  0  0  0  0
  186.4670  178.5550  147.1990 C   0  0  0  0  0  3  0  0  0  0  0  0
  189.4760  176.7580  146.5920 O   0  0  0  0  0  0  0  0  0  0  0  0
  188.1120  177.8840  148.8610 C   0  0  0  0  0  1  0  0  0  0  0  0
  185.9510  178.6240  145.8650 N   0  0  0  0  0  0  0  0  0  0  0  0
  187.9700  177.5870  144.9290 C   0  0  0  0  0  2  0  0  0  0  0  0
  182.2980  177.6740  136.0190 O   0  0  0  0  0  1  0  0  0  0  0  0
  182.3050  176.4420  136.6760 C   0  0  1  0  0  3  0  0  0  0  0  0
  183.2100  175.0560  134.9830 O   0  0  0  0  0  0  0  0  0  0  0  0
  182.2420  175.2970  135.6870 C   0  0  0  0  0  0  0  0  0  0  0  0
  181.0020  174.4620  135.5390 C   0  0  0  0  0  2  0  0  0  0  0  0
  180.3940  173.2610  137.6680 C   0  0  0  0  0  0  0  0  0  0  0  0
  179.6460  174.4520  138.1700 C   0  0  0  0  0  1  0  0  0  0  0  0
  181.0490  173.2780  136.3900 N   0  0  0  0  0  0  0  0  0  0  0  0
  180.4450  172.2300  138.3910 O   0  0  0  0  0  0  0  0  0  0  0  0
  181.7670  172.1000  135.9150 C   0  0  0  0  0  2  0  0  0  0  0  0
  182.8490  171.7140  136.9140 C   0  0  0  0  0  2  0  0  0  0  0  0
  184.2000  172.1480  136.3810 C   0  0  0  0  0  1  0  0  0  0  0  0
  1  3  1  0  0  0  0
  1  2  1  1  0  0  0
  2  4  1  0  0  0  0
  3  5  1  0  0  0  0
  4 19  1  1  0  0  0
  5  4  1  0  0  0  0
  6 13  1  1  0  0  0
  8  7  1  6  0  0  0
  8  6  1  0  0  0  0
  9 11  1  0  0  0  0
 11 12  1  6  0  0  0
 11 14  1  0  0  0  0
 11  6  1  0  0  0  0
 14 10  1  0  0  0  0
 15  9  1  0  0  0  0
 15 18  1  0  0  0  0
 15 17  1  1  0  0  0
 16  8  1  0  0  0  0
 16  1  1  0  0  0  0
 16 10  1  1  0  0  0
 18  6  1  0  0  0  0
 19 20  3  0  0  0  0
 20 21  1  0  0  0  0
 21 23  1  0  0  0  0
 22 23  2  0  0  0  0
 23 24  1  0  0  0  0
 24 31  1  0  0  0  0
 24 30  2  0  0  0  0
 25 28  2  0  0  0  0
 25 26  1  0  0  0  0
 26 29  1  0  0  0  0
 27 26  2  0  0  0  0
 30 27  1  0  0  0  0
 31 25  1  0  0  0  0
 33 32  1  6  0  0  0
 33  3  1  0  0  0  0
 34 35  2  0  0  0  0
 35 33  1  0  0  0  0
 36 35  1  0  0  0  0
 36 39  1  0  0  0  0
 37 38  1  0  0  0  0
 37 40  2  0  0  0  0
 39 37  1  0  0  0  0
 41 39  1  0  0  0  0
 41 42  1  0  0  0  0
 43 42  1  0  0  0  0
M  END
>  <MODEL>
8

>  <REMARK>
 VINA RESULT:      -7.3      4.495      9.035
  Name = 
  11 active torsions:
  status: ('A' for Active; 'I' for Inactive)
    1  A    between atoms: C_1  and  C_38
    2  A    between atoms: C_4  and  C_33
    3  A    between atoms: C_5  and  C_35
    4  A    between atoms: C_5  and  C_38
    5  A    between atoms: C_9  and  C_30
    6  A    between atoms: N_20  and  C_37
    7  A    between atoms: C_22  and  C_37
    8  A    between atoms: C_22  and  C_40
    9  A    between atoms: C_24  and  N_27
   10  A    between atoms: C_24  and  C_29
   11  A    between atoms: N_27  and  C_40
                            x       y       z     vdW  Elec       q    Type
                         _______ _______ _______ _____ _____    ______ ____

>  <TORSDO>
F 11

$$$$
=
 OpenBabel10222415203D

 43 46  0  0  1  0  0  0  0  0999 V2000
  190.4430  177.7110  139.2900 C   0  0  2  0  0  3  0  0  0  0  0  0
  189.0250  177.6620  138.7450 C   0  0  0  0  0  2  0  0  0  0  0  0
  191.0880  176.4300  138.9920 N   0  0  0  0  0  0  0  0  0  0  0  0
  189.1180  176.6360  137.6490 C   0  0  1  0  0  3  0  0  0  0  0  0
  190.1580  175.6660  138.1570 C   0  0  0  0  0  2  0  0  0  0  0  0
  189.1620  177.3180  142.9080 C   0  0  2  0  0  0  0  0  0  0  0  0
  188.2150  179.0020  141.2230 C   0  0  0  0  0  1  0  0  0  0  0  0
  189.0660  177.7480  141.4270 C   0  0  1  0  0  3  0  0  0  0  0  0
  190.1420  177.7650  145.0550 C   0  0  0  0  0  2  0  0  0  0  0  0
  191.6120  177.2000  141.5060 C   0  0  0  0  0  2  0  0  0  0  0  0
  190.3630  177.9880  143.5780 C   0  0  2  0  0  0  0  0  0  0  0  0
  190.3480  179.3600  143.3560 F   0  0  0  0  0  0  0  0  0  0  0  0
  189.2590  175.7880  142.9410 C   0  0  0  0  0  1  0  0  0  0  0  0
  191.6790  177.4310  143.0360 C   0  0  0  0  0  2  0  0  0  0  0  0
  188.6220  177.8250  145.2210 C   0  0  2  0  0  3  0  0  0  0  0  0
  190.4660  177.9670  140.7990 C   0  0  1  0  0  3  0  0  0  0  0  0
  188.2040  176.7530  146.0150 O   0  0  0  0  0  1  0  0  0  0  0  0
  188.0030  177.7050  143.8190 C   0  0  0  0  0  2  0  0  0  0  0  0
  187.8380  175.9570  137.4380 C   0  0  0  0  0  0  0  0  0  0  0  0
  186.7970  175.3970  137.2180 C   0  0  0  0  0  0  0  0  0  0  0  0
  185.5460  174.7020  136.8980 C   0  0  0  0  0  2  0  0  0  0  0  0
  183.8580  175.8090  135.6510 O   0  0  0  0  0  0  0  0  0  0  0  0
  184.4340  175.6910  136.7630 C   0  0  0  0  0  0  0  0  0  0  0  0
  184.0030  176.5280  137.9020 C   0  0  0  0  0  0  0  0  0  0  0  0
  184.2680  178.5260  139.3940 C   0  0  0  0  0  0  0  0  0  0  0  0
  183.2250  177.9420  140.2440 C   0  0  0  0  0  0  0  0  0  0  0  0
  182.6820  176.7780  139.9080 C   0  0  0  0  0  3  0  0  0  0  0  0
  184.8450  179.5970  139.7430 O   0  0  0  0  0  0  0  0  0  0  0  0
  182.7730  178.6270  141.4870 C   0  0  0  0  0  1  0  0  0  0  0  0
  183.1110  176.0720  138.7380 N   0  0  0  0  0  0  0  0  0  0  0  0
  184.6240  177.8920  138.0810 C   0  0  0  0  0  2  0  0  0  0  0  0
  193.4050  176.7480  139.2640 O   0  0  0  0  0  1  0  0  0  0  0  0
  192.3800  176.6630  138.3190 C   0  0  1  0  0  3  0  0  0  0  0  0
  192.6840  176.0060  136.0660 O   0  0  0  0  0  0  0  0  0  0  0  0
  192.7170  175.6610  137.2370 C   0  0  0  0  0  0  0  0  0  0  0  0
  193.0710  174.2400  137.5710 C   0  0  0  0  0  2  0  0  0  0  0  0
  194.4700  172.9200  135.9450 C   0  0  0  0  0  0  0  0  0  0  0  0
  193.2530  172.2810  135.3600 C   0  0  0  0  0  1  0  0  0  0  0  0
  194.3690  173.8670  137.0180 N   0  0  0  0  0  0  0  0  0  0  0  0
  195.5990  172.6090  135.4790 O   0  0  0  0  0  0  0  0  0  0  0  0
  195.5700  174.4870  137.5680 C   0  0  0  0  0  2  0  0  0  0  0  0
  195.9330  173.8270  138.8920 C   0  0  0  0  0  2  0  0  0  0  0  0
  196.4670  174.8780  139.8450 C   0  0  0  0  0  1  0  0  0  0  0  0
  1  2  1  1  0  0  0
  1 16  1  0  0  0  0
  3  1  1  0  0  0  0
  4 19  1  1  0  0  0
  4  5  1  0  0  0  0
  4  2  1  0  0  0  0
  5  3  1  0  0  0  0
  6 13  1  1  0  0  0
  6 11  1  0  0  0  0
  6 18  1  0  0  0  0
  8  7  1  1  0  0  0
  8  6  1  0  0  0  0
  9 15  1  0  0  0  0
 10 14  1  0  0  0  0
 11 12  1  6  0  0  0
 11  9  1  0  0  0  0
 14 11  1  0  0  0  0
 15 17  1  1  0  0  0
 16  8  1  0  0  0  0
 16 10  1  1  0  0  0
 18 15  1  0  0  0  0
 20 19  3  0  0  0  0
 21 20  1  0  0  0  0
 22 23  2  0  0  0  0
 23 21  1  0  0  0  0
 23 24  1  0  0  0  0
 24 31  1  0  0  0  0
 24 30  2  0  0  0  0
 25 28  2  0  0  0  0
 25 26  1  0  0  0  0
 26 29  1  0  0  0  0
 27 26  2  0  0  0  0
 30 27  1  0  0  0  0
 31 25  1  0  0  0  0
 33  3  1  0  0  0  0
 33 32  1  1  0  0  0
 34 35  2  0  0  0  0
 35 36  1  0  0  0  0
 35 33  1  0  0  0  0
 37 39  1  0  0  0  0
 38 37  1  0  0  0  0
 39 41  1  0  0  0  0
 39 36  1  0  0  0  0
 40 37  2  0  0  0  0
 41 42  1  0  0  0  0
 42 43  1  0  0  0  0
M  END
>  <MODEL>
9

>  <REMARK>
 VINA RESULT:      -7.3      2.011      3.135
  Name = 
  11 active torsions:
  status: ('A' for Active; 'I' for Inactive)
    1  A    between atoms: C_1  and  C_38
    2  A    between atoms: C_4  and  C_33
    3  A    between atoms: C_5  and  C_35
    4  A    between atoms: C_5  and  C_38
    5  A    between atoms: C_9  and  C_30
    6  A    between atoms: N_20  and  C_37
    7  A    between atoms: C_22  and  C_37
    8  A    between atoms: C_22  and  C_40
    9  A    between atoms: C_24  and  N_27
   10  A    between atoms: C_24  and  C_29
   11  A    between atoms: N_27  and  C_40
                            x       y       z     vdW  Elec       q    Type
                         _______ _______ _______ _____ _____    ______ ____

>  <TORSDO>
F 11

$$$$
