=
 OpenBabel10222415163D

 65 72  0  0  1  0  0  0  0  0999 V2000
  188.3830  177.6640  138.9270 C   0  0  2  0  0  3  0  0  0  0  0  0
  188.0220  178.6130  137.7900 C   0  0  0  0  0  2  0  0  0  0  0  0
  187.1610  177.9110  136.7550 C   0  0  0  0  0  2  0  0  0  0  0  0
  186.0920  177.0930  137.4530 C   0  0  0  0  0  2  0  0  0  0  0  0
  184.7820  177.4420  136.9220 N   0  0  0  0  0  2  0  0  0  0  0  0
  183.8520  177.6120  138.0310 C   0  0  1  0  0  0  0  0  0  0  0  0
  184.5550  178.0960  139.2230 N   0  0  0  0  0  2  0  0  0  0  0  0
  183.5610  178.9450  138.5390 C   0  0  0  0  0  2  0  0  0  0  0  0
  182.9760  176.4920  138.3690 N   0  0  0  0  0  0  0  0  0  0  0  0
  181.8570  176.2070  137.7700 C   0  0  0  0  0  0  0  0  0  0  0  0
  180.2750  174.9730  139.4050 N   0  0  0  0  0  0  0  0  0  0  0  0
  180.9570  173.9000  137.5820 C   0  0  0  0  0  3  0  0  0  0  0  0
  179.9420  176.0740  140.2920 C   0  0  0  0  0  1  0  0  0  0  0  0
  180.0990  173.1040  138.3300 O   0  0  0  0  0  0  0  0  0  0  0  0
  181.0630  175.0460  138.2240 C   0  0  0  0  0  0  0  0  0  0  0  0
  179.6240  173.7340  139.4680 N   0  0  0  0  0  2  0  0  0  0  0  0
  179.9210  177.3380  136.8640 N   0  0  0  0  0  1  0  0  0  0  0  0
  181.3320  177.0680  136.6570 C   0  0  0  0  0  2  0  0  0  0  0  0
  188.1570  178.3650  140.2590 C   0  0  0  0  0  2  0  0  0  0  0  0
  187.8970  177.3440  141.3560 C   0  0  0  0  0  2  0  0  0  0  0  0
  186.8430  177.2770  143.5650 C   0  0  0  0  0  0  0  0  0  0  0  0
  184.1350  178.7910  143.4170 C   0  0  0  0  0  0  0  0  0  0  0  0
  187.6750  176.2320  143.8310 F   0  0  0  0  0  0  0  0  0  0  0  0
  184.6070  178.0570  144.4190 C   0  0  0  0  0  3  0  0  0  0  0  0
  184.9770  179.4720  142.4270 C   0  0  0  0  0  3  0  0  0  0  0  0
  185.9860  177.7410  144.6180 N   0  0  0  0  0  0  0  0  0  0  0  0
  186.9250  177.8740  142.3660 C   0  0  0  0  0  0  0  0  0  0  0  0
  186.1680  179.0790  141.9810 C   0  0  0  0  0  3  0  0  0  0  0  0
  182.7250  179.0570  143.3820 C   0  0  0  0  0  0  0  0  0  0  0  0
  181.5390  179.2800  143.3570 C   0  0  0  0  0  0  0  0  0  0  0  0
  180.1950  179.5290  143.3320 O   0  0  0  0  0  0  0  0  0  0  0  0
  179.4400  179.3510  142.1430 C   0  0  0  0  0  2  0  0  0  0  0  0
  180.1170  180.0430  140.9720 C   0  0  0  0  0  1  0  0  0  0  0  0
  186.3940  177.4930  145.9910 C   0  0  0  0  0  2  0  0  0  0  0  0
  187.5260  178.4440  146.3660 C   0  0  0  0  0  2  0  0  0  0  0  0
  188.1800  177.2160  148.5880 C   0  0  0  0  0  2  0  0  0  0  0  0
  188.9030  178.5600  148.5610 C   0  0  0  0  0  2  0  0  0  0  0  0
  188.6020  177.8310  147.2700 C   0  0  0  0  0  0  0  0  0  0  0  0
  191.4360  175.8420  146.2910 N   0  0  0  0  0  0  0  0  0  0  0  0
  190.2390  177.4810  145.3900 N   0  0  0  0  0  0  0  0  0  0  0  0
  189.8020  178.4740  144.4160 C   0  0  0  0  0  2  0  0  0  0  0  0
  192.0260  176.5830  143.9380 C   0  0  0  0  0  2  0  0  0  0  0  0
  192.3770  177.6160  141.8640 C   0  0  0  0  0  1  0  0  0  0  0  0
  191.2740  176.6510  145.2290 C   0  0  0  0  0  0  0  0  0  0  0  0
  190.5020  176.1880  147.1720 N   0  0  0  0  0  0  0  0  0  0  0  0
  190.4260  178.1490  143.0510 C   0  0  0  0  0  2  0  0  0  0  0  0
  191.8560  177.8420  143.2000 N   0  0  0  0  0  0  0  0  0  0  0  0
  189.7910  177.1960  146.6240 C   0  0  0  0  0  0  0  0  0  0  0  0
  189.8450  177.2570  138.8330 C   0  0  0  0  0  2  0  0  0  0  0  0
  189.9570  175.8590  138.4500 N   0  0  0  0  0  2  0  0  0  0  0  0
  191.8430  176.3890  135.5840 O   0  0  0  0  0  1  0  0  0  0  0  0
  191.4640  174.0640  135.9650 C   0  0  2  0  0  3  0  0  0  0  0  0
  191.4280  175.4730  136.5500 C   0  0  2  0  0  3  0  0  0  0  0  0
  189.0710  174.7490  136.4880 C   0  0  0  0  0  2  0  0  0  0  0  0
  189.9680  173.1800  136.5020 S   0  0  0  0  0  0  0  0  0  0  0  0
  190.0140  175.8170  136.9980 C   0  0  1  0  0  3  0  0  0  0  0  0
  195.3920  173.3100  138.6890 C   0  0  0  0  0  1  0  0  0  0  0  0
  193.8600  173.9980  136.8460 N   0  0  0  0  0  0  0  0  0  0  0  0
  194.6150  175.2190  137.2630 C   0  0  0  0  0  0  0  0  0  0  0  0
  195.2750  174.0070  137.3440 C   0  0  0  0  0  0  0  0  0  0  0  0
  192.7110  173.3140  136.3500 C   0  0  0  0  0  0  0  0  0  0  0  0
  196.2510  173.6140  136.2470 C   0  0  0  0  0  1  0  0  0  0  0  0
  192.7780  172.0720  136.1540 O   0  0  0  0  0  0  0  0  0  0  0  0
  194.0840  175.7960  138.4180 O   0  0  0  0  0  1  0  0  0  0  0  0
  194.8630  176.0730  136.1860 O   0  0  0  0  0  1  0  0  0  0  0  0
  1  2  1  6  0  0  0
  1 19  1  0  0  0  0
  3  4  1  0  0  0  0
  3  2  1  0  0  0  0
  5  4  1  0  0  0  0
  6  5  1  6  0  0  0
  6  9  1  0  0  0  0
  6  8  1  0  0  0  0
  6  7  1  0  0  0  0
  8  7  1  0  0  0  0
 10 15  1  0  0  0  0
 10  9  2  0  0  0  0
 11 16  1  0  0  0  0
 11 13  1  0  0  0  0
 12 15  2  0  0  0  0
 12 14  1  0  0  0  0
 14 16  1  0  0  0  0
 15 11  1  0  0  0  0
 18 17  1  0  0  0  0
 18 10  1  0  0  0  0
 19 20  1  0  0  0  0
 20 27  1  0  0  0  0
 21 23  1  0  0  0  0
 21 26  1  0  0  0  0
 22 24  2  0  0  0  0
 24 26  1  0  0  0  0
 25 22  1  0  0  0  0
 26 34  1  0  0  0  0
 27 21  2  0  0  0  0
 28 27  1  0  0  0  0
 28 25  2  0  0  0  0
 29 22  1  0  0  0  0
 30 29  3  0  0  0  0
 31 30  1  0  0  0  0
 32 31  1  0  0  0  0
 33 32  1  0  0  0  0
 34 35  1  0  0  0  0
 35 38  1  0  0  0  0
 37 36  1  0  0  0  0
 38 37  1  0  0  0  0
 38 36  1  0  0  0  0
 39 45  1  0  0  0  0
 40 48  1  0  0  0  0
 41 40  1  0  0  0  0
 42 44  1  0  0  0  0
 43 47  1  0  0  0  0
 44 40  1  0  0  0  0
 44 39  2  0  0  0  0
 46 47  1  0  0  0  0
 46 41  1  0  0  0  0
 47 42  1  0  0  0  0
 48 45  2  0  0  0  0
 48 38  1  0  0  0  0
 49  1  1  0  0  0  0
 50 49  1  0  0  0  0
 52 61  1  1  0  0  0
 52 55  1  0  0  0  0
 52 53  1  0  0  0  0
 53 51  1  6  0  0  0
 53 56  1  0  0  0  0
 54 55  1  0  0  0  0
 54 56  1  0  0  0  0
 56 50  1  1  0  0  0
 58 59  1  0  0  0  0
 58 60  1  0  0  0  0
 59 60  1  0  0  0  0
 59 64  1  0  0  0  0
 60 57  1  0  0  0  0
 61 58  1  0  0  0  0
 62 60  1  0  0  0  0
 63 61  2  0  0  0  0
 65 59  1  0  0  0  0
M  END
>  <MODEL>
1

>  <REMARK>
 VINA RESULT:      -7.4      0.000      0.000
  Name = 
  22 active torsions:
  status: ('A' for Active; 'I' for Inactive)
    1  A    between atoms: C_2  and  C_36
    2  A    between atoms: C_8  and  C_9
    3  A    between atoms: C_10  and  O_32
    4  A    between atoms: C_11  and  C_27
    5  A    between atoms: C_11  and  C_48
    6  A    between atoms: C_12  and  C_33
    7  A    between atoms: C_12  and  C_50
    8  A    between atoms: C_14  and  C_43
    9  A    between atoms: C_14  and  C_52
   10  A    between atoms: C_18  and  C_21
   11  A    between atoms: C_18  and  N_54
   12  A    between atoms: N_20  and  C_29
   13  A    between atoms: C_21  and  C_50
   14  A    between atoms: C_21  and  C_52
   15  A    between atoms: C_27  and  C_62
   16  A    between atoms: C_29  and  N_58
   17  A    between atoms: O_32  and  C_40
   18  A    between atoms: C_33  and  N_58
   19  A    between atoms: N_39  and  C_48
   20  A    between atoms: C_42  and  N_54
   21  A    between atoms: C_46  and  C_57
   22  A    between atoms: C_57  and  C_60
                            x       y       z     vdW  Elec       q    Type
                         _______ _______ _______ _____ _____    ______ ____

>  <TORSDO>
F 22

$$$$
=
 OpenBabel10222415163D

 65 72  0  0  1  0  0  0  0  0999 V2000
  187.8090  177.5610  138.8230 C   0  0  2  0  0  3  0  0  0  0  0  0
  186.8470  178.3520  137.9440 C   0  0  0  0  0  2  0  0  0  0  0  0
  186.2040  177.4520  136.9030 C   0  0  0  0  0  2  0  0  0  0  0  0
  184.9710  176.7950  137.4910 C   0  0  0  0  0  2  0  0  0  0  0  0
  183.7950  177.1880  136.7280 N   0  0  0  0  0  2  0  0  0  0  0  0
  182.6870  177.4120  137.6480 C   0  0  1  0  0  0  0  0  0  0  0  0
  181.8280  176.2260  137.7180 N   0  0  0  0  0  2  0  0  0  0  0  0
  182.6100  176.6580  138.8920 C   0  0  0  0  0  2  0  0  0  0  0  0
  181.8840  178.6210  137.4750 N   0  0  0  0  0  0  0  0  0  0  0  0
  181.9500  179.6800  138.2260 C   0  0  0  0  0  0  0  0  0  0  0  0
  179.7510  180.7730  137.4080 N   0  0  0  0  0  0  0  0  0  0  0  0
  181.3740  182.0950  138.1570 C   0  0  0  0  0  3  0  0  0  0  0  0
  178.9460  179.5790  137.2190 C   0  0  0  0  0  1  0  0  0  0  0  0
  180.2630  182.8420  137.7830 O   0  0  0  0  0  0  0  0  0  0  0  0
  181.0680  180.8320  137.9400 C   0  0  0  0  0  0  0  0  0  0  0  0
  179.2110  182.0640  137.3300 N   0  0  0  0  0  2  0  0  0  0  0  0
  184.1910  180.1760  138.9890 N   0  0  0  0  0  1  0  0  0  0  0  0
  182.8720  179.7350  139.4090 C   0  0  0  0  0  2  0  0  0  0  0  0
  187.9700  178.2720  140.1590 C   0  0  0  0  0  2  0  0  0  0  0  0
  187.7790  177.2910  141.3060 C   0  0  0  0  0  2  0  0  0  0  0  0
  186.7760  177.2570  143.5390 C   0  0  0  0  0  0  0  0  0  0  0  0
  184.0690  178.7760  143.4320 C   0  0  0  0  0  0  0  0  0  0  0  0
  187.6120  176.2150  143.8000 F   0  0  0  0  0  0  0  0  0  0  0  0
  184.5620  178.0550  144.4330 C   0  0  0  0  0  3  0  0  0  0  0  0
  184.8880  179.4410  142.4130 C   0  0  0  0  0  3  0  0  0  0  0  0
  185.9450  177.7380  144.6050 N   0  0  0  0  0  0  0  0  0  0  0  0
  186.8320  177.8370  142.3300 C   0  0  0  0  0  0  0  0  0  0  0  0
  186.0680  179.0390  141.9450 C   0  0  0  0  0  3  0  0  0  0  0  0
  182.6580  179.0440  143.4260 C   0  0  0  0  0  0  0  0  0  0  0  0
  181.4740  179.2730  143.4170 C   0  0  0  0  0  0  0  0  0  0  0  0
  180.1320  179.5380  143.4090 O   0  0  0  0  0  0  0  0  0  0  0  0
  179.2410  178.7780  142.6060 C   0  0  0  0  0  2  0  0  0  0  0  0
  179.9510  178.2570  141.3680 C   0  0  0  0  0  1  0  0  0  0  0  0
  186.3830  177.5080  145.9720 C   0  0  0  0  0  2  0  0  0  0  0  0
  187.5430  178.4440  146.2980 C   0  0  0  0  0  2  0  0  0  0  0  0
  188.1860  177.2050  148.5180 C   0  0  0  0  0  2  0  0  0  0  0  0
  188.8930  178.5580  148.5100 C   0  0  0  0  0  2  0  0  0  0  0  0
  188.6160  177.8360  147.2100 C   0  0  0  0  0  0  0  0  0  0  0  0
  191.5120  175.9180  146.2700 N   0  0  0  0  0  0  0  0  0  0  0  0
  190.2420  177.4750  145.3230 N   0  0  0  0  0  0  0  0  0  0  0  0
  189.7560  178.4110  144.3170 C   0  0  0  0  0  2  0  0  0  0  0  0
  192.0440  176.5870  143.8830 C   0  0  0  0  0  2  0  0  0  0  0  0
  192.3300  177.5510  141.7650 C   0  0  0  0  0  1  0  0  0  0  0  0
  191.3050  176.6780  145.1800 C   0  0  0  0  0  0  0  0  0  0  0  0
  190.5750  176.2640  147.1500 N   0  0  0  0  0  0  0  0  0  0  0  0
  190.3750  178.0560  142.9560 C   0  0  0  0  0  2  0  0  0  0  0  0
  191.8180  177.8090  143.0980 N   0  0  0  0  0  0  0  0  0  0  0  0
  189.8210  177.2220  146.5730 C   0  0  0  0  0  0  0  0  0  0  0  0
  189.1730  177.4610  138.1570 C   0  0  0  0  0  2  0  0  0  0  0  0
  189.5270  176.0680  137.9380 N   0  0  0  0  0  2  0  0  0  0  0  0
  191.3620  176.4050  135.0100 O   0  0  0  0  0  1  0  0  0  0  0  0
  191.1600  174.1170  135.6590 C   0  0  2  0  0  3  0  0  0  0  0  0
  191.0200  175.5770  136.0790 C   0  0  2  0  0  3  0  0  0  0  0  0
  188.7230  174.6770  136.1250 C   0  0  0  0  0  2  0  0  0  0  0  0
  189.7360  173.1910  136.3100 S   0  0  0  0  0  0  0  0  0  0  0  0
  189.5850  175.8640  136.5000 C   0  0  1  0  0  3  0  0  0  0  0  0
  195.1960  174.0370  138.3280 C   0  0  0  0  0  1  0  0  0  0  0  0
  193.5770  174.3300  136.4540 N   0  0  0  0  0  0  0  0  0  0  0  0
  194.2660  175.6430  136.6440 C   0  0  0  0  0  0  0  0  0  0  0  0
  195.0010  174.4990  136.8940 C   0  0  0  0  0  0  0  0  0  0  0  0
  192.4600  173.5100  136.1140 C   0  0  0  0  0  0  0  0  0  0  0  0
  195.9710  173.9920  135.8390 C   0  0  0  0  0  1  0  0  0  0  0  0
  192.5990  172.2590  136.1170 O   0  0  0  0  0  0  0  0  0  0  0  0
  193.7300  176.3680  137.7100 O   0  0  0  0  0  1  0  0  0  0  0  0
  194.4330  176.3250  135.4360 O   0  0  0  0  0  1  0  0  0  0  0  0
  1  2  1  6  0  0  0
  1 19  1  0  0  0  0
  3  4  1  0  0  0  0
  3  2  1  0  0  0  0
  5  4  1  0  0  0  0
  6  5  1  6  0  0  0
  6  7  1  0  0  0  0
  6  8  1  0  0  0  0
  7  8  1  0  0  0  0
  9  6  1  0  0  0  0
  9 10  2  0  0  0  0
 10 18  1  0  0  0  0
 11 15  1  0  0  0  0
 13 11  1  0  0  0  0
 14 12  1  0  0  0  0
 15 12  2  0  0  0  0
 15 10  1  0  0  0  0
 16 11  1  0  0  0  0
 16 14  1  0  0  0  0
 17 18  1  0  0  0  0
 19 20  1  0  0  0  0
 20 27  1  0  0  0  0
 21 23  1  0  0  0  0
 21 26  1  0  0  0  0
 22 24  2  0  0  0  0
 24 26  1  0  0  0  0
 25 22  1  0  0  0  0
 26 34  1  0  0  0  0
 27 21  2  0  0  0  0
 28 27  1  0  0  0  0
 28 25  2  0  0  0  0
 29 22  1  0  0  0  0
 30 29  3  0  0  0  0
 31 30  1  0  0  0  0
 32 31  1  0  0  0  0
 33 32  1  0  0  0  0
 34 35  1  0  0  0  0
 35 38  1  0  0  0  0
 37 36  1  0  0  0  0
 38 37  1  0  0  0  0
 38 36  1  0  0  0  0
 39 45  1  0  0  0  0
 40 48  1  0  0  0  0
 41 40  1  0  0  0  0
 42 44  1  0  0  0  0
 43 47  1  0  0  0  0
 44 40  1  0  0  0  0
 44 39  2  0  0  0  0
 46 47  1  0  0  0  0
 46 41  1  0  0  0  0
 47 42  1  0  0  0  0
 48 45  2  0  0  0  0
 48 38  1  0  0  0  0
 49  1  1  0  0  0  0
 50 49  1  0  0  0  0
 52 53  1  0  0  0  0
 52 61  1  1  0  0  0
 52 55  1  0  0  0  0
 53 51  1  6  0  0  0
 53 56  1  0  0  0  0
 54 55  1  0  0  0  0
 54 56  1  0  0  0  0
 56 50  1  1  0  0  0
 58 59  1  0  0  0  0
 58 60  1  0  0  0  0
 59 60  1  0  0  0  0
 59 64  1  0  0  0  0
 60 57  1  0  0  0  0
 61 63  2  0  0  0  0
 61 58  1  0  0  0  0
 62 60  1  0  0  0  0
 65 59  1  0  0  0  0
M  END
>  <MODEL>
2

>  <REMARK>
 VINA RESULT:      -7.1      1.517      2.591
  Name = 
  22 active torsions:
  status: ('A' for Active; 'I' for Inactive)
    1  A    between atoms: C_2  and  C_36
    2  A    between atoms: C_8  and  C_9
    3  A    between atoms: C_10  and  O_32
    4  A    between atoms: C_11  and  C_27
    5  A    between atoms: C_11  and  C_48
    6  A    between atoms: C_12  and  C_33
    7  A    between atoms: C_12  and  C_50
    8  A    between atoms: C_14  and  C_43
    9  A    between atoms: C_14  and  C_52
   10  A    between atoms: C_18  and  C_21
   11  A    between atoms: C_18  and  N_54
   12  A    between atoms: N_20  and  C_29
   13  A    between atoms: C_21  and  C_50
   14  A    between atoms: C_21  and  C_52
   15  A    between atoms: C_27  and  C_62
   16  A    between atoms: C_29  and  N_58
   17  A    between atoms: O_32  and  C_40
   18  A    between atoms: C_33  and  N_58
   19  A    between atoms: N_39  and  C_48
   20  A    between atoms: C_42  and  N_54
   21  A    between atoms: C_46  and  C_57
   22  A    between atoms: C_57  and  C_60
                            x       y       z     vdW  Elec       q    Type
                         _______ _______ _______ _____ _____    ______ ____

>  <TORSDO>
F 22

$$$$
=
 OpenBabel10222415163D

 65 72  0  0  1  0  0  0  0  0999 V2000
  189.7330  176.8370  138.5370 C   0  0  2  0  0  3  0  0  0  0  0  0
  190.5420  176.1910  137.4170 C   0  0  0  0  0  2  0  0  0  0  0  0
  191.3550  175.0220  137.9460 C   0  0  0  0  0  2  0  0  0  0  0  0
  191.4180  173.9310  136.8950 C   0  0  0  0  0  2  0  0  0  0  0  0
  192.2370  174.3750  135.7760 N   0  0  0  0  0  2  0  0  0  0  0  0
  193.2310  173.3510  135.4820 C   0  0  1  0  0  0  0  0  0  0  0  0
  192.8290  172.0630  136.0570 N   0  0  0  0  0  2  0  0  0  0  0  0
  192.8980  172.2460  134.5940 C   0  0  0  0  0  2  0  0  0  0  0  0
  194.6290  173.6410  135.7950 N   0  0  0  0  0  0  0  0  0  0  0  0
  195.1580  174.8290  135.8360 C   0  0  0  0  0  0  0  0  0  0  0  0
  197.2320  174.5790  137.3650 N   0  0  0  0  0  0  0  0  0  0  0  0
  197.5030  175.4880  135.3550 C   0  0  0  0  0  3  0  0  0  0  0  0
  196.6470  173.7870  138.4330 C   0  0  0  0  0  1  0  0  0  0  0  0
  198.7170  175.4090  136.0280 O   0  0  0  0  0  0  0  0  0  0  0  0
  196.5930  174.9760  136.1580 C   0  0  0  0  0  0  0  0  0  0  0  0
  198.6080  174.8280  137.2790 N   0  0  0  0  0  2  0  0  0  0  0  0
  194.2680  176.9130  136.6790 N   0  0  0  0  0  1  0  0  0  0  0  0
  194.3470  176.0510  135.5140 C   0  0  0  0  0  2  0  0  0  0  0  0
  189.0900  178.1160  138.0200 C   0  0  0  0  0  2  0  0  0  0  0  0
  187.6810  178.2610  138.5750 C   0  0  0  0  0  2  0  0  0  0  0  0
  185.3750  177.7430  137.9360 C   0  0  0  0  0  0  0  0  0  0  0  0
  185.3710  175.1090  136.2890 C   0  0  0  0  0  0  0  0  0  0  0  0
  185.0040  178.5900  138.9350 F   0  0  0  0  0  0  0  0  0  0  0  0
  184.3250  175.7820  136.7560 C   0  0  0  0  0  3  0  0  0  0  0  0
  186.6720  175.7150  135.9860 C   0  0  0  0  0  3  0  0  0  0  0  0
  184.3440  177.1630  137.1250 N   0  0  0  0  0  0  0  0  0  0  0  0
  186.6840  177.5600  137.7030 C   0  0  0  0  0  0  0  0  0  0  0  0
  187.2300  176.7620  136.5900 C   0  0  0  0  0  3  0  0  0  0  0  0
  185.1780  173.7350  135.9210 C   0  0  0  0  0  0  0  0  0  0  0  0
  185.0210  172.5800  135.6110 C   0  0  0  0  0  0  0  0  0  0  0  0
  184.8460  171.2700  135.2560 O   0  0  0  0  0  0  0  0  0  0  0  0
  183.5840  170.7970  134.8070 C   0  0  0  0  0  2  0  0  0  0  0  0
  182.6460  170.5820  135.9830 C   0  0  0  0  0  1  0  0  0  0  0  0
  183.0780  177.8700  137.0190 C   0  0  0  0  0  2  0  0  0  0  0  0
  182.1500  177.4250  138.1450 C   0  0  0  0  0  2  0  0  0  0  0  0
  180.0400  178.8930  137.6290 C   0  0  0  0  0  2  0  0  0  0  0  0
  181.2110  179.8310  137.9080 C   0  0  0  0  0  2  0  0  0  0  0  0
  181.1350  178.4840  138.5920 C   0  0  0  0  0  0  0  0  0  0  0  0
  179.5770  178.4150  141.8340 N   0  0  0  0  0  0  0  0  0  0  0  0
  181.6360  178.6910  141.0500 N   0  0  0  0  0  0  0  0  0  0  0  0
  183.0770  178.9140  141.0510 C   0  0  0  0  0  2  0  0  0  0  0  0
  181.4550  178.6890  143.5150 C   0  0  0  0  0  2  0  0  0  0  0  0
  183.3970  179.1170  144.7570 C   0  0  0  0  0  1  0  0  0  0  0  0
  180.8660  178.6400  142.1420 C   0  0  0  0  0  0  0  0  0  0  0  0
  179.5120  178.3550  140.5070 N   0  0  0  0  0  0  0  0  0  0  0  0
  183.6230  178.6720  142.4660 C   0  0  0  0  0  2  0  0  0  0  0  0
  182.7730  179.3370  143.4650 N   0  0  0  0  0  0  0  0  0  0  0  0
  180.7640  178.5420  140.0390 C   0  0  0  0  0  0  0  0  0  0  0  0
  190.6380  177.1850  139.7090 C   0  0  0  0  0  2  0  0  0  0  0  0
  189.8750  177.8430  140.7570 N   0  0  0  0  0  2  0  0  0  0  0  0
  190.8210  179.1090  143.8480 O   0  0  0  0  0  1  0  0  0  0  0  0
  189.2040  177.3680  144.0730 C   0  0  2  0  0  3  0  0  0  0  0  0
  189.8850  178.3620  143.1350 C   0  0  2  0  0  3  0  0  0  0  0  0
  190.5860  176.1390  142.3260 C   0  0  0  0  0  2  0  0  0  0  0  0
  189.0520  175.7750  143.2090 S   0  0  0  0  0  0  0  0  0  0  0  0
  190.5850  177.6190  142.0060 C   0  0  1  0  0  3  0  0  0  0  0  0
  186.3180  179.7160  147.1660 C   0  0  0  0  0  1  0  0  0  0  0  0
  187.5680  177.9350  145.9490 N   0  0  0  0  0  0  0  0  0  0  0  0
  187.8980  177.7850  147.4000 C   0  0  0  0  0  0  0  0  0  0  0  0
  186.6290  178.2310  147.0810 C   0  0  0  0  0  0  0  0  0  0  0  0
  187.8660  177.8580  144.5560 C   0  0  0  0  0  0  0  0  0  0  0  0
  185.4670  177.2520  147.1080 C   0  0  0  0  0  1  0  0  0  0  0  0
  186.9600  178.1270  143.7240 O   0  0  0  0  0  0  0  0  0  0  0  0
  188.8690  178.6990  147.8140 O   0  0  0  0  0  1  0  0  0  0  0  0
  188.0950  176.4490  147.7560 O   0  0  0  0  0  1  0  0  0  0  0  0
  1  2  1  6  0  0  0
  1 49  1  0  0  0  0
  2  3  1  0  0  0  0
  4  3  1  0  0  0  0
  5  4  1  0  0  0  0
  6  5  1  1  0  0  0
  6  9  1  0  0  0  0
  6  7  1  0  0  0  0
  8  6  1  0  0  0  0
  8  7  1  0  0  0  0
  9 10  2  0  0  0  0
 10 15  1  0  0  0  0
 11 13  1  0  0  0  0
 12 14  1  0  0  0  0
 12 15  2  0  0  0  0
 14 16  1  0  0  0  0
 15 11  1  0  0  0  0
 16 11  1  0  0  0  0
 18 10  1  0  0  0  0
 18 17  1  0  0  0  0
 19  1  1  0  0  0  0
 19 20  1  0  0  0  0
 21 23  1  0  0  0  0
 22 24  2  0  0  0  0
 24 26  1  0  0  0  0
 25 22  1  0  0  0  0
 25 28  2  0  0  0  0
 26 21  1  0  0  0  0
 27 21  2  0  0  0  0
 27 20  1  0  0  0  0
 28 27  1  0  0  0  0
 29 22  1  0  0  0  0
 30 29  3  0  0  0  0
 31 30  1  0  0  0  0
 32 31  1  0  0  0  0
 32 33  1  0  0  0  0
 34 26  1  0  0  0  0
 34 35  1  0  0  0  0
 35 38  1  0  0  0  0
 36 37  1  0  0  0  0
 36 38  1  0  0  0  0
 37 38  1  0  0  0  0
 38 48  1  0  0  0  0
 39 44  2  0  0  0  0
 40 41  1  0  0  0  0
 40 44  1  0  0  0  0
 41 46  1  0  0  0  0
 44 42  1  0  0  0  0
 45 39  1  0  0  0  0
 46 47  1  0  0  0  0
 47 42  1  0  0  0  0
 47 43  1  0  0  0  0
 48 45  2  0  0  0  0
 48 40  1  0  0  0  0
 49 50  1  0  0  0  0
 52 61  1  6  0  0  0
 53 51  1  1  0  0  0
 53 52  1  0  0  0  0
 54 55  1  0  0  0  0
 55 52  1  0  0  0  0
 56 50  1  6  0  0  0
 56 54  1  0  0  0  0
 56 53  1  0  0  0  0
 58 60  1  0  0  0  0
 58 59  1  0  0  0  0
 59 65  1  0  0  0  0
 59 64  1  0  0  0  0
 60 62  1  0  0  0  0
 60 57  1  0  0  0  0
 60 59  1  0  0  0  0
 61 58  1  0  0  0  0
 63 61  2  0  0  0  0
M  END
>  <MODEL>
3

>  <REMARK>
 VINA RESULT:      -6.0      3.359     10.848
  Name = 
  22 active torsions:
  status: ('A' for Active; 'I' for Inactive)
    1  A    between atoms: C_2  and  C_36
    2  A    between atoms: C_8  and  C_9
    3  A    between atoms: C_10  and  O_32
    4  A    between atoms: C_11  and  C_27
    5  A    between atoms: C_11  and  C_48
    6  A    between atoms: C_12  and  C_33
    7  A    between atoms: C_12  and  C_50
    8  A    between atoms: C_14  and  C_43
    9  A    between atoms: C_14  and  C_52
   10  A    between atoms: C_18  and  C_21
   11  A    between atoms: C_18  and  N_54
   12  A    between atoms: N_20  and  C_29
   13  A    between atoms: C_21  and  C_50
   14  A    between atoms: C_21  and  C_52
   15  A    between atoms: C_27  and  C_62
   16  A    between atoms: C_29  and  N_58
   17  A    between atoms: O_32  and  C_40
   18  A    between atoms: C_33  and  N_58
   19  A    between atoms: N_39  and  C_48
   20  A    between atoms: C_42  and  N_54
   21  A    between atoms: C_46  and  C_57
   22  A    between atoms: C_57  and  C_60
                            x       y       z     vdW  Elec       q    Type
                         _______ _______ _______ _____ _____    ______ ____

>  <TORSDO>
F 22

$$$$
=
 OpenBabel10222415163D

 65 72  0  0  1  0  0  0  0  0999 V2000
  189.7910  177.3130  138.4820 C   0  0  2  0  0  3  0  0  0  0  0  0
  190.1200  177.3950  139.9680 C   0  0  0  0  0  2  0  0  0  0  0  0
  191.6210  177.5020  140.1820 C   0  0  0  0  0  2  0  0  0  0  0  0
  191.9530  177.1740  141.6240 C   0  0  0  0  0  2  0  0  0  0  0  0
  190.8790  177.6370  142.4920 N   0  0  0  0  0  2  0  0  0  0  0  0
  190.6610  176.6500  143.5420 C   0  0  1  0  0  0  0  0  0  0  0  0
  190.3930  175.3310  142.9610 N   0  0  0  0  0  2  0  0  0  0  0  0
  191.6210  175.5740  143.7410 C   0  0  0  0  0  2  0  0  0  0  0  0
  189.6850  176.9620  144.5850 N   0  0  0  0  0  0  0  0  0  0  0  0
  188.5820  177.6260  144.4060 C   0  0  0  0  0  0  0  0  0  0  0  0
  188.0600  177.8720  146.9290 N   0  0  0  0  0  0  0  0  0  0  0  0
  186.4060  178.1660  145.4740 C   0  0  0  0  0  3  0  0  0  0  0  0
  189.4110  177.8070  147.4600 C   0  0  0  0  0  1  0  0  0  0  0  0
  185.9580  178.3580  146.7760 O   0  0  0  0  0  0  0  0  0  0  0  0
  187.6890  177.8780  145.5570 C   0  0  0  0  0  0  0  0  0  0  0  0
  186.9560  178.2100  147.7230 N   0  0  0  0  0  2  0  0  0  0  0  0
  187.0650  177.4860  142.5270 N   0  0  0  0  0  1  0  0  0  0  0  0
  188.2220  178.1850  143.0590 C   0  0  0  0  0  2  0  0  0  0  0  0
  188.5120  178.0900  138.2070 C   0  0  0  0  0  2  0  0  0  0  0  0
  187.9410  177.7040  136.8500 C   0  0  0  0  0  2  0  0  0  0  0  0
  185.9110  176.6380  135.9920 C   0  0  0  0  0  0  0  0  0  0  0  0
  183.4450  178.0170  137.2810 C   0  0  0  0  0  0  0  0  0  0  0  0
  186.6930  176.1730  134.9780 F   0  0  0  0  0  0  0  0  0  0  0  0
  183.4600  177.1280  136.2940 C   0  0  0  0  0  3  0  0  0  0  0  0
  184.4900  178.1310  138.3040 C   0  0  0  0  0  3  0  0  0  0  0  0
  184.5370  176.2270  136.0260 N   0  0  0  0  0  0  0  0  0  0  0  0
  186.4810  177.3820  136.9520 C   0  0  0  0  0  0  0  0  0  0  0  0
  185.7850  177.8570  138.1620 C   0  0  0  0  0  3  0  0  0  0  0  0
  182.2670  178.8210  137.4460 C   0  0  0  0  0  0  0  0  0  0  0  0
  181.2760  179.4960  137.5800 C   0  0  0  0  0  0  0  0  0  0  0  0
  180.1540  180.2650  137.7270 O   0  0  0  0  0  0  0  0  0  0  0  0
  180.0970  181.5830  137.2020 C   0  0  0  0  0  2  0  0  0  0  0  0
  181.0530  182.4970  137.9480 C   0  0  0  0  0  1  0  0  0  0  0  0
  184.1790  174.9800  135.3700 C   0  0  0  0  0  2  0  0  0  0  0  0
  184.1580  173.8530  136.3980 C   0  0  0  0  0  2  0  0  0  0  0  0
  182.7980  171.7690  137.2220 C   0  0  0  0  0  2  0  0  0  0  0  0
  182.7280  171.8060  135.6970 C   0  0  0  0  0  2  0  0  0  0  0  0
  182.8290  173.0930  136.4860 C   0  0  0  0  0  0  0  0  0  0  0  0
  179.6010  174.6150  136.0300 N   0  0  0  0  0  0  0  0  0  0  0  0
  181.1930  174.6620  137.5780 N   0  0  0  0  0  0  0  0  0  0  0  0
  181.8870  175.0200  138.8090 C   0  0  0  0  0  2  0  0  0  0  0  0
  179.1750  175.9820  138.1220 C   0  0  0  0  0  2  0  0  0  0  0  0
  179.1900  177.2440  140.0970 C   0  0  0  0  0  1  0  0  0  0  0  0
  179.9930  175.1230  137.2120 C   0  0  0  0  0  0  0  0  0  0  0  0
  180.5940  173.8350  135.6090 N   0  0  0  0  0  0  0  0  0  0  0  0
  180.8850  175.6540  139.7860 C   0  0  0  0  0  2  0  0  0  0  0  0
  180.0530  176.6490  139.0930 N   0  0  0  0  0  0  0  0  0  0  0  0
  181.5630  173.8850  136.5480 C   0  0  0  0  0  0  0  0  0  0  0  0
  189.5810  175.8650  138.0660 C   0  0  0  0  0  2  0  0  0  0  0  0
  190.1810  175.6210  136.7650 N   0  0  0  0  0  2  0  0  0  0  0  0
  193.1920  175.0260  138.3870 O   0  0  0  0  0  1  0  0  0  0  0  0
  193.2240  174.1970  136.1490 C   0  0  2  0  0  3  0  0  0  0  0  0
  192.3710  174.7060  137.3070 C   0  0  2  0  0  3  0  0  0  0  0  0
  192.1160  176.4030  135.5340 C   0  0  0  0  0  2  0  0  0  0  0  0
  192.5960  174.9270  134.6060 S   0  0  0  0  0  0  0  0  0  0  0  0
  191.5940  175.9430  136.8790 C   0  0  1  0  0  3  0  0  0  0  0  0
  194.7460  169.8210  137.5440 C   0  0  0  0  0  1  0  0  0  0  0  0
  194.4550  171.9650  136.3060 N   0  0  0  0  0  0  0  0  0  0  0  0
  195.9070  171.8510  136.6410 C   0  0  0  0  0  0  0  0  0  0  0  0
  195.2210  170.6780  136.3830 C   0  0  0  0  0  0  0  0  0  0  0  0
  193.2520  172.6950  136.0720 C   0  0  0  0  0  0  0  0  0  0  0  0
  195.3490  170.0260  135.0160 C   0  0  0  0  0  1  0  0  0  0  0  0
  192.2200  172.0680  135.7120 O   0  0  0  0  0  0  0  0  0  0  0  0
  196.1720  172.2210  137.9620 O   0  0  0  0  0  1  0  0  0  0  0  0
  196.7180  172.4120  135.6530 O   0  0  0  0  0  1  0  0  0  0  0  0
  1 49  1  1  0  0  0
  1  2  1  0  0  0  0
  2  3  1  0  0  0  0
  3  4  1  0  0  0  0
  4  5  1  0  0  0  0
  6  5  1  6  0  0  0
  6  8  1  0  0  0  0
  6  9  1  0  0  0  0
  7  6  1  0  0  0  0
  7  8  1  0  0  0  0
 10  9  2  0  0  0  0
 10 15  1  0  0  0  0
 11 13  1  0  0  0  0
 11 16  1  0  0  0  0
 12 15  2  0  0  0  0
 12 14  1  0  0  0  0
 14 16  1  0  0  0  0
 15 11  1  0  0  0  0
 17 18  1  0  0  0  0
 18 10  1  0  0  0  0
 19  1  1  0  0  0  0
 20 27  1  0  0  0  0
 20 19  1  0  0  0  0
 21 26  1  0  0  0  0
 21 27  2  0  0  0  0
 22 29  1  0  0  0  0
 22 25  1  0  0  0  0
 23 21  1  0  0  0  0
 24 22  2  0  0  0  0
 26 24  1  0  0  0  0
 27 28  1  0  0  0  0
 28 25  2  0  0  0  0
 29 30  3  0  0  0  0
 30 31  1  0  0  0  0
 32 31  1  0  0  0  0
 32 33  1  0  0  0  0
 34 26  1  0  0  0  0
 34 35  1  0  0  0  0
 35 38  1  0  0  0  0
 37 38  1  0  0  0  0
 37 36  1  0  0  0  0
 38 48  1  0  0  0  0
 38 36  1  0  0  0  0
 39 44  2  0  0  0  0
 40 41  1  0  0  0  0
 41 46  1  0  0  0  0
 42 47  1  0  0  0  0
 44 40  1  0  0  0  0
 44 42  1  0  0  0  0
 45 39  1  0  0  0  0
 45 48  2  0  0  0  0
 47 46  1  0  0  0  0
 47 43  1  0  0  0  0
 48 40  1  0  0  0  0
 50 49  1  0  0  0  0
 52 61  1  6  0  0  0
 52 53  1  0  0  0  0
 53 51  1  1  0  0  0
 54 56  1  0  0  0  0
 55 54  1  0  0  0  0
 55 52  1  0  0  0  0
 56 50  1  6  0  0  0
 56 53  1  0  0  0  0
 58 60  1  0  0  0  0
 58 59  1  0  0  0  0
 59 64  1  0  0  0  0
 60 59  1  0  0  0  0
 60 57  1  0  0  0  0
 61 58  1  0  0  0  0
 62 60  1  0  0  0  0
 63 61  2  0  0  0  0
 65 59  1  0  0  0  0
M  END
>  <MODEL>
4

>  <REMARK>
 VINA RESULT:      -5.7      2.653      8.628
  Name = 
  22 active torsions:
  status: ('A' for Active; 'I' for Inactive)
    1  A    between atoms: C_2  and  C_36
    2  A    between atoms: C_8  and  C_9
    3  A    between atoms: C_10  and  O_32
    4  A    between atoms: C_11  and  C_27
    5  A    between atoms: C_11  and  C_48
    6  A    between atoms: C_12  and  C_33
    7  A    between atoms: C_12  and  C_50
    8  A    between atoms: C_14  and  C_43
    9  A    between atoms: C_14  and  C_52
   10  A    between atoms: C_18  and  C_21
   11  A    between atoms: C_18  and  N_54
   12  A    between atoms: N_20  and  C_29
   13  A    between atoms: C_21  and  C_50
   14  A    between atoms: C_21  and  C_52
   15  A    between atoms: C_27  and  C_62
   16  A    between atoms: C_29  and  N_58
   17  A    between atoms: O_32  and  C_40
   18  A    between atoms: C_33  and  N_58
   19  A    between atoms: N_39  and  C_48
   20  A    between atoms: C_42  and  N_54
   21  A    between atoms: C_46  and  C_57
   22  A    between atoms: C_57  and  C_60
                            x       y       z     vdW  Elec       q    Type
                         _______ _______ _______ _____ _____    ______ ____

>  <TORSDO>
F 22

$$$$
=
 OpenBabel10222415163D

 65 72  0  0  1  0  0  0  0  0999 V2000
  189.8300  176.5960  139.3590 C   0  0  2  0  0  3  0  0  0  0  0  0
  190.5650  175.5130  138.5780 C   0  0  0  0  0  2  0  0  0  0  0  0
  190.2310  175.5960  137.0980 C   0  0  0  0  0  2  0  0  0  0  0  0
  191.4930  175.4070  136.2800 C   0  0  0  0  0  2  0  0  0  0  0  0
  192.6530  175.4130  137.1610 N   0  0  0  0  0  2  0  0  0  0  0  0
  193.8490  175.1550  136.3690 C   0  0  1  0  0  0  0  0  0  0  0  0
  193.6630  175.6140  134.9890 N   0  0  0  0  0  2  0  0  0  0  0  0
  194.6480  176.2670  135.8730 C   0  0  0  0  0  2  0  0  0  0  0  0
  194.4090  173.8040  136.3910 N   0  0  0  0  0  0  0  0  0  0  0  0
  195.1820  173.3280  137.3210 C   0  0  0  0  0  0  0  0  0  0  0  0
  194.9620  170.8180  136.7290 N   0  0  0  0  0  0  0  0  0  0  0  0
  196.9020  171.5480  137.5320 C   0  0  0  0  0  3  0  0  0  0  0  0
  193.6630  170.8400  136.0780 C   0  0  0  0  0  1  0  0  0  0  0  0
  196.9660  170.1890  137.2470 O   0  0  0  0  0  0  0  0  0  0  0  0
  195.6860  171.9420  137.2110 C   0  0  0  0  0  0  0  0  0  0  0  0
  195.7890  169.6870  136.7210 N   0  0  0  0  0  2  0  0  0  0  0  0
  196.8780  174.8250  138.1780 N   0  0  0  0  0  1  0  0  0  0  0  0
  195.6140  174.1780  138.4820 C   0  0  0  0  0  2  0  0  0  0  0  0
  190.1690  177.9580  138.7700 C   0  0  0  0  0  2  0  0  0  0  0  0
  188.9760  178.8940  138.8810 C   0  0  0  0  0  2  0  0  0  0  0  0
  186.6070  178.2820  138.8010 C   0  0  0  0  0  0  0  0  0  0  0  0
  186.1930  176.2200  136.5160 C   0  0  0  0  0  0  0  0  0  0  0  0
  186.5310  178.7700  140.0700 F   0  0  0  0  0  0  0  0  0  0  0  0
  185.3180  176.6010  137.4400 C   0  0  0  0  0  3  0  0  0  0  0  0
  187.3120  177.0450  136.0500 C   0  0  0  0  0  3  0  0  0  0  0  0
  185.3970  177.8190  138.1830 N   0  0  0  0  0  0  0  0  0  0  0  0
  187.7850  178.3370  138.1620 C   0  0  0  0  0  0  0  0  0  0  0  0
  187.9890  177.9500  136.7540 C   0  0  0  0  0  3  0  0  0  0  0  0
  185.9480  174.9850  135.8250 C   0  0  0  0  0  0  0  0  0  0  0  0
  185.7380  173.9470  135.2470 C   0  0  0  0  0  0  0  0  0  0  0  0
  185.5020  172.7670  134.5970 O   0  0  0  0  0  0  0  0  0  0  0  0
  184.7900  171.7140  135.2290 C   0  0  0  0  0  2  0  0  0  0  0  0
  184.6010  172.0090  136.7070 C   0  0  0  0  0  1  0  0  0  0  0  0
  184.1350  178.3620  138.6580 C   0  0  0  0  0  2  0  0  0  0  0  0
  183.0290  178.0250  137.6620 C   0  0  0  0  0  2  0  0  0  0  0  0
  180.6430  179.1060  137.5540 C   0  0  0  0  0  2  0  0  0  0  0  0
  181.2560  179.4470  138.9100 C   0  0  0  0  0  2  0  0  0  0  0  0
  181.6070  178.1460  138.2220 C   0  0  0  0  0  0  0  0  0  0  0  0
  179.9820  175.6690  140.2630 N   0  0  0  0  0  0  0  0  0  0  0  0
  180.6960  175.8010  138.1650 N   0  0  0  0  0  0  0  0  0  0  0  0
  180.9710  175.4000  136.7900 C   0  0  0  0  0  2  0  0  0  0  0  0
  179.5600  173.6840  138.7440 C   0  0  0  0  0  2  0  0  0  0  0  0
  179.4770  172.0020  137.1120 C   0  0  0  0  0  1  0  0  0  0  0  0
  180.1110  175.0300  139.0870 C   0  0  0  0  0  0  0  0  0  0  0  0
  180.5320  176.8700  140.1010 N   0  0  0  0  0  0  0  0  0  0  0  0
  180.1400  174.1530  136.4530 C   0  0  0  0  0  2  0  0  0  0  0  0
  180.2290  173.1670  137.5410 N   0  0  0  0  0  0  0  0  0  0  0  0
  180.9790  176.9340  138.8290 C   0  0  0  0  0  0  0  0  0  0  0  0
  190.2560  176.5770  140.8190 C   0  0  0  0  0  2  0  0  0  0  0  0
  189.9670  177.8560  141.4460 N   0  0  0  0  0  2  0  0  0  0  0  0
  191.2400  179.9350  143.9180 O   0  0  0  0  0  1  0  0  0  0  0  0
  190.5550  177.8300  144.8110 C   0  0  2  0  0  3  0  0  0  0  0  0
  190.4910  178.7950  143.6300 C   0  0  2  0  0  3  0  0  0  0  0  0
  191.7070  176.8240  142.7790 C   0  0  0  0  0  2  0  0  0  0  0  0
  190.7690  176.1430  144.1650 S   0  0  0  0  0  0  0  0  0  0  0  0
  191.0480  178.1270  142.3800 C   0  0  1  0  0  3  0  0  0  0  0  0
  186.0990  176.5550  146.2000 C   0  0  0  0  0  1  0  0  0  0  0  0
  188.0280  177.7530  145.1720 N   0  0  0  0  0  0  0  0  0  0  0  0
  187.0500  177.4810  144.0740 C   0  0  0  0  0  0  0  0  0  0  0  0
  186.5370  177.7250  145.3350 C   0  0  0  0  0  0  0  0  0  0  0  0
  189.3430  177.9270  145.6980 C   0  0  0  0  0  0  0  0  0  0  0  0
  185.9890  179.1030  145.6630 C   0  0  0  0  0  1  0  0  0  0  0  0
  189.4770  178.2490  146.9080 O   0  0  0  0  0  0  0  0  0  0  0  0
  187.1390  176.1690  143.6050 O   0  0  0  0  0  1  0  0  0  0  0  0
  187.0450  178.4970  143.1160 O   0  0  0  0  0  1  0  0  0  0  0  0
  1  2  1  6  0  0  0
  1 49  1  0  0  0  0
  3  2  1  0  0  0  0
  4  3  1  0  0  0  0
  4  5  1  0  0  0  0
  6  9  1  1  0  0  0
  6  5  1  0  0  0  0
  7  8  1  0  0  0  0
  7  6  1  0  0  0  0
  8  6  1  0  0  0  0
  9 10  2  0  0  0  0
 10 18  1  0  0  0  0
 11 15  1  0  0  0  0
 13 11  1  0  0  0  0
 14 12  1  0  0  0  0
 15 10  1  0  0  0  0
 15 12  2  0  0  0  0
 16 11  1  0  0  0  0
 16 14  1  0  0  0  0
 17 18  1  0  0  0  0
 19 20  1  0  0  0  0
 19  1  1  0  0  0  0
 21 23  1  0  0  0  0
 22 24  2  0  0  0  0
 24 26  1  0  0  0  0
 25 22  1  0  0  0  0
 25 28  2  0  0  0  0
 26 34  1  0  0  0  0
 26 21  1  0  0  0  0
 27 21  2  0  0  0  0
 27 20  1  0  0  0  0
 28 27  1  0  0  0  0
 29 22  1  0  0  0  0
 30 29  3  0  0  0  0
 31 32  1  0  0  0  0
 31 30  1  0  0  0  0
 32 33  1  0  0  0  0
 35 38  1  0  0  0  0
 35 34  1  0  0  0  0
 36 38  1  0  0  0  0
 36 37  1  0  0  0  0
 38 48  1  0  0  0  0
 38 37  1  0  0  0  0
 40 48  1  0  0  0  0
 40 44  1  0  0  0  0
 41 40  1  0  0  0  0
 42 44  1  0  0  0  0
 43 47  1  0  0  0  0
 44 39  2  0  0  0  0
 45 39  1  0  0  0  0
 46 41  1  0  0  0  0
 46 47  1  0  0  0  0
 47 42  1  0  0  0  0
 48 45  2  0  0  0  0
 49 50  1  0  0  0  0
 52 61  1  6  0  0  0
 53 51  1  1  0  0  0
 53 52  1  0  0  0  0
 54 55  1  0  0  0  0
 55 52  1  0  0  0  0
 56 50  1  6  0  0  0
 56 54  1  0  0  0  0
 56 53  1  0  0  0  0
 58 60  1  0  0  0  0
 58 61  1  0  0  0  0
 59 58  1  0  0  0  0
 59 60  1  0  0  0  0
 60 62  1  0  0  0  0
 60 57  1  0  0  0  0
 61 63  2  0  0  0  0
 64 59  1  0  0  0  0
 65 59  1  0  0  0  0
M  END
>  <MODEL>
5

>  <REMARK>
 VINA RESULT:      -5.4      3.158     10.888
  Name = 
  22 active torsions:
  status: ('A' for Active; 'I' for Inactive)
    1  A    between atoms: C_2  and  C_36
    2  A    between atoms: C_8  and  C_9
    3  A    between atoms: C_10  and  O_32
    4  A    between atoms: C_11  and  C_27
    5  A    between atoms: C_11  and  C_48
    6  A    between atoms: C_12  and  C_33
    7  A    between atoms: C_12  and  C_50
    8  A    between atoms: C_14  and  C_43
    9  A    between atoms: C_14  and  C_52
   10  A    between atoms: C_18  and  C_21
   11  A    between atoms: C_18  and  N_54
   12  A    between atoms: N_20  and  C_29
   13  A    between atoms: C_21  and  C_50
   14  A    between atoms: C_21  and  C_52
   15  A    between atoms: C_27  and  C_62
   16  A    between atoms: C_29  and  N_58
   17  A    between atoms: O_32  and  C_40
   18  A    between atoms: C_33  and  N_58
   19  A    between atoms: N_39  and  C_48
   20  A    between atoms: C_42  and  N_54
   21  A    between atoms: C_46  and  C_57
   22  A    between atoms: C_57  and  C_60
                            x       y       z     vdW  Elec       q    Type
                         _______ _______ _______ _____ _____    ______ ____

>  <TORSDO>
F 22

$$$$
=
 OpenBabel10222415163D

 65 72  0  0  1  0  0  0  0  0999 V2000
  188.9540  177.5560  140.6710 C   0  0  2  0  0  3  0  0  0  0  0  0
  190.1110  177.7890  141.6360 C   0  0  0  0  0  2  0  0  0  0  0  0
  189.6690  178.6490  142.8080 C   0  0  0  0  0  2  0  0  0  0  0  0
  190.8880  179.1750  143.5400 C   0  0  0  0  0  2  0  0  0  0  0  0
  191.7190  178.0600  143.9710 N   0  0  0  0  0  2  0  0  0  0  0  0
  190.9790  177.2680  144.9470 C   0  0  1  0  0  0  0  0  0  0  0  0
  191.1210  175.8370  144.6620 N   0  0  0  0  0  2  0  0  0  0  0  0
  191.6960  176.4200  145.8890 C   0  0  0  0  0  2  0  0  0  0  0  0
  189.5790  177.6100  145.1880 N   0  0  0  0  0  0  0  0  0  0  0  0
  188.9870  177.5770  146.3450 C   0  0  0  0  0  0  0  0  0  0  0  0
  186.5770  177.7880  145.4240 N   0  0  0  0  0  0  0  0  0  0  0  0
  186.9740  178.4500  147.5080 C   0  0  0  0  0  3  0  0  0  0  0  0
  186.7390  177.0770  144.1670 C   0  0  0  0  0  1  0  0  0  0  0  0
  185.6310  178.6100  147.1870 O   0  0  0  0  0  0  0  0  0  0  0  0
  187.5570  177.9410  146.4420 C   0  0  0  0  0  0  0  0  0  0  0  0
  185.3240  178.1900  145.9050 N   0  0  0  0  0  2  0  0  0  0  0  0
  189.6630  178.1670  148.5910 N   0  0  0  0  0  1  0  0  0  0  0  0
  189.7180  177.1280  147.5780 C   0  0  0  0  0  2  0  0  0  0  0  0
  189.4820  177.5620  139.2430 C   0  0  0  0  0  2  0  0  0  0  0  0
  188.5760  176.7390  138.3400 C   0  0  0  0  0  2  0  0  0  0  0  0
  188.9910  174.5830  137.2580 C   0  0  0  0  0  0  0  0  0  0  0  0
  191.9630  174.4810  136.3610 C   0  0  0  0  0  0  0  0  0  0  0  0
  187.8620  174.1530  137.8850 F   0  0  0  0  0  0  0  0  0  0  0  0
  191.0730  173.4940  136.3550 C   0  0  0  0  0  3  0  0  0  0  0  0
  191.6160  175.9030  136.2760 C   0  0  0  0  0  3  0  0  0  0  0  0
  189.6560  173.6750  136.3680 N   0  0  0  0  0  0  0  0  0  0  0  0
  189.3770  175.8570  137.4330 C   0  0  0  0  0  0  0  0  0  0  0  0
  190.5110  176.4880  136.7330 C   0  0  0  0  0  3  0  0  0  0  0  0
  193.3550  174.1340  136.3000 C   0  0  0  0  0  0  0  0  0  0  0  0
  194.5250  173.8440  136.2440 C   0  0  0  0  0  0  0  0  0  0  0  0
  195.8500  173.5130  136.1770 O   0  0  0  0  0  0  0  0  0  0  0  0
  196.5560  173.0800  137.3300 C   0  0  0  0  0  2  0  0  0  0  0  0
  198.0550  173.1910  137.1120 C   0  0  0  0  0  1  0  0  0  0  0  0
  188.8700  172.6130  135.7610 C   0  0  0  0  0  2  0  0  0  0  0  0
  187.9180  173.2110  134.7300 C   0  0  0  0  0  2  0  0  0  0  0  0
  185.9310  172.1490  136.0700 C   0  0  0  0  0  2  0  0  0  0  0  0
  185.5460  172.1720  134.5940 C   0  0  0  0  0  2  0  0  0  0  0  0
  186.4470  173.2460  135.1620 C   0  0  0  0  0  0  0  0  0  0  0  0
  185.5480  176.7170  135.4600 N   0  0  0  0  0  0  0  0  0  0  0  0
  184.4660  174.7780  135.4090 N   0  0  0  0  0  0  0  0  0  0  0  0
  183.3530  173.8370  135.4280 C   0  0  0  0  0  2  0  0  0  0  0  0
  183.0150  176.7740  135.5460 C   0  0  0  0  0  2  0  0  0  0  0  0
  180.7040  176.4370  135.7540 C   0  0  0  0  0  1  0  0  0  0  0  0
  184.3520  176.1050  135.5160 C   0  0  0  0  0  0  0  0  0  0  0  0
  186.4580  175.7520  135.3490 N   0  0  0  0  0  0  0  0  0  0  0  0
  182.0440  174.6010  135.1770 C   0  0  0  0  0  2  0  0  0  0  0  0
  181.9940  175.8190  136.0000 N   0  0  0  0  0  0  0  0  0  0  0  0
  185.7920  174.5780  135.3380 C   0  0  0  0  0  0  0  0  0  0  0  0
  187.9180  178.6610  140.8110 C   0  0  0  0  0  2  0  0  0  0  0  0
  186.5760  178.1010  140.7880 N   0  0  0  0  0  2  0  0  0  0  0  0
  184.2740  180.0180  139.0360 O   0  0  0  0  0  1  0  0  0  0  0  0
  183.2110  178.6780  140.7000 C   0  0  2  0  0  3  0  0  0  0  0  0
  184.4750  178.9290  139.8820 C   0  0  2  0  0  3  0  0  0  0  0  0
  185.1190  179.4090  142.2150 C   0  0  0  0  0  2  0  0  0  0  0  0
  183.6980  178.3100  142.4130 S   0  0  0  0  0  0  0  0  0  0  0  0
  185.6470  179.2190  140.8090 C   0  0  1  0  0  3  0  0  0  0  0  0
  179.1170  176.8950  138.8370 C   0  0  0  0  0  1  0  0  0  0  0  0
  180.9650  177.5020  140.3960 N   0  0  0  0  0  0  0  0  0  0  0  0
  179.6940  177.9860  141.0180 C   0  0  0  0  0  0  0  0  0  0  0  0
  179.6310  176.8280  140.2650 C   0  0  0  0  0  0  0  0  0  0  0  0
  182.3630  177.5760  140.1240 C   0  0  0  0  0  0  0  0  0  0  0  0
  179.6190  175.4810  140.9690 C   0  0  0  0  0  1  0  0  0  0  0  0
  182.9040  176.6540  139.4590 O   0  0  0  0  0  0  0  0  0  0  0  0
  179.2670  179.1950  140.4650 O   0  0  0  0  0  1  0  0  0  0  0  0
  179.7300  177.9060  142.4120 O   0  0  0  0  0  1  0  0  0  0  0  0
  1 19  1  6  0  0  0
  1 49  1  0  0  0  0
  1  2  1  0  0  0  0
  2  3  1  0  0  0  0
  3  4  1  0  0  0  0
  4  5  1  0  0  0  0
  6  5  1  6  0  0  0
  6  9  1  0  0  0  0
  6  8  1  0  0  0  0
  7  6  1  0  0  0  0
  7  8  1  0  0  0  0
  9 10  2  0  0  0  0
 10 15  1  0  0  0  0
 10 18  1  0  0  0  0
 11 16  1  0  0  0  0
 11 15  1  0  0  0  0
 13 11  1  0  0  0  0
 14 12  1  0  0  0  0
 15 12  2  0  0  0  0
 16 14  1  0  0  0  0
 18 17  1  0  0  0  0
 20 19  1  0  0  0  0
 21 27  2  0  0  0  0
 21 23  1  0  0  0  0
 24 22  2  0  0  0  0
 24 26  1  0  0  0  0
 25 22  1  0  0  0  0
 25 28  2  0  0  0  0
 26 21  1  0  0  0  0
 27 20  1  0  0  0  0
 28 27  1  0  0  0  0
 29 22  1  0  0  0  0
 30 29  3  0  0  0  0
 31 30  1  0  0  0  0
 31 32  1  0  0  0  0
 33 32  1  0  0  0  0
 34 26  1  0  0  0  0
 35 38  1  0  0  0  0
 35 34  1  0  0  0  0
 37 38  1  0  0  0  0
 37 36  1  0  0  0  0
 38 48  1  0  0  0  0
 38 36  1  0  0  0  0
 39 44  2  0  0  0  0
 40 41  1  0  0  0  0
 40 44  1  0  0  0  0
 42 47  1  0  0  0  0
 43 47  1  0  0  0  0
 44 42  1  0  0  0  0
 45 39  1  0  0  0  0
 46 41  1  0  0  0  0
 46 47  1  0  0  0  0
 48 45  2  0  0  0  0
 48 40  1  0  0  0  0
 50 49  1  0  0  0  0
 52 61  1  6  0  0  0
 52 55  1  0  0  0  0
 53 51  1  6  0  0  0
 53 52  1  0  0  0  0
 53 56  1  0  0  0  0
 54 55  1  0  0  0  0
 56 50  1  1  0  0  0
 56 54  1  0  0  0  0
 57 60  1  0  0  0  0
 58 59  1  0  0  0  0
 59 65  1  0  0  0  0
 60 58  1  0  0  0  0
 60 62  1  0  0  0  0
 60 59  1  0  0  0  0
 61 58  1  0  0  0  0
 63 61  2  0  0  0  0
 64 59  1  0  0  0  0
M  END
>  <MODEL>
6

>  <REMARK>
 VINA RESULT:      -5.2      2.722     11.738
  Name = 
  22 active torsions:
  status: ('A' for Active; 'I' for Inactive)
    1  A    between atoms: C_2  and  C_36
    2  A    between atoms: C_8  and  C_9
    3  A    between atoms: C_10  and  O_32
    4  A    between atoms: C_11  and  C_27
    5  A    between atoms: C_11  and  C_48
    6  A    between atoms: C_12  and  C_33
    7  A    between atoms: C_12  and  C_50
    8  A    between atoms: C_14  and  C_43
    9  A    between atoms: C_14  and  C_52
   10  A    between atoms: C_18  and  C_21
   11  A    between atoms: C_18  and  N_54
   12  A    between atoms: N_20  and  C_29
   13  A    between atoms: C_21  and  C_50
   14  A    between atoms: C_21  and  C_52
   15  A    between atoms: C_27  and  C_62
   16  A    between atoms: C_29  and  N_58
   17  A    between atoms: O_32  and  C_40
   18  A    between atoms: C_33  and  N_58
   19  A    between atoms: N_39  and  C_48
   20  A    between atoms: C_42  and  N_54
   21  A    between atoms: C_46  and  C_57
   22  A    between atoms: C_57  and  C_60
                            x       y       z     vdW  Elec       q    Type
                         _______ _______ _______ _____ _____    ______ ____

>  <TORSDO>
F 22

$$$$
=
 OpenBabel10222415163D

 65 72  0  0  1  0  0  0  0  0999 V2000
  189.3110  177.2240  139.2180 C   0  0  2  0  0  3  0  0  0  0  0  0
  189.8790  177.0940  140.6260 C   0  0  0  0  0  2  0  0  0  0  0  0
  191.1040  177.9760  140.7960 C   0  0  0  0  0  2  0  0  0  0  0  0
  191.9380  177.4700  141.9560 C   0  0  0  0  0  2  0  0  0  0  0  0
  191.0630  177.0100  143.0250 N   0  0  0  0  0  2  0  0  0  0  0  0
  190.9460  178.0620  144.0260 C   0  0  1  0  0  0  0  0  0  0  0  0
  191.9430  177.8780  145.0860 N   0  0  0  0  0  2  0  0  0  0  0  0
  192.0120  179.0420  144.1810 C   0  0  0  0  0  2  0  0  0  0  0  0
  189.6260  178.3210  144.5990 N   0  0  0  0  0  0  0  0  0  0  0  0
  188.6380  177.4770  144.6180 C   0  0  0  0  0  0  0  0  0  0  0  0
  186.2160  178.3860  144.5330 N   0  0  0  0  0  0  0  0  0  0  0  0
  187.0570  177.8020  146.5060 C   0  0  0  0  0  3  0  0  0  0  0  0
  186.0300  178.4360  143.0930 C   0  0  0  0  0  1  0  0  0  0  0  0
  185.7460  178.2430  146.6400 O   0  0  0  0  0  0  0  0  0  0  0  0
  187.3500  177.8770  145.2230 C   0  0  0  0  0  0  0  0  0  0  0  0
  185.1650  178.5980  145.4350 N   0  0  0  0  0  2  0  0  0  0  0  0
  187.5740  175.8160  143.2180 N   0  0  0  0  0  1  0  0  0  0  0  0
  188.7660  176.1180  143.9910 C   0  0  0  0  0  2  0  0  0  0  0  0
  188.1170  178.1670  139.2430 C   0  0  0  0  0  2  0  0  0  0  0  0
  187.4820  178.2530  137.8630 C   0  0  0  0  0  2  0  0  0  0  0  0
  185.3700  177.5140  136.8690 C   0  0  0  0  0  0  0  0  0  0  0  0
  183.0280  178.8230  138.4350 C   0  0  0  0  0  0  0  0  0  0  0  0
  186.1060  177.1820  135.7730 F   0  0  0  0  0  0  0  0  0  0  0  0
  182.9670  178.1270  137.3040 C   0  0  0  0  0  3  0  0  0  0  0  0
  184.0850  178.6710  139.4400 C   0  0  0  0  0  3  0  0  0  0  0  0
  183.9680  177.2100  136.8580 N   0  0  0  0  0  0  0  0  0  0  0  0
  186.0020  178.0280  137.9360 C   0  0  0  0  0  0  0  0  0  0  0  0
  185.3540  178.3300  139.2250 C   0  0  0  0  0  3  0  0  0  0  0  0
  181.9170  179.6720  138.7640 C   0  0  0  0  0  0  0  0  0  0  0  0
  180.9830  180.3820  139.0440 C   0  0  0  0  0  0  0  0  0  0  0  0
  179.9200  181.1820  139.3620 O   0  0  0  0  0  0  0  0  0  0  0  0
  179.7200  182.4260  138.7060 C   0  0  0  0  0  2  0  0  0  0  0  0
  180.4320  182.4420  137.3650 C   0  0  0  0  0  1  0  0  0  0  0  0
  183.5090  176.1320  135.9980 C   0  0  0  0  0  2  0  0  0  0  0  0
  183.8970  174.7900  136.6120 C   0  0  0  0  0  2  0  0  0  0  0  0
  181.5410  174.0190  135.7600 C   0  0  0  0  0  2  0  0  0  0  0  0
  181.5960  173.7900  137.2690 C   0  0  0  0  0  2  0  0  0  0  0  0
  182.8540  173.6800  136.4350 C   0  0  0  0  0  0  0  0  0  0  0  0
  183.3070  170.1360  136.0160 N   0  0  0  0  0  0  0  0  0  0  0  0
  184.5680  171.9510  135.7970 N   0  0  0  0  0  0  0  0  0  0  0  0
  185.7420  172.7710  135.5230 C   0  0  0  0  0  2  0  0  0  0  0  0
  185.6860  169.8310  135.1930 C   0  0  0  0  0  2  0  0  0  0  0  0
  187.9540  169.9170  134.6060 C   0  0  0  0  0  1  0  0  0  0  0  0
  184.5250  170.6180  135.7120 C   0  0  0  0  0  0  0  0  0  0  0  0
  182.5580  171.1870  136.3400 N   0  0  0  0  0  0  0  0  0  0  0  0
  186.7690  171.9350  134.7440 C   0  0  0  0  0  2  0  0  0  0  0  0
  186.9230  170.6080  135.3580 N   0  0  0  0  0  0  0  0  0  0  0  0
  183.3370  172.2820  136.2220 C   0  0  0  0  0  0  0  0  0  0  0  0
  188.8500  175.8680  138.7060 C   0  0  0  0  0  2  0  0  0  0  0  0
  189.3760  175.6250  137.3730 N   0  0  0  0  0  2  0  0  0  0  0  0
  192.5870  176.6110  138.2470 O   0  0  0  0  0  1  0  0  0  0  0  0
  192.5220  175.6940  136.0440 C   0  0  2  0  0  3  0  0  0  0  0  0
  191.7980  175.8580  137.3780 C   0  0  2  0  0  3  0  0  0  0  0  0
  190.4160  177.0900  135.7470 C   0  0  0  0  0  2  0  0  0  0  0  0
  191.3140  175.9190  134.7030 S   0  0  0  0  0  0  0  0  0  0  0  0
  190.4660  176.5640  137.1660 C   0  0  1  0  0  3  0  0  0  0  0  0
  195.3990  172.1690  137.6900 C   0  0  0  0  0  1  0  0  0  0  0  0
  194.5220  174.1700  136.4900 N   0  0  0  0  0  0  0  0  0  0  0  0
  195.7380  174.6110  137.2390 C   0  0  0  0  0  0  0  0  0  0  0  0
  195.7270  173.3170  136.7510 C   0  0  0  0  0  0  0  0  0  0  0  0
  193.2240  174.3680  135.9310 C   0  0  0  0  0  0  0  0  0  0  0  0
  196.4710  173.0000  135.4640 C   0  0  0  0  0  1  0  0  0  0  0  0
  192.7010  173.4390  135.2610 O   0  0  0  0  0  0  0  0  0  0  0  0
  195.4680  174.8430  138.5890 O   0  0  0  0  0  1  0  0  0  0  0  0
  196.4420  175.6040  136.5550 O   0  0  0  0  0  1  0  0  0  0  0  0
  1 49  1  1  0  0  0
  1 19  1  0  0  0  0
  1  2  1  0  0  0  0
  2  3  1  0  0  0  0
  3  4  1  0  0  0  0
  4  5  1  0  0  0  0
  6  5  1  6  0  0  0
  6  8  1  0  0  0  0
  6  9  1  0  0  0  0
  6  7  1  0  0  0  0
  8  7  1  0  0  0  0
  9 10  2  0  0  0  0
 10 15  1  0  0  0  0
 11 15  1  0  0  0  0
 11 16  1  0  0  0  0
 12 14  1  0  0  0  0
 13 11  1  0  0  0  0
 15 12  2  0  0  0  0
 16 14  1  0  0  0  0
 17 18  1  0  0  0  0
 18 10  1  0  0  0  0
 20 27  1  0  0  0  0
 20 19  1  0  0  0  0
 21 27  2  0  0  0  0
 22 29  1  0  0  0  0
 22 25  1  0  0  0  0
 23 21  1  0  0  0  0
 24 22  2  0  0  0  0
 26 21  1  0  0  0  0
 26 24  1  0  0  0  0
 27 28  1  0  0  0  0
 28 25  2  0  0  0  0
 29 30  3  0  0  0  0
 30 31  1  0  0  0  0
 32 31  1  0  0  0  0
 33 32  1  0  0  0  0
 34 35  1  0  0  0  0
 34 26  1  0  0  0  0
 36 38  1  0  0  0  0
 36 37  1  0  0  0  0
 38 35  1  0  0  0  0
 38 37  1  0  0  0  0
 39 45  1  0  0  0  0
 40 48  1  0  0  0  0
 41 40  1  0  0  0  0
 42 47  1  0  0  0  0
 42 44  1  0  0  0  0
 43 47  1  0  0  0  0
 44 40  1  0  0  0  0
 44 39  2  0  0  0  0
 46 47  1  0  0  0  0
 46 41  1  0  0  0  0
 48 45  2  0  0  0  0
 48 38  1  0  0  0  0
 50 49  1  0  0  0  0
 52 61  1  1  0  0  0
 52 53  1  0  0  0  0
 53 51  1  1  0  0  0
 54 56  1  0  0  0  0
 55 54  1  0  0  0  0
 55 52  1  0  0  0  0
 56 50  1  6  0  0  0
 56 53  1  0  0  0  0
 58 60  1  0  0  0  0
 58 59  1  0  0  0  0
 59 64  1  0  0  0  0
 60 59  1  0  0  0  0
 60 57  1  0  0  0  0
 61 58  1  0  0  0  0
 62 60  1  0  0  0  0
 63 61  2  0  0  0  0
 65 59  1  0  0  0  0
M  END
>  <MODEL>
7

>  <REMARK>
 VINA RESULT:      -5.2      2.931      8.135
  Name = 
  22 active torsions:
  status: ('A' for Active; 'I' for Inactive)
    1  A    between atoms: C_2  and  C_36
    2  A    between atoms: C_8  and  C_9
    3  A    between atoms: C_10  and  O_32
    4  A    between atoms: C_11  and  C_27
    5  A    between atoms: C_11  and  C_48
    6  A    between atoms: C_12  and  C_33
    7  A    between atoms: C_12  and  C_50
    8  A    between atoms: C_14  and  C_43
    9  A    between atoms: C_14  and  C_52
   10  A    between atoms: C_18  and  C_21
   11  A    between atoms: C_18  and  N_54
   12  A    between atoms: N_20  and  C_29
   13  A    between atoms: C_21  and  C_50
   14  A    between atoms: C_21  and  C_52
   15  A    between atoms: C_27  and  C_62
   16  A    between atoms: C_29  and  N_58
   17  A    between atoms: O_32  and  C_40
   18  A    between atoms: C_33  and  N_58
   19  A    between atoms: N_39  and  C_48
   20  A    between atoms: C_42  and  N_54
   21  A    between atoms: C_46  and  C_57
   22  A    between atoms: C_57  and  C_60
                            x       y       z     vdW  Elec       q    Type
                         _______ _______ _______ _____ _____    ______ ____

>  <TORSDO>
F 22

$$$$
=
 OpenBabel10222415163D

 65 72  0  0  1  0  0  0  0  0999 V2000
  187.3440  179.0000  141.0680 C   0  0  2  0  0  3  0  0  0  0  0  0
  185.9180  178.7770  141.5570 C   0  0  0  0  0  2  0  0  0  0  0  0
  185.0130  178.3670  140.4070 C   0  0  0  0  0  2  0  0  0  0  0  0
  183.8050  179.2800  140.3610 C   0  0  0  0  0  2  0  0  0  0  0  0
  182.6790  178.6390  141.0270 N   0  0  0  0  0  2  0  0  0  0  0  0
  181.5890  178.4880  140.0720 C   0  0  1  0  0  0  0  0  0  0  0  0
  180.3270  178.9590  140.6530 N   0  0  0  0  0  2  0  0  0  0  0  0
  180.9420  179.6680  139.5140 C   0  0  0  0  0  2  0  0  0  0  0  0
  181.4080  177.1850  139.4360 N   0  0  0  0  0  0  0  0  0  0  0  0
  181.8330  176.8640  138.2500 C   0  0  0  0  0  0  0  0  0  0  0  0
  180.3120  174.9900  137.3150 N   0  0  0  0  0  0  0  0  0  0  0  0
  182.4820  174.5730  137.5450 C   0  0  0  0  0  3  0  0  0  0  0  0
  179.0800  175.7420  137.1490 C   0  0  0  0  0  1  0  0  0  0  0  0
  181.8230  173.4720  137.0100 O   0  0  0  0  0  0  0  0  0  0  0  0
  181.5700  175.5060  137.7250 C   0  0  0  0  0  0  0  0  0  0  0  0
  180.4680  173.6870  136.8230 N   0  0  0  0  0  2  0  0  0  0  0  0
  183.8980  177.4160  137.1190 N   0  0  0  0  0  1  0  0  0  0  0  0
  182.5410  177.8640  137.3820 C   0  0  0  0  0  2  0  0  0  0  0  0
  187.7300  177.8790  140.1140 C   0  0  0  0  0  2  0  0  0  0  0  0
  188.4400  178.4440  138.8930 C   0  0  0  0  0  2  0  0  0  0  0  0
  189.3370  177.6850  136.7450 C   0  0  0  0  0  0  0  0  0  0  0  0
  188.3980  174.7650  136.2560 C   0  0  0  0  0  0  0  0  0  0  0  0
  189.5150  179.0030  136.4560 F   0  0  0  0  0  0  0  0  0  0  0  0
  189.0200  175.5760  135.4070 C   0  0  0  0  0  3  0  0  0  0  0  0
  188.4990  174.8650  137.7150 C   0  0  0  0  0  3  0  0  0  0  0  0
  189.7910  176.7170  135.7880 N   0  0  0  0  0  0  0  0  0  0  0  0
  188.8280  177.3530  137.9420 C   0  0  0  0  0  0  0  0  0  0  0  0
  188.6850  175.9700  138.4330 C   0  0  0  0  0  3  0  0  0  0  0  0
  187.6990  173.6330  135.7160 C   0  0  0  0  0  0  0  0  0  0  0  0
  187.1160  172.6790  135.2630 C   0  0  0  0  0  0  0  0  0  0  0  0
  186.4590  171.5970  134.7440 O   0  0  0  0  0  0  0  0  0  0  0  0
  185.2580  171.1190  135.3330 C   0  0  0  0  0  2  0  0  0  0  0  0
  184.0590  171.8770  134.7890 C   0  0  0  0  0  1  0  0  0  0  0  0
  190.8540  177.1050  134.8760 C   0  0  0  0  0  2  0  0  0  0  0  0
  191.8590  175.9630  134.7500 C   0  0  0  0  0  2  0  0  0  0  0  0
  192.6020  174.8110  136.9850 C   0  0  0  0  0  2  0  0  0  0  0  0
  192.3530  176.2890  137.2750 C   0  0  0  0  0  2  0  0  0  0  0  0
  192.8510  175.8540  135.9150 C   0  0  0  0  0  0  0  0  0  0  0  0
  196.0890  177.3040  135.3200 N   0  0  0  0  0  0  0  0  0  0  0  0
  195.2850  175.2640  135.6700 N   0  0  0  0  0  0  0  0  0  0  0  0
  195.2680  173.8160  135.8440 C   0  0  0  0  0  2  0  0  0  0  0  0
  197.7430  175.3860  135.4400 C   0  0  0  0  0  2  0  0  0  0  0  0
  198.9470  173.3740  135.4620 C   0  0  0  0  0  1  0  0  0  0  0  0
  196.3770  175.9950  135.4300 C   0  0  0  0  0  0  0  0  0  0  0  0
  194.7700  177.4100  135.4580 N   0  0  0  0  0  0  0  0  0  0  0  0
  196.6970  173.3250  136.1200 C   0  0  0  0  0  2  0  0  0  0  0  0
  197.6420  173.9430  135.1780 N   0  0  0  0  0  0  0  0  0  0  0  0
  194.2890  176.1640  135.6510 C   0  0  0  0  0  0  0  0  0  0  0  0
  188.3120  178.9940  142.2410 C   0  0  0  0  0  2  0  0  0  0  0  0
  188.9580  177.6960  142.3580 N   0  0  0  0  0  2  0  0  0  0  0  0
  191.4590  179.5140  143.9360 O   0  0  0  0  0  1  0  0  0  0  0  0
  191.4360  177.2410  144.6640 C   0  0  2  0  0  3  0  0  0  0  0  0
  190.6830  178.3560  143.9430 C   0  0  2  0  0  3  0  0  0  0  0  0
  191.1470  176.6710  142.2020 C   0  0  0  0  0  2  0  0  0  0  0  0
  191.2190  175.6990  143.7250 S   0  0  0  0  0  0  0  0  0  0  0  0
  190.3830  177.9410  142.5090 C   0  0  1  0  0  3  0  0  0  0  0  0
  188.3260  175.8350  148.0940 C   0  0  0  0  0  1  0  0  0  0  0  0
  189.6190  177.2010  146.4570 N   0  0  0  0  0  0  0  0  0  0  0  0
  188.1700  177.4240  146.1620 C   0  0  0  0  0  0  0  0  0  0  0  0
  188.5230  177.2110  147.4820 C   0  0  0  0  0  0  0  0  0  0  0  0
  190.9920  177.0790  146.0930 C   0  0  0  0  0  0  0  0  0  0  0  0
  188.6530  178.4000  148.4190 C   0  0  0  0  0  1  0  0  0  0  0  0
  191.8510  176.9160  146.9990 O   0  0  0  0  0  0  0  0  0  0  0  0
  187.6190  176.3800  145.4160 O   0  0  0  0  0  1  0  0  0  0  0  0
  187.9220  178.7220  145.7110 O   0  0  0  0  0  1  0  0  0  0  0  0
  1 19  1  6  0  0  0
  1  2  1  0  0  0  0
  1 49  1  0  0  0  0
  3  2  1  0  0  0  0
  4  3  1  0  0  0  0
  4  5  1  0  0  0  0
  6  9  1  6  0  0  0
  6  7  1  0  0  0  0
  6  5  1  0  0  0  0
  8  6  1  0  0  0  0
  8  7  1  0  0  0  0
 10  9  2  0  0  0  0
 11 15  1  0  0  0  0
 12 15  2  0  0  0  0
 13 11  1  0  0  0  0
 14 12  1  0  0  0  0
 15 10  1  0  0  0  0
 16 14  1  0  0  0  0
 16 11  1  0  0  0  0
 17 18  1  0  0  0  0
 18 10  1  0  0  0  0
 20 19  1  0  0  0  0
 21 27  2  0  0  0  0
 22 25  1  0  0  0  0
 23 21  1  0  0  0  0
 24 26  1  0  0  0  0
 24 22  2  0  0  0  0
 25 28  2  0  0  0  0
 26 21  1  0  0  0  0
 27 28  1  0  0  0  0
 27 20  1  0  0  0  0
 29 22  1  0  0  0  0
 30 29  3  0  0  0  0
 31 30  1  0  0  0  0
 31 32  1  0  0  0  0
 33 32  1  0  0  0  0
 34 26  1  0  0  0  0
 35 34  1  0  0  0  0
 35 38  1  0  0  0  0
 36 37  1  0  0  0  0
 38 36  1  0  0  0  0
 38 37  1  0  0  0  0
 39 44  2  0  0  0  0
 39 45  1  0  0  0  0
 40 41  1  0  0  0  0
 41 46  1  0  0  0  0
 44 42  1  0  0  0  0
 44 40  1  0  0  0  0
 45 48  2  0  0  0  0
 47 42  1  0  0  0  0
 47 43  1  0  0  0  0
 47 46  1  0  0  0  0
 48 40  1  0  0  0  0
 48 38  1  0  0  0  0
 49 50  1  0  0  0  0
 52 61  1  1  0  0  0
 53 51  1  6  0  0  0
 53 52  1  0  0  0  0
 54 56  1  0  0  0  0
 54 55  1  0  0  0  0
 55 52  1  0  0  0  0
 56 50  1  1  0  0  0
 56 53  1  0  0  0  0
 58 60  1  0  0  0  0
 59 58  1  0  0  0  0
 59 60  1  0  0  0  0
 60 57  1  0  0  0  0
 60 62  1  0  0  0  0
 61 58  1  0  0  0  0
 61 63  2  0  0  0  0
 64 59  1  0  0  0  0
 65 59  1  0  0  0  0
M  END
>  <MODEL>
8

>  <REMARK>
 VINA RESULT:      -5.1      3.317      8.835
  Name = 
  22 active torsions:
  status: ('A' for Active; 'I' for Inactive)
    1  A    between atoms: C_2  and  C_36
    2  A    between atoms: C_8  and  C_9
    3  A    between atoms: C_10  and  O_32
    4  A    between atoms: C_11  and  C_27
    5  A    between atoms: C_11  and  C_48
    6  A    between atoms: C_12  and  C_33
    7  A    between atoms: C_12  and  C_50
    8  A    between atoms: C_14  and  C_43
    9  A    between atoms: C_14  and  C_52
   10  A    between atoms: C_18  and  C_21
   11  A    between atoms: C_18  and  N_54
   12  A    between atoms: N_20  and  C_29
   13  A    between atoms: C_21  and  C_50
   14  A    between atoms: C_21  and  C_52
   15  A    between atoms: C_27  and  C_62
   16  A    between atoms: C_29  and  N_58
   17  A    between atoms: O_32  and  C_40
   18  A    between atoms: C_33  and  N_58
   19  A    between atoms: N_39  and  C_48
   20  A    between atoms: C_42  and  N_54
   21  A    between atoms: C_46  and  C_57
   22  A    between atoms: C_57  and  C_60
                            x       y       z     vdW  Elec       q    Type
                         _______ _______ _______ _____ _____    ______ ____

>  <TORSDO>
F 22

$$$$
=
 OpenBabel10222415163D

 65 72  0  0  1  0  0  0  0  0999 V2000
  187.6600  178.9210  141.0140 C   0  0  2  0  0  3  0  0  0  0  0  0
  186.3950  178.6110  141.8060 C   0  0  0  0  0  2  0  0  0  0  0  0
  185.2380  178.3000  140.8720 C   0  0  0  0  0  2  0  0  0  0  0  0
  183.9790  178.9750  141.3800 C   0  0  0  0  0  2  0  0  0  0  0  0
  182.8870  178.0130  141.4150 N   0  0  0  0  0  2  0  0  0  0  0  0
  181.6200  178.7320  141.3590 C   0  0  1  0  0  0  0  0  0  0  0  0
  180.4940  177.7930  141.3460 N   0  0  0  0  0  2  0  0  0  0  0  0
  180.7100  178.6940  142.4950 C   0  0  0  0  0  2  0  0  0  0  0  0
  181.4550  179.7500  140.3230 N   0  0  0  0  0  0  0  0  0  0  0  0
  181.3520  179.5140  139.0490 C   0  0  0  0  0  0  0  0  0  0  0  0
  180.6610  180.5820  136.7940 N   0  0  0  0  0  0  0  0  0  0  0  0
  181.5270  181.8950  138.3640 C   0  0  0  0  0  3  0  0  0  0  0  0
  179.9880  179.4460  136.1890 C   0  0  0  0  0  1  0  0  0  0  0  0
  181.1910  182.6320  137.2340 O   0  0  0  0  0  0  0  0  0  0  0  0
  181.1990  180.6450  138.1080 C   0  0  0  0  0  0  0  0  0  0  0  0
  180.6250  181.8640  136.2320 N   0  0  0  0  0  2  0  0  0  0  0  0
  182.7670  177.8690  137.9800 N   0  0  0  0  0  1  0  0  0  0  0  0
  181.4370  178.1150  138.5090 C   0  0  0  0  0  2  0  0  0  0  0  0
  187.9680  177.7560  140.0850 C   0  0  0  0  0  2  0  0  0  0  0  0
  188.5940  178.2610  138.7930 C   0  0  0  0  0  2  0  0  0  0  0  0
  189.4250  177.3990  136.6580 C   0  0  0  0  0  0  0  0  0  0  0  0
  188.1300  174.6240  136.1390 C   0  0  0  0  0  0  0  0  0  0  0  0
  189.7740  178.6850  136.3780 F   0  0  0  0  0  0  0  0  0  0  0  0
  188.8660  175.3510  135.3050 C   0  0  0  0  0  3  0  0  0  0  0  0
  188.2180  174.7060  137.6010 C   0  0  0  0  0  3  0  0  0  0  0  0
  189.7690  176.3840  135.7040 N   0  0  0  0  0  0  0  0  0  0  0  0
  188.8570  177.1320  137.8440 C   0  0  0  0  0  0  0  0  0  0  0  0
  188.5300  175.7780  138.3270 C   0  0  0  0  0  3  0  0  0  0  0  0
  187.3030  173.5910  135.5820 C   0  0  0  0  0  0  0  0  0  0  0  0
  186.6070  172.7210  135.1180 C   0  0  0  0  0  0  0  0  0  0  0  0
  185.8220  171.7310  134.5950 O   0  0  0  0  0  0  0  0  0  0  0  0
  184.4190  171.7180  134.8120 C   0  0  0  0  0  2  0  0  0  0  0  0
  184.0740  170.8710  136.0250 C   0  0  0  0  0  1  0  0  0  0  0  0
  190.8880  176.6350  134.8120 C   0  0  0  0  0  2  0  0  0  0  0  0
  191.9080  175.5070  134.9440 C   0  0  0  0  0  2  0  0  0  0  0  0
  192.4460  174.8620  137.4270 C   0  0  0  0  0  2  0  0  0  0  0  0
  192.2840  176.3780  137.3580 C   0  0  0  0  0  2  0  0  0  0  0  0
  192.8240  175.6150  136.1690 C   0  0  0  0  0  0  0  0  0  0  0  0
  196.2030  176.7280  135.6280 N   0  0  0  0  0  0  0  0  0  0  0  0
  195.1970  174.7890  136.0260 N   0  0  0  0  0  0  0  0  0  0  0  0
  195.0360  173.3570  136.2540 C   0  0  0  0  0  2  0  0  0  0  0  0
  197.6610  174.6690  135.8740 C   0  0  0  0  0  2  0  0  0  0  0  0
  198.6660  172.5550  136.0100 C   0  0  0  0  0  1  0  0  0  0  0  0
  196.3610  175.4030  135.7960 C   0  0  0  0  0  0  0  0  0  0  0  0
  194.8960  176.9640  135.7190 N   0  0  0  0  0  0  0  0  0  0  0  0
  196.4030  172.7450  136.5940 C   0  0  0  0  0  2  0  0  0  0  0  0
  197.4310  173.2330  135.6620 N   0  0  0  0  0  0  0  0  0  0  0  0
  194.2920  175.7780  135.9420 C   0  0  0  0  0  0  0  0  0  0  0  0
  188.8380  179.1180  141.9550 C   0  0  0  0  0  2  0  0  0  0  0  0
  189.3210  177.8340  142.4370 N   0  0  0  0  0  2  0  0  0  0  0  0
  191.8820  179.4190  144.1630 O   0  0  0  0  0  1  0  0  0  0  0  0
  191.6670  177.1340  144.8190 C   0  0  2  0  0  3  0  0  0  0  0  0
  191.0250  178.3200  144.1050 C   0  0  2  0  0  3  0  0  0  0  0  0
  191.4350  176.6550  142.3310 C   0  0  0  0  0  2  0  0  0  0  0  0
  191.3760  175.6390  143.8250 S   0  0  0  0  0  0  0  0  0  0  0  0
  190.7530  177.9690  142.6490 C   0  0  1  0  0  3  0  0  0  0  0  0
  188.3420  175.8340  148.0850 C   0  0  0  0  0  1  0  0  0  0  0  0
  189.7780  177.1590  146.5370 N   0  0  0  0  0  0  0  0  0  0  0  0
  188.3580  177.4750  146.1910 C   0  0  0  0  0  0  0  0  0  0  0  0
  188.6440  177.2110  147.5180 C   0  0  0  0  0  0  0  0  0  0  0  0
  191.1560  176.9640  146.2240 C   0  0  0  0  0  0  0  0  0  0  0  0
  188.8050  178.3670  148.4910 C   0  0  0  0  0  1  0  0  0  0  0  0
  191.9660  176.7290  147.1590 O   0  0  0  0  0  0  0  0  0  0  0  0
  187.7780  176.4840  145.3980 O   0  0  0  0  0  1  0  0  0  0  0  0
  188.2050  178.7970  145.7650 O   0  0  0  0  0  1  0  0  0  0  0  0
  1 19  1  6  0  0  0
  1  2  1  0  0  0  0
  1 49  1  0  0  0  0
  3  4  1  0  0  0  0
  3  2  1  0  0  0  0
  4  5  1  0  0  0  0
  6  9  1  6  0  0  0
  6  5  1  0  0  0  0
  6  8  1  0  0  0  0
  7  6  1  0  0  0  0
  7  8  1  0  0  0  0
 10  9  2  0  0  0  0
 11 15  1  0  0  0  0
 13 11  1  0  0  0  0
 14 12  1  0  0  0  0
 15 12  2  0  0  0  0
 15 10  1  0  0  0  0
 16 11  1  0  0  0  0
 16 14  1  0  0  0  0
 17 18  1  0  0  0  0
 18 10  1  0  0  0  0
 20 19  1  0  0  0  0
 21 27  2  0  0  0  0
 22 25  1  0  0  0  0
 23 21  1  0  0  0  0
 24 26  1  0  0  0  0
 24 22  2  0  0  0  0
 25 28  2  0  0  0  0
 26 21  1  0  0  0  0
 27 28  1  0  0  0  0
 27 20  1  0  0  0  0
 29 22  1  0  0  0  0
 30 29  3  0  0  0  0
 31 32  1  0  0  0  0
 31 30  1  0  0  0  0
 32 33  1  0  0  0  0
 34 35  1  0  0  0  0
 34 26  1  0  0  0  0
 35 38  1  0  0  0  0
 37 36  1  0  0  0  0
 38 37  1  0  0  0  0
 38 36  1  0  0  0  0
 39 45  1  0  0  0  0
 39 44  2  0  0  0  0
 40 41  1  0  0  0  0
 41 46  1  0  0  0  0
 44 42  1  0  0  0  0
 44 40  1  0  0  0  0
 45 48  2  0  0  0  0
 47 42  1  0  0  0  0
 47 43  1  0  0  0  0
 47 46  1  0  0  0  0
 48 40  1  0  0  0  0
 48 38  1  0  0  0  0
 49 50  1  0  0  0  0
 52 61  1  1  0  0  0
 53 51  1  6  0  0  0
 53 52  1  0  0  0  0
 54 56  1  0  0  0  0
 54 55  1  0  0  0  0
 55 52  1  0  0  0  0
 56 50  1  1  0  0  0
 56 53  1  0  0  0  0
 58 60  1  0  0  0  0
 59 58  1  0  0  0  0
 59 60  1  0  0  0  0
 60 57  1  0  0  0  0
 60 62  1  0  0  0  0
 61 58  1  0  0  0  0
 61 63  2  0  0  0  0
 64 59  1  0  0  0  0
 65 59  1  0  0  0  0
M  END
>  <MODEL>
9

>  <REMARK>
 VINA RESULT:      -5.0      3.507      9.076
  Name = 
  22 active torsions:
  status: ('A' for Active; 'I' for Inactive)
    1  A    between atoms: C_2  and  C_36
    2  A    between atoms: C_8  and  C_9
    3  A    between atoms: C_10  and  O_32
    4  A    between atoms: C_11  and  C_27
    5  A    between atoms: C_11  and  C_48
    6  A    between atoms: C_12  and  C_33
    7  A    between atoms: C_12  and  C_50
    8  A    between atoms: C_14  and  C_43
    9  A    between atoms: C_14  and  C_52
   10  A    between atoms: C_18  and  C_21
   11  A    between atoms: C_18  and  N_54
   12  A    between atoms: N_20  and  C_29
   13  A    between atoms: C_21  and  C_50
   14  A    between atoms: C_21  and  C_52
   15  A    between atoms: C_27  and  C_62
   16  A    between atoms: C_29  and  N_58
   17  A    between atoms: O_32  and  C_40
   18  A    between atoms: C_33  and  N_58
   19  A    between atoms: N_39  and  C_48
   20  A    between atoms: C_42  and  N_54
   21  A    between atoms: C_46  and  C_57
   22  A    between atoms: C_57  and  C_60
                            x       y       z     vdW  Elec       q    Type
                         _______ _______ _______ _____ _____    ______ ____

>  <TORSDO>
F 22

$$$$
