=
 OpenBabel10222419073D

 48 52  0  0  1  0  0  0  0  0999 V2000
  187.4170  179.0560  141.8470 F   0  0  0  0  0  0  0  0  0  0  0  0
  180.4800  178.7600  142.3740 C   0  0  0  0  0  3  0  0  0  0  0  0
  186.7170  178.7190  140.7340 C   0  0  0  0  0  0  0  0  0  0  0  0
  187.3890  178.3930  139.5460 C   0  0  0  0  0  0  0  0  0  0  0  0
  181.0660  178.5120  141.1310 C   0  0  0  0  0  0  0  0  0  0  0  0
  185.2620  178.0190  138.4470 C   0  0  0  0  0  2  0  0  0  0  0  0
  185.3180  178.6800  140.7800 C   0  0  0  0  0  0  0  0  0  0  0  0
  184.6590  178.9780  141.9710 O   0  0  0  0  0  0  0  0  0  0  0  0
  181.2700  179.0810  143.4750 C   0  0  0  0  0  3  0  0  0  0  0  0
  184.5880  178.3290  139.6330 C   0  0  0  0  0  0  0  0  0  0  0  0
  183.2690  178.9010  142.1100 C   0  0  0  0  0  0  0  0  0  0  0  0
  182.6620  179.1500  143.3640 C   0  0  0  0  0  0  0  0  0  0  0  0
  186.6590  178.0490  138.4030 C   0  0  0  0  0  3  0  0  0  0  0  0
  182.4680  178.5770  140.9920 C   0  0  0  0  0  0  0  0  0  0  0  0
  183.0910  178.2860  139.6490 C   0  0  0  0  0  3  0  0  0  0  0  0
  179.1850  178.7480  137.8740 O   0  0  0  0  0  0  0  0  0  0  0  0
  179.9640  179.1150  138.9660 C   0  0  0  0  0  0  0  0  0  0  0  0
  180.2250  178.1750  140.0200 N   0  0  0  0  0  0  0  0  0  0  0  0
  180.4320  180.2850  139.0240 O   0  0  0  0  0  1  0  0  0  0  0  0
  179.6380  176.8420  139.9720 C   0  0  0  0  0  2  0  0  0  0  0  0
  180.7430  175.7900  139.9220 C   0  0  0  0  0  2  0  0  0  0  0  0
  183.0040  174.9350  136.8800 C   0  0  0  0  0  2  0  0  0  0  0  0
  182.6190  175.1860  138.3440 C   0  0  0  0  0  2  0  0  0  0  0  0
  181.1110  175.4060  138.4930 C   0  0  0  0  0  3  0  0  0  0  0  0
  181.9050  174.2440  136.0620 C   0  0  0  0  0  2  0  0  0  0  0  0
  180.2920  174.2010  138.0000 C   0  0  0  0  0  2  0  0  0  0  0  0
  181.0220  173.3640  136.9420 C   0  0  0  0  0  2  0  0  0  0  0  0
  183.3820  179.4750  144.5250 O   0  0  0  0  0  0  0  0  0  0  0  0
  185.5730  178.7630  145.2320 C   0  0  0  0  0  1  0  0  0  0  0  0
  184.0750  178.5430  145.3450 C   0  0  0  0  0  2  0  0  0  0  0  0
  188.8810  178.4090  139.4860 C   0  0  0  0  0  2  0  0  0  0  0  0
  189.9800  176.5950  138.3710 O   0  0  0  0  0  1  0  0  0  0  0  0
  189.4490  176.9950  139.6000 C   0  0  1  0  0  3  0  0  0  0  0  0
  191.8120  177.3560  140.1710 N   0  0  0  0  0  1  0  0  0  0  0  0
  190.5270  176.9050  140.6830 C   0  0  1  0  0  3  0  0  0  0  0  0
  190.1600  177.7270  141.9080 C   0  0  0  0  0  2  0  0  0  0  0  0
  190.2200  176.8920  143.1850 C   0  0  1  0  0  3  0  0  0  0  0  0
  189.8510  177.7240  144.4200 C   0  0  2  0  0  3  0  0  0  0  0  0
  190.3820  179.0180  144.3550 O   0  0  0  0  0  1  0  0  0  0  0  0
  190.2220  177.0290  145.7370 C   0  0  1  0  0  3  0  0  0  0  0  0
  191.6800  176.5760  145.7550 C   0  0  0  0  0  2  0  0  0  0  0  0
  192.0940  175.8260  147.3610 S   0  0  0  0  0  1  0  0  0  0  0  0
  189.9740  177.8870  146.8130 O   0  0  0  0  0  0  0  0  0  0  0  0
  188.2950  176.7370  148.0300 C   0  0  0  0  0  2  0  0  0  0  0  0
  188.2750  178.1930  148.4510 C   0  0  0  0  0  2  0  0  0  0  0  0
  188.5940  177.8220  147.0150 C   0  0  0  0  0  3  0  0  0  0  0  0
  188.0820  176.3200  143.3100 C   0  0  0  0  0  1  0  0  0  0  0  0
  189.3580  175.7980  143.0760 O   0  0  0  0  0  0  0  0  0  0  0  0
  2  9  1  0  0  0  0
  3  7  2  0  0  0  0
  3  1  1  0  0  0  0
  4  3  1  0  0  0  0
  5  2  2  0  0  0  0
  6 10  1  0  0  0  0
  7  8  1  0  0  0  0
  8 11  1  0  0  0  0
 10 15  2  0  0  0  0
 10  7  1  0  0  0  0
 11 12  1  0  0  0  0
 12  9  2  0  0  0  0
 12 28  1  0  0  0  0
 13  6  1  0  0  0  0
 13  4  2  0  0  0  0
 14  5  1  0  0  0  0
 14 11  2  0  0  0  0
 15 14  1  0  0  0  0
 16 17  2  0  0  0  0
 17 19  1  0  0  0  0
 17 18  1  0  0  0  0
 18  5  1  0  0  0  0
 20 18  1  0  0  0  0
 21 20  1  0  0  0  0
 22 23  1  0  0  0  0
 23 24  1  0  0  0  0
 24 21  1  0  0  0  0
 25 22  1  0  0  0  0
 25 27  1  0  0  0  0
 26 24  1  0  0  0  0
 27 26  1  0  0  0  0
 28 30  1  0  0  0  0
 29 30  1  0  0  0  0
 31  4  1  0  0  0  0
 31 33  1  0  0  0  0
 33 32  1  6  0  0  0
 33 35  1  0  0  0  0
 35 34  1  6  0  0  0
 35 36  1  0  0  0  0
 37 36  1  6  0  0  0
 37 38  1  0  0  0  0
 38 39  1  6  0  0  0
 38 40  1  0  0  0  0
 40 41  1  6  0  0  0
 40 43  1  0  0  0  0
 41 42  1  0  0  0  0
 43 46  1  0  0  0  0
 44 45  1  0  0  0  0
 46 44  1  0  0  0  0
 46 45  1  0  0  0  0
 48 37  1  0  0  0  0
 48 47  1  0  0  0  0
M  END
>  <MODEL>
1

>  <REMARK>
 VINA RESULT:      -7.5      0.000      0.000
  Name = 
  17 active torsions:
  status: ('A' for Active; 'I' for Inactive)
    1  A    between atoms: C_1  and  C_6
    2  A    between atoms: C_1  and  C_22
    3  A    between atoms: C_3  and  C_22
    4  A    between atoms: C_6  and  C_9
    5  A    between atoms: C_6  and  O_48
    6  A    between atoms: C_7  and  C_26
    7  A    between atoms: O_8  and  C_22
    8  A    between atoms: O_8  and  C_41
    9  A    between atoms: C_9  and  C_45
   10  A    between atoms: C_15  and  C_18
   11  A    between atoms: C_15  and  C_47
   12  A    between atoms: O_20  and  C_24
   13  A    between atoms: O_20  and  C_39
   14  A    between atoms: C_21  and  N_34
   15  A    between atoms: C_26  and  C_44
   16  A    between atoms: N_34  and  C_44
   17  A    between atoms: C_45  and  C_47
                            x       y       z     vdW  Elec       q    Type
                         _______ _______ _______ _____ _____    ______ ____

>  <TORSDO>
F 17

$$$$
=
 OpenBabel10222419073D

 48 52  0  0  1  0  0  0  0  0999 V2000
  186.8610  178.9750  141.6650 F   0  0  0  0  0  0  0  0  0  0  0  0
  179.9300  178.5280  141.1770 C   0  0  0  0  0  3  0  0  0  0  0  0
  186.3360  178.6610  140.4540 C   0  0  0  0  0  0  0  0  0  0  0  0
  187.1800  178.3850  139.3660 C   0  0  0  0  0  0  0  0  0  0  0  0
  180.6940  178.3320  140.0250 C   0  0  0  0  0  0  0  0  0  0  0  0
  185.2420  178.0060  137.9620 C   0  0  0  0  0  2  0  0  0  0  0  0
  184.9470  178.5930  140.2960 C   0  0  0  0  0  0  0  0  0  0  0  0
  184.1160  178.8400  141.3880 O   0  0  0  0  0  0  0  0  0  0  0  0
  180.5450  178.8300  142.3890 C   0  0  0  0  0  3  0  0  0  0  0  0
  184.3970  178.2650  139.0460 C   0  0  0  0  0  0  0  0  0  0  0  0
  182.7230  178.7320  141.3220 C   0  0  0  0  0  0  0  0  0  0  0  0
  181.9360  178.9290  142.4820 C   0  0  0  0  0  0  0  0  0  0  0  0
  186.6300  178.0640  138.1210 C   0  0  0  0  0  3  0  0  0  0  0  0
  182.0990  178.4290  140.0920 C   0  0  0  0  0  0  0  0  0  0  0  0
  182.9150  178.1920  138.8450 C   0  0  0  0  0  3  0  0  0  0  0  0
  179.2400  176.3720  137.1530 O   0  0  0  0  0  0  0  0  0  0  0  0
  179.9330  176.6610  138.3230 C   0  0  0  0  0  0  0  0  0  0  0  0
  180.0290  178.0140  138.7950 N   0  0  0  0  0  0  0  0  0  0  0  0
  180.4830  175.7230  138.9610 O   0  0  0  0  0  1  0  0  0  0  0  0
  179.4360  179.1000  138.0250 C   0  0  0  0  0  2  0  0  0  0  0  0
  180.4680  179.6750  137.0580 C   0  0  0  0  0  2  0  0  0  0  0  0
  180.8780  183.5090  137.5380 C   0  0  0  0  0  2  0  0  0  0  0  0
  181.1840  182.0130  137.6860 C   0  0  0  0  0  2  0  0  0  0  0  0
  180.2580  181.1650  136.8100 C   0  0  0  0  0  3  0  0  0  0  0  0
  180.3420  183.8950  136.1520 C   0  0  0  0  0  2  0  0  0  0  0  0
  180.3830  181.5150  135.3170 C   0  0  0  0  0  2  0  0  0  0  0  0
  180.8600  182.9520  135.0690 C   0  0  0  0  0  2  0  0  0  0  0  0
  182.4740  179.2310  143.7440 O   0  0  0  0  0  0  0  0  0  0  0  0
  184.2340  178.8330  145.3420 C   0  0  0  0  0  1  0  0  0  0  0  0
  183.8520  179.4590  144.0130 C   0  0  0  0  0  2  0  0  0  0  0  0
  188.6640  178.4320  139.5220 C   0  0  0  0  0  2  0  0  0  0  0  0
  189.8620  176.6890  138.3980 O   0  0  0  0  0  1  0  0  0  0  0  0
  189.2510  177.0240  139.6080 C   0  0  1  0  0  3  0  0  0  0  0  0
  191.5800  177.3470  140.3220 N   0  0  0  0  0  1  0  0  0  0  0  0
  190.2630  176.9030  140.7500 C   0  0  1  0  0  3  0  0  0  0  0  0
  189.8350  177.7080  141.9670 C   0  0  0  0  0  2  0  0  0  0  0  0
  189.9700  176.8980  143.2540 C   0  0  1  0  0  3  0  0  0  0  0  0
  189.7710  177.7780  144.4960 C   0  0  2  0  0  3  0  0  0  0  0  0
  190.4350  179.0050  144.3780 O   0  0  0  0  0  1  0  0  0  0  0  0
  190.1440  177.0580  145.7990 C   0  0  1  0  0  3  0  0  0  0  0  0
  191.6530  176.8690  145.9370 C   0  0  0  0  0  2  0  0  0  0  0  0
  192.0360  175.8560  147.4010 S   0  0  0  0  0  1  0  0  0  0  0  0
  189.6480  177.7730  146.8940 O   0  0  0  0  0  0  0  0  0  0  0  0
  188.0110  177.5870  148.6000 C   0  0  0  0  0  2  0  0  0  0  0  0
  187.3560  178.1960  147.3760 C   0  0  0  0  0  2  0  0  0  0  0  0
  188.4410  177.1480  147.2150 C   0  0  0  0  0  3  0  0  0  0  0  0
  187.8020  176.4790  143.4530 C   0  0  0  0  0  1  0  0  0  0  0  0
  189.0380  175.8570  143.2580 O   0  0  0  0  0  0  0  0  0  0  0  0
  2  9  1  0  0  0  0
  3  1  1  0  0  0  0
  4 31  1  0  0  0  0
  4  3  1  0  0  0  0
  5 14  1  0  0  0  0
  5  2  2  0  0  0  0
  6 13  1  0  0  0  0
  6 10  1  0  0  0  0
  7  3  2  0  0  0  0
  7  8  1  0  0  0  0
  9 12  2  0  0  0  0
 10  7  1  0  0  0  0
 11  8  1  0  0  0  0
 11 12  1  0  0  0  0
 12 28  1  0  0  0  0
 13  4  2  0  0  0  0
 14 11  2  0  0  0  0
 15 10  2  0  0  0  0
 15 14  1  0  0  0  0
 16 17  2  0  0  0  0
 17 18  1  0  0  0  0
 17 19  1  0  0  0  0
 18  5  1  0  0  0  0
 20 18  1  0  0  0  0
 21 20  1  0  0  0  0
 22 23  1  0  0  0  0
 24 21  1  0  0  0  0
 24 23  1  0  0  0  0
 25 22  1  0  0  0  0
 26 24  1  0  0  0  0
 27 26  1  0  0  0  0
 27 25  1  0  0  0  0
 28 30  1  0  0  0  0
 30 29  1  0  0  0  0
 31 33  1  0  0  0  0
 33 32  1  6  0  0  0
 33 35  1  0  0  0  0
 35 34  1  6  0  0  0
 35 36  1  0  0  0  0
 37 36  1  6  0  0  0
 37 48  1  0  0  0  0
 37 38  1  0  0  0  0
 38 39  1  6  0  0  0
 38 40  1  0  0  0  0
 40 41  1  1  0  0  0
 40 43  1  0  0  0  0
 41 42  1  0  0  0  0
 43 46  1  0  0  0  0
 45 44  1  0  0  0  0
 46 45  1  0  0  0  0
 46 44  1  0  0  0  0
 48 47  1  0  0  0  0
M  END
>  <MODEL>
2

>  <REMARK>
 VINA RESULT:      -7.5      1.866      3.244
  Name = 
  17 active torsions:
  status: ('A' for Active; 'I' for Inactive)
    1  A    between atoms: C_1  and  C_6
    2  A    between atoms: C_1  and  C_22
    3  A    between atoms: C_3  and  C_22
    4  A    between atoms: C_6  and  C_9
    5  A    between atoms: C_6  and  O_48
    6  A    between atoms: C_7  and  C_26
    7  A    between atoms: O_8  and  C_22
    8  A    between atoms: O_8  and  C_41
    9  A    between atoms: C_9  and  C_45
   10  A    between atoms: C_15  and  C_18
   11  A    between atoms: C_15  and  C_47
   12  A    between atoms: O_20  and  C_24
   13  A    between atoms: O_20  and  C_39
   14  A    between atoms: C_21  and  N_34
   15  A    between atoms: C_26  and  C_44
   16  A    between atoms: N_34  and  C_44
   17  A    between atoms: C_45  and  C_47
                            x       y       z     vdW  Elec       q    Type
                         _______ _______ _______ _____ _____    ______ ____

>  <TORSDO>
F 17

$$$$
=
 OpenBabel10222419073D

 48 52  0  0  1  0  0  0  0  0999 V2000
  187.3080  178.5930  141.0680 F   0  0  0  0  0  0  0  0  0  0  0  0
  180.6320  178.1490  139.1410 C   0  0  0  0  0  3  0  0  0  0  0  0
  187.0480  178.3260  139.7640 C   0  0  0  0  0  0  0  0  0  0  0  0
  188.1010  178.0980  138.8640 C   0  0  0  0  0  0  0  0  0  0  0  0
  181.6190  178.0020  138.1650 C   0  0  0  0  0  0  0  0  0  0  0  0
  186.4990  177.7710  137.0750 C   0  0  0  0  0  2  0  0  0  0  0  0
  185.7220  178.2620  139.3200 C   0  0  0  0  0  0  0  0  0  0  0  0
  184.6810  178.4620  140.2250 O   0  0  0  0  0  0  0  0  0  0  0  0
  180.9800  178.4020  140.4660 C   0  0  0  0  0  3  0  0  0  0  0  0
  185.4460  177.9830  137.9710 C   0  0  0  0  0  0  0  0  0  0  0  0
  183.3330  178.3540  139.8690 C   0  0  0  0  0  0  0  0  0  0  0  0
  182.3210  178.5010  140.8480 C   0  0  0  0  0  0  0  0  0  0  0  0
  187.8230  177.8270  137.5200 C   0  0  0  0  0  3  0  0  0  0  0  0
  182.9790  178.0990  138.5250 C   0  0  0  0  0  0  0  0  0  0  0  0
  184.0380  177.9150  137.4650 C   0  0  0  0  0  3  0  0  0  0  0  0
  180.5240  176.1660  135.0610 O   0  0  0  0  0  0  0  0  0  0  0  0
  180.9520  176.3960  136.3640 C   0  0  0  0  0  0  0  0  0  0  0  0
  181.2260  177.7330  136.8130 N   0  0  0  0  0  0  0  0  0  0  0  0
  181.1040  175.4180  137.1450 O   0  0  0  0  0  1  0  0  0  0  0  0
  181.0990  178.8530  135.8900 C   0  0  0  0  0  2  0  0  0  0  0  0
  179.7410  179.5260  136.0750 C   0  0  0  0  0  2  0  0  0  0  0  0
  180.9580  182.8990  137.5730 C   0  0  0  0  0  2  0  0  0  0  0  0
  180.9300  181.3900  137.2940 C   0  0  0  0  0  2  0  0  0  0  0  0
  179.8640  181.0350  136.2530 C   0  0  0  0  0  3  0  0  0  0  0  0
  180.5530  183.7570  136.3660 C   0  0  0  0  0  2  0  0  0  0  0  0
  180.0990  181.7480  134.9100 C   0  0  0  0  0  2  0  0  0  0  0  0
  180.8810  183.0610  135.0480 C   0  0  0  0  0  2  0  0  0  0  0  0
  182.5840  178.7520  142.2050 O   0  0  0  0  0  0  0  0  0  0  0  0
  181.0000  178.4020  143.9870 C   0  0  0  0  0  1  0  0  0  0  0  0
  181.6990  179.4150  143.1000 C   0  0  0  0  0  2  0  0  0  0  0  0
  189.5200  178.1420  139.3250 C   0  0  0  0  0  2  0  0  0  0  0  0
  190.5340  175.9840  139.0900 O   0  0  0  0  0  1  0  0  0  0  0  0
  189.9150  176.8340  140.0090 C   0  0  1  0  0  3  0  0  0  0  0  0
  192.1000  177.6710  140.7590 N   0  0  0  0  0  1  0  0  0  0  0  0
  190.8470  177.0780  141.1980 C   0  0  1  0  0  3  0  0  0  0  0  0
  190.2040  177.9810  142.2390 C   0  0  0  0  0  2  0  0  0  0  0  0
  190.3760  177.4250  143.6510 C   0  0  1  0  0  3  0  0  0  0  0  0
  189.0790  176.7890  144.1680 C   0  0  2  0  0  3  0  0  0  0  0  0
  188.5150  175.9160  143.2300 O   0  0  0  0  0  1  0  0  0  0  0  0
  188.0600  177.8300  144.6520 C   0  0  1  0  0  3  0  0  0  0  0  0
  186.6550  177.2430  144.7750 C   0  0  0  0  0  2  0  0  0  0  0  0
  185.4000  178.5280  144.4800 S   0  0  0  0  0  1  0  0  0  0  0  0
  188.4690  178.3580  145.8810 O   0  0  0  0  0  0  0  0  0  0  0  0
  189.3860  177.3670  147.8300 C   0  0  0  0  0  2  0  0  0  0  0  0
  188.0140  177.9090  148.1730 C   0  0  0  0  0  2  0  0  0  0  0  0
  188.2770  177.3240  146.7990 C   0  0  0  0  0  3  0  0  0  0  0  0
  191.5880  176.1660  145.0150 C   0  0  0  0  0  1  0  0  0  0  0  0
  191.4050  176.4800  143.6650 O   0  0  0  0  0  0  0  0  0  0  0  0
  2  9  1  0  0  0  0
  3  1  1  0  0  0  0
  4 31  1  0  0  0  0
  4  3  1  0  0  0  0
  5 14  1  0  0  0  0
  5  2  2  0  0  0  0
  6 13  1  0  0  0  0
  6 10  1  0  0  0  0
  7  3  2  0  0  0  0
  7  8  1  0  0  0  0
  9 12  2  0  0  0  0
 10  7  1  0  0  0  0
 11  8  1  0  0  0  0
 11 12  1  0  0  0  0
 12 28  1  0  0  0  0
 13  4  2  0  0  0  0
 14 11  2  0  0  0  0
 15 10  2  0  0  0  0
 15 14  1  0  0  0  0
 16 17  2  0  0  0  0
 17 18  1  0  0  0  0
 17 19  1  0  0  0  0
 18  5  1  0  0  0  0
 20 21  1  0  0  0  0
 20 18  1  0  0  0  0
 21 24  1  0  0  0  0
 23 22  1  0  0  0  0
 24 23  1  0  0  0  0
 25 22  1  0  0  0  0
 26 27  1  0  0  0  0
 26 24  1  0  0  0  0
 27 25  1  0  0  0  0
 28 30  1  0  0  0  0
 30 29  1  0  0  0  0
 31 33  1  0  0  0  0
 33 32  1  6  0  0  0
 33 35  1  0  0  0  0
 35 34  1  6  0  0  0
 35 36  1  0  0  0  0
 37 36  1  6  0  0  0
 37 48  1  0  0  0  0
 37 38  1  0  0  0  0
 38 39  1  6  0  0  0
 38 40  1  0  0  0  0
 40 41  1  1  0  0  0
 40 43  1  0  0  0  0
 42 41  1  0  0  0  0
 43 46  1  0  0  0  0
 44 45  1  0  0  0  0
 46 44  1  0  0  0  0
 46 45  1  0  0  0  0
 48 47  1  0  0  0  0
M  END
>  <MODEL>
3

>  <REMARK>
 VINA RESULT:      -7.1      2.501      4.033
  Name = 
  17 active torsions:
  status: ('A' for Active; 'I' for Inactive)
    1  A    between atoms: C_1  and  C_6
    2  A    between atoms: C_1  and  C_22
    3  A    between atoms: C_3  and  C_22
    4  A    between atoms: C_6  and  C_9
    5  A    between atoms: C_6  and  O_48
    6  A    between atoms: C_7  and  C_26
    7  A    between atoms: O_8  and  C_22
    8  A    between atoms: O_8  and  C_41
    9  A    between atoms: C_9  and  C_45
   10  A    between atoms: C_15  and  C_18
   11  A    between atoms: C_15  and  C_47
   12  A    between atoms: O_20  and  C_24
   13  A    between atoms: O_20  and  C_39
   14  A    between atoms: C_21  and  N_34
   15  A    between atoms: C_26  and  C_44
   16  A    between atoms: N_34  and  C_44
   17  A    between atoms: C_45  and  C_47
                            x       y       z     vdW  Elec       q    Type
                         _______ _______ _______ _____ _____    ______ ____

>  <TORSDO>
F 17

$$$$
=
 OpenBabel10222419073D

 48 52  0  0  1  0  0  0  0  0999 V2000
  188.0090  177.3790  137.7000 F   0  0  0  0  0  0  0  0  0  0  0  0
  181.1270  178.2150  137.0600 C   0  0  0  0  0  3  0  0  0  0  0  0
  187.3370  177.8840  138.7640 C   0  0  0  0  0  0  0  0  0  0  0  0
  188.0310  178.2680  139.9230 C   0  0  0  0  0  0  0  0  0  0  0  0
  181.7270  178.5340  138.2790 C   0  0  0  0  0  0  0  0  0  0  0  0
  185.9400  178.9310  140.9530 C   0  0  0  0  0  3  0  0  0  0  0  0
  185.9470  178.0380  138.6980 C   0  0  2  0  0  3  0  0  0  0  0  0
  185.2690  177.6800  137.5340 O   0  0  0  0  0  0  0  0  0  0  0  0
  181.8900  177.7190  136.0060 C   0  0  0  0  0  3  0  0  0  0  0  0
  185.2460  178.5630  139.7960 C   0  0  0  0  0  0  0  0  0  0  0  0
  183.8920  177.8620  137.3710 C   0  0  0  0  0  0  0  0  0  0  0  0
  183.2700  177.5420  136.1400 C   0  0  0  0  0  0  0  0  0  0  0  0
  187.3290  178.7850  141.0170 C   0  0  0  0  0  3  0  0  0  0  0  0
  183.1180  178.3630  138.4410 C   0  0  0  0  0  0  0  0  0  0  0  0
  183.7590  178.7330  139.7570 C   0  0  0  0  0  3  0  0  0  0  0  0
  179.5920  178.7170  141.3790 O   0  0  0  0  0  1  0  0  0  0  0  0
  180.3350  178.1860  140.3300 C   0  0  0  0  0  0  0  0  0  0  0  0
  180.9140  179.0510  139.3410 N   0  0  0  0  0  0  0  0  0  0  0  0
  180.4890  176.9370  140.2540 O   0  0  0  0  0  0  0  0  0  0  0  0
  180.6890  180.4890  139.4060 C   0  0  0  0  0  2  0  0  0  0  0  0
  179.5040  180.8710  138.5220 C   0  0  0  0  0  2  0  0  0  0  0  0
  181.4510  183.9060  137.0730 C   0  0  0  0  0  2  0  0  0  0  0  0
  181.1830  182.6610  137.9290 C   0  0  0  0  0  2  0  0  0  0  0  0
  179.8340  182.0250  137.5820 C   0  0  0  0  0  3  0  0  0  0  0  0
  180.8130  183.8440  135.6780 C   0  0  0  0  0  2  0  0  0  0  0  0
  179.7520  181.5960  136.1070 C   0  0  0  0  0  2  0  0  0  0  0  0
  180.6770  182.4050  135.1880 C   0  0  0  0  0  2  0  0  0  0  0  0
  183.9630  177.0420  135.0260 O   0  0  0  0  0  0  0  0  0  0  0  0
  185.3620  175.0890  135.2210 C   0  0  0  0  0  1  0  0  0  0  0  0
  184.0680  175.6680  134.6770 C   0  0  0  0  0  2  0  0  0  0  0  0
  189.5150  178.1300  140.0030 C   0  0  0  0  0  2  0  0  0  0  0  0
  190.5570  176.0090  139.6120 O   0  0  0  0  0  1  0  0  0  0  0  0
  189.9090  176.7740  140.5850 C   0  0  1  0  0  3  0  0  0  0  0  0
  190.8040  178.2990  142.2910 N   0  0  0  0  0  1  0  0  0  0  0  0
  190.8140  176.9260  141.8100 C   0  0  1  0  0  3  0  0  0  0  0  0
  190.3910  175.9980  142.9370 C   0  0  0  0  0  2  0  0  0  0  0  0
  189.8270  176.7740  144.1250 C   0  0  1  0  0  3  0  0  0  0  0  0
  188.3140  176.5600  144.2700 C   0  0  2  0  0  3  0  0  0  0  0  0
  187.7420  176.0630  143.0920 O   0  0  0  0  0  1  0  0  0  0  0  0
  187.5820  177.8140  144.7670 C   0  0  1  0  0  3  0  0  0  0  0  0
  186.1070  177.5410  145.0530 C   0  0  0  0  0  2  0  0  0  0  0  0
  185.0890  178.9680  144.5610 S   0  0  0  0  0  1  0  0  0  0  0  0
  188.2110  178.3060  145.9150 O   0  0  0  0  0  0  0  0  0  0  0  0
  188.7250  177.3660  148.0290 C   0  0  0  0  0  2  0  0  0  0  0  0
  187.6530  178.4190  148.2250 C   0  0  0  0  0  2  0  0  0  0  0  0
  187.6630  177.5720  146.9680 C   0  0  0  0  0  3  0  0  0  0  0  0
  191.7660  176.9080  145.1920 C   0  0  0  0  0  1  0  0  0  0  0  0
  190.4750  176.3810  145.2990 O   0  0  0  0  0  0  0  0  0  0  0  0
  1  3  1  0  0  0  0
  2  5  1  0  0  0  0
  3  4  2  0  0  0  0
  4 31  1  0  0  0  0
  4 13  1  0  0  0  0
  5 14  2  0  0  0  0
  5 18  1  0  0  0  0
  6 13  2  0  0  0  0
  7  8  1  6  0  0  0
  7  3  1  0  0  0  0
  7 10  1  0  0  0  0
  9 12  1  0  0  0  0
  9  2  2  0  0  0  0
 10  6  1  0  0  0  0
 11  8  1  0  0  0  0
 11 14  1  0  0  0  0
 12 11  2  0  0  0  0
 14 15  1  0  0  0  0
 15 10  2  0  0  0  0
 17 16  1  0  0  0  0
 18 20  1  0  0  0  0
 18 17  1  0  0  0  0
 19 17  2  0  0  0  0
 21 20  1  0  0  0  0
 22 23  1  0  0  0  0
 24 23  1  0  0  0  0
 24 21  1  0  0  0  0
 25 22  1  0  0  0  0
 26 24  1  0  0  0  0
 27 25  1  0  0  0  0
 27 26  1  0  0  0  0
 28 12  1  0  0  0  0
 30 28  1  0  0  0  0
 30 29  1  0  0  0  0
 31 33  1  0  0  0  0
 33 32  1  6  0  0  0
 33 35  1  0  0  0  0
 35 34  1  1  0  0  0
 35 36  1  0  0  0  0
 37 36  1  6  0  0  0
 37 38  1  0  0  0  0
 37 48  1  0  0  0  0
 38 39  1  6  0  0  0
 38 40  1  0  0  0  0
 40 41  1  1  0  0  0
 40 43  1  0  0  0  0
 42 41  1  0  0  0  0
 43 46  1  0  0  0  0
 44 45  1  0  0  0  0
 46 44  1  0  0  0  0
 46 45  1  0  0  0  0
 47 48  1  0  0  0  0
M  END
>  <MODEL>
4

>  <REMARK>
 VINA RESULT:      -6.8      2.827      5.118
  Name = 
  17 active torsions:
  status: ('A' for Active; 'I' for Inactive)
    1  A    between atoms: C_1  and  C_6
    2  A    between atoms: C_1  and  C_22
    3  A    between atoms: C_3  and  C_22
    4  A    between atoms: C_6  and  C_9
    5  A    between atoms: C_6  and  O_48
    6  A    between atoms: C_7  and  C_26
    7  A    between atoms: O_8  and  C_22
    8  A    between atoms: O_8  and  C_41
    9  A    between atoms: C_9  and  C_45
   10  A    between atoms: C_15  and  C_18
   11  A    between atoms: C_15  and  C_47
   12  A    between atoms: O_20  and  C_24
   13  A    between atoms: O_20  and  C_39
   14  A    between atoms: C_21  and  N_34
   15  A    between atoms: C_26  and  C_44
   16  A    between atoms: N_34  and  C_44
   17  A    between atoms: C_45  and  C_47
                            x       y       z     vdW  Elec       q    Type
                         _______ _______ _______ _____ _____    ______ ____

>  <TORSDO>
F 17

$$$$
=
 OpenBabel10222419073D

 48 52  0  0  1  0  0  0  0  0999 V2000
  183.2280  178.6320  145.4370 F   0  0  0  0  0  0  0  0  0  0  0  0
  189.9030  177.1810  144.0880 C   0  0  0  0  0  3  0  0  0  0  0  0
  183.6190  178.6300  144.1380 C   0  0  0  0  0  0  0  0  0  0  0  0
  182.7090  178.9650  143.1230 C   0  0  0  0  0  0  0  0  0  0  0  0
  189.0400  177.4110  143.0150 C   0  0  0  0  0  0  0  0  0  0  0  0
  184.4410  178.6300  141.4620 C   0  0  0  0  0  2  0  0  0  0  0  0
  184.9430  178.3100  143.8130 C   0  0  0  0  0  0  0  0  0  0  0  0
  185.8480  178.0060  144.8280 O   0  0  0  0  0  0  0  0  0  0  0  0
  189.4270  177.2190  145.3970 C   0  0  0  0  0  3  0  0  0  0  0  0
  185.3550  178.3100  142.4700 C   0  0  0  0  0  0  0  0  0  0  0  0
  187.1990  177.7360  144.5860 C   0  0  0  0  0  0  0  0  0  0  0  0
  188.0850  177.5000  145.6640 C   0  0  0  0  0  0  0  0  0  0  0  0
  183.1210  178.9580  141.7870 C   0  0  0  0  0  3  0  0  0  0  0  0
  187.6800  177.6950  143.2580 C   0  0  0  0  0  0  0  0  0  0  0  0
  186.7620  177.9640  142.0910 C   0  0  0  0  0  3  0  0  0  0  0  0
  191.4570  177.4490  140.1240 O   0  0  0  0  0  0  0  0  0  0  0  0
  190.9660  177.5390  141.4220 C   0  0  0  0  0  0  0  0  0  0  0  0
  189.5630  177.3730  141.6810 N   0  0  0  0  0  0  0  0  0  0  0  0
  191.7660  177.7770  142.3680 O   0  0  0  0  0  1  0  0  0  0  0  0
  188.6380  177.1510  140.5770 C   0  0  0  0  0  2  0  0  0  0  0  0
  188.6270  178.3680  139.6550 C   0  0  0  0  0  2  0  0  0  0  0  0
  188.8900  176.1810  136.4540 C   0  0  0  0  0  2  0  0  0  0  0  0
  188.9080  176.5290  137.9480 C   0  0  0  0  0  2  0  0  0  0  0  0
  188.4790  177.9790  138.1890 C   0  0  0  0  0  3  0  0  0  0  0  0
  187.8330  176.9550  135.6540 C   0  0  0  0  0  2  0  0  0  0  0  0
  187.0600  178.2630  137.6660 C   0  0  0  0  0  2  0  0  0  0  0  0
  186.6370  177.3320  136.5230 C   0  0  0  0  0  2  0  0  0  0  0  0
  187.6920  177.5240  147.0130 O   0  0  0  0  0  0  0  0  0  0  0  0
  189.0220  178.2720  148.8780 C   0  0  0  0  0  1  0  0  0  0  0  0
  188.4870  177.0810  148.1050 C   0  0  0  0  0  2  0  0  0  0  0  0
  181.3000  179.3300  143.4550 C   0  0  0  0  0  2  0  0  0  0  0  0
  179.7110  177.5420  143.3140 O   0  0  0  0  0  1  0  0  0  0  0  0
  180.3140  178.5630  142.5750 C   0  0  1  0  0  3  0  0  0  0  0  0
  179.6520  180.8770  142.0800 N   0  0  0  0  0  1  0  0  0  0  0  0
  179.2390  179.4850  141.9940 C   0  0  1  0  0  3  0  0  0  0  0  0
  178.9310  179.1430  140.5450 C   0  0  0  0  0  2  0  0  0  0  0  0
  180.2060  178.9460  139.7290 C   0  0  1  0  0  3  0  0  0  0  0  0
  180.1690  177.6340  138.9330 C   0  0  2  0  0  3  0  0  0  0  0  0
  178.9600  177.4760  138.2450 O   0  0  0  0  0  1  0  0  0  0  0  0
  180.4900  176.4070  139.7970 C   0  0  1  0  0  3  0  0  0  0  0  0
  179.7210  175.1680  139.3420 C   0  0  0  0  0  2  0  0  0  0  0  0
  179.2920  174.1250  140.7700 S   0  0  0  0  0  1  0  0  0  0  0  0
  181.8650  176.1550  139.7710 O   0  0  0  0  0  0  0  0  0  0  0  0
  183.4940  176.6720  138.1280 C   0  0  0  0  0  2  0  0  0  0  0  0
  183.4430  175.1660  138.2900 C   0  0  0  0  0  2  0  0  0  0  0  0
  182.1740  175.9880  138.4210 C   0  0  0  0  0  3  0  0  0  0  0  0
  181.6900  179.8970  138.3830 C   0  0  0  0  0  1  0  0  0  0  0  0
  180.3800  180.0240  138.8570 O   0  0  0  0  0  0  0  0  0  0  0  0
  2  9  1  0  0  0  0
  3  1  1  0  0  0  0
  4 31  1  0  0  0  0
  4  3  1  0  0  0  0
  5 14  1  0  0  0  0
  5  2  2  0  0  0  0
  6 13  1  0  0  0  0
  6 10  1  0  0  0  0
  7  3  2  0  0  0  0
  7  8  1  0  0  0  0
  9 12  2  0  0  0  0
 10  7  1  0  0  0  0
 11  8  1  0  0  0  0
 11 12  1  0  0  0  0
 12 28  1  0  0  0  0
 13  4  2  0  0  0  0
 14 11  2  0  0  0  0
 15 10  2  0  0  0  0
 15 14  1  0  0  0  0
 16 17  2  0  0  0  0
 17 18  1  0  0  0  0
 17 19  1  0  0  0  0
 18  5  1  0  0  0  0
 20 18  1  0  0  0  0
 21 20  1  0  0  0  0
 22 23  1  0  0  0  0
 23 24  1  0  0  0  0
 24 21  1  0  0  0  0
 25 22  1  0  0  0  0
 25 27  1  0  0  0  0
 26 24  1  0  0  0  0
 27 26  1  0  0  0  0
 28 30  1  0  0  0  0
 30 29  1  0  0  0  0
 33 32  1  1  0  0  0
 33 31  1  0  0  0  0
 35 34  1  6  0  0  0
 35 33  1  0  0  0  0
 36 35  1  0  0  0  0
 37 36  1  6  0  0  0
 38 39  1  1  0  0  0
 38 37  1  0  0  0  0
 38 40  1  0  0  0  0
 40 41  1  6  0  0  0
 41 42  1  0  0  0  0
 43 40  1  0  0  0  0
 44 45  1  0  0  0  0
 44 46  1  0  0  0  0
 45 46  1  0  0  0  0
 46 43  1  0  0  0  0
 47 48  1  0  0  0  0
 48 37  1  0  0  0  0
M  END
>  <MODEL>
5

>  <REMARK>
 VINA RESULT:      -6.7      2.892      9.017
  Name = 
  17 active torsions:
  status: ('A' for Active; 'I' for Inactive)
    1  A    between atoms: C_1  and  C_6
    2  A    between atoms: C_1  and  C_22
    3  A    between atoms: C_3  and  C_22
    4  A    between atoms: C_6  and  C_9
    5  A    between atoms: C_6  and  O_48
    6  A    between atoms: C_7  and  C_26
    7  A    between atoms: O_8  and  C_22
    8  A    between atoms: O_8  and  C_41
    9  A    between atoms: C_9  and  C_45
   10  A    between atoms: C_15  and  C_18
   11  A    between atoms: C_15  and  C_47
   12  A    between atoms: O_20  and  C_24
   13  A    between atoms: O_20  and  C_39
   14  A    between atoms: C_21  and  N_34
   15  A    between atoms: C_26  and  C_44
   16  A    between atoms: N_34  and  C_44
   17  A    between atoms: C_45  and  C_47
                            x       y       z     vdW  Elec       q    Type
                         _______ _______ _______ _____ _____    ______ ____

>  <TORSDO>
F 17

$$$$
=
 OpenBabel10222419073D

 48 52  0  0  1  0  0  0  0  0999 V2000
  187.2260  178.5620  141.1560 F   0  0  0  0  0  0  0  0  0  0  0  0
  180.5730  177.9830  139.1880 C   0  0  0  0  0  3  0  0  0  0  0  0
  186.9800  178.2840  139.8510 C   0  0  0  0  0  0  0  0  0  0  0  0
  188.0430  178.0710  138.9590 C   0  0  0  0  0  0  0  0  0  0  0  0
  181.5690  177.8490  138.2200 C   0  0  0  0  0  0  0  0  0  0  0  0
  186.4590  177.7050  137.1620 C   0  0  0  0  0  2  0  0  0  0  0  0
  185.6580  178.1930  139.3990 C   0  0  0  0  0  0  0  0  0  0  0  0
  184.6080  178.3780  140.2970 O   0  0  0  0  0  0  0  0  0  0  0  0
  180.9080  178.2490  140.5140 C   0  0  0  0  0  3  0  0  0  0  0  0
  185.3960  177.9020  138.0500 C   0  0  0  0  0  0  0  0  0  0  0  0
  183.2650  178.2420  139.9320 C   0  0  0  0  0  0  0  0  0  0  0  0
  182.2440  178.3760  140.9040 C   0  0  0  0  0  0  0  0  0  0  0  0
  187.7790  177.7880  137.6150 C   0  0  0  0  0  3  0  0  0  0  0  0
  182.9250  177.9740  138.5870 C   0  0  0  0  0  0  0  0  0  0  0  0
  183.9940  177.8050  137.5350 C   0  0  0  0  0  3  0  0  0  0  0  0
  180.6400  178.3180  134.5970 O   0  0  0  0  0  0  0  0  0  0  0  0
  180.9580  178.6190  135.9170 C   0  0  0  0  0  0  0  0  0  0  0  0
  181.1900  177.5660  136.8660 N   0  0  0  0  0  0  0  0  0  0  0  0
  181.0320  179.8270  136.2740 O   0  0  0  0  0  1  0  0  0  0  0  0
  181.0510  176.1740  136.4600 C   0  0  0  0  0  2  0  0  0  0  0  0
  180.9420  175.2810  137.6940 C   0  0  0  0  0  2  0  0  0  0  0  0
  182.0580  171.8190  136.3270 C   0  0  0  0  0  2  0  0  0  0  0  0
  181.3120  173.1590  136.3770 C   0  0  0  0  0  2  0  0  0  0  0  0
  181.7750  174.0110  137.5620 C   0  0  0  0  0  3  0  0  0  0  0  0
  183.4850  171.8850  136.8900 C   0  0  0  0  0  2  0  0  0  0  0  0
  183.2810  174.3220  137.5070 C   0  0  0  0  0  2  0  0  0  0  0  0
  184.0880  173.2780  136.7250 C   0  0  0  0  0  2  0  0  0  0  0  0
  182.4930  178.6390  142.2610 O   0  0  0  0  0  0  0  0  0  0  0  0
  180.9590  178.5760  144.1190 C   0  0  0  0  0  1  0  0  0  0  0  0
  181.6760  179.4440  143.1010 C   0  0  0  0  0  2  0  0  0  0  0  0
  189.4580  178.1440  139.4290 C   0  0  0  0  0  2  0  0  0  0  0  0
  190.7450  176.1520  139.0920 O   0  0  0  0  0  1  0  0  0  0  0  0
  189.9140  176.8050  140.0060 C   0  0  1  0  0  3  0  0  0  0  0  0
  191.9380  177.6240  141.1330 N   0  0  0  0  0  1  0  0  0  0  0  0
  190.6480  176.9830  141.3370 C   0  0  1  0  0  3  0  0  0  0  0  0
  189.8310  177.8050  142.3210 C   0  0  0  0  0  2  0  0  0  0  0  0
  189.9630  177.2720  143.7460 C   0  0  1  0  0  3  0  0  0  0  0  0
  188.6230  176.7440  144.2770 C   0  0  2  0  0  3  0  0  0  0  0  0
  187.9400  175.9940  143.3120 O   0  0  0  0  0  1  0  0  0  0  0  0
  187.7380  177.8530  144.8590 C   0  0  1  0  0  3  0  0  0  0  0  0
  186.4770  178.0770  144.0270 C   0  0  0  0  0  2  0  0  0  0  0  0
  185.1050  178.6320  145.0870 S   0  0  0  0  0  1  0  0  0  0  0  0
  187.3930  177.5410  146.1780 O   0  0  0  0  0  0  0  0  0  0  0  0
  188.4180  178.3210  148.1680 C   0  0  0  0  0  2  0  0  0  0  0  0
  188.4290  176.8060  148.1900 C   0  0  0  0  0  2  0  0  0  0  0  0
  188.6000  177.5470  146.8780 C   0  0  0  0  0  3  0  0  0  0  0  0
  191.6230  176.4640  144.9750 C   0  0  0  0  0  1  0  0  0  0  0  0
  190.9210  176.2550  143.7840 O   0  0  0  0  0  0  0  0  0  0  0  0
  2  9  1  0  0  0  0
  3  1  1  0  0  0  0
  4 31  1  0  0  0  0
  4  3  1  0  0  0  0
  5 14  1  0  0  0  0
  5  2  2  0  0  0  0
  6 13  1  0  0  0  0
  6 10  1  0  0  0  0
  7  3  2  0  0  0  0
  7  8  1  0  0  0  0
  9 12  2  0  0  0  0
 10  7  1  0  0  0  0
 11  8  1  0  0  0  0
 11 12  1  0  0  0  0
 12 28  1  0  0  0  0
 13  4  2  0  0  0  0
 14 11  2  0  0  0  0
 15 10  2  0  0  0  0
 15 14  1  0  0  0  0
 16 17  2  0  0  0  0
 17 19  1  0  0  0  0
 17 18  1  0  0  0  0
 18  5  1  0  0  0  0
 20 18  1  0  0  0  0
 20 21  1  0  0  0  0
 22 23  1  0  0  0  0
 22 25  1  0  0  0  0
 23 24  1  0  0  0  0
 24 21  1  0  0  0  0
 26 24  1  0  0  0  0
 27 25  1  0  0  0  0
 27 26  1  0  0  0  0
 28 30  1  0  0  0  0
 30 29  1  0  0  0  0
 31 33  1  0  0  0  0
 33 32  1  6  0  0  0
 33 35  1  0  0  0  0
 35 34  1  6  0  0  0
 35 36  1  0  0  0  0
 37 36  1  6  0  0  0
 37 48  1  0  0  0  0
 37 38  1  0  0  0  0
 38 39  1  6  0  0  0
 38 40  1  0  0  0  0
 40 41  1  6  0  0  0
 40 43  1  0  0  0  0
 41 42  1  0  0  0  0
 43 46  1  0  0  0  0
 44 45  1  0  0  0  0
 46 44  1  0  0  0  0
 46 45  1  0  0  0  0
 48 47  1  0  0  0  0
M  END
>  <MODEL>
6

>  <REMARK>
 VINA RESULT:      -6.6      1.943      2.814
  Name = 
  17 active torsions:
  status: ('A' for Active; 'I' for Inactive)
    1  A    between atoms: C_1  and  C_6
    2  A    between atoms: C_1  and  C_22
    3  A    between atoms: C_3  and  C_22
    4  A    between atoms: C_6  and  C_9
    5  A    between atoms: C_6  and  O_48
    6  A    between atoms: C_7  and  C_26
    7  A    between atoms: O_8  and  C_22
    8  A    between atoms: O_8  and  C_41
    9  A    between atoms: C_9  and  C_45
   10  A    between atoms: C_15  and  C_18
   11  A    between atoms: C_15  and  C_47
   12  A    between atoms: O_20  and  C_24
   13  A    between atoms: O_20  and  C_39
   14  A    between atoms: C_21  and  N_34
   15  A    between atoms: C_26  and  C_44
   16  A    between atoms: N_34  and  C_44
   17  A    between atoms: C_45  and  C_47
                            x       y       z     vdW  Elec       q    Type
                         _______ _______ _______ _____ _____    ______ ____

>  <TORSDO>
F 17

$$$$
=
 OpenBabel10222419073D

 48 52  0  0  1  0  0  0  0  0999 V2000
  185.2620  178.4840  137.8160 F   0  0  0  0  0  0  0  0  0  0  0  0
  183.5720  178.8070  144.5620 C   0  0  0  0  0  3  0  0  0  0  0  0
  186.2690  178.3930  138.7200 C   0  0  0  0  0  0  0  0  0  0  0  0
  187.6020  178.2930  138.2890 C   0  0  0  0  0  0  0  0  0  0  0  0
  184.9100  178.6120  144.2180 C   0  0  0  0  0  0  0  0  0  0  0  0
  188.3400  178.2120  140.5950 C   0  0  0  0  0  3  0  0  0  0  0  0
  185.9770  178.4170  140.0890 C   0  0  2  0  0  3  0  0  0  0  0  0
  184.6540  178.5450  140.5090 O   0  0  0  0  0  0  0  0  0  0  0  0
  182.5970  178.9100  143.5730 C   0  0  0  0  0  3  0  0  0  0  0  0
  187.0160  178.3270  141.0300 C   0  0  0  0  0  0  0  0  0  0  0  0
  184.2910  178.6380  141.8570 C   0  0  0  0  0  0  0  0  0  0  0  0
  182.9370  178.8340  142.2200 C   0  0  0  0  0  0  0  0  0  0  0  0
  188.6330  178.1970  139.2290 C   0  0  0  0  0  3  0  0  0  0  0  0
  185.2800  178.5310  142.8600 C   0  0  0  0  0  0  0  0  0  0  0  0
  186.7340  178.3430  142.5000 C   0  0  0  0  0  3  0  0  0  0  0  0
  186.4740  178.3020  147.6330 O   0  0  0  0  0  1  0  0  0  0  0  0
  185.5080  178.4430  146.6430 C   0  0  0  0  0  0  0  0  0  0  0  0
  185.8900  178.5190  145.2610 N   0  0  0  0  0  0  0  0  0  0  0  0
  184.2920  178.5100  146.9730 O   0  0  0  0  0  0  0  0  0  0  0  0
  187.2990  178.4940  144.8910 C   0  0  0  0  0  2  0  0  0  0  0  0
  187.9570  177.2280  145.4350 C   0  0  0  0  0  2  0  0  0  0  0  0
  190.5500  175.8300  142.9010 C   0  0  0  0  0  2  0  0  0  0  0  0
  189.1780  176.2150  143.4710 C   0  0  0  0  0  2  0  0  0  0  0  0
  189.3170  176.9660  144.7990 C   0  0  0  0  0  3  0  0  0  0  0  0
  191.6690  176.8140  143.2700 C   0  0  0  0  0  2  0  0  0  0  0  0
  190.1370  178.2600  144.6560 C   0  0  0  0  0  2  0  0  0  0  0  0
  191.1270  178.2240  143.4850 C   0  0  0  0  0  2  0  0  0  0  0  0
  181.8930  178.9540  141.2880 O   0  0  0  0  0  0  0  0  0  0  0  0
  179.6000  178.2230  141.1640 C   0  0  0  0  0  1  0  0  0  0  0  0
  181.0500  177.8910  140.8630 C   0  0  0  0  0  2  0  0  0  0  0  0
  187.9330  178.2870  136.8330 C   0  0  0  0  0  2  0  0  0  0  0  0
  187.5410  177.0830  134.7990 O   0  0  0  0  0  1  0  0  0  0  0  0
  187.5540  176.9540  136.1900 C   0  0  1  0  0  3  0  0  0  0  0  0
  188.2240  174.6110  135.8700 N   0  0  0  0  0  1  0  0  0  0  0  0
  188.5170  175.8360  136.5980 C   0  0  1  0  0  3  0  0  0  0  0  0
  189.9660  176.2280  136.3540 C   0  0  0  0  0  2  0  0  0  0  0  0
  190.9270  175.1150  136.7650 C   0  0  1  0  0  3  0  0  0  0  0  0
  192.3280  175.3360  136.1780 C   0  0  2  0  0  3  0  0  0  0  0  0
  192.2750  175.9410  134.9160 O   0  0  0  0  0  1  0  0  0  0  0  0
  193.1700  174.0540  136.1530 C   0  0  1  0  0  3  0  0  0  0  0  0
  193.2930  173.4760  134.7440 C   0  0  0  0  0  2  0  0  0  0  0  0
  192.3100  171.9510  134.5940 S   0  0  0  0  0  1  0  0  0  0  0  0
  194.4400  174.3100  136.6790 O   0  0  0  0  0  0  0  0  0  0  0  0
  195.3810  172.7180  138.1620 C   0  0  0  0  0  2  0  0  0  0  0  0
  195.7160  174.1030  138.6770 C   0  0  0  0  0  2  0  0  0  0  0  0
  194.3860  173.8480  137.9940 C   0  0  0  0  0  3  0  0  0  0  0  0
  191.5590  176.2680  138.5500 C   0  0  0  0  0  1  0  0  0  0  0  0
  191.0040  175.0460  138.1580 O   0  0  0  0  0  0  0  0  0  0  0  0
  1  3  1  0  0  0  0
  4  3  2  0  0  0  0
  4 13  1  0  0  0  0
  5  2  1  0  0  0  0
  5 18  1  0  0  0  0
  6 10  1  0  0  0  0
  7  3  1  6  0  0  0
  7  8  1  0  0  0  0
  7 10  1  0  0  0  0
  8 11  1  0  0  0  0
  9  2  2  0  0  0  0
 10 15  2  0  0  0  0
 11 12  2  0  0  0  0
 11 14  1  0  0  0  0
 12  9  1  0  0  0  0
 13  6  2  0  0  0  0
 14  5  2  0  0  0  0
 15 14  1  0  0  0  0
 17 19  2  0  0  0  0
 17 16  1  0  0  0  0
 18 17  1  0  0  0  0
 20 18  1  0  0  0  0
 20 21  1  0  0  0  0
 22 25  1  0  0  0  0
 22 23  1  0  0  0  0
 23 24  1  0  0  0  0
 24 21  1  0  0  0  0
 25 27  1  0  0  0  0
 26 24  1  0  0  0  0
 27 26  1  0  0  0  0
 28 12  1  0  0  0  0
 30 29  1  0  0  0  0
 30 28  1  0  0  0  0
 31  4  1  0  0  0  0
 33 32  1  6  0  0  0
 33 35  1  0  0  0  0
 33 31  1  0  0  0  0
 35 34  1  6  0  0  0
 36 35  1  0  0  0  0
 37 36  1  1  0  0  0
 37 48  1  0  0  0  0
 38 39  1  6  0  0  0
 38 37  1  0  0  0  0
 40 41  1  6  0  0  0
 40 38  1  0  0  0  0
 40 43  1  0  0  0  0
 42 41  1  0  0  0  0
 43 46  1  0  0  0  0
 44 45  1  0  0  0  0
 46 44  1  0  0  0  0
 46 45  1  0  0  0  0
 48 47  1  0  0  0  0
M  END
>  <MODEL>
7

>  <REMARK>
 VINA RESULT:      -6.4      3.852      7.873
  Name = 
  17 active torsions:
  status: ('A' for Active; 'I' for Inactive)
    1  A    between atoms: C_1  and  C_6
    2  A    between atoms: C_1  and  C_22
    3  A    between atoms: C_3  and  C_22
    4  A    between atoms: C_6  and  C_9
    5  A    between atoms: C_6  and  O_48
    6  A    between atoms: C_7  and  C_26
    7  A    between atoms: O_8  and  C_22
    8  A    between atoms: O_8  and  C_41
    9  A    between atoms: C_9  and  C_45
   10  A    between atoms: C_15  and  C_18
   11  A    between atoms: C_15  and  C_47
   12  A    between atoms: O_20  and  C_24
   13  A    between atoms: O_20  and  C_39
   14  A    between atoms: C_21  and  N_34
   15  A    between atoms: C_26  and  C_44
   16  A    between atoms: N_34  and  C_44
   17  A    between atoms: C_45  and  C_47
                            x       y       z     vdW  Elec       q    Type
                         _______ _______ _______ _____ _____    ______ ____

>  <TORSDO>
F 17

$$$$
=
 OpenBabel10222419073D

 48 52  0  0  1  0  0  0  0  0999 V2000
  184.9790  177.8560  142.4110 F   0  0  0  0  0  0  0  0  0  0  0  0
  182.7600  177.5580  135.8180 C   0  0  0  0  0  3  0  0  0  0  0  0
  183.7030  178.2410  142.1610 C   0  0  0  0  0  0  0  0  0  0  0  0
  182.8940  178.7300  143.1990 C   0  0  0  0  0  0  0  0  0  0  0  0
  181.8630  177.9670  136.8070 C   0  0  0  0  0  0  0  0  0  0  0  0
  181.0720  179.0390  141.6310 C   0  0  0  0  0  3  0  0  0  0  0  0
  183.1980  178.1660  140.8570 C   0  0  2  0  0  3  0  0  0  0  0  0
  184.0170  177.7060  139.8270 O   0  0  0  0  0  0  0  0  0  0  0  0
  184.0630  177.1960  136.1540 C   0  0  0  0  0  3  0  0  0  0  0  0
  181.8780  178.5660  140.5910 C   0  0  0  0  0  0  0  0  0  0  0  0
  183.6030  177.6600  138.4910 C   0  0  0  0  0  0  0  0  0  0  0  0
  184.5020  177.2470  137.4790 C   0  0  0  0  0  0  0  0  0  0  0  0
  181.5780  179.1230  142.9320 C   0  0  0  0  0  3  0  0  0  0  0  0
  182.2810  178.0250  138.1520 C   0  0  0  0  0  0  0  0  0  0  0  0
  181.3090  178.4910  139.2080 C   0  0  0  0  0  3  0  0  0  0  0  0
  178.9310  180.0090  135.6090 O   0  0  0  0  0  0  0  0  0  0  0  0
  180.2180  179.6820  136.0210 C   0  0  0  0  0  0  0  0  0  0  0  0
  180.5320  178.3410  136.4260 N   0  0  0  0  0  0  0  0  0  0  0  0
  181.1050  180.5790  136.0430 O   0  0  0  0  0  1  0  0  0  0  0  0
  179.4910  177.3220  136.4490 C   0  0  0  0  0  2  0  0  0  0  0  0
  179.8800  176.1600  135.5390 C   0  0  0  0  0  2  0  0  0  0  0  0
  181.2550  172.7600  136.8230 C   0  0  0  0  0  2  0  0  0  0  0  0
  181.2750  174.1600  136.1960 C   0  0  0  0  0  2  0  0  0  0  0  0
  179.8990  174.8280  136.2800 C   0  0  0  0  0  3  0  0  0  0  0  0
  180.2470  172.6120  137.9710 C   0  0  0  0  0  2  0  0  0  0  0  0
  179.4090  174.9790  137.7310 C   0  0  0  0  0  2  0  0  0  0  0  0
  180.0130  173.9400  138.6850 C   0  0  0  0  0  2  0  0  0  0  0  0
  185.8330  176.8700  137.7280 O   0  0  0  0  0  0  0  0  0  0  0  0
  187.2110  178.6320  136.8300 C   0  0  0  0  0  1  0  0  0  0  0  0
  186.9330  177.1400  136.8680 C   0  0  0  0  0  2  0  0  0  0  0  0
  183.4230  178.8370  144.5910 C   0  0  0  0  0  2  0  0  0  0  0  0
  185.1400  180.4880  144.3360 O   0  0  0  0  0  1  0  0  0  0  0  0
  184.9220  179.1310  144.5870 C   0  0  1  0  0  3  0  0  0  0  0  0
  184.5840  178.6270  146.9680 N   0  0  0  0  0  1  0  0  0  0  0  0
  185.5780  178.7370  145.9120 C   0  0  1  0  0  3  0  0  0  0  0  0
  186.3330  177.4230  145.7950 C   0  0  0  0  0  2  0  0  0  0  0  0
  187.7580  177.5420  146.3300 C   0  0  1  0  0  3  0  0  0  0  0  0
  188.7550  177.8670  145.2090 C   0  0  2  0  0  3  0  0  0  0  0  0
  188.1420  177.8690  143.9510 O   0  0  0  0  0  1  0  0  0  0  0  0
  189.9910  176.9590  145.2330 C   0  0  1  0  0  3  0  0  0  0  0  0
  190.8010  177.0600  143.9420 C   0  0  0  0  0  2  0  0  0  0  0  0
  191.7350  178.6220  143.8970 S   0  0  0  0  0  1  0  0  0  0  0  0
  190.7960  177.2810  146.3300 O   0  0  0  0  0  0  0  0  0  0  0  0
  192.3130  175.4910  146.6730 C   0  0  0  0  0  2  0  0  0  0  0  0
  192.1170  176.2080  147.9940 C   0  0  0  0  0  2  0  0  0  0  0  0
  190.9600  176.0790  147.0210 C   0  0  0  0  0  3  0  0  0  0  0  0
  188.0870  177.8450  148.5020 C   0  0  0  0  0  1  0  0  0  0  0  0
  187.8130  178.5310  147.3150 O   0  0  0  0  0  0  0  0  0  0  0  0
  2  9  2  0  0  0  0
  2  5  1  0  0  0  0
  3  1  1  0  0  0  0
  3  4  2  0  0  0  0
  4 31  1  0  0  0  0
  5 14  2  0  0  0  0
  6 13  2  0  0  0  0
  7  8  1  6  0  0  0
  7  3  1  0  0  0  0
  9 12  1  0  0  0  0
 10  7  1  0  0  0  0
 10  6  1  0  0  0  0
 11  8  1  0  0  0  0
 12 28  1  0  0  0  0
 12 11  2  0  0  0  0
 13  4  1  0  0  0  0
 14 11  1  0  0  0  0
 14 15  1  0  0  0  0
 15 10  2  0  0  0  0
 16 17  2  0  0  0  0
 17 19  1  0  0  0  0
 17 18  1  0  0  0  0
 18 20  1  0  0  0  0
 18  5  1  0  0  0  0
 21 24  1  0  0  0  0
 21 20  1  0  0  0  0
 22 25  1  0  0  0  0
 23 24  1  0  0  0  0
 23 22  1  0  0  0  0
 24 26  1  0  0  0  0
 25 27  1  0  0  0  0
 26 27  1  0  0  0  0
 29 30  1  0  0  0  0
 30 28  1  0  0  0  0
 33 32  1  1  0  0  0
 33 31  1  0  0  0  0
 33 35  1  0  0  0  0
 35 34  1  1  0  0  0
 36 35  1  0  0  0  0
 37 36  1  6  0  0  0
 37 48  1  0  0  0  0
 38 39  1  6  0  0  0
 38 40  1  0  0  0  0
 38 37  1  0  0  0  0
 40 41  1  6  0  0  0
 40 43  1  0  0  0  0
 42 41  1  0  0  0  0
 43 46  1  0  0  0  0
 44 46  1  0  0  0  0
 44 45  1  0  0  0  0
 46 45  1  0  0  0  0
 48 47  1  0  0  0  0
M  END
>  <MODEL>
8

>  <REMARK>
 VINA RESULT:      -6.4      2.586      4.986
  Name = 
  17 active torsions:
  status: ('A' for Active; 'I' for Inactive)
    1  A    between atoms: C_1  and  C_6
    2  A    between atoms: C_1  and  C_22
    3  A    between atoms: C_3  and  C_22
    4  A    between atoms: C_6  and  C_9
    5  A    between atoms: C_6  and  O_48
    6  A    between atoms: C_7  and  C_26
    7  A    between atoms: O_8  and  C_22
    8  A    between atoms: O_8  and  C_41
    9  A    between atoms: C_9  and  C_45
   10  A    between atoms: C_15  and  C_18
   11  A    between atoms: C_15  and  C_47
   12  A    between atoms: O_20  and  C_24
   13  A    between atoms: O_20  and  C_39
   14  A    between atoms: C_21  and  N_34
   15  A    between atoms: C_26  and  C_44
   16  A    between atoms: N_34  and  C_44
   17  A    between atoms: C_45  and  C_47
                            x       y       z     vdW  Elec       q    Type
                         _______ _______ _______ _____ _____    ______ ____

>  <TORSDO>
F 17

$$$$
=
 OpenBabel10222419073D

 48 52  0  0  1  0  0  0  0  0999 V2000
  184.0880  179.2530  138.6920 F   0  0  0  0  0  0  0  0  0  0  0  0
  190.5890  177.5240  140.4860 C   0  0  0  0  0  3  0  0  0  0  0  0
  184.3210  178.9560  139.9950 C   0  0  0  0  0  0  0  0  0  0  0  0
  183.2660  178.9490  140.9210 C   0  0  0  0  0  0  0  0  0  0  0  0
  189.6160  177.5860  141.4840 C   0  0  0  0  0  0  0  0  0  0  0  0
  184.8140  178.3340  142.6800 C   0  0  0  0  0  3  0  0  0  0  0  0
  185.6190  178.6360  140.4120 C   0  0  2  0  0  3  0  0  0  0  0  0
  186.6560  178.6170  139.4820 O   0  0  0  0  0  0  0  0  0  0  0  0
  190.2660  177.8260  139.1650 C   0  0  0  0  0  3  0  0  0  0  0  0
  185.8660  178.3240  141.7600 C   0  0  0  0  0  0  0  0  0  0  0  0
  187.9650  178.2490  139.8120 C   0  0  0  0  0  0  0  0  0  0  0  0
  188.9630  178.1830  138.8100 C   0  0  0  0  0  0  0  0  0  0  0  0
  183.5160  178.6440  142.2630 C   0  0  0  0  0  3  0  0  0  0  0  0
  188.2930  177.9450  141.1520 C   0  0  0  0  0  0  0  0  0  0  0  0
  187.2450  177.9860  142.2370 C   0  0  0  0  0  3  0  0  0  0  0  0
  191.2440  175.9030  144.4380 O   0  0  0  0  0  1  0  0  0  0  0  0
  190.8650  176.1680  143.1260 C   0  0  0  0  0  0  0  0  0  0  0  0
  189.9800  177.2600  142.8330 N   0  0  0  0  0  0  0  0  0  0  0  0
  191.3020  175.4340  142.1980 O   0  0  0  0  0  0  0  0  0  0  0  0
  189.4380  178.0720  143.9140 C   0  0  0  0  0  2  0  0  0  0  0  0
  188.5440  177.2170  144.8080 C   0  0  0  0  0  2  0  0  0  0  0  0
  185.6050  178.6390  146.9160 C   0  0  0  0  0  2  0  0  0  0  0  0
  186.3420  177.7120  145.9400 C   0  0  0  0  0  2  0  0  0  0  0  0
  187.8360  178.0430  145.8760 C   0  0  0  0  0  3  0  0  0  0  0  0
  186.4750  179.1200  148.0850 C   0  0  0  0  0  2  0  0  0  0  0  0
  188.5240  177.9120  147.2450 C   0  0  0  0  0  2  0  0  0  0  0  0
  187.5650  178.1070  148.4270 C   0  0  0  0  0  2  0  0  0  0  0  0
  188.7230  178.4650  137.4550 O   0  0  0  0  0  0  0  0  0  0  0  0
  187.1630  176.9610  136.4000 C   0  0  0  0  0  1  0  0  0  0  0  0
  188.5850  177.4910  136.4280 C   0  0  0  0  0  2  0  0  0  0  0  0
  181.8720  179.2670  140.4890 C   0  0  0  0  0  2  0  0  0  0  0  0
  180.4150  180.2420  142.1210 O   0  0  0  0  0  1  0  0  0  0  0  0
  180.8770  179.0220  141.6220 C   0  0  1  0  0  3  0  0  0  0  0  0
  179.1110  178.7120  139.9420 N   0  0  0  0  0  1  0  0  0  0  0  0
  179.6930  178.1700  141.1600 C   0  0  1  0  0  3  0  0  0  0  0  0
  180.1020  176.7260  140.9190 C   0  0  0  0  0  2  0  0  0  0  0  0
  179.9710  176.3410  139.4470 C   0  0  1  0  0  3  0  0  0  0  0  0
  181.2770  175.7470  138.9020 C   0  0  2  0  0  3  0  0  0  0  0  0
  182.3010  175.7750  139.8570 O   0  0  0  0  0  1  0  0  0  0  0  0
  181.7180  176.3940  137.5830 C   0  0  1  0  0  3  0  0  0  0  0  0
  181.8520  175.3690  136.4580 C   0  0  0  0  0  2  0  0  0  0  0  0
  183.2550  174.2540  136.7760 S   0  0  0  0  0  1  0  0  0  0  0  0
  180.8090  177.3920  137.2170 O   0  0  0  0  0  0  0  0  0  0  0  0
  180.7330  179.2080  135.6950 C   0  0  0  0  0  2  0  0  0  0  0  0
  181.0560  179.7540  137.0710 C   0  0  0  0  0  2  0  0  0  0  0  0
  181.5900  178.3990  136.6480 C   0  0  0  0  0  3  0  0  0  0  0  0
  179.0860  174.5160  140.3430 C   0  0  0  0  0  1  0  0  0  0  0  0
  178.9310  175.4210  139.2890 O   0  0  0  0  0  0  0  0  0  0  0  0
  1  3  1  0  0  0  0
  2  5  1  0  0  0  0
  3  7  1  0  0  0  0
  3  4  2  0  0  0  0
  4 13  1  0  0  0  0
  5 18  1  0  0  0  0
  7  8  1  6  0  0  0
  7 10  1  0  0  0  0
  8 11  1  0  0  0  0
  9  2  2  0  0  0  0
 10 15  2  0  0  0  0
 10  6  1  0  0  0  0
 11 14  1  0  0  0  0
 12  9  1  0  0  0  0
 12 11  2  0  0  0  0
 13  6  2  0  0  0  0
 14  5  2  0  0  0  0
 14 15  1  0  0  0  0
 17 16  1  0  0  0  0
 18 17  1  0  0  0  0
 18 20  1  0  0  0  0
 19 17  2  0  0  0  0
 20 21  1  0  0  0  0
 21 24  1  0  0  0  0
 22 25  1  0  0  0  0
 23 22  1  0  0  0  0
 24 23  1  0  0  0  0
 24 26  1  0  0  0  0
 25 27  1  0  0  0  0
 26 27  1  0  0  0  0
 28 12  1  0  0  0  0
 29 30  1  0  0  0  0
 30 28  1  0  0  0  0
 31  4  1  0  0  0  0
 31 33  1  0  0  0  0
 33 32  1  6  0  0  0
 35 34  1  6  0  0  0
 35 33  1  0  0  0  0
 36 35  1  0  0  0  0
 37 36  1  1  0  0  0
 38 37  1  0  0  0  0
 38 39  1  1  0  0  0
 40 41  1  6  0  0  0
 40 38  1  0  0  0  0
 41 42  1  0  0  0  0
 43 40  1  0  0  0  0
 44 46  1  0  0  0  0
 44 45  1  0  0  0  0
 46 45  1  0  0  0  0
 46 43  1  0  0  0  0
 48 37  1  0  0  0  0
 48 47  1  0  0  0  0
M  END
>  <MODEL>
9

>  <REMARK>
 VINA RESULT:      -6.3      2.827     10.086
  Name = 
  17 active torsions:
  status: ('A' for Active; 'I' for Inactive)
    1  A    between atoms: C_1  and  C_6
    2  A    between atoms: C_1  and  C_22
    3  A    between atoms: C_3  and  C_22
    4  A    between atoms: C_6  and  C_9
    5  A    between atoms: C_6  and  O_48
    6  A    between atoms: C_7  and  C_26
    7  A    between atoms: O_8  and  C_22
    8  A    between atoms: O_8  and  C_41
    9  A    between atoms: C_9  and  C_45
   10  A    between atoms: C_15  and  C_18
   11  A    between atoms: C_15  and  C_47
   12  A    between atoms: O_20  and  C_24
   13  A    between atoms: O_20  and  C_39
   14  A    between atoms: C_21  and  N_34
   15  A    between atoms: C_26  and  C_44
   16  A    between atoms: N_34  and  C_44
   17  A    between atoms: C_45  and  C_47
                            x       y       z     vdW  Elec       q    Type
                         _______ _______ _______ _____ _____    ______ ____

>  <TORSDO>
F 17

$$$$
