=
 OpenBabel10222416193D

 46 51  0  0  1  0  0  0  0  0999 V2000
  191.0020  177.6540  145.7190 O   0  0  0  0  0  1  0  0  0  0  0  0
  189.6510  177.6570  145.3720 C   0  0  0  0  0  0  0  0  0  0  0  0
  185.4440  177.6870  144.4310 C   0  0  0  0  0  2  0  0  0  0  0  0
  189.2480  177.5960  144.0170 C   0  0  0  0  0  0  0  0  0  0  0  0
  188.6850  177.7180  146.3890 C   0  0  0  0  0  0  0  0  0  0  0  0
  185.0870  179.0050  144.0870 O   0  0  0  0  0  0  0  0  0  0  0  0
  185.6990  179.0050  141.0590 C   0  0  0  0  0  2  0  0  0  0  0  0
  187.8740  177.5880  143.6990 C   0  0  0  0  0  0  0  0  0  0  0  0
  184.5780  178.2580  141.7790 C   0  0  0  0  0  2  0  0  0  0  0  0
  187.4250  177.6150  142.2530 C   0  0  2  0  0  3  0  0  0  0  0  0
  188.4570  177.1160  141.2840 C   0  0  0  0  0  3  0  0  0  0  0  0
  186.9960  179.0260  141.8650 C   0  0  0  0  0  2  0  0  0  0  0  0
  187.3220  177.7060  146.0570 C   0  0  0  0  0  3  0  0  0  0  0  0
  189.7610  177.1090  141.5640 C   0  0  0  0  0  0  0  0  0  0  0  0
  186.9120  177.6360  144.7280 C   0  0  0  0  0  0  0  0  0  0  0  0
  191.4540  177.7160  143.1000 O   0  0  0  0  0  0  0  0  0  0  0  0
  184.1180  178.9870  143.0550 C   0  0  1  0  0  3  0  0  0  0  0  0
  190.2320  177.4880  142.9090 C   0  0  0  0  0  0  0  0  0  0  0  0
  189.0990  177.8040  147.7570 N   0  0  0  0  0  2  0  0  0  0  0  0
  188.1770  178.1100  148.8450 C   0  0  0  0  0  1  0  0  0  0  0  0
  190.7210  176.6720  140.5070 C   0  0  0  0  0  2  0  0  0  0  0  0
  190.6560  177.6180  139.3200 C   0  0  0  0  0  2  0  0  0  0  0  0
  189.9030  176.9830  138.2400 N   0  0  0  0  0  2  0  0  0  0  0  0
  189.0830  178.1380  136.1930 C   0  0  0  0  0  2  0  0  0  0  0  0
  188.2860  175.8850  136.1790 O   0  0  0  0  0  0  0  0  0  0  0  0
  188.3530  177.0530  135.4000 C   0  0  0  0  0  2  0  0  0  0  0  0
  187.5860  177.3680  137.9270 O   0  0  0  0  0  0  0  0  0  0  0  0
  187.3660  176.1340  137.2390 C   0  0  0  0  0  2  0  0  0  0  0  0
  188.9670  179.1240  138.3600 O   0  0  0  0  0  1  0  0  0  0  0  0
  188.8810  177.9000  137.6980 C   0  0  1  0  0  0  0  0  0  0  0  0
  182.7590  178.4820  143.5490 C   0  0  0  0  0  2  0  0  0  0  0  0
  179.6380  178.3030  144.4770 Cl  0  0  0  0  0  0  0  0  0  0  0  0
  180.3430  178.2580  142.8390 C   0  0  2  0  0  3  0  0  0  0  0  0
  181.6160  179.1100  142.7620 C   0  0  2  0  0  3  0  0  0  0  0  0
  182.0630  179.2670  141.3340 C   0  0  0  0  0  3  0  0  0  0  0  0
  181.2380  179.0640  140.2990 C   0  0  0  0  0  3  0  0  0  0  0  0
  179.3420  178.7460  141.8870 N   0  0  0  0  0  2  0  0  0  0  0  0
  179.8100  178.6170  140.4960 C   0  0  2  0  0  3  0  0  0  0  0  0
  179.5290  177.2470  139.8530 C   0  0  1  0  0  3  0  0  0  0  0  0
  179.5130  177.8000  137.4080 O   0  0  0  0  0  0  0  0  0  0  0  0
  180.0810  177.0930  138.4660 C   0  0  0  0  0  0  0  0  0  0  0  0
  181.0950  176.3550  138.2680 O   0  0  0  0  0  1  0  0  0  0  0  0
  180.0040  176.2230  140.6810 O   0  0  0  0  0  0  0  0  0  0  0  0
  179.4940  173.9480  140.2430 C   0  0  0  0  0  2  0  0  0  0  0  0
  179.3120  174.2020  141.7320 C   0  0  0  0  0  2  0  0  0  0  0  0
  178.9620  175.2830  140.7240 C   0  0  0  0  0  3  0  0  0  0  0  0
  2  1  1  0  0  0  0
  2  5  1  0  0  0  0
  3 15  1  0  0  0  0
  4  2  2  0  0  0  0
  5 19  1  0  0  0  0
  6  3  1  0  0  0  0
  7  9  1  0  0  0  0
  7 12  1  0  0  0  0
  8  4  1  0  0  0  0
  8 15  2  0  0  0  0
  9 17  1  0  0  0  0
 10 11  1  6  0  0  0
 10  8  1  0  0  0  0
 11 14  2  0  0  0  0
 12 10  1  0  0  0  0
 13  5  2  0  0  0  0
 14 18  1  0  0  0  0
 15 13  1  0  0  0  0
 17 31  1  1  0  0  0
 17  6  1  0  0  0  0
 18 16  2  0  0  0  0
 18  4  1  0  0  0  0
 19 20  1  0  0  0  0
 21 14  1  0  0  0  0
 22 21  1  0  0  0  0
 23 22  1  0  0  0  0
 24 30  1  0  0  0  0
 25 28  1  0  0  0  0
 26 25  1  0  0  0  0
 26 24  1  0  0  0  0
 28 27  1  0  0  0  0
 30 27  1  0  0  0  0
 30 23  1  0  0  0  0
 30 29  1  1  0  0  0
 33 32  1  1  0  0  0
 34 33  1  0  0  0  0
 34 31  1  1  0  0  0
 35 34  1  0  0  0  0
 36 38  1  0  0  0  0
 36 35  2  0  0  0  0
 37 33  1  0  0  0  0
 38 39  1  1  0  0  0
 38 37  1  0  0  0  0
 39 41  1  6  0  0  0
 39 43  1  0  0  0  0
 40 41  2  0  0  0  0
 42 41  1  0  0  0  0
 43 46  1  0  0  0  0
 44 46  1  0  0  0  0
 44 45  1  0  0  0  0
 46 45  1  0  0  0  0
M  END
>  <MODEL>
1

>  <REMARK>
 VINA RESULT:      -8.6      0.000      0.000
  Name = 
  11 active torsions:
  status: ('A' for Active; 'I' for Inactive)
    1  A    between atoms: N_2  and  C_12
    2  A    between atoms: O_4  and  C_36
    3  A    between atoms: O_4  and  C_46
    4  A    between atoms: C_5  and  C_27
    5  A    between atoms: C_5  and  C_38
    6  A    between atoms: N_15  and  C_38
    7  A    between atoms: N_15  and  C_43
    8  A    between atoms: C_28  and  C_30
    9  A    between atoms: C_30  and  C_33
   10  A    between atoms: C_32  and  C_46
   11  A    between atoms: C_45  and  C_46
                            x       y       z     vdW  Elec       q    Type
                         _______ _______ _______ _____ _____    ______ ____

>  <TORSDO>
F 11

$$$$
=
 OpenBabel10222416193D

 46 51  0  0  1  0  0  0  0  0999 V2000
  188.3110  177.0140  145.1310 O   0  0  0  0  0  1  0  0  0  0  0  0
  188.1530  177.4120  143.8040 C   0  0  0  0  0  0  0  0  0  0  0  0
  187.7930  178.6020  139.6760 C   0  0  0  0  0  2  0  0  0  0  0  0
  186.9050  177.8810  143.3280 C   0  0  0  0  0  0  0  0  0  0  0  0
  189.2550  177.3480  142.9360 C   0  0  0  0  0  0  0  0  0  0  0  0
  187.2370  177.5240  138.9610 O   0  0  0  0  0  0  0  0  0  0  0  0
  184.2190  178.0830  139.3190 C   0  0  0  0  0  2  0  0  0  0  0  0
  186.7810  178.2880  141.9840 C   0  0  0  0  0  0  0  0  0  0  0  0
  185.2200  178.8860  138.4900 C   0  0  0  0  0  2  0  0  0  0  0  0
  185.4330  178.7060  141.4340 C   0  0  2  0  0  3  0  0  0  0  0  0
  184.4600  179.1570  142.4830 C   0  0  0  0  0  3  0  0  0  0  0  0
  184.8250  177.5670  140.6230 C   0  0  0  0  0  2  0  0  0  0  0  0
  189.1170  177.7600  141.6020 C   0  0  0  0  0  3  0  0  0  0  0  0
  184.5590  178.7880  143.7620 C   0  0  0  0  0  0  0  0  0  0  0  0
  187.8970  178.2320  141.1240 C   0  0  0  0  0  0  0  0  0  0  0  0
  185.6980  177.4560  145.3500 O   0  0  0  0  0  0  0  0  0  0  0  0
  186.3680  178.0110  137.9550 C   0  0  1  0  0  3  0  0  0  0  0  0
  185.7230  178.0070  144.2190 C   0  0  0  0  0  0  0  0  0  0  0  0
  190.5090  176.8510  143.4170 N   0  0  0  0  0  2  0  0  0  0  0  0
  191.7920  177.2800  142.8710 C   0  0  0  0  0  1  0  0  0  0  0  0
  183.4960  179.2180  144.7190 C   0  0  0  0  0  2  0  0  0  0  0  0
  182.2470  179.6310  143.9600 C   0  0  0  0  0  2  0  0  0  0  0  0
  181.3470  178.4830  143.8530 N   0  0  0  0  0  2  0  0  0  0  0  0
  180.0310  180.1790  142.5940 C   0  0  0  0  0  2  0  0  0  0  0  0
  180.8920  178.5700  141.0510 O   0  0  0  0  0  0  0  0  0  0  0  0
  180.2050  179.7930  141.1240 C   0  0  0  0  0  2  0  0  0  0  0  0
  179.3480  177.8660  142.7430 O   0  0  0  0  0  0  0  0  0  0  0  0
  180.0020  177.5560  141.5110 C   0  0  0  0  0  2  0  0  0  0  0  0
  179.2410  179.1710  144.6040 O   0  0  0  0  0  1  0  0  0  0  0  0
  179.9910  178.9090  143.4580 C   0  0  1  0  0  0  0  0  0  0  0  0
  187.1320  178.6950  136.8170 C   0  0  0  0  0  2  0  0  0  0  0  0
  184.6470  177.1110  135.4200 Cl  0  0  0  0  0  0  0  0  0  0  0  0
  186.3280  176.5780  135.6930 C   0  0  2  0  0  3  0  0  0  0  0  0
  187.3000  177.7630  135.6250 C   0  0  2  0  0  3  0  0  0  0  0  0
  188.7240  177.2790  135.6080 C   0  0  0  0  0  3  0  0  0  0  0  0
  189.0500  176.0250  135.2670 C   0  0  0  0  0  3  0  0  0  0  0  0
  186.6680  175.5770  134.6800 N   0  0  0  0  0  2  0  0  0  0  0  0
  188.0010  174.9960  134.9200 C   0  0  2  0  0  3  0  0  0  0  0  0
  188.0110  173.7990  135.8860 C   0  0  1  0  0  3  0  0  0  0  0  0
  190.1800  172.6360  135.4100 O   0  0  0  0  0  0  0  0  0  0  0  0
  189.3830  173.3530  136.3000 C   0  0  0  0  0  0  0  0  0  0  0  0
  189.8330  173.6720  137.4440 O   0  0  0  0  0  1  0  0  0  0  0  0
  187.2330  174.0870  137.0130 O   0  0  0  0  0  0  0  0  0  0  0  0
  185.1530  173.2260  137.7630 C   0  0  0  0  0  2  0  0  0  0  0  0
  185.3880  172.7430  136.3390 C   0  0  0  0  0  2  0  0  0  0  0  0
  186.5560  172.8910  137.2980 C   0  0  0  0  0  3  0  0  0  0  0  0
  2  1  1  0  0  0  0
  3 15  1  0  0  0  0
  4  2  1  0  0  0  0
  4 18  1  0  0  0  0
  5 19  1  0  0  0  0
  5  2  2  0  0  0  0
  6  3  1  0  0  0  0
  7 12  1  0  0  0  0
  8  4  2  0  0  0  0
  9  7  1  0  0  0  0
 10 12  1  1  0  0  0
 10  8  1  0  0  0  0
 10 11  1  0  0  0  0
 11 14  2  0  0  0  0
 13  5  1  0  0  0  0
 14 18  1  0  0  0  0
 14 21  1  0  0  0  0
 15 13  2  0  0  0  0
 15  8  1  0  0  0  0
 17 31  1  6  0  0  0
 17  9  1  0  0  0  0
 17  6  1  0  0  0  0
 18 16  2  0  0  0  0
 20 19  1  0  0  0  0
 22 21  1  0  0  0  0
 23 22  1  0  0  0  0
 24 30  1  0  0  0  0
 25 26  1  0  0  0  0
 25 28  1  0  0  0  0
 26 24  1  0  0  0  0
 27 30  1  0  0  0  0
 28 27  1  0  0  0  0
 30 23  1  0  0  0  0
 30 29  1  1  0  0  0
 33 32  1  6  0  0  0
 34 33  1  0  0  0  0
 34 31  1  1  0  0  0
 35 34  1  0  0  0  0
 36 35  2  0  0  0  0
 37 38  1  0  0  0  0
 37 33  1  0  0  0  0
 38 36  1  0  0  0  0
 38 39  1  1  0  0  0
 39 41  1  1  0  0  0
 39 43  1  0  0  0  0
 40 41  2  0  0  0  0
 41 42  1  0  0  0  0
 43 46  1  0  0  0  0
 45 46  1  0  0  0  0
 45 44  1  0  0  0  0
 46 44  1  0  0  0  0
M  END
>  <MODEL>
2

>  <REMARK>
 VINA RESULT:      -7.8      2.841      7.852
  Name = 
  11 active torsions:
  status: ('A' for Active; 'I' for Inactive)
    1  A    between atoms: N_2  and  C_12
    2  A    between atoms: O_4  and  C_36
    3  A    between atoms: O_4  and  C_46
    4  A    between atoms: C_5  and  C_27
    5  A    between atoms: C_5  and  C_38
    6  A    between atoms: N_15  and  C_38
    7  A    between atoms: N_15  and  C_43
    8  A    between atoms: C_28  and  C_30
    9  A    between atoms: C_30  and  C_33
   10  A    between atoms: C_32  and  C_46
   11  A    between atoms: C_45  and  C_46
                            x       y       z     vdW  Elec       q    Type
                         _______ _______ _______ _____ _____    ______ ____

>  <TORSDO>
F 11

$$$$
=
 OpenBabel10222416193D

 46 51  0  0  1  0  0  0  0  0999 V2000
  190.9810  175.8240  139.0790 O   0  0  0  0  0  1  0  0  0  0  0  0
  189.7720  176.5130  138.9800 C   0  0  0  0  0  0  0  0  0  0  0  0
  186.0200  178.5910  138.5480 C   0  0  0  0  0  2  0  0  0  0  0  0
  189.2340  177.2030  140.0930 C   0  0  0  0  0  0  0  0  0  0  0  0
  189.0880  176.5180  137.7540 C   0  0  0  0  0  0  0  0  0  0  0  0
  185.0020  177.7560  139.0500 O   0  0  0  0  0  0  0  0  0  0  0  0
  185.0210  178.5450  142.0370 C   0  0  0  0  0  2  0  0  0  0  0  0
  188.0160  177.9000  139.9570 C   0  0  0  0  0  0  0  0  0  0  0  0
  184.5580  179.3950  140.8560 C   0  0  0  0  0  2  0  0  0  0  0  0
  187.3810  178.5670  141.1590 C   0  0  2  0  0  3  0  0  0  0  0  0
  188.3470  178.8840  142.2620 C   0  0  0  0  0  3  0  0  0  0  0  0
  186.2490  177.7000  141.7000 C   0  0  0  0  0  2  0  0  0  0  0  0
  187.8780  177.2190  137.6340 C   0  0  0  0  0  3  0  0  0  0  0  0
  189.5080  178.2420  142.4080 C   0  0  0  0  0  0  0  0  0  0  0  0
  187.3440  177.9100  138.7180 C   0  0  0  0  0  0  0  0  0  0  0  0
  190.9010  176.4860  141.6520 O   0  0  0  0  0  0  0  0  0  0  0  0
  184.0160  178.5380  139.6980 C   0  0  1  0  0  3  0  0  0  0  0  0
  189.9430  177.2610  141.3980 C   0  0  0  0  0  0  0  0  0  0  0  0
  189.6250  175.7990  136.6380 N   0  0  0  0  0  2  0  0  0  0  0  0
  190.4270  176.4340  135.6000 C   0  0  0  0  0  1  0  0  0  0  0  0
  190.3670  178.5680  143.5850 C   0  0  0  0  0  2  0  0  0  0  0  0
  190.0330  177.6470  144.7460 C   0  0  0  0  0  2  0  0  0  0  0  0
  189.1930  178.3640  145.7030 N   0  0  0  0  0  2  0  0  0  0  0  0
  187.7660  178.1650  147.7340 C   0  0  0  0  0  2  0  0  0  0  0  0
  186.3860  178.7640  145.8760 O   0  0  0  0  0  0  0  0  0  0  0  0
  186.3690  178.5840  147.2700 C   0  0  0  0  0  2  0  0  0  0  0  0
  187.5470  176.6670  145.8500 O   0  0  0  0  0  0  0  0  0  0  0  0
  186.5120  177.4740  145.2830 C   0  0  0  0  0  2  0  0  0  0  0  0
  189.4090  176.5400  147.1510 O   0  0  0  0  0  1  0  0  0  0  0  0
  188.4870  177.4250  146.5950 C   0  0  1  0  0  0  0  0  0  0  0  0
  183.1920  179.3640  138.7060 C   0  0  0  0  0  2  0  0  0  0  0  0
  181.0200  178.1510  140.8140 Cl  0  0  0  0  0  0  0  0  0  0  0  0
  181.5830  177.4940  139.2550 C   0  0  2  0  0  3  0  0  0  0  0  0
  181.9350  178.6200  138.2750 C   0  0  2  0  0  3  0  0  0  0  0  0
  182.1690  178.0680  136.8950 C   0  0  0  0  0  3  0  0  0  0  0  0
  181.7130  176.8670  136.5180 C   0  0  0  0  0  3  0  0  0  0  0  0
  180.5270  176.6440  138.7000 N   0  0  0  0  0  2  0  0  0  0  0  0
  180.9700  175.9620  137.4710 C   0  0  2  0  0  3  0  0  0  0  0  0
  181.7040  174.6310  137.7100 C   0  0  1  0  0  3  0  0  0  0  0  0
  179.9670  172.9670  138.4180 O   0  0  0  0  0  1  0  0  0  0  0  0
  180.8670  173.4120  137.4520 C   0  0  0  0  0  0  0  0  0  0  0  0
  180.9450  172.8170  136.3330 O   0  0  0  0  0  0  0  0  0  0  0  0
  182.8760  174.5860  136.9460 O   0  0  0  0  0  0  0  0  0  0  0  0
  184.7680  173.2910  137.5530 C   0  0  0  0  0  2  0  0  0  0  0  0
  185.2430  174.6870  137.1760 C   0  0  0  0  0  2  0  0  0  0  0  0
  183.9140  174.4970  137.8860 C   0  0  0  0  0  3  0  0  0  0  0  0
  2  1  1  0  0  0  0
  2  4  1  0  0  0  0
  3 15  1  0  0  0  0
  3  6  1  0  0  0  0
  4 18  1  0  0  0  0
  5  2  2  0  0  0  0
  6 17  1  0  0  0  0
  8  4  2  0  0  0  0
  8 10  1  0  0  0  0
  9  7  1  0  0  0  0
 10 12  1  1  0  0  0
 10 11  1  0  0  0  0
 11 14  2  0  0  0  0
 12  7  1  0  0  0  0
 13  5  1  0  0  0  0
 13 15  2  0  0  0  0
 14 21  1  0  0  0  0
 15  8  1  0  0  0  0
 17 31  1  6  0  0  0
 17  9  1  0  0  0  0
 18 16  2  0  0  0  0
 18 14  1  0  0  0  0
 19  5  1  0  0  0  0
 20 19  1  0  0  0  0
 21 22  1  0  0  0  0
 22 23  1  0  0  0  0
 23 30  1  0  0  0  0
 25 26  1  0  0  0  0
 26 24  1  0  0  0  0
 27 30  1  0  0  0  0
 28 27  1  0  0  0  0
 28 25  1  0  0  0  0
 30 29  1  1  0  0  0
 30 24  1  0  0  0  0
 33 32  1  1  0  0  0
 34 31  1  1  0  0  0
 34 33  1  0  0  0  0
 35 34  1  0  0  0  0
 36 35  2  0  0  0  0
 36 38  1  0  0  0  0
 37 33  1  0  0  0  0
 38 39  1  1  0  0  0
 38 37  1  0  0  0  0
 39 43  1  6  0  0  0
 41 39  1  0  0  0  0
 41 40  1  0  0  0  0
 42 41  2  0  0  0  0
 43 46  1  0  0  0  0
 44 46  1  0  0  0  0
 45 44  1  0  0  0  0
 45 46  1  0  0  0  0
M  END
>  <MODEL>
3

>  <REMARK>
 VINA RESULT:      -7.7      2.468      6.366
  Name = 
  11 active torsions:
  status: ('A' for Active; 'I' for Inactive)
    1  A    between atoms: N_2  and  C_12
    2  A    between atoms: O_4  and  C_36
    3  A    between atoms: O_4  and  C_46
    4  A    between atoms: C_5  and  C_27
    5  A    between atoms: C_5  and  C_38
    6  A    between atoms: N_15  and  C_38
    7  A    between atoms: N_15  and  C_43
    8  A    between atoms: C_28  and  C_30
    9  A    between atoms: C_30  and  C_33
   10  A    between atoms: C_32  and  C_46
   11  A    between atoms: C_45  and  C_46
                            x       y       z     vdW  Elec       q    Type
                         _______ _______ _______ _____ _____    ______ ____

>  <TORSDO>
F 11

$$$$
=
 OpenBabel10222416193D

 46 51  0  0  1  0  0  0  0  0999 V2000
  183.7790  176.5340  134.5960 O   0  0  0  0  0  1  0  0  0  0  0  0
  184.1910  176.8950  135.8790 C   0  0  0  0  0  0  0  0  0  0  0  0
  185.5790  178.0650  139.7890 C   0  0  0  0  0  2  0  0  0  0  0  0
  183.3400  176.7120  136.9950 C   0  0  0  0  0  0  0  0  0  0  0  0
  185.4710  177.4440  136.0550 C   0  0  0  0  0  0  0  0  0  0  0  0
  185.0530  179.3410  140.0710 O   0  0  0  0  0  0  0  0  0  0  0  0
  182.3350  178.5850  141.3330 C   0  0  0  0  0  2  0  0  0  0  0  0
  183.7910  177.0760  138.2810 C   0  0  0  0  0  0  0  0  0  0  0  0
  183.7260  178.3740  141.9290 C   0  0  0  0  0  2  0  0  0  0  0  0
  182.8630  176.9720  139.4730 C   0  0  2  0  0  3  0  0  0  0  0  0
  181.7330  176.0030  139.2830 C   0  0  0  0  0  3  0  0  0  0  0  0
  182.3080  178.3480  139.8240 C   0  0  0  0  0  2  0  0  0  0  0  0
  185.9070  177.7980  137.3410 C   0  0  0  0  0  3  0  0  0  0  0  0
  181.2920  175.6400  138.0770 C   0  0  0  0  0  0  0  0  0  0  0  0
  185.0830  177.6130  138.4490 C   0  0  0  0  0  0  0  0  0  0  0  0
  181.4470  175.9620  135.7390 O   0  0  0  0  0  0  0  0  0  0  0  0
  184.7330  179.4350  141.4480 C   0  0  1  0  0  3  0  0  0  0  0  0
  181.9950  176.0960  136.8640 C   0  0  0  0  0  0  0  0  0  0  0  0
  186.3180  177.6490  134.9190 N   0  0  0  0  0  2  0  0  0  0  0  0
  187.6820  178.1540  135.0300 C   0  0  0  0  0  1  0  0  0  0  0  0
  180.1070  174.7360  137.9870 C   0  0  0  0  0  2  0  0  0  0  0  0
  180.3710  173.6290  136.9820 C   0  0  0  0  0  2  0  0  0  0  0  0
  181.4380  172.7650  137.4860 N   0  0  0  0  0  2  0  0  0  0  0  0
  182.1730  172.5280  135.1200 C   0  0  0  0  0  2  0  0  0  0  0  0
  184.0260  173.2700  136.4330 O   0  0  0  0  0  0  0  0  0  0  0  0
  183.6200  173.0240  135.1110 C   0  0  0  0  0  2  0  0  0  0  0  0
  183.0460  171.1320  136.8890 O   0  0  0  0  0  0  0  0  0  0  0  0
  184.1600  172.0070  137.0780 C   0  0  0  0  0  2  0  0  0  0  0  0
  180.8820  170.8650  136.2390 O   0  0  0  0  0  1  0  0  0  0  0  0
  181.8820  171.8130  136.4500 C   0  0  1  0  0  0  0  0  0  0  0  0
  185.9850  179.4820  142.3280 C   0  0  0  0  0  2  0  0  0  0  0  0
  184.9110  179.1520  145.3900 Cl  0  0  0  0  0  0  0  0  0  0  0  0
  186.3810  178.4960  144.6210 C   0  0  2  0  0  3  0  0  0  0  0  0
  186.1430  178.2010  143.1350 C   0  0  2  0  0  3  0  0  0  0  0  0
  187.2960  177.4250  142.5580 C   0  0  0  0  0  3  0  0  0  0  0  0
  188.1550  176.7420  143.3250 C   0  0  0  0  0  3  0  0  0  0  0  0
  186.7710  177.2750  145.3300 N   0  0  0  0  0  2  0  0  0  0  0  0
  188.0520  176.7440  144.8320 C   0  0  2  0  0  3  0  0  0  0  0  0
  189.2970  177.3490  145.5050 C   0  0  1  0  0  3  0  0  0  0  0  0
  188.6570  178.2630  147.7500 O   0  0  0  0  0  1  0  0  0  0  0  0
  189.2860  177.2690  147.0040 C   0  0  0  0  0  0  0  0  0  0  0  0
  189.8090  176.2690  147.5870 O   0  0  0  0  0  0  0  0  0  0  0  0
  190.4550  176.7510  144.9950 O   0  0  0  0  0  0  0  0  0  0  0  0
  191.7080  177.9780  143.3970 C   0  0  0  0  0  2  0  0  0  0  0  0
  190.7320  178.9290  144.0750 C   0  0  0  0  0  2  0  0  0  0  0  0
  191.3750  177.8030  144.8650 C   0  0  0  0  0  3  0  0  0  0  0  0
  1  2  1  0  0  0  0
  2  5  2  0  0  0  0
  2  4  1  0  0  0  0
  3  6  1  0  0  0  0
  4  8  2  0  0  0  0
  5 13  1  0  0  0  0
  6 17  1  0  0  0  0
  7  9  1  0  0  0  0
  8 15  1  0  0  0  0
  8 10  1  0  0  0  0
 10 11  1  6  0  0  0
 10 12  1  0  0  0  0
 12  7  1  0  0  0  0
 13 15  2  0  0  0  0
 14 11  2  0  0  0  0
 15  3  1  0  0  0  0
 16 18  2  0  0  0  0
 17  9  1  0  0  0  0
 17 31  1  1  0  0  0
 18  4  1  0  0  0  0
 18 14  1  0  0  0  0
 19 20  1  0  0  0  0
 19  5  1  0  0  0  0
 21 14  1  0  0  0  0
 22 23  1  0  0  0  0
 22 21  1  0  0  0  0
 24 30  1  0  0  0  0
 25 28  1  0  0  0  0
 26 24  1  0  0  0  0
 26 25  1  0  0  0  0
 27 28  1  0  0  0  0
 30 29  1  6  0  0  0
 30 27  1  0  0  0  0
 30 23  1  0  0  0  0
 33 37  1  0  0  0  0
 33 32  1  1  0  0  0
 34 31  1  6  0  0  0
 34 33  1  0  0  0  0
 35 34  1  0  0  0  0
 35 36  2  0  0  0  0
 36 38  1  0  0  0  0
 38 37  1  0  0  0  0
 38 39  1  1  0  0  0
 39 43  1  6  0  0  0
 39 41  1  0  0  0  0
 41 42  2  0  0  0  0
 41 40  1  0  0  0  0
 44 45  1  0  0  0  0
 44 46  1  0  0  0  0
 45 46  1  0  0  0  0
 46 43  1  0  0  0  0
M  END
>  <MODEL>
4

>  <REMARK>
 VINA RESULT:      -7.7      3.355      9.293
  Name = 
  11 active torsions:
  status: ('A' for Active; 'I' for Inactive)
    1  A    between atoms: N_2  and  C_12
    2  A    between atoms: O_4  and  C_36
    3  A    between atoms: O_4  and  C_46
    4  A    between atoms: C_5  and  C_27
    5  A    between atoms: C_5  and  C_38
    6  A    between atoms: N_15  and  C_38
    7  A    between atoms: N_15  and  C_43
    8  A    between atoms: C_28  and  C_30
    9  A    between atoms: C_30  and  C_33
   10  A    between atoms: C_32  and  C_46
   11  A    between atoms: C_45  and  C_46
                            x       y       z     vdW  Elec       q    Type
                         _______ _______ _______ _____ _____    ______ ____

>  <TORSDO>
F 11

$$$$
=
 OpenBabel10222416193D

 46 51  0  0  1  0  0  0  0  0999 V2000
  193.3970  173.9000  135.8140 O   0  0  0  0  0  1  0  0  0  0  0  0
  192.6040  174.5780  136.7410 C   0  0  0  0  0  0  0  0  0  0  0  0
  190.2660  176.7230  139.6590 C   0  0  0  0  0  2  0  0  0  0  0  0
  191.1920  174.5460  136.6510 C   0  0  0  0  0  0  0  0  0  0  0  0
  193.2250  175.2950  137.7750 C   0  0  0  0  0  0  0  0  0  0  0  0
  189.9000  177.9610  139.0950 O   0  0  0  0  0  0  0  0  0  0  0  0
  187.2770  177.1900  137.6550 C   0  0  0  0  0  2  0  0  0  0  0  0
  190.4180  175.2300  137.6100 C   0  0  0  0  0  0  0  0  0  0  0  0
  187.5180  177.2760  139.1610 C   0  0  0  0  0  2  0  0  0  0  0  0
  188.9100  175.2820  137.4780 C   0  0  2  0  0  3  0  0  0  0  0  0
  188.3310  174.1730  136.6500 C   0  0  0  0  0  3  0  0  0  0  0  0
  188.4830  176.6290  136.9040 C   0  0  0  0  0  2  0  0  0  0  0  0
  192.4410  175.9690  138.7250 C   0  0  0  0  0  3  0  0  0  0  0  0
  189.0450  173.5070  135.7400 C   0  0  0  0  0  0  0  0  0  0  0  0
  191.0500  175.9360  138.6530 C   0  0  0  0  0  0  0  0  0  0  0  0
  191.1060  173.3280  134.5940 O   0  0  0  0  0  0  0  0  0  0  0  0
  188.5960  178.3150  139.5200 C   0  0  1  0  0  3  0  0  0  0  0  0
  190.4890  173.7660  135.5990 C   0  0  0  0  0  0  0  0  0  0  0  0
  194.6540  175.3430  137.8480 N   0  0  0  0  0  2  0  0  0  0  0  0
  195.4310  174.4850  138.7350 C   0  0  0  0  0  1  0  0  0  0  0  0
  188.3620  172.4750  134.9050 C   0  0  0  0  0  2  0  0  0  0  0  0
  187.1540  171.9240  135.6420 C   0  0  0  0  0  2  0  0  0  0  0  0
  185.9440  172.5670  135.1310 N   0  0  0  0  0  2  0  0  0  0  0  0
  184.5310  172.4840  137.1790 C   0  0  0  0  0  2  0  0  0  0  0  0
  183.9800  174.4530  135.9410 O   0  0  0  0  0  0  0  0  0  0  0  0
  183.7360  173.7910  137.1560 C   0  0  0  0  0  2  0  0  0  0  0  0
  183.5960  172.3010  134.9580 O   0  0  0  0  0  0  0  0  0  0  0  0
  183.3330  173.7050  134.9140 C   0  0  0  0  0  2  0  0  0  0  0  0
  184.8630  170.5920  135.7670 O   0  0  0  0  0  1  0  0  0  0  0  0
  184.7350  171.9800  135.7410 C   0  0  1  0  0  0  0  0  0  0  0  0
  188.5580  178.6970  141.0030 C   0  0  0  0  0  2  0  0  0  0  0  0
  185.3430  178.9860  141.4720 Cl  0  0  0  0  0  0  0  0  0  0  0  0
  186.6070  178.3910  142.5820 C   0  0  2  0  0  3  0  0  0  0  0  0
  187.7380  177.6990  141.8100 C   0  0  2  0  0  3  0  0  0  0  0  0
  188.6680  176.9890  142.7560 C   0  0  0  0  0  3  0  0  0  0  0  0
  188.3060  176.6610  144.0030 C   0  0  0  0  0  3  0  0  0  0  0  0
  185.9920  177.4620  143.5320 N   0  0  0  0  0  2  0  0  0  0  0  0
  186.9520  177.0260  144.5620 C   0  0  2  0  0  3  0  0  0  0  0  0
  187.0510  177.9630  145.7780 C   0  0  1  0  0  3  0  0  0  0  0  0
  184.6050  177.6630  146.2420 O   0  0  0  0  0  0  0  0  0  0  0  0
  185.7290  178.4860  146.2610 C   0  0  0  0  0  0  0  0  0  0  0  0
  185.6500  179.6630  146.7320 O   0  0  0  0  0  1  0  0  0  0  0  0
  187.7310  177.3240  146.8210 O   0  0  0  0  0  0  0  0  0  0  0  0
  189.3080  177.9450  148.4820 C   0  0  0  0  0  2  0  0  0  0  0  0
  190.0430  177.2020  147.3760 C   0  0  0  0  0  2  0  0  0  0  0  0
  188.8740  178.1100  147.0390 C   0  0  0  0  0  3  0  0  0  0  0  0
  1  2  1  0  0  0  0
  2  5  1  0  0  0  0
  4  2  2  0  0  0  0
  4  8  1  0  0  0  0
  5 19  1  0  0  0  0
  5 13  2  0  0  0  0
  6 17  1  0  0  0  0
  6  3  1  0  0  0  0
  7  9  1  0  0  0  0
  8 15  2  0  0  0  0
  9 17  1  0  0  0  0
 10 11  1  6  0  0  0
 10  8  1  0  0  0  0
 12 10  1  0  0  0  0
 12  7  1  0  0  0  0
 14 11  2  0  0  0  0
 15 13  1  0  0  0  0
 15  3  1  0  0  0  0
 16 18  2  0  0  0  0
 17 31  1  1  0  0  0
 18 14  1  0  0  0  0
 18  4  1  0  0  0  0
 19 20  1  0  0  0  0
 21 22  1  0  0  0  0
 21 14  1  0  0  0  0
 23 22  1  0  0  0  0
 23 30  1  0  0  0  0
 25 26  1  0  0  0  0
 26 24  1  0  0  0  0
 27 30  1  0  0  0  0
 28 27  1  0  0  0  0
 28 25  1  0  0  0  0
 30 29  1  1  0  0  0
 30 24  1  0  0  0  0
 33 32  1  6  0  0  0
 33 37  1  0  0  0  0
 34 31  1  1  0  0  0
 34 33  1  0  0  0  0
 34 35  1  0  0  0  0
 35 36  2  0  0  0  0
 36 38  1  0  0  0  0
 37 38  1  0  0  0  0
 38 39  1  1  0  0  0
 39 41  1  1  0  0  0
 39 43  1  0  0  0  0
 40 41  2  0  0  0  0
 41 42  1  0  0  0  0
 43 46  1  0  0  0  0
 45 44  1  0  0  0  0
 46 45  1  0  0  0  0
 46 44  1  0  0  0  0
M  END
>  <MODEL>
5

>  <REMARK>
 VINA RESULT:      -7.5      3.904      8.349
  Name = 
  11 active torsions:
  status: ('A' for Active; 'I' for Inactive)
    1  A    between atoms: N_2  and  C_12
    2  A    between atoms: O_4  and  C_36
    3  A    between atoms: O_4  and  C_46
    4  A    between atoms: C_5  and  C_27
    5  A    between atoms: C_5  and  C_38
    6  A    between atoms: N_15  and  C_38
    7  A    between atoms: N_15  and  C_43
    8  A    between atoms: C_28  and  C_30
    9  A    between atoms: C_30  and  C_33
   10  A    between atoms: C_32  and  C_46
   11  A    between atoms: C_45  and  C_46
                            x       y       z     vdW  Elec       q    Type
                         _______ _______ _______ _____ _____    ______ ____

>  <TORSDO>
F 11

$$$$
=
 OpenBabel10222416193D

 46 51  0  0  1  0  0  0  0  0999 V2000
  192.5260  177.6610  142.0600 O   0  0  0  0  0  1  0  0  0  0  0  0
  191.2860  177.5450  141.4320 C   0  0  0  0  0  0  0  0  0  0  0  0
  187.3910  177.2190  139.6120 C   0  0  0  0  0  2  0  0  0  0  0  0
  191.1940  177.3230  140.0380 C   0  0  0  0  0  0  0  0  0  0  0  0
  190.1180  177.6490  142.2040 C   0  0  0  0  0  0  0  0  0  0  0  0
  187.0680  178.4710  139.0540 O   0  0  0  0  0  0  0  0  0  0  0  0
  188.3310  178.2020  136.2470 C   0  0  0  0  0  2  0  0  0  0  0  0
  189.9250  177.1970  139.4350 C   0  0  0  0  0  0  0  0  0  0  0  0
  187.1090  177.4640  136.7890 C   0  0  0  0  0  2  0  0  0  0  0  0
  189.8050  177.0500  137.9330 C   0  0  2  0  0  3  0  0  0  0  0  0
  191.0420  176.5200  137.2710 C   0  0  0  0  0  3  0  0  0  0  0  0
  189.4170  178.3850  137.3060 C   0  0  0  0  0  2  0  0  0  0  0  0
  188.8620  177.5190  141.5910 C   0  0  0  0  0  3  0  0  0  0  0  0
  192.2530  176.6220  137.8230 C   0  0  0  0  0  0  0  0  0  0  0  0
  188.7590  177.2890  140.2210 C   0  0  0  0  0  0  0  0  0  0  0  0
  193.5410  177.4860  139.6090 O   0  0  0  0  0  0  0  0  0  0  0  0
  186.3520  178.2880  137.8460 C   0  0  1  0  0  3  0  0  0  0  0  0
  192.4010  177.1630  139.1860 C   0  0  0  0  0  0  0  0  0  0  0  0
  190.2170  177.8980  143.6110 N   0  0  0  0  0  2  0  0  0  0  0  0
  189.0990  177.7090  144.5280 C   0  0  0  0  0  1  0  0  0  0  0  0
  193.4380  176.1410  137.0530 C   0  0  0  0  0  2  0  0  0  0  0  0
  194.0180  174.9000  137.7080 C   0  0  0  0  0  2  0  0  0  0  0  0
  195.4580  175.0820  137.8920 N   0  0  0  0  0  2  0  0  0  0  0  0
  197.1630  173.2820  137.6750 C   0  0  0  0  0  2  0  0  0  0  0  0
  198.2460  175.2890  138.3900 O   0  0  0  0  0  0  0  0  0  0  0  0
  198.4970  173.9730  137.9660 C   0  0  0  0  0  2  0  0  0  0  0  0
  196.5990  174.2750  139.8040 O   0  0  0  0  0  0  0  0  0  0  0  0
  197.6710  175.2130  139.6920 C   0  0  0  0  0  2  0  0  0  0  0  0
  195.0710  172.9470  138.7660 O   0  0  0  0  0  1  0  0  0  0  0  0
  196.0600  173.9040  138.5460 C   0  0  1  0  0  0  0  0  0  0  0  0
  184.9380  177.7530  138.0900 C   0  0  0  0  0  2  0  0  0  0  0  0
  185.0930  178.9380  141.1250 Cl  0  0  0  0  0  0  0  0  0  0  0  0
  183.6710  178.6420  140.0890 C   0  0  2  0  0  3  0  0  0  0  0  0
  184.0140  178.8470  138.6080 C   0  0  2  0  0  3  0  0  0  0  0  0
  182.7650  178.8390  137.7690 C   0  0  0  0  0  3  0  0  0  0  0  0
  181.5510  179.0570  138.2910 C   0  0  0  0  0  3  0  0  0  0  0  0
  182.6000  179.5530  140.4980 N   0  0  0  0  0  2  0  0  0  0  0  0
  181.3480  179.2790  139.7700 C   0  0  2  0  0  3  0  0  0  0  0  0
  180.4620  178.1970  140.4110 C   0  0  1  0  0  3  0  0  0  0  0  0
  181.5660  176.0240  139.8230 O   0  0  0  0  0  1  0  0  0  0  0  0
  180.4770  176.8810  139.6880 C   0  0  0  0  0  0  0  0  0  0  0  0
  179.4730  176.5320  138.9920 O   0  0  0  0  0  0  0  0  0  0  0  0
  180.8190  178.0180  141.7520 O   0  0  0  0  0  0  0  0  0  0  0  0
  179.9710  178.2600  143.9550 C   0  0  0  0  0  2  0  0  0  0  0  0
  180.2710  179.6450  143.4010 C   0  0  0  0  0  2  0  0  0  0  0  0
  179.7480  178.5530  142.4850 C   0  0  0  0  0  3  0  0  0  0  0  0
  2  1  1  0  0  0  0
  2  5  1  0  0  0  0
  3 15  1  0  0  0  0
  4  2  2  0  0  0  0
  5 19  1  0  0  0  0
  6  3  1  0  0  0  0
  7  9  1  0  0  0  0
  7 12  1  0  0  0  0
  8  4  1  0  0  0  0
  8 15  2  0  0  0  0
  9 17  1  0  0  0  0
 10 11  1  6  0  0  0
 10  8  1  0  0  0  0
 11 14  2  0  0  0  0
 12 10  1  0  0  0  0
 13  5  2  0  0  0  0
 14 18  1  0  0  0  0
 15 13  1  0  0  0  0
 17 31  1  1  0  0  0
 17  6  1  0  0  0  0
 18 16  2  0  0  0  0
 18  4  1  0  0  0  0
 19 20  1  0  0  0  0
 21 22  1  0  0  0  0
 21 14  1  0  0  0  0
 22 23  1  0  0  0  0
 23 30  1  0  0  0  0
 24 26  1  0  0  0  0
 24 30  1  0  0  0  0
 25 28  1  0  0  0  0
 26 25  1  0  0  0  0
 28 27  1  0  0  0  0
 30 29  1  1  0  0  0
 30 27  1  0  0  0  0
 33 37  1  0  0  0  0
 33 32  1  1  0  0  0
 34 31  1  6  0  0  0
 34 33  1  0  0  0  0
 35 36  2  0  0  0  0
 35 34  1  0  0  0  0
 36 38  1  0  0  0  0
 38 39  1  1  0  0  0
 38 37  1  0  0  0  0
 39 41  1  6  0  0  0
 39 43  1  0  0  0  0
 41 40  1  0  0  0  0
 42 41  2  0  0  0  0
 43 46  1  0  0  0  0
 45 44  1  0  0  0  0
 46 45  1  0  0  0  0
 46 44  1  0  0  0  0
M  END
>  <MODEL>
6

>  <REMARK>
 VINA RESULT:      -7.5      3.781      5.637
  Name = 
  11 active torsions:
  status: ('A' for Active; 'I' for Inactive)
    1  A    between atoms: N_2  and  C_12
    2  A    between atoms: O_4  and  C_36
    3  A    between atoms: O_4  and  C_46
    4  A    between atoms: C_5  and  C_27
    5  A    between atoms: C_5  and  C_38
    6  A    between atoms: N_15  and  C_38
    7  A    between atoms: N_15  and  C_43
    8  A    between atoms: C_28  and  C_30
    9  A    between atoms: C_30  and  C_33
   10  A    between atoms: C_32  and  C_46
   11  A    between atoms: C_45  and  C_46
                            x       y       z     vdW  Elec       q    Type
                         _______ _______ _______ _____ _____    ______ ____

>  <TORSDO>
F 11

$$$$
=
 OpenBabel10222416193D

 46 51  0  0  1  0  0  0  0  0999 V2000
  188.6220  176.8230  145.1430 O   0  0  0  0  0  1  0  0  0  0  0  0
  189.3240  176.9370  143.9430 C   0  0  0  0  0  0  0  0  0  0  0  0
  191.6050  177.2330  140.2960 C   0  0  0  0  0  2  0  0  0  0  0  0
  188.6840  177.3880  142.7650 C   0  0  0  0  0  0  0  0  0  0  0  0
  190.6870  176.6000  143.9150 C   0  0  0  0  0  0  0  0  0  0  0  0
  191.3590  176.0730  139.5370 O   0  0  0  0  0  0  0  0  0  0  0  0
  188.8450  176.9320  137.9580 C   0  0  0  0  0  2  0  0  0  0  0  0
  189.4240  177.5050  141.5710 C   0  0  0  0  0  0  0  0  0  0  0  0
  190.2700  177.4560  137.7910 C   0  0  0  0  0  2  0  0  0  0  0  0
  188.7360  177.9000  140.2810 C   0  0  2  0  0  3  0  0  0  0  0  0
  187.4470  178.6410  140.4790 C   0  0  0  0  0  3  0  0  0  0  0  0
  188.4920  176.6640  139.4210 C   0  0  0  0  0  2  0  0  0  0  0  0
  191.4120  176.7250  142.7200 C   0  0  0  0  0  3  0  0  0  0  0  0
  186.7310  178.5510  141.6010 C   0  0  0  0  0  0  0  0  0  0  0  0
  190.7950  177.1780  141.5570 C   0  0  0  0  0  0  0  0  0  0  0  0
  186.4890  177.5070  143.7100 O   0  0  0  0  0  0  0  0  0  0  0  0
  191.3270  176.3990  138.1590 C   0  0  1  0  0  3  0  0  0  0  0  0
  187.2550  177.7970  142.7550 C   0  0  0  0  0  0  0  0  0  0  0  0
  191.3240  176.1210  145.1050 N   0  0  0  0  0  2  0  0  0  0  0  0
  191.6270  176.9830  146.2420 C   0  0  0  0  0  1  0  0  0  0  0  0
  185.4190  179.2590  141.6760 C   0  0  0  0  0  2  0  0  0  0  0  0
  184.3110  178.3640  141.1470 C   0  0  0  0  0  2  0  0  0  0  0  0
  183.2920  179.1900  140.5010 N   0  0  0  0  0  2  0  0  0  0  0  0
  184.1990  178.1100  138.4510 C   0  0  0  0  0  2  0  0  0  0  0  0
  181.9320  177.4170  138.7490 O   0  0  0  0  0  0  0  0  0  0  0  0
  183.0760  177.1910  137.9660 C   0  0  0  0  0  2  0  0  0  0  0  0
  182.4120  179.7340  138.3710 O   0  0  0  0  0  0  0  0  0  0  0  0
  181.4240  178.7010  138.3970 C   0  0  0  0  0  2  0  0  0  0  0  0
  184.5070  180.4250  138.9290 O   0  0  0  0  0  1  0  0  0  0  0  0
  183.5940  179.3800  139.0700 C   0  0  1  0  0  0  0  0  0  0  0  0
  192.7140  176.7590  137.6200 C   0  0  0  0  0  2  0  0  0  0  0  0
  192.0150  173.5960  137.2470 Cl  0  0  0  0  0  0  0  0  0  0  0  0
  193.4250  174.5260  136.6720 C   0  0  2  0  0  3  0  0  0  0  0  0
  193.0370  175.9760  136.3550 C   0  0  2  0  0  3  0  0  0  0  0  0
  194.1590  176.6810  135.6430 C   0  0  0  0  0  3  0  0  0  0  0  0
  195.1380  176.0160  135.0150 C   0  0  0  0  0  3  0  0  0  0  0  0
  193.9620  173.8670  135.4790 N   0  0  0  0  0  2  0  0  0  0  0  0
  195.2070  174.5080  135.0200 C   0  0  2  0  0  3  0  0  0  0  0  0
  196.4830  173.9800  135.6990 C   0  0  1  0  0  3  0  0  0  0  0  0
  196.4260  174.7370  138.0890 O   0  0  0  0  0  1  0  0  0  0  0  0
  196.9870  174.8450  136.8180 C   0  0  0  0  0  0  0  0  0  0  0  0
  197.9580  175.6380  136.6150 O   0  0  0  0  0  0  0  0  0  0  0  0
  196.2790  172.6710  136.1500 O   0  0  0  0  0  0  0  0  0  0  0  0
  197.8590  170.9230  135.8700 C   0  0  0  0  0  2  0  0  0  0  0  0
  196.4940  170.4130  135.4300 C   0  0  0  0  0  2  0  0  0  0  0  0
  196.8850  171.8580  135.1800 C   0  0  0  0  0  3  0  0  0  0  0  0
  2  1  1  0  0  0  0
  3 15  1  0  0  0  0
  4  2  2  0  0  0  0
  5  2  1  0  0  0  0
  5 19  1  0  0  0  0
  6  3  1  0  0  0  0
  7 12  1  0  0  0  0
  8  4  1  0  0  0  0
  9  7  1  0  0  0  0
  9 17  1  0  0  0  0
 10 12  1  1  0  0  0
 10 11  1  0  0  0  0
 10  8  1  0  0  0  0
 11 14  2  0  0  0  0
 13  5  2  0  0  0  0
 14 21  1  0  0  0  0
 14 18  1  0  0  0  0
 15  8  2  0  0  0  0
 15 13  1  0  0  0  0
 17 31  1  1  0  0  0
 17  6  1  0  0  0  0
 18  4  1  0  0  0  0
 18 16  2  0  0  0  0
 19 20  1  0  0  0  0
 22 21  1  0  0  0  0
 23 22  1  0  0  0  0
 24 30  1  0  0  0  0
 26 24  1  0  0  0  0
 26 25  1  0  0  0  0
 27 28  1  0  0  0  0
 27 30  1  0  0  0  0
 28 25  1  0  0  0  0
 30 29  1  6  0  0  0
 30 23  1  0  0  0  0
 33 32  1  6  0  0  0
 34 33  1  0  0  0  0
 34 31  1  1  0  0  0
 35 34  1  0  0  0  0
 36 38  1  0  0  0  0
 36 35  2  0  0  0  0
 37 33  1  0  0  0  0
 38 37  1  0  0  0  0
 38 39  1  1  0  0  0
 39 43  1  1  0  0  0
 39 41  1  0  0  0  0
 41 40  1  0  0  0  0
 42 41  2  0  0  0  0
 45 44  1  0  0  0  0
 46 45  1  0  0  0  0
 46 44  1  0  0  0  0
 46 43  1  0  0  0  0
M  END
>  <MODEL>
7

>  <REMARK>
 VINA RESULT:      -7.4      5.128     10.591
  Name = 
  11 active torsions:
  status: ('A' for Active; 'I' for Inactive)
    1  A    between atoms: N_2  and  C_12
    2  A    between atoms: O_4  and  C_36
    3  A    between atoms: O_4  and  C_46
    4  A    between atoms: C_5  and  C_27
    5  A    between atoms: C_5  and  C_38
    6  A    between atoms: N_15  and  C_38
    7  A    between atoms: N_15  and  C_43
    8  A    between atoms: C_28  and  C_30
    9  A    between atoms: C_30  and  C_33
   10  A    between atoms: C_32  and  C_46
   11  A    between atoms: C_45  and  C_46
                            x       y       z     vdW  Elec       q    Type
                         _______ _______ _______ _____ _____    ______ ____

>  <TORSDO>
F 11

$$$$
=
 OpenBabel10222416193D

 46 51  0  0  1  0  0  0  0  0999 V2000
  192.6760  177.5610  142.0050 O   0  0  0  0  0  1  0  0  0  0  0  0
  191.4170  177.4630  141.4120 C   0  0  0  0  0  0  0  0  0  0  0  0
  187.4680  177.1910  139.7030 C   0  0  0  0  0  2  0  0  0  0  0  0
  191.2820  177.2740  140.0160 C   0  0  0  0  0  0  0  0  0  0  0  0
  190.2730  177.5510  142.2220 C   0  0  0  0  0  0  0  0  0  0  0  0
  187.1330  178.4570  139.1860 O   0  0  0  0  0  0  0  0  0  0  0  0
  188.3100  178.2520  136.3360 C   0  0  0  0  0  2  0  0  0  0  0  0
  189.9960  177.1670  139.4500 C   0  0  0  0  0  0  0  0  0  0  0  0
  187.1020  177.5040  136.8970 C   0  0  0  0  0  2  0  0  0  0  0  0
  189.8300  177.0560  137.9480 C   0  0  2  0  0  3  0  0  0  0  0  0
  191.0450  176.5390  137.2370 C   0  0  0  0  0  3  0  0  0  0  0  0
  189.4280  178.4070  137.3660 C   0  0  0  0  0  2  0  0  0  0  0  0
  188.9990  177.4390  141.6440 C   0  0  0  0  0  3  0  0  0  0  0  0
  192.2720  176.6250  137.7550 C   0  0  0  0  0  0  0  0  0  0  0  0
  188.8540  177.2430  140.2730 C   0  0  0  0  0  0  0  0  0  0  0  0
  193.6160  177.4420  139.5210 O   0  0  0  0  0  0  0  0  0  0  0  0
  186.3800  178.3050  137.9960 C   0  0  1  0  0  3  0  0  0  0  0  0
  192.4630  177.1330  139.1250 C   0  0  0  0  0  0  0  0  0  0  0  0
  190.4150  177.7660  143.6310 N   0  0  0  0  0  2  0  0  0  0  0  0
  189.3250  177.5550  144.5770 C   0  0  0  0  0  1  0  0  0  0  0  0
  193.4310  176.1590  136.9380 C   0  0  0  0  0  2  0  0  0  0  0  0
  193.8700  174.7780  137.3930 C   0  0  0  0  0  2  0  0  0  0  0  0
  195.0250  174.9080  138.2810 N   0  0  0  0  0  2  0  0  0  0  0  0
  196.2700  173.3230  136.8200 C   0  0  0  0  0  2  0  0  0  0  0  0
  197.6270  175.2540  137.1980 O   0  0  0  0  0  0  0  0  0  0  0  0
  197.5620  174.0590  136.4610 C   0  0  0  0  0  2  0  0  0  0  0  0
  197.0080  173.8710  139.0550 O   0  0  0  0  0  0  0  0  0  0  0  0
  197.8670  174.9000  138.5580 C   0  0  0  0  0  2  0  0  0  0  0  0
  195.1220  172.6270  138.7900 O   0  0  0  0  0  1  0  0  0  0  0  0
  195.8520  173.6870  138.2540 C   0  0  1  0  0  0  0  0  0  0  0  0
  184.9720  177.7670  138.2700 C   0  0  0  0  0  2  0  0  0  0  0  0
  185.1060  178.6280  141.4130 Cl  0  0  0  0  0  0  0  0  0  0  0  0
  183.6970  178.4980  140.3260 C   0  0  2  0  0  3  0  0  0  0  0  0
  184.0800  178.8390  138.8810 C   0  0  2  0  0  3  0  0  0  0  0  0
  182.8510  178.9690  138.0240 C   0  0  0  0  0  3  0  0  0  0  0  0
  181.6340  179.1810  138.5430 C   0  0  0  0  0  3  0  0  0  0  0  0
  182.6530  179.4060  140.8080 N   0  0  0  0  0  2  0  0  0  0  0  0
  181.4080  179.2590  140.0330 C   0  0  2  0  0  3  0  0  0  0  0  0
  180.4670  178.1530  140.5430 C   0  0  1  0  0  3  0  0  0  0  0  0
  179.4640  177.7860  142.8120 O   0  0  0  0  0  1  0  0  0  0  0  0
  179.5720  178.5780  141.6710 C   0  0  0  0  0  0  0  0  0  0  0  0
  178.9510  179.6840  141.6020 O   0  0  0  0  0  0  0  0  0  0  0  0
  179.7060  177.6450  139.4840 O   0  0  0  0  0  0  0  0  0  0  0  0
  180.1640  175.5360  138.5000 C   0  0  0  0  0  2  0  0  0  0  0  0
  181.0450  175.6920  139.7310 C   0  0  0  0  0  2  0  0  0  0  0  0
  179.6380  176.2640  139.7200 C   0  0  0  0  0  3  0  0  0  0  0  0
  2  1  1  0  0  0  0
  2  5  1  0  0  0  0
  3 15  1  0  0  0  0
  4  2  2  0  0  0  0
  5 19  1  0  0  0  0
  6  3  1  0  0  0  0
  7  9  1  0  0  0  0
  7 12  1  0  0  0  0
  8  4  1  0  0  0  0
  8 15  2  0  0  0  0
  9 17  1  0  0  0  0
 10 11  1  6  0  0  0
 10  8  1  0  0  0  0
 11 14  2  0  0  0  0
 12 10  1  0  0  0  0
 13  5  2  0  0  0  0
 14 18  1  0  0  0  0
 15 13  1  0  0  0  0
 17 31  1  1  0  0  0
 17  6  1  0  0  0  0
 18 16  2  0  0  0  0
 18  4  1  0  0  0  0
 19 20  1  0  0  0  0
 21 22  1  0  0  0  0
 21 14  1  0  0  0  0
 22 23  1  0  0  0  0
 24 30  1  0  0  0  0
 25 28  1  0  0  0  0
 26 24  1  0  0  0  0
 26 25  1  0  0  0  0
 28 27  1  0  0  0  0
 30 23  1  0  0  0  0
 30 29  1  1  0  0  0
 30 27  1  0  0  0  0
 33 37  1  0  0  0  0
 33 32  1  1  0  0  0
 34 31  1  6  0  0  0
 34 33  1  0  0  0  0
 35 36  2  0  0  0  0
 35 34  1  0  0  0  0
 36 38  1  0  0  0  0
 38 39  1  1  0  0  0
 38 37  1  0  0  0  0
 39 43  1  6  0  0  0
 39 41  1  0  0  0  0
 41 40  1  0  0  0  0
 42 41  2  0  0  0  0
 43 46  1  0  0  0  0
 44 46  1  0  0  0  0
 44 45  1  0  0  0  0
 46 45  1  0  0  0  0
M  END
>  <MODEL>
8

>  <REMARK>
 VINA RESULT:      -7.4      3.860      5.500
  Name = 
  11 active torsions:
  status: ('A' for Active; 'I' for Inactive)
    1  A    between atoms: N_2  and  C_12
    2  A    between atoms: O_4  and  C_36
    3  A    between atoms: O_4  and  C_46
    4  A    between atoms: C_5  and  C_27
    5  A    between atoms: C_5  and  C_38
    6  A    between atoms: N_15  and  C_38
    7  A    between atoms: N_15  and  C_43
    8  A    between atoms: C_28  and  C_30
    9  A    between atoms: C_30  and  C_33
   10  A    between atoms: C_32  and  C_46
   11  A    between atoms: C_45  and  C_46
                            x       y       z     vdW  Elec       q    Type
                         _______ _______ _______ _____ _____    ______ ____

>  <TORSDO>
F 11

$$$$
=
 OpenBabel10222416193D

 46 51  0  0  1  0  0  0  0  0999 V2000
  190.5730  177.6000  145.9280 O   0  0  0  0  0  1  0  0  0  0  0  0
  189.3370  177.5740  145.2820 C   0  0  0  0  0  0  0  0  0  0  0  0
  185.4550  177.5020  143.4080 C   0  0  0  0  0  2  0  0  0  0  0  0
  189.2530  177.6050  143.8690 C   0  0  0  0  0  0  0  0  0  0  0  0
  188.1650  177.5130  146.0530 C   0  0  0  0  0  0  0  0  0  0  0  0
  185.1070  178.8270  143.0830 O   0  0  0  0  0  0  0  0  0  0  0  0
  186.3830  179.0940  140.2810 C   0  0  0  0  0  2  0  0  0  0  0  0
  187.9890  177.5640  143.2460 C   0  0  0  0  0  0  0  0  0  0  0  0
  185.1750  178.2460  140.6740 C   0  0  0  0  0  2  0  0  0  0  0  0
  187.8760  177.6870  141.7410 C   0  0  2  0  0  3  0  0  0  0  0  0
  189.1260  177.3110  141.0020 C   0  0  0  0  0  3  0  0  0  0  0  0
  187.4620  179.1060  141.3630 C   0  0  0  0  0  2  0  0  0  0  0  0
  186.9140  177.4700  145.4180 C   0  0  0  0  0  3  0  0  0  0  0  0
  190.3320  177.3360  141.5720 C   0  0  0  0  0  0  0  0  0  0  0  0
  186.8190  177.4890  144.0290 C   0  0  0  0  0  0  0  0  0  0  0  0
  191.5980  177.8900  143.4920 O   0  0  0  0  0  0  0  0  0  0  0  0
  184.3980  178.8500  141.8570 C   0  0  1  0  0  3  0  0  0  0  0  0
  190.4650  177.6260  143.0110 C   0  0  0  0  0  0  0  0  0  0  0  0
  188.2550  177.5060  147.4820 N   0  0  0  0  0  2  0  0  0  0  0  0
  187.7650  178.6020  148.3110 C   0  0  0  0  0  1  0  0  0  0  0  0
  191.5290  177.0260  140.7350 C   0  0  0  0  0  2  0  0  0  0  0  0
  191.0950  176.4830  139.3840 C   0  0  0  0  0  2  0  0  0  0  0  0
  192.2620  176.3850  138.5080 N   0  0  0  0  0  2  0  0  0  0  0  0
  192.2250  175.5410  136.1660 C   0  0  0  0  0  2  0  0  0  0  0  0
  194.4880  175.9940  136.7880 O   0  0  0  0  0  0  0  0  0  0  0  0
  193.6790  175.6300  135.6980 C   0  0  0  0  0  2  0  0  0  0  0  0
  193.2610  174.3070  137.9670 O   0  0  0  0  0  0  0  0  0  0  0  0
  194.5380  174.8770  137.6710 C   0  0  0  0  0  2  0  0  0  0  0  0
  190.9950  174.5070  137.9260 O   0  0  0  0  0  1  0  0  0  0  0  0
  192.1860  175.1800  137.6600 C   0  0  1  0  0  0  0  0  0  0  0  0
  182.9940  178.2510  141.9920 C   0  0  0  0  0  2  0  0  0  0  0  0
  179.8760  177.3410  141.7080 Cl  0  0  0  0  0  0  0  0  0  0  0  0
  181.0230  177.8820  140.4540 C   0  0  2  0  0  3  0  0  0  0  0  0
  182.0190  178.9010  141.0190 C   0  0  2  0  0  3  0  0  0  0  0  0
  182.8170  179.5330  139.9110 C   0  0  0  0  0  3  0  0  0  0  0  0
  182.4080  179.5180  138.6360 C   0  0  0  0  0  3  0  0  0  0  0  0
  180.2610  178.4680  139.3490 N   0  0  0  0  0  2  0  0  0  0  0  0
  181.1350  178.8230  138.2170 C   0  0  2  0  0  3  0  0  0  0  0  0
  181.3930  177.6740  137.2260 C   0  0  1  0  0  3  0  0  0  0  0  0
  179.4530  176.2190  136.5880 O   0  0  0  0  0  1  0  0  0  0  0  0
  180.2250  177.3520  136.3390 C   0  0  0  0  0  0  0  0  0  0  0  0
  179.9140  178.1400  135.3940 O   0  0  0  0  0  0  0  0  0  0  0  0
  182.5270  177.9510  136.4540 O   0  0  0  0  0  0  0  0  0  0  0  0
  184.5530  176.8960  137.0950 C   0  0  0  0  0  2  0  0  0  0  0  0
  183.4010  176.1870  137.7920 C   0  0  0  0  0  2  0  0  0  0  0  0
  183.2230  176.7350  136.3870 C   0  0  0  0  0  3  0  0  0  0  0  0
  2  1  1  0  0  0  0
  2  5  1  0  0  0  0
  3 15  1  0  0  0  0
  4  2  2  0  0  0  0
  5 19  1  0  0  0  0
  6  3  1  0  0  0  0
  7  9  1  0  0  0  0
  7 12  1  0  0  0  0
  8  4  1  0  0  0  0
  8 15  2  0  0  0  0
  9 17  1  0  0  0  0
 10 11  1  6  0  0  0
 10  8  1  0  0  0  0
 11 14  2  0  0  0  0
 12 10  1  0  0  0  0
 13  5  2  0  0  0  0
 14 18  1  0  0  0  0
 15 13  1  0  0  0  0
 17 31  1  1  0  0  0
 17  6  1  0  0  0  0
 18 16  2  0  0  0  0
 18  4  1  0  0  0  0
 19 20  1  0  0  0  0
 21 14  1  0  0  0  0
 22 21  1  0  0  0  0
 23 22  1  0  0  0  0
 24 30  1  0  0  0  0
 25 28  1  0  0  0  0
 26 24  1  0  0  0  0
 26 25  1  0  0  0  0
 28 27  1  0  0  0  0
 30 29  1  1  0  0  0
 30 27  1  0  0  0  0
 30 23  1  0  0  0  0
 33 34  1  0  0  0  0
 33 32  1  1  0  0  0
 34 31  1  1  0  0  0
 35 34  1  0  0  0  0
 36 35  2  0  0  0  0
 37 33  1  0  0  0  0
 38 39  1  1  0  0  0
 38 36  1  0  0  0  0
 38 37  1  0  0  0  0
 39 41  1  6  0  0  0
 41 40  1  0  0  0  0
 42 41  2  0  0  0  0
 43 39  1  0  0  0  0
 44 45  1  0  0  0  0
 46 43  1  0  0  0  0
 46 44  1  0  0  0  0
 46 45  1  0  0  0  0
M  END
>  <MODEL>
9

>  <REMARK>
 VINA RESULT:      -7.3      2.420      3.180
  Name = 
  11 active torsions:
  status: ('A' for Active; 'I' for Inactive)
    1  A    between atoms: N_2  and  C_12
    2  A    between atoms: O_4  and  C_36
    3  A    between atoms: O_4  and  C_46
    4  A    between atoms: C_5  and  C_27
    5  A    between atoms: C_5  and  C_38
    6  A    between atoms: N_15  and  C_38
    7  A    between atoms: N_15  and  C_43
    8  A    between atoms: C_28  and  C_30
    9  A    between atoms: C_30  and  C_33
   10  A    between atoms: C_32  and  C_46
   11  A    between atoms: C_45  and  C_46
                            x       y       z     vdW  Elec       q    Type
                         _______ _______ _______ _____ _____    ______ ____

>  <TORSDO>
F 11

$$$$
