=
 OpenBabel10222417593D

 33 36  0  0  1  0  0  0  0  0999 V2000
  192.0010  175.6070  138.3650 C   0  0  0  0  0  1  0  0  0  0  0  0
  190.3450  176.9150  139.6880 C   0  0  1  0  0  3  0  0  0  0  0  0
  192.1460  177.2480  141.1320 N   0  0  0  0  0  0  0  0  0  0  0  0
  192.6890  177.5000  139.8150 C   0  0  0  0  0  2  0  0  0  0  0  0
  191.6250  176.9940  138.8510 C   0  0  1  0  0  3  0  0  0  0  0  0
  188.3250  175.5090  143.1510 O   0  0  0  0  0  0  0  0  0  0  0  0
  190.2310  176.4420  142.2310 N   0  0  0  0  0  2  0  0  0  0  0  0
  188.8280  176.4550  142.4880 C   0  0  0  0  0  0  0  0  0  0  0  0
  190.8880  176.9860  141.0820 C   0  0  0  0  0  0  0  0  0  0  0  0
  188.1650  176.8400  136.1040 C   0  0  2  0  0  3  0  0  0  0  0  0
  189.5170  178.0890  139.3980 N   0  0  1  0  0  0  0  0  0  0  0  0
  189.2680  178.2040  137.9360 C   0  0  2  0  0  3  0  0  0  0  0  0
  188.2520  177.6360  138.8090 C   0  0  2  0  0  3  0  0  0  0  0  0
  186.3290  178.2050  137.3690 C   0  0  2  0  0  3  0  0  0  0  0  0
  188.5130  176.4920  134.7990 O   0  0  0  0  0  1  0  0  0  0  0  0
  187.1770  178.0370  136.0770 C   0  0  0  0  0  2  0  0  0  0  0  0
  189.4550  177.0620  136.9400 C   0  0  0  0  0  2  0  0  0  0  0  0
  187.1410  178.6390  138.6080 C   0  0  0  0  0  2  0  0  0  0  0  0
  185.5980  177.0170  137.6520 O   0  0  0  0  0  0  0  0  0  0  0  0
  183.4370  176.3820  136.9990 C   0  0  0  0  0  2  0  0  0  0  0  0
  184.2170  177.0070  137.8670 C   0  0  0  0  0  0  0  0  0  0  0  0
  183.6000  177.6730  139.0580 C   0  0  0  0  0  2  0  0  0  0  0  0
  182.1940  179.3790  138.1660 O   0  0  0  0  0  0  0  0  0  0  0  0
  183.2660  179.0950  138.7620 C   0  0  0  0  0  0  0  0  0  0  0  0
  184.1290  180.1120  139.1510 O   0  0  0  0  0  1  0  0  0  0  0  0
  188.0560  177.5670  142.1250 O   0  0  0  0  0  0  0  0  0  0  0  0
  184.5500  178.6810  142.5010 C   0  0  0  0  0  3  0  0  0  0  0  0
  184.3970  178.6680  143.8900 C   0  0  0  0  0  0  0  0  0  0  0  0
  186.8550  177.9540  142.7400 C   0  0  0  0  0  0  0  0  0  0  0  0
  182.8580  179.1000  144.6040 Cl  0  0  0  0  0  0  0  0  0  0  0  0
  185.7760  178.3250  141.9300 C   0  0  0  0  0  3  0  0  0  0  0  0
  185.4700  178.3050  144.7080 C   0  0  0  0  0  3  0  0  0  0  0  0
  186.6930  177.9480  144.1360 C   0  0  0  0  0  3  0  0  0  0  0  0
  2  9  1  1  0  0  0
  4  3  1  0  0  0  0
  5  1  1  1  0  0  0
  5  2  1  0  0  0  0
  5  4  1  0  0  0  0
  7  8  1  0  0  0  0
  8  6  2  0  0  0  0
  9  3  2  0  0  0  0
  9  7  1  0  0  0  0
 10 15  1  6  0  0  0
 10 17  1  0  0  0  0
 11  2  1  6  0  0  0
 12 17  1  6  0  0  0
 12 13  1  0  0  0  0
 12 11  1  0  0  0  0
 13 18  1  1  0  0  0
 13 11  1  0  0  0  0
 14 19  1  1  0  0  0
 14 18  1  0  0  0  0
 16 10  1  0  0  0  0
 16 14  1  0  0  0  0
 19 21  1  0  0  0  0
 20 21  2  0  0  0  0
 21 22  1  0  0  0  0
 23 24  2  0  0  0  0
 24 22  1  0  0  0  0
 24 25  1  0  0  0  0
 26  8  1  0  0  0  0
 26 29  1  0  0  0  0
 27 28  1  0  0  0  0
 28 30  1  0  0  0  0
 28 32  2  0  0  0  0
 29 33  2  0  0  0  0
 31 27  2  0  0  0  0
 31 29  1  0  0  0  0
 33 32  1  0  0  0  0
M  END
>  <MODEL>
1

>  <REMARK>
 VINA RESULT:      -7.4      0.000      0.000
  Name = 
  7 active torsions:
  status: ('A' for Active; 'I' for Inactive)
    1  A    between atoms: O_2  and  C_12
    2  A    between atoms: O_2  and  C_31
    3  A    between atoms: N_6  and  C_9
    4  A    between atoms: O_8  and  C_13
    5  A    between atoms: O_8  and  C_19
    6  A    between atoms: C_17  and  C_19
    7  A    between atoms: C_17  and  C_24
                            x       y       z     vdW  Elec       q    Type
                         _______ _______ _______ _____ _____    ______ ____

>  <TORSDO>
F 7

$$$$
=
 OpenBabel10222417593D

 33 36  0  0  1  0  0  0  0  0999 V2000
  180.0070  178.2230  144.1610 C   0  0  0  0  0  1  0  0  0  0  0  0
  181.7010  178.4390  142.3470 C   0  0  1  0  0  3  0  0  0  0  0  0
  179.8450  178.9410  141.0250 N   0  0  0  0  0  0  0  0  0  0  0  0
  179.6600  179.7320  142.2220 C   0  0  0  0  0  2  0  0  0  0  0  0
  180.6840  179.1920  143.2100 C   0  0  1  0  0  3  0  0  0  0  0  0
  182.5170  175.4870  139.4020 O   0  0  0  0  0  0  0  0  0  0  0  0
  181.1870  177.2430  140.1080 N   0  0  0  0  0  2  0  0  0  0  0  0
  182.4550  176.6970  139.7490 C   0  0  0  0  0  0  0  0  0  0  0  0
  180.9520  178.2870  141.0590 C   0  0  0  0  0  0  0  0  0  0  0  0
  184.5360  178.4220  145.4390 C   0  0  2  0  0  3  0  0  0  0  0  0
  182.8820  179.2850  142.1590 N   0  0  1  0  0  0  0  0  0  0  0  0
  183.4880  179.6330  143.4720 C   0  0  2  0  0  3  0  0  0  0  0  0
  184.0580  178.5670  142.6620 C   0  0  2  0  0  3  0  0  0  0  0  0
  186.3440  178.7430  143.5780 C   0  0  2  0  0  3  0  0  0  0  0  0
  184.4160  178.5210  146.8250 O   0  0  0  0  0  1  0  0  0  0  0  0
  185.8100  179.1750  144.9720 C   0  0  0  0  0  2  0  0  0  0  0  0
  183.2100  178.8840  144.7730 C   0  0  0  0  0  2  0  0  0  0  0  0
  185.4300  179.1400  142.3990 C   0  0  0  0  0  2  0  0  0  0  0  0
  186.6040  177.3440  143.5490 O   0  0  0  0  0  0  0  0  0  0  0  0
  188.4910  176.0420  143.0550 C   0  0  0  0  0  2  0  0  0  0  0  0
  187.8320  176.7910  143.9250 C   0  0  0  0  0  0  0  0  0  0  0  0
  188.4250  177.0350  145.2780 C   0  0  0  0  0  2  0  0  0  0  0  0
  190.0180  178.7040  144.6770 O   0  0  0  0  0  0  0  0  0  0  0  0
  189.8150  177.5610  145.1650 C   0  0  0  0  0  0  0  0  0  0  0  0
  190.8890  176.7990  145.6070 O   0  0  0  0  0  1  0  0  0  0  0  0
  183.5790  177.5280  139.6540 O   0  0  0  0  0  0  0  0  0  0  0  0
  186.5880  178.2640  137.6350 C   0  0  0  0  0  3  0  0  0  0  0  0
  186.2190  177.7620  136.3850 C   0  0  0  0  0  0  0  0  0  0  0  0
  184.4300  177.6170  138.5420 C   0  0  0  0  0  0  0  0  0  0  0  0
  187.3420  177.8400  135.0450 Cl  0  0  0  0  0  0  0  0  0  0  0  0
  185.6950  178.1910  138.7090 C   0  0  0  0  0  3  0  0  0  0  0  0
  184.9560  177.1920  136.2060 C   0  0  0  0  0  3  0  0  0  0  0  0
  184.0660  177.1180  137.2800 C   0  0  0  0  0  3  0  0  0  0  0  0
  2  9  1  6  0  0  0
  2  5  1  0  0  0  0
  3  9  2  0  0  0  0
  3  4  1  0  0  0  0
  4  5  1  0  0  0  0
  5  1  1  1  0  0  0
  6  8  2  0  0  0  0
  7  9  1  0  0  0  0
  8  7  1  0  0  0  0
 10 15  1  1  0  0  0
 11  2  1  1  0  0  0
 11 13  1  0  0  0  0
 11 12  1  0  0  0  0
 12 17  1  1  0  0  0
 13 18  1  6  0  0  0
 13 12  1  0  0  0  0
 14 19  1  1  0  0  0
 14 16  1  0  0  0  0
 16 10  1  0  0  0  0
 17 10  1  0  0  0  0
 18 14  1  0  0  0  0
 19 21  1  0  0  0  0
 20 21  2  0  0  0  0
 21 22  1  0  0  0  0
 23 24  2  0  0  0  0
 24 22  1  0  0  0  0
 24 25  1  0  0  0  0
 26  8  1  0  0  0  0
 27 31  1  0  0  0  0
 28 27  2  0  0  0  0
 29 31  2  0  0  0  0
 29 26  1  0  0  0  0
 30 28  1  0  0  0  0
 32 28  1  0  0  0  0
 32 33  2  0  0  0  0
 33 29  1  0  0  0  0
M  END
>  <MODEL>
2

>  <REMARK>
 VINA RESULT:      -7.0      4.133      8.846
  Name = 
  7 active torsions:
  status: ('A' for Active; 'I' for Inactive)
    1  A    between atoms: O_2  and  C_12
    2  A    between atoms: O_2  and  C_31
    3  A    between atoms: N_6  and  C_9
    4  A    between atoms: O_8  and  C_13
    5  A    between atoms: O_8  and  C_19
    6  A    between atoms: C_17  and  C_19
    7  A    between atoms: C_17  and  C_24
                            x       y       z     vdW  Elec       q    Type
                         _______ _______ _______ _____ _____    ______ ____

>  <TORSDO>
F 7

$$$$
=
 OpenBabel10222417593D

 33 36  0  0  1  0  0  0  0  0999 V2000
  192.0870  175.6010  138.3860 C   0  0  0  0  0  1  0  0  0  0  0  0
  190.3610  176.8850  139.6430 C   0  0  1  0  0  3  0  0  0  0  0  0
  192.1330  177.3630  141.0820 N   0  0  0  0  0  0  0  0  0  0  0  0
  192.6740  177.5840  139.7580 C   0  0  0  0  0  2  0  0  0  0  0  0
  191.6420  176.9890  138.8100 C   0  0  1  0  0  3  0  0  0  0  0  0
  188.3830  175.5330  143.1520 O   0  0  0  0  0  0  0  0  0  0  0  0
  190.2500  176.5150  142.2030 N   0  0  0  0  0  2  0  0  0  0  0  0
  188.8460  176.4730  142.4510 C   0  0  0  0  0  0  0  0  0  0  0  0
  190.8890  177.0400  141.0350 C   0  0  0  0  0  0  0  0  0  0  0  0
  188.0700  176.4710  136.1520 C   0  0  2  0  0  3  0  0  0  0  0  0
  189.4810  178.0050  139.2980 N   0  0  1  0  0  0  0  0  0  0  0  0
  189.1800  178.0040  137.8410 C   0  0  2  0  0  3  0  0  0  0  0  0
  188.2150  177.4670  138.7890 C   0  0  2  0  0  3  0  0  0  0  0  0
  186.2270  177.8620  137.3800 C   0  0  2  0  0  3  0  0  0  0  0  0
  188.3880  176.0410  134.8650 O   0  0  0  0  0  1  0  0  0  0  0  0
  187.0380  177.6290  136.0740 C   0  0  0  0  0  2  0  0  0  0  0  0
  189.3780  176.7990  136.9240 C   0  0  0  0  0  2  0  0  0  0  0  0
  187.0620  178.4130  138.5550 C   0  0  0  0  0  2  0  0  0  0  0  0
  185.5500  176.6730  137.7720 O   0  0  0  0  0  0  0  0  0  0  0  0
  183.2870  177.2870  137.8310 C   0  0  0  0  0  2  0  0  0  0  0  0
  184.2130  176.4190  137.4530 C   0  0  0  0  0  0  0  0  0  0  0  0
  183.8030  175.2010  136.6840 C   0  0  0  0  0  2  0  0  0  0  0  0
  185.6540  173.9460  135.8580 O   0  0  0  0  0  0  0  0  0  0  0  0
  184.8320  174.1280  136.7940 C   0  0  0  0  0  0  0  0  0  0  0  0
  184.8960  173.3350  137.9330 O   0  0  0  0  0  1  0  0  0  0  0  0
  188.0250  177.5310  142.0380 O   0  0  0  0  0  0  0  0  0  0  0  0
  184.5170  178.6310  142.4310 C   0  0  0  0  0  3  0  0  0  0  0  0
  184.3750  178.6300  143.8210 C   0  0  0  0  0  0  0  0  0  0  0  0
  186.8270  177.9180  142.6580 C   0  0  0  0  0  0  0  0  0  0  0  0
  182.8400  179.0600  144.5430 Cl  0  0  0  0  0  0  0  0  0  0  0  0
  185.7400  178.2760  141.8530 C   0  0  0  0  0  3  0  0  0  0  0  0
  185.4560  178.2790  144.6340 C   0  0  0  0  0  3  0  0  0  0  0  0
  186.6770  177.9220  144.0550 C   0  0  0  0  0  3  0  0  0  0  0  0
  2  9  1  1  0  0  0
  4  3  1  0  0  0  0
  5  1  1  1  0  0  0
  5  2  1  0  0  0  0
  5  4  1  0  0  0  0
  7  8  1  0  0  0  0
  8  6  2  0  0  0  0
  9  3  2  0  0  0  0
  9  7  1  0  0  0  0
 10 15  1  6  0  0  0
 10 17  1  0  0  0  0
 11  2  1  6  0  0  0
 12 17  1  6  0  0  0
 12 13  1  0  0  0  0
 12 11  1  0  0  0  0
 13 18  1  1  0  0  0
 13 11  1  0  0  0  0
 14 19  1  1  0  0  0
 14 18  1  0  0  0  0
 16 10  1  0  0  0  0
 16 14  1  0  0  0  0
 21 19  1  0  0  0  0
 21 20  2  0  0  0  0
 22 24  1  0  0  0  0
 22 21  1  0  0  0  0
 23 24  2  0  0  0  0
 24 25  1  0  0  0  0
 26  8  1  0  0  0  0
 26 29  1  0  0  0  0
 27 28  1  0  0  0  0
 28 30  1  0  0  0  0
 28 32  2  0  0  0  0
 29 33  2  0  0  0  0
 31 27  2  0  0  0  0
 31 29  1  0  0  0  0
 33 32  1  0  0  0  0
M  END
>  <MODEL>
3

>  <REMARK>
 VINA RESULT:      -7.0      1.140      2.066
  Name = 
  7 active torsions:
  status: ('A' for Active; 'I' for Inactive)
    1  A    between atoms: O_2  and  C_12
    2  A    between atoms: O_2  and  C_31
    3  A    between atoms: N_6  and  C_9
    4  A    between atoms: O_8  and  C_13
    5  A    between atoms: O_8  and  C_19
    6  A    between atoms: C_17  and  C_19
    7  A    between atoms: C_17  and  C_24
                            x       y       z     vdW  Elec       q    Type
                         _______ _______ _______ _____ _____    ______ ____

>  <TORSDO>
F 7

$$$$
=
 OpenBabel10222417593D

 33 36  0  0  1  0  0  0  0  0999 V2000
  185.8350  177.4860  136.2770 C   0  0  0  0  0  1  0  0  0  0  0  0
  188.1770  176.8860  136.8770 C   0  0  1  0  0  3  0  0  0  0  0  0
  188.3780  176.4510  134.5940 N   0  0  0  0  0  0  0  0  0  0  0  0
  187.7010  177.7280  134.6600 C   0  0  0  0  0  2  0  0  0  0  0  0
  187.2920  177.8790  136.1180 C   0  0  1  0  0  3  0  0  0  0  0  0
  189.6350  172.9260  137.3680 O   0  0  0  0  0  0  0  0  0  0  0  0
  189.1000  174.6590  135.9330 N   0  0  0  0  0  2  0  0  0  0  0  0
  189.8250  174.1270  137.0410 C   0  0  0  0  0  0  0  0  0  0  0  0
  188.6810  176.0170  135.7660 C   0  0  0  0  0  0  0  0  0  0  0  0
  187.5950  178.1590  140.8320 C   0  0  2  0  0  3  0  0  0  0  0  0
  189.2820  177.6180  137.5010 N   0  0  1  0  0  0  0  0  0  0  0  0
  188.7820  178.4710  138.6130 C   0  0  2  0  0  3  0  0  0  0  0  0
  189.4030  177.1850  138.8970 C   0  0  2  0  0  3  0  0  0  0  0  0
  190.1570  177.7630  141.1760 C   0  0  2  0  0  3  0  0  0  0  0  0
  186.5290  178.7930  141.4680 O   0  0  0  0  0  1  0  0  0  0  0  0
  188.9350  178.6980  141.4010 C   0  0  0  0  0  2  0  0  0  0  0  0
  187.4280  178.2880  139.2930 C   0  0  0  0  0  2  0  0  0  0  0  0
  190.5970  177.6410  139.7010 C   0  0  0  0  0  2  0  0  0  0  0  0
  189.9140  176.4730  141.7250 O   0  0  0  0  0  0  0  0  0  0  0  0
  188.6720  176.2860  143.7060 C   0  0  0  0  0  2  0  0  0  0  0  0
  189.8480  176.2330  143.1000 C   0  0  0  0  0  0  0  0  0  0  0  0
  191.0690  175.9050  143.9030 C   0  0  0  0  0  2  0  0  0  0  0  0
  191.6370  178.2090  144.1300 O   0  0  0  0  0  0  0  0  0  0  0  0
  191.5260  177.0870  144.6880 C   0  0  0  0  0  0  0  0  0  0  0  0
  191.8170  176.9560  146.0400 O   0  0  0  0  0  1  0  0  0  0  0  0
  190.8240  174.8900  137.6600 O   0  0  0  0  0  0  0  0  0  0  0  0
  194.3870  174.1130  137.0420 C   0  0  0  0  0  3  0  0  0  0  0  0
  194.7770  175.1920  136.2450 C   0  0  0  0  0  0  0  0  0  0  0  0
  192.1420  175.0280  137.1960 C   0  0  0  0  0  0  0  0  0  0  0  0
  196.4170  175.2830  135.6400 Cl  0  0  0  0  0  0  0  0  0  0  0  0
  193.0730  174.0330  137.5160 C   0  0  0  0  0  3  0  0  0  0  0  0
  193.8570  176.1930  135.9250 C   0  0  0  0  0  3  0  0  0  0  0  0
  192.5440  176.1110  136.3970 C   0  0  0  0  0  3  0  0  0  0  0  0
  2  9  1  6  0  0  0
  3  4  1  0  0  0  0
  3  9  2  0  0  0  0
  4  5  1  0  0  0  0
  5  1  1  6  0  0  0
  5  2  1  0  0  0  0
  7  8  1  0  0  0  0
  8  6  2  0  0  0  0
  8 26  1  0  0  0  0
  9  7  1  0  0  0  0
 10 16  1  0  0  0  0
 10 15  1  1  0  0  0
 11  2  1  6  0  0  0
 11 12  1  0  0  0  0
 11 13  1  0  0  0  0
 12 13  1  0  0  0  0
 12 17  1  6  0  0  0
 13 18  1  1  0  0  0
 14 16  1  0  0  0  0
 14 19  1  6  0  0  0
 17 10  1  0  0  0  0
 18 14  1  0  0  0  0
 19 21  1  0  0  0  0
 21 20  2  0  0  0  0
 21 22  1  0  0  0  0
 22 24  1  0  0  0  0
 23 24  2  0  0  0  0
 24 25  1  0  0  0  0
 27 31  1  0  0  0  0
 28 27  2  0  0  0  0
 29 31  2  0  0  0  0
 29 26  1  0  0  0  0
 30 28  1  0  0  0  0
 32 28  1  0  0  0  0
 32 33  2  0  0  0  0
 33 29  1  0  0  0  0
M  END
>  <MODEL>
4

>  <REMARK>
 VINA RESULT:      -6.9      4.040      8.106
  Name = 
  7 active torsions:
  status: ('A' for Active; 'I' for Inactive)
    1  A    between atoms: O_2  and  C_12
    2  A    between atoms: O_2  and  C_31
    3  A    between atoms: N_6  and  C_9
    4  A    between atoms: O_8  and  C_13
    5  A    between atoms: O_8  and  C_19
    6  A    between atoms: C_17  and  C_19
    7  A    between atoms: C_17  and  C_24
                            x       y       z     vdW  Elec       q    Type
                         _______ _______ _______ _____ _____    ______ ____

>  <TORSDO>
F 7

$$$$
=
 OpenBabel10222417593D

 33 36  0  0  1  0  0  0  0  0999 V2000
  190.1410  178.2700  148.6180 C   0  0  0  0  0  1  0  0  0  0  0  0
  189.8660  177.5170  146.2590 C   0  0  1  0  0  3  0  0  0  0  0  0
  192.0550  176.7530  146.5180 N   0  0  0  0  0  0  0  0  0  0  0  0
  191.3750  176.3150  147.7180 C   0  0  0  0  0  2  0  0  0  0  0  0
  190.0480  177.0580  147.7100 C   0  0  1  0  0  3  0  0  0  0  0  0
  191.3880  179.5490  142.8530 O   0  0  0  0  0  0  0  0  0  0  0  0
  191.7760  178.0950  144.6090 N   0  0  0  0  0  2  0  0  0  0  0  0
  191.0650  178.4780  143.4320 C   0  0  0  0  0  0  0  0  0  0  0  0
  191.2500  177.3500  145.7120 C   0  0  0  0  0  0  0  0  0  0  0  0
  185.8130  178.6010  146.3170 C   0  0  2  0  0  3  0  0  0  0  0  0
  188.9340  176.6080  145.5890 N   0  0  1  0  0  0  0  0  0  0  0  0
  187.5600  176.7710  146.1360 C   0  0  2  0  0  3  0  0  0  0  0  0
  187.9280  177.4060  144.8800 C   0  0  2  0  0  3  0  0  0  0  0  0
  185.6400  177.4900  143.9560 C   0  0  2  0  0  3  0  0  0  0  0  0
  184.9770  179.0570  147.3350 O   0  0  0  0  0  1  0  0  0  0  0  0
  185.0170  177.6630  145.3700 C   0  0  0  0  0  2  0  0  0  0  0  0
  187.0950  177.9820  146.9410 C   0  0  0  0  0  2  0  0  0  0  0  0
  186.9720  176.7090  143.9430 C   0  0  0  0  0  2  0  0  0  0  0  0
  185.8030  178.7520  143.3180 O   0  0  0  0  0  0  0  0  0  0  0  0
  183.7220  179.3890  142.4430 C   0  0  0  0  0  2  0  0  0  0  0  0
  185.0130  179.1660  142.2430 C   0  0  0  0  0  0  0  0  0  0  0  0
  185.5880  179.3780  140.8760 C   0  0  0  0  0  2  0  0  0  0  0  0
  184.1800  180.1230  139.1030 O   0  0  0  0  0  0  0  0  0  0  0  0
  184.5560  179.1620  139.8230 C   0  0  0  0  0  0  0  0  0  0  0  0
  184.0150  177.8980  139.6240 O   0  0  0  0  0  1  0  0  0  0  0  0
  190.1240  177.6100  142.8640 O   0  0  0  0  0  0  0  0  0  0  0  0
  188.5110  177.7730  139.5400 C   0  0  0  0  0  3  0  0  0  0  0  0
  189.4720  177.1620  138.7300 C   0  0  0  0  0  0  0  0  0  0  0  0
  189.9200  177.4250  141.4870 C   0  0  0  0  0  0  0  0  0  0  0  0
  189.1960  177.0130  137.0080 Cl  0  0  0  0  0  0  0  0  0  0  0  0
  188.7370  177.9030  140.9140 C   0  0  0  0  0  3  0  0  0  0  0  0
  190.6540  176.6760  139.2930 C   0  0  0  0  0  3  0  0  0  0  0  0
  190.8790  176.8080  140.6660 C   0  0  0  0  0  3  0  0  0  0  0  0
  2  9  1  6  0  0  0
  2  5  1  0  0  0  0
  3  4  1  0  0  0  0
  5  4  1  0  0  0  0
  5  1  1  1  0  0  0
  6  8  2  0  0  0  0
  7  9  1  0  0  0  0
  8  7  1  0  0  0  0
  9  3  2  0  0  0  0
 10 17  1  0  0  0  0
 10 15  1  1  0  0  0
 11 12  1  0  0  0  0
 11  2  1  1  0  0  0
 12 17  1  1  0  0  0
 13 18  1  6  0  0  0
 13 11  1  0  0  0  0
 13 12  1  0  0  0  0
 14 19  1  1  0  0  0
 14 16  1  0  0  0  0
 16 10  1  0  0  0  0
 18 14  1  0  0  0  0
 21 20  2  0  0  0  0
 21 19  1  0  0  0  0
 22 21  1  0  0  0  0
 23 24  2  0  0  0  0
 24 22  1  0  0  0  0
 25 24  1  0  0  0  0
 26  8  1  0  0  0  0
 27 31  1  0  0  0  0
 28 32  1  0  0  0  0
 28 27  2  0  0  0  0
 29 26  1  0  0  0  0
 30 28  1  0  0  0  0
 31 29  2  0  0  0  0
 32 33  2  0  0  0  0
 33 29  1  0  0  0  0
M  END
>  <MODEL>
5

>  <REMARK>
 VINA RESULT:      -6.8      3.433      6.824
  Name = 
  7 active torsions:
  status: ('A' for Active; 'I' for Inactive)
    1  A    between atoms: O_2  and  C_12
    2  A    between atoms: O_2  and  C_31
    3  A    between atoms: N_6  and  C_9
    4  A    between atoms: O_8  and  C_13
    5  A    between atoms: O_8  and  C_19
    6  A    between atoms: C_17  and  C_19
    7  A    between atoms: C_17  and  C_24
                            x       y       z     vdW  Elec       q    Type
                         _______ _______ _______ _____ _____    ______ ____

>  <TORSDO>
F 7

$$$$
=
 OpenBabel10222417593D

 33 36  0  0  1  0  0  0  0  0999 V2000
  191.6740  175.5650  143.7040 C   0  0  0  0  0  1  0  0  0  0  0  0
  189.7360  177.1300  143.6850 C   0  0  1  0  0  3  0  0  0  0  0  0
  190.4820  177.6730  145.8280 N   0  0  0  0  0  0  0  0  0  0  0  0
  191.6810  177.6700  145.0180 C   0  0  0  0  0  2  0  0  0  0  0  0
  191.2640  177.0260  143.7040 C   0  0  1  0  0  3  0  0  0  0  0  0
  186.0020  176.4190  145.5830 O   0  0  0  0  0  0  0  0  0  0  0  0
  188.1970  177.1240  145.7680 N   0  0  0  0  0  2  0  0  0  0  0  0
  186.8950  177.2180  145.1930 C   0  0  0  0  0  0  0  0  0  0  0  0
  189.4350  177.4370  145.1200 C   0  0  0  0  0  0  0  0  0  0  0  0
  190.5920  176.7520  139.5950 C   0  0  2  0  0  3  0  0  0  0  0  0
  189.3490  178.2530  142.8260 N   0  0  1  0  0  0  0  0  0  0  0  0
  190.1680  178.2670  141.5850 C   0  0  2  0  0  3  0  0  0  0  0  0
  188.8200  177.7190  141.5670 C   0  0  2  0  0  3  0  0  0  0  0  0
  188.4090  178.1270  139.1670 C   0  0  2  0  0  3  0  0  0  0  0  0
  191.7310  176.3360  138.9080 O   0  0  0  0  0  1  0  0  0  0  0  0
  189.9080  177.9090  138.8180 C   0  0  0  0  0  2  0  0  0  0  0  0
  190.9660  177.0720  141.0690 C   0  0  0  0  0  2  0  0  0  0  0  0
  188.1630  178.6660  140.5920 C   0  0  0  0  0  2  0  0  0  0  0  0
  187.6630  176.9330  138.9570 O   0  0  0  0  0  0  0  0  0  0  0  0
  187.1640  175.5040  137.1660 C   0  0  0  0  0  2  0  0  0  0  0  0
  186.9740  176.6660  137.7710 C   0  0  0  0  0  0  0  0  0  0  0  0
  186.0180  177.6530  137.1760 C   0  0  0  0  0  2  0  0  0  0  0  0
  185.1080  179.2240  138.7210 O   0  0  0  0  0  1  0  0  0  0  0  0
  185.0070  178.0920  138.1800 C   0  0  0  0  0  0  0  0  0  0  0  0
  183.9460  177.2590  138.5130 O   0  0  0  0  0  0  0  0  0  0  0  0
  186.5860  178.2650  144.3150 O   0  0  0  0  0  0  0  0  0  0  0  0
  183.7880  178.4750  141.9050 C   0  0  0  0  0  3  0  0  0  0  0  0
  182.7640  178.9870  142.7060 C   0  0  0  0  0  0  0  0  0  0  0  0
  185.3100  178.5390  143.7970 C   0  0  0  0  0  0  0  0  0  0  0  0
  181.1730  179.2510  142.0270 Cl  0  0  0  0  0  0  0  0  0  0  0  0
  185.0570  178.2520  142.4510 C   0  0  0  0  0  3  0  0  0  0  0  0
  183.0090  179.2820  144.0490 C   0  0  0  0  0  3  0  0  0  0  0  0
  184.2760  179.0580  144.5940 C   0  0  0  0  0  3  0  0  0  0  0  0
  2  5  1  0  0  0  0
  2  9  1  1  0  0  0
  4  3  1  0  0  0  0
  5  1  1  1  0  0  0
  5  4  1  0  0  0  0
  8  6  2  0  0  0  0
  8  7  1  0  0  0  0
  9  7  1  0  0  0  0
  9  3  2  0  0  0  0
 10 15  1  6  0  0  0
 10 17  1  0  0  0  0
 11  2  1  1  0  0  0
 12 17  1  1  0  0  0
 12 11  1  0  0  0  0
 13 18  1  6  0  0  0
 13 12  1  0  0  0  0
 13 11  1  0  0  0  0
 14 19  1  1  0  0  0
 14 18  1  0  0  0  0
 16 14  1  0  0  0  0
 16 10  1  0  0  0  0
 20 21  2  0  0  0  0
 21 19  1  0  0  0  0
 22 21  1  0  0  0  0
 22 24  1  0  0  0  0
 24 25  2  0  0  0  0
 24 23  1  0  0  0  0
 26  8  1  0  0  0  0
 27 31  2  0  0  0  0
 27 28  1  0  0  0  0
 28 32  2  0  0  0  0
 29 26  1  0  0  0  0
 29 33  2  0  0  0  0
 30 28  1  0  0  0  0
 31 29  1  0  0  0  0
 32 33  1  0  0  0  0
M  END
>  <MODEL>
6

>  <REMARK>
 VINA RESULT:      -6.8      2.308      3.518
  Name = 
  7 active torsions:
  status: ('A' for Active; 'I' for Inactive)
    1  A    between atoms: O_2  and  C_12
    2  A    between atoms: O_2  and  C_31
    3  A    between atoms: N_6  and  C_9
    4  A    between atoms: O_8  and  C_13
    5  A    between atoms: O_8  and  C_19
    6  A    between atoms: C_17  and  C_19
    7  A    between atoms: C_17  and  C_24
                            x       y       z     vdW  Elec       q    Type
                         _______ _______ _______ _____ _____    ______ ____

>  <TORSDO>
F 7

$$$$
=
 OpenBabel10222417593D

 33 36  0  0  1  0  0  0  0  0999 V2000
  189.3780  178.6150  136.4930 C   0  0  0  0  0  1  0  0  0  0  0  0
  187.9170  177.8530  138.3610 C   0  0  1  0  0  3  0  0  0  0  0  0
  186.3950  177.4110  136.6490 N   0  0  0  0  0  0  0  0  0  0  0  0
  187.6470  176.8670  136.1680 C   0  0  0  0  0  2  0  0  0  0  0  0
  188.7010  177.4110  137.1210 C   0  0  1  0  0  3  0  0  0  0  0  0
  184.7510  180.1160  140.0670 O   0  0  0  0  0  0  0  0  0  0  0  0
  185.4750  178.7160  138.3730 N   0  0  0  0  0  2  0  0  0  0  0  0
  185.2540  179.0030  139.7540 C   0  0  0  0  0  0  0  0  0  0  0  0
  186.5150  177.8930  137.8350 C   0  0  0  0  0  0  0  0  0  0  0  0
  191.6140  177.6340  140.3310 C   0  0  2  0  0  3  0  0  0  0  0  0
  188.0490  176.8240  139.3960 N   0  0  1  0  0  0  0  0  0  0  0  0
  189.4800  176.4730  139.6020 C   0  0  2  0  0  3  0  0  0  0  0  0
  188.8100  177.3840  140.5180 C   0  0  2  0  0  3  0  0  0  0  0  0
  190.2680  176.9180  142.4550 C   0  0  2  0  0  3  0  0  0  0  0  0
  192.9290  177.6450  139.8660 O   0  0  0  0  0  1  0  0  0  0  0  0
  191.4970  176.6650  141.5380 C   0  0  0  0  0  2  0  0  0  0  0  0
  190.6520  177.3400  139.1470 C   0  0  0  0  0  2  0  0  0  0  0  0
  188.9100  176.5910  141.7990 C   0  0  0  0  0  2  0  0  0  0  0  0
  190.2690  178.2560  142.9420 O   0  0  0  0  0  0  0  0  0  0  0  0
  191.5990  179.5850  144.3440 C   0  0  0  0  0  2  0  0  0  0  0  0
  190.7240  178.5990  144.2180 C   0  0  0  0  0  0  0  0  0  0  0  0
  190.2390  177.8910  145.4450 C   0  0  0  0  0  2  0  0  0  0  0  0
  191.6810  177.1270  147.1830 O   0  0  0  0  0  1  0  0  0  0  0  0
  191.2920  176.9900  145.9940 C   0  0  0  0  0  0  0  0  0  0  0  0
  191.8390  175.9900  145.2000 O   0  0  0  0  0  0  0  0  0  0  0  0
  185.4660  178.0140  140.7220 O   0  0  0  0  0  0  0  0  0  0  0  0
  183.8050  178.6950  143.9550 C   0  0  0  0  0  3  0  0  0  0  0  0
  184.8440  178.4660  144.8600 C   0  0  0  0  0  0  0  0  0  0  0  0
  185.2920  178.1830  142.1050 C   0  0  0  0  0  0  0  0  0  0  0  0
  184.5580  178.6280  146.5790 Cl  0  0  0  0  0  0  0  0  0  0  0  0
  184.0300  178.5540  142.5820 C   0  0  0  0  0  3  0  0  0  0  0  0
  186.1090  178.1000  144.3940 C   0  0  0  0  0  3  0  0  0  0  0  0
  186.3330  177.9570  143.0220 C   0  0  0  0  0  3  0  0  0  0  0  0
  2  9  1  6  0  0  0
  3  9  2  0  0  0  0
  4  3  1  0  0  0  0
  4  5  1  0  0  0  0
  5  1  1  6  0  0  0
  5  2  1  0  0  0  0
  7  8  1  0  0  0  0
  8  6  2  0  0  0  0
  8 26  1  0  0  0  0
  9  7  1  0  0  0  0
 10 15  1  6  0  0  0
 10 16  1  0  0  0  0
 11  2  1  6  0  0  0
 11 12  1  0  0  0  0
 11 13  1  0  0  0  0
 12 17  1  6  0  0  0
 12 13  1  0  0  0  0
 13 18  1  1  0  0  0
 14 19  1  6  0  0  0
 16 14  1  0  0  0  0
 17 10  1  0  0  0  0
 18 14  1  0  0  0  0
 19 21  1  0  0  0  0
 21 20  2  0  0  0  0
 21 22  1  0  0  0  0
 22 24  1  0  0  0  0
 24 23  1  0  0  0  0
 25 24  2  0  0  0  0
 26 29  1  0  0  0  0
 27 28  1  0  0  0  0
 28 30  1  0  0  0  0
 29 31  1  0  0  0  0
 29 33  2  0  0  0  0
 31 27  2  0  0  0  0
 32 28  2  0  0  0  0
 33 32  1  0  0  0  0
M  END
>  <MODEL>
7

>  <REMARK>
 VINA RESULT:      -6.7      2.578      6.212
  Name = 
  7 active torsions:
  status: ('A' for Active; 'I' for Inactive)
    1  A    between atoms: O_2  and  C_12
    2  A    between atoms: O_2  and  C_31
    3  A    between atoms: N_6  and  C_9
    4  A    between atoms: O_8  and  C_13
    5  A    between atoms: O_8  and  C_19
    6  A    between atoms: C_17  and  C_19
    7  A    between atoms: C_17  and  C_24
                            x       y       z     vdW  Elec       q    Type
                         _______ _______ _______ _____ _____    ______ ____

>  <TORSDO>
F 7

$$$$
=
 OpenBabel10222417593D

 33 36  0  0  1  0  0  0  0  0999 V2000
  191.5090  175.5630  143.5940 C   0  0  0  0  0  1  0  0  0  0  0  0
  189.6210  177.1880  143.6190 C   0  0  1  0  0  3  0  0  0  0  0  0
  190.5500  177.8430  145.6560 N   0  0  0  0  0  0  0  0  0  0  0  0
  191.6810  177.7480  144.7580 C   0  0  0  0  0  2  0  0  0  0  0  0
  191.1430  177.0340  143.5270 C   0  0  1  0  0  3  0  0  0  0  0  0
  186.0310  176.7280  145.8430 O   0  0  0  0  0  0  0  0  0  0  0  0
  188.2530  177.3690  145.8100 N   0  0  0  0  0  2  0  0  0  0  0  0
  186.9120  177.4690  145.3320 C   0  0  0  0  0  0  0  0  0  0  0  0
  189.4430  177.5970  145.0490 C   0  0  0  0  0  0  0  0  0  0  0  0
  190.6170  176.7510  139.5670 C   0  0  2  0  0  3  0  0  0  0  0  0
  189.1990  178.2650  142.7190 N   0  0  1  0  0  0  0  0  0  0  0  0
  190.0530  178.2920  141.5010 C   0  0  2  0  0  3  0  0  0  0  0  0
  188.7380  177.6700  141.4600 C   0  0  2  0  0  3  0  0  0  0  0  0
  188.3770  177.9920  139.0390 C   0  0  2  0  0  3  0  0  0  0  0  0
  191.7980  176.3810  138.9240 O   0  0  0  0  0  1  0  0  0  0  0  0
  189.8960  177.8480  138.7390 C   0  0  0  0  0  2  0  0  0  0  0  0
  190.9300  177.1300  141.0410 C   0  0  0  0  0  2  0  0  0  0  0  0
  188.0600  178.5540  140.4420 C   0  0  0  0  0  2  0  0  0  0  0  0
  187.7040  176.7530  138.8420 O   0  0  0  0  0  0  0  0  0  0  0  0
  186.7190  177.0670  136.7360 C   0  0  0  0  0  2  0  0  0  0  0  0
  187.3600  176.2690  137.5770 C   0  0  0  0  0  0  0  0  0  0  0  0
  187.7090  174.8790  137.1420 C   0  0  0  0  0  2  0  0  0  0  0  0
  189.7330  175.5670  136.0880 O   0  0  0  0  0  0  0  0  0  0  0  0
  189.1690  174.7560  136.8670 C   0  0  0  0  0  0  0  0  0  0  0  0
  189.9130  173.7540  137.4770 O   0  0  0  0  0  1  0  0  0  0  0  0
  186.5650  178.4670  144.4120 O   0  0  0  0  0  0  0  0  0  0  0  0
  183.8530  178.3650  141.8990 C   0  0  0  0  0  3  0  0  0  0  0  0
  182.7710  178.8570  142.6330 C   0  0  0  0  0  0  0  0  0  0  0  0
  185.2960  178.6310  143.8350 C   0  0  0  0  0  0  0  0  0  0  0  0
  181.1930  178.9820  141.8850 Cl  0  0  0  0  0  0  0  0  0  0  0  0
  185.1110  178.2530  142.5000 C   0  0  0  0  0  3  0  0  0  0  0  0
  182.9450  179.2410  143.9640 C   0  0  0  0  0  3  0  0  0  0  0  0
  184.2020  179.1280  144.5640 C   0  0  0  0  0  3  0  0  0  0  0  0
  2  9  1  1  0  0  0
  4  3  1  0  0  0  0
  5  1  1  1  0  0  0
  5  2  1  0  0  0  0
  5  4  1  0  0  0  0
  8  7  1  0  0  0  0
  8  6  2  0  0  0  0
  9  3  2  0  0  0  0
  9  7  1  0  0  0  0
 10 15  1  6  0  0  0
 10 17  1  0  0  0  0
 11  2  1  1  0  0  0
 12 17  1  1  0  0  0
 12 11  1  0  0  0  0
 13 18  1  6  0  0  0
 13 12  1  0  0  0  0
 13 11  1  0  0  0  0
 14 19  1  1  0  0  0
 14 18  1  0  0  0  0
 16 14  1  0  0  0  0
 16 10  1  0  0  0  0
 20 21  2  0  0  0  0
 21 19  1  0  0  0  0
 22 21  1  0  0  0  0
 23 24  2  0  0  0  0
 24 22  1  0  0  0  0
 24 25  1  0  0  0  0
 26  8  1  0  0  0  0
 27 31  2  0  0  0  0
 27 28  1  0  0  0  0
 28 32  2  0  0  0  0
 29 26  1  0  0  0  0
 29 33  2  0  0  0  0
 30 28  1  0  0  0  0
 31 29  1  0  0  0  0
 32 33  1  0  0  0  0
M  END
>  <MODEL>
8

>  <REMARK>
 VINA RESULT:      -6.6      2.491      4.297
  Name = 
  7 active torsions:
  status: ('A' for Active; 'I' for Inactive)
    1  A    between atoms: O_2  and  C_12
    2  A    between atoms: O_2  and  C_31
    3  A    between atoms: N_6  and  C_9
    4  A    between atoms: O_8  and  C_13
    5  A    between atoms: O_8  and  C_19
    6  A    between atoms: C_17  and  C_19
    7  A    between atoms: C_17  and  C_24
                            x       y       z     vdW  Elec       q    Type
                         _______ _______ _______ _____ _____    ______ ____

>  <TORSDO>
F 7

$$$$
=
 OpenBabel10222417593D

 33 36  0  0  1  0  0  0  0  0999 V2000
  179.6710  177.2510  141.6630 C   0  0  0  0  0  1  0  0  0  0  0  0
  181.6430  177.6970  140.2080 C   0  0  1  0  0  3  0  0  0  0  0  0
  180.0750  177.5790  138.4840 N   0  0  0  0  0  0  0  0  0  0  0  0
  179.4500  178.4180  139.4840 C   0  0  0  0  0  2  0  0  0  0  0  0
  180.3150  178.2560  140.7260 C   0  0  1  0  0  3  0  0  0  0  0  0
  183.7460  174.7570  137.9740 O   0  0  0  0  0  0  0  0  0  0  0  0
  181.9340  176.1870  138.1240 N   0  0  0  0  0  2  0  0  0  0  0  0
  183.3400  175.9420  138.1110 C   0  0  0  0  0  0  0  0  0  0  0  0
  181.2620  177.2300  138.8360 C   0  0  0  0  0  0  0  0  0  0  0  0
  183.8160  178.5360  143.6970 C   0  0  2  0  0  3  0  0  0  0  0  0
  182.6180  178.7880  140.1280 N   0  0  1  0  0  0  0  0  0  0  0  0
  182.8880  179.3460  141.4800 C   0  0  2  0  0  3  0  0  0  0  0  0
  183.8170  178.4020  140.8790 C   0  0  2  0  0  3  0  0  0  0  0  0
  185.8050  179.1700  142.1240 C   0  0  2  0  0  3  0  0  0  0  0  0
  183.4330  178.6830  145.0300 O   0  0  0  0  0  1  0  0  0  0  0  0
  184.9500  179.5430  143.3670 C   0  0  0  0  0  2  0  0  0  0  0  0
  182.5600  178.6280  142.7870 C   0  0  0  0  0  2  0  0  0  0  0  0
  185.0490  179.2690  140.7820 C   0  0  0  0  0  2  0  0  0  0  0  0
  186.3750  177.8740  142.2730 O   0  0  0  0  0  0  0  0  0  0  0  0
  188.6760  178.1890  141.9470 C   0  0  0  0  0  2  0  0  0  0  0  0
  187.6980  177.6680  142.6720 C   0  0  0  0  0  0  0  0  0  0  0  0
  188.0380  176.8860  143.9030 C   0  0  0  0  0  2  0  0  0  0  0  0
  187.1670  178.1200  145.7470 O   0  0  0  0  0  1  0  0  0  0  0  0
  188.1830  177.7830  145.0840 C   0  0  0  0  0  0  0  0  0  0  0  0
  189.4380  178.2410  145.4640 O   0  0  0  0  0  0  0  0  0  0  0  0
  184.2420  177.0140  138.1120 O   0  0  0  0  0  0  0  0  0  0  0  0
  186.3870  177.1810  135.1050 C   0  0  0  0  0  3  0  0  0  0  0  0
  187.6540  177.3470  135.6710 C   0  0  0  0  0  0  0  0  0  0  0  0
  185.3980  177.1020  137.3220 C   0  0  0  0  0  0  0  0  0  0  0  0
  189.0570  177.5140  134.6380 Cl  0  0  0  0  0  0  0  0  0  0  0  0
  185.2640  177.0590  135.9300 C   0  0  0  0  0  3  0  0  0  0  0  0
  187.7990  177.3850  137.0600 C   0  0  0  0  0  3  0  0  0  0  0  0
  186.6760  177.2650  137.8820 C   0  0  0  0  0  3  0  0  0  0  0  0
  2  9  1  6  0  0  0
  2  5  1  0  0  0  0
  3  9  2  0  0  0  0
  3  4  1  0  0  0  0
  4  5  1  0  0  0  0
  5  1  1  1  0  0  0
  6  8  2  0  0  0  0
  7  9  1  0  0  0  0
  8 26  1  0  0  0  0
  8  7  1  0  0  0  0
 10 15  1  1  0  0  0
 11  2  1  1  0  0  0
 11 13  1  0  0  0  0
 11 12  1  0  0  0  0
 12 17  1  1  0  0  0
 13 18  1  6  0  0  0
 13 12  1  0  0  0  0
 14 19  1  1  0  0  0
 14 16  1  0  0  0  0
 16 10  1  0  0  0  0
 17 10  1  0  0  0  0
 18 14  1  0  0  0  0
 19 21  1  0  0  0  0
 20 21  2  0  0  0  0
 21 22  1  0  0  0  0
 22 24  1  0  0  0  0
 24 25  2  0  0  0  0
 24 23  1  0  0  0  0
 27 28  2  0  0  0  0
 27 31  1  0  0  0  0
 28 32  1  0  0  0  0
 29 33  1  0  0  0  0
 29 26  1  0  0  0  0
 30 28  1  0  0  0  0
 31 29  2  0  0  0  0
 32 33  2  0  0  0  0
M  END
>  <MODEL>
9

>  <REMARK>
 VINA RESULT:      -6.5      4.026      8.475
  Name = 
  7 active torsions:
  status: ('A' for Active; 'I' for Inactive)
    1  A    between atoms: O_2  and  C_12
    2  A    between atoms: O_2  and  C_31
    3  A    between atoms: N_6  and  C_9
    4  A    between atoms: O_8  and  C_13
    5  A    between atoms: O_8  and  C_19
    6  A    between atoms: C_17  and  C_19
    7  A    between atoms: C_17  and  C_24
                            x       y       z     vdW  Elec       q    Type
                         _______ _______ _______ _____ _____    ______ ____

>  <TORSDO>
F 7

$$$$
