=
 OpenBabel10222417343D

 57 64  0  0  1  0  0  0  0  0999 V2000
  186.7650  178.1320  142.7330 C   0  0  0  0  0  0  0  0  0  0  0  0
  190.7180  177.0340  139.3010 C   0  0  0  0  0  0  0  0  0  0  0  0
  185.0840  178.5150  144.0860 C   0  0  0  0  0  0  0  0  0  0  0  0
  184.5990  178.7040  142.7110 C   0  0  0  0  0  3  0  0  0  0  0  0
  188.9480  177.4840  143.5110 C   0  0  0  0  0  0  0  0  0  0  0  0
  188.4980  177.7380  139.8670 C   0  0  0  0  0  0  0  0  0  0  0  0
  187.1860  177.9090  145.0820 N   0  0  0  0  0  0  0  0  0  0  0  0
  191.0550  176.8870  140.6570 C   0  0  0  0  0  3  0  0  0  0  0  0
  185.6240  178.4680  141.8830 C   0  0  0  0  0  3  0  0  0  0  0  0
  188.4960  177.5670  144.8580 C   0  0  0  0  0  0  0  0  0  0  0  0
  190.1510  177.1070  143.0600 C   0  0  0  0  0  3  0  0  0  0  0  0
  189.4630  177.4550  138.9410 N   0  0  0  0  0  0  0  0  0  0  0  0
  186.3560  178.1830  144.0380 C   0  0  0  0  0  0  0  0  0  0  0  0
  184.3300  178.6560  145.2430 O   0  0  0  0  0  1  0  0  0  0  0  0
  188.0810  177.7770  142.4580 C   0  0  0  0  0  0  0  0  0  0  0  0
  188.8150  177.5800  141.2180 C   0  0  0  0  0  0  0  0  0  0  0  0
  190.0700  177.1700  141.5980 C   0  0  0  0  0  0  0  0  0  0  0  0
  192.4440  175.6720  138.3360 N   0  0  0  0  0  0  0  0  0  0  0  0
  191.7270  176.7460  138.2810 C   0  0  0  0  0  3  0  0  0  0  0  0
  195.9020  175.3690  135.8470 C   0  0  0  0  0  0  0  0  0  0  0  0
  197.7860  173.3380  136.3100 C   0  0  0  0  0  3  0  0  0  0  0  0
  195.4680  177.6100  135.1390 O   0  0  0  0  0  1  0  0  0  0  0  0
  196.7010  173.4950  137.1770 C   0  0  0  0  0  3  0  0  0  0  0  0
  194.6230  174.6520  137.9260 C   0  0  0  0  0  2  0  0  0  0  0  0
  195.7480  174.4910  136.9440 C   0  0  0  0  0  0  0  0  0  0  0  0
  193.4360  175.3910  137.3110 C   0  0  2  0  0  3  0  0  0  0  0  0
  197.9240  174.1820  135.2060 C   0  0  0  0  0  3  0  0  0  0  0  0
  193.9230  176.6970  136.7040 C   0  0  0  0  0  2  0  0  0  0  0  0
  196.9830  175.1890  134.9720 C   0  0  0  0  0  3  0  0  0  0  0  0
  194.8590  176.4170  135.5290 C   0  0  2  0  0  3  0  0  0  0  0  0
  190.9240  176.8330  145.8680 S   0  0  0  0  0  0  0  0  0  0  0  0
  189.3590  177.2950  146.0320 C   0  0  0  0  0  0  0  0  0  0  0  0
  188.8850  177.6260  147.3340 N   0  0  0  0  0  0  0  0  0  0  0  0
  187.9250  177.4850  148.4690 C   0  0  0  0  0  2  0  0  0  0  0  0
  188.9620  178.3840  148.6170 C   0  0  0  0  0  2  0  0  0  0  0  0
  187.2170  178.2160  139.4620 N   0  0  0  0  0  2  0  0  0  0  0  0
  186.8080  178.2910  138.0690 C   0  0  0  0  0  2  0  0  0  0  0  0
  185.3690  177.8270  137.9340 C   0  0  0  0  0  2  0  0  0  0  0  0
  184.4420  178.8180  138.6210 C   0  0  0  0  0  2  0  0  0  0  0  0
  183.0740  178.2040  138.8540 C   0  0  0  0  0  2  0  0  0  0  0  0
  182.2610  175.5550  139.4740 O   0  0  0  0  0  0  0  0  0  0  0  0
  182.4420  175.8410  138.2570 C   0  0  0  0  0  0  0  0  0  0  0  0
  182.8200  177.1620  137.8710 N   0  0  0  0  0  2  0  0  0  0  0  0
  182.2070  174.8020  137.1930 C   0  0  1  0  0  3  0  0  0  0  0  0
  184.3090  174.7470  135.8080 C   0  0  0  0  0  2  0  0  0  0  0  0
  184.2640  173.7440  138.0190 N   0  0  0  0  0  2  0  0  0  0  0  0
  186.2120  173.6290  136.5040 C   0  0  1  0  0  3  0  0  0  0  0  0
  185.4320  172.9520  137.6430 C   0  0  0  0  0  2  0  0  0  0  0  0
  185.4060  173.9640  135.3890 O   0  0  0  0  0  0  0  0  0  0  0  0
  183.4570  173.9850  136.8250 C   0  0  1  0  0  3  0  0  0  0  0  0
  187.1700  174.7480  136.9330 C   0  0  0  0  0  2  0  0  0  0  0  0
  189.5820  174.3070  136.3100 C   0  0  0  0  0  0  0  0  0  0  0  0
  190.7090  174.5180  135.3620 C   0  0  0  0  0  1  0  0  0  0  0  0
  188.3050  174.8810  136.0280 N   0  0  0  0  0  2  0  0  0  0  0  0
  189.7650  173.6250  137.3530 O   0  0  0  0  0  0  0  0  0  0  0  0
  181.0020  172.9660  136.5120 C   0  0  0  0  0  1  0  0  0  0  0  0
  181.0530  174.0200  137.4380 O   0  0  0  0  0  0  0  0  0  0  0  0
  1 13  1  0  0  0  0
  2  8  2  0  0  0  0
  3 14  1  0  0  0  0
  4  3  2  0  0  0  0
  5 10  2  0  0  0  0
  6 16  1  0  0  0  0
  8 17  1  0  0  0  0
  9  4  1  0  0  0  0
  9  1  2  0  0  0  0
 10  7  1  0  0  0  0
 10 32  1  0  0  0  0
 11  5  1  0  0  0  0
 12  2  1  0  0  0  0
 12  6  2  0  0  0  0
 13  3  1  0  0  0  0
 13  7  2  0  0  0  0
 15  1  1  0  0  0  0
 15  5  1  0  0  0  0
 16 17  1  0  0  0  0
 16 15  2  0  0  0  0
 17 11  2  0  0  0  0
 19 18  2  0  0  0  0
 19  2  1  0  0  0  0
 20 25  1  0  0  0  0
 21 23  1  0  0  0  0
 25 23  2  0  0  0  0
 25 24  1  0  0  0  0
 26 24  1  0  0  0  0
 26 18  1  1  0  0  0
 27 21  2  0  0  0  0
 28 26  1  0  0  0  0
 29 27  1  0  0  0  0
 29 20  2  0  0  0  0
 30 22  1  1  0  0  0
 30 20  1  0  0  0  0
 30 28  1  0  0  0  0
 31 32  2  0  0  0  0
 32 33  1  0  0  0  0
 33 34  1  0  0  0  0
 33 35  1  0  0  0  0
 34 35  1  0  0  0  0
 36  6  1  0  0  0  0
 37 36  1  0  0  0  0
 38 37  1  0  0  0  0
 38 39  1  0  0  0  0
 39 40  1  0  0  0  0
 42 41  2  0  0  0  0
 43 42  1  0  0  0  0
 43 40  1  0  0  0  0
 44 57  1  1  0  0  0
 44 42  1  0  0  0  0
 45 50  1  0  0  0  0
 47 51  1  1  0  0  0
 47 48  1  0  0  0  0
 48 46  1  0  0  0  0
 49 45  1  0  0  0  0
 49 47  1  0  0  0  0
 50 44  1  1  0  0  0
 50 46  1  0  0  0  0
 52 55  2  0  0  0  0
 53 52  1  0  0  0  0
 54 52  1  0  0  0  0
 54 51  1  0  0  0  0
 56 57  1  0  0  0  0
M  END
>  <MODEL>
1

>  <REMARK>
 VINA RESULT:      -8.7      0.000      0.000
  Name = 
  15 active torsions:
  status: ('A' for Active; 'I' for Inactive)
    1  A    between atoms: C_7  and  C_46
    2  A    between atoms: C_11  and  C_24
    3  A    between atoms: N_13  and  C_50
    4  A    between atoms: C_15  and  C_28
    5  A    between atoms: C_15  and  N_47
    6  A    between atoms: C_16  and  N_21
    7  A    between atoms: C_17  and  C_27
    8  A    between atoms: C_17  and  C_28
    9  A    between atoms: C_22  and  N_36
   10  A    between atoms: C_22  and  C_43
   11  A    between atoms: C_24  and  O_34
   12  A    between atoms: C_24  and  C_57
   13  A    between atoms: C_26  and  N_47
   14  A    between atoms: C_27  and  N_38
   15  A    between atoms: C_33  and  C_50
                            x       y       z     vdW  Elec       q    Type
                         _______ _______ _______ _____ _____    ______ ____

>  <TORSDO>
F 15

$$$$
=
 OpenBabel10222417343D

 57 64  0  0  1  0  0  0  0  0999 V2000
  186.3870  178.3190  143.0120 C   0  0  0  0  0  0  0  0  0  0  0  0
  190.0570  177.1300  139.3070 C   0  0  0  0  0  0  0  0  0  0  0  0
  184.8160  178.7430  144.4800 C   0  0  0  0  0  0  0  0  0  0  0  0
  184.2510  178.9820  143.1440 C   0  0  0  0  0  3  0  0  0  0  0  0
  188.5850  177.5610  143.6320 C   0  0  0  0  0  0  0  0  0  0  0  0
  187.9110  177.9150  140.0310 C   0  0  0  0  0  0  0  0  0  0  0  0
  186.9500  178.0260  145.3240 N   0  0  0  0  0  0  0  0  0  0  0  0
  190.4740  176.9390  140.6350 C   0  0  0  0  0  3  0  0  0  0  0  0
  185.2090  178.7210  142.2460 C   0  0  0  0  0  3  0  0  0  0  0  0
  188.2270  177.6340  145.0070 C   0  0  0  0  0  0  0  0  0  0  0  0
  189.7390  177.1440  143.0960 C   0  0  0  0  0  3  0  0  0  0  0  0
  188.8010  177.6110  139.0390 N   0  0  0  0  0  0  0  0  0  0  0  0
  186.0660  178.3580  144.3420 C   0  0  0  0  0  0  0  0  0  0  0  0
  184.1460  178.8910  145.6870 O   0  0  0  0  0  1  0  0  0  0  0  0
  187.6660  177.9150  142.6440 C   0  0  0  0  0  0  0  0  0  0  0  0
  188.3080  177.7140  141.3550 C   0  0  0  0  0  0  0  0  0  0  0  0
  189.5660  177.2430  141.6430 C   0  0  0  0  0  0  0  0  0  0  0  0
  191.6420  175.7100  138.1950 N   0  0  0  0  0  0  0  0  0  0  0  0
  190.9830  176.8220  138.2170 C   0  0  0  0  0  3  0  0  0  0  0  0
  194.9650  174.9600  135.6180 C   0  0  0  0  0  0  0  0  0  0  0  0
  196.0130  172.3630  135.4060 C   0  0  0  0  0  3  0  0  0  0  0  0
  195.3660  177.3160  135.6100 O   0  0  0  0  0  1  0  0  0  0  0  0
  194.9850  172.6280  136.3150 C   0  0  0  0  0  3  0  0  0  0  0  0
  193.3720  174.1640  137.4360 C   0  0  0  0  0  2  0  0  0  0  0  0
  194.4440  173.9140  136.4140 C   0  0  0  0  0  0  0  0  0  0  0  0
  192.5520  175.4100  137.1020 C   0  0  2  0  0  3  0  0  0  0  0  0
  196.5080  173.3850  134.5940 C   0  0  0  0  0  3  0  0  0  0  0  0
  193.4940  176.5830  136.8880 C   0  0  0  0  0  2  0  0  0  0  0  0
  195.9810  174.6760  134.6950 C   0  0  0  0  0  3  0  0  0  0  0  0
  194.3620  176.3470  135.6540 C   0  0  2  0  0  3  0  0  0  0  0  0
  190.6760  176.7620  145.8410 S   0  0  0  0  0  0  0  0  0  0  0  0
  189.1510  177.3000  146.1160 C   0  0  0  0  0  0  0  0  0  0  0  0
  188.7830  177.6340  147.4520 N   0  0  0  0  0  0  0  0  0  0  0  0
  188.9260  178.4360  148.7030 C   0  0  0  0  0  2  0  0  0  0  0  0
  187.9600  177.4510  148.6820 C   0  0  0  0  0  2  0  0  0  0  0  0
  186.6290  178.4560  139.7210 N   0  0  0  0  0  2  0  0  0  0  0  0
  186.0640  178.4250  138.3820 C   0  0  0  0  0  2  0  0  0  0  0  0
  184.5540  178.2950  138.4680 C   0  0  0  0  0  2  0  0  0  0  0  0
  183.9600  179.5670  139.0520 C   0  0  0  0  0  2  0  0  0  0  0  0
  182.4990  179.3650  139.4080 C   0  0  0  0  0  2  0  0  0  0  0  0
  180.5460  178.1400  137.7510 O   0  0  0  0  0  0  0  0  0  0  0  0
  181.1600  177.4030  138.5720 C   0  0  0  0  0  0  0  0  0  0  0  0
  182.1770  177.9460  139.4140 N   0  0  0  0  0  2  0  0  0  0  0  0
  180.8640  175.9280  138.6340 C   0  0  1  0  0  3  0  0  0  0  0  0
  181.9650  175.6250  136.3900 C   0  0  0  0  0  2  0  0  0  0  0  0
  183.1430  175.0380  138.4310 N   0  0  0  0  0  2  0  0  0  0  0  0
  184.0530  174.6520  136.1660 C   0  0  1  0  0  3  0  0  0  0  0  0
  184.0270  174.1920  137.6340 C   0  0  0  0  0  2  0  0  0  0  0  0
  182.7650  174.7790  135.5920 O   0  0  0  0  0  0  0  0  0  0  0  0
  181.8240  175.0590  137.8050 C   0  0  1  0  0  3  0  0  0  0  0  0
  184.9860  175.8310  135.8600 C   0  0  0  0  0  2  0  0  0  0  0  0
  187.4090  175.1360  136.0810 C   0  0  0  0  0  0  0  0  0  0  0  0
  188.6820  174.7380  135.4220 C   0  0  0  0  0  1  0  0  0  0  0  0
  186.2530  175.3980  135.2840 N   0  0  0  0  0  2  0  0  0  0  0  0
  187.3620  175.2390  137.3360 O   0  0  0  0  0  0  0  0  0  0  0  0
  179.2790  175.3270  140.1880 C   0  0  0  0  0  1  0  0  0  0  0  0
  180.6570  175.4680  139.9560 O   0  0  0  0  0  0  0  0  0  0  0  0
  1 13  1  0  0  0  0
  2  8  2  0  0  0  0
  3 14  1  0  0  0  0
  4  3  2  0  0  0  0
  5 10  2  0  0  0  0
  6 16  1  0  0  0  0
  8 17  1  0  0  0  0
  9  1  2  0  0  0  0
  9  4  1  0  0  0  0
 10  7  1  0  0  0  0
 10 32  1  0  0  0  0
 11  5  1  0  0  0  0
 12  2  1  0  0  0  0
 12  6  2  0  0  0  0
 13  3  1  0  0  0  0
 13  7  2  0  0  0  0
 15  1  1  0  0  0  0
 15  5  1  0  0  0  0
 16 17  1  0  0  0  0
 16 15  2  0  0  0  0
 17 11  2  0  0  0  0
 18 19  2  0  0  0  0
 19  2  1  0  0  0  0
 20 30  1  0  0  0  0
 20 25  1  0  0  0  0
 21 23  1  0  0  0  0
 23 25  2  0  0  0  0
 25 24  1  0  0  0  0
 26 24  1  0  0  0  0
 26 18  1  1  0  0  0
 27 29  1  0  0  0  0
 27 21  2  0  0  0  0
 28 26  1  0  0  0  0
 29 20  2  0  0  0  0
 30 22  1  1  0  0  0
 30 28  1  0  0  0  0
 31 32  2  0  0  0  0
 32 33  1  0  0  0  0
 33 35  1  0  0  0  0
 33 34  1  0  0  0  0
 35 34  1  0  0  0  0
 36  6  1  0  0  0  0
 37 38  1  0  0  0  0
 37 36  1  0  0  0  0
 38 39  1  0  0  0  0
 39 40  1  0  0  0  0
 40 43  1  0  0  0  0
 41 42  2  0  0  0  0
 42 43  1  0  0  0  0
 44 42  1  1  0  0  0
 44 57  1  0  0  0  0
 45 50  1  0  0  0  0
 47 51  1  1  0  0  0
 47 48  1  0  0  0  0
 48 46  1  0  0  0  0
 49 47  1  0  0  0  0
 49 45  1  0  0  0  0
 50 46  1  0  0  0  0
 50 44  1  1  0  0  0
 52 55  2  0  0  0  0
 53 52  1  0  0  0  0
 54 51  1  0  0  0  0
 54 52  1  0  0  0  0
 57 56  1  0  0  0  0
M  END
>  <MODEL>
2

>  <REMARK>
 VINA RESULT:      -8.6      1.334      1.642
  Name = 
  15 active torsions:
  status: ('A' for Active; 'I' for Inactive)
    1  A    between atoms: C_7  and  C_46
    2  A    between atoms: C_11  and  C_24
    3  A    between atoms: N_13  and  C_50
    4  A    between atoms: C_15  and  C_28
    5  A    between atoms: C_15  and  N_47
    6  A    between atoms: C_16  and  N_21
    7  A    between atoms: C_17  and  C_27
    8  A    between atoms: C_17  and  C_28
    9  A    between atoms: C_22  and  N_36
   10  A    between atoms: C_22  and  C_43
   11  A    between atoms: C_24  and  O_34
   12  A    between atoms: C_24  and  C_57
   13  A    between atoms: C_26  and  N_47
   14  A    between atoms: C_27  and  N_38
   15  A    between atoms: C_33  and  C_50
                            x       y       z     vdW  Elec       q    Type
                         _______ _______ _______ _____ _____    ______ ____

>  <TORSDO>
F 15

$$$$
=
 OpenBabel10222417343D

 57 64  0  0  1  0  0  0  0  0999 V2000
  186.4070  178.2680  143.2590 C   0  0  0  0  0  0  0  0  0  0  0  0
  190.4120  177.0940  139.9130 C   0  0  0  0  0  0  0  0  0  0  0  0
  184.7060  178.6820  144.5760 C   0  0  0  0  0  0  0  0  0  0  0  0
  184.2470  178.8590  143.1910 C   0  0  0  0  0  3  0  0  0  0  0  0
  188.5690  177.6090  144.0840 C   0  0  0  0  0  0  0  0  0  0  0  0
  188.1880  177.8250  140.4300 C   0  0  0  0  0  0  0  0  0  0  0  0
  186.7830  178.0690  145.6180 N   0  0  0  0  0  0  0  0  0  0  0  0
  190.7220  176.9600  141.2770 C   0  0  0  0  0  3  0  0  0  0  0  0
  185.2850  178.6040  142.3840 C   0  0  0  0  0  3  0  0  0  0  0  0
  188.0940  177.7120  145.4220 C   0  0  0  0  0  0  0  0  0  0  0  0
  189.7770  177.2160  143.6600 C   0  0  0  0  0  3  0  0  0  0  0  0
  189.1680  177.5220  139.5250 N   0  0  0  0  0  0  0  0  0  0  0  0
  185.9740  178.3380  144.5550 C   0  0  0  0  0  0  0  0  0  0  0  0
  183.9320  178.8440  145.7170 O   0  0  0  0  0  1  0  0  0  0  0  0
  187.7240  177.8980  143.0120 C   0  0  0  0  0  0  0  0  0  0  0  0
  188.4790  177.6800  141.7880 C   0  0  0  0  0  0  0  0  0  0  0  0
  189.7230  177.2630  142.1960 C   0  0  0  0  0  0  0  0  0  0  0  0
  191.5040  175.6150  138.3690 N   0  0  0  0  0  0  0  0  0  0  0  0
  191.4360  176.7850  138.9150 C   0  0  0  0  0  3  0  0  0  0  0  0
  195.0640  175.0840  136.0690 C   0  0  0  0  0  0  0  0  0  0  0  0
  196.5320  172.6990  136.2920 C   0  0  0  0  0  3  0  0  0  0  0  0
  195.0770  177.4480  135.7230 O   0  0  0  0  0  1  0  0  0  0  0  0
  195.4170  172.9120  137.1090 C   0  0  0  0  0  3  0  0  0  0  0  0
  193.5080  174.2940  137.9210 C   0  0  0  0  0  2  0  0  0  0  0  0
  194.6700  174.0880  136.9920 C   0  0  0  0  0  0  0  0  0  0  0  0
  192.5190  175.3220  137.3710 C   0  0  2  0  0  3  0  0  0  0  0  0
  196.9050  173.6650  135.3550 C   0  0  0  0  0  3  0  0  0  0  0  0
  193.2710  176.5970  137.0210 C   0  0  0  0  0  2  0  0  0  0  0  0
  196.1710  174.8490  135.2400 C   0  0  0  0  0  3  0  0  0  0  0  0
  194.2440  176.3390  135.8710 C   0  0  2  0  0  3  0  0  0  0  0  0
  188.3080  177.4460  148.1300 S   0  0  0  0  0  0  0  0  0  0  0  0
  188.9320  177.4470  146.6140 C   0  0  0  0  0  0  0  0  0  0  0  0
  190.2710  176.9900  146.4340 N   0  0  0  0  0  0  0  0  0  0  0  0
  191.6500  177.1190  145.8780 C   0  0  0  0  0  2  0  0  0  0  0  0
  191.3760  176.0130  146.6560 C   0  0  0  0  0  2  0  0  0  0  0  0
  186.9190  178.3100  139.9960 N   0  0  0  0  0  2  0  0  0  0  0  0
  186.4610  178.1970  138.6210 C   0  0  0  0  0  2  0  0  0  0  0  0
  184.9440  178.2510  138.5830 C   0  0  0  0  0  2  0  0  0  0  0  0
  184.4360  177.5610  137.3260 C   0  0  0  0  0  2  0  0  0  0  0  0
  184.5720  176.0550  137.4450 C   0  0  0  0  0  2  0  0  0  0  0  0
  182.3040  175.0440  136.0680 O   0  0  0  0  0  0  0  0  0  0  0  0
  182.2730  175.0320  137.3310 C   0  0  0  0  0  0  0  0  0  0  0  0
  183.3910  175.4960  138.0870 N   0  0  0  0  0  2  0  0  0  0  0  0
  181.0750  174.4780  138.0530 C   0  0  1  0  0  3  0  0  0  0  0  0
  180.0720  175.4830  140.1320 C   0  0  0  0  0  2  0  0  0  0  0  0
  180.5850  176.8790  138.2130 N   0  0  0  0  0  2  0  0  0  0  0  0
  179.4670  177.7140  140.2520 C   0  0  1  0  0  3  0  0  0  0  0  0
  179.6520  177.8740  138.7340 C   0  0  0  0  0  2  0  0  0  0  0  0
  179.1240  176.3960  140.6420 O   0  0  0  0  0  0  0  0  0  0  0  0
  180.1210  175.5500  138.6040 C   0  0  1  0  0  3  0  0  0  0  0  0
  180.5570  178.3530  141.1220 C   0  0  0  0  0  2  0  0  0  0  0  0
  179.5690  178.7220  143.4220 C   0  0  0  0  0  0  0  0  0  0  0  0
  178.9730  179.6560  144.4140 C   0  0  0  0  0  1  0  0  0  0  0  0
  180.0030  179.2190  142.1550 N   0  0  0  0  0  2  0  0  0  0  0  0
  179.6850  177.5000  143.7080 O   0  0  0  0  0  0  0  0  0  0  0  0
  179.2090  173.1370  137.9500 C   0  0  0  0  0  1  0  0  0  0  0  0
  180.4320  173.4440  137.3320 O   0  0  0  0  0  0  0  0  0  0  0  0
  1 13  1  0  0  0  0
  2  8  2  0  0  0  0
  3 14  1  0  0  0  0
  4  3  2  0  0  0  0
  5 10  2  0  0  0  0
  6 16  1  0  0  0  0
  8 17  1  0  0  0  0
  9  4  1  0  0  0  0
  9  1  2  0  0  0  0
 10  7  1  0  0  0  0
 10 32  1  0  0  0  0
 11  5  1  0  0  0  0
 12  2  1  0  0  0  0
 12  6  2  0  0  0  0
 13  3  1  0  0  0  0
 13  7  2  0  0  0  0
 15  1  1  0  0  0  0
 15  5  1  0  0  0  0
 16 17  1  0  0  0  0
 16 15  2  0  0  0  0
 17 11  2  0  0  0  0
 18 19  2  0  0  0  0
 19  2  1  0  0  0  0
 20 25  1  0  0  0  0
 21 23  1  0  0  0  0
 25 23  2  0  0  0  0
 25 24  1  0  0  0  0
 26 24  1  0  0  0  0
 26 18  1  1  0  0  0
 27 21  2  0  0  0  0
 28 26  1  0  0  0  0
 29 27  1  0  0  0  0
 29 20  2  0  0  0  0
 30 22  1  1  0  0  0
 30 20  1  0  0  0  0
 30 28  1  0  0  0  0
 32 31  2  0  0  0  0
 33 32  1  0  0  0  0
 33 35  1  0  0  0  0
 34 33  1  0  0  0  0
 34 35  1  0  0  0  0
 36  6  1  0  0  0  0
 37 36  1  0  0  0  0
 38 37  1  0  0  0  0
 39 40  1  0  0  0  0
 39 38  1  0  0  0  0
 40 43  1  0  0  0  0
 41 42  2  0  0  0  0
 42 43  1  0  0  0  0
 44 42  1  6  0  0  0
 45 49  1  0  0  0  0
 46 50  1  0  0  0  0
 46 48  1  0  0  0  0
 47 49  1  0  0  0  0
 47 51  1  1  0  0  0
 48 47  1  0  0  0  0
 50 44  1  1  0  0  0
 50 45  1  0  0  0  0
 51 54  1  0  0  0  0
 52 55  2  0  0  0  0
 52 53  1  0  0  0  0
 54 52  1  0  0  0  0
 57 56  1  0  0  0  0
 57 44  1  0  0  0  0
M  END
>  <MODEL>
3

>  <REMARK>
 VINA RESULT:      -8.4      2.127      4.530
  Name = 
  15 active torsions:
  status: ('A' for Active; 'I' for Inactive)
    1  A    between atoms: C_7  and  C_46
    2  A    between atoms: C_11  and  C_24
    3  A    between atoms: N_13  and  C_50
    4  A    between atoms: C_15  and  C_28
    5  A    between atoms: C_15  and  N_47
    6  A    between atoms: C_16  and  N_21
    7  A    between atoms: C_17  and  C_27
    8  A    between atoms: C_17  and  C_28
    9  A    between atoms: C_22  and  N_36
   10  A    between atoms: C_22  and  C_43
   11  A    between atoms: C_24  and  O_34
   12  A    between atoms: C_24  and  C_57
   13  A    between atoms: C_26  and  N_47
   14  A    between atoms: C_27  and  N_38
   15  A    between atoms: C_33  and  C_50
                            x       y       z     vdW  Elec       q    Type
                         _______ _______ _______ _____ _____    ______ ____

>  <TORSDO>
F 15

$$$$
=
 OpenBabel10222417343D

 57 64  0  0  1  0  0  0  0  0999 V2000
  186.3830  178.2880  142.9010 C   0  0  0  0  0  0  0  0  0  0  0  0
  190.2400  176.9960  139.4260 C   0  0  0  0  0  0  0  0  0  0  0  0
  184.7380  178.7550  144.2700 C   0  0  0  0  0  0  0  0  0  0  0  0
  184.2560  178.9920  142.9020 C   0  0  0  0  0  3  0  0  0  0  0  0
  188.5270  177.4950  143.6540 C   0  0  0  0  0  0  0  0  0  0  0  0
  188.0700  177.8280  140.0170 C   0  0  0  0  0  0  0  0  0  0  0  0
  186.8040  178.0060  145.2440 N   0  0  0  0  0  0  0  0  0  0  0  0
  190.5750  176.8100  140.7780 C   0  0  0  0  0  3  0  0  0  0  0  0
  185.2600  178.7050  142.0630 C   0  0  0  0  0  3  0  0  0  0  0  0
  188.0900  177.5880  145.0050 C   0  0  0  0  0  0  0  0  0  0  0  0
  189.7020  177.0510  143.1900 C   0  0  0  0  0  3  0  0  0  0  0  0
  189.0110  177.4980  139.0810 N   0  0  0  0  0  0  0  0  0  0  0  0
  185.9860  178.3450  144.2080 C   0  0  0  0  0  0  0  0  0  0  0  0
  184.0010  178.9260  145.4350 O   0  0  0  0  0  1  0  0  0  0  0  0
  187.6730  177.8560  142.6110 C   0  0  0  0  0  0  0  0  0  0  0  0
  188.3850  177.6320  141.3630 C   0  0  0  0  0  0  0  0  0  0  0  0
  189.6150  177.1400  141.7290 C   0  0  0  0  0  0  0  0  0  0  0  0
  191.8100  175.5100  138.3830 N   0  0  0  0  0  0  0  0  0  0  0  0
  191.2220  176.6600  138.3940 C   0  0  0  0  0  3  0  0  0  0  0  0
  195.2550  174.9120  135.9290 C   0  0  0  0  0  0  0  0  0  0  0  0
  196.7590  172.5530  136.1780 C   0  0  0  0  0  3  0  0  0  0  0  0
  195.2240  177.2600  135.4820 O   0  0  0  0  0  1  0  0  0  0  0  0
  195.6850  172.7910  137.0410 C   0  0  0  0  0  3  0  0  0  0  0  0
  193.8030  174.1890  137.8890 C   0  0  0  0  0  2  0  0  0  0  0  0
  194.9190  173.9540  136.9130 C   0  0  0  0  0  0  0  0  0  0  0  0
  192.7770  175.1830  137.3470 C   0  0  2  0  0  3  0  0  0  0  0  0
  197.0730  173.4810  135.1830 C   0  0  0  0  0  3  0  0  0  0  0  0
  193.4950  176.4480  136.9060 C   0  0  0  0  0  2  0  0  0  0  0  0
  196.3200  174.6520  135.0550 C   0  0  0  0  0  3  0  0  0  0  0  0
  194.4110  176.1500  135.7200 C   0  0  2  0  0  3  0  0  0  0  0  0
  188.3010  176.8670  147.6300 S   0  0  0  0  0  0  0  0  0  0  0  0
  188.9410  177.2470  146.1690 C   0  0  0  0  0  0  0  0  0  0  0  0
  190.3400  177.0540  145.9730 N   0  0  0  0  0  0  0  0  0  0  0  0
  191.6610  177.4380  145.3950 C   0  0  0  0  0  2  0  0  0  0  0  0
  191.6150  176.3090  146.1870 C   0  0  0  0  0  2  0  0  0  0  0  0
  186.8190  178.3890  139.6280 N   0  0  0  0  0  2  0  0  0  0  0  0
  186.2410  178.1880  138.3090 C   0  0  0  0  0  2  0  0  0  0  0  0
  184.7320  178.3290  138.3860 C   0  0  0  0  0  2  0  0  0  0  0  0
  184.0780  177.4600  137.3240 C   0  0  0  0  0  2  0  0  0  0  0  0
  183.5570  176.1690  137.9290 C   0  0  0  0  0  2  0  0  0  0  0  0
  182.5990  176.8880  140.5040 O   0  0  0  0  0  0  0  0  0  0  0  0
  181.7420  176.6500  139.6080 C   0  0  0  0  0  0  0  0  0  0  0  0
  182.1530  176.3140  138.2820 N   0  0  0  0  0  2  0  0  0  0  0  0
  180.2730  176.7710  139.9140 C   0  0  1  0  0  3  0  0  0  0  0  0
  180.3810  179.2830  140.0480 C   0  0  0  0  0  2  0  0  0  0  0  0
  179.7160  178.1860  137.9860 N   0  0  0  0  0  2  0  0  0  0  0  0
  179.7200  180.6380  138.2910 C   0  0  1  0  0  3  0  0  0  0  0  0
  179.0920  179.4370  137.5650 C   0  0  0  0  0  2  0  0  0  0  0  0
  179.7460  180.4940  139.7000 O   0  0  0  0  0  0  0  0  0  0  0  0
  179.6390  178.0890  139.4410 C   0  0  1  0  0  3  0  0  0  0  0  0
  181.0380  181.1530  137.6980 C   0  0  0  0  0  2  0  0  0  0  0  0
  180.9730  183.4610  136.6640 C   0  0  0  0  0  0  0  0  0  0  0  0
  181.1510  184.9290  136.8220 C   0  0  0  0  0  1  0  0  0  0  0  0
  181.1560  182.6030  137.7910 N   0  0  0  0  0  2  0  0  0  0  0  0
  180.6640  182.9890  135.5380 O   0  0  0  0  0  0  0  0  0  0  0  0
  179.3440  174.8180  140.6950 C   0  0  0  0  0  1  0  0  0  0  0  0
  179.5430  175.6130  139.5550 O   0  0  0  0  0  0  0  0  0  0  0  0
  1 13  1  0  0  0  0
  2  8  2  0  0  0  0
  3 14  1  0  0  0  0
  4  3  2  0  0  0  0
  5 10  2  0  0  0  0
  6 16  1  0  0  0  0
  8 17  1  0  0  0  0
  9  1  2  0  0  0  0
  9  4  1  0  0  0  0
 10  7  1  0  0  0  0
 10 32  1  0  0  0  0
 11  5  1  0  0  0  0
 12  2  1  0  0  0  0
 12  6  2  0  0  0  0
 13  3  1  0  0  0  0
 13  7  2  0  0  0  0
 15  1  1  0  0  0  0
 15  5  1  0  0  0  0
 16 17  1  0  0  0  0
 16 15  2  0  0  0  0
 17 11  2  0  0  0  0
 18 19  2  0  0  0  0
 19  2  1  0  0  0  0
 20 25  1  0  0  0  0
 21 23  1  0  0  0  0
 25 23  2  0  0  0  0
 25 24  1  0  0  0  0
 26 24  1  0  0  0  0
 26 18  1  1  0  0  0
 27 21  2  0  0  0  0
 28 26  1  0  0  0  0
 29 27  1  0  0  0  0
 29 20  2  0  0  0  0
 30 22  1  1  0  0  0
 30 20  1  0  0  0  0
 30 28  1  0  0  0  0
 32 31  2  0  0  0  0
 33 32  1  0  0  0  0
 33 35  1  0  0  0  0
 34 33  1  0  0  0  0
 34 35  1  0  0  0  0
 36  6  1  0  0  0  0
 37 38  1  0  0  0  0
 37 36  1  0  0  0  0
 39 40  1  0  0  0  0
 39 38  1  0  0  0  0
 40 43  1  0  0  0  0
 42 44  1  0  0  0  0
 42 41  2  0  0  0  0
 43 42  1  0  0  0  0
 44 57  1  6  0  0  0
 46 50  1  0  0  0  0
 47 51  1  6  0  0  0
 47 49  1  0  0  0  0
 48 46  1  0  0  0  0
 48 47  1  0  0  0  0
 49 45  1  0  0  0  0
 50 44  1  1  0  0  0
 50 45  1  0  0  0  0
 51 54  1  0  0  0  0
 52 53  1  0  0  0  0
 52 54  1  0  0  0  0
 55 52  2  0  0  0  0
 57 56  1  0  0  0  0
M  END
>  <MODEL>
4

>  <REMARK>
 VINA RESULT:      -8.3      2.622      4.708
  Name = 
  15 active torsions:
  status: ('A' for Active; 'I' for Inactive)
    1  A    between atoms: C_7  and  C_46
    2  A    between atoms: C_11  and  C_24
    3  A    between atoms: N_13  and  C_50
    4  A    between atoms: C_15  and  C_28
    5  A    between atoms: C_15  and  N_47
    6  A    between atoms: C_16  and  N_21
    7  A    between atoms: C_17  and  C_27
    8  A    between atoms: C_17  and  C_28
    9  A    between atoms: C_22  and  N_36
   10  A    between atoms: C_22  and  C_43
   11  A    between atoms: C_24  and  O_34
   12  A    between atoms: C_24  and  C_57
   13  A    between atoms: C_26  and  N_47
   14  A    between atoms: C_27  and  N_38
   15  A    between atoms: C_33  and  C_50
                            x       y       z     vdW  Elec       q    Type
                         _______ _______ _______ _____ _____    ______ ____

>  <TORSDO>
F 15

$$$$
=
 OpenBabel10222417343D

 57 64  0  0  1  0  0  0  0  0999 V2000
  186.3290  178.2550  142.9490 C   0  0  0  0  0  0  0  0  0  0  0  0
  190.1990  177.1300  139.4310 C   0  0  0  0  0  0  0  0  0  0  0  0
  184.6810  178.6500  144.3380 C   0  0  0  0  0  0  0  0  0  0  0  0
  184.1690  178.8480  142.9740 C   0  0  0  0  0  3  0  0  0  0  0  0
  188.5210  177.5820  143.6790 C   0  0  0  0  0  0  0  0  0  0  0  0
  187.9980  177.8550  140.0460 C   0  0  0  0  0  0  0  0  0  0  0  0
  186.7960  178.0190  145.2880 N   0  0  0  0  0  0  0  0  0  0  0  0
  190.5620  176.9750  140.7800 C   0  0  0  0  0  3  0  0  0  0  0  0
  185.1740  178.6060  142.1240 C   0  0  0  0  0  3  0  0  0  0  0  0
  188.0980  177.6650  145.0350 C   0  0  0  0  0  0  0  0  0  0  0  0
  189.7110  177.1940  143.2020 C   0  0  0  0  0  3  0  0  0  0  0  0
  188.9410  177.5650  139.1000 N   0  0  0  0  0  0  0  0  0  0  0  0
  185.9480  178.3050  144.2620 C   0  0  0  0  0  0  0  0  0  0  0  0
  183.9520  178.7940  145.5110 O   0  0  0  0  0  1  0  0  0  0  0  0
  187.6350  177.8880  142.6450 C   0  0  0  0  0  0  0  0  0  0  0  0
  188.3410  177.6880  141.3890 C   0  0  0  0  0  0  0  0  0  0  0  0
  189.6000  177.2640  141.7420 C   0  0  0  0  0  0  0  0  0  0  0  0
  191.6390  175.6380  138.2220 N   0  0  0  0  0  0  0  0  0  0  0  0
  191.1830  176.8360  138.3890 C   0  0  0  0  0  3  0  0  0  0  0  0
  195.1020  175.0050  135.8030 C   0  0  0  0  0  0  0  0  0  0  0  0
  196.3210  172.4750  135.7380 C   0  0  0  0  0  3  0  0  0  0  0  0
  195.3530  177.3800  135.7120 O   0  0  0  0  0  1  0  0  0  0  0  0
  195.2430  172.7090  136.5970 C   0  0  0  0  0  3  0  0  0  0  0  0
  193.4930  174.1800  137.5920 C   0  0  0  0  0  2  0  0  0  0  0  0
  194.6180  173.9600  136.6220 C   0  0  0  0  0  0  0  0  0  0  0  0
  192.6090  175.3550  137.1760 C   0  0  2  0  0  3  0  0  0  0  0  0
  196.7810  173.4950  134.9030 C   0  0  0  0  0  3  0  0  0  0  0  0
  193.4830  176.5780  136.9490 C   0  0  0  0  0  2  0  0  0  0  0  0
  196.1700  174.7520  134.9310 C   0  0  0  0  0  3  0  0  0  0  0  0
  194.4120  176.3510  135.7580 C   0  0  2  0  0  3  0  0  0  0  0  0
  190.5890  177.1080  146.0040 S   0  0  0  0  0  0  0  0  0  0  0  0
  188.9830  177.3800  146.1900 C   0  0  0  0  0  0  0  0  0  0  0  0
  188.4710  177.5340  147.5110 N   0  0  0  0  0  0  0  0  0  0  0  0
  187.6240  177.1020  148.6610 C   0  0  0  0  0  2  0  0  0  0  0  0
  188.3680  178.2540  148.8140 C   0  0  0  0  0  2  0  0  0  0  0  0
  186.7140  178.3470  139.6700 N   0  0  0  0  0  2  0  0  0  0  0  0
  186.2460  178.3560  138.2930 C   0  0  0  0  0  2  0  0  0  0  0  0
  184.7600  178.0510  138.2570 C   0  0  0  0  0  2  0  0  0  0  0  0
  184.4780  176.9880  137.2070 C   0  0  0  0  0  2  0  0  0  0  0  0
  185.5810  176.9530  136.1660 C   0  0  0  0  0  2  0  0  0  0  0  0
  187.2440  175.0520  137.4640 O   0  0  0  0  0  0  0  0  0  0  0  0
  186.6700  174.6940  136.3980 C   0  0  0  0  0  0  0  0  0  0  0  0
  185.7950  175.5870  135.7100 N   0  0  0  0  0  2  0  0  0  0  0  0
  186.8610  173.2980  135.8680 C   0  0  1  0  0  3  0  0  0  0  0  0
  184.8080  172.7780  137.2300 C   0  0  0  0  0  2  0  0  0  0  0  0
  184.7620  172.5870  134.8100 N   0  0  0  0  0  2  0  0  0  0  0  0
  182.8650  171.9660  136.2670 C   0  0  1  0  0  3  0  0  0  0  0  0
  183.5960  171.7170  134.9370 C   0  0  0  0  0  2  0  0  0  0  0  0
  183.7150  171.9010  137.3980 O   0  0  0  0  0  0  0  0  0  0  0  0
  185.6130  172.4060  135.9830 C   0  0  1  0  0  3  0  0  0  0  0  0
  181.9100  173.1660  136.2810 C   0  0  0  0  0  2  0  0  0  0  0  0
  180.7790  174.4900  138.1180 C   0  0  0  0  0  0  0  0  0  0  0  0
  180.0290  174.4950  139.4020 C   0  0  0  0  0  1  0  0  0  0  0  0
  181.1400  173.2450  137.5160 N   0  0  0  0  0  2  0  0  0  0  0  0
  181.0910  175.5820  137.5730 O   0  0  0  0  0  0  0  0  0  0  0  0
  188.8570  173.4780  134.7420 C   0  0  0  0  0  1  0  0  0  0  0  0
  187.4750  173.2760  134.5940 O   0  0  0  0  0  0  0  0  0  0  0  0
  1 13  1  0  0  0  0
  2  8  2  0  0  0  0
  3 14  1  0  0  0  0
  4  3  2  0  0  0  0
  5 10  2  0  0  0  0
  6 16  1  0  0  0  0
  8 17  1  0  0  0  0
  9  1  2  0  0  0  0
  9  4  1  0  0  0  0
 10  7  1  0  0  0  0
 10 32  1  0  0  0  0
 11  5  1  0  0  0  0
 12  2  1  0  0  0  0
 12  6  2  0  0  0  0
 13  3  1  0  0  0  0
 13  7  2  0  0  0  0
 15  1  1  0  0  0  0
 15  5  1  0  0  0  0
 16 17  1  0  0  0  0
 16 15  2  0  0  0  0
 17 11  2  0  0  0  0
 18 19  2  0  0  0  0
 19  2  1  0  0  0  0
 20 25  1  0  0  0  0
 21 23  1  0  0  0  0
 23 25  2  0  0  0  0
 25 24  1  0  0  0  0
 26 24  1  0  0  0  0
 26 18  1  1  0  0  0
 27 29  1  0  0  0  0
 27 21  2  0  0  0  0
 28 26  1  0  0  0  0
 29 20  2  0  0  0  0
 30 22  1  1  0  0  0
 30 20  1  0  0  0  0
 30 28  1  0  0  0  0
 31 32  2  0  0  0  0
 32 33  1  0  0  0  0
 33 34  1  0  0  0  0
 33 35  1  0  0  0  0
 34 35  1  0  0  0  0
 36  6  1  0  0  0  0
 37 36  1  0  0  0  0
 38 37  1  0  0  0  0
 39 38  1  0  0  0  0
 40 39  1  0  0  0  0
 42 41  2  0  0  0  0
 43 40  1  0  0  0  0
 43 42  1  0  0  0  0
 44 57  1  6  0  0  0
 44 42  1  0  0  0  0
 45 49  1  0  0  0  0
 46 48  1  0  0  0  0
 46 50  1  0  0  0  0
 47 51  1  6  0  0  0
 47 49  1  0  0  0  0
 48 47  1  0  0  0  0
 50 44  1  6  0  0  0
 50 45  1  0  0  0  0
 51 54  1  0  0  0  0
 52 53  1  0  0  0  0
 54 52  1  0  0  0  0
 55 52  2  0  0  0  0
 57 56  1  0  0  0  0
M  END
>  <MODEL>
5

>  <REMARK>
 VINA RESULT:      -8.2      1.443      3.484
  Name = 
  15 active torsions:
  status: ('A' for Active; 'I' for Inactive)
    1  A    between atoms: C_7  and  C_46
    2  A    between atoms: C_11  and  C_24
    3  A    between atoms: N_13  and  C_50
    4  A    between atoms: C_15  and  C_28
    5  A    between atoms: C_15  and  N_47
    6  A    between atoms: C_16  and  N_21
    7  A    between atoms: C_17  and  C_27
    8  A    between atoms: C_17  and  C_28
    9  A    between atoms: C_22  and  N_36
   10  A    between atoms: C_22  and  C_43
   11  A    between atoms: C_24  and  O_34
   12  A    between atoms: C_24  and  C_57
   13  A    between atoms: C_26  and  N_47
   14  A    between atoms: C_27  and  N_38
   15  A    between atoms: C_33  and  C_50
                            x       y       z     vdW  Elec       q    Type
                         _______ _______ _______ _____ _____    ______ ____

>  <TORSDO>
F 15

$$$$
=
 OpenBabel10222417343D

 57 64  0  0  1  0  0  0  0  0999 V2000
  186.3160  178.3220  143.0320 C   0  0  0  0  0  0  0  0  0  0  0  0
  190.1030  177.0750  139.4650 C   0  0  0  0  0  0  0  0  0  0  0  0
  184.6980  178.7720  144.4390 C   0  0  0  0  0  0  0  0  0  0  0  0
  184.1910  179.0310  143.0840 C   0  0  0  0  0  3  0  0  0  0  0  0
  188.4720  177.5140  143.7320 C   0  0  0  0  0  0  0  0  0  0  0  0
  187.9470  177.9020  140.1100 C   0  0  0  0  0  0  0  0  0  0  0  0
  186.7810  178.0050  145.3620 N   0  0  0  0  0  0  0  0  0  0  0  0
  190.4630  176.8680  140.8080 C   0  0  0  0  0  3  0  0  0  0  0  0
  185.1780  178.7540  142.2230 C   0  0  0  0  0  3  0  0  0  0  0  0
  188.0610  177.5880  145.0930 C   0  0  0  0  0  0  0  0  0  0  0  0
  189.6370  177.0750  143.2400 C   0  0  0  0  0  3  0  0  0  0  0  0
  188.8690  177.5850  139.1510 N   0  0  0  0  0  0  0  0  0  0  0  0
  185.9440  178.3610  144.3480 C   0  0  0  0  0  0  0  0  0  0  0  0
  183.9840  178.9280  145.6200 O   0  0  0  0  0  1  0  0  0  0  0  0
  187.5990  177.8930  142.7110 C   0  0  0  0  0  0  0  0  0  0  0  0
  188.2870  177.6850  141.4470 C   0  0  0  0  0  0  0  0  0  0  0  0
  189.5230  177.1860  141.7820 C   0  0  0  0  0  0  0  0  0  0  0  0
  191.5140  175.5500  138.2620 N   0  0  0  0  0  0  0  0  0  0  0  0
  191.0650  176.7520  138.4110 C   0  0  0  0  0  3  0  0  0  0  0  0
  194.9250  174.7960  135.8050 C   0  0  0  0  0  0  0  0  0  0  0  0
  196.0240  172.2130  135.6890 C   0  0  0  0  0  3  0  0  0  0  0  0
  195.2860  177.1570  135.7500 O   0  0  0  0  0  1  0  0  0  0  0  0
  194.9640  172.4830  136.5600 C   0  0  0  0  0  3  0  0  0  0  0  0
  193.2920  174.0170  137.5940 C   0  0  0  0  0  2  0  0  0  0  0  0
  194.3990  173.7610  136.6110 C   0  0  0  0  0  0  0  0  0  0  0  0
  192.4610  175.2390  137.2040 C   0  0  2  0  0  3  0  0  0  0  0  0
  196.5240  173.2240  134.8660 C   0  0  0  0  0  3  0  0  0  0  0  0
  193.3900  176.4240  136.9900 C   0  0  0  0  0  2  0  0  0  0  0  0
  195.9730  174.5080  134.9190 C   0  0  0  0  0  3  0  0  0  0  0  0
  194.2980  176.1720  135.7870 C   0  0  2  0  0  3  0  0  0  0  0  0
  188.3200  176.8330  147.7040 S   0  0  0  0  0  0  0  0  0  0  0  0
  188.9340  177.2280  146.2350 C   0  0  0  0  0  0  0  0  0  0  0  0
  190.3270  177.0300  146.0090 N   0  0  0  0  0  0  0  0  0  0  0  0
  191.5620  176.1910  146.0080 C   0  0  0  0  0  2  0  0  0  0  0  0
  191.6800  177.5020  145.5940 C   0  0  0  0  0  2  0  0  0  0  0  0
  186.6900  178.4710  139.7530 N   0  0  0  0  0  2  0  0  0  0  0  0
  185.8340  177.9080  138.7220 C   0  0  0  0  0  2  0  0  0  0  0  0
  186.3980  178.2410  137.3530 C   0  0  0  0  0  2  0  0  0  0  0  0
  185.9130  177.2210  136.3340 C   0  0  0  0  0  2  0  0  0  0  0  0
  186.2440  175.8100  136.7840 C   0  0  0  0  0  2  0  0  0  0  0  0
  184.4370  174.4930  135.0340 O   0  0  0  0  0  0  0  0  0  0  0  0
  184.1530  174.5060  136.2640 C   0  0  0  0  0  0  0  0  0  0  0  0
  185.0320  175.1220  137.2050 N   0  0  0  0  0  2  0  0  0  0  0  0
  182.9070  173.8220  136.7600 C   0  0  1  0  0  3  0  0  0  0  0  0
  181.2590  174.8690  138.3490 C   0  0  0  0  0  2  0  0  0  0  0  0
  182.0230  176.0830  136.3900 N   0  0  0  0  0  2  0  0  0  0  0  0
  180.3010  176.9370  137.9430 C   0  0  1  0  0  3  0  0  0  0  0  0
  180.8430  176.9350  136.5030 C   0  0  0  0  0  2  0  0  0  0  0  0
  180.0810  175.6390  138.4630 O   0  0  0  0  0  0  0  0  0  0  0  0
  181.6880  174.7500  136.8850 C   0  0  1  0  0  3  0  0  0  0  0  0
  181.0180  177.8810  138.9170 C   0  0  0  0  0  2  0  0  0  0  0  0
  181.8590  180.2550  138.6780 C   0  0  0  0  0  0  0  0  0  0  0  0
  181.5710  181.6780  138.3540 C   0  0  0  0  0  1  0  0  0  0  0  0
  180.8170  179.2840  138.5760 N   0  0  0  0  0  2  0  0  0  0  0  0
  183.0180  179.9200  139.0400 O   0  0  0  0  0  0  0  0  0  0  0  0
  183.0080  171.5290  136.9110 C   0  0  0  0  0  1  0  0  0  0  0  0
  182.6460  172.6060  136.0850 O   0  0  0  0  0  0  0  0  0  0  0  0
  1 13  1  0  0  0  0
  2  8  2  0  0  0  0
  3 14  1  0  0  0  0
  4  3  2  0  0  0  0
  5 10  2  0  0  0  0
  6 16  1  0  0  0  0
  8 17  1  0  0  0  0
  9  1  2  0  0  0  0
  9  4  1  0  0  0  0
 10  7  1  0  0  0  0
 10 32  1  0  0  0  0
 11  5  1  0  0  0  0
 12  2  1  0  0  0  0
 12  6  2  0  0  0  0
 13  3  1  0  0  0  0
 13  7  2  0  0  0  0
 15  1  1  0  0  0  0
 15  5  1  0  0  0  0
 16 17  1  0  0  0  0
 16 15  2  0  0  0  0
 17 11  2  0  0  0  0
 18 19  2  0  0  0  0
 19  2  1  0  0  0  0
 20 25  1  0  0  0  0
 21 23  1  0  0  0  0
 23 25  2  0  0  0  0
 25 24  1  0  0  0  0
 26 24  1  0  0  0  0
 26 18  1  1  0  0  0
 27 29  1  0  0  0  0
 27 21  2  0  0  0  0
 28 26  1  0  0  0  0
 29 20  2  0  0  0  0
 30 22  1  1  0  0  0
 30 20  1  0  0  0  0
 30 28  1  0  0  0  0
 32 31  2  0  0  0  0
 33 32  1  0  0  0  0
 34 33  1  0  0  0  0
 35 34  1  0  0  0  0
 35 33  1  0  0  0  0
 36  6  1  0  0  0  0
 37 36  1  0  0  0  0
 38 37  1  0  0  0  0
 39 40  1  0  0  0  0
 39 38  1  0  0  0  0
 40 43  1  0  0  0  0
 41 42  2  0  0  0  0
 42 44  1  0  0  0  0
 42 43  1  0  0  0  0
 44 57  1  6  0  0  0
 45 49  1  0  0  0  0
 46 48  1  0  0  0  0
 46 50  1  0  0  0  0
 47 49  1  0  0  0  0
 47 51  1  1  0  0  0
 48 47  1  0  0  0  0
 50 44  1  1  0  0  0
 50 45  1  0  0  0  0
 52 55  2  0  0  0  0
 53 52  1  0  0  0  0
 54 52  1  0  0  0  0
 54 51  1  0  0  0  0
 57 56  1  0  0  0  0
M  END
>  <MODEL>
6

>  <REMARK>
 VINA RESULT:      -7.8      1.711      3.744
  Name = 
  15 active torsions:
  status: ('A' for Active; 'I' for Inactive)
    1  A    between atoms: C_7  and  C_46
    2  A    between atoms: C_11  and  C_24
    3  A    between atoms: N_13  and  C_50
    4  A    between atoms: C_15  and  C_28
    5  A    between atoms: C_15  and  N_47
    6  A    between atoms: C_16  and  N_21
    7  A    between atoms: C_17  and  C_27
    8  A    between atoms: C_17  and  C_28
    9  A    between atoms: C_22  and  N_36
   10  A    between atoms: C_22  and  C_43
   11  A    between atoms: C_24  and  O_34
   12  A    between atoms: C_24  and  C_57
   13  A    between atoms: C_26  and  N_47
   14  A    between atoms: C_27  and  N_38
   15  A    between atoms: C_33  and  C_50
                            x       y       z     vdW  Elec       q    Type
                         _______ _______ _______ _____ _____    ______ ____

>  <TORSDO>
F 15

$$$$
=
 OpenBabel10222417343D

 57 64  0  0  1  0  0  0  0  0999 V2000
  186.8270  178.1570  143.5880 C   0  0  0  0  0  0  0  0  0  0  0  0
  190.9630  177.0270  140.3880 C   0  0  0  0  0  0  0  0  0  0  0  0
  185.0770  178.5480  144.8460 C   0  0  0  0  0  0  0  0  0  0  0  0
  184.6430  178.6370  143.4450 C   0  0  0  0  0  3  0  0  0  0  0  0
  188.9980  177.6450  144.4890 C   0  0  0  0  0  0  0  0  0  0  0  0
  188.6950  177.6710  140.8220 C   0  0  0  0  0  0  0  0  0  0  0  0
  187.1560  178.0870  145.9610 N   0  0  0  0  0  0  0  0  0  0  0  0
  191.2460  176.9730  141.7630 C   0  0  0  0  0  3  0  0  0  0  0  0
  185.7120  178.3970  142.6740 C   0  0  0  0  0  3  0  0  0  0  0  0
  188.4870  177.7870  145.8100 C   0  0  0  0  0  0  0  0  0  0  0  0
  190.2330  177.2920  144.1110 C   0  0  0  0  0  3  0  0  0  0  0  0
  189.7090  177.3750  139.9540 N   0  0  0  0  0  0  0  0  0  0  0  0
  186.3610  178.2660  144.8690 C   0  0  0  0  0  0  0  0  0  0  0  0
  184.2690  178.7250  145.9620 O   0  0  0  0  0  1  0  0  0  0  0  0
  188.1660  177.8410  143.3870 C   0  0  0  0  0  0  0  0  0  0  0  0
  188.9600  177.6040  142.1910 C   0  0  0  0  0  0  0  0  0  0  0  0
  190.2120  177.2680  142.6450 C   0  0  0  0  0  0  0  0  0  0  0  0
  191.9120  175.7370  138.6000 N   0  0  0  0  0  0  0  0  0  0  0  0
  192.0240  176.7220  139.4280 C   0  0  0  0  0  3  0  0  0  0  0  0
  195.5320  175.3950  136.3590 C   0  0  0  0  0  0  0  0  0  0  0  0
  197.3320  173.3110  136.9160 C   0  0  0  0  0  3  0  0  0  0  0  0
  195.2000  177.6570  135.6630 O   0  0  0  0  0  1  0  0  0  0  0  0
  196.1910  173.4790  137.7070 C   0  0  0  0  0  3  0  0  0  0  0  0
  194.0910  174.6720  138.3270 C   0  0  0  0  0  2  0  0  0  0  0  0
  195.2800  174.5010  137.4250 C   0  0  0  0  0  0  0  0  0  0  0  0
  192.9680  175.4500  137.6430 C   0  0  2  0  0  3  0  0  0  0  0  0
  197.5670  174.1710  135.8410 C   0  0  0  0  0  3  0  0  0  0  0  0
  193.5270  176.7540  137.0970 C   0  0  0  0  0  2  0  0  0  0  0  0
  196.6680  175.2030  135.5600 C   0  0  0  0  0  3  0  0  0  0  0  0
  194.5380  176.4720  135.9860 C   0  0  2  0  0  3  0  0  0  0  0  0
  188.8600  178.2590  148.4730 S   0  0  0  0  0  0  0  0  0  0  0  0
  189.3090  177.6180  147.0310 C   0  0  0  0  0  0  0  0  0  0  0  0
  190.4150  176.7200  147.0060 N   0  0  0  0  0  0  0  0  0  0  0  0
  191.0340  175.3770  147.2100 C   0  0  0  0  0  2  0  0  0  0  0  0
  191.8500  176.3950  146.7590 C   0  0  0  0  0  2  0  0  0  0  0  0
  187.4150  178.0720  140.3380 N   0  0  0  0  0  2  0  0  0  0  0  0
  187.1310  178.2640  138.9250 C   0  0  0  0  0  2  0  0  0  0  0  0
  185.6360  178.1580  138.6860 C   0  0  0  0  0  2  0  0  0  0  0  0
  185.3630  177.9920  137.1990 C   0  0  0  0  0  2  0  0  0  0  0  0
  184.1660  177.0890  136.9680 C   0  0  0  0  0  2  0  0  0  0  0  0
  181.9310  178.4800  135.9050 O   0  0  0  0  0  0  0  0  0  0  0  0
  181.9520  178.2770  137.1510 C   0  0  0  0  0  0  0  0  0  0  0  0
  183.0300  177.5560  137.7480 N   0  0  0  0  0  2  0  0  0  0  0  0
  180.8120  178.7460  138.0140 C   0  0  1  0  0  3  0  0  0  0  0  0
  179.8110  176.4800  137.5610 C   0  0  0  0  0  2  0  0  0  0  0  0
  180.5660  177.0700  139.7920 N   0  0  0  0  0  2  0  0  0  0  0  0
  179.4360  174.9410  139.2480 C   0  0  1  0  0  3  0  0  0  0  0  0
  179.7160  176.0080  140.3210 C   0  0  0  0  0  2  0  0  0  0  0  0
  178.9380  175.4780  138.0360 O   0  0  0  0  0  0  0  0  0  0  0  0
  179.9470  177.6100  138.5840 C   0  0  1  0  0  3  0  0  0  0  0  0
  180.5390  173.8940  139.0540 C   0  0  0  0  0  2  0  0  0  0  0  0
  180.8900  172.6460  136.8810 C   0  0  0  0  0  0  0  0  0  0  0  0
  181.4230  172.6380  135.4920 C   0  0  0  0  0  1  0  0  0  0  0  0
  181.0020  173.8290  137.6730 N   0  0  0  0  0  2  0  0  0  0  0  0
  180.3460  171.6090  137.3460 O   0  0  0  0  0  0  0  0  0  0  0  0
  180.0730  180.3460  139.4910 C   0  0  0  0  0  1  0  0  0  0  0  0
  181.2120  179.7090  138.9710 O   0  0  0  0  0  0  0  0  0  0  0  0
  1 13  1  0  0  0  0
  2  8  2  0  0  0  0
  3 13  1  0  0  0  0
  3 14  1  0  0  0  0
  4  3  2  0  0  0  0
  5 10  2  0  0  0  0
  6 16  1  0  0  0  0
  8 17  1  0  0  0  0
  9  4  1  0  0  0  0
  9  1  2  0  0  0  0
 10  7  1  0  0  0  0
 10 32  1  0  0  0  0
 11  5  1  0  0  0  0
 12  2  1  0  0  0  0
 12  6  2  0  0  0  0
 13  7  2  0  0  0  0
 15  1  1  0  0  0  0
 15  5  1  0  0  0  0
 16 17  1  0  0  0  0
 16 15  2  0  0  0  0
 17 11  2  0  0  0  0
 18 19  2  0  0  0  0
 19  2  1  0  0  0  0
 20 25  1  0  0  0  0
 21 23  1  0  0  0  0
 25 23  2  0  0  0  0
 25 24  1  0  0  0  0
 26 24  1  0  0  0  0
 26 18  1  1  0  0  0
 27 21  2  0  0  0  0
 28 26  1  0  0  0  0
 29 27  1  0  0  0  0
 29 20  2  0  0  0  0
 30 22  1  1  0  0  0
 30 20  1  0  0  0  0
 30 28  1  0  0  0  0
 32 31  2  0  0  0  0
 33 32  1  0  0  0  0
 33 34  1  0  0  0  0
 35 33  1  0  0  0  0
 35 34  1  0  0  0  0
 36  6  1  0  0  0  0
 37 36  1  0  0  0  0
 38 37  1  0  0  0  0
 39 38  1  0  0  0  0
 40 39  1  0  0  0  0
 40 43  1  0  0  0  0
 41 42  2  0  0  0  0
 42 43  1  0  0  0  0
 44 42  1  1  0  0  0
 44 57  1  0  0  0  0
 45 49  1  0  0  0  0
 45 50  1  0  0  0  0
 46 48  1  0  0  0  0
 47 51  1  6  0  0  0
 47 48  1  0  0  0  0
 49 47  1  0  0  0  0
 50 44  1  6  0  0  0
 50 46  1  0  0  0  0
 52 55  2  0  0  0  0
 52 54  1  0  0  0  0
 53 52  1  0  0  0  0
 54 51  1  0  0  0  0
 57 56  1  0  0  0  0
M  END
>  <MODEL>
7

>  <REMARK>
 VINA RESULT:      -7.0      2.237      3.826
  Name = 
  15 active torsions:
  status: ('A' for Active; 'I' for Inactive)
    1  A    between atoms: C_7  and  C_46
    2  A    between atoms: C_11  and  C_24
    3  A    between atoms: N_13  and  C_50
    4  A    between atoms: C_15  and  C_28
    5  A    between atoms: C_15  and  N_47
    6  A    between atoms: C_16  and  N_21
    7  A    between atoms: C_17  and  C_27
    8  A    between atoms: C_17  and  C_28
    9  A    between atoms: C_22  and  N_36
   10  A    between atoms: C_22  and  C_43
   11  A    between atoms: C_24  and  O_34
   12  A    between atoms: C_24  and  C_57
   13  A    between atoms: C_26  and  N_47
   14  A    between atoms: C_27  and  N_38
   15  A    between atoms: C_33  and  C_50
                            x       y       z     vdW  Elec       q    Type
                         _______ _______ _______ _____ _____    ______ ____

>  <TORSDO>
F 15

$$$$
=
 OpenBabel10222417343D

 57 64  0  0  1  0  0  0  0  0999 V2000
  186.3380  178.3270  143.3070 C   0  0  0  0  0  0  0  0  0  0  0  0
  190.1960  177.0930  139.8130 C   0  0  0  0  0  0  0  0  0  0  0  0
  184.6940  178.7680  144.6860 C   0  0  0  0  0  0  0  0  0  0  0  0
  184.1950  178.9780  143.3190 C   0  0  0  0  0  3  0  0  0  0  0  0
  188.5070  177.5950  144.0500 C   0  0  0  0  0  0  0  0  0  0  0  0
  188.0120  177.8770  140.4140 C   0  0  0  0  0  0  0  0  0  0  0  0
  186.7860  178.0810  145.6490 N   0  0  0  0  0  0  0  0  0  0  0  0
  190.5470  176.9300  141.1630 C   0  0  0  0  0  3  0  0  0  0  0  0
  185.1980  178.7070  142.4750 C   0  0  0  0  0  3  0  0  0  0  0  0
  188.0790  177.6910  145.4040 C   0  0  0  0  0  0  0  0  0  0  0  0
  189.6880  177.1750  143.5800 C   0  0  0  0  0  3  0  0  0  0  0  0
  188.9520  177.5610  139.4730 N   0  0  0  0  0  0  0  0  0  0  0  0
  185.9510  178.3880  144.6180 C   0  0  0  0  0  0  0  0  0  0  0  0
  183.9630  178.9330  145.8550 O   0  0  0  0  0  1  0  0  0  0  0  0
  187.6360  177.9240  143.0110 C   0  0  0  0  0  0  0  0  0  0  0  0
  188.3430  177.7030  141.7590 C   0  0  0  0  0  0  0  0  0  0  0  0
  189.5880  177.2460  142.1190 C   0  0  0  0  0  0  0  0  0  0  0  0
  191.4690  175.5440  138.4920 N   0  0  0  0  0  0  0  0  0  0  0  0
  191.1780  176.7710  138.7760 C   0  0  0  0  0  3  0  0  0  0  0  0
  194.9290  174.8920  136.0750 C   0  0  0  0  0  0  0  0  0  0  0  0
  196.2310  172.4030  136.1360 C   0  0  0  0  0  3  0  0  0  0  0  0
  195.1010  177.2650  135.8500 O   0  0  0  0  0  1  0  0  0  0  0  0
  195.1530  172.6490  136.9920 C   0  0  0  0  0  3  0  0  0  0  0  0
  193.3640  174.1140  137.9230 C   0  0  0  0  0  2  0  0  0  0  0  0
  194.4880  173.8780  136.9550 C   0  0  0  0  0  0  0  0  0  0  0  0
  192.4380  175.2360  137.4540 C   0  0  2  0  0  3  0  0  0  0  0  0
  196.6490  173.3900  135.2400 C   0  0  0  0  0  3  0  0  0  0  0  0
  193.2690  176.4720  137.1500 C   0  0  0  0  0  2  0  0  0  0  0  0
  195.9970  174.6260  135.2060 C   0  0  0  0  0  3  0  0  0  0  0  0
  194.1950  176.2090  135.9630 C   0  0  2  0  0  3  0  0  0  0  0  0
  188.3580  177.2980  148.0910 S   0  0  0  0  0  0  0  0  0  0  0  0
  188.9490  177.3830  146.5640 C   0  0  0  0  0  0  0  0  0  0  0  0
  190.2900  176.9610  146.3340 N   0  0  0  0  0  0  0  0  0  0  0  0
  191.4250  176.0070  146.5040 C   0  0  0  0  0  2  0  0  0  0  0  0
  191.6470  177.1330  145.7380 C   0  0  0  0  0  2  0  0  0  0  0  0
  186.7440  178.4040  140.0300 N   0  0  0  0  0  2  0  0  0  0  0  0
  185.9890  177.8930  138.8970 C   0  0  0  0  0  2  0  0  0  0  0  0
  185.0830  178.9830  138.3540 C   0  0  0  0  0  2  0  0  0  0  0  0
  183.9950  179.3000  139.3680 C   0  0  0  0  0  2  0  0  0  0  0  0
  182.8300  178.3370  139.2280 C   0  0  0  0  0  2  0  0  0  0  0  0
  181.0280  180.1500  137.9910 O   0  0  0  0  0  0  0  0  0  0  0  0
  181.4700  179.1970  137.2900 C   0  0  0  0  0  0  0  0  0  0  0  0
  182.4050  178.2670  137.8380 N   0  0  0  0  0  2  0  0  0  0  0  0
  181.0580  179.0630  135.8490 C   0  0  1  0  0  3  0  0  0  0  0  0
  182.6330  177.1850  135.2730 C   0  0  0  0  0  2  0  0  0  0  0  0
  180.4130  176.7110  136.1350 N   0  0  0  0  0  2  0  0  0  0  0  0
  181.9960  174.9630  135.3950 C   0  0  1  0  0  3  0  0  0  0  0  0
  180.5230  175.3680  135.5740 C   0  0  0  0  0  2  0  0  0  0  0  0
  182.7570  175.9140  134.6720 O   0  0  0  0  0  0  0  0  0  0  0  0
  181.1700  177.6340  135.2930 C   0  0  1  0  0  3  0  0  0  0  0  0
  182.6950  174.4410  136.6560 C   0  0  0  0  0  2  0  0  0  0  0  0
  182.7250  171.9110  136.6780 C   0  0  0  0  0  0  0  0  0  0  0  0
  183.4800  170.6470  136.4650 C   0  0  0  0  0  1  0  0  0  0  0  0
  183.3620  173.1650  136.4290 N   0  0  0  0  0  2  0  0  0  0  0  0
  181.5310  171.8640  137.0760 O   0  0  0  0  0  0  0  0  0  0  0  0
  180.0510  181.0650  135.3320 C   0  0  0  0  0  1  0  0  0  0  0  0
  179.8250  179.7000  135.5720 O   0  0  0  0  0  0  0  0  0  0  0  0
  1 13  1  0  0  0  0
  2  8  2  0  0  0  0
  3 14  1  0  0  0  0
  4  3  2  0  0  0  0
  5 10  2  0  0  0  0
  6 16  1  0  0  0  0
  8 17  1  0  0  0  0
  9  1  2  0  0  0  0
  9  4  1  0  0  0  0
 10  7  1  0  0  0  0
 10 32  1  0  0  0  0
 11  5  1  0  0  0  0
 12  2  1  0  0  0  0
 12  6  2  0  0  0  0
 13  3  1  0  0  0  0
 13  7  2  0  0  0  0
 15  1  1  0  0  0  0
 15  5  1  0  0  0  0
 16 17  1  0  0  0  0
 16 15  2  0  0  0  0
 17 11  2  0  0  0  0
 18 19  2  0  0  0  0
 19  2  1  0  0  0  0
 20 25  1  0  0  0  0
 21 23  1  0  0  0  0
 25 23  2  0  0  0  0
 25 24  1  0  0  0  0
 26 24  1  0  0  0  0
 26 18  1  1  0  0  0
 27 21  2  0  0  0  0
 28 26  1  0  0  0  0
 29 27  1  0  0  0  0
 29 20  2  0  0  0  0
 30 22  1  1  0  0  0
 30 20  1  0  0  0  0
 30 28  1  0  0  0  0
 32 31  2  0  0  0  0
 33 34  1  0  0  0  0
 33 32  1  0  0  0  0
 35 33  1  0  0  0  0
 35 34  1  0  0  0  0
 36  6  1  0  0  0  0
 37 36  1  0  0  0  0
 38 37  1  0  0  0  0
 38 39  1  0  0  0  0
 40 39  1  0  0  0  0
 42 43  1  0  0  0  0
 42 41  2  0  0  0  0
 43 40  1  0  0  0  0
 44 57  1  1  0  0  0
 44 42  1  0  0  0  0
 45 50  1  0  0  0  0
 47 48  1  0  0  0  0
 47 51  1  1  0  0  0
 48 46  1  0  0  0  0
 49 45  1  0  0  0  0
 49 47  1  0  0  0  0
 50 44  1  1  0  0  0
 50 46  1  0  0  0  0
 52 55  2  0  0  0  0
 53 52  1  0  0  0  0
 54 51  1  0  0  0  0
 54 52  1  0  0  0  0
 56 57  1  0  0  0  0
M  END
>  <MODEL>
8

>  <REMARK>
 VINA RESULT:      -6.9      2.078      3.283
  Name = 
  15 active torsions:
  status: ('A' for Active; 'I' for Inactive)
    1  A    between atoms: C_7  and  C_46
    2  A    between atoms: C_11  and  C_24
    3  A    between atoms: N_13  and  C_50
    4  A    between atoms: C_15  and  C_28
    5  A    between atoms: C_15  and  N_47
    6  A    between atoms: C_16  and  N_21
    7  A    between atoms: C_17  and  C_27
    8  A    between atoms: C_17  and  C_28
    9  A    between atoms: C_22  and  N_36
   10  A    between atoms: C_22  and  C_43
   11  A    between atoms: C_24  and  O_34
   12  A    between atoms: C_24  and  C_57
   13  A    between atoms: C_26  and  N_47
   14  A    between atoms: C_27  and  N_38
   15  A    between atoms: C_33  and  C_50
                            x       y       z     vdW  Elec       q    Type
                         _______ _______ _______ _____ _____    ______ ____

>  <TORSDO>
F 15

$$$$
=
 OpenBabel10222417343D

 57 64  0  0  1  0  0  0  0  0999 V2000
  182.6290  175.7990  136.4770 C   0  0  0  0  0  0  0  0  0  0  0  0
  187.8860  174.9860  137.0480 C   0  0  0  0  0  0  0  0  0  0  0  0
  180.4980  176.2000  136.1660 C   0  0  0  0  0  0  0  0  0  0  0  0
  181.1750  177.4950  136.3190 C   0  0  0  0  0  3  0  0  0  0  0  0
  183.5530  173.5770  136.4960 C   0  0  0  0  0  0  0  0  0  0  0  0
  185.9230  176.3580  136.9400 C   0  0  0  0  0  0  0  0  0  0  0  0
  181.1970  173.9000  136.1770 N   0  0  0  0  0  0  0  0  0  0  0  0
  187.1200  173.8180  136.8880 C   0  0  0  0  0  3  0  0  0  0  0  0
  182.4780  177.2520  136.5070 C   0  0  0  0  0  3  0  0  0  0  0  0
  182.2530  173.0310  136.2990 C   0  0  0  0  0  0  0  0  0  0  0  0
  184.7220  172.9290  136.5720 C   0  0  0  0  0  3  0  0  0  0  0  0
  187.2760  176.2140  137.0740 N   0  0  0  0  0  0  0  0  0  0  0  0
  181.3960  175.2450  136.2680 C   0  0  0  0  0  0  0  0  0  0  0  0
  179.1400  176.0100  135.9450 O   0  0  0  0  0  1  0  0  0  0  0  0
  183.7300  174.9570  136.5940 C   0  0  0  0  0  0  0  0  0  0  0  0
  185.1530  175.2060  136.7640 C   0  0  0  0  0  0  0  0  0  0  0  0
  185.7450  173.9660  136.7460 C   0  0  0  0  0  0  0  0  0  0  0  0
  190.1410  175.4290  136.3550 N   0  0  0  0  0  0  0  0  0  0  0  0
  189.3370  174.8730  137.1990 C   0  0  0  0  0  3  0  0  0  0  0  0
  194.1510  174.7600  137.6650 C   0  0  0  0  0  0  0  0  0  0  0  0
  195.3810  172.2780  137.1990 C   0  0  0  0  0  3  0  0  0  0  0  0
  193.9000  176.6640  139.0880 O   0  0  0  0  0  1  0  0  0  0  0  0
  194.0400  172.4690  136.8520 C   0  0  0  0  0  3  0  0  0  0  0  0
  191.9710  173.8540  136.7170 C   0  0  0  0  0  2  0  0  0  0  0  0
  193.4250  173.7070  137.0630 C   0  0  0  0  0  0  0  0  0  0  0  0
  191.5810  175.3190  136.5210 C   0  0  2  0  0  3  0  0  0  0  0  0
  196.1110  173.3260  137.7630 C   0  0  0  0  0  3  0  0  0  0  0  0
  192.0140  176.1160  137.7420 C   0  0  0  0  0  2  0  0  0  0  0  0
  195.5010  174.5630  137.9890 C   0  0  0  0  0  3  0  0  0  0  0  0
  193.5380  176.1310  137.8510 C   0  0  2  0  0  3  0  0  0  0  0  0
  183.1470  170.4570  136.4670 S   0  0  0  0  0  0  0  0  0  0  0  0
  181.9780  171.5780  136.2090 C   0  0  0  0  0  0  0  0  0  0  0  0
  180.6300  171.1330  136.0860 N   0  0  0  0  0  0  0  0  0  0  0  0
  179.2140  171.0550  136.5530 C   0  0  0  0  0  2  0  0  0  0  0  0
  179.5420  170.3830  135.3940 C   0  0  0  0  0  2  0  0  0  0  0  0
  185.3150  177.6450  137.0160 N   0  0  0  0  0  2  0  0  0  0  0  0
  185.6790  178.6310  138.0210 C   0  0  0  0  0  2  0  0  0  0  0  0
  185.1200  178.2150  139.3700 C   0  0  0  0  0  2  0  0  0  0  0  0
  183.8000  178.9270  139.6210 C   0  0  0  0  0  2  0  0  0  0  0  0
  183.2600  178.5920  140.9990 C   0  0  0  0  0  2  0  0  0  0  0  0
  183.6820  179.4210  143.6820 O   0  0  0  0  0  0  0  0  0  0  0  0
  184.5060  178.6020  143.1880 C   0  0  0  0  0  0  0  0  0  0  0  0
  184.3370  178.1180  141.8560 N   0  0  0  0  0  2  0  0  0  0  0  0
  185.6480  178.0830  144.0200 C   0  0  1  0  0  3  0  0  0  0  0  0
  187.7130  178.6250  142.6840 C   0  0  0  0  0  2  0  0  0  0  0  0
  187.6110  176.6080  144.0320 N   0  0  0  0  0  2  0  0  0  0  0  0
  189.5160  177.1780  142.5640 C   0  0  1  0  0  3  0  0  0  0  0  0
  188.6940  176.0560  143.2220 C   0  0  0  0  0  2  0  0  0  0  0  0
  188.7250  178.1090  141.8470 O   0  0  0  0  0  0  0  0  0  0  0  0
  186.8100  177.5010  143.1980 C   0  0  1  0  0  3  0  0  0  0  0  0
  190.5800  177.8290  143.4570 C   0  0  0  0  0  2  0  0  0  0  0  0
  191.2280  176.7490  145.6510 C   0  0  0  0  0  0  0  0  0  0  0  0
  192.0540  175.7500  146.3800 C   0  0  0  0  0  1  0  0  0  0  0  0
  191.3290  176.8460  144.2300 N   0  0  0  0  0  2  0  0  0  0  0  0
  190.4480  177.5010  146.2940 O   0  0  0  0  0  0  0  0  0  0  0  0
  185.6410  178.5050  146.2800 C   0  0  0  0  0  1  0  0  0  0  0  0
  186.0480  178.9930  145.0280 O   0  0  0  0  0  0  0  0  0  0  0  0
  1  9  1  0  0  0  0
  1 15  2  0  0  0  0
  2 12  1  0  0  0  0
  2 19  1  0  0  0  0
  3 13  2  0  0  0  0
  3  4  1  0  0  0  0
  4  9  2  0  0  0  0
  5 11  2  0  0  0  0
  5 15  1  0  0  0  0
  6 36  1  0  0  0  0
  6 12  2  0  0  0  0
  7 13  1  0  0  0  0
  7 10  2  0  0  0  0
  8  2  2  0  0  0  0
 10  5  1  0  0  0  0
 11 17  1  0  0  0  0
 13  1  1  0  0  0  0
 14  3  1  0  0  0  0
 15 16  1  0  0  0  0
 16  6  1  0  0  0  0
 17 16  2  0  0  0  0
 17  8  1  0  0  0  0
 18 19  2  0  0  0  0
 20 30  1  0  0  0  0
 20 29  1  0  0  0  0
 21 27  1  0  0  0  0
 23 25  1  0  0  0  0
 23 21  2  0  0  0  0
 24 25  1  0  0  0  0
 25 20  2  0  0  0  0
 26 18  1  1  0  0  0
 26 24  1  0  0  0  0
 26 28  1  0  0  0  0
 27 29  2  0  0  0  0
 28 30  1  0  0  0  0
 30 22  1  1  0  0  0
 32 10  1  0  0  0  0
 32 31  2  0  0  0  0
 33 32  1  0  0  0  0
 33 34  1  0  0  0  0
 35 33  1  0  0  0  0
 35 34  1  0  0  0  0
 36 37  1  0  0  0  0
 37 38  1  0  0  0  0
 38 39  1  0  0  0  0
 39 40  1  0  0  0  0
 40 43  1  0  0  0  0
 42 41  2  0  0  0  0
 43 42  1  0  0  0  0
 44 42  1  6  0  0  0
 44 57  1  0  0  0  0
 45 50  1  0  0  0  0
 47 48  1  0  0  0  0
 47 51  1  1  0  0  0
 48 46  1  0  0  0  0
 49 47  1  0  0  0  0
 49 45  1  0  0  0  0
 50 44  1  1  0  0  0
 50 46  1  0  0  0  0
 51 54  1  0  0  0  0
 52 55  2  0  0  0  0
 52 53  1  0  0  0  0
 54 52  1  0  0  0  0
 57 56  1  0  0  0  0
M  END
>  <MODEL>
9

>  <REMARK>
 VINA RESULT:      -6.9      3.016      8.082
  Name = 
  15 active torsions:
  status: ('A' for Active; 'I' for Inactive)
    1  A    between atoms: C_7  and  C_46
    2  A    between atoms: C_11  and  C_24
    3  A    between atoms: N_13  and  C_50
    4  A    between atoms: C_15  and  C_28
    5  A    between atoms: C_15  and  N_47
    6  A    between atoms: C_16  and  N_21
    7  A    between atoms: C_17  and  C_27
    8  A    between atoms: C_17  and  C_28
    9  A    between atoms: C_22  and  N_36
   10  A    between atoms: C_22  and  C_43
   11  A    between atoms: C_24  and  O_34
   12  A    between atoms: C_24  and  C_57
   13  A    between atoms: C_26  and  N_47
   14  A    between atoms: C_27  and  N_38
   15  A    between atoms: C_33  and  C_50
                            x       y       z     vdW  Elec       q    Type
                         _______ _______ _______ _____ _____    ______ ____

>  <TORSDO>
F 15

$$$$
