=
 OpenBabel10222417383D

 49 52  0  0  1  0  0  0  0  0999 V2000
  188.0020  178.4960  139.6530 C   0  0  2  0  0  3  0  0  0  0  0  0
  188.8110  177.5500  140.5280 C   0  0  0  0  0  2  0  0  0  0  0  0
  187.1960  178.6810  141.9170 C   0  0  2  0  0  3  0  0  0  0  0  0
  186.7390  178.8360  140.4590 C   0  0  2  0  0  3  0  0  0  0  0  0
  188.3550  177.8020  141.8790 N   0  0  0  0  0  0  0  0  0  0  0  0
  190.9110  176.3480  144.2100 C   0  0  0  0  0  0  0  0  0  0  0  0
  189.9180  175.4280  142.1560 N   0  0  0  0  0  1  0  0  0  0  0  0
  189.3370  178.6550  143.9420 C   0  0  0  0  0  3  0  0  0  0  0  0
  191.0210  177.3900  145.1510 C   0  0  0  0  0  0  0  0  0  0  0  0
  189.2310  177.6310  142.9970 C   0  0  0  0  0  0  0  0  0  0  0  0
  190.2250  178.5360  145.0100 C   0  0  0  0  0  3  0  0  0  0  0  0
  190.0200  176.4720  143.1270 C   0  0  0  0  0  0  0  0  0  0  0  0
  191.7220  175.1580  144.3530 C   0  0  0  0  0  0  0  0  0  0  0  0
  192.3700  174.2030  144.4640 N   0  0  0  0  0  0  0  0  0  0  0  0
  191.9380  177.2740  146.2460 N   0  0  0  0  0  2  0  0  0  0  0  0
  191.5530  176.8510  147.5880 C   0  0  0  0  0  2  0  0  0  0  0  0
  193.3480  175.3950  147.1000 F   0  0  0  0  0  0  0  0  0  0  0  0
  191.4850  174.5060  148.0020 F   0  0  0  0  0  0  0  0  0  0  0  0
  192.3220  175.6060  147.9990 C   0  0  0  0  0  0  0  0  0  0  0  0
  192.8540  175.7750  149.2620 F   0  0  0  0  0  0  0  0  0  0  0  0
  186.6400  177.7000  144.2120 C   0  0  0  0  0  2  0  0  0  0  0  0
  184.7500  179.1340  144.6780 C   0  0  2  0  0  3  0  0  0  0  0  0
  185.1230  179.3050  143.2120 C   0  0  0  0  0  2  0  0  0  0  0  0
  185.5170  177.9330  145.1950 C   0  0  0  0  0  2  0  0  0  0  0  0
  186.1010  178.1950  142.8830 C   0  0  1  0  0  3  0  0  0  0  0  0
  182.5840  179.0160  143.8220 N   0  0  0  0  0  0  0  0  0  0  0  0
  183.3380  178.8880  144.8040 N   0  0  0  0  0  0  0  0  0  0  0  0
  181.1690  178.7660  143.9430 C   0  0  0  0  0  2  0  0  0  0  0  0
  180.5070  179.8380  141.7720 C   0  0  0  0  0  3  0  0  0  0  0  0
  179.9150  177.5320  142.1730 C   0  0  0  0  0  3  0  0  0  0  0  0
  180.5250  178.7110  142.5980 C   0  0  0  0  0  0  0  0  0  0  0  0
  179.8760  179.7730  140.5210 C   0  0  0  0  0  0  0  0  0  0  0  0
  179.2980  177.4960  140.9240 C   0  0  0  0  0  3  0  0  0  0  0  0
  179.2900  178.6030  140.1340 N   0  0  0  0  0  0  0  0  0  0  0  0
  179.8390  180.9200  139.6530 N   0  0  0  0  0  0  0  0  0  0  0  0
  178.9740  182.0550  139.9710 C   0  0  0  0  0  1  0  0  0  0  0  0
  181.8230  181.5760  138.4250 C   0  0  0  0  0  2  0  0  0  0  0  0
  180.6570  180.9370  138.4740 C   0  0  0  0  0  3  0  0  0  0  0  0
  187.7340  177.9270  138.2470 C   0  0  2  0  0  3  0  0  0  0  0  0
  188.5320  176.6570  137.9490 C   0  0  0  0  0  1  0  0  0  0  0  0
  187.8550  178.8920  137.2180 O   0  0  0  0  0  0  0  0  0  0  0  0
  187.0390  178.5200  136.1360 C   0  0  0  0  0  2  0  0  0  0  0  0
  185.9140  177.8440  136.6130 O   0  0  0  0  0  1  0  0  0  0  0  0
  185.7040  177.9390  140.1490 O   0  0  0  0  0  0  0  0  0  0  0  0
  184.8140  179.7860  139.1350 O   0  0  0  0  0  1  0  0  0  0  0  0
  184.5560  178.7290  140.0110 C   0  0  1  0  0  3  0  0  0  0  0  0
  183.4320  177.9010  139.4850 C   0  0  0  0  0  0  0  0  0  0  0  0
  183.0240  178.0510  138.1650 O   0  0  0  0  0  0  0  0  0  0  0  0
  182.8370  177.0820  140.2320 O   0  0  0  0  0  1  0  0  0  0  0  0
  1 39  1  6  0  0  0
  1  4  1  0  0  0  0
  1  2  1  0  0  0  0
  2  5  1  0  0  0  0
  3  5  1  6  0  0  0
  3 25  1  0  0  0  0
  4 44  1  6  0  0  0
  4  3  1  0  0  0  0
  5 10  1  0  0  0  0
  6 13  1  0  0  0  0
  6  9  1  0  0  0  0
  7 12  1  0  0  0  0
  8 11  1  0  0  0  0
  9 15  1  0  0  0  0
 10 12  1  0  0  0  0
 10  8  2  0  0  0  0
 11  9  2  0  0  0  0
 12  6  2  0  0  0  0
 13 14  3  0  0  0  0
 15 16  1  0  0  0  0
 16 19  1  0  0  0  0
 17 19  1  0  0  0  0
 19 18  1  0  0  0  0
 19 20  1  0  0  0  0
 21 24  1  0  0  0  0
 22 27  1  6  0  0  0
 22 24  1  0  0  0  0
 23 22  1  0  0  0  0
 25 23  1  1  0  0  0
 25 21  1  0  0  0  0
 26 28  1  0  0  0  0
 26 27  2  0  0  0  0
 29 31  1  0  0  0  0
 30 31  2  0  0  0  0
 31 28  1  0  0  0  0
 32 29  2  0  0  0  0
 33 30  1  0  0  0  0
 34 32  1  0  0  0  0
 34 33  2  0  0  0  0
 35 36  1  0  0  0  0
 35 32  1  0  0  0  0
 37 38  2  0  0  0  0
 38 35  1  0  0  0  0
 39 40  1  6  0  0  0
 41 39  1  0  0  0  0
 42 43  1  0  0  0  0
 42 41  1  0  0  0  0
 46 45  1  6  0  0  0
 46 44  1  0  0  0  0
 47 46  1  0  0  0  0
 47 49  1  0  0  0  0
 48 47  2  0  0  0  0
M  END
>  <MODEL>
1

>  <REMARK>
 VINA RESULT:      -7.1      0.000      0.000
  Name = 
  17 active torsions:
  status: ('A' for Active; 'I' for Inactive)
    1  A    between atoms: C_2  and  N_48
    2  A    between atoms: C_5  and  O_6
    3  A    between atoms: C_5  and  C_7
    4  A    between atoms: O_6  and  C_25
    5  A    between atoms: N_9  and  C_13
    6  A    between atoms: N_9  and  C_31
    7  A    between atoms: C_12  and  C_20
    8  A    between atoms: C_14  and  C_45
    9  A    between atoms: C_15  and  O_32
   10  A    between atoms: N_21  and  C_46
   11  A    between atoms: N_23  and  C_40
   12  A    between atoms: C_24  and  C_44
   13  A    between atoms: C_27  and  C_49
   14  A    between atoms: C_29  and  C_46
   15  A    between atoms: O_32  and  C_44
   16  A    between atoms: C_38  and  N_42
   17  A    between atoms: N_42  and  C_49
                            x       y       z     vdW  Elec       q    Type
                         _______ _______ _______ _____ _____    ______ ____

>  <TORSDO>
F 17

$$$$
=
 OpenBabel10222417383D

 49 52  0  0  1  0  0  0  0  0999 V2000
  181.2190  179.4900  136.4500 C   0  0  2  0  0  3  0  0  0  0  0  0
  181.7940  178.0810  136.4610 C   0  0  0  0  0  2  0  0  0  0  0  0
  182.7800  179.3240  138.2780 C   0  0  2  0  0  3  0  0  0  0  0  0
  181.5150  180.0760  137.8380 C   0  0  2  0  0  3  0  0  0  0  0  0
  182.8010  178.0930  137.5020 N   0  0  0  0  0  0  0  0  0  0  0  0
  184.9790  175.0400  137.3670 C   0  0  0  0  0  0  0  0  0  0  0  0
  182.5520  175.2550  137.7040 N   0  0  0  0  0  1  0  0  0  0  0  0
  185.2090  177.8320  137.2120 C   0  0  0  0  0  3  0  0  0  0  0  0
  186.2370  175.6330  137.1430 C   0  0  0  0  0  0  0  0  0  0  0  0
  183.9550  177.2510  137.4200 C   0  0  0  0  0  0  0  0  0  0  0  0
  186.3400  177.0300  137.0740 C   0  0  0  0  0  3  0  0  0  0  0  0
  183.8350  175.8500  137.4980 C   0  0  0  0  0  0  0  0  0  0  0  0
  184.8640  173.6000  137.4500 C   0  0  0  0  0  0  0  0  0  0  0  0
  184.7710  172.4460  137.5200 N   0  0  0  0  0  0  0  0  0  0  0  0
  187.4010  174.8110  136.9940 N   0  0  0  0  0  2  0  0  0  0  0  0
  188.7660  175.3210  137.0230 C   0  0  0  0  0  2  0  0  0  0  0  0
  190.6080  175.1680  135.5510 F   0  0  0  0  0  0  0  0  0  0  0  0
  189.1780  176.8870  135.2750 F   0  0  0  0  0  0  0  0  0  0  0  0
  189.2830  175.5500  135.6110 C   0  0  0  0  0  0  0  0  0  0  0  0
  188.5520  174.7970  134.7140 F   0  0  0  0  0  0  0  0  0  0  0  0
  182.5170  177.6710  140.2120 C   0  0  0  0  0  2  0  0  0  0  0  0
  184.5580  178.2630  141.3640 C   0  0  2  0  0  3  0  0  0  0  0  0
  184.3000  179.3120  140.2920 C   0  0  0  0  0  2  0  0  0  0  0  0
  183.3000  177.4250  141.4800 C   0  0  0  0  0  2  0  0  0  0  0  0
  182.8860  179.0820  139.7950 C   0  0  1  0  0  3  0  0  0  0  0  0
  184.6250  178.2930  143.6940 N   0  0  0  0  0  0  0  0  0  0  0  0
  184.8240  178.9000  142.6260 N   0  0  0  0  0  0  0  0  0  0  0  0
  184.8950  178.9260  144.9620 C   0  0  0  0  0  2  0  0  0  0  0  0
  187.1990  177.9560  144.7360 C   0  0  0  0  0  3  0  0  0  0  0  0
  186.2950  178.3340  146.9420 C   0  0  0  0  0  3  0  0  0  0  0  0
  186.1600  178.4020  145.5560 C   0  0  0  0  0  0  0  0  0  0  0  0
  188.3700  177.4450  145.3130 C   0  0  0  0  0  0  0  0  0  0  0  0
  187.4720  177.8240  147.4880 C   0  0  0  0  0  3  0  0  0  0  0  0
  188.4720  177.3950  146.6720 N   0  0  0  0  0  0  0  0  0  0  0  0
  189.4530  176.9740  144.4920 N   0  0  0  0  0  0  0  0  0  0  0  0
  189.1790  176.1740  143.2990 C   0  0  0  0  0  1  0  0  0  0  0  0
  191.6090  176.4220  145.4530 C   0  0  0  0  0  2  0  0  0  0  0  0
  190.8050  177.2960  144.8550 C   0  0  0  0  0  3  0  0  0  0  0  0
  179.7340  179.5260  136.0400 C   0  0  2  0  0  3  0  0  0  0  0  0
  179.0940  178.1390  135.9720 C   0  0  0  0  0  1  0  0  0  0  0  0
  179.4930  180.2870  134.8710 O   0  0  0  0  0  0  0  0  0  0  0  0
  180.3740  181.3820  134.8410 C   0  0  0  0  0  2  0  0  0  0  0  0
  179.7180  182.5200  135.3150 O   0  0  0  0  0  1  0  0  0  0  0  0
  180.4440  179.8300  138.7130 O   0  0  0  0  0  0  0  0  0  0  0  0
  179.5520  181.9360  138.7660 O   0  0  0  0  0  1  0  0  0  0  0  0
  180.3090  180.9980  139.4730 C   0  0  1  0  0  3  0  0  0  0  0  0
  179.6400  180.6840  140.7690 C   0  0  0  0  0  0  0  0  0  0  0  0
  179.2840  181.7150  141.6290 O   0  0  0  0  0  1  0  0  0  0  0  0
  179.4130  179.4900  141.0980 O   0  0  0  0  0  0  0  0  0  0  0  0
  1 39  1  1  0  0  0
  1  2  1  0  0  0  0
  1  4  1  0  0  0  0
  2  5  1  0  0  0  0
  3  5  1  6  0  0  0
  3 25  1  0  0  0  0
  4  3  1  0  0  0  0
  4 44  1  1  0  0  0
  6 13  1  0  0  0  0
  6 12  1  0  0  0  0
  8 10  1  0  0  0  0
  9  6  2  0  0  0  0
 10 12  2  0  0  0  0
 10  5  1  0  0  0  0
 11  9  1  0  0  0  0
 11  8  2  0  0  0  0
 12  7  1  0  0  0  0
 13 14  3  0  0  0  0
 15 16  1  0  0  0  0
 15  9  1  0  0  0  0
 17 19  1  0  0  0  0
 18 19  1  0  0  0  0
 19 16  1  0  0  0  0
 20 19  1  0  0  0  0
 21 24  1  0  0  0  0
 22 24  1  0  0  0  0
 22 27  1  1  0  0  0
 23 22  1  0  0  0  0
 25 21  1  6  0  0  0
 25 23  1  0  0  0  0
 26 28  1  0  0  0  0
 27 26  2  0  0  0  0
 28 31  1  0  0  0  0
 29 32  2  0  0  0  0
 29 31  1  0  0  0  0
 30 33  1  0  0  0  0
 31 30  2  0  0  0  0
 32 34  1  0  0  0  0
 34 33  2  0  0  0  0
 35 38  1  0  0  0  0
 35 32  1  0  0  0  0
 36 35  1  0  0  0  0
 38 37  2  0  0  0  0
 39 40  1  6  0  0  0
 41 39  1  0  0  0  0
 42 41  1  0  0  0  0
 42 43  1  0  0  0  0
 44 46  1  0  0  0  0
 46 45  1  6  0  0  0
 46 47  1  0  0  0  0
 47 49  2  0  0  0  0
 47 48  1  0  0  0  0
M  END
>  <MODEL>
2

>  <REMARK>
 VINA RESULT:      -6.7      4.465      8.658
  Name = 
  17 active torsions:
  status: ('A' for Active; 'I' for Inactive)
    1  A    between atoms: C_2  and  N_48
    2  A    between atoms: C_5  and  O_6
    3  A    between atoms: C_5  and  C_7
    4  A    between atoms: O_6  and  C_25
    5  A    between atoms: N_9  and  C_13
    6  A    between atoms: N_9  and  C_31
    7  A    between atoms: C_12  and  C_20
    8  A    between atoms: C_14  and  C_45
    9  A    between atoms: C_15  and  O_32
   10  A    between atoms: N_21  and  C_46
   11  A    between atoms: N_23  and  C_40
   12  A    between atoms: C_24  and  C_44
   13  A    between atoms: C_27  and  C_49
   14  A    between atoms: C_29  and  C_46
   15  A    between atoms: O_32  and  C_44
   16  A    between atoms: C_38  and  N_42
   17  A    between atoms: N_42  and  C_49
                            x       y       z     vdW  Elec       q    Type
                         _______ _______ _______ _____ _____    ______ ____

>  <TORSDO>
F 17

$$$$
=
 OpenBabel10222417383D

 49 52  0  0  1  0  0  0  0  0999 V2000
  182.4990  178.1800  137.0750 C   0  0  2  0  0  3  0  0  0  0  0  0
  183.4680  177.0750  136.6810 C   0  0  0  0  0  2  0  0  0  0  0  0
  184.5010  178.4220  138.3950 C   0  0  2  0  0  3  0  0  0  0  0  0
  182.9930  178.7080  138.4310 C   0  0  2  0  0  3  0  0  0  0  0  0
  184.6810  177.3540  137.4230 N   0  0  0  0  0  0  0  0  0  0  0  0
  187.6460  175.3140  136.3630 C   0  0  0  0  0  0  0  0  0  0  0  0
  185.5780  174.6440  137.5130 N   0  0  0  0  0  1  0  0  0  0  0  0
  186.7650  177.9770  136.3200 C   0  0  0  0  0  3  0  0  0  0  0  0
  188.4420  176.3100  135.7660 C   0  0  0  0  0  0  0  0  0  0  0  0
  185.9630  176.9920  136.9020 C   0  0  0  0  0  0  0  0  0  0  0  0
  187.9940  177.6390  135.7560 C   0  0  0  0  0  3  0  0  0  0  0  0
  186.4010  175.6540  136.9250 C   0  0  0  0  0  0  0  0  0  0  0  0
  188.1050  173.9420  136.3870 C   0  0  0  0  0  0  0  0  0  0  0  0
  188.4720  172.8420  136.4020 N   0  0  0  0  0  0  0  0  0  0  0  0
  189.7040  175.9650  135.1800 N   0  0  0  0  0  2  0  0  0  0  0  0
  190.9710  176.5820  135.5540 C   0  0  0  0  0  2  0  0  0  0  0  0
  190.5110  177.0260  137.8290 F   0  0  0  0  0  0  0  0  0  0  0  0
  192.6400  176.5630  137.2550 F   0  0  0  0  0  0  0  0  0  0  0  0
  191.3140  176.2660  137.0010 C   0  0  0  0  0  0  0  0  0  0  0  0
  191.0910  174.9280  137.2580 F   0  0  0  0  0  0  0  0  0  0  0  0
  186.6340  178.2550  139.7960 C   0  0  0  0  0  2  0  0  0  0  0  0
  185.7500  179.3200  141.7780 C   0  0  2  0  0  3  0  0  0  0  0  0
  184.5860  179.0180  140.8450 C   0  0  0  0  0  2  0  0  0  0  0  0
  186.9590  178.5860  141.2330 C   0  0  0  0  0  2  0  0  0  0  0  0
  185.1250  178.1010  139.7650 C   0  0  1  0  0  3  0  0  0  0  0  0
  186.3060  178.1870  143.7380 N   0  0  0  0  0  0  0  0  0  0  0  0
  185.4590  178.8420  143.1040 N   0  0  0  0  0  0  0  0  0  0  0  0
  186.0210  177.7100  145.0690 C   0  0  0  0  0  2  0  0  0  0  0  0
  188.4940  177.3920  145.3590 C   0  0  0  0  0  3  0  0  0  0  0  0
  187.1610  178.0440  147.2640 C   0  0  0  0  0  3  0  0  0  0  0  0
  187.2540  177.7230  145.9110 C   0  0  0  0  0  0  0  0  0  0  0  0
  189.6370  177.3870  146.1720 C   0  0  0  0  0  0  0  0  0  0  0  0
  188.3150  178.0340  148.0470 C   0  0  0  0  0  3  0  0  0  0  0  0
  189.5130  177.7090  147.4920 N   0  0  0  0  0  0  0  0  0  0  0  0
  190.9250  177.0450  145.6310 N   0  0  0  0  0  0  0  0  0  0  0  0
  191.8630  176.2420  146.4140 C   0  0  0  0  0  1  0  0  0  0  0  0
  191.4320  178.7910  144.0270 C   0  0  0  0  0  2  0  0  0  0  0  0
  191.2820  177.5020  144.3170 C   0  0  0  0  0  3  0  0  0  0  0  0
  181.0290  177.7190  137.0610 C   0  0  2  0  0  3  0  0  0  0  0  0
  180.7940  176.4840  136.1910 C   0  0  0  0  0  1  0  0  0  0  0  0
  180.1170  178.7610  136.7730 O   0  0  0  0  0  0  0  0  0  0  0  0
  180.6240  179.5430  135.7210 C   0  0  0  0  0  2  0  0  0  0  0  0
  180.6460  180.8850  136.1080 O   0  0  0  0  0  1  0  0  0  0  0  0
  182.3660  178.0180  139.4830 O   0  0  0  0  0  0  0  0  0  0  0  0
  181.4690  180.1220  139.4470 O   0  0  0  0  0  1  0  0  0  0  0  0
  181.7280  179.0040  140.2450 C   0  0  1  0  0  3  0  0  0  0  0  0
  180.4480  178.4700  140.7950 C   0  0  0  0  0  0  0  0  0  0  0  0
  180.3490  178.1710  142.1470 O   0  0  0  0  0  1  0  0  0  0  0  0
  179.4630  178.2680  140.0380 O   0  0  0  0  0  0  0  0  0  0  0  0
  1 39  1  1  0  0  0
  1  4  1  0  0  0  0
  2  1  1  0  0  0  0
  2  5  1  0  0  0  0
  3  5  1  6  0  0  0
  3  4  1  0  0  0  0
  3 25  1  0  0  0  0
  4 44  1  1  0  0  0
  6 13  1  0  0  0  0
  6 12  1  0  0  0  0
  8 10  1  0  0  0  0
  9  6  2  0  0  0  0
 10 12  2  0  0  0  0
 10  5  1  0  0  0  0
 11  9  1  0  0  0  0
 11  8  2  0  0  0  0
 12  7  1  0  0  0  0
 13 14  3  0  0  0  0
 15 16  1  0  0  0  0
 15  9  1  0  0  0  0
 16 19  1  0  0  0  0
 19 18  1  0  0  0  0
 19 20  1  0  0  0  0
 19 17  1  0  0  0  0
 21 24  1  0  0  0  0
 22 27  1  1  0  0  0
 23 22  1  0  0  0  0
 24 22  1  0  0  0  0
 25 21  1  6  0  0  0
 25 23  1  0  0  0  0
 26 28  1  0  0  0  0
 27 26  2  0  0  0  0
 28 31  1  0  0  0  0
 29 31  2  0  0  0  0
 29 32  1  0  0  0  0
 30 33  2  0  0  0  0
 31 30  1  0  0  0  0
 32 34  2  0  0  0  0
 34 33  1  0  0  0  0
 35 32  1  0  0  0  0
 35 36  1  0  0  0  0
 37 38  2  0  0  0  0
 38 35  1  0  0  0  0
 39 40  1  6  0  0  0
 41 39  1  0  0  0  0
 42 43  1  0  0  0  0
 42 41  1  0  0  0  0
 44 46  1  0  0  0  0
 46 45  1  6  0  0  0
 46 47  1  0  0  0  0
 47 48  1  0  0  0  0
 49 47  2  0  0  0  0
M  END
>  <MODEL>
3

>  <REMARK>
 VINA RESULT:      -6.6      3.798      8.243
  Name = 
  17 active torsions:
  status: ('A' for Active; 'I' for Inactive)
    1  A    between atoms: C_2  and  N_48
    2  A    between atoms: C_5  and  O_6
    3  A    between atoms: C_5  and  C_7
    4  A    between atoms: O_6  and  C_25
    5  A    between atoms: N_9  and  C_13
    6  A    between atoms: N_9  and  C_31
    7  A    between atoms: C_12  and  C_20
    8  A    between atoms: C_14  and  C_45
    9  A    between atoms: C_15  and  O_32
   10  A    between atoms: N_21  and  C_46
   11  A    between atoms: N_23  and  C_40
   12  A    between atoms: C_24  and  C_44
   13  A    between atoms: C_27  and  C_49
   14  A    between atoms: C_29  and  C_46
   15  A    between atoms: O_32  and  C_44
   16  A    between atoms: C_38  and  N_42
   17  A    between atoms: N_42  and  C_49
                            x       y       z     vdW  Elec       q    Type
                         _______ _______ _______ _____ _____    ______ ____

>  <TORSDO>
F 17

$$$$
=
 OpenBabel10222417383D

 49 52  0  0  1  0  0  0  0  0999 V2000
  190.8940  173.1780  135.4410 C   0  0  2  0  0  3  0  0  0  0  0  0
  189.8180  173.9070  134.6490 C   0  0  0  0  0  2  0  0  0  0  0  0
  189.7430  174.6790  136.9340 C   0  0  2  0  0  3  0  0  0  0  0  0
  191.1030  174.0000  136.7210 C   0  0  2  0  0  3  0  0  0  0  0  0
  189.0980  174.6950  135.6290 N   0  0  0  0  0  0  0  0  0  0  0  0
  185.3580  174.5070  135.8710 C   0  0  0  0  0  0  0  0  0  0  0  0
  187.0910  172.9860  136.7280 N   0  0  0  0  0  1  0  0  0  0  0  0
  187.3440  176.1520  134.7640 C   0  0  0  0  0  3  0  0  0  0  0  0
  184.9980  175.6830  135.1840 C   0  0  0  0  0  0  0  0  0  0  0  0
  187.7100  174.9940  135.4560 C   0  0  0  0  0  0  0  0  0  0  0  0
  185.9990  176.4940  134.6290 C   0  0  0  0  0  3  0  0  0  0  0  0
  186.7170  174.1670  136.0140 C   0  0  0  0  0  0  0  0  0  0  0  0
  184.3320  173.6600  136.4370 C   0  0  0  0  0  0  0  0  0  0  0  0
  183.5100  172.9770  136.8900 N   0  0  0  0  0  0  0  0  0  0  0  0
  183.6170  176.0410  135.0500 N   0  0  0  0  0  2  0  0  0  0  0  0
  183.0850  177.3620  135.3640 C   0  0  0  0  0  2  0  0  0  0  0  0
  182.2020  178.6700  137.1220 F   0  0  0  0  0  0  0  0  0  0  0  0
  184.2190  177.7150  137.4290 F   0  0  0  0  0  0  0  0  0  0  0  0
  182.9670  177.5490  136.8680 C   0  0  0  0  0  0  0  0  0  0  0  0
  182.3570  176.4470  137.4340 F   0  0  0  0  0  0  0  0  0  0  0  0
  189.9300  177.2050  136.5860 C   0  0  0  0  0  2  0  0  0  0  0  0
  188.2630  177.8360  138.2190 C   0  0  2  0  0  3  0  0  0  0  0  0
  188.5770  176.3590  138.4110 C   0  0  0  0  0  2  0  0  0  0  0  0
  189.3120  178.3970  137.2800 C   0  0  0  0  0  2  0  0  0  0  0  0
  189.8160  176.0710  137.5860 C   0  0  1  0  0  3  0  0  0  0  0  0
  188.3360  177.8880  140.5490 N   0  0  0  0  0  0  0  0  0  0  0  0
  188.3340  178.5250  139.4800 N   0  0  0  0  0  0  0  0  0  0  0  0
  188.4130  178.5740  141.8150 C   0  0  0  0  0  2  0  0  0  0  0  0
  189.1580  177.8230  144.0910 C   0  0  0  0  0  3  0  0  0  0  0  0
  190.5790  177.3930  142.1880 C   0  0  0  0  0  3  0  0  0  0  0  0
  189.3980  177.9100  142.7180 C   0  0  0  0  0  0  0  0  0  0  0  0
  190.1070  177.2160  144.9260 C   0  0  0  0  0  0  0  0  0  0  0  0
  191.5030  176.7920  143.0420 C   0  0  0  0  0  3  0  0  0  0  0  0
  191.2510  176.7170  144.3770 N   0  0  0  0  0  0  0  0  0  0  0  0
  189.8870  177.1180  146.3450 N   0  0  0  0  0  0  0  0  0  0  0  0
  190.9720  176.7010  147.2310 C   0  0  0  0  0  1  0  0  0  0  0  0
  188.3920  177.6570  148.1760 C   0  0  0  0  0  2  0  0  0  0  0  0
  188.5920  177.4320  146.8800 C   0  0  0  0  0  3  0  0  0  0  0  0
  192.1740  172.9290  134.6200 C   0  0  2  0  0  3  0  0  0  0  0  0
  192.8620  171.6070  134.9630 C   0  0  0  0  0  1  0  0  0  0  0  0
  193.0730  174.0220  134.6370 O   0  0  0  0  0  0  0  0  0  0  0  0
  194.3920  173.5370  134.6180 C   0  0  0  0  0  2  0  0  0  0  0  0
  195.2820  174.6130  134.5940 O   0  0  0  0  0  1  0  0  0  0  0  0
  192.1240  174.9470  136.5350 O   0  0  0  0  0  0  0  0  0  0  0  0
  193.6850  173.9860  137.9040 O   0  0  0  0  0  1  0  0  0  0  0  0
  192.7760  175.0390  137.7710 C   0  0  1  0  0  3  0  0  0  0  0  0
  193.4970  176.3420  137.8670 C   0  0  0  0  0  0  0  0  0  0  0  0
  193.6000  176.9840  139.0940 O   0  0  0  0  0  1  0  0  0  0  0  0
  193.9950  176.8730  136.8410 O   0  0  0  0  0  0  0  0  0  0  0  0
  1 39  1  6  0  0  0
  1  4  1  0  0  0  0
  2  1  1  0  0  0  0
  2  5  1  0  0  0  0
  3  5  1  6  0  0  0
  3 25  1  0  0  0  0
  4 44  1  6  0  0  0
  4  3  1  0  0  0  0
  6 12  1  0  0  0  0
  6 13  1  0  0  0  0
  8 10  1  0  0  0  0
  9  6  2  0  0  0  0
 10  5  1  0  0  0  0
 10 12  2  0  0  0  0
 11  8  2  0  0  0  0
 11  9  1  0  0  0  0
 12  7  1  0  0  0  0
 13 14  3  0  0  0  0
 15  9  1  0  0  0  0
 15 16  1  0  0  0  0
 16 19  1  0  0  0  0
 19 17  1  0  0  0  0
 19 18  1  0  0  0  0
 19 20  1  0  0  0  0
 21 24  1  0  0  0  0
 22 23  1  0  0  0  0
 22 27  1  1  0  0  0
 24 22  1  0  0  0  0
 25 21  1  6  0  0  0
 25 23  1  0  0  0  0
 26 28  1  0  0  0  0
 27 26  2  0  0  0  0
 28 31  1  0  0  0  0
 29 32  1  0  0  0  0
 30 31  1  0  0  0  0
 30 33  2  0  0  0  0
 31 29  2  0  0  0  0
 32 35  1  0  0  0  0
 33 34  1  0  0  0  0
 34 32  2  0  0  0  0
 35 38  1  0  0  0  0
 35 36  1  0  0  0  0
 38 37  2  0  0  0  0
 39 41  1  0  0  0  0
 39 40  1  1  0  0  0
 42 41  1  0  0  0  0
 43 42  1  0  0  0  0
 44 46  1  0  0  0  0
 46 47  1  0  0  0  0
 46 45  1  6  0  0  0
 47 48  1  0  0  0  0
 49 47  2  0  0  0  0
M  END
>  <MODEL>
4

>  <REMARK>
 VINA RESULT:      -6.5      5.805     10.380
  Name = 
  17 active torsions:
  status: ('A' for Active; 'I' for Inactive)
    1  A    between atoms: C_2  and  N_48
    2  A    between atoms: C_5  and  O_6
    3  A    between atoms: C_5  and  C_7
    4  A    between atoms: O_6  and  C_25
    5  A    between atoms: N_9  and  C_13
    6  A    between atoms: N_9  and  C_31
    7  A    between atoms: C_12  and  C_20
    8  A    between atoms: C_14  and  C_45
    9  A    between atoms: C_15  and  O_32
   10  A    between atoms: N_21  and  C_46
   11  A    between atoms: N_23  and  C_40
   12  A    between atoms: C_24  and  C_44
   13  A    between atoms: C_27  and  C_49
   14  A    between atoms: C_29  and  C_46
   15  A    between atoms: O_32  and  C_44
   16  A    between atoms: C_38  and  N_42
   17  A    between atoms: N_42  and  C_49
                            x       y       z     vdW  Elec       q    Type
                         _______ _______ _______ _____ _____    ______ ____

>  <TORSDO>
F 17

$$$$
=
 OpenBabel10222417383D

 49 52  0  0  1  0  0  0  0  0999 V2000
  192.8500  175.3680  135.6700 C   0  0  2  0  0  3  0  0  0  0  0  0
  191.8650  176.5290  135.6610 C   0  0  0  0  0  2  0  0  0  0  0  0
  191.6530  175.3600  137.7610 C   0  0  2  0  0  3  0  0  0  0  0  0
  192.9970  174.9530  137.1410 C   0  0  2  0  0  3  0  0  0  0  0  0
  191.1080  176.3890  136.8880 N   0  0  0  0  0  0  0  0  0  0  0  0
  187.3550  176.3900  136.8390 C   0  0  0  0  0  0  0  0  0  0  0  0
  188.9570  174.5980  136.3170 N   0  0  0  0  0  1  0  0  0  0  0  0
  189.4820  178.1450  137.3580 C   0  0  0  0  0  3  0  0  0  0  0  0
  187.0950  177.7130  137.2460 C   0  0  0  0  0  0  0  0  0  0  0  0
  189.7490  176.8300  136.9680 C   0  0  0  0  0  0  0  0  0  0  0  0
  188.1660  178.5830  137.4960 C   0  0  0  0  0  3  0  0  0  0  0  0
  188.6850  175.9460  136.7080 C   0  0  0  0  0  0  0  0  0  0  0  0
  186.2570  175.4880  136.5690 C   0  0  0  0  0  0  0  0  0  0  0  0
  185.3760  174.7670  136.3490 N   0  0  0  0  0  0  0  0  0  0  0  0
  185.7430  178.1640  137.3960 N   0  0  0  0  0  2  0  0  0  0  0  0
  185.2000  178.7100  138.6340 C   0  0  0  0  0  2  0  0  0  0  0  0
  183.0900  179.5650  139.2650 F   0  0  0  0  0  0  0  0  0  0  0  0
  183.4530  177.3570  139.5260 F   0  0  0  0  0  0  0  0  0  0  0  0
  183.7040  178.4540  138.7230 C   0  0  0  0  0  0  0  0  0  0  0  0
  183.1900  178.2210  137.4630 F   0  0  0  0  0  0  0  0  0  0  0  0
  192.2780  177.2050  139.4180 C   0  0  0  0  0  2  0  0  0  0  0  0
  190.3270  176.9870  140.8280 C   0  0  2  0  0  3  0  0  0  0  0  0
  190.3670  175.7900  139.8890 C   0  0  0  0  0  2  0  0  0  0  0  0
  191.6640  177.6920  140.7090 C   0  0  0  0  0  2  0  0  0  0  0  0
  191.7340  175.8010  139.2340 C   0  0  1  0  0  3  0  0  0  0  0  0
  189.5820  177.2840  143.0170 N   0  0  0  0  0  0  0  0  0  0  0  0
  190.1400  176.5460  142.1850 N   0  0  0  0  0  0  0  0  0  0  0  0
  189.3870  176.8440  144.3770 C   0  0  0  0  0  2  0  0  0  0  0  0
  187.0760  177.7800  144.0840 C   0  0  0  0  0  3  0  0  0  0  0  0
  187.9750  177.5440  146.3120 C   0  0  0  0  0  3  0  0  0  0  0  0
  188.1150  177.3930  144.9340 C   0  0  0  0  0  0  0  0  0  0  0  0
  185.8980  178.3150  144.6250 C   0  0  0  0  0  0  0  0  0  0  0  0
  186.7910  178.0760  146.8220 C   0  0  0  0  0  3  0  0  0  0  0  0
  185.7910  178.4470  145.9790 N   0  0  0  0  0  0  0  0  0  0  0  0
  184.8150  178.7260  143.7730 N   0  0  0  0  0  0  0  0  0  0  0  0
  184.9660  178.6870  142.3190 C   0  0  0  0  0  1  0  0  0  0  0  0
  182.3980  178.9110  143.8260 C   0  0  0  0  0  2  0  0  0  0  0  0
  183.5860  179.1770  144.3630 C   0  0  0  0  0  3  0  0  0  0  0  0
  194.1760  175.7040  134.9610 C   0  0  2  0  0  3  0  0  0  0  0  0
  195.0500  174.4760  134.7050 C   0  0  0  0  0  1  0  0  0  0  0  0
  194.8930  176.7550  135.5800 O   0  0  0  0  0  0  0  0  0  0  0  0
  195.8360  177.2690  134.6740 C   0  0  0  0  0  2  0  0  0  0  0  0
  195.8280  178.6640  134.7370 O   0  0  0  0  0  1  0  0  0  0  0  0
  194.0660  175.6400  137.7400 O   0  0  0  0  0  0  0  0  0  0  0  0
  194.5230  173.4160  138.0210 O   0  0  0  0  0  1  0  0  0  0  0  0
  194.7060  174.6960  138.5530 C   0  0  1  0  0  3  0  0  0  0  0  0
  196.1630  175.0040  138.6360 C   0  0  0  0  0  0  0  0  0  0  0  0
  196.9210  175.0750  137.4740 O   0  0  0  0  0  0  0  0  0  0  0  0
  196.7160  175.1800  139.7530 O   0  0  0  0  0  1  0  0  0  0  0  0
  1 39  1  1  0  0  0
  1  4  1  0  0  0  0
  2  1  1  0  0  0  0
  2  5  1  0  0  0  0
  3  5  1  6  0  0  0
  3 25  1  0  0  0  0
  4 44  1  1  0  0  0
  4  3  1  0  0  0  0
  5 10  1  0  0  0  0
  6  9  1  0  0  0  0
  7 12  1  0  0  0  0
  8 11  1  0  0  0  0
  9 15  1  0  0  0  0
  9 11  2  0  0  0  0
 10  8  2  0  0  0  0
 12  6  2  0  0  0  0
 12 10  1  0  0  0  0
 13  6  1  0  0  0  0
 14 13  3  0  0  0  0
 15 16  1  0  0  0  0
 16 19  1  0  0  0  0
 19 17  1  0  0  0  0
 19 18  1  0  0  0  0
 20 19  1  0  0  0  0
 21 24  1  0  0  0  0
 22 27  1  1  0  0  0
 23 22  1  0  0  0  0
 24 22  1  0  0  0  0
 25 21  1  6  0  0  0
 25 23  1  0  0  0  0
 26 28  1  0  0  0  0
 27 26  2  0  0  0  0
 28 31  1  0  0  0  0
 29 32  2  0  0  0  0
 29 31  1  0  0  0  0
 30 33  1  0  0  0  0
 31 30  2  0  0  0  0
 32 34  1  0  0  0  0
 34 33  2  0  0  0  0
 35 38  1  0  0  0  0
 35 32  1  0  0  0  0
 36 35  1  0  0  0  0
 37 38  2  0  0  0  0
 39 40  1  1  0  0  0
 39 41  1  0  0  0  0
 42 43  1  0  0  0  0
 42 41  1  0  0  0  0
 44 46  1  0  0  0  0
 46 45  1  6  0  0  0
 46 47  1  0  0  0  0
 47 49  1  0  0  0  0
 48 47  2  0  0  0  0
M  END
>  <MODEL>
5

>  <REMARK>
 VINA RESULT:      -6.3      5.602      9.143
  Name = 
  17 active torsions:
  status: ('A' for Active; 'I' for Inactive)
    1  A    between atoms: C_2  and  N_48
    2  A    between atoms: C_5  and  O_6
    3  A    between atoms: C_5  and  C_7
    4  A    between atoms: O_6  and  C_25
    5  A    between atoms: N_9  and  C_13
    6  A    between atoms: N_9  and  C_31
    7  A    between atoms: C_12  and  C_20
    8  A    between atoms: C_14  and  C_45
    9  A    between atoms: C_15  and  O_32
   10  A    between atoms: N_21  and  C_46
   11  A    between atoms: N_23  and  C_40
   12  A    between atoms: C_24  and  C_44
   13  A    between atoms: C_27  and  C_49
   14  A    between atoms: C_29  and  C_46
   15  A    between atoms: O_32  and  C_44
   16  A    between atoms: C_38  and  N_42
   17  A    between atoms: N_42  and  C_49
                            x       y       z     vdW  Elec       q    Type
                         _______ _______ _______ _____ _____    ______ ____

>  <TORSDO>
F 17

$$$$
=
 OpenBabel10222417383D

 49 52  0  0  1  0  0  0  0  0999 V2000
  181.3210  179.2190  136.7270 C   0  0  2  0  0  3  0  0  0  0  0  0
  182.2440  178.0100  136.6740 C   0  0  0  0  0  2  0  0  0  0  0  0
  182.8870  179.3800  138.5510 C   0  0  2  0  0  3  0  0  0  0  0  0
  181.4670  179.7950  138.1430 C   0  0  2  0  0  3  0  0  0  0  0  0
  183.2230  178.2350  137.7180 N   0  0  0  0  0  0  0  0  0  0  0  0
  186.1130  175.8740  137.3290 C   0  0  0  0  0  0  0  0  0  0  0  0
  183.7040  175.4260  137.5410 N   0  0  0  0  0  1  0  0  0  0  0  0
  185.6230  178.6280  137.5440 C   0  0  0  0  0  3  0  0  0  0  0  0
  187.1820  176.7880  137.2600 C   0  0  0  0  0  0  0  0  0  0  0  0
  184.5550  177.7290  137.6000 C   0  0  0  0  0  0  0  0  0  0  0  0
  186.9260  178.1620  137.3750 C   0  0  0  0  0  3  0  0  0  0  0  0
  184.7970  176.3460  137.4910 C   0  0  0  0  0  0  0  0  0  0  0  0
  186.3690  174.4540  137.2210 C   0  0  0  0  0  0  0  0  0  0  0  0
  186.5780  173.3170  137.1330 N   0  0  0  0  0  0  0  0  0  0  0  0
  188.5220  176.3120  137.0780 N   0  0  0  0  0  2  0  0  0  0  0  0
  189.7110  177.1290  137.2920 C   0  0  0  0  0  2  0  0  0  0  0  0
  190.1730  175.6360  139.0640 F   0  0  0  0  0  0  0  0  0  0  0  0
  189.4360  177.7000  139.5890 F   0  0  0  0  0  0  0  0  0  0  0  0
  190.2210  176.9710  138.7150 C   0  0  0  0  0  0  0  0  0  0  0  0
  191.5270  177.4140  138.8000 F   0  0  0  0  0  0  0  0  0  0  0  0
  182.8860  177.6450  140.4300 C   0  0  0  0  0  2  0  0  0  0  0  0
  184.8720  178.4480  141.5520 C   0  0  2  0  0  3  0  0  0  0  0  0
  184.4550  179.4910  140.5250 C   0  0  0  0  0  2  0  0  0  0  0  0
  183.7300  177.4570  141.6680 C   0  0  0  0  0  2  0  0  0  0  0  0
  183.0670  179.1040  140.0550 C   0  0  1  0  0  3  0  0  0  0  0  0
  185.1530  178.3840  143.8650 N   0  0  0  0  0  0  0  0  0  0  0  0
  185.0940  179.0710  142.8290 N   0  0  0  0  0  0  0  0  0  0  0  0
  185.3810  179.0040  145.1470 C   0  0  0  0  0  2  0  0  0  0  0  0
  187.6610  177.9600  145.0490 C   0  0  0  0  0  3  0  0  0  0  0  0
  186.6240  178.3170  147.2000 C   0  0  0  0  0  3  0  0  0  0  0  0
  186.5850  178.4220  145.8100 C   0  0  0  0  0  0  0  0  0  0  0  0
  188.7730  177.3940  145.6900 C   0  0  0  0  0  0  0  0  0  0  0  0
  187.7440  177.7530  147.8090 C   0  0  0  0  0  3  0  0  0  0  0  0
  188.7820  177.3080  147.0510 N   0  0  0  0  0  0  0  0  0  0  0  0
  189.8930  176.9050  144.9300 N   0  0  0  0  0  0  0  0  0  0  0  0
  191.2280  176.8700  145.5260 C   0  0  0  0  0  1  0  0  0  0  0  0
  190.6640  175.9270  142.8500 C   0  0  0  0  0  2  0  0  0  0  0  0
  189.6870  176.4550  143.5820 C   0  0  0  0  0  3  0  0  0  0  0  0
  179.8750  178.8850  136.3140 C   0  0  2  0  0  3  0  0  0  0  0  0
  179.0750  180.1120  135.8780 C   0  0  0  0  0  1  0  0  0  0  0  0
  179.1840  178.1050  137.2710 O   0  0  0  0  0  0  0  0  0  0  0  0
  179.1270  176.7720  136.8290 C   0  0  0  0  0  2  0  0  0  0  0  0
  179.6900  175.9370  137.7970 O   0  0  0  0  0  1  0  0  0  0  0  0
  180.5040  179.2380  139.0010 O   0  0  0  0  0  0  0  0  0  0  0  0
  179.1610  181.0760  139.2240 O   0  0  0  0  0  1  0  0  0  0  0  0
  180.1200  180.2780  139.8550 C   0  0  1  0  0  3  0  0  0  0  0  0
  179.5560  179.7160  141.1170 C   0  0  0  0  0  0  0  0  0  0  0  0
  179.5510  178.3410  141.3170 O   0  0  0  0  0  0  0  0  0  0  0  0
  179.0670  180.4760  141.9930 O   0  0  0  0  0  1  0  0  0  0  0  0
  1 39  1  1  0  0  0
  1  4  1  0  0  0  0
  2  1  1  0  0  0  0
  2  5  1  0  0  0  0
  3  5  1  6  0  0  0
  3 25  1  0  0  0  0
  4  3  1  0  0  0  0
  4 44  1  1  0  0  0
  6 12  1  0  0  0  0
  8 10  1  0  0  0  0
  9  6  2  0  0  0  0
  9 11  1  0  0  0  0
 10  5  1  0  0  0  0
 11  8  2  0  0  0  0
 12  7  1  0  0  0  0
 12 10  2  0  0  0  0
 13  6  1  0  0  0  0
 14 13  3  0  0  0  0
 15  9  1  0  0  0  0
 15 16  1  0  0  0  0
 16 19  1  0  0  0  0
 19 20  1  0  0  0  0
 19 17  1  0  0  0  0
 19 18  1  0  0  0  0
 21 24  1  0  0  0  0
 22 24  1  0  0  0  0
 22 27  1  1  0  0  0
 23 22  1  0  0  0  0
 25 21  1  6  0  0  0
 25 23  1  0  0  0  0
 26 28  1  0  0  0  0
 27 26  2  0  0  0  0
 28 31  1  0  0  0  0
 29 32  2  0  0  0  0
 29 31  1  0  0  0  0
 30 33  1  0  0  0  0
 31 30  2  0  0  0  0
 32 34  1  0  0  0  0
 34 33  2  0  0  0  0
 35 36  1  0  0  0  0
 35 32  1  0  0  0  0
 37 38  2  0  0  0  0
 38 35  1  0  0  0  0
 39 40  1  1  0  0  0
 39 41  1  0  0  0  0
 42 41  1  0  0  0  0
 42 43  1  0  0  0  0
 44 46  1  0  0  0  0
 46 45  1  6  0  0  0
 46 47  1  0  0  0  0
 47 48  2  0  0  0  0
 47 49  1  0  0  0  0
M  END
>  <MODEL>
6

>  <REMARK>
 VINA RESULT:      -6.1      3.603      8.075
  Name = 
  17 active torsions:
  status: ('A' for Active; 'I' for Inactive)
    1  A    between atoms: C_2  and  N_48
    2  A    between atoms: C_5  and  O_6
    3  A    between atoms: C_5  and  C_7
    4  A    between atoms: O_6  and  C_25
    5  A    between atoms: N_9  and  C_13
    6  A    between atoms: N_9  and  C_31
    7  A    between atoms: C_12  and  C_20
    8  A    between atoms: C_14  and  C_45
    9  A    between atoms: C_15  and  O_32
   10  A    between atoms: N_21  and  C_46
   11  A    between atoms: N_23  and  C_40
   12  A    between atoms: C_24  and  C_44
   13  A    between atoms: C_27  and  C_49
   14  A    between atoms: C_29  and  C_46
   15  A    between atoms: O_32  and  C_44
   16  A    between atoms: C_38  and  N_42
   17  A    between atoms: N_42  and  C_49
                            x       y       z     vdW  Elec       q    Type
                         _______ _______ _______ _____ _____    ______ ____

>  <TORSDO>
F 17

$$$$
=
 OpenBabel10222417383D

 49 52  0  0  1  0  0  0  0  0999 V2000
  188.8510  178.1150  138.9810 C   0  0  2  0  0  3  0  0  0  0  0  0
  189.4430  177.2140  140.0550 C   0  0  0  0  0  2  0  0  0  0  0  0
  187.7980  178.6500  141.0820 C   0  0  2  0  0  3  0  0  0  0  0  0
  187.5430  178.6650  139.5680 C   0  0  2  0  0  3  0  0  0  0  0  0
  188.8530  177.6700  141.2970 N   0  0  0  0  0  0  0  0  0  0  0  0
  191.0390  176.3370  144.0400 C   0  0  0  0  0  0  0  0  0  0  0  0
  190.3280  175.3060  141.9240 N   0  0  0  0  0  1  0  0  0  0  0  0
  189.5530  178.6350  143.4260 C   0  0  0  0  0  3  0  0  0  0  0  0
  191.0340  177.4310  144.9270 C   0  0  0  0  0  0  0  0  0  0  0  0
  189.5640  177.5590  142.5340 C   0  0  0  0  0  0  0  0  0  0  0  0
  190.2810  178.5720  144.6120 C   0  0  0  0  0  3  0  0  0  0  0  0
  190.3100  176.4040  142.8380 C   0  0  0  0  0  0  0  0  0  0  0  0
  191.8050  175.1510  144.3620 C   0  0  0  0  0  0  0  0  0  0  0  0
  192.4160  174.2010  144.6240 N   0  0  0  0  0  0  0  0  0  0  0  0
  191.7880  177.3720  146.1440 N   0  0  0  0  0  2  0  0  0  0  0  0
  191.2700  176.8330  147.3960 C   0  0  0  0  0  2  0  0  0  0  0  0
  192.6940  176.1490  149.1540 F   0  0  0  0  0  0  0  0  0  0  0  0
  193.2350  175.5290  147.0560 F   0  0  0  0  0  0  0  0  0  0  0  0
  192.1890  175.7470  147.9330 C   0  0  0  0  0  0  0  0  0  0  0  0
  191.4830  174.5720  148.0990 F   0  0  0  0  0  0  0  0  0  0  0  0
  186.8080  177.4840  143.1320 C   0  0  0  0  0  2  0  0  0  0  0  0
  185.4910  179.3570  143.9080 C   0  0  2  0  0  3  0  0  0  0  0  0
  185.9860  179.6760  142.5050 C   0  0  0  0  0  2  0  0  0  0  0  0
  185.7750  177.8880  144.1560 C   0  0  0  0  0  2  0  0  0  0  0  0
  186.5480  178.3870  141.9400 C   0  0  1  0  0  3  0  0  0  0  0  0
  183.2670  178.6750  143.7550 N   0  0  0  0  0  0  0  0  0  0  0  0
  184.0750  179.5900  143.9990 N   0  0  0  0  0  0  0  0  0  0  0  0
  181.8460  178.9040  143.8500 C   0  0  0  0  0  2  0  0  0  0  0  0
  181.4200  177.7710  141.6510 C   0  0  0  0  0  3  0  0  0  0  0  0
  180.4230  179.9280  142.0740 C   0  0  0  0  0  3  0  0  0  0  0  0
  181.2110  178.8600  142.5000 C   0  0  0  0  0  0  0  0  0  0  0  0
  180.8340  177.7600  140.3770 C   0  0  0  0  0  0  0  0  0  0  0  0
  179.8510  179.8880  140.8030 C   0  0  0  0  0  3  0  0  0  0  0  0
  180.0660  178.8190  139.9910 N   0  0  0  0  0  0  0  0  0  0  0  0
  181.0370  176.6520  139.4810 N   0  0  0  0  0  0  0  0  0  0  0  0
  179.9580  176.2120  138.5990 C   0  0  0  0  0  1  0  0  0  0  0  0
  182.7800  175.3790  138.3770 C   0  0  0  0  0  2  0  0  0  0  0  0
  182.3080  175.9850  139.4640 C   0  0  0  0  0  3  0  0  0  0  0  0
  188.6980  177.4050  137.6230 C   0  0  2  0  0  3  0  0  0  0  0  0
  189.6510  176.2220  137.4510 C   0  0  0  0  0  1  0  0  0  0  0  0
  188.7360  178.2900  136.5190 O   0  0  0  0  0  0  0  0  0  0  0  0
  188.5350  177.5620  135.3340 C   0  0  0  0  0  2  0  0  0  0  0  0
  187.3430  177.9730  134.7340 O   0  0  0  0  0  1  0  0  0  0  0  0
  186.4640  177.8350  139.2230 O   0  0  0  0  0  0  0  0  0  0  0  0
  185.1480  177.7470  137.3540 O   0  0  0  0  0  1  0  0  0  0  0  0
  185.6850  178.5860  138.3340 C   0  0  1  0  0  3  0  0  0  0  0  0
  184.5830  179.2650  139.0760 C   0  0  0  0  0  0  0  0  0  0  0  0
  184.1910  180.5460  138.7100 O   0  0  0  0  0  0  0  0  0  0  0  0
  184.0180  178.6930  140.0440 O   0  0  0  0  0  1  0  0  0  0  0  0
  1 39  1  6  0  0  0
  1  4  1  0  0  0  0
  1  2  1  0  0  0  0
  2  5  1  0  0  0  0
  3  5  1  6  0  0  0
  3 25  1  0  0  0  0
  4 44  1  1  0  0  0
  4  3  1  0  0  0  0
  5 10  1  0  0  0  0
  6 13  1  0  0  0  0
  6  9  1  0  0  0  0
  7 12  1  0  0  0  0
  8 11  1  0  0  0  0
  9 15  1  0  0  0  0
 10 12  1  0  0  0  0
 10  8  2  0  0  0  0
 11  9  2  0  0  0  0
 12  6  2  0  0  0  0
 13 14  3  0  0  0  0
 15 16  1  0  0  0  0
 16 19  1  0  0  0  0
 18 19  1  0  0  0  0
 19 20  1  0  0  0  0
 19 17  1  0  0  0  0
 21 24  1  0  0  0  0
 22 27  1  6  0  0  0
 22 24  1  0  0  0  0
 23 22  1  0  0  0  0
 25 23  1  1  0  0  0
 25 21  1  0  0  0  0
 26 28  1  0  0  0  0
 26 27  2  0  0  0  0
 29 31  1  0  0  0  0
 30 31  2  0  0  0  0
 31 28  1  0  0  0  0
 32 29  2  0  0  0  0
 33 30  1  0  0  0  0
 34 32  1  0  0  0  0
 34 33  2  0  0  0  0
 35 32  1  0  0  0  0
 36 35  1  0  0  0  0
 37 38  2  0  0  0  0
 38 35  1  0  0  0  0
 39 40  1  6  0  0  0
 41 39  1  0  0  0  0
 42 41  1  0  0  0  0
 43 42  1  0  0  0  0
 46 45  1  6  0  0  0
 46 47  1  0  0  0  0
 46 44  1  0  0  0  0
 47 49  1  0  0  0  0
 48 47  2  0  0  0  0
M  END
>  <MODEL>
7

>  <REMARK>
 VINA RESULT:      -6.0      1.231      2.122
  Name = 
  17 active torsions:
  status: ('A' for Active; 'I' for Inactive)
    1  A    between atoms: C_2  and  N_48
    2  A    between atoms: C_5  and  O_6
    3  A    between atoms: C_5  and  C_7
    4  A    between atoms: O_6  and  C_25
    5  A    between atoms: N_9  and  C_13
    6  A    between atoms: N_9  and  C_31
    7  A    between atoms: C_12  and  C_20
    8  A    between atoms: C_14  and  C_45
    9  A    between atoms: C_15  and  O_32
   10  A    between atoms: N_21  and  C_46
   11  A    between atoms: N_23  and  C_40
   12  A    between atoms: C_24  and  C_44
   13  A    between atoms: C_27  and  C_49
   14  A    between atoms: C_29  and  C_46
   15  A    between atoms: O_32  and  C_44
   16  A    between atoms: C_38  and  N_42
   17  A    between atoms: N_42  and  C_49
                            x       y       z     vdW  Elec       q    Type
                         _______ _______ _______ _____ _____    ______ ____

>  <TORSDO>
F 17

$$$$
=
 OpenBabel10222417383D

 49 52  0  0  1  0  0  0  0  0999 V2000
  190.2320  177.5920  139.8210 C   0  0  2  0  0  3  0  0  0  0  0  0
  190.4090  176.8100  141.1140 C   0  0  0  0  0  2  0  0  0  0  0  0
  188.4270  178.1700  141.3100 C   0  0  2  0  0  3  0  0  0  0  0  0
  188.7720  178.0700  139.8170 C   0  0  2  0  0  3  0  0  0  0  0  0
  189.3660  177.2940  141.9950 N   0  0  0  0  0  0  0  0  0  0  0  0
  190.7330  176.5950  145.4190 C   0  0  0  0  0  0  0  0  0  0  0  0
  191.3360  175.6390  143.2350 N   0  0  0  0  0  1  0  0  0  0  0  0
  188.7750  178.1840  144.1870 C   0  0  0  0  0  3  0  0  0  0  0  0
  189.9550  177.4810  146.1900 C   0  0  0  0  0  0  0  0  0  0  0  0
  189.5520  177.3180  143.4130 C   0  0  0  0  0  0  0  0  0  0  0  0
  188.9750  178.2650  145.5640 C   0  0  0  0  0  3  0  0  0  0  0  0
  190.5360  176.5200  144.0270 C   0  0  0  0  0  0  0  0  0  0  0  0
  191.7390  175.7750  146.0580 C   0  0  0  0  0  0  0  0  0  0  0  0
  192.5420  175.1150  146.5710 N   0  0  0  0  0  0  0  0  0  0  0  0
  190.1620  177.5720  147.6050 N   0  0  0  0  0  2  0  0  0  0  0  0
  189.4850  178.5340  148.4670 C   0  0  0  0  0  2  0  0  0  0  0  0
  187.8480  178.2470  150.1460 F   0  0  0  0  0  0  0  0  0  0  0  0
  187.9410  176.7190  148.4920 F   0  0  0  0  0  0  0  0  0  0  0  0
  188.0790  178.0600  148.7970 C   0  0  0  0  0  0  0  0  0  0  0  0
  187.1540  178.7880  148.0750 F   0  0  0  0  0  0  0  0  0  0  0  0
  186.7200  177.5910  143.1230 C   0  0  0  0  0  2  0  0  0  0  0  0
  184.9890  179.1020  142.3700 C   0  0  2  0  0  3  0  0  0  0  0  0
  186.0530  179.0220  141.2840 C   0  0  0  0  0  2  0  0  0  0  0  0
  185.2850  177.9960  143.3650 C   0  0  0  0  0  2  0  0  0  0  0  0
  186.9580  177.8630  141.6500 C   0  0  1  0  0  3  0  0  0  0  0  0
  183.4530  177.8930  141.0990 N   0  0  0  0  0  0  0  0  0  0  0  0
  183.6840  178.8950  141.8010 N   0  0  0  0  0  0  0  0  0  0  0  0
  182.1450  177.6780  140.5320 C   0  0  0  0  0  2  0  0  0  0  0  0
  182.6240  175.8680  138.8600 C   0  0  0  0  0  3  0  0  0  0  0  0
  182.0010  178.0630  138.0700 C   0  0  0  0  0  3  0  0  0  0  0  0
  182.2520  177.1880  139.1260 C   0  0  0  0  0  0  0  0  0  0  0  0
  182.7420  175.4330  137.5320 C   0  0  0  0  0  0  0  0  0  0  0  0
  182.1230  177.6010  136.7600 C   0  0  0  0  0  3  0  0  0  0  0  0
  182.4870  176.3130  136.5210 N   0  0  0  0  0  0  0  0  0  0  0  0
  183.1290  174.0810  137.2310 N   0  0  0  0  0  0  0  0  0  0  0  0
  184.4780  173.6130  137.5470 C   0  0  0  0  0  1  0  0  0  0  0  0
  181.0610  172.8160  137.2240 C   0  0  0  0  0  2  0  0  0  0  0  0
  182.1800  173.1970  136.6140 C   0  0  0  0  0  3  0  0  0  0  0  0
  190.6480  176.7880  138.5740 C   0  0  2  0  0  3  0  0  0  0  0  0
  192.0370  176.1600  138.6990 C   0  0  0  0  0  1  0  0  0  0  0  0
  190.4890  177.5050  137.3650 O   0  0  0  0  0  0  0  0  0  0  0  0
  190.5670  176.6110  136.2830 C   0  0  0  0  0  2  0  0  0  0  0  0
  189.7580  177.0700  135.2420 O   0  0  0  0  0  1  0  0  0  0  0  0
  187.9520  177.1360  139.1640 O   0  0  0  0  0  0  0  0  0  0  0  0
  187.8580  178.9730  137.8040 O   0  0  0  0  0  1  0  0  0  0  0  0
  187.1360  177.8900  138.3110 C   0  0  1  0  0  3  0  0  0  0  0  0
  186.6520  177.0360  137.1870 C   0  0  0  0  0  0  0  0  0  0  0  0
  187.2610  175.8120  136.9390 O   0  0  0  0  0  1  0  0  0  0  0  0
  185.7100  177.4250  136.4490 O   0  0  0  0  0  0  0  0  0  0  0  0
  1 39  1  6  0  0  0
  1  2  1  0  0  0  0
  2  5  1  0  0  0  0
  3 25  1  0  0  0  0
  3  5  1  1  0  0  0
  4 44  1  6  0  0  0
  4  1  1  0  0  0  0
  4  3  1  0  0  0  0
  5 10  1  0  0  0  0
  6 13  1  0  0  0  0
  6  9  1  0  0  0  0
  7 12  1  0  0  0  0
  8 11  1  0  0  0  0
  9 15  1  0  0  0  0
 10 12  1  0  0  0  0
 10  8  2  0  0  0  0
 11  9  2  0  0  0  0
 12  6  2  0  0  0  0
 13 14  3  0  0  0  0
 15 16  1  0  0  0  0
 16 19  1  0  0  0  0
 18 19  1  0  0  0  0
 19 17  1  0  0  0  0
 20 19  1  0  0  0  0
 21 24  1  0  0  0  0
 22 27  1  6  0  0  0
 22 24  1  0  0  0  0
 23 22  1  0  0  0  0
 25 23  1  1  0  0  0
 25 21  1  0  0  0  0
 26 27  2  0  0  0  0
 28 26  1  0  0  0  0
 29 31  1  0  0  0  0
 30 31  2  0  0  0  0
 31 28  1  0  0  0  0
 32 29  2  0  0  0  0
 33 30  1  0  0  0  0
 34 33  2  0  0  0  0
 34 32  1  0  0  0  0
 35 32  1  0  0  0  0
 35 36  1  0  0  0  0
 38 37  2  0  0  0  0
 38 35  1  0  0  0  0
 39 40  1  1  0  0  0
 41 39  1  0  0  0  0
 42 41  1  0  0  0  0
 43 42  1  0  0  0  0
 46 45  1  6  0  0  0
 46 44  1  0  0  0  0
 47 46  1  0  0  0  0
 48 47  1  0  0  0  0
 49 47  2  0  0  0  0
M  END
>  <MODEL>
8

>  <REMARK>
 VINA RESULT:      -5.9      2.927      4.196
  Name = 
  17 active torsions:
  status: ('A' for Active; 'I' for Inactive)
    1  A    between atoms: C_2  and  N_48
    2  A    between atoms: C_5  and  O_6
    3  A    between atoms: C_5  and  C_7
    4  A    between atoms: O_6  and  C_25
    5  A    between atoms: N_9  and  C_13
    6  A    between atoms: N_9  and  C_31
    7  A    between atoms: C_12  and  C_20
    8  A    between atoms: C_14  and  C_45
    9  A    between atoms: C_15  and  O_32
   10  A    between atoms: N_21  and  C_46
   11  A    between atoms: N_23  and  C_40
   12  A    between atoms: C_24  and  C_44
   13  A    between atoms: C_27  and  C_49
   14  A    between atoms: C_29  and  C_46
   15  A    between atoms: O_32  and  C_44
   16  A    between atoms: C_38  and  N_42
   17  A    between atoms: N_42  and  C_49
                            x       y       z     vdW  Elec       q    Type
                         _______ _______ _______ _____ _____    ______ ____

>  <TORSDO>
F 17

$$$$
=
 OpenBabel10222417383D

 49 52  0  0  1  0  0  0  0  0999 V2000
  189.5710  177.0830  138.2850 C   0  0  2  0  0  3  0  0  0  0  0  0
  189.6490  176.4080  139.6470 C   0  0  0  0  0  2  0  0  0  0  0  0
  187.9080  178.0770  139.7190 C   0  0  2  0  0  3  0  0  0  0  0  0
  188.2050  177.7830  138.2410 C   0  0  2  0  0  3  0  0  0  0  0  0
  188.7120  177.1320  140.4810 N   0  0  0  0  0  0  0  0  0  0  0  0
  190.2660  178.0180  143.7800 C   0  0  0  0  0  0  0  0  0  0  0  0
  191.1110  178.3100  141.4890 N   0  0  0  0  0  1  0  0  0  0  0  0
  187.9340  176.8270  142.7730 C   0  0  0  0  0  3  0  0  0  0  0  0
  189.2540  177.5900  144.6620 C   0  0  0  0  0  0  0  0  0  0  0  0
  188.9260  177.2600  141.8900 C   0  0  0  0  0  0  0  0  0  0  0  0
  188.0960  176.9900  144.1470 C   0  0  0  0  0  3  0  0  0  0  0  0
  190.0980  177.8590  142.3910 C   0  0  0  0  0  0  0  0  0  0  0  0
  191.4690  178.6280  144.3030 C   0  0  0  0  0  0  0  0  0  0  0  0
  192.4350  179.1150  144.7200 N   0  0  0  0  0  0  0  0  0  0  0  0
  189.4150  177.7630  146.0760 N   0  0  0  0  0  2  0  0  0  0  0  0
  188.5640  177.1270  147.0750 C   0  0  0  0  0  2  0  0  0  0  0  0
  189.1750  178.9590  148.4360 F   0  0  0  0  0  0  0  0  0  0  0  0
  187.6780  177.4890  149.2560 F   0  0  0  0  0  0  0  0  0  0  0  0
  188.1120  178.1380  148.1160 C   0  0  0  0  0  0  0  0  0  0  0  0
  187.0820  178.9070  147.6100 F   0  0  0  0  0  0  0  0  0  0  0  0
  186.0820  178.8340  141.3410 C   0  0  0  0  0  2  0  0  0  0  0  0
  184.4270  179.3750  139.6650 C   0  0  2  0  0  3  0  0  0  0  0  0
  185.5540  178.6110  138.9860 C   0  0  0  0  0  2  0  0  0  0  0  0
  184.6420  179.2500  141.1610 C   0  0  0  0  0  2  0  0  0  0  0  0
  186.4160  178.0380  140.0940 C   0  0  1  0  0  3  0  0  0  0  0  0
  183.0350  177.5630  139.1980 N   0  0  0  0  0  0  0  0  0  0  0  0
  183.1560  178.7970  139.3160 N   0  0  0  0  0  0  0  0  0  0  0  0
  181.7620  176.9790  138.8540 C   0  0  0  0  0  2  0  0  0  0  0  0
  182.9510  174.9470  137.9830 C   0  0  0  0  0  3  0  0  0  0  0  0
  181.0870  175.8420  136.7380 C   0  0  0  0  0  3  0  0  0  0  0  0
  181.9340  175.8940  137.8430 C   0  0  0  0  0  0  0  0  0  0  0  0
  183.1110  173.9500  137.0110 C   0  0  0  0  0  0  0  0  0  0  0  0
  181.2670  174.8370  135.7890 C   0  0  0  0  0  3  0  0  0  0  0  0
  182.2640  173.9240  135.9420 N   0  0  0  0  0  0  0  0  0  0  0  0
  184.1540  172.9650  137.1270 N   0  0  0  0  0  0  0  0  0  0  0  0
  183.8900  171.5690  136.7820 C   0  0  0  0  0  1  0  0  0  0  0  0
  186.5730  172.8040  137.1410 C   0  0  0  0  0  2  0  0  0  0  0  0
  185.4530  173.3670  137.5880 C   0  0  0  0  0  3  0  0  0  0  0  0
  189.8320  176.1100  137.1200 C   0  0  2  0  0  3  0  0  0  0  0  0
  190.0150  174.6610  137.5750 C   0  0  0  0  0  1  0  0  0  0  0  0
  190.8670  176.5360  136.2540 O   0  0  0  0  0  0  0  0  0  0  0  0
  192.0610  175.8820  136.6030 C   0  0  0  0  0  2  0  0  0  0  0  0
  192.8050  176.6990  137.4580 O   0  0  0  0  0  1  0  0  0  0  0  0
  187.2350  176.9320  137.6850 O   0  0  0  0  0  0  0  0  0  0  0  0
  187.6990  178.3990  135.9920 O   0  0  0  0  0  1  0  0  0  0  0  0
  186.6970  177.6390  136.6020 C   0  0  1  0  0  3  0  0  0  0  0  0
  186.1150  176.6860  135.6140 C   0  0  0  0  0  0  0  0  0  0  0  0
  184.7780  176.7960  135.2540 O   0  0  0  0  0  1  0  0  0  0  0  0
  186.8210  175.7690  135.1180 O   0  0  0  0  0  0  0  0  0  0  0  0
  1 39  1  6  0  0  0
  1  2  1  0  0  0  0
  2  5  1  0  0  0  0
  3 25  1  0  0  0  0
  3  5  1  1  0  0  0
  4 44  1  1  0  0  0
  4  1  1  0  0  0  0
  4  3  1  0  0  0  0
  5 10  1  0  0  0  0
  6 13  1  0  0  0  0
  6  9  1  0  0  0  0
  7 12  1  0  0  0  0
  8 11  1  0  0  0  0
  9 15  1  0  0  0  0
 10 12  1  0  0  0  0
 10  8  2  0  0  0  0
 11  9  2  0  0  0  0
 12  6  2  0  0  0  0
 13 14  3  0  0  0  0
 15 16  1  0  0  0  0
 16 19  1  0  0  0  0
 19 17  1  0  0  0  0
 19 18  1  0  0  0  0
 20 19  1  0  0  0  0
 22 27  1  1  0  0  0
 22 24  1  0  0  0  0
 23 22  1  0  0  0  0
 24 21  1  0  0  0  0
 25 23  1  6  0  0  0
 25 21  1  0  0  0  0
 26 27  2  0  0  0  0
 28 26  1  0  0  0  0
 30 31  2  0  0  0  0
 31 29  1  0  0  0  0
 31 28  1  0  0  0  0
 32 35  1  0  0  0  0
 32 29  2  0  0  0  0
 33 34  2  0  0  0  0
 33 30  1  0  0  0  0
 34 32  1  0  0  0  0
 35 38  1  0  0  0  0
 36 35  1  0  0  0  0
 37 38  2  0  0  0  0
 39 40  1  1  0  0  0
 41 42  1  0  0  0  0
 41 39  1  0  0  0  0
 42 43  1  0  0  0  0
 46 45  1  6  0  0  0
 46 44  1  0  0  0  0
 47 46  1  0  0  0  0
 48 47  1  0  0  0  0
 49 47  2  0  0  0  0
M  END
>  <MODEL>
9

>  <REMARK>
 VINA RESULT:      -5.8      3.414      5.173
  Name = 
  17 active torsions:
  status: ('A' for Active; 'I' for Inactive)
    1  A    between atoms: C_2  and  N_48
    2  A    between atoms: C_5  and  O_6
    3  A    between atoms: C_5  and  C_7
    4  A    between atoms: O_6  and  C_25
    5  A    between atoms: N_9  and  C_13
    6  A    between atoms: N_9  and  C_31
    7  A    between atoms: C_12  and  C_20
    8  A    between atoms: C_14  and  C_45
    9  A    between atoms: C_15  and  O_32
   10  A    between atoms: N_21  and  C_46
   11  A    between atoms: N_23  and  C_40
   12  A    between atoms: C_24  and  C_44
   13  A    between atoms: C_27  and  C_49
   14  A    between atoms: C_29  and  C_46
   15  A    between atoms: O_32  and  C_44
   16  A    between atoms: C_38  and  N_42
   17  A    between atoms: N_42  and  C_49
                            x       y       z     vdW  Elec       q    Type
                         _______ _______ _______ _____ _____    ______ ____

>  <TORSDO>
F 17

$$$$
