=
 OpenBabel10222416113D

 26 30  0  0  1  0  0  0  0  0999 V2000
  189.3270  175.9200  142.4410 C   0  0  0  0  0  1  0  0  0  0  0  0
  191.0020  177.9670  143.2000 S   0  0  0  0  0  0  0  0  0  0  0  0
  188.2900  178.1900  142.9320 C   0  0  2  0  0  3  0  0  0  0  0  0
  186.9100  177.8300  142.3680 C   0  0  2  0  0  3  0  0  0  0  0  0
  190.4800  177.6220  144.9010 C   0  0  0  0  0  0  0  0  0  0  0  0
  188.7800  177.5070  146.6620 C   0  0  0  0  0  0  0  0  0  0  0  0
  189.4780  177.4340  142.3220 C   0  0  2  0  0  0  0  0  0  0  0  0
  189.7690  177.1770  147.5910 C   0  0  0  0  0  3  0  0  0  0  0  0
  188.4540  177.5150  139.9430 C   0  0  1  0  0  3  0  0  0  0  0  0
  189.6530  177.8330  140.8470 C   0  0  0  0  0  2  0  0  0  0  0  0
  186.6430  178.6820  141.1670 C   0  0  0  0  0  0  0  0  0  0  0  0
  184.7450  177.9640  143.5260 O   0  0  0  0  0  0  0  0  0  0  0  0
  187.4490  178.5290  140.0360 O   0  0  0  0  0  0  0  0  0  0  0  0
  191.4510  177.2740  145.8450 C   0  0  0  0  0  3  0  0  0  0  0  0
  185.7140  179.5800  141.1730 N   0  0  0  0  0  2  0  0  0  0  0  0
  187.4240  177.5400  147.0440 C   0  0  0  0  0  3  0  0  0  0  0  0
  186.8080  177.9860  144.7630 C   0  0  0  0  0  0  0  0  0  0  0  0
  189.1430  177.7450  145.3130 C   0  0  0  0  0  0  0  0  0  0  0  0
  188.1310  178.0020  144.3960 C   0  0  0  0  0  0  0  0  0  0  0  0
  186.0040  177.9900  143.5580 C   0  0  0  0  0  0  0  0  0  0  0  0
  191.1040  177.0570  147.1910 C   0  0  0  0  0  0  0  0  0  0  0  0
  186.4190  177.7620  146.0850 C   0  0  0  0  0  3  0  0  0  0  0  0
  188.9280  177.4180  138.5330 C   0  0  0  0  0  3  0  0  0  0  0  0
  189.2770  178.4210  137.9320 O   0  0  0  0  0  0  0  0  0  0  0  0
  192.0660  176.7210  148.1480 O   0  0  0  0  0  0  0  0  0  0  0  0
  192.8320  175.5250  148.0800 C   0  0  0  0  0  1  0  0  0  0  0  0
  2  5  1  0  0  0  0
  3 19  1  1  0  0  0
  4 11  1  6  0  0  0
  4  3  1  0  0  0  0
  4 20  1  0  0  0  0
  5 18  2  0  0  0  0
  5 14  1  0  0  0  0
  6 16  1  0  0  0  0
  6  8  2  0  0  0  0
  7  1  1  1  0  0  0
  7  3  1  0  0  0  0
  7  2  1  0  0  0  0
  9 23  1  6  0  0  0
  9 13  1  0  0  0  0
  9 10  1  0  0  0  0
 10  7  1  0  0  0  0
 11 15  2  0  0  0  0
 12 20  2  0  0  0  0
 13 11  1  0  0  0  0
 14 21  2  0  0  0  0
 17 22  1  0  0  0  0
 18  6  1  0  0  0  0
 19 17  2  0  0  0  0
 19 18  1  0  0  0  0
 20 17  1  0  0  0  0
 21  8  1  0  0  0  0
 21 25  1  0  0  0  0
 22 16  2  0  0  0  0
 24 23  2  0  0  0  0
 26 25  1  0  0  0  0
M  END
>  <MODEL>
1

>  <REMARK>
 VINA RESULT:     -10.3      0.000      0.000
  Name = 
  2 active torsions:
  status: ('A' for Active; 'I' for Inactive)
    1  A    between atoms: C_6  and  C_11
    2  A    between atoms: O_8  and  C_24
                            x       y       z     vdW  Elec       q    Type
                         _______ _______ _______ _____ _____    ______ ____

>  <TORSDO>
F 2

$$$$
=
 OpenBabel10222416113D

 26 30  0  0  1  0  0  0  0  0999 V2000
  189.4970  179.0280  143.4990 C   0  0  0  0  0  1  0  0  0  0  0  0
  187.5130  177.1940  142.9760 S   0  0  0  0  0  0  0  0  0  0  0  0
  189.5400  176.8270  144.7740 C   0  0  2  0  0  3  0  0  0  0  0  0
  190.9420  177.0390  145.3580 C   0  0  2  0  0  3  0  0  0  0  0  0
  186.7110  177.7870  144.4900 C   0  0  0  0  0  0  0  0  0  0  0  0
  186.6460  178.1170  146.9170 C   0  0  0  0  0  0  0  0  0  0  0  0
  189.2620  177.5210  143.4340 C   0  0  2  0  0  0  0  0  0  0  0  0
  185.3520  178.6280  146.8100 C   0  0  0  0  0  3  0  0  0  0  0  0
  191.6470  177.0220  142.5530 C   0  0  1  0  0  3  0  0  0  0  0  0
  190.1340  176.8980  142.3300 C   0  0  0  0  0  2  0  0  0  0  0  0
  191.8590  175.9960  144.8000 C   0  0  0  0  0  0  0  0  0  0  0  0
  191.5900  177.0100  147.7300 O   0  0  0  0  0  0  0  0  0  0  0  0
  192.1300  175.9970  143.4290 O   0  0  0  0  0  0  0  0  0  0  0  0
  185.4210  178.3180  144.4040 C   0  0  0  0  0  3  0  0  0  0  0  0
  192.3670  175.0760  145.5510 N   0  0  0  0  0  2  0  0  0  0  0  0
  187.3030  178.0930  148.1630 C   0  0  0  0  0  3  0  0  0  0  0  0
  189.2860  177.2650  147.0840 C   0  0  0  0  0  0  0  0  0  0  0  0
  187.3220  177.6790  145.7500 C   0  0  0  0  0  0  0  0  0  0  0  0
  188.6340  177.2410  145.8770 C   0  0  0  0  0  0  0  0  0  0  0  0
  190.6960  177.0370  146.8420 C   0  0  0  0  0  0  0  0  0  0  0  0
  184.7340  178.7330  145.5580 C   0  0  0  0  0  0  0  0  0  0  0  0
  188.6460  177.6820  148.2520 C   0  0  0  0  0  3  0  0  0  0  0  0
  192.3380  176.9100  141.2370 C   0  0  0  0  0  3  0  0  0  0  0  0
  191.9740  177.5930  140.2930 O   0  0  0  0  0  0  0  0  0  0  0  0
  183.4390  179.2550  145.4900 O   0  0  0  0  0  0  0  0  0  0  0  0
  182.5940  179.0670  144.3620 C   0  0  0  0  0  1  0  0  0  0  0  0
  2  7  1  0  0  0  0
  2  5  1  0  0  0  0
  3  4  1  0  0  0  0
  3 19  1  1  0  0  0
  4 11  1  1  0  0  0
  4 20  1  0  0  0  0
  5 18  1  0  0  0  0
  6 16  1  0  0  0  0
  7  1  1  1  0  0  0
  7  3  1  0  0  0  0
  8  6  1  0  0  0  0
  9 23  1  6  0  0  0
  9 13  1  0  0  0  0
 10  9  1  0  0  0  0
 10  7  1  0  0  0  0
 11 15  2  0  0  0  0
 13 11  1  0  0  0  0
 14  5  2  0  0  0  0
 14 21  1  0  0  0  0
 16 22  2  0  0  0  0
 17 22  1  0  0  0  0
 18 19  1  0  0  0  0
 18  6  2  0  0  0  0
 19 17  2  0  0  0  0
 20 17  1  0  0  0  0
 20 12  2  0  0  0  0
 21  8  2  0  0  0  0
 24 23  2  0  0  0  0
 25 21  1  0  0  0  0
 26 25  1  0  0  0  0
M  END
>  <MODEL>
2

>  <REMARK>
 VINA RESULT:      -9.9      2.807      5.397
  Name = 
  2 active torsions:
  status: ('A' for Active; 'I' for Inactive)
    1  A    between atoms: C_6  and  C_11
    2  A    between atoms: O_8  and  C_24
                            x       y       z     vdW  Elec       q    Type
                         _______ _______ _______ _____ _____    ______ ____

>  <TORSDO>
F 2

$$$$
=
 OpenBabel10222416113D

 26 30  0  0  1  0  0  0  0  0999 V2000
  187.5710  176.3440  143.1860 C   0  0  0  0  0  1  0  0  0  0  0  0
  189.6570  178.1350  143.3090 S   0  0  0  0  0  0  0  0  0  0  0  0
  187.1740  178.5570  144.3760 C   0  0  2  0  0  3  0  0  0  0  0  0
  185.6550  178.3770  144.4880 C   0  0  2  0  0  3  0  0  0  0  0  0
  189.9270  177.5420  145.0010 C   0  0  0  0  0  0  0  0  0  0  0  0
  189.2170  177.2330  147.3250 C   0  0  0  0  0  0  0  0  0  0  0  0
  187.8460  177.8450  143.1940 C   0  0  2  0  0  0  0  0  0  0  0  0
  190.4680  176.6970  147.6340 C   0  0  0  0  0  3  0  0  0  0  0  0
  185.8710  178.3810  141.6040 C   0  0  1  0  0  3  0  0  0  0  0  0
  187.3800  178.4730  141.8690 C   0  0  0  0  0  2  0  0  0  0  0  0
  184.9830  179.4310  143.6650 C   0  0  0  0  0  0  0  0  0  0  0  0
  184.2940  178.4410  146.5340 O   0  0  0  0  0  0  0  0  0  0  0  0
  185.1590  179.4220  142.2790 O   0  0  0  0  0  0  0  0  0  0  0  0
  191.1680  176.9850  145.3280 C   0  0  0  0  0  3  0  0  0  0  0  0
  184.2830  180.3680  144.2150 N   0  0  0  0  0  2  0  0  0  0  0  0
  188.2010  177.2810  148.3010 C   0  0  0  0  0  3  0  0  0  0  0  0
  186.6770  178.1360  146.6490 C   0  0  0  0  0  0  0  0  0  0  0  0
  188.9530  177.6720  146.0030 C   0  0  0  0  0  0  0  0  0  0  0  0
  187.6770  178.1370  145.7090 C   0  0  0  0  0  0  0  0  0  0  0  0
  185.4210  178.3880  145.9730 C   0  0  0  0  0  0  0  0  0  0  0  0
  191.4470  176.5680  146.6420 C   0  0  0  0  0  0  0  0  0  0  0  0
  186.9070  177.7180  147.9600 C   0  0  0  0  0  3  0  0  0  0  0  0
  185.6340  178.4930  140.1360 C   0  0  0  0  0  3  0  0  0  0  0  0
  185.0810  179.4790  139.6770 O   0  0  0  0  0  0  0  0  0  0  0  0
  192.6860  176.0210  146.9860 O   0  0  0  0  0  0  0  0  0  0  0  0
  193.0330  175.6860  148.3240 C   0  0  0  0  0  1  0  0  0  0  0  0
  2  5  1  0  0  0  0
  3  4  1  0  0  0  0
  3 19  1  1  0  0  0
  4 11  1  6  0  0  0
  4 20  1  0  0  0  0
  5 14  2  0  0  0  0
  5 18  1  0  0  0  0
  6  8  1  0  0  0  0
  6 16  1  0  0  0  0
  7  1  1  1  0  0  0
  7  2  1  0  0  0  0
  7  3  1  0  0  0  0
  9 23  1  6  0  0  0
  9 10  1  0  0  0  0
  9 13  1  0  0  0  0
 10  7  1  0  0  0  0
 11 15  2  0  0  0  0
 13 11  1  0  0  0  0
 14 21  1  0  0  0  0
 17 22  1  0  0  0  0
 18  6  2  0  0  0  0
 19 18  1  0  0  0  0
 19 17  2  0  0  0  0
 20 12  2  0  0  0  0
 20 17  1  0  0  0  0
 21 25  1  0  0  0  0
 21  8  2  0  0  0  0
 22 16  2  0  0  0  0
 24 23  2  0  0  0  0
 25 26  1  0  0  0  0
M  END
>  <MODEL>
3

>  <REMARK>
 VINA RESULT:      -9.6      1.884      2.303
  Name = 
  2 active torsions:
  status: ('A' for Active; 'I' for Inactive)
    1  A    between atoms: C_6  and  C_11
    2  A    between atoms: O_8  and  C_24
                            x       y       z     vdW  Elec       q    Type
                         _______ _______ _______ _____ _____    ______ ____

>  <TORSDO>
F 2

$$$$
=
 OpenBabel10222416113D

 26 30  0  0  1  0  0  0  0  0999 V2000
  190.3260  178.7020  144.4550 C   0  0  0  0  0  1  0  0  0  0  0  0
  189.9560  176.4400  142.9300 S   0  0  0  0  0  0  0  0  0  0  0  0
  188.4390  177.1230  145.1000 C   0  0  2  0  0  3  0  0  0  0  0  0
  188.1560  177.7990  146.4480 C   0  0  2  0  0  3  0  0  0  0  0  0
  188.6110  177.3390  142.1130 C   0  0  0  0  0  0  0  0  0  0  0  0
  186.4300  178.4550  142.1320 C   0  0  0  0  0  0  0  0  0  0  0  0
  189.8770  177.2490  144.5790 C   0  0  2  0  0  0  0  0  0  0  0  0
  186.5090  178.6280  140.7490 C   0  0  0  0  0  3  0  0  0  0  0  0
  190.8820  176.9700  146.9510 C   0  0  1  0  0  3  0  0  0  0  0  0
  190.8390  176.4760  145.4980 C   0  0  0  0  0  2  0  0  0  0  0  0
  188.4800  176.8350  147.5470 C   0  0  0  0  0  0  0  0  0  0  0  0
  186.0140  178.7090  147.2390 O   0  0  0  0  0  0  0  0  0  0  0  0
  189.8040  176.4240  147.7190 O   0  0  0  0  0  0  0  0  0  0  0  0
  188.6780  177.5380  140.7310 C   0  0  0  0  0  3  0  0  0  0  0  0
  187.5550  176.3480  148.3070 N   0  0  0  0  0  2  0  0  0  0  0  0
  185.3460  178.9900  142.8570 C   0  0  0  0  0  3  0  0  0  0  0  0
  186.3750  178.2600  144.9030 C   0  0  0  0  0  0  0  0  0  0  0  0
  187.4810  177.7920  142.8130 C   0  0  0  0  0  0  0  0  0  0  0  0
  187.4080  177.6960  144.1970 C   0  0  0  0  0  0  0  0  0  0  0  0
  186.7300  178.2520  146.3080 C   0  0  0  0  0  0  0  0  0  0  0  0
  187.6290  178.1740  140.0420 C   0  0  0  0  0  0  0  0  0  0  0  0
  185.3220  178.9130  144.2620 C   0  0  0  0  0  3  0  0  0  0  0  0
  192.1790  176.5580  147.5600 C   0  0  0  0  0  3  0  0  0  0  0  0
  192.6330  175.4460  147.3440 O   0  0  0  0  0  0  0  0  0  0  0  0
  187.6760  178.3700  138.6590 O   0  0  0  0  0  0  0  0  0  0  0  0
  188.8880  178.6190  137.9600 C   0  0  0  0  0  1  0  0  0  0  0  0
  2  7  1  0  0  0  0
  3 19  1  6  0  0  0
  3  4  1  0  0  0  0
  4 20  1  6  0  0  0
  4 11  1  0  0  0  0
  5 18  1  0  0  0  0
  5  2  1  0  0  0  0
  6 18  2  0  0  0  0
  6 16  1  0  0  0  0
  7  1  1  6  0  0  0
  7  3  1  0  0  0  0
  7 10  1  0  0  0  0
  8  6  1  0  0  0  0
  9 23  1  1  0  0  0
  9 13  1  0  0  0  0
 10  9  1  0  0  0  0
 11 13  1  0  0  0  0
 11 15  2  0  0  0  0
 14  5  2  0  0  0  0
 16 22  2  0  0  0  0
 17 20  1  0  0  0  0
 18 19  1  0  0  0  0
 19 17  2  0  0  0  0
 20 12  2  0  0  0  0
 21 14  1  0  0  0  0
 21  8  2  0  0  0  0
 22 17  1  0  0  0  0
 24 23  2  0  0  0  0
 25 21  1  0  0  0  0
 26 25  1  0  0  0  0
M  END
>  <MODEL>
4

>  <REMARK>
 VINA RESULT:      -9.4      2.080      6.227
  Name = 
  2 active torsions:
  status: ('A' for Active; 'I' for Inactive)
    1  A    between atoms: C_6  and  C_11
    2  A    between atoms: O_8  and  C_24
                            x       y       z     vdW  Elec       q    Type
                         _______ _______ _______ _____ _____    ______ ____

>  <TORSDO>
F 2

$$$$
=
 OpenBabel10222416113D

 26 30  0  0  1  0  0  0  0  0999 V2000
  184.9290  180.1390  144.5900 C   0  0  0  0  0  1  0  0  0  0  0  0
  185.0200  177.6610  145.7860 S   0  0  0  0  0  0  0  0  0  0  0  0
  185.0760  178.0930  143.0860 C   0  0  2  0  0  3  0  0  0  0  0  0
  184.7890  178.8610  141.7900 C   0  0  2  0  0  3  0  0  0  0  0  0
  186.8100  177.7070  145.5040 C   0  0  0  0  0  0  0  0  0  0  0  0
  188.7680  177.7740  144.0330 C   0  0  0  0  0  0  0  0  0  0  0  0
  184.4820  178.6960  144.3660 C   0  0  2  0  0  0  0  0  0  0  0  0
  189.6040  177.6600  145.1450 C   0  0  0  0  0  3  0  0  0  0  0  0
  182.2970  179.3890  143.1580 C   0  0  1  0  0  3  0  0  0  0  0  0
  182.9460  178.6220  144.3180 C   0  0  0  0  0  2  0  0  0  0  0  0
  183.4850  178.3860  141.2280 C   0  0  0  0  0  0  0  0  0  0  0  0
  186.1740  178.9300  139.7600 O   0  0  0  0  0  0  0  0  0  0  0  0
  182.3120  178.6210  141.9520 O   0  0  0  0  0  0  0  0  0  0  0  0
  187.6660  177.6110  146.6060 C   0  0  0  0  0  3  0  0  0  0  0  0
  183.4300  177.7320  140.1160 N   0  0  0  0  0  2  0  0  0  0  0  0
  189.3130  177.9450  142.7450 C   0  0  0  0  0  3  0  0  0  0  0  0
  187.0930  178.1810  141.8530 C   0  0  0  0  0  0  0  0  0  0  0  0
  187.3620  177.7820  144.2150 C   0  0  0  0  0  0  0  0  0  0  0  0
  186.5570  177.9670  143.0990 C   0  0  0  0  0  0  0  0  0  0  0  0
  186.0310  178.6280  140.9740 C   0  0  0  0  0  0  0  0  0  0  0  0
  189.0620  177.5800  146.4330 C   0  0  0  0  0  0  0  0  0  0  0  0
  188.4720  178.1710  141.6400 C   0  0  0  0  0  3  0  0  0  0  0  0
  180.8860  179.7060  143.5230 C   0  0  0  0  0  3  0  0  0  0  0  0
  180.2440  180.5030  142.8590 O   0  0  0  0  0  0  0  0  0  0  0  0
  189.9300  177.4720  147.5230 O   0  0  0  0  0  0  0  0  0  0  0  0
  191.1550  176.7530  147.4610 C   0  0  0  0  0  1  0  0  0  0  0  0
  3 19  1  1  0  0  0
  3  7  1  0  0  0  0
  4 20  1  6  0  0  0
  4  3  1  0  0  0  0
  5  2  1  0  0  0  0
  5 14  1  0  0  0  0
  6 18  1  0  0  0  0
  6  8  2  0  0  0  0
  7  1  1  1  0  0  0
  7  2  1  0  0  0  0
  8 21  1  0  0  0  0
  9 23  1  1  0  0  0
  9 10  1  0  0  0  0
 10  7  1  0  0  0  0
 11  4  1  0  0  0  0
 11 13  1  0  0  0  0
 12 20  2  0  0  0  0
 13  9  1  0  0  0  0
 15 11  2  0  0  0  0
 16  6  1  0  0  0  0
 17 19  2  0  0  0  0
 18  5  2  0  0  0  0
 19 18  1  0  0  0  0
 20 17  1  0  0  0  0
 21 14  2  0  0  0  0
 21 25  1  0  0  0  0
 22 17  1  0  0  0  0
 22 16  2  0  0  0  0
 24 23  2  0  0  0  0
 26 25  1  0  0  0  0
M  END
>  <MODEL>
5

>  <REMARK>
 VINA RESULT:      -8.8      2.649      4.964
  Name = 
  2 active torsions:
  status: ('A' for Active; 'I' for Inactive)
    1  A    between atoms: C_6  and  C_11
    2  A    between atoms: O_8  and  C_24
                            x       y       z     vdW  Elec       q    Type
                         _______ _______ _______ _____ _____    ______ ____

>  <TORSDO>
F 2

$$$$
=
 OpenBabel10222416113D

 26 30  0  0  1  0  0  0  0  0999 V2000
  189.8250  175.8260  142.1050 C   0  0  0  0  0  1  0  0  0  0  0  0
  190.7150  177.8810  143.7050 S   0  0  0  0  0  0  0  0  0  0  0  0
  189.1270  178.1970  141.5010 C   0  0  2  0  0  3  0  0  0  0  0  0
  188.5550  177.8200  140.1280 C   0  0  2  0  0  3  0  0  0  0  0  0
  189.0770  177.8470  144.4800 C   0  0  0  0  0  0  0  0  0  0  0  0
  186.6420  178.1090  144.4060 C   0  0  0  0  0  0  0  0  0  0  0  0
  190.2480  177.2910  142.0280 C   0  0  2  0  0  0  0  0  0  0  0  0
  186.5790  177.8860  145.7830 C   0  0  0  0  0  3  0  0  0  0  0  0
  191.3010  177.0330  139.6750 C   0  0  1  0  0  3  0  0  0  0  0  0
  191.4980  177.4330  141.1430 C   0  0  0  0  0  2  0  0  0  0  0  0
  189.3800  178.4770  139.0660 C   0  0  0  0  0  0  0  0  0  0  0  0
  186.2840  178.2530  139.2900 O   0  0  0  0  0  0  0  0  0  0  0  0
  190.7180  178.0990  138.9190 O   0  0  0  0  0  0  0  0  0  0  0  0
  188.9890  177.6080  145.8550 C   0  0  0  0  0  3  0  0  0  0  0  0
  188.8930  179.4100  138.3170 N   0  0  0  0  0  2  0  0  0  0  0  0
  185.4610  178.2740  143.6550 C   0  0  0  0  0  3  0  0  0  0  0  0
  186.7730  178.3720  141.6430 C   0  0  0  0  0  0  0  0  0  0  0  0
  187.9020  178.1040  143.7560 C   0  0  0  0  0  0  0  0  0  0  0  0
  187.9280  178.2590  142.3760 C   0  0  0  0  0  0  0  0  0  0  0  0
  187.1090  178.2200  140.2420 C   0  0  0  0  0  0  0  0  0  0  0  0
  187.7460  177.6340  146.5130 C   0  0  0  0  0  0  0  0  0  0  0  0
  185.5180  178.3870  142.2540 C   0  0  0  0  0  3  0  0  0  0  0  0
  192.6260  176.6820  139.0900 C   0  0  0  0  0  3  0  0  0  0  0  0
  193.6530  177.0960  139.6040 O   0  0  0  0  0  0  0  0  0  0  0  0
  187.6430  177.4090  147.8890 O   0  0  0  0  0  0  0  0  0  0  0  0
  188.4500  178.0910  148.8400 C   0  0  0  0  0  1  0  0  0  0  0  0
  2  5  1  0  0  0  0
  3  7  1  0  0  0  0
  3 19  1  1  0  0  0
  4 11  1  6  0  0  0
  4 20  1  0  0  0  0
  4  3  1  0  0  0  0
  5 14  1  0  0  0  0
  6  8  2  0  0  0  0
  7  1  1  1  0  0  0
  7  2  1  0  0  0  0
  8 21  1  0  0  0  0
  9 23  1  6  0  0  0
  9 10  1  0  0  0  0
 10  7  1  0  0  0  0
 12 20  2  0  0  0  0
 13 11  1  0  0  0  0
 13  9  1  0  0  0  0
 14 21  2  0  0  0  0
 15 11  2  0  0  0  0
 16  6  1  0  0  0  0
 17 22  1  0  0  0  0
 17 19  2  0  0  0  0
 18  6  1  0  0  0  0
 18  5  2  0  0  0  0
 19 18  1  0  0  0  0
 20 17  1  0  0  0  0
 21 25  1  0  0  0  0
 22 16  2  0  0  0  0
 23 24  2  0  0  0  0
 25 26  1  0  0  0  0
M  END
>  <MODEL>
6

>  <REMARK>
 VINA RESULT:      -8.6      2.103      3.270
  Name = 
  2 active torsions:
  status: ('A' for Active; 'I' for Inactive)
    1  A    between atoms: C_6  and  C_11
    2  A    between atoms: O_8  and  C_24
                            x       y       z     vdW  Elec       q    Type
                         _______ _______ _______ _____ _____    ______ ____

>  <TORSDO>
F 2

$$$$
=
 OpenBabel10222416113D

 26 30  0  0  1  0  0  0  0  0999 V2000
  186.4600  176.6090  143.5020 C   0  0  0  0  0  1  0  0  0  0  0  0
  187.5670  178.8020  142.2600 S   0  0  0  0  0  0  0  0  0  0  0  0
  187.4060  178.4590  144.9690 C   0  0  2  0  0  3  0  0  0  0  0  0
  186.8140  177.9100  146.2730 C   0  0  2  0  0  3  0  0  0  0  0  0
  189.1790  178.0410  142.5850 C   0  0  0  0  0  0  0  0  0  0  0  0
  190.9210  177.2250  144.1030 C   0  0  0  0  0  0  0  0  0  0  0  0
  186.6360  178.1140  143.6880 C   0  0  2  0  0  0  0  0  0  0  0  0
  191.7460  176.9590  143.0090 C   0  0  0  0  0  3  0  0  0  0  0  0
  184.3410  178.4020  144.8560 C   0  0  1  0  0  3  0  0  0  0  0  0
  185.2620  178.8070  143.6980 C   0  0  0  0  0  2  0  0  0  0  0  0
  185.8080  178.8890  146.7940 C   0  0  0  0  0  0  0  0  0  0  0  0
  188.0240  177.3400  148.3360 O   0  0  0  0  0  0  0  0  0  0  0  0
  184.6510  179.1310  146.0480 O   0  0  0  0  0  0  0  0  0  0  0  0
  190.0150  177.7500  141.5020 C   0  0  0  0  0  3  0  0  0  0  0  0
  186.0090  179.5390  147.8920 N   0  0  0  0  0  2  0  0  0  0  0  0
  191.3320  176.8830  145.4070 C   0  0  0  0  0  3  0  0  0  0  0  0
  189.1960  177.5940  146.2500 C   0  0  0  0  0  0  0  0  0  0  0  0
  189.6360  177.7840  143.8880 C   0  0  0  0  0  0  0  0  0  0  0  0
  188.8100  177.9730  144.9880 C   0  0  0  0  0  0  0  0  0  0  0  0
  188.0320  177.6410  147.1120 C   0  0  0  0  0  0  0  0  0  0  0  0
  191.3010  177.2170  141.7070 C   0  0  0  0  0  0  0  0  0  0  0  0
  190.4570  177.0480  146.4960 C   0  0  0  0  0  3  0  0  0  0  0  0
  182.9290  178.6760  144.4650 C   0  0  0  0  0  3  0  0  0  0  0  0
  182.6690  179.0790  143.3420 O   0  0  0  0  0  0  0  0  0  0  0  0
  192.1520  176.9330  140.6360 O   0  0  0  0  0  0  0  0  0  0  0  0
  191.7010  176.8760  139.2900 C   0  0  0  0  0  1  0  0  0  0  0  0
  2  5  1  0  0  0  0
  2  7  1  0  0  0  0
  3 19  1  6  0  0  0
  3  4  1  0  0  0  0
  4 11  1  1  0  0  0
  4 20  1  0  0  0  0
  5 18  1  0  0  0  0
  6 16  1  0  0  0  0
  7  1  1  6  0  0  0
  7 10  1  0  0  0  0
  7  3  1  0  0  0  0
  8  6  1  0  0  0  0
  9 23  1  6  0  0  0
  9 13  1  0  0  0  0
 10  9  1  0  0  0  0
 11 15  2  0  0  0  0
 13 11  1  0  0  0  0
 14 21  1  0  0  0  0
 14  5  2  0  0  0  0
 16 22  2  0  0  0  0
 17 22  1  0  0  0  0
 17 20  1  0  0  0  0
 18  6  2  0  0  0  0
 18 19  1  0  0  0  0
 19 17  2  0  0  0  0
 20 12  2  0  0  0  0
 21  8  2  0  0  0  0
 24 23  2  0  0  0  0
 25 21  1  0  0  0  0
 26 25  1  0  0  0  0
M  END
>  <MODEL>
7

>  <REMARK>
 VINA RESULT:      -8.3      2.556      5.267
  Name = 
  2 active torsions:
  status: ('A' for Active; 'I' for Inactive)
    1  A    between atoms: C_6  and  C_11
    2  A    between atoms: O_8  and  C_24
                            x       y       z     vdW  Elec       q    Type
                         _______ _______ _______ _____ _____    ______ ____

>  <TORSDO>
F 2

$$$$
=
 OpenBabel10222416113D

 26 30  0  0  1  0  0  0  0  0999 V2000
  186.8100  176.4310  143.8290 C   0  0  0  0  0  1  0  0  0  0  0  0
  187.1860  178.8430  142.5570 S   0  0  0  0  0  0  0  0  0  0  0  0
  188.5150  178.0450  144.8090 C   0  0  2  0  0  3  0  0  0  0  0  0
  188.7020  177.2620  146.1150 C   0  0  2  0  0  3  0  0  0  0  0  0
  188.6630  178.1010  141.8130 C   0  0  0  0  0  0  0  0  0  0  0  0
  190.8980  177.1100  141.9680 C   0  0  0  0  0  0  0  0  0  0  0  0
  187.1490  177.8890  144.1270 C   0  0  2  0  0  0  0  0  0  0  0  0
  190.9710  177.0640  140.5750 C   0  0  0  0  0  3  0  0  0  0  0  0
  185.8920  177.8880  146.3930 C   0  0  1  0  0  3  0  0  0  0  0  0
  186.0500  178.5180  145.0020 C   0  0  0  0  0  2  0  0  0  0  0  0
  188.2070  178.0990  147.2530 C   0  0  0  0  0  0  0  0  0  0  0  0
  190.8070  176.4010  147.0490 O   0  0  0  0  0  0  0  0  0  0  0  0
  186.8470  178.4190  147.3170 O   0  0  0  0  0  0  0  0  0  0  0  0
  188.7500  178.0290  140.4190 C   0  0  0  0  0  3  0  0  0  0  0  0
  189.0150  178.5640  148.1470 N   0  0  0  0  0  2  0  0  0  0  0  0
  191.9350  176.5710  142.7560 C   0  0  0  0  0  3  0  0  0  0  0  0
  190.6580  177.0470  144.7360 C   0  0  0  0  0  0  0  0  0  0  0  0
  189.7420  177.6470  142.5880 C   0  0  0  0  0  0  0  0  0  0  0  0
  189.6670  177.6170  143.9750 C   0  0  0  0  0  0  0  0  0  0  0  0
  190.1620  176.9030  146.0900 C   0  0  0  0  0  0  0  0  0  0  0  0
  189.9030  177.5190  139.7950 C   0  0  0  0  0  0  0  0  0  0  0  0
  191.8110  176.5170  144.1560 C   0  0  0  0  0  3  0  0  0  0  0  0
  184.5160  178.1690  146.8930 C   0  0  0  0  0  3  0  0  0  0  0  0
  183.7610  178.8800  146.2480 O   0  0  0  0  0  0  0  0  0  0  0  0
  190.0090  177.4510  138.4030 O   0  0  0  0  0  0  0  0  0  0  0  0
  189.2480  178.2790  137.5330 C   0  0  0  0  0  1  0  0  0  0  0  0
  2  7  1  0  0  0  0
  3 19  1  6  0  0  0
  3  4  1  0  0  0  0
  4 20  1  1  0  0  0
  4 11  1  0  0  0  0
  5  2  1  0  0  0  0
  5 18  1  0  0  0  0
  6 18  2  0  0  0  0
  6 16  1  0  0  0  0
  7  1  1  6  0  0  0
  7  3  1  0  0  0  0
  7 10  1  0  0  0  0
  8  6  1  0  0  0  0
  9 23  1  1  0  0  0
  9 13  1  0  0  0  0
 10  9  1  0  0  0  0
 11 13  1  0  0  0  0
 11 15  2  0  0  0  0
 14  5  2  0  0  0  0
 16 22  2  0  0  0  0
 17 20  1  0  0  0  0
 18 19  1  0  0  0  0
 19 17  2  0  0  0  0
 20 12  2  0  0  0  0
 21 14  1  0  0  0  0
 21  8  2  0  0  0  0
 22 17  1  0  0  0  0
 24 23  2  0  0  0  0
 25 21  1  0  0  0  0
 26 25  1  0  0  0  0
M  END
>  <MODEL>
8

>  <REMARK>
 VINA RESULT:      -8.1      2.357      6.412
  Name = 
  2 active torsions:
  status: ('A' for Active; 'I' for Inactive)
    1  A    between atoms: C_6  and  C_11
    2  A    between atoms: O_8  and  C_24
                            x       y       z     vdW  Elec       q    Type
                         _______ _______ _______ _____ _____    ______ ____

>  <TORSDO>
F 2

$$$$
=
 OpenBabel10222416113D

 26 30  0  0  1  0  0  0  0  0999 V2000
  186.8020  176.3520  145.2570 C   0  0  0  0  0  1  0  0  0  0  0  0
  185.8540  178.7860  146.1230 S   0  0  0  0  0  0  0  0  0  0  0  0
  187.7300  178.4520  144.1610 C   0  0  2  0  0  3  0  0  0  0  0  0
  188.8610  177.7270  143.4210 C   0  0  2  0  0  3  0  0  0  0  0  0
  184.7880  178.7740  144.6570 C   0  0  0  0  0  0  0  0  0  0  0  0
  184.4450  178.7860  142.2310 C   0  0  0  0  0  0  0  0  0  0  0  0
  187.2540  177.7950  145.4640 C   0  0  2  0  0  0  0  0  0  0  0  0
  183.0660  178.8720  142.4300 C   0  0  0  0  0  3  0  0  0  0  0  0
  189.6640  177.1160  146.1320 C   0  0  1  0  0  3  0  0  0  0  0  0
  188.3730  177.8510  146.5180 C   0  0  0  0  0  2  0  0  0  0  0  0
  190.1730  178.2030  143.9640 C   0  0  0  0  0  0  0  0  0  0  0  0
  189.3180  177.7480  141.0060 O   0  0  0  0  0  0  0  0  0  0  0  0
  190.4940  177.9270  145.2950 O   0  0  0  0  0  0  0  0  0  0  0  0
  183.4030  178.8420  144.8330 C   0  0  0  0  0  3  0  0  0  0  0  0
  190.9880  178.8950  143.2390 N   0  0  0  0  0  2  0  0  0  0  0  0
  184.9730  178.6690  140.9300 C   0  0  0  0  0  3  0  0  0  0  0  0
  187.1770  178.4350  141.8620 C   0  0  0  0  0  0  0  0  0  0  0  0
  185.3100  178.7530  143.3540 C   0  0  0  0  0  0  0  0  0  0  0  0
  186.6720  178.5970  143.1280 C   0  0  0  0  0  0  0  0  0  0  0  0
  188.5560  178.0050  141.9760 C   0  0  0  0  0  0  0  0  0  0  0  0
  182.5380  178.8990  143.7250 C   0  0  0  0  0  0  0  0  0  0  0  0
  186.3520  178.4700  140.7360 C   0  0  0  0  0  3  0  0  0  0  0  0
  190.4090  176.7680  147.3760 C   0  0  0  0  0  3  0  0  0  0  0  0
  191.6280  176.8240  147.3990 O   0  0  0  0  0  0  0  0  0  0  0  0
  181.1510  178.9790  143.8850 O   0  0  0  0  0  0  0  0  0  0  0  0
  180.3150  179.6940  142.9850 C   0  0  0  0  0  1  0  0  0  0  0  0
  3 19  1  6  0  0  0
  3  7  1  0  0  0  0
  4 20  1  6  0  0  0
  4 11  1  0  0  0  0
  4  3  1  0  0  0  0
  5 14  1  0  0  0  0
  5  2  1  0  0  0  0
  6  8  2  0  0  0  0
  6 18  1  0  0  0  0
  7  1  1  6  0  0  0
  7  2  1  0  0  0  0
  7 10  1  0  0  0  0
  8 21  1  0  0  0  0
  9 10  1  0  0  0  0
  9 23  1  1  0  0  0
 11 13  1  0  0  0  0
 12 20  2  0  0  0  0
 13  9  1  0  0  0  0
 15 11  2  0  0  0  0
 16  6  1  0  0  0  0
 17 20  1  0  0  0  0
 17 19  2  0  0  0  0
 18  5  2  0  0  0  0
 19 18  1  0  0  0  0
 21 25  1  0  0  0  0
 21 14  2  0  0  0  0
 22 16  2  0  0  0  0
 22 17  1  0  0  0  0
 23 24  2  0  0  0  0
 26 25  1  0  0  0  0
M  END
>  <MODEL>
9

>  <REMARK>
 VINA RESULT:      -8.1      2.716      6.807
  Name = 
  2 active torsions:
  status: ('A' for Active; 'I' for Inactive)
    1  A    between atoms: C_6  and  C_11
    2  A    between atoms: O_8  and  C_24
                            x       y       z     vdW  Elec       q    Type
                         _______ _______ _______ _____ _____    ______ ____

>  <TORSDO>
F 2

$$$$
