=
 OpenBabel10222418093D

 25 29  0  0  1  0  0  0  0  0999 V2000
  185.1600  178.2720  144.8980 C   0  0  0  0  0  0  0  0  0  0  0  0
  185.4690  177.9820  146.5190 S   0  0  0  0  0  0  0  0  0  0  0  0
  182.0280  179.1930  143.5790 O   0  0  0  0  0  0  0  0  0  0  0  0
  183.9920  178.6360  144.2520 C   0  0  0  0  0  0  0  0  0  0  0  0
  187.1200  177.6520  146.2890 C   0  0  0  0  0  0  0  0  0  0  0  0
  186.3260  178.3680  142.8030 N   0  0  0  0  0  0  0  0  0  0  0  0
  186.3260  178.1320  144.1540 C   0  0  0  0  0  0  0  0  0  0  0  0
  187.4460  177.7850  144.9250 C   0  0  0  0  0  0  0  0  0  0  0  0
  182.7730  179.2020  142.5010 N   0  0  0  0  0  0  0  0  0  0  0  0
  183.9990  178.8560  142.9100 C   0  0  0  0  0  0  0  0  0  0  0  0
  185.1710  178.7290  142.1530 C   0  0  0  0  0  3  0  0  0  0  0  0
  182.7030  178.8610  144.6740 C   0  0  0  0  0  3  0  0  0  0  0  0
  192.0600  179.4260  144.3930 N   0  0  0  0  0  1  0  0  0  0  0  0
  190.8240  175.2770  142.2900 N   0  0  0  0  0  1  0  0  0  0  0  0
  191.0690  178.4430  144.1240 C   0  0  0  0  0  0  0  0  0  0  0  0
  189.7830  178.5900  144.6440 C   0  0  0  0  0  3  0  0  0  0  0  0
  188.8090  177.6210  144.3750 C   0  0  0  0  0  0  0  0  0  0  0  0
  190.4540  176.3990  143.0840 C   0  0  0  0  0  0  0  0  0  0  0  0
  191.3750  177.3600  143.3610 N   0  0  0  0  0  0  0  0  0  0  0  0
  188.2500  175.5220  143.3450 F   0  0  0  0  0  0  0  0  0  0  0  0
  189.1520  176.5080  143.5870 C   0  0  0  0  0  0  0  0  0  0  0  0
  189.9660  178.3020  148.6520 C   0  0  0  0  0  1  0  0  0  0  0  0
  187.5410  177.8560  148.7180 C   0  0  0  0  0  2  0  0  0  0  0  0
  188.0770  177.3310  147.3980 C   0  0  2  0  0  3  0  0  0  0  0  0
  188.6370  178.6100  147.9980 C   0  0  2  0  0  3  0  0  0  0  0  0
  1  2  1  0  0  0  0
  3 12  1  0  0  0  0
  4 12  2  0  0  0  0
  4  1  1  0  0  0  0
  5  2  1  0  0  0  0
  6  7  1  0  0  0  0
  7  1  2  0  0  0  0
  7  8  1  0  0  0  0
  8  5  2  0  0  0  0
  9 10  2  0  0  0  0
  9  3  1  0  0  0  0
 10  4  1  0  0  0  0
 11  6  2  0  0  0  0
 11 10  1  0  0  0  0
 14 18  1  0  0  0  0
 15 13  1  0  0  0  0
 15 16  1  0  0  0  0
 17 16  2  0  0  0  0
 17  8  1  0  0  0  0
 18 19  1  0  0  0  0
 18 21  2  0  0  0  0
 19 15  2  0  0  0  0
 20 21  1  0  0  0  0
 21 17  1  0  0  0  0
 24  5  1  6  0  0  0
 24 25  1  0  0  0  0
 24 23  1  0  0  0  0
 25 22  1  1  0  0  0
 25 23  1  0  0  0  0
M  END
>  <MODEL>
1

>  <REMARK>
 VINA RESULT:      -8.0      0.000      0.000
  Name = 
  2 active torsions:
  status: ('A' for Active; 'I' for Inactive)
    1  A    between atoms: C_11  and  C_12
    2  A    between atoms: C_13  and  C_17
                            x       y       z     vdW  Elec       q    Type
                         _______ _______ _______ _____ _____    ______ ____

>  <TORSDO>
F 2

$$$$
=
 OpenBabel10222418093D

 25 29  0  0  1  0  0  0  0  0999 V2000
  185.4560  178.3540  142.4110 C   0  0  0  0  0  0  0  0  0  0  0  0
  184.9720  178.1270  143.9980 S   0  0  0  0  0  0  0  0  0  0  0  0
  183.3350  179.3530  139.7830 O   0  0  0  0  0  0  0  0  0  0  0  0
  184.7370  178.7400  141.2930 C   0  0  0  0  0  0  0  0  0  0  0  0
  186.5220  177.7130  144.5580 C   0  0  0  0  0  0  0  0  0  0  0  0
  187.4530  178.2990  141.0810 N   0  0  0  0  0  0  0  0  0  0  0  0
  186.8220  178.1260  142.2860 C   0  0  0  0  0  0  0  0  0  0  0  0
  187.4420  177.7660  143.4930 C   0  0  0  0  0  0  0  0  0  0  0  0
  184.4890  179.2780  139.1670 N   0  0  0  0  0  0  0  0  0  0  0  0
  185.3700  178.8960  140.1000 C   0  0  0  0  0  0  0  0  0  0  0  0
  186.7480  178.6810  139.9670 C   0  0  0  0  0  3  0  0  0  0  0  0
  183.4140  179.0420  141.0720 C   0  0  0  0  0  3  0  0  0  0  0  0
  191.9890  179.4160  144.4260 N   0  0  0  0  0  1  0  0  0  0  0  0
  191.3870  174.7530  143.3990 N   0  0  0  0  0  1  0  0  0  0  0  0
  191.1170  178.3430  144.0920 C   0  0  0  0  0  0  0  0  0  0  0  0
  189.7480  178.5740  143.9630 C   0  0  0  0  0  3  0  0  0  0  0  0
  188.8930  177.5150  143.6320 C   0  0  0  0  0  0  0  0  0  0  0  0
  190.8170  176.0440  143.5810 C   0  0  0  0  0  0  0  0  0  0  0  0
  191.6190  177.0950  143.8990 N   0  0  0  0  0  0  0  0  0  0  0  0
  188.6340  175.1700  143.1690 F   0  0  0  0  0  0  0  0  0  0  0  0
  189.4360  176.2320  143.4430 C   0  0  0  0  0  0  0  0  0  0  0  0
  188.1480  178.2600  147.8990 C   0  0  0  0  0  1  0  0  0  0  0  0
  185.8900  178.1370  146.9110 C   0  0  0  0  0  2  0  0  0  0  0  0
  186.8450  177.4000  145.9880 C   0  0  2  0  0  3  0  0  0  0  0  0
  187.2960  178.6580  146.7130 C   0  0  2  0  0  3  0  0  0  0  0  0
  1  2  1  0  0  0  0
  2  5  1  0  0  0  0
  3 12  1  0  0  0  0
  4  1  1  0  0  0  0
  6  7  1  0  0  0  0
  7  1  2  0  0  0  0
  7  8  1  0  0  0  0
  8 17  1  0  0  0  0
  8  5  2  0  0  0  0
  9  3  1  0  0  0  0
  9 10  2  0  0  0  0
 10  4  1  0  0  0  0
 11 10  1  0  0  0  0
 11  6  2  0  0  0  0
 12  4  2  0  0  0  0
 14 18  1  0  0  0  0
 15 13  1  0  0  0  0
 16 15  1  0  0  0  0
 17 16  2  0  0  0  0
 18 19  1  0  0  0  0
 19 15  2  0  0  0  0
 20 21  1  0  0  0  0
 21 18  2  0  0  0  0
 21 17  1  0  0  0  0
 24  5  1  6  0  0  0
 24 25  1  0  0  0  0
 24 23  1  0  0  0  0
 25 23  1  0  0  0  0
 25 22  1  1  0  0  0
M  END
>  <MODEL>
2

>  <REMARK>
 VINA RESULT:      -7.5      1.758      2.169
  Name = 
  2 active torsions:
  status: ('A' for Active; 'I' for Inactive)
    1  A    between atoms: C_11  and  C_12
    2  A    between atoms: C_13  and  C_17
                            x       y       z     vdW  Elec       q    Type
                         _______ _______ _______ _____ _____    ______ ____

>  <TORSDO>
F 2

$$$$
=
 OpenBabel10222418093D

 25 29  0  0  1  0  0  0  0  0999 V2000
  185.6560  178.5500  142.2720 C   0  0  0  0  0  0  0  0  0  0  0  0
  186.1080  178.6550  140.6620 S   0  0  0  0  0  0  0  0  0  0  0  0
  182.3560  178.8560  143.4600 O   0  0  0  0  0  0  0  0  0  0  0  0
  184.4120  178.6500  142.8690 C   0  0  0  0  0  0  0  0  0  0  0  0
  187.7580  178.3790  140.9630 C   0  0  0  0  0  0  0  0  0  0  0  0
  186.6310  178.1150  144.4210 N   0  0  0  0  0  0  0  0  0  0  0  0
  186.7660  178.2890  143.0670 C   0  0  0  0  0  0  0  0  0  0  0  0
  187.9640  178.1860  142.3430 C   0  0  0  0  0  0  0  0  0  0  0  0
  183.0070  178.6180  144.5720 N   0  0  0  0  0  0  0  0  0  0  0  0
  184.2910  178.4880  144.2140 C   0  0  0  0  0  0  0  0  0  0  0  0
  185.4010  178.2130  145.0230 C   0  0  0  0  0  3  0  0  0  0  0  0
  183.1450  178.8880  142.3930 C   0  0  0  0  0  3  0  0  0  0  0  0
  192.1820  179.6760  144.4060 N   0  0  0  0  0  1  0  0  0  0  0  0
  191.4150  174.9560  143.8610 N   0  0  0  0  0  1  0  0  0  0  0  0
  191.3380  178.6200  143.9620 C   0  0  0  0  0  0  0  0  0  0  0  0
  190.1000  178.9120  143.3900 C   0  0  0  0  0  3  0  0  0  0  0  0
  189.2740  177.8700  142.9530 C   0  0  0  0  0  0  0  0  0  0  0  0
  190.9580  176.2930  143.6880 C   0  0  0  0  0  0  0  0  0  0  0  0
  191.7380  177.3280  144.0980 N   0  0  0  0  0  0  0  0  0  0  0  0
  188.9140  175.5020  142.7430 F   0  0  0  0  0  0  0  0  0  0  0  0
  189.7080  176.5420  143.1090 C   0  0  0  0  0  0  0  0  0  0  0  0
  190.3540  176.6980  138.8330 C   0  0  0  0  0  1  0  0  0  0  0  0
  188.1840  177.8450  138.5850 C   0  0  0  0  0  2  0  0  0  0  0  0
  188.8060  178.2990  139.8940 C   0  0  2  0  0  3  0  0  0  0  0  0
  188.9710  176.8630  139.4240 C   0  0  2  0  0  3  0  0  0  0  0  0
  1  4  1  0  0  0  0
  1  7  2  0  0  0  0
  2  5  1  0  0  0  0
  2  1  1  0  0  0  0
  3  9  1  0  0  0  0
  4 10  1  0  0  0  0
  5  8  2  0  0  0  0
  6 11  2  0  0  0  0
  7  6  1  0  0  0  0
  8 17  1  0  0  0  0
  8  7  1  0  0  0  0
 10  9  2  0  0  0  0
 10 11  1  0  0  0  0
 12  4  2  0  0  0  0
 12  3  1  0  0  0  0
 15 19  1  0  0  0  0
 15 13  1  0  0  0  0
 16 15  2  0  0  0  0
 17 21  2  0  0  0  0
 17 16  1  0  0  0  0
 18 14  1  0  0  0  0
 18 19  2  0  0  0  0
 20 21  1  0  0  0  0
 21 18  1  0  0  0  0
 23 25  1  0  0  0  0
 23 24  1  0  0  0  0
 24  5  1  1  0  0  0
 25 22  1  6  0  0  0
 25 24  1  0  0  0  0
M  END
>  <MODEL>
3

>  <REMARK>
 VINA RESULT:      -7.3      2.385      4.254
  Name = 
  2 active torsions:
  status: ('A' for Active; 'I' for Inactive)
    1  A    between atoms: C_11  and  C_12
    2  A    between atoms: C_13  and  C_17
                            x       y       z     vdW  Elec       q    Type
                         _______ _______ _______ _____ _____    ______ ____

>  <TORSDO>
F 2

$$$$
=
 OpenBabel10222418093D

 25 29  0  0  1  0  0  0  0  0999 V2000
  188.4070  177.6530  141.7320 C   0  0  0  0  0  0  0  0  0  0  0  0
  186.8440  177.7490  142.3270 S   0  0  0  0  0  0  0  0  0  0  0  0
  189.2930  177.9780  138.3390 O   0  0  0  0  0  0  0  0  0  0  0  0
  188.8900  177.7610  140.4390 C   0  0  0  0  0  0  0  0  0  0  0  0
  187.3000  177.5290  143.9490 C   0  0  0  0  0  0  0  0  0  0  0  0
  190.6570  177.3980  142.5290 N   0  0  0  0  0  0  0  0  0  0  0  0
  189.3080  177.4610  142.7730 C   0  0  0  0  0  0  0  0  0  0  0  0
  188.6990  177.3920  144.0360 C   0  0  0  0  0  0  0  0  0  0  0  0
  190.4680  177.8210  138.8970 N   0  0  0  0  0  0  0  0  0  0  0  0
  190.2280  177.6850  140.2070 C   0  0  0  0  0  0  0  0  0  0  0  0
  191.1450  177.5040  141.2500 C   0  0  0  0  0  3  0  0  0  0  0  0
  188.2950  177.9530  139.2150 C   0  0  0  0  0  3  0  0  0  0  0  0
  189.2470  178.4390  148.8180 N   0  0  0  0  0  1  0  0  0  0  0  0
  192.4290  175.5060  146.7130 N   0  0  0  0  0  1  0  0  0  0  0  0
  189.6970  177.7640  147.6500 C   0  0  0  0  0  0  0  0  0  0  0  0
  188.9960  177.9030  146.4520 C   0  0  0  0  0  3  0  0  0  0  0  0
  189.4440  177.2380  145.3040 C   0  0  0  0  0  0  0  0  0  0  0  0
  191.2670  176.3200  146.6070 C   0  0  0  0  0  0  0  0  0  0  0  0
  190.8090  176.9830  147.7020 N   0  0  0  0  0  0  0  0  0  0  0  0
  191.0300  175.7320  144.3070 F   0  0  0  0  0  0  0  0  0  0  0  0
  190.5930  176.4320  145.3860 C   0  0  0  0  0  0  0  0  0  0  0  0
  185.5620  178.9940  146.9390 C   0  0  0  0  0  1  0  0  0  0  0  0
  185.0240  178.1680  144.6770 C   0  0  0  0  0  2  0  0  0  0  0  0
  186.3410  177.5440  145.1020 C   0  0  2  0  0  3  0  0  0  0  0  0
  186.0090  178.9740  145.4930 C   0  0  2  0  0  3  0  0  0  0  0  0
  1  2  1  0  0  0  0
  1  7  2  0  0  0  0
  2  5  1  0  0  0  0
  3  9  1  0  0  0  0
  3 12  1  0  0  0  0
  4  1  1  0  0  0  0
  5  8  2  0  0  0  0
  6  7  1  0  0  0  0
  7  8  1  0  0  0  0
  8 17  1  0  0  0  0
  9 10  2  0  0  0  0
 10  4  1  0  0  0  0
 10 11  1  0  0  0  0
 11  6  2  0  0  0  0
 12  4  2  0  0  0  0
 15 19  1  0  0  0  0
 15 13  1  0  0  0  0
 16 15  2  0  0  0  0
 17 21  2  0  0  0  0
 17 16  1  0  0  0  0
 18 14  1  0  0  0  0
 18 19  2  0  0  0  0
 20 21  1  0  0  0  0
 21 18  1  0  0  0  0
 23 24  1  0  0  0  0
 23 25  1  0  0  0  0
 24  5  1  6  0  0  0
 24 25  1  0  0  0  0
 25 22  1  1  0  0  0
M  END
>  <MODEL>
4

>  <REMARK>
 VINA RESULT:      -7.3      3.304      4.927
  Name = 
  2 active torsions:
  status: ('A' for Active; 'I' for Inactive)
    1  A    between atoms: C_11  and  C_12
    2  A    between atoms: C_13  and  C_17
                            x       y       z     vdW  Elec       q    Type
                         _______ _______ _______ _____ _____    ______ ____

>  <TORSDO>
F 2

$$$$
=
 OpenBabel10222418093D

 25 29  0  0  1  0  0  0  0  0999 V2000
  189.8130  177.0230  144.2940 C   0  0  0  0  0  0  0  0  0  0  0  0
  190.3710  176.6780  142.7520 S   0  0  0  0  0  0  0  0  0  0  0  0
  191.6930  176.6440  147.2470 O   0  0  0  0  0  0  0  0  0  0  0  0
  190.4380  176.9210  145.5250 C   0  0  0  0  0  0  0  0  0  0  0  0
  188.9330  177.1450  141.9770 C   0  0  0  0  0  0  0  0  0  0  0  0
  187.8640  177.9100  145.3790 N   0  0  0  0  0  0  0  0  0  0  0  0
  188.5140  177.5140  144.2370 C   0  0  0  0  0  0  0  0  0  0  0  0
  188.0010  177.5930  142.9330 C   0  0  0  0  0  0  0  0  0  0  0  0
  190.5710  177.1280  147.7180 N   0  0  0  0  0  0  0  0  0  0  0  0
  189.7810  177.3050  146.6520 C   0  0  0  0  0  0  0  0  0  0  0  0
  188.4760  177.8120  146.6040 C   0  0  0  0  0  3  0  0  0  0  0  0
  191.6810  176.4950  145.9280 C   0  0  0  0  0  3  0  0  0  0  0  0
  184.9290  179.7520  139.7430 N   0  0  0  0  0  1  0  0  0  0  0  0
  183.2730  178.5570  144.1010 N   0  0  0  0  0  1  0  0  0  0  0  0
  185.1680  179.1850  141.0250 C   0  0  0  0  0  0  0  0  0  0  0  0
  186.4290  178.6800  141.3400 C   0  0  0  0  0  3  0  0  0  0  0  0
  186.6600  178.1240  142.6040 C   0  0  0  0  0  0  0  0  0  0  0  0
  184.3550  178.5980  143.1780 C   0  0  0  0  0  0  0  0  0  0  0  0
  184.1660  179.1350  141.9430 N   0  0  0  0  0  0  0  0  0  0  0  0
  185.7760  177.5030  144.7510 F   0  0  0  0  0  0  0  0  0  0  0  0
  185.6060  178.0790  143.5330 C   0  0  0  0  0  0  0  0  0  0  0  0
  188.9560  178.5710  138.5030 C   0  0  0  0  0  1  0  0  0  0  0  0
  190.0350  176.7680  139.7950 C   0  0  0  0  0  2  0  0  0  0  0  0
  188.7340  177.1270  140.4910 C   0  0  2  0  0  3  0  0  0  0  0  0
  189.5770  178.2080  139.8340 C   0  0  2  0  0  3  0  0  0  0  0  0
  1  4  1  0  0  0  0
  2  1  1  0  0  0  0
  3  9  1  0  0  0  0
  4 12  2  0  0  0  0
  4 10  1  0  0  0  0
  5  2  1  0  0  0  0
  5  8  2  0  0  0  0
  6 11  2  0  0  0  0
  7  1  2  0  0  0  0
  7  6  1  0  0  0  0
  8  7  1  0  0  0  0
 10  9  2  0  0  0  0
 11 10  1  0  0  0  0
 12  3  1  0  0  0  0
 13 15  1  0  0  0  0
 15 16  2  0  0  0  0
 15 19  1  0  0  0  0
 16 17  1  0  0  0  0
 17  8  1  0  0  0  0
 17 21  2  0  0  0  0
 18 21  1  0  0  0  0
 18 14  1  0  0  0  0
 19 18  2  0  0  0  0
 21 20  1  0  0  0  0
 23 25  1  0  0  0  0
 23 24  1  0  0  0  0
 24  5  1  1  0  0  0
 25 22  1  6  0  0  0
 25 24  1  0  0  0  0
M  END
>  <MODEL>
5

>  <REMARK>
 VINA RESULT:      -7.2      3.493      6.862
  Name = 
  2 active torsions:
  status: ('A' for Active; 'I' for Inactive)
    1  A    between atoms: C_11  and  C_12
    2  A    between atoms: C_13  and  C_17
                            x       y       z     vdW  Elec       q    Type
                         _______ _______ _______ _____ _____    ______ ____

>  <TORSDO>
F 2

$$$$
=
 OpenBabel10222418093D

 25 29  0  0  1  0  0  0  0  0999 V2000
  184.4620  178.5390  144.0520 C   0  0  0  0  0  0  0  0  0  0  0  0
  185.1360  178.7010  145.5780 S   0  0  0  0  0  0  0  0  0  0  0  0
  181.1270  179.3180  143.2330 O   0  0  0  0  0  0  0  0  0  0  0  0
  183.1820  178.8050  143.5980 C   0  0  0  0  0  0  0  0  0  0  0  0
  186.6800  178.1730  145.1030 C   0  0  0  0  0  0  0  0  0  0  0  0
  185.1050  177.9250  141.8230 N   0  0  0  0  0  0  0  0  0  0  0  0
  185.4170  178.0880  143.1490 C   0  0  0  0  0  0  0  0  0  0  0  0
  186.6800  177.8790  143.7260 C   0  0  0  0  0  0  0  0  0  0  0  0
  181.5980  178.9500  142.0670 N   0  0  0  0  0  0  0  0  0  0  0  0
  182.8790  178.6290  142.2830 C   0  0  0  0  0  0  0  0  0  0  0  0
  183.8380  178.1860  141.3630 C   0  0  0  0  0  3  0  0  0  0  0  0
  182.0330  179.2550  144.2020 C   0  0  0  0  0  3  0  0  0  0  0  0
  190.5540  174.8790  143.2180 N   0  0  0  0  0  1  0  0  0  0  0  0
  189.7880  178.2530  139.8730 N   0  0  0  0  0  1  0  0  0  0  0  0
  189.7690  175.9620  142.7350 C   0  0  0  0  0  0  0  0  0  0  0  0
  188.6410  176.3750  143.4450 C   0  0  0  0  0  3  0  0  0  0  0  0
  187.8720  177.4420  142.9670 C   0  0  0  0  0  0  0  0  0  0  0  0
  189.3900  177.6300  141.0890 C   0  0  0  0  0  0  0  0  0  0  0  0
  190.1170  176.5930  141.5830 N   0  0  0  0  0  0  0  0  0  0  0  0
  187.5020  179.0820  141.2480 F   0  0  0  0  0  0  0  0  0  0  0  0
  188.2500  178.0750  141.7700 C   0  0  0  0  0  0  0  0  0  0  0  0
  188.5010  178.4870  148.3720 C   0  0  0  0  0  1  0  0  0  0  0  0
  187.8960  176.7540  146.7240 C   0  0  0  0  0  2  0  0  0  0  0  0
  187.8630  178.1000  146.0210 C   0  0  2  0  0  3  0  0  0  0  0  0
  187.4030  177.9770  147.4640 C   0  0  2  0  0  3  0  0  0  0  0  0
  1  2  1  0  0  0  0
  3 12  1  0  0  0  0
  4  1  1  0  0  0  0
  4 12  2  0  0  0  0
  5  2  1  0  0  0  0
  6  7  1  0  0  0  0
  7  8  1  0  0  0  0
  7  1  2  0  0  0  0
  8  5  2  0  0  0  0
  9 10  2  0  0  0  0
  9  3  1  0  0  0  0
 10  4  1  0  0  0  0
 11  6  2  0  0  0  0
 11 10  1  0  0  0  0
 14 18  1  0  0  0  0
 15 13  1  0  0  0  0
 15 16  1  0  0  0  0
 17 16  2  0  0  0  0
 17  8  1  0  0  0  0
 18 19  1  0  0  0  0
 18 21  2  0  0  0  0
 19 15  2  0  0  0  0
 20 21  1  0  0  0  0
 21 17  1  0  0  0  0
 23 25  1  0  0  0  0
 24  5  1  6  0  0  0
 24 23  1  0  0  0  0
 24 25  1  0  0  0  0
 25 22  1  1  0  0  0
M  END
>  <MODEL>
6

>  <REMARK>
 VINA RESULT:      -7.2      1.803      2.271
  Name = 
  2 active torsions:
  status: ('A' for Active; 'I' for Inactive)
    1  A    between atoms: C_11  and  C_12
    2  A    between atoms: C_13  and  C_17
                            x       y       z     vdW  Elec       q    Type
                         _______ _______ _______ _____ _____    ______ ____

>  <TORSDO>
F 2

$$$$
=
 OpenBabel10222418093D

 25 29  0  0  1  0  0  0  0  0999 V2000
  184.5980  178.5700  144.6080 C   0  0  0  0  0  0  0  0  0  0  0  0
  183.0230  179.1370  144.6850 S   0  0  0  0  0  0  0  0  0  0  0  0
  186.7550  178.2390  147.3710 O   0  0  0  0  0  0  0  0  0  0  0  0
  185.5430  178.3910  145.6030 C   0  0  0  0  0  0  0  0  0  0  0  0
  182.7270  178.9490  143.0220 C   0  0  0  0  0  0  0  0  0  0  0  0
  186.1450  177.6770  143.0050 N   0  0  0  0  0  0  0  0  0  0  0  0
  184.9180  178.2140  143.3030 C   0  0  0  0  0  0  0  0  0  0  0  0
  183.8700  178.4190  142.3920 C   0  0  0  0  0  0  0  0  0  0  0  0
  187.5080  177.7790  146.4020 N   0  0  0  0  0  0  0  0  0  0  0  0
  186.7610  177.8690  145.2950 C   0  0  0  0  0  0  0  0  0  0  0  0
  187.0890  177.4970  143.9850 C   0  0  0  0  0  3  0  0  0  0  0  0
  185.5540  178.6250  146.9570 C   0  0  0  0  0  3  0  0  0  0  0  0
  182.1740  175.9150  138.5030 N   0  0  0  0  0  1  0  0  0  0  0  0
  185.9270  178.8670  137.8960 N   0  0  0  0  0  1  0  0  0  0  0  0
  183.1010  176.8400  139.0580 C   0  0  0  0  0  0  0  0  0  0  0  0
  183.0310  177.1680  140.4120 C   0  0  0  0  0  3  0  0  0  0  0  0
  183.9460  178.0780  140.9550 C   0  0  0  0  0  0  0  0  0  0  0  0
  184.9540  178.2940  138.7640 C   0  0  0  0  0  0  0  0  0  0  0  0
  184.0530  177.4040  138.2690 N   0  0  0  0  0  0  0  0  0  0  0  0
  185.7920  179.5750  140.5950 F   0  0  0  0  0  0  0  0  0  0  0  0
  184.9180  178.6510  140.1170 C   0  0  0  0  0  0  0  0  0  0  0  0
  179.3480  178.1500  141.5920 C   0  0  0  0  0  1  0  0  0  0  0  0
  180.3440  179.4850  143.4110 C   0  0  0  0  0  2  0  0  0  0  0  0
  181.4160  179.2530  142.3610 C   0  0  2  0  0  3  0  0  0  0  0  0
  180.4020  178.1650  142.6760 C   0  0  2  0  0  3  0  0  0  0  0  0
  1  2  1  0  0  0  0
  1  4  1  0  0  0  0
  4 12  2  0  0  0  0
  5  2  1  0  0  0  0
  6  7  1  0  0  0  0
  6 11  2  0  0  0  0
  7  1  2  0  0  0  0
  8  5  2  0  0  0  0
  8  7  1  0  0  0  0
  9  3  1  0  0  0  0
 10  4  1  0  0  0  0
 10  9  2  0  0  0  0
 11 10  1  0  0  0  0
 12  3  1  0  0  0  0
 13 15  1  0  0  0  0
 14 18  1  0  0  0  0
 15 16  1  0  0  0  0
 16 17  2  0  0  0  0
 17  8  1  0  0  0  0
 18 21  2  0  0  0  0
 19 18  1  0  0  0  0
 19 15  2  0  0  0  0
 21 20  1  0  0  0  0
 21 17  1  0  0  0  0
 24 25  1  0  0  0  0
 24  5  1  1  0  0  0
 24 23  1  0  0  0  0
 25 22  1  6  0  0  0
 25 23  1  0  0  0  0
M  END
>  <MODEL>
7

>  <REMARK>
 VINA RESULT:      -7.1      3.319      6.896
  Name = 
  2 active torsions:
  status: ('A' for Active; 'I' for Inactive)
    1  A    between atoms: C_11  and  C_12
    2  A    between atoms: C_13  and  C_17
                            x       y       z     vdW  Elec       q    Type
                         _______ _______ _______ _____ _____    ______ ____

>  <TORSDO>
F 2

$$$$
=
 OpenBabel10222418093D

 25 29  0  0  1  0  0  0  0  0999 V2000
  185.9820  178.2340  143.7610 C   0  0  0  0  0  0  0  0  0  0  0  0
  187.2310  177.9840  144.8500 S   0  0  0  0  0  0  0  0  0  0  0  0
  182.6550  178.9690  144.6470 O   0  0  0  0  0  0  0  0  0  0  0  0
  184.6460  178.5260  143.9700 C   0  0  0  0  0  0  0  0  0  0  0  0
  188.4120  177.7390  143.6530 C   0  0  0  0  0  0  0  0  0  0  0  0
  185.6190  178.3620  141.3920 N   0  0  0  0  0  0  0  0  0  0  0  0
  186.4560  178.1450  142.4570 C   0  0  0  0  0  0  0  0  0  0  0  0
  187.8300  177.8690  142.3770 C   0  0  0  0  0  0  0  0  0  0  0  0
  182.5850  179.0010  143.3400 N   0  0  0  0  0  0  0  0  0  0  0  0
  183.8220  178.7270  142.9070 C   0  0  0  0  0  0  0  0  0  0  0  0
  184.2920  178.6520  141.5900 C   0  0  0  0  0  3  0  0  0  0  0  0
  183.8730  178.6880  145.0950 C   0  0  0  0  0  3  0  0  0  0  0  0
  188.6810  179.4500  137.7900 N   0  0  0  0  0  1  0  0  0  0  0  0
  191.3020  175.7930  139.4990 N   0  0  0  0  0  1  0  0  0  0  0  0
  188.9820  178.5590  138.8560 C   0  0  0  0  0  0  0  0  0  0  0  0
  188.2810  178.6510  140.0590 C   0  0  0  0  0  3  0  0  0  0  0  0
  188.5800  177.7700  141.1060 C   0  0  0  0  0  0  0  0  0  0  0  0
  190.2700  176.7530  139.7020 C   0  0  0  0  0  0  0  0  0  0  0  0
  189.9530  177.6200  138.7040 N   0  0  0  0  0  0  0  0  0  0  0  0
  189.9440  175.9720  141.9330 F   0  0  0  0  0  0  0  0  0  0  0  0
  189.5910  176.8110  140.9250 C   0  0  0  0  0  0  0  0  0  0  0  0
  192.0470  178.6280  143.9680 C   0  0  0  0  0  1  0  0  0  0  0  0
  190.1800  177.8500  145.3800 C   0  0  0  0  0  2  0  0  0  0  0  0
  189.8610  177.4850  143.9410 C   0  0  2  0  0  3  0  0  0  0  0  0
  190.5720  178.7890  144.2620 C   0  0  2  0  0  3  0  0  0  0  0  0
  1  4  1  0  0  0  0
  1  2  1  0  0  0  0
  3 12  1  0  0  0  0
  4 12  2  0  0  0  0
  5  2  1  0  0  0  0
  6 11  2  0  0  0  0
  6  7  1  0  0  0  0
  7  1  2  0  0  0  0
  8  7  1  0  0  0  0
  8  5  2  0  0  0  0
  9  3  1  0  0  0  0
 10  9  2  0  0  0  0
 10  4  1  0  0  0  0
 11 10  1  0  0  0  0
 13 15  1  0  0  0  0
 14 18  1  0  0  0  0
 15 16  1  0  0  0  0
 16 17  2  0  0  0  0
 17  8  1  0  0  0  0
 18 21  2  0  0  0  0
 19 15  2  0  0  0  0
 19 18  1  0  0  0  0
 21 17  1  0  0  0  0
 21 20  1  0  0  0  0
 24  5  1  1  0  0  0
 24 25  1  0  0  0  0
 24 23  1  0  0  0  0
 25 22  1  6  0  0  0
 25 23  1  0  0  0  0
M  END
>  <MODEL>
8

>  <REMARK>
 VINA RESULT:      -7.1      2.478      3.399
  Name = 
  2 active torsions:
  status: ('A' for Active; 'I' for Inactive)
    1  A    between atoms: C_11  and  C_12
    2  A    between atoms: C_13  and  C_17
                            x       y       z     vdW  Elec       q    Type
                         _______ _______ _______ _____ _____    ______ ____

>  <TORSDO>
F 2

$$$$
=
 OpenBabel10222418093D

 25 29  0  0  1  0  0  0  0  0999 V2000
  188.9120  177.5580  144.6340 C   0  0  0  0  0  0  0  0  0  0  0  0
  187.2700  177.7910  144.3900 S   0  0  0  0  0  0  0  0  0  0  0  0
  190.4410  177.1550  147.7790 O   0  0  0  0  0  0  0  0  0  0  0  0
  189.6360  177.3880  145.8000 C   0  0  0  0  0  0  0  0  0  0  0  0
  187.3900  177.8520  142.6960 C   0  0  0  0  0  0  0  0  0  0  0  0
  190.9290  177.2810  143.3640 N   0  0  0  0  0  0  0  0  0  0  0  0
  189.5780  177.5120  143.4140 C   0  0  0  0  0  0  0  0  0  0  0  0
  188.7310  177.6720  142.3060 C   0  0  0  0  0  0  0  0  0  0  0  0
  191.4690  177.0290  146.9770 N   0  0  0  0  0  0  0  0  0  0  0  0
  190.9780  177.1730  145.7400 C   0  0  0  0  0  0  0  0  0  0  0  0
  191.6560  177.1120  144.5160 C   0  0  0  0  0  3  0  0  0  0  0  0
  189.3020  177.3720  147.1330 C   0  0  0  0  0  3  0  0  0  0  0  0
  188.8220  179.5840  137.7670 N   0  0  0  0  0  1  0  0  0  0  0  0
  191.2710  175.5290  138.6190 N   0  0  0  0  0  1  0  0  0  0  0  0
  189.2230  178.5690  138.6790 C   0  0  0  0  0  0  0  0  0  0  0  0
  188.7950  178.6190  140.0070 C   0  0  0  0  0  3  0  0  0  0  0  0
  189.1910  177.6170  140.9010 C   0  0  0  0  0  0  0  0  0  0  0  0
  190.4260  176.5670  139.1030 C   0  0  0  0  0  0  0  0  0  0  0  0
  190.0210  177.5530  138.2590 N   0  0  0  0  0  0  0  0  0  0  0  0
  190.4650  175.6170  141.2920 F   0  0  0  0  0  0  0  0  0  0  0  0
  190.0210  176.5800  140.4430 C   0  0  0  0  0  0  0  0  0  0  0  0
  183.7510  177.9660  141.7730 C   0  0  0  0  0  1  0  0  0  0  0  0
  185.7220  179.4480  141.8070 C   0  0  0  0  0  2  0  0  0  0  0  0
  186.2170  178.0130  141.7750 C   0  0  2  0  0  3  0  0  0  0  0  0
  184.9720  178.3770  142.5660 C   0  0  2  0  0  3  0  0  0  0  0  0
  1  4  1  0  0  0  0
  2  1  1  0  0  0  0
  4 12  2  0  0  0  0
  5  2  1  0  0  0  0
  6  7  1  0  0  0  0
  6 11  2  0  0  0  0
  7  1  2  0  0  0  0
  8  5  2  0  0  0  0
  8  7  1  0  0  0  0
  9  3  1  0  0  0  0
 10  4  1  0  0  0  0
 10  9  2  0  0  0  0
 11 10  1  0  0  0  0
 12  3  1  0  0  0  0
 13 15  1  0  0  0  0
 14 18  1  0  0  0  0
 15 16  1  0  0  0  0
 16 17  2  0  0  0  0
 17  8  1  0  0  0  0
 18 21  2  0  0  0  0
 19 15  2  0  0  0  0
 19 18  1  0  0  0  0
 21 17  1  0  0  0  0
 21 20  1  0  0  0  0
 23 25  1  0  0  0  0
 24 23  1  0  0  0  0
 24 25  1  0  0  0  0
 24  5  1  1  0  0  0
 25 22  1  6  0  0  0
M  END
>  <MODEL>
9

>  <REMARK>
 VINA RESULT:      -7.1      3.400      5.954
  Name = 
  2 active torsions:
  status: ('A' for Active; 'I' for Inactive)
    1  A    between atoms: C_11  and  C_12
    2  A    between atoms: C_13  and  C_17
                            x       y       z     vdW  Elec       q    Type
                         _______ _______ _______ _____ _____    ______ ____

>  <TORSDO>
F 2

$$$$
