=
 OpenBabel10222421073D

 29 35  0  0  1  0  0  0  0  0999 V2000
  185.3610  179.1130  140.2320 C   0  0  1  0  0  3  0  0  0  0  0  0
  187.1600  177.8080  139.8100 C   0  0  1  0  0  3  0  0  0  0  0  0
  189.1060  178.5150  142.6670 O   0  0  0  0  0  0  0  0  0  0  0  0
  187.0260  177.5590  143.4720 C   0  0  2  0  0  3  0  0  0  0  0  0
  183.6970  178.0980  142.2990 C   0  0  0  0  0  2  0  0  0  0  0  0
  185.8510  178.4310  143.0400 C   0  0  2  0  0  0  0  0  0  0  0  0
  184.9380  179.1580  144.0090 C   0  0  0  0  0  2  0  0  0  0  0  0
  185.0910  177.6930  142.0670 N   0  0  2  0  0  0  0  0  0  0  0  0
  187.3440  178.4510  141.1810 C   0  0  1  0  0  3  0  0  0  0  0  0
  187.6490  177.8510  144.8440 C   0  0  0  0  0  2  0  0  0  0  0  0
  185.9400  178.8620  141.6020 C   0  0  1  0  0  0  0  0  0  0  0  0
  189.3750  177.1610  142.4310 C   0  0  1  0  0  3  0  0  0  0  0  0
  189.0240  177.1710  145.0260 C   0  0  1  0  0  3  0  0  0  0  0  0
  189.5570  176.4210  143.7800 C   0  0  0  0  0  2  0  0  0  0  0  0
  187.9990  177.7040  142.3100 C   0  0  1  0  0  0  0  0  0  0  0  0
  186.0000  178.4950  139.3010 N   0  0  0  0  0  2  0  0  0  0  0  0
  183.5560  178.6930  143.6850 C   0  0  0  0  0  2  0  0  0  0  0  0
  189.9590  178.1320  145.4140 O   0  0  0  0  0  1  0  0  0  0  0  0
  181.8100  180.0510  138.9080 C   0  0  0  0  0  1  0  0  0  0  0  0
  184.1690  180.3610  138.5900 O   0  0  0  0  0  0  0  0  0  0  0  0
  184.1640  179.9830  139.9490 C   0  0  1  0  0  3  0  0  0  0  0  0
  183.4120  178.0870  138.2690 C   0  0  0  0  0  1  0  0  0  0  0  0
  183.1930  179.4240  138.9650 C   0  0  0  0  0  0  0  0  0  0  0  0
  188.8970  179.1980  138.9270 O   0  0  0  0  0  0  0  0  0  0  0  0
  190.3250  176.9270  137.8980 C   0  0  0  0  0  1  0  0  0  0  0  0
  188.3540  178.0570  138.9400 C   0  0  0  0  0  0  0  0  0  0  0  0
  188.8890  177.0010  138.1320 N   0  0  0  0  0  0  0  0  0  0  0  0
  188.0200  176.2130  137.2760 C   0  0  0  0  0  2  0  0  0  0  0  0
  187.1870  177.0390  136.5450 F   0  0  0  0  0  0  0  0  0  0  0  0
  1 16  1  1  0  0  0
  1 11  1  0  0  0  0
  2 26  1  6  0  0  0
  2  9  1  0  0  0  0
  4 10  1  1  0  0  0
  5 17  1  0  0  0  0
  6  4  1  0  0  0  0
  6  7  1  1  0  0  0
  8  5  1  1  0  0  0
  8  6  1  0  0  0  0
  9 11  1  0  0  0  0
  9 15  1  0  0  0  0
 10 13  1  0  0  0  0
 11  8  1  0  0  0  0
 11  6  1  0  0  0  0
 12  3  1  0  0  0  0
 12 14  1  0  0  0  0
 13 18  1  0  0  0  0
 14 13  1  0  0  0  0
 15 12  1  0  0  0  0
 15  3  1  0  0  0  0
 15  4  1  0  0  0  0
 16  2  1  0  0  0  0
 17  7  1  0  0  0  0
 19 23  1  0  0  0  0
 20 23  1  0  0  0  0
 20 21  1  0  0  0  0
 21  1  1  0  0  0  0
 22 23  1  0  0  0  0
 23 21  1  0  0  0  0
 24 26  2  0  0  0  0
 25 27  1  0  0  0  0
 27 26  1  0  0  0  0
 28 27  1  0  0  0  0
 29 28  1  0  0  0  0
M  END
>  <MODEL>
1

>  <REMARK>
 VINA RESULT:      -7.5      0.000      0.000
  Name = 
  3 active torsions:
  status: ('A' for Active; 'I' for Inactive)
    1  A    between atoms: C_1  and  C_21
    2  A    between atoms: C_2  and  C_13
    3  A    between atoms: C_8  and  N_25
                            x       y       z     vdW  Elec       q    Type
                         _______ _______ _______ _____ _____    ______ ____

>  <TORSDO>
F 3

$$$$
=
 OpenBabel10222421073D

 29 35  0  0  1  0  0  0  0  0999 V2000
  181.3320  179.2330  139.7310 C   0  0  1  0  0  3  0  0  0  0  0  0
  183.3780  178.2760  139.6010 C   0  0  1  0  0  3  0  0  0  0  0  0
  184.8710  179.6410  142.4920 O   0  0  0  0  0  0  0  0  0  0  0  0
  182.9420  178.3760  143.2470 C   0  0  2  0  0  3  0  0  0  0  0  0
  179.7000  178.1210  141.7740 C   0  0  0  0  0  2  0  0  0  0  0  0
  181.6700  178.9480  142.6290 C   0  0  2  0  0  0  0  0  0  0  0  0
  180.5470  179.5740  143.4350 C   0  0  0  0  0  2  0  0  0  0  0  0
  181.1610  177.9800  141.6960 N   0  0  2  0  0  0  0  0  0  0  0  0
  183.3030  179.0780  140.8960 C   0  0  1  0  0  3  0  0  0  0  0  0
  183.3640  178.9230  144.6170 C   0  0  0  0  0  2  0  0  0  0  0  0
  181.8130  179.2410  141.1610 C   0  0  1  0  0  0  0  0  0  0  0  0
  185.4130  178.3510  142.4380 C   0  0  1  0  0  3  0  0  0  0  0  0
  184.8190  178.5540  144.9800 C   0  0  1  0  0  3  0  0  0  0  0  0
  185.6020  177.8020  143.8740 C   0  0  0  0  0  2  0  0  0  0  0  0
  183.9770  178.5950  142.1520 C   0  0  1  0  0  0  0  0  0  0  0  0
  182.1620  178.6640  138.9300 N   0  0  0  0  0  2  0  0  0  0  0  0
  179.3150  178.8120  143.0660 C   0  0  0  0  0  2  0  0  0  0  0  0
  185.5130  179.7150  145.3210 O   0  0  0  0  0  1  0  0  0  0  0  0
  178.9340  181.6030  137.7630 C   0  0  0  0  0  1  0  0  0  0  0  0
  179.7800  181.0280  139.9350 O   0  0  0  0  0  0  0  0  0  0  0  0
  180.0240  179.8140  139.2600 C   0  0  1  0  0  3  0  0  0  0  0  0
  181.4540  181.8650  138.4050 C   0  0  0  0  0  1  0  0  0  0  0  0
  180.1270  181.1370  138.5790 C   0  0  0  0  0  0  0  0  0  0  0  0
  184.9590  179.8750  138.7810 O   0  0  0  0  0  0  0  0  0  0  0  0
  186.7530  177.8020  137.9210 C   0  0  0  0  0  1  0  0  0  0  0  0
  184.5800  178.6690  138.8000 C   0  0  0  0  0  0  0  0  0  0  0  0
  185.3100  177.6790  138.0620 N   0  0  0  0  0  0  0  0  0  0  0  0
  184.6160  176.7560  137.1800 C   0  0  0  0  0  2  0  0  0  0  0  0
  183.8110  177.4480  136.2960 F   0  0  0  0  0  0  0  0  0  0  0  0
  1 16  1  1  0  0  0
  1 11  1  0  0  0  0
  2 26  1  6  0  0  0
  2  9  1  0  0  0  0
  4 10  1  1  0  0  0
  5 17  1  0  0  0  0
  6  4  1  0  0  0  0
  6  7  1  1  0  0  0
  8  5  1  1  0  0  0
  8  6  1  0  0  0  0
  9 11  1  0  0  0  0
  9 15  1  0  0  0  0
 10 13  1  0  0  0  0
 11  8  1  0  0  0  0
 11  6  1  0  0  0  0
 12  3  1  0  0  0  0
 12 14  1  0  0  0  0
 13 18  1  0  0  0  0
 14 13  1  0  0  0  0
 15 12  1  0  0  0  0
 15  3  1  0  0  0  0
 15  4  1  0  0  0  0
 16  2  1  0  0  0  0
 17  7  1  0  0  0  0
 19 23  1  0  0  0  0
 21  1  1  0  0  0  0
 21 20  1  0  0  0  0
 22 23  1  0  0  0  0
 23 21  1  0  0  0  0
 23 20  1  0  0  0  0
 24 26  2  0  0  0  0
 25 27  1  0  0  0  0
 27 26  1  0  0  0  0
 28 27  1  0  0  0  0
 29 28  1  0  0  0  0
M  END
>  <MODEL>
2

>  <REMARK>
 VINA RESULT:      -7.0      2.686      4.071
  Name = 
  3 active torsions:
  status: ('A' for Active; 'I' for Inactive)
    1  A    between atoms: C_1  and  C_21
    2  A    between atoms: C_2  and  C_13
    3  A    between atoms: C_8  and  N_25
                            x       y       z     vdW  Elec       q    Type
                         _______ _______ _______ _____ _____    ______ ____

>  <TORSDO>
F 3

$$$$
=
 OpenBabel10222421073D

 29 35  0  0  1  0  0  0  0  0999 V2000
  186.1500  178.7630  141.9410 C   0  0  1  0  0  3  0  0  0  0  0  0
  187.8900  177.3520  142.2610 C   0  0  1  0  0  3  0  0  0  0  0  0
  189.0120  178.4790  145.4110 O   0  0  0  0  0  0  0  0  0  0  0  0
  186.7230  177.7350  145.7230 C   0  0  2  0  0  3  0  0  0  0  0  0
  183.9040  178.1640  143.5750 C   0  0  0  0  0  2  0  0  0  0  0  0
  185.7850  178.5550  144.8420 C   0  0  2  0  0  0  0  0  0  0  0  0
  184.6970  179.4630  145.3830 C   0  0  0  0  0  2  0  0  0  0  0  0
  185.2720  177.6850  143.8180 N   0  0  2  0  0  0  0  0  0  0  0  0
  187.7340  178.2140  143.5100 C   0  0  1  0  0  3  0  0  0  0  0  0
  186.9610  178.2380  147.1530 C   0  0  0  0  0  2  0  0  0  0  0  0
  186.3040  178.7320  143.4420 C   0  0  1  0  0  0  0  0  0  0  0  0
  189.2310  177.0970  145.4750 C   0  0  1  0  0  3  0  0  0  0  0  0
  188.1740  177.5600  147.8260 C   0  0  1  0  0  3  0  0  0  0  0  0
  188.9740  176.5930  146.9170 C   0  0  0  0  0  2  0  0  0  0  0  0
  187.9890  177.6520  144.8820 C   0  0  1  0  0  0  0  0  0  0  0  0
  186.9730  177.9760  141.3400 N   0  0  0  0  0  2  0  0  0  0  0  0
  183.4280  178.9900  144.7510 C   0  0  0  0  0  2  0  0  0  0  0  0
  189.0350  178.5450  148.3120 O   0  0  0  0  0  1  0  0  0  0  0  0
  182.9280  179.5790  139.8940 C   0  0  0  0  0  1  0  0  0  0  0  0
  185.3210  179.4210  139.8070 O   0  0  0  0  0  0  0  0  0  0  0  0
  185.1500  179.6060  141.1950 C   0  0  1  0  0  3  0  0  0  0  0  0
  184.2010  177.3250  140.2560 C   0  0  0  0  0  1  0  0  0  0  0  0
  184.1700  178.8440  140.3680 C   0  0  0  0  0  0  0  0  0  0  0  0
  189.5400  178.0150  140.6580 O   0  0  0  0  0  0  0  0  0  0  0  0
  191.6850  177.4160  142.4740 C   0  0  0  0  0  1  0  0  0  0  0  0
  189.2940  177.4150  141.7430 C   0  0  0  0  0  0  0  0  0  0  0  0
  190.3630  176.8060  142.4820 N   0  0  0  0  0  0  0  0  0  0  0  0
  190.2480  175.4360  142.9520 C   0  0  0  0  0  2  0  0  0  0  0  0
  191.3750  175.0780  143.6680 F   0  0  0  0  0  0  0  0  0  0  0  0
  1 16  1  1  0  0  0
  1 11  1  0  0  0  0
  2 26  1  6  0  0  0
  2  9  1  0  0  0  0
  3 12  1  0  0  0  0
  4 10  1  1  0  0  0
  5 17  1  0  0  0  0
  6  7  1  1  0  0  0
  6  4  1  0  0  0  0
  8  5  1  6  0  0  0
  8  6  1  0  0  0  0
  9 15  1  0  0  0  0
 10 13  1  0  0  0  0
 11  9  1  0  0  0  0
 11  8  1  0  0  0  0
 11  6  1  0  0  0  0
 12 14  1  0  0  0  0
 13 18  1  0  0  0  0
 14 13  1  0  0  0  0
 15  3  1  0  0  0  0
 15 12  1  0  0  0  0
 15  4  1  0  0  0  0
 16  2  1  0  0  0  0
 17  7  1  0  0  0  0
 19 23  1  0  0  0  0
 20 23  1  0  0  0  0
 20 21  1  0  0  0  0
 21  1  1  0  0  0  0
 22 23  1  0  0  0  0
 23 21  1  0  0  0  0
 24 26  2  0  0  0  0
 25 27  1  0  0  0  0
 26 27  1  0  0  0  0
 27 28  1  0  0  0  0
 28 29  1  0  0  0  0
M  END
>  <MODEL>
3

>  <REMARK>
 VINA RESULT:      -7.0      2.534      3.132
  Name = 
  3 active torsions:
  status: ('A' for Active; 'I' for Inactive)
    1  A    between atoms: C_1  and  C_21
    2  A    between atoms: C_2  and  C_13
    3  A    between atoms: C_8  and  N_25
                            x       y       z     vdW  Elec       q    Type
                         _______ _______ _______ _____ _____    ______ ____

>  <TORSDO>
F 3

$$$$
=
 OpenBabel10222421073D

 29 35  0  0  1  0  0  0  0  0999 V2000
  189.0860  176.9710  143.5410 C   0  0  1  0  0  3  0  0  0  0  0  0
  188.1710  178.4670  142.1120 C   0  0  1  0  0  3  0  0  0  0  0  0
  184.7490  177.9300  142.7790 O   0  0  0  0  0  0  0  0  0  0  0  0
  185.7520  178.6450  144.8700 C   0  0  2  0  0  3  0  0  0  0  0  0
  188.9210  177.7700  146.2620 C   0  0  0  0  0  2  0  0  0  0  0  0
  186.8380  177.6590  145.2910 C   0  0  2  0  0  0  0  0  0  0  0  0
  186.7750  176.8230  146.5550 C   0  0  0  0  0  2  0  0  0  0  0  0
  188.1060  178.3250  145.1720 N   0  0  2  0  0  0  0  0  0  0  0  0
  187.0480  177.8270  142.9220 C   0  0  1  0  0  3  0  0  0  0  0  0
  184.3350  178.4010  145.4080 C   0  0  0  0  0  2  0  0  0  0  0  0
  187.7380  177.2620  144.1540 C   0  0  1  0  0  0  0  0  0  0  0  0
  184.8090  179.3080  142.5400 C   0  0  1  0  0  3  0  0  0  0  0  0
  183.2650  179.2200  144.6540 C   0  0  1  0  0  3  0  0  0  0  0  0
  183.7940  180.0430  143.4520 C   0  0  0  0  0  2  0  0  0  0  0  0
  185.8460  178.6220  143.3510 C   0  0  1  0  0  0  0  0  0  0  0  0
  189.3120  177.6680  142.4830 N   0  0  0  0  0  2  0  0  0  0  0  0
  188.0250  177.1420  147.3100 C   0  0  0  0  0  2  0  0  0  0  0  0
  182.2610  178.3600  144.2110 O   0  0  0  0  0  1  0  0  0  0  0  0
  192.2470  175.7120  145.4550 C   0  0  0  0  0  1  0  0  0  0  0  0
  191.2500  176.0090  143.2910 O   0  0  0  0  0  0  0  0  0  0  0  0
  190.0840  175.9820  144.0840 C   0  0  1  0  0  3  0  0  0  0  0  0
  191.6530  178.0680  144.4920 C   0  0  0  0  0  1  0  0  0  0  0  0
  191.3630  176.5750  144.5710 C   0  0  0  0  0  0  0  0  0  0  0  0
  186.7240  178.5360  140.2060 O   0  0  0  0  0  0  0  0  0  0  0  0
  188.9540  178.6570  138.3980 C   0  0  0  0  0  1  0  0  0  0  0  0
  187.8970  178.3610  140.6440 C   0  0  0  0  0  0  0  0  0  0  0  0
  188.9640  178.0710  139.7310 N   0  0  0  0  0  0  0  0  0  0  0  0
  189.8650  176.9580  139.9770 C   0  0  0  0  0  2  0  0  0  0  0  0
  191.1800  177.3750  139.8870 F   0  0  0  0  0  0  0  0  0  0  0  0
  1 16  1  1  0  0  0
  1 21  1  0  0  0  0
  1 11  1  0  0  0  0
  2 26  1  6  0  0  0
  2 16  1  0  0  0  0
  2  9  1  0  0  0  0
  3 15  1  0  0  0  0
  4  6  1  0  0  0  0
  4 10  1  6  0  0  0
  5 17  1  0  0  0  0
  6  7  1  1  0  0  0
  7 17  1  0  0  0  0
  8  6  1  0  0  0  0
  8  5  1  1  0  0  0
  9 15  1  0  0  0  0
  9 11  1  0  0  0  0
 11  8  1  0  0  0  0
 11  6  1  0  0  0  0
 12  3  1  0  0  0  0
 12 15  1  0  0  0  0
 12 14  1  0  0  0  0
 13 10  1  0  0  0  0
 14 13  1  0  0  0  0
 15  4  1  0  0  0  0
 18 13  1  0  0  0  0
 20 21  1  0  0  0  0
 20 23  1  0  0  0  0
 21 23  1  0  0  0  0
 22 23  1  0  0  0  0
 23 19  1  0  0  0  0
 24 26  2  0  0  0  0
 25 27  1  0  0  0  0
 27 28  1  0  0  0  0
 27 26  1  0  0  0  0
 29 28  1  0  0  0  0
M  END
>  <MODEL>
4

>  <REMARK>
 VINA RESULT:      -7.0      2.639      5.890
  Name = 
  3 active torsions:
  status: ('A' for Active; 'I' for Inactive)
    1  A    between atoms: C_1  and  C_21
    2  A    between atoms: C_2  and  C_13
    3  A    between atoms: C_8  and  N_25
                            x       y       z     vdW  Elec       q    Type
                         _______ _______ _______ _____ _____    ______ ____

>  <TORSDO>
F 3

$$$$
=
 OpenBabel10222421073D

 29 35  0  0  1  0  0  0  0  0999 V2000
  188.6210  177.9880  144.0480 C   0  0  1  0  0  3  0  0  0  0  0  0
  186.7830  177.8220  142.7390 C   0  0  1  0  0  3  0  0  0  0  0  0
  188.0870  179.0560  139.7020 O   0  0  0  0  0  0  0  0  0  0  0  0
  189.4020  177.0960  140.2690 C   0  0  2  0  0  3  0  0  0  0  0  0
  190.5980  176.0330  143.4600 C   0  0  0  0  0  2  0  0  0  0  0  0
  190.0990  177.3070  141.6100 C   0  0  2  0  0  0  0  0  0  0  0  0
  191.6060  177.3550  141.7800 C   0  0  0  0  0  2  0  0  0  0  0  0
  189.4980  176.4130  142.5620 N   0  0  2  0  0  0  0  0  0  0  0  0
  187.9470  178.2990  141.8760 C   0  0  1  0  0  3  0  0  0  0  0  0
  190.1780  177.4920  139.0050 C   0  0  0  0  0  2  0  0  0  0  0  0
  189.1910  177.8960  142.6540 C   0  0  1  0  0  0  0  0  0  0  0  0
  187.1990  178.0600  139.2810 C   0  0  1  0  0  3  0  0  0  0  0  0
  189.2730  177.5770  137.7560 C   0  0  1  0  0  3  0  0  0  0  0  0
  187.7630  177.3530  138.0230 C   0  0  0  0  0  2  0  0  0  0  0  0
  188.0920  177.8500  140.4480 C   0  0  1  0  0  0  0  0  0  0  0  0
  187.3380  177.8920  144.0680 N   0  0  0  0  0  2  0  0  0  0  0  0
  191.9290  176.3030  142.7910 C   0  0  0  0  0  2  0  0  0  0  0  0
  189.4490  178.8210  137.1500 O   0  0  0  0  0  1  0  0  0  0  0  0
  189.8590  177.2840  147.6830 C   0  0  0  0  0  1  0  0  0  0  0  0
  188.6560  178.8170  146.2800 O   0  0  0  0  0  0  0  0  0  0  0  0
  189.4370  178.1680  145.3020 C   0  0  1  0  0  3  0  0  0  0  0  0
  187.6340  176.6340  146.4760 C   0  0  0  0  0  1  0  0  0  0  0  0
  188.9170  177.4550  146.5040 C   0  0  0  0  0  0  0  0  0  0  0  0
  185.6180  179.6530  141.7280 O   0  0  0  0  0  0  0  0  0  0  0  0
  183.1340  178.8650  142.9370 C   0  0  0  0  0  1  0  0  0  0  0  0
  185.6080  178.7400  142.6030 C   0  0  0  0  0  0  0  0  0  0  0  0
  184.4650  178.5790  143.4540 N   0  0  0  0  0  0  0  0  0  0  0  0
  184.6260  178.4660  144.8930 C   0  0  0  0  0  2  0  0  0  0  0  0
  183.4870  178.9080  145.5400 F   0  0  0  0  0  0  0  0  0  0  0  0
  1 16  1  1  0  0  0
  1 21  1  0  0  0  0
  2 26  1  1  0  0  0
  2 16  1  0  0  0  0
  3 15  1  0  0  0  0
  4 10  1  6  0  0  0
  4 15  1  0  0  0  0
  4  6  1  0  0  0  0
  6  7  1  1  0  0  0
  6  8  1  0  0  0  0
  6 11  1  0  0  0  0
  7 17  1  0  0  0  0
  8 11  1  0  0  0  0
  8  5  1  1  0  0  0
  9 11  1  0  0  0  0
  9  2  1  0  0  0  0
 11  1  1  0  0  0  0
 12  3  1  0  0  0  0
 12 15  1  0  0  0  0
 13 14  1  0  0  0  0
 13 10  1  0  0  0  0
 14 12  1  0  0  0  0
 15  9  1  0  0  0  0
 17  5  1  0  0  0  0
 18 13  1  0  0  0  0
 20 23  1  0  0  0  0
 21 20  1  0  0  0  0
 21 23  1  0  0  0  0
 22 23  1  0  0  0  0
 23 19  1  0  0  0  0
 24 26  2  0  0  0  0
 25 27  1  0  0  0  0
 26 27  1  0  0  0  0
 27 28  1  0  0  0  0
 28 29  1  0  0  0  0
M  END
>  <MODEL>
5

>  <REMARK>
 VINA RESULT:      -6.9      2.947      6.847
  Name = 
  3 active torsions:
  status: ('A' for Active; 'I' for Inactive)
    1  A    between atoms: C_1  and  C_21
    2  A    between atoms: C_2  and  C_13
    3  A    between atoms: C_8  and  N_25
                            x       y       z     vdW  Elec       q    Type
                         _______ _______ _______ _____ _____    ______ ____

>  <TORSDO>
F 3

$$$$
=
 OpenBabel10222421073D

 29 35  0  0  1  0  0  0  0  0999 V2000
  186.6040  177.8900  142.7810 C   0  0  1  0  0  3  0  0  0  0  0  0
  188.2820  176.4700  143.3170 C   0  0  1  0  0  3  0  0  0  0  0  0
  189.6820  178.1910  146.0590 O   0  0  0  0  0  0  0  0  0  0  0  0
  187.3830  177.6980  146.6600 C   0  0  2  0  0  3  0  0  0  0  0  0
  184.4480  177.8300  144.6310 C   0  0  0  0  0  2  0  0  0  0  0  0
  186.4320  178.3630  145.6690 C   0  0  2  0  0  0  0  0  0  0  0  0
  185.4370  179.4430  146.0490 C   0  0  0  0  0  2  0  0  0  0  0  0
  185.8020  177.3230  144.9010 N   0  0  2  0  0  0  0  0  0  0  0  0
  188.2610  177.5980  144.3430 C   0  0  1  0  0  3  0  0  0  0  0  0
  187.7480  178.4900  147.9230 C   0  0  0  0  0  2  0  0  0  0  0  0
  186.8610  178.1850  144.2390 C   0  0  1  0  0  0  0  0  0  0  0  0
  189.8290  176.8480  146.4250 C   0  0  1  0  0  3  0  0  0  0  0  0
  188.9670  177.8970  148.6630 C   0  0  1  0  0  3  0  0  0  0  0  0
  189.6460  176.6980  147.9560 C   0  0  0  0  0  2  0  0  0  0  0  0
  188.5810  177.3410  145.7900 C   0  0  1  0  0  0  0  0  0  0  0  0
  187.3380  176.9340  142.3310 N   0  0  0  0  0  2  0  0  0  0  0  0
  184.1030  178.9300  145.6140 C   0  0  0  0  0  2  0  0  0  0  0  0
  189.9120  178.9030  148.8640 O   0  0  0  0  0  1  0  0  0  0  0  0
  184.9200  179.1710  139.5000 C   0  0  0  0  0  1  0  0  0  0  0  0
  186.1700  179.8140  141.4460 O   0  0  0  0  0  0  0  0  0  0  0  0
  185.6020  178.6130  141.9200 C   0  0  1  0  0  3  0  0  0  0  0  0
  187.3460  178.3150  139.9580 C   0  0  0  0  0  1  0  0  0  0  0  0
  186.0040  178.7940  140.4950 C   0  0  0  0  0  0  0  0  0  0  0  0
  190.2460  175.2060  142.7940 O   0  0  0  0  0  0  0  0  0  0  0  0
  191.1330  177.1850  140.9080 C   0  0  0  0  0  1  0  0  0  0  0  0
  189.6470  176.3170  142.7210 C   0  0  0  0  0  0  0  0  0  0  0  0
  190.2720  177.4240  142.0580 N   0  0  0  0  0  0  0  0  0  0  0  0
  190.3390  178.7270  142.6980 C   0  0  0  0  0  2  0  0  0  0  0  0
  191.4460  178.8010  143.5210 F   0  0  0  0  0  0  0  0  0  0  0  0
  1 16  1  1  0  0  0
  1 11  1  0  0  0  0
  2 26  1  6  0  0  0
  2  9  1  0  0  0  0
  3 12  1  0  0  0  0
  4 10  1  1  0  0  0
  5 17  1  0  0  0  0
  6  7  1  1  0  0  0
  6  4  1  0  0  0  0
  8  5  1  6  0  0  0
  8  6  1  0  0  0  0
  9 15  1  0  0  0  0
 10 13  1  0  0  0  0
 11  9  1  0  0  0  0
 11  8  1  0  0  0  0
 11  6  1  0  0  0  0
 12 14  1  0  0  0  0
 13 18  1  0  0  0  0
 14 13  1  0  0  0  0
 15  3  1  0  0  0  0
 15 12  1  0  0  0  0
 15  4  1  0  0  0  0
 16  2  1  0  0  0  0
 17  7  1  0  0  0  0
 19 23  1  0  0  0  0
 20 21  1  0  0  0  0
 21  1  1  0  0  0  0
 22 23  1  0  0  0  0
 23 20  1  0  0  0  0
 23 21  1  0  0  0  0
 25 27  1  0  0  0  0
 26 24  2  0  0  0  0
 27 28  1  0  0  0  0
 27 26  1  0  0  0  0
 28 29  1  0  0  0  0
M  END
>  <MODEL>
6

>  <REMARK>
 VINA RESULT:      -6.8      2.684      3.911
  Name = 
  3 active torsions:
  status: ('A' for Active; 'I' for Inactive)
    1  A    between atoms: C_1  and  C_21
    2  A    between atoms: C_2  and  C_13
    3  A    between atoms: C_8  and  N_25
                            x       y       z     vdW  Elec       q    Type
                         _______ _______ _______ _____ _____    ______ ____

>  <TORSDO>
F 3

$$$$
=
 OpenBabel10222421073D

 29 35  0  0  1  0  0  0  0  0999 V2000
  188.5590  177.3020  141.1580 C   0  0  1  0  0  3  0  0  0  0  0  0
  186.8830  178.4750  142.1250 C   0  0  1  0  0  3  0  0  0  0  0  0
  186.8200  176.9380  145.3000 O   0  0  0  0  0  0  0  0  0  0  0  0
  189.0350  177.8960  145.0450 C   0  0  2  0  0  3  0  0  0  0  0  0
  191.1300  177.9860  142.1560 C   0  0  0  0  0  2  0  0  0  0  0  0
  189.7360  177.2720  143.8420 C   0  0  2  0  0  0  0  0  0  0  0  0
  191.0020  176.4420  143.9410 C   0  0  0  0  0  2  0  0  0  0  0  0
  189.8590  178.2870  142.8310 N   0  0  2  0  0  0  0  0  0  0  0  0
  187.4640  177.5210  143.1640 C   0  0  1  0  0  3  0  0  0  0  0  0
  189.2650  177.2360  146.4120 C   0  0  0  0  0  2  0  0  0  0  0  0
  188.8470  177.1730  142.6340 C   0  0  1  0  0  0  0  0  0  0  0  0
  186.5220  178.2750  145.5930 C   0  0  1  0  0  3  0  0  0  0  0  0
  188.2510  177.7100  147.4760 C   0  0  1  0  0  3  0  0  0  0  0  0
  187.1480  178.6650  146.9550 C   0  0  0  0  0  2  0  0  0  0  0  0
  187.5760  177.9190  144.6100 C   0  0  1  0  0  0  0  0  0  0  0  0
  187.5380  178.0460  140.9140 N   0  0  0  0  0  2  0  0  0  0  0  0
  191.9910  177.1100  143.0410 C   0  0  0  0  0  2  0  0  0  0  0  0
  187.6490  176.5950  148.0600 O   0  0  0  0  0  1  0  0  0  0  0  0
  190.7360  177.0650  137.9270 C   0  0  0  0  0  1  0  0  0  0  0  0
  188.5870  176.5890  138.8860 O   0  0  0  0  0  0  0  0  0  0  0  0
  189.3610  176.6480  140.0640 C   0  0  1  0  0  3  0  0  0  0  0  0
  189.1290  178.9430  138.7750 C   0  0  0  0  0  1  0  0  0  0  0  0
  189.6450  177.5140  138.8830 C   0  0  0  0  0  0  0  0  0  0  0  0
  184.7660  177.7000  142.9280 O   0  0  0  0  0  0  0  0  0  0  0  0
  183.3420  179.3650  141.0690 C   0  0  0  0  0  1  0  0  0  0  0  0
  185.3990  178.3080  142.0190 C   0  0  0  0  0  0  0  0  0  0  0  0
  184.6920  178.8460  140.8930 N   0  0  0  0  0  0  0  0  0  0  0  0
  185.1480  178.5830  139.5400 C   0  0  0  0  0  2  0  0  0  0  0  0
  184.5720  179.4760  138.6560 F   0  0  0  0  0  0  0  0  0  0  0  0
  1 16  1  6  0  0  0
  1 11  1  0  0  0  0
  2 26  1  6  0  0  0
  2  9  1  0  0  0  0
  3 12  1  0  0  0  0
  4 10  1  1  0  0  0
  5 17  1  0  0  0  0
  6  7  1  1  0  0  0
  6  4  1  0  0  0  0
  8  5  1  6  0  0  0
  8  6  1  0  0  0  0
  9 15  1  0  0  0  0
 10 13  1  0  0  0  0
 11  8  1  0  0  0  0
 11  9  1  0  0  0  0
 11  6  1  0  0  0  0
 12 14  1  0  0  0  0
 13 18  1  0  0  0  0
 14 13  1  0  0  0  0
 15  4  1  0  0  0  0
 15  3  1  0  0  0  0
 15 12  1  0  0  0  0
 16  2  1  0  0  0  0
 17  7  1  0  0  0  0
 19 23  1  0  0  0  0
 20 21  1  0  0  0  0
 21  1  1  0  0  0  0
 22 23  1  0  0  0  0
 23 20  1  0  0  0  0
 23 21  1  0  0  0  0
 26 24  2  0  0  0  0
 27 25  1  0  0  0  0
 27 26  1  0  0  0  0
 28 27  1  0  0  0  0
 29 28  1  0  0  0  0
M  END
>  <MODEL>
7

>  <REMARK>
 VINA RESULT:      -6.7      2.252      5.168
  Name = 
  3 active torsions:
  status: ('A' for Active; 'I' for Inactive)
    1  A    between atoms: C_1  and  C_21
    2  A    between atoms: C_2  and  C_13
    3  A    between atoms: C_8  and  N_25
                            x       y       z     vdW  Elec       q    Type
                         _______ _______ _______ _____ _____    ______ ____

>  <TORSDO>
F 3

$$$$
=
 OpenBabel10222421073D

 29 35  0  0  1  0  0  0  0  0999 V2000
  186.3060  178.2530  142.7310 C   0  0  1  0  0  3  0  0  0  0  0  0
  185.1570  179.1050  140.9790 C   0  0  1  0  0  3  0  0  0  0  0  0
  181.9600  177.7680  141.6400 O   0  0  0  0  0  0  0  0  0  0  0  0
  182.5360  179.1480  143.5510 C   0  0  2  0  0  3  0  0  0  0  0  0
  185.6810  179.5100  145.2020 C   0  0  0  0  0  2  0  0  0  0  0  0
  183.8030  178.6180  144.2140 C   0  0  2  0  0  0  0  0  0  0  0  0
  183.8520  178.0740  145.6290 C   0  0  0  0  0  2  0  0  0  0  0  0
  184.8510  179.5780  143.9900 N   0  0  2  0  0  0  0  0  0  0  0  0
  184.1790  178.3510  141.8740 C   0  0  1  0  0  3  0  0  0  0  0  0
  181.1940  178.6280  144.0850 C   0  0  0  0  0  2  0  0  0  0  0  0
  184.8790  178.2690  143.2230 C   0  0  1  0  0  0  0  0  0  0  0  0
  181.6680  179.0270  141.1030 C   0  0  1  0  0  3  0  0  0  0  0  0
  180.0170  178.9390  143.1340 C   0  0  1  0  0  3  0  0  0  0  0  0
  180.4140  179.6140  141.7970 C   0  0  0  0  0  2  0  0  0  0  0  0
  182.7720  178.8440  142.0780 C   0  0  1  0  0  0  0  0  0  0  0  0
  186.4320  178.7540  141.5530 N   0  0  0  0  0  2  0  0  0  0  0  0
  184.8940  178.8820  146.3330 C   0  0  0  0  0  2  0  0  0  0  0  0
  179.3270  177.7580  142.8610 O   0  0  0  0  0  1  0  0  0  0  0  0
  189.9950  177.1810  143.4240 C   0  0  0  0  0  1  0  0  0  0  0  0
  187.7490  176.3960  143.1070 O   0  0  0  0  0  0  0  0  0  0  0  0
  187.4790  177.7200  143.5120 C   0  0  1  0  0  3  0  0  0  0  0  0
  188.6980  177.5020  141.1780 C   0  0  0  0  0  1  0  0  0  0  0  0
  188.6760  177.3680  142.6950 C   0  0  0  0  0  0  0  0  0  0  0  0
  186.0110  177.9730  139.0500 O   0  0  0  0  0  0  0  0  0  0  0  0
  183.4200  177.9300  137.8090 C   0  0  0  0  0  1  0  0  0  0  0  0
  185.0590  178.6280  139.5620 C   0  0  0  0  0  0  0  0  0  0  0  0
  183.8830  178.9020  138.7890 N   0  0  0  0  0  0  0  0  0  0  0  0
  183.3430  180.2490  138.7180 C   0  0  0  0  0  2  0  0  0  0  0  0
  182.1480  180.2520  138.0240 F   0  0  0  0  0  0  0  0  0  0  0  0
  1 16  1  1  0  0  0
  1 11  1  0  0  0  0
  1 21  1  0  0  0  0
  2 26  1  6  0  0  0
  2 16  1  0  0  0  0
  2  9  1  0  0  0  0
  3 15  1  0  0  0  0
  4 10  1  1  0  0  0
  4  6  1  0  0  0  0
  5 17  1  0  0  0  0
  6  7  1  1  0  0  0
  7 17  1  0  0  0  0
  8  6  1  0  0  0  0
  8  5  1  1  0  0  0
  9 15  1  0  0  0  0
  9 11  1  0  0  0  0
 11  8  1  0  0  0  0
 11  6  1  0  0  0  0
 12  3  1  0  0  0  0
 12 14  1  0  0  0  0
 12 15  1  0  0  0  0
 13 10  1  0  0  0  0
 14 13  1  0  0  0  0
 15  4  1  0  0  0  0
 18 13  1  0  0  0  0
 20 21  1  0  0  0  0
 22 23  1  0  0  0  0
 23 20  1  0  0  0  0
 23 19  1  0  0  0  0
 23 21  1  0  0  0  0
 24 26  2  0  0  0  0
 25 27  1  0  0  0  0
 27 26  1  0  0  0  0
 28 27  1  0  0  0  0
 29 28  1  0  0  0  0
M  END
>  <MODEL>
8

>  <REMARK>
 VINA RESULT:      -6.5      2.601      5.955
  Name = 
  3 active torsions:
  status: ('A' for Active; 'I' for Inactive)
    1  A    between atoms: C_1  and  C_21
    2  A    between atoms: C_2  and  C_13
    3  A    between atoms: C_8  and  N_25
                            x       y       z     vdW  Elec       q    Type
                         _______ _______ _______ _____ _____    ______ ____

>  <TORSDO>
F 3

$$$$
=
 OpenBabel10222421073D

 29 35  0  0  1  0  0  0  0  0999 V2000
  187.0040  177.9120  143.3210 C   0  0  1  0  0  3  0  0  0  0  0  0
  187.2400  178.7610  141.2370 C   0  0  1  0  0  3  0  0  0  0  0  0
  184.1140  177.8750  139.8630 O   0  0  0  0  0  0  0  0  0  0  0  0
  183.6470  179.3170  141.7580 C   0  0  2  0  0  3  0  0  0  0  0  0
  185.2340  179.4200  144.9540 C   0  0  0  0  0  2  0  0  0  0  0  0
  184.1920  178.6880  143.0370 C   0  0  2  0  0  0  0  0  0  0  0  0
  183.3210  178.2530  144.2010 C   0  0  0  0  0  2  0  0  0  0  0  0
  185.2940  179.4950  143.4870 N   0  0  2  0  0  0  0  0  0  0  0  0
  185.8270  178.2020  141.3710 C   0  0  1  0  0  3  0  0  0  0  0  0
  182.1900  179.0050  141.3880 C   0  0  0  0  0  2  0  0  0  0  0  0
  185.5810  178.1380  142.8720 C   0  0  1  0  0  0  0  0  0  0  0  0
  184.3760  179.1160  139.2710 C   0  0  1  0  0  3  0  0  0  0  0  0
  181.8560  179.3830  139.9290 C   0  0  1  0  0  3  0  0  0  0  0  0
  183.0530  179.9020  139.0930 C   0  0  0  0  0  2  0  0  0  0  0  0
  184.6570  178.8750  140.7080 C   0  0  1  0  0  0  0  0  0  0  0  0
  187.8680  178.3040  142.4510 N   0  0  0  0  0  2  0  0  0  0  0  0
  183.8540  178.9790  145.3940 C   0  0  0  0  0  2  0  0  0  0  0  0
  181.2980  178.2770  139.2870 O   0  0  0  0  0  1  0  0  0  0  0  0
  189.0760  177.4240  146.5930 C   0  0  0  0  0  1  0  0  0  0  0  0
  188.5380  176.4830  144.4520 O   0  0  0  0  0  0  0  0  0  0  0  0
  187.4050  177.3020  144.6390 C   0  0  1  0  0  3  0  0  0  0  0  0
  189.6810  178.6110  144.3450 C   0  0  0  0  0  1  0  0  0  0  0  0
  188.7570  177.6920  145.1330 C   0  0  0  0  0  0  0  0  0  0  0  0
  187.3270  178.1660  138.9200 O   0  0  0  0  0  0  0  0  0  0  0  0
  190.1800  177.8370  139.0130 C   0  0  0  0  0  1  0  0  0  0  0  0
  187.9260  178.1940  140.0330 C   0  0  0  0  0  0  0  0  0  0  0  0
  189.2650  177.6910  140.1370 N   0  0  0  0  0  0  0  0  0  0  0  0
  189.6240  176.7560  141.1890 C   0  0  0  0  0  2  0  0  0  0  0  0
  190.9250  176.9720  141.6010 F   0  0  0  0  0  0  0  0  0  0  0  0
  1 16  1  1  0  0  0
  1 21  1  0  0  0  0
  2 26  1  6  0  0  0
  2  9  1  0  0  0  0
  2 16  1  0  0  0  0
  3 15  1  0  0  0  0
  4 10  1  6  0  0  0
  4  6  1  0  0  0  0
  5 17  1  0  0  0  0
  6  8  1  0  0  0  0
  6  7  1  1  0  0  0
  7 17  1  0  0  0  0
  8  5  1  1  0  0  0
  9 11  1  0  0  0  0
 11  6  1  0  0  0  0
 11  1  1  0  0  0  0
 11  8  1  0  0  0  0
 12  3  1  0  0  0  0
 12 15  1  0  0  0  0
 13 10  1  0  0  0  0
 14 12  1  0  0  0  0
 14 13  1  0  0  0  0
 15  9  1  0  0  0  0
 15  4  1  0  0  0  0
 18 13  1  0  0  0  0
 20 21  1  0  0  0  0
 20 23  1  0  0  0  0
 21 23  1  0  0  0  0
 22 23  1  0  0  0  0
 23 19  1  0  0  0  0
 24 26  2  0  0  0  0
 25 27  1  0  0  0  0
 26 27  1  0  0  0  0
 27 28  1  0  0  0  0
 28 29  1  0  0  0  0
M  END
>  <MODEL>
9

>  <REMARK>
 VINA RESULT:      -6.2      2.033      5.645
  Name = 
  3 active torsions:
  status: ('A' for Active; 'I' for Inactive)
    1  A    between atoms: C_1  and  C_21
    2  A    between atoms: C_2  and  C_13
    3  A    between atoms: C_8  and  N_25
                            x       y       z     vdW  Elec       q    Type
                         _______ _______ _______ _____ _____    ______ ____

>  <TORSDO>
F 3

$$$$
