=
 OpenBabel10222417103D

 25 27  0  0  1  0  0  0  0  0999 V2000
  187.8800  178.1410  141.9540 S   0  0  0  0  0  0  0  0  0  0  0  0
  190.8150  177.9490  142.7040 C   0  0  0  0  0  0  0  0  0  0  0  0
  191.7000  177.4840  141.6640 C   0  0  0  0  0  3  0  0  0  0  0  0
  191.2580  177.1290  140.3720 N   0  0  0  0  0  0  0  0  0  0  0  0
  189.9410  177.1920  139.9390 C   0  0  0  0  0  0  0  0  0  0  0  0
  189.1040  177.6290  140.9070 C   0  0  0  0  0  0  0  0  0  0  0  0
  189.5360  177.9950  142.2550 C   0  0  0  0  0  0  0  0  0  0  0  0
  191.3350  178.4150  144.3510 S   0  0  0  0  0  0  0  0  0  0  0  0
  190.9820  176.7780  145.0990 C   0  0  0  0  0  0  0  0  0  0  0  0
  189.7590  176.3240  144.6350 F   0  0  0  0  0  0  0  0  0  0  0  0
  191.9580  175.8730  144.7210 F   0  0  0  0  0  0  0  0  0  0  0  0
  190.9280  176.8460  146.6340 C   0  0  2  0  0  3  0  0  0  0  0  0
  191.9180  175.9100  147.3150 C   0  0  0  0  0  1  0  0  0  0  0  0
  189.5190  176.7270  147.2190 C   0  0  0  0  0  2  0  0  0  0  0  0
  189.0170  178.0160  147.6660 N   0  0  0  0  0  2  0  0  0  0  0  0
  187.6190  177.9480  147.5990 N   0  0  0  0  0  2  0  0  0  0  0  0
  187.2640  177.8610  146.1910 C   0  0  0  0  0  2  0  0  0  0  0  0
  185.9960  178.6520  145.9140 C   0  0  0  0  0  2  0  0  0  0  0  0
  185.4310  179.0810  147.1150 O   0  0  0  0  0  1  0  0  0  0  0  0
  189.5060  176.7580  138.5810 C   0  0  0  0  0  2  0  0  0  0  0  0
  187.2830  177.6670  137.6970 C   0  0  2  0  0  3  0  0  0  0  0  0
  189.1940  179.1930  138.0320 F   0  0  0  0  0  0  0  0  0  0  0  0
  188.2260  177.5430  136.5040 C   0  0  0  0  0  2  0  0  0  0  0  0
  186.6190  178.8940  137.6360 O   0  0  0  0  0  1  0  0  0  0  0  0
  188.7740  177.8830  137.8690 C   0  0  1  0  0  0  0  0  0  0  0  0
  1  7  1  0  0  0  0
  2  8  1  0  0  0  0
  3  2  2  0  0  0  0
  4  3  1  0  0  0  0
  5  4  2  0  0  0  0
  5  6  1  0  0  0  0
  6  1  1  0  0  0  0
  6  7  2  0  0  0  0
  7  2  1  0  0  0  0
  8  9  1  0  0  0  0
  9 12  1  0  0  0  0
 10  9  1  0  0  0  0
 11  9  1  0  0  0  0
 12 14  1  0  0  0  0
 12 13  1  1  0  0  0
 14 15  1  0  0  0  0
 16 15  1  0  0  0  0
 17 16  1  0  0  0  0
 18 17  1  0  0  0  0
 18 19  1  0  0  0  0
 20  5  1  0  0  0  0
 21 24  1  6  0  0  0
 21 25  1  0  0  0  0
 23 21  1  0  0  0  0
 23 25  1  0  0  0  0
 25 22  1  1  0  0  0
 25 20  1  0  0  0  0
M  END
>  <MODEL>
1

>  <REMARK>
 VINA RESULT:      -6.9      0.000      0.000
  Name = 
  10 active torsions:
  status: ('A' for Active; 'I' for Inactive)
    1  A    between atoms: C_1  and  N_6
    2  A    between atoms: C_1  and  C_7
    3  A    between atoms: C_3  and  C_4
    4  A    between atoms: C_3  and  N_24
    5  A    between atoms: C_5  and  C_7
    6  A    between atoms: C_5  and  S_8
    7  A    between atoms: N_6  and  N_24
    8  A    between atoms: S_8  and  C_13
    9  A    between atoms: C_12  and  C_17
   10  A    between atoms: C_12  and  C_20
                            x       y       z     vdW  Elec       q    Type
                         _______ _______ _______ _____ _____    ______ ____

>  <TORSDO>
F 10

$$$$
=
 OpenBabel10222417103D

 25 27  0  0  1  0  0  0  0  0999 V2000
  187.6560  178.4540  141.5450 S   0  0  0  0  0  0  0  0  0  0  0  0
  190.4310  178.0620  142.7120 C   0  0  0  0  0  0  0  0  0  0  0  0
  191.4050  177.4680  141.8300 C   0  0  0  0  0  3  0  0  0  0  0  0
  191.1150  177.0790  140.5050 N   0  0  0  0  0  0  0  0  0  0  0  0
  189.8810  177.2260  139.8870 C   0  0  0  0  0  0  0  0  0  0  0  0
  188.9610  177.7850  140.7060 C   0  0  0  0  0  0  0  0  0  0  0  0
  189.2340  178.1890  142.0850 C   0  0  0  0  0  0  0  0  0  0  0  0
  190.7590  178.5760  144.3940 S   0  0  0  0  0  0  0  0  0  0  0  0
  189.8480  177.1840  145.1660 C   0  0  0  0  0  0  0  0  0  0  0  0
  189.4550  176.2980  144.1780 F   0  0  0  0  0  0  0  0  0  0  0  0
  190.6790  176.5160  146.0490 F   0  0  0  0  0  0  0  0  0  0  0  0
  188.5970  177.6620  145.9210 C   0  0  2  0  0  3  0  0  0  0  0  0
  188.5430  177.1830  147.3650 C   0  0  0  0  0  1  0  0  0  0  0  0
  187.2830  177.4160  145.1770 C   0  0  0  0  0  2  0  0  0  0  0  0
  186.1330  177.6350  146.0400 N   0  0  0  0  0  2  0  0  0  0  0  0
  185.7570  178.9750  145.8760 N   0  0  0  0  0  2  0  0  0  0  0  0
  184.4050  178.9750  145.3380 C   0  0  0  0  0  2  0  0  0  0  0  0
  184.4230  179.3340  143.8620 C   0  0  0  0  0  2  0  0  0  0  0  0
  184.3840  178.1740  143.0890 O   0  0  0  0  0  1  0  0  0  0  0  0
  189.6000  176.7540  138.5020 C   0  0  0  0  0  2  0  0  0  0  0  0
  187.3520  177.6110  137.6280 C   0  0  2  0  0  3  0  0  0  0  0  0
  189.2950  179.1290  137.7320 F   0  0  0  0  0  0  0  0  0  0  0  0
  188.2400  177.3570  136.4140 C   0  0  0  0  0  2  0  0  0  0  0  0
  186.7020  178.8370  137.4770 O   0  0  0  0  0  1  0  0  0  0  0  0
  188.8510  177.8170  137.7160 C   0  0  1  0  0  0  0  0  0  0  0  0
  1  7  1  0  0  0  0
  2  8  1  0  0  0  0
  3  2  2  0  0  0  0
  4  3  1  0  0  0  0
  5  4  2  0  0  0  0
  5  6  1  0  0  0  0
  6  1  1  0  0  0  0
  6  7  2  0  0  0  0
  7  2  1  0  0  0  0
  8  9  1  0  0  0  0
  9 12  1  0  0  0  0
  9 11  1  0  0  0  0
 10  9  1  0  0  0  0
 12 13  1  1  0  0  0
 14 12  1  0  0  0  0
 14 15  1  0  0  0  0
 16 15  1  0  0  0  0
 17 16  1  0  0  0  0
 18 17  1  0  0  0  0
 19 18  1  0  0  0  0
 20  5  1  0  0  0  0
 21 24  1  6  0  0  0
 21 25  1  0  0  0  0
 23 21  1  0  0  0  0
 23 25  1  0  0  0  0
 25 22  1  1  0  0  0
 25 20  1  0  0  0  0
M  END
>  <MODEL>
2

>  <REMARK>
 VINA RESULT:      -6.6      1.554      1.901
  Name = 
  10 active torsions:
  status: ('A' for Active; 'I' for Inactive)
    1  A    between atoms: C_1  and  N_6
    2  A    between atoms: C_1  and  C_7
    3  A    between atoms: C_3  and  C_4
    4  A    between atoms: C_3  and  N_24
    5  A    between atoms: C_5  and  C_7
    6  A    between atoms: C_5  and  S_8
    7  A    between atoms: N_6  and  N_24
    8  A    between atoms: S_8  and  C_13
    9  A    between atoms: C_12  and  C_17
   10  A    between atoms: C_12  and  C_20
                            x       y       z     vdW  Elec       q    Type
                         _______ _______ _______ _____ _____    ______ ____

>  <TORSDO>
F 10

$$$$
=
 OpenBabel10222417103D

 25 27  0  0  1  0  0  0  0  0999 V2000
  187.2110  178.5480  141.2920 S   0  0  0  0  0  0  0  0  0  0  0  0
  189.7380  176.9010  141.6280 C   0  0  0  0  0  0  0  0  0  0  0  0
  190.6160  176.8580  140.4840 C   0  0  0  0  0  3  0  0  0  0  0  0
  190.3430  177.5250  139.2720 N   0  0  0  0  0  0  0  0  0  0  0  0
  189.2190  178.3040  139.0310 C   0  0  0  0  0  0  0  0  0  0  0  0
  188.3910  178.3520  140.0990 C   0  0  0  0  0  0  0  0  0  0  0  0
  188.6480  177.6630  141.3630 C   0  0  0  0  0  0  0  0  0  0  0  0
  190.0520  176.0760  143.1850 S   0  0  0  0  0  0  0  0  0  0  0  0
  190.6230  177.5890  144.0530 C   0  0  0  0  0  0  0  0  0  0  0  0
  191.8990  177.9020  143.6210 F   0  0  0  0  0  0  0  0  0  0  0  0
  189.7830  178.6460  143.7470 F   0  0  0  0  0  0  0  0  0  0  0  0
  190.6540  177.3990  145.5780 C   0  0  2  0  0  3  0  0  0  0  0  0
  191.7460  176.4450  146.0450 C   0  0  0  0  0  1  0  0  0  0  0  0
  189.2940  177.0740  146.1980 C   0  0  0  0  0  2  0  0  0  0  0  0
  188.9410  178.0250  147.2390 N   0  0  0  0  0  2  0  0  0  0  0  0
  187.6500  177.6910  147.6690 N   0  0  0  0  0  2  0  0  0  0  0  0
  186.7850  177.7440  146.5010 C   0  0  0  0  0  2  0  0  0  0  0  0
  185.8510  178.9400  146.5870 C   0  0  0  0  0  2  0  0  0  0  0  0
  184.5370  178.5070  146.7670 O   0  0  0  0  0  1  0  0  0  0  0  0
  188.9400  178.9500  137.7180 C   0  0  0  0  0  2  0  0  0  0  0  0
  187.8410  176.8570  136.7380 C   0  0  2  0  0  3  0  0  0  0  0  0
  186.4500  178.7830  137.4060 F   0  0  0  0  0  0  0  0  0  0  0  0
  187.8860  177.9030  135.6290 C   0  0  0  0  0  2  0  0  0  0  0  0
  186.5850  176.2480  136.7490 O   0  0  0  0  0  1  0  0  0  0  0  0
  187.7150  178.3310  137.0660 C   0  0  1  0  0  0  0  0  0  0  0  0
  1  7  1  0  0  0  0
  2  8  1  0  0  0  0
  3  2  2  0  0  0  0
  4  3  1  0  0  0  0
  5  4  2  0  0  0  0
  5  6  1  0  0  0  0
  6  1  1  0  0  0  0
  6  7  2  0  0  0  0
  7  2  1  0  0  0  0
  8  9  1  0  0  0  0
  9 12  1  0  0  0  0
 10  9  1  0  0  0  0
 11  9  1  0  0  0  0
 12 13  1  6  0  0  0
 12 14  1  0  0  0  0
 14 15  1  0  0  0  0
 15 16  1  0  0  0  0
 17 18  1  0  0  0  0
 17 16  1  0  0  0  0
 18 19  1  0  0  0  0
 20  5  1  0  0  0  0
 21 24  1  6  0  0  0
 21 25  1  0  0  0  0
 23 21  1  0  0  0  0
 23 25  1  0  0  0  0
 25 22  1  1  0  0  0
 25 20  1  0  0  0  0
M  END
>  <MODEL>
3

>  <REMARK>
 VINA RESULT:      -6.5      1.549      1.801
  Name = 
  10 active torsions:
  status: ('A' for Active; 'I' for Inactive)
    1  A    between atoms: C_1  and  N_6
    2  A    between atoms: C_1  and  C_7
    3  A    between atoms: C_3  and  C_4
    4  A    between atoms: C_3  and  N_24
    5  A    between atoms: C_5  and  C_7
    6  A    between atoms: C_5  and  S_8
    7  A    between atoms: N_6  and  N_24
    8  A    between atoms: S_8  and  C_13
    9  A    between atoms: C_12  and  C_17
   10  A    between atoms: C_12  and  C_20
                            x       y       z     vdW  Elec       q    Type
                         _______ _______ _______ _____ _____    ______ ____

>  <TORSDO>
F 10

$$$$
=
 OpenBabel10222417103D

 25 27  0  0  1  0  0  0  0  0999 V2000
  191.4790  176.7250  139.7210 S   0  0  0  0  0  0  0  0  0  0  0  0
  189.1080  177.1750  141.5620 C   0  0  0  0  0  0  0  0  0  0  0  0
  188.0390  177.9800  141.0240 C   0  0  0  0  0  3  0  0  0  0  0  0
  188.0670  178.5400  139.7290 N   0  0  0  0  0  0  0  0  0  0  0  0
  189.1030  178.3820  138.8180 C   0  0  0  0  0  0  0  0  0  0  0  0
  190.1090  177.6260  139.3140 C   0  0  0  0  0  0  0  0  0  0  0  0
  190.1070  177.0420  140.6540 C   0  0  0  0  0  0  0  0  0  0  0  0
  189.1080  176.4410  143.1940 S   0  0  0  0  0  0  0  0  0  0  0  0
  190.3820  177.5700  143.8760 C   0  0  0  0  0  0  0  0  0  0  0  0
  191.6290  177.1640  143.4330 F   0  0  0  0  0  0  0  0  0  0  0  0
  190.1540  178.8580  143.4230 F   0  0  0  0  0  0  0  0  0  0  0  0
  190.3850  177.5730  145.4130 C   0  0  2  0  0  3  0  0  0  0  0  0
  191.5170  176.7510  146.0160 C   0  0  0  0  0  1  0  0  0  0  0  0
  189.0300  177.2460  146.0440 C   0  0  0  0  0  2  0  0  0  0  0  0
  188.8610  177.9180  147.3220 N   0  0  0  0  0  2  0  0  0  0  0  0
  187.4820  178.0670  147.5190 N   0  0  0  0  0  2  0  0  0  0  0  0
  186.8440  177.8890  146.2240 C   0  0  0  0  0  2  0  0  0  0  0  0
  185.7290  178.9060  146.0380 C   0  0  0  0  0  2  0  0  0  0  0  0
  184.6010  178.5120  146.7570 O   0  0  0  0  0  1  0  0  0  0  0  0
  189.1190  179.0330  137.4790 C   0  0  0  0  0  2  0  0  0  0  0  0
  188.2630  176.8560  136.4400 C   0  0  2  0  0  3  0  0  0  0  0  0
  186.8470  178.8770  136.4120 F   0  0  0  0  0  0  0  0  0  0  0  0
  188.7140  177.7560  135.2930 C   0  0  0  0  0  2  0  0  0  0  0  0
  187.0350  176.2780  136.1180 O   0  0  0  0  0  1  0  0  0  0  0  0
  188.1260  178.3620  136.5450 C   0  0  1  0  0  0  0  0  0  0  0  0
  1  7  1  0  0  0  0
  2  8  1  0  0  0  0
  3  2  1  0  0  0  0
  4  3  2  0  0  0  0
  5  6  2  0  0  0  0
  5  4  1  0  0  0  0
  6  1  1  0  0  0  0
  6  7  1  0  0  0  0
  7  2  2  0  0  0  0
  8  9  1  0  0  0  0
  9 12  1  0  0  0  0
 10  9  1  0  0  0  0
 11  9  1  0  0  0  0
 12 13  1  1  0  0  0
 12 14  1  0  0  0  0
 14 15  1  0  0  0  0
 15 16  1  0  0  0  0
 17 16  1  0  0  0  0
 18 17  1  0  0  0  0
 18 19  1  0  0  0  0
 20  5  1  0  0  0  0
 21 24  1  6  0  0  0
 21 25  1  0  0  0  0
 23 21  1  0  0  0  0
 23 25  1  0  0  0  0
 25 22  1  6  0  0  0
 25 20  1  0  0  0  0
M  END
>  <MODEL>
4

>  <REMARK>
 VINA RESULT:      -6.4      1.827      2.317
  Name = 
  10 active torsions:
  status: ('A' for Active; 'I' for Inactive)
    1  A    between atoms: C_1  and  N_6
    2  A    between atoms: C_1  and  C_7
    3  A    between atoms: C_3  and  C_4
    4  A    between atoms: C_3  and  N_24
    5  A    between atoms: C_5  and  C_7
    6  A    between atoms: C_5  and  S_8
    7  A    between atoms: N_6  and  N_24
    8  A    between atoms: S_8  and  C_13
    9  A    between atoms: C_12  and  C_17
   10  A    between atoms: C_12  and  C_20
                            x       y       z     vdW  Elec       q    Type
                         _______ _______ _______ _____ _____    ______ ____

>  <TORSDO>
F 10

$$$$
=
 OpenBabel10222417103D

 25 27  0  0  1  0  0  0  0  0999 V2000
  188.7690  178.2810  139.9030 S   0  0  0  0  0  0  0  0  0  0  0  0
  188.6710  177.0180  142.6610 C   0  0  0  0  0  0  0  0  0  0  0  0
  187.4410  177.2010  143.3920 C   0  0  0  0  0  3  0  0  0  0  0  0
  186.3390  177.9210  142.8860 N   0  0  0  0  0  0  0  0  0  0  0  0
  186.2910  178.5240  141.6370 C   0  0  0  0  0  0  0  0  0  0  0  0
  187.4390  178.3560  140.9430 C   0  0  0  0  0  0  0  0  0  0  0  0
  188.5980  177.6210  141.4480 C   0  0  0  0  0  0  0  0  0  0  0  0
  190.0880  176.1060  143.2630 S   0  0  0  0  0  0  0  0  0  0  0  0
  190.7680  177.5000  144.2440 C   0  0  0  0  0  0  0  0  0  0  0  0
  192.0360  177.8030  143.7790 F   0  0  0  0  0  0  0  0  0  0  0  0
  189.9640  178.6160  144.0860 F   0  0  0  0  0  0  0  0  0  0  0  0
  190.8630  177.1580  145.7390 C   0  0  2  0  0  3  0  0  0  0  0  0
  191.9300  176.1170  146.0540 C   0  0  0  0  0  1  0  0  0  0  0  0
  189.5200  176.8290  146.3950 C   0  0  0  0  0  2  0  0  0  0  0  0
  188.9820  177.9740  147.1100 N   0  0  0  0  0  2  0  0  0  0  0  0
  187.7900  177.5490  147.7130 N   0  0  0  0  0  2  0  0  0  0  0  0
  186.8200  178.6190  147.5410 C   0  0  0  0  0  2  0  0  0  0  0  0
  185.8240  178.2620  146.4500 C   0  0  0  0  0  2  0  0  0  0  0  0
  184.5230  178.4740  146.9050 O   0  0  0  0  0  1  0  0  0  0  0  0
  185.1260  179.3210  141.1590 C   0  0  0  0  0  2  0  0  0  0  0  0
  184.7150  178.5040  138.7690 C   0  0  2  0  0  3  0  0  0  0  0  0
  183.6580  177.3390  140.6700 F   0  0  0  0  0  0  0  0  0  0  0  0
  183.4770  179.2850  139.1970 C   0  0  0  0  0  2  0  0  0  0  0  0
  184.3210  177.3250  138.1330 O   0  0  0  0  0  1  0  0  0  0  0  0
  184.2650  178.4980  140.2160 C   0  0  1  0  0  0  0  0  0  0  0  0
  1  6  1  0  0  0  0
  1  7  1  0  0  0  0
  2  8  1  0  0  0  0
  2  3  1  0  0  0  0
  4  3  2  0  0  0  0
  5  4  1  0  0  0  0
  6  7  1  0  0  0  0
  6  5  2  0  0  0  0
  7  2  2  0  0  0  0
  8  9  1  0  0  0  0
  9 12  1  0  0  0  0
 10  9  1  0  0  0  0
 11  9  1  0  0  0  0
 12 13  1  6  0  0  0
 12 14  1  0  0  0  0
 14 15  1  0  0  0  0
 15 16  1  0  0  0  0
 17 16  1  0  0  0  0
 18 19  1  0  0  0  0
 18 17  1  0  0  0  0
 20  5  1  0  0  0  0
 21 24  1  6  0  0  0
 21 23  1  0  0  0  0
 21 25  1  0  0  0  0
 23 25  1  0  0  0  0
 25 22  1  1  0  0  0
 25 20  1  0  0  0  0
M  END
>  <MODEL>
5

>  <REMARK>
 VINA RESULT:      -6.3      2.751      3.299
  Name = 
  10 active torsions:
  status: ('A' for Active; 'I' for Inactive)
    1  A    between atoms: C_1  and  N_6
    2  A    between atoms: C_1  and  C_7
    3  A    between atoms: C_3  and  C_4
    4  A    between atoms: C_3  and  N_24
    5  A    between atoms: C_5  and  C_7
    6  A    between atoms: C_5  and  S_8
    7  A    between atoms: N_6  and  N_24
    8  A    between atoms: S_8  and  C_13
    9  A    between atoms: C_12  and  C_17
   10  A    between atoms: C_12  and  C_20
                            x       y       z     vdW  Elec       q    Type
                         _______ _______ _______ _____ _____    ______ ____

>  <TORSDO>
F 10

$$$$
=
 OpenBabel10222417103D

 25 27  0  0  1  0  0  0  0  0999 V2000
  188.1150  178.2520  140.2210 S   0  0  0  0  0  0  0  0  0  0  0  0
  188.6900  176.9030  142.8790 C   0  0  0  0  0  0  0  0  0  0  0  0
  187.6330  176.9700  143.8590 C   0  0  0  0  0  3  0  0  0  0  0  0
  186.4020  177.6170  143.6270 N   0  0  0  0  0  0  0  0  0  0  0  0
  186.0490  178.2520  142.4440 C   0  0  0  0  0  0  0  0  0  0  0  0
  187.0340  178.1930  141.5180 C   0  0  0  0  0  0  0  0  0  0  0  0
  188.3210  177.5360  141.7370 C   0  0  0  0  0  0  0  0  0  0  0  0
  190.2620  176.0870  143.1300 S   0  0  0  0  0  0  0  0  0  0  0  0
  191.1100  177.5730  143.7910 C   0  0  0  0  0  0  0  0  0  0  0  0
  192.3650  177.6710  143.2160 F   0  0  0  0  0  0  0  0  0  0  0  0
  190.3870  178.7070  143.4610 F   0  0  0  0  0  0  0  0  0  0  0  0
  191.2740  177.5100  145.3180 C   0  0  2  0  0  3  0  0  0  0  0  0
  191.6790  176.1330  145.8260 C   0  0  0  0  0  1  0  0  0  0  0  0
  190.0970  178.0960  146.1010 C   0  0  0  0  0  2  0  0  0  0  0  0
  189.8100  177.3160  147.2940 N   0  0  0  0  0  2  0  0  0  0  0  0
  189.1370  178.1690  148.1800 N   0  0  0  0  0  2  0  0  0  0  0  0
  187.8190  177.5960  148.4050 C   0  0  0  0  0  2  0  0  0  0  0  0
  186.8360  178.1040  147.3630 C   0  0  0  0  0  2  0  0  0  0  0  0
  186.3810  179.3740  147.7170 O   0  0  0  0  0  1  0  0  0  0  0  0
  184.7580  178.9710  142.2560 C   0  0  0  0  0  2  0  0  0  0  0  0
  183.6270  178.5720  144.5180 C   0  0  2  0  0  3  0  0  0  0  0  0
  184.9750  180.6070  144.1540 F   0  0  0  0  0  0  0  0  0  0  0  0
  182.7810  179.5930  143.7650 C   0  0  0  0  0  2  0  0  0  0  0  0
  183.7870  178.9880  145.8400 O   0  0  0  0  0  1  0  0  0  0  0  0
  184.2780  179.5610  143.5710 C   0  0  1  0  0  0  0  0  0  0  0  0
  1  6  1  0  0  0  0
  1  7  1  0  0  0  0
  2  8  1  0  0  0  0
  2  3  1  0  0  0  0
  4  3  2  0  0  0  0
  5  4  1  0  0  0  0
  6  7  1  0  0  0  0
  6  5  2  0  0  0  0
  7  2  2  0  0  0  0
  8  9  1  0  0  0  0
  9 12  1  0  0  0  0
 10  9  1  0  0  0  0
 11  9  1  0  0  0  0
 12 13  1  1  0  0  0
 12 14  1  0  0  0  0
 14 15  1  0  0  0  0
 15 16  1  0  0  0  0
 16 17  1  0  0  0  0
 18 19  1  0  0  0  0
 18 17  1  0  0  0  0
 20  5  1  0  0  0  0
 20 25  1  0  0  0  0
 21 24  1  1  0  0  0
 23 21  1  0  0  0  0
 25 23  1  0  0  0  0
 25 22  1  1  0  0  0
 25 21  1  0  0  0  0
M  END
>  <MODEL>
6

>  <REMARK>
 VINA RESULT:      -6.1      3.269      4.585
  Name = 
  10 active torsions:
  status: ('A' for Active; 'I' for Inactive)
    1  A    between atoms: C_1  and  N_6
    2  A    between atoms: C_1  and  C_7
    3  A    between atoms: C_3  and  C_4
    4  A    between atoms: C_3  and  N_24
    5  A    between atoms: C_5  and  C_7
    6  A    between atoms: C_5  and  S_8
    7  A    between atoms: N_6  and  N_24
    8  A    between atoms: S_8  and  C_13
    9  A    between atoms: C_12  and  C_17
   10  A    between atoms: C_12  and  C_20
                            x       y       z     vdW  Elec       q    Type
                         _______ _______ _______ _____ _____    ______ ____

>  <TORSDO>
F 10

$$$$
=
 OpenBabel10222417103D

 25 27  0  0  1  0  0  0  0  0999 V2000
  186.0120  178.7310  142.1950 S   0  0  0  0  0  0  0  0  0  0  0  0
  184.9010  179.0100  145.0060 C   0  0  0  0  0  0  0  0  0  0  0  0
  183.4630  178.9900  145.1180 C   0  0  0  0  0  3  0  0  0  0  0  0
  182.6020  178.8550  144.0090 N   0  0  0  0  0  0  0  0  0  0  0  0
  183.0180  178.7150  142.6920 C   0  0  0  0  0  0  0  0  0  0  0  0
  184.3660  178.7310  142.5780 C   0  0  0  0  0  0  0  0  0  0  0  0
  185.2800  178.8770  143.7100 C   0  0  0  0  0  0  0  0  0  0  0  0
  186.0280  179.1720  146.3860 S   0  0  0  0  0  0  0  0  0  0  0  0
  187.1480  177.8280  145.8340 C   0  0  0  0  0  0  0  0  0  0  0  0
  186.3880  176.7440  145.4320 F   0  0  0  0  0  0  0  0  0  0  0  0
  187.9000  178.2610  144.7560 F   0  0  0  0  0  0  0  0  0  0  0  0
  188.0960  177.3720  146.9550 C   0  0  2  0  0  3  0  0  0  0  0  0
  187.6680  177.8460  148.3380 C   0  0  0  0  0  1  0  0  0  0  0  0
  189.5750  177.6500  146.6780 C   0  0  0  0  0  2  0  0  0  0  0  0
  190.3960  176.4810  146.9470 N   0  0  0  0  0  2  0  0  0  0  0  0
  191.6410  176.7160  146.3460 N   0  0  0  0  0  2  0  0  0  0  0  0
  191.3820  177.3700  145.0720 C   0  0  0  0  0  2  0  0  0  0  0  0
  191.2710  176.3390  143.9610 C   0  0  0  0  0  2  0  0  0  0  0  0
  192.0510  175.2230  144.2670 O   0  0  0  0  0  1  0  0  0  0  0  0
  182.0760  178.6280  141.5420 C   0  0  0  0  0  2  0  0  0  0  0  0
  183.3840  179.0380  139.3810 C   0  0  2  0  0  3  0  0  0  0  0  0
  183.4070  176.8060  140.4330 F   0  0  0  0  0  0  0  0  0  0  0  0
  182.1030  178.3020  139.0000 C   0  0  0  0  0  2  0  0  0  0  0  0
  184.4630  178.4690  138.7030 O   0  0  0  0  0  1  0  0  0  0  0  0
  182.7660  178.0290  140.3280 C   0  0  1  0  0  0  0  0  0  0  0  0
  1  6  1  0  0  0  0
  1  7  1  0  0  0  0
  2  3  1  0  0  0  0
  2  8  1  0  0  0  0
  4  3  2  0  0  0  0
  5  4  1  0  0  0  0
  6  5  2  0  0  0  0
  6  7  1  0  0  0  0
  7  2  2  0  0  0  0
  9  8  1  0  0  0  0
  9 12  1  0  0  0  0
 10  9  1  0  0  0  0
 11  9  1  0  0  0  0
 12 13  1  1  0  0  0
 14 15  1  0  0  0  0
 14 12  1  0  0  0  0
 16 15  1  0  0  0  0
 17 16  1  0  0  0  0
 18 19  1  0  0  0  0
 18 17  1  0  0  0  0
 20  5  1  0  0  0  0
 21 24  1  6  0  0  0
 21 25  1  0  0  0  0
 23 21  1  0  0  0  0
 23 25  1  0  0  0  0
 25 22  1  1  0  0  0
 25 20  1  0  0  0  0
M  END
>  <MODEL>
7

>  <REMARK>
 VINA RESULT:      -6.1      4.107      5.695
  Name = 
  10 active torsions:
  status: ('A' for Active; 'I' for Inactive)
    1  A    between atoms: C_1  and  N_6
    2  A    between atoms: C_1  and  C_7
    3  A    between atoms: C_3  and  C_4
    4  A    between atoms: C_3  and  N_24
    5  A    between atoms: C_5  and  C_7
    6  A    between atoms: C_5  and  S_8
    7  A    between atoms: N_6  and  N_24
    8  A    between atoms: S_8  and  C_13
    9  A    between atoms: C_12  and  C_17
   10  A    between atoms: C_12  and  C_20
                            x       y       z     vdW  Elec       q    Type
                         _______ _______ _______ _____ _____    ______ ____

>  <TORSDO>
F 10

$$$$
=
 OpenBabel10222417103D

 25 27  0  0  1  0  0  0  0  0999 V2000
  185.7810  178.1070  146.3930 S   0  0  0  0  0  0  0  0  0  0  0  0
  187.0140  177.3740  143.7180 C   0  0  0  0  0  0  0  0  0  0  0  0
  186.3260  177.8710  142.5520 C   0  0  0  0  0  3  0  0  0  0  0  0
  185.1500  178.6470  142.6190 N   0  0  0  0  0  0  0  0  0  0  0  0
  184.5200  179.0350  143.7940 C   0  0  0  0  0  0  0  0  0  0  0  0
  185.1600  178.5750  144.8930 C   0  0  0  0  0  0  0  0  0  0  0  0
  186.3760  177.7640  144.8500 C   0  0  0  0  0  0  0  0  0  0  0  0
  188.5110  176.3950  143.6780 S   0  0  0  0  0  0  0  0  0  0  0  0
  189.6430  177.8380  143.6090 C   0  0  0  0  0  0  0  0  0  0  0  0
  189.5380  178.4350  142.3650 F   0  0  0  0  0  0  0  0  0  0  0  0
  189.2770  178.7620  144.5720 F   0  0  0  0  0  0  0  0  0  0  0  0
  191.1070  177.4310  143.8360 C   0  0  2  0  0  3  0  0  0  0  0  0
  191.3800  175.9630  143.5340 C   0  0  0  0  0  1  0  0  0  0  0  0
  191.6760  177.8620  145.1890 C   0  0  0  0  0  2  0  0  0  0  0  0
  192.0540  176.7140  145.9980 N   0  0  0  0  0  2  0  0  0  0  0  0
  191.5610  176.9520  147.2890 N   0  0  0  0  0  2  0  0  0  0  0  0
  190.2250  176.3790  147.3460 C   0  0  0  0  0  2  0  0  0  0  0  0
  189.2010  177.4560  147.6670 C   0  0  0  0  0  2  0  0  0  0  0  0
  189.6720  178.2680  148.6990 O   0  0  0  0  0  1  0  0  0  0  0  0
  183.2490  179.8110  143.8210 C   0  0  0  0  0  2  0  0  0  0  0  0
  180.8080  179.7680  143.0500 C   0  0  2  0  0  3  0  0  0  0  0  0
  182.4530  178.2390  142.0260 F   0  0  0  0  0  0  0  0  0  0  0  0
  181.0100  178.5720  143.9750 C   0  0  0  0  0  2  0  0  0  0  0  0
  180.0870  179.3660  141.9250 O   0  0  0  0  0  1  0  0  0  0  0  0
  182.1440  179.0540  143.1030 C   0  0  1  0  0  0  0  0  0  0  0  0
  2  7  1  0  0  0  0
  3  4  1  0  0  0  0
  3  2  2  0  0  0  0
  4  5  2  0  0  0  0
  5 20  1  0  0  0  0
  5  6  1  0  0  0  0
  6  1  1  0  0  0  0
  7  6  2  0  0  0  0
  7  1  1  0  0  0  0
  8  2  1  0  0  0  0
  9  8  1  0  0  0  0
  9 12  1  0  0  0  0
  9 11  1  0  0  0  0
 10  9  1  0  0  0  0
 12 13  1  1  0  0  0
 12 14  1  0  0  0  0
 14 15  1  0  0  0  0
 15 16  1  0  0  0  0
 16 17  1  0  0  0  0
 17 18  1  0  0  0  0
 18 19  1  0  0  0  0
 21 24  1  6  0  0  0
 21 25  1  0  0  0  0
 21 23  1  0  0  0  0
 25 22  1  6  0  0  0
 25 20  1  0  0  0  0
 25 23  1  0  0  0  0
M  END
>  <MODEL>
8

>  <REMARK>
 VINA RESULT:      -6.0      3.882      5.733
  Name = 
  10 active torsions:
  status: ('A' for Active; 'I' for Inactive)
    1  A    between atoms: C_1  and  N_6
    2  A    between atoms: C_1  and  C_7
    3  A    between atoms: C_3  and  C_4
    4  A    between atoms: C_3  and  N_24
    5  A    between atoms: C_5  and  C_7
    6  A    between atoms: C_5  and  S_8
    7  A    between atoms: N_6  and  N_24
    8  A    between atoms: S_8  and  C_13
    9  A    between atoms: C_12  and  C_17
   10  A    between atoms: C_12  and  C_20
                            x       y       z     vdW  Elec       q    Type
                         _______ _______ _______ _____ _____    ______ ____

>  <TORSDO>
F 10

$$$$
=
 OpenBabel10222417103D

 25 27  0  0  1  0  0  0  0  0999 V2000
  189.1830  177.8480  146.5750 S   0  0  0  0  0  0  0  0  0  0  0  0
  189.1890  176.7000  143.7650 C   0  0  0  0  0  0  0  0  0  0  0  0
  187.9380  176.7780  143.0520 C   0  0  0  0  0  3  0  0  0  0  0  0
  186.7680  177.3430  143.6000 N   0  0  0  0  0  0  0  0  0  0  0  0
  186.6730  177.8970  144.8700 C   0  0  0  0  0  0  0  0  0  0  0  0
  187.8430  177.8290  145.5460 C   0  0  0  0  0  0  0  0  0  0  0  0
  189.0670  177.2420  145.0030 C   0  0  0  0  0  0  0  0  0  0  0  0
  190.6980  175.9990  143.1040 S   0  0  0  0  0  0  0  0  0  0  0  0
  190.9950  177.3610  141.9110 C   0  0  0  0  0  0  0  0  0  0  0  0
  190.4390  178.5260  142.4080 F   0  0  0  0  0  0  0  0  0  0  0  0
  192.3560  177.5550  141.7560 F   0  0  0  0  0  0  0  0  0  0  0  0
  190.3710  177.0670  140.5370 C   0  0  2  0  0  3  0  0  0  0  0  0
  191.3920  176.6590  139.4840 C   0  0  0  0  0  1  0  0  0  0  0  0
  189.4210  178.1570  140.0340 C   0  0  0  0  0  2  0  0  0  0  0  0
  188.0760  177.6420  139.8370 N   0  0  0  0  0  2  0  0  0  0  0  0
  187.2650  178.7420  139.5250 N   0  0  0  0  0  2  0  0  0  0  0  0
  186.0060  178.5570  140.2290 C   0  0  0  0  0  2  0  0  0  0  0  0
  184.8350  178.7210  139.2730 C   0  0  0  0  0  2  0  0  0  0  0  0
  184.5500  180.0760  139.0980 O   0  0  0  0  0  1  0  0  0  0  0  0
  185.4040  178.4360  145.4330 C   0  0  0  0  0  2  0  0  0  0  0  0
  183.1210  178.9680  144.4050 C   0  0  2  0  0  3  0  0  0  0  0  0
  185.0560  180.4270  143.9360 F   0  0  0  0  0  0  0  0  0  0  0  0
  183.9680  178.3240  143.3120 C   0  0  0  0  0  2  0  0  0  0  0  0
  182.4570  180.0790  143.8810 O   0  0  0  0  0  1  0  0  0  0  0  0
  184.6210  179.1840  144.3670 C   0  0  1  0  0  0  0  0  0  0  0  0
  2  7  1  0  0  0  0
  3  4  1  0  0  0  0
  3  2  2  0  0  0  0
  4  5  2  0  0  0  0
  5 20  1  0  0  0  0
  5  6  1  0  0  0  0
  6  1  1  0  0  0  0
  7  6  2  0  0  0  0
  7  1  1  0  0  0  0
  8  2  1  0  0  0  0
  9 10  1  0  0  0  0
  9  8  1  0  0  0  0
 11  9  1  0  0  0  0
 12 13  1  6  0  0  0
 12  9  1  0  0  0  0
 14 12  1  0  0  0  0
 15 14  1  0  0  0  0
 16 15  1  0  0  0  0
 16 17  1  0  0  0  0
 18 17  1  0  0  0  0
 19 18  1  0  0  0  0
 21 24  1  6  0  0  0
 23 25  1  0  0  0  0
 23 21  1  0  0  0  0
 25 22  1  6  0  0  0
 25 21  1  0  0  0  0
 25 20  1  0  0  0  0
M  END
>  <MODEL>
9

>  <REMARK>
 VINA RESULT:      -5.9      2.966      6.267
  Name = 
  10 active torsions:
  status: ('A' for Active; 'I' for Inactive)
    1  A    between atoms: C_1  and  N_6
    2  A    between atoms: C_1  and  C_7
    3  A    between atoms: C_3  and  C_4
    4  A    between atoms: C_3  and  N_24
    5  A    between atoms: C_5  and  C_7
    6  A    between atoms: C_5  and  S_8
    7  A    between atoms: N_6  and  N_24
    8  A    between atoms: S_8  and  C_13
    9  A    between atoms: C_12  and  C_17
   10  A    between atoms: C_12  and  C_20
                            x       y       z     vdW  Elec       q    Type
                         _______ _______ _______ _____ _____    ______ ____

>  <TORSDO>
F 10

$$$$
