=
 OpenBabel10222418073D

 25 27  0  0  1  0  0  0  0  0999 V2000
  189.4970  176.4510  142.4800 C   0  0  0  0  0  2  0  0  0  0  0  0
  188.3910  177.6310  138.0710 O   0  0  0  0  0  0  0  0  0  0  0  0
  188.2540  178.4580  140.7540 C   0  0  0  0  0  2  0  0  0  0  0  0
  188.6710  177.5980  143.0740 C   0  0  0  0  0  3  0  0  0  0  0  0
  190.1720  176.9010  141.1890 C   0  0  0  0  0  2  0  0  0  0  0  0
  187.5980  177.9900  142.0490 C   0  0  0  0  0  2  0  0  0  0  0  0
  189.2040  177.0950  138.8710 C   0  0  0  0  0  0  0  0  0  0  0  0
  189.1700  177.4300  140.2660 N   0  0  0  0  0  0  0  0  0  0  0  0
  184.6740  178.4370  144.6820 C   0  0  0  0  0  0  0  0  0  0  0  0
  185.7280  177.9170  144.1080 N   0  0  0  0  0  0  0  0  0  0  0  0
  188.0710  177.1810  144.3590 N   0  0  1  0  0  0  0  0  0  0  0  0
  183.4710  178.3890  144.0610 F   0  0  0  0  0  0  0  0  0  0  0  0
  188.2270  177.7610  146.7420 C   0  0  1  0  0  3  0  0  0  0  0  0
  185.8260  178.7690  146.7540 C   0  0  0  0  0  3  0  0  0  0  0  0
  186.8220  177.7850  146.2290 C   0  0  1  0  0  3  0  0  0  0  0  0
  188.3450  176.7620  147.8760 C   0  0  0  0  0  1  0  0  0  0  0  0
  184.7860  179.0220  146.0050 N   0  0  0  0  0  0  0  0  0  0  0  0
  190.1950  178.2180  145.3200 C   0  0  0  0  0  1  0  0  0  0  0  0
  189.0150  177.2630  145.5190 C   0  0  2  0  0  3  0  0  0  0  0  0
  187.0150  178.0890  144.7830 C   0  0  2  0  0  3  0  0  0  0  0  0
  190.1630  176.0800  138.3480 C   0  0  0  0  0  2  0  0  0  0  0  0
  191.2310  176.7450  137.6200 N   0  0  0  0  0  2  0  0  0  0  0  0
  192.4750  176.4310  138.3010 C   0  0  0  0  0  2  0  0  0  0  0  0
  193.8030  175.7200  136.6910 C   0  0  0  0  0  1  0  0  0  0  0  0
  193.5570  176.8200  137.5100 O   0  0  0  0  0  0  0  0  0  0  0  0
  1  4  1  0  0  0  0
  2  7  2  0  0  0  0
  3  6  1  0  0  0  0
  5  1  1  0  0  0  0
  6  4  1  0  0  0  0
  7  8  1  0  0  0  0
  8  3  1  0  0  0  0
  8  5  1  0  0  0  0
  9 17  1  0  0  0  0
 10  9  2  0  0  0  0
 11  4  1  6  0  0  0
 11 20  1  0  0  0  0
 11 19  1  0  0  0  0
 12  9  1  0  0  0  0
 13 16  1  1  0  0  0
 15 13  1  0  0  0  0
 15 14  1  1  0  0  0
 17 14  2  0  0  0  0
 19 18  1  6  0  0  0
 19 13  1  0  0  0  0
 20 10  1  6  0  0  0
 20 15  1  0  0  0  0
 21  7  1  0  0  0  0
 22 23  1  0  0  0  0
 22 21  1  0  0  0  0
 24 25  1  0  0  0  0
 25 23  1  0  0  0  0
M  END
>  <MODEL>
1

>  <REMARK>
 VINA RESULT:      -8.2      0.000      0.000
  Name = 
  5 active torsions:
  status: ('A' for Active; 'I' for Inactive)
    1  A    between atoms: N_4  and  C_15
    2  A    between atoms: O_8  and  C_16
    3  A    between atoms: C_10  and  N_12
    4  A    between atoms: C_10  and  C_23
    5  A    between atoms: N_12  and  C_16
                            x       y       z     vdW  Elec       q    Type
                         _______ _______ _______ _____ _____    ______ ____

>  <TORSDO>
F 5

$$$$
=
 OpenBabel10222418073D

 25 27  0  0  1  0  0  0  0  0999 V2000
  190.0740  176.9150  141.6630 C   0  0  0  0  0  2  0  0  0  0  0  0
  186.8200  178.2560  138.5540 O   0  0  0  0  0  0  0  0  0  0  0  0
  187.8130  178.6970  141.1470 C   0  0  0  0  0  2  0  0  0  0  0  0
  189.4280  177.7180  142.7990 C   0  0  0  0  0  3  0  0  0  0  0  0
  189.9630  177.6790  140.3480 C   0  0  0  0  0  2  0  0  0  0  0  0
  187.9470  177.9210  142.4530 C   0  0  0  0  0  2  0  0  0  0  0  0
  187.9980  177.8720  138.7820 C   0  0  0  0  0  0  0  0  0  0  0  0
  188.5640  178.0200  140.0920 N   0  0  0  0  0  0  0  0  0  0  0  0
  186.8020  177.6660  146.3140 C   0  0  0  0  0  0  0  0  0  0  0  0
  187.4300  177.4130  145.1960 N   0  0  0  0  0  0  0  0  0  0  0  0
  189.5970  177.0060  144.0830 N   0  0  1  0  0  0  0  0  0  0  0  0
  185.4540  177.5420  146.3780 F   0  0  0  0  0  0  0  0  0  0  0  0
  190.9340  177.1970  146.1360 C   0  0  1  0  0  3  0  0  0  0  0  0
  188.8420  177.8170  147.5580 C   0  0  0  0  0  3  0  0  0  0  0  0
  189.4660  177.0950  146.4060 C   0  0  1  0  0  3  0  0  0  0  0  0
  191.6630  176.0520  146.8110 C   0  0  0  0  0  1  0  0  0  0  0  0
  187.5540  178.0320  147.4990 N   0  0  0  0  0  0  0  0  0  0  0  0
  191.8640  178.1760  144.0670 C   0  0  0  0  0  1  0  0  0  0  0  0
  190.9990  177.0350  144.6080 C   0  0  2  0  0  3  0  0  0  0  0  0
  188.8720  177.6610  145.1630 C   0  0  2  0  0  3  0  0  0  0  0  0
  188.7680  177.2230  137.6810 C   0  0  0  0  0  2  0  0  0  0  0  0
  188.4590  175.8040  137.6380 N   0  0  0  0  0  2  0  0  0  0  0  0
  189.6560  175.1190  137.1830 C   0  0  0  0  0  2  0  0  0  0  0  0
  191.8050  174.9610  137.6550 C   0  0  0  0  0  1  0  0  0  0  0  0
  190.5440  174.9650  138.2490 O   0  0  0  0  0  0  0  0  0  0  0  0
  1  4  1  0  0  0  0
  2  7  2  0  0  0  0
  3  6  1  0  0  0  0
  5  1  1  0  0  0  0
  6  4  1  0  0  0  0
  7  8  1  0  0  0  0
  8  5  1  0  0  0  0
  8  3  1  0  0  0  0
  9 12  1  0  0  0  0
  9 17  1  0  0  0  0
 10  9  2  0  0  0  0
 11  4  1  6  0  0  0
 11 19  1  0  0  0  0
 11 20  1  0  0  0  0
 13 15  1  0  0  0  0
 13 16  1  1  0  0  0
 15 14  1  1  0  0  0
 17 14  2  0  0  0  0
 19 18  1  6  0  0  0
 19 13  1  0  0  0  0
 20 10  1  6  0  0  0
 20 15  1  0  0  0  0
 21  7  1  0  0  0  0
 22 21  1  0  0  0  0
 23 22  1  0  0  0  0
 23 25  1  0  0  0  0
 24 25  1  0  0  0  0
M  END
>  <MODEL>
2

>  <REMARK>
 VINA RESULT:      -8.1      1.837      2.356
  Name = 
  5 active torsions:
  status: ('A' for Active; 'I' for Inactive)
    1  A    between atoms: N_4  and  C_15
    2  A    between atoms: O_8  and  C_16
    3  A    between atoms: C_10  and  N_12
    4  A    between atoms: C_10  and  C_23
    5  A    between atoms: N_12  and  C_16
                            x       y       z     vdW  Elec       q    Type
                         _______ _______ _______ _____ _____    ______ ____

>  <TORSDO>
F 5

$$$$
=
 OpenBabel10222418073D

 25 27  0  0  1  0  0  0  0  0999 V2000
  189.8980  176.7060  141.9210 C   0  0  0  0  0  2  0  0  0  0  0  0
  186.8400  178.3020  138.7340 O   0  0  0  0  0  0  0  0  0  0  0  0
  187.8680  178.7230  141.3160 C   0  0  0  0  0  2  0  0  0  0  0  0
  189.3480  177.6240  143.0190 C   0  0  0  0  0  3  0  0  0  0  0  0
  189.8840  177.4260  140.5760 C   0  0  0  0  0  2  0  0  0  0  0  0
  187.9030  177.9880  142.6520 C   0  0  0  0  0  2  0  0  0  0  0  0
  187.9630  177.7890  138.9870 C   0  0  0  0  0  0  0  0  0  0  0  0
  188.5380  177.9200  140.2960 N   0  0  0  0  0  0  0  0  0  0  0  0
  186.5530  177.7860  146.3990 C   0  0  0  0  0  0  0  0  0  0  0  0
  187.2250  177.4740  145.3210 N   0  0  0  0  0  0  0  0  0  0  0  0
  189.4250  176.9490  144.3320 N   0  0  1  0  0  0  0  0  0  0  0  0
  185.2000  177.7170  146.3990 F   0  0  0  0  0  0  0  0  0  0  0  0
  190.6670  177.1560  146.4420 C   0  0  1  0  0  3  0  0  0  0  0  0
  188.5350  177.9000  147.7380 C   0  0  0  0  0  3  0  0  0  0  0  0
  189.1850  177.1180  146.6410 C   0  0  1  0  0  3  0  0  0  0  0  0
  191.3160  176.0060  147.1870 C   0  0  0  0  0  1  0  0  0  0  0  0
  187.2610  178.1620  147.6080 N   0  0  0  0  0  0  0  0  0  0  0  0
  191.7350  178.0300  144.3940 C   0  0  0  0  0  1  0  0  0  0  0  0
  190.8000  176.9410  144.9250 C   0  0  2  0  0  3  0  0  0  0  0  0
  188.6750  177.6660  145.3530 C   0  0  2  0  0  3  0  0  0  0  0  0
  188.6550  177.0110  137.9190 C   0  0  0  0  0  2  0  0  0  0  0  0
  187.8250  175.8880  137.5150 N   0  0  0  0  0  2  0  0  0  0  0  0
  187.5690  176.0340  136.0930 C   0  0  0  0  0  2  0  0  0  0  0  0
  185.8910  174.9020  136.9710 C   0  0  0  0  0  1  0  0  0  0  0  0
  186.3260  175.4800  135.7790 O   0  0  0  0  0  0  0  0  0  0  0  0
  1  4  1  0  0  0  0
  2  7  2  0  0  0  0
  3  6  1  0  0  0  0
  5  1  1  0  0  0  0
  6  4  1  0  0  0  0
  7  8  1  0  0  0  0
  8  5  1  0  0  0  0
  8  3  1  0  0  0  0
  9 17  1  0  0  0  0
 10  9  2  0  0  0  0
 11  4  1  6  0  0  0
 11 19  1  0  0  0  0
 11 20  1  0  0  0  0
 12  9  1  0  0  0  0
 13 15  1  0  0  0  0
 13 16  1  1  0  0  0
 15 14  1  1  0  0  0
 17 14  2  0  0  0  0
 19 18  1  6  0  0  0
 19 13  1  0  0  0  0
 20 10  1  6  0  0  0
 20 15  1  0  0  0  0
 21  7  1  0  0  0  0
 22 21  1  0  0  0  0
 23 22  1  0  0  0  0
 25 23  1  0  0  0  0
 25 24  1  0  0  0  0
M  END
>  <MODEL>
3

>  <REMARK>
 VINA RESULT:      -7.7      2.487      3.141
  Name = 
  5 active torsions:
  status: ('A' for Active; 'I' for Inactive)
    1  A    between atoms: N_4  and  C_15
    2  A    between atoms: O_8  and  C_16
    3  A    between atoms: C_10  and  N_12
    4  A    between atoms: C_10  and  C_23
    5  A    between atoms: N_12  and  C_16
                            x       y       z     vdW  Elec       q    Type
                         _______ _______ _______ _____ _____    ______ ____

>  <TORSDO>
F 5

$$$$
=
 OpenBabel10222418073D

 25 27  0  0  1  0  0  0  0  0999 V2000
  189.2530  176.4680  142.4010 C   0  0  0  0  0  2  0  0  0  0  0  0
  187.9480  177.8020  138.0910 O   0  0  0  0  0  0  0  0  0  0  0  0
  187.9900  178.5630  140.7970 C   0  0  0  0  0  2  0  0  0  0  0  0
  188.5030  177.6280  143.0680 C   0  0  0  0  0  3  0  0  0  0  0  0
  189.8720  176.9280  141.0860 C   0  0  0  0  0  2  0  0  0  0  0  0
  187.3910  178.0840  142.1150 C   0  0  0  0  0  2  0  0  0  0  0  0
  188.7840  177.2170  138.8310 C   0  0  0  0  0  0  0  0  0  0  0  0
  188.8400  177.5160  140.2340 N   0  0  0  0  0  0  0  0  0  0  0  0
  184.6050  178.5010  144.8860 C   0  0  0  0  0  0  0  0  0  0  0  0
  185.6210  177.9740  144.2520 N   0  0  0  0  0  0  0  0  0  0  0  0
  187.9610  177.1980  144.3750 N   0  0  1  0  0  0  0  0  0  0  0  0
  183.3720  178.4830  144.3240 F   0  0  0  0  0  0  0  0  0  0  0  0
  188.2440  177.7350  146.7560 C   0  0  1  0  0  3  0  0  0  0  0  0
  185.8640  178.7800  146.9030 C   0  0  0  0  0  3  0  0  0  0  0  0
  186.8160  177.7890  146.3140 C   0  0  1  0  0  3  0  0  0  0  0  0
  188.4010  176.7160  147.8670 C   0  0  0  0  0  1  0  0  0  0  0  0
  184.7920  179.0620  146.2110 N   0  0  0  0  0  0  0  0  0  0  0  0
  190.1460  178.1860  145.2460 C   0  0  0  0  0  1  0  0  0  0  0  0
  188.9620  177.2460  145.4880 C   0  0  2  0  0  3  0  0  0  0  0  0
  186.9420  178.1150  144.8650 C   0  0  2  0  0  3  0  0  0  0  0  0
  189.6750  176.1830  138.2300 C   0  0  0  0  0  2  0  0  0  0  0  0
  189.2180  175.8620  136.8890 N   0  0  0  0  0  2  0  0  0  0  0  0
  188.7010  174.5050  136.9260 C   0  0  0  0  0  2  0  0  0  0  0  0
  186.6170  174.9590  136.3640 C   0  0  0  0  0  1  0  0  0  0  0  0
  187.7700  174.3280  135.9010 O   0  0  0  0  0  0  0  0  0  0  0  0
  1  4  1  0  0  0  0
  2  7  2  0  0  0  0
  3  6  1  0  0  0  0
  5  1  1  0  0  0  0
  6  4  1  0  0  0  0
  7  8  1  0  0  0  0
  8  3  1  0  0  0  0
  8  5  1  0  0  0  0
  9 17  1  0  0  0  0
 10  9  2  0  0  0  0
 11  4  1  6  0  0  0
 11 20  1  0  0  0  0
 11 19  1  0  0  0  0
 12  9  1  0  0  0  0
 13 16  1  1  0  0  0
 15 13  1  0  0  0  0
 15 14  1  1  0  0  0
 17 14  2  0  0  0  0
 19 18  1  6  0  0  0
 19 13  1  0  0  0  0
 20 10  1  6  0  0  0
 20 15  1  0  0  0  0
 21  7  1  0  0  0  0
 22 23  1  0  0  0  0
 22 21  1  0  0  0  0
 25 24  1  0  0  0  0
 25 23  1  0  0  0  0
M  END
>  <MODEL>
4

>  <REMARK>
 VINA RESULT:      -7.7      1.638      2.202
  Name = 
  5 active torsions:
  status: ('A' for Active; 'I' for Inactive)
    1  A    between atoms: N_4  and  C_15
    2  A    between atoms: O_8  and  C_16
    3  A    between atoms: C_10  and  N_12
    4  A    between atoms: C_10  and  C_23
    5  A    between atoms: N_12  and  C_16
                            x       y       z     vdW  Elec       q    Type
                         _______ _______ _______ _____ _____    ______ ____

>  <TORSDO>
F 5

$$$$
=
 OpenBabel10222418073D

 25 27  0  0  1  0  0  0  0  0999 V2000
  184.8590  177.7960  142.4840 C   0  0  0  0  0  2  0  0  0  0  0  0
  180.7110  179.1330  144.2350 O   0  0  0  0  0  0  0  0  0  0  0  0
  183.4930  179.2460  144.6260 C   0  0  0  0  0  2  0  0  0  0  0  0
  185.6200  178.2580  143.7320 C   0  0  0  0  0  3  0  0  0  0  0  0
  183.7190  178.7610  142.1740 C   0  0  0  0  0  2  0  0  0  0  0  0
  184.6350  178.2750  144.9080 C   0  0  0  0  0  2  0  0  0  0  0  0
  181.4350  178.9130  143.2260 C   0  0  0  0  0  0  0  0  0  0  0  0
  182.8640  178.9080  143.3510 N   0  0  0  0  0  0  0  0  0  0  0  0
  187.9410  177.7000  147.4150 C   0  0  0  0  0  0  0  0  0  0  0  0
  187.0910  177.6140  146.4250 N   0  0  0  0  0  0  0  0  0  0  0  0
  186.7650  177.3600  143.9910 N   0  0  1  0  0  0  0  0  0  0  0  0
  187.5080  177.5810  148.6940 F   0  0  0  0  0  0  0  0  0  0  0  0
  189.1620  177.2270  143.4640 C   0  0  1  0  0  3  0  0  0  0  0  0
  189.8310  177.6440  145.9460 C   0  0  0  0  0  3  0  0  0  0  0  0
  188.8800  177.0980  144.9280 C   0  0  1  0  0  3  0  0  0  0  0  0
  189.8760  175.9870  142.9660 C   0  0  0  0  0  1  0  0  0  0  0  0
  189.3550  177.8770  147.1400 N   0  0  0  0  0  0  0  0  0  0  0  0
  187.7160  178.4980  141.9150 C   0  0  0  0  0  1  0  0  0  0  0  0
  187.7470  177.2960  142.8630 C   0  0  2  0  0  3  0  0  0  0  0  0
  187.6030  177.8510  145.0750 C   0  0  2  0  0  3  0  0  0  0  0  0
  180.7760  178.6150  141.9220 C   0  0  0  0  0  2  0  0  0  0  0  0
  179.5350  177.8940  142.1530 N   0  0  0  0  0  2  0  0  0  0  0  0
  179.3120  177.0430  140.9970 C   0  0  0  0  0  2  0  0  0  0  0  0
  179.7400  174.9470  140.4620 C   0  0  0  0  0  1  0  0  0  0  0  0
  179.0930  175.7290  141.4160 O   0  0  0  0  0  0  0  0  0  0  0  0
  1  4  1  0  0  0  0
  3  6  1  0  0  0  0
  4  6  1  0  0  0  0
  5  1  1  0  0  0  0
  5  8  1  0  0  0  0
  7  8  1  0  0  0  0
  7  2  2  0  0  0  0
  8  3  1  0  0  0  0
  9 12  1  0  0  0  0
 10  9  2  0  0  0  0
 11  4  1  6  0  0  0
 11 20  1  0  0  0  0
 13 16  1  6  0  0  0
 13 15  1  0  0  0  0
 14 17  2  0  0  0  0
 15 20  1  0  0  0  0
 15 14  1  1  0  0  0
 17  9  1  0  0  0  0
 19 18  1  6  0  0  0
 19 13  1  0  0  0  0
 19 11  1  0  0  0  0
 20 10  1  1  0  0  0
 21 22  1  0  0  0  0
 21  7  1  0  0  0  0
 23 25  1  0  0  0  0
 23 22  1  0  0  0  0
 24 25  1  0  0  0  0
M  END
>  <MODEL>
5

>  <REMARK>
 VINA RESULT:      -7.3      4.820      7.572
  Name = 
  5 active torsions:
  status: ('A' for Active; 'I' for Inactive)
    1  A    between atoms: N_4  and  C_15
    2  A    between atoms: O_8  and  C_16
    3  A    between atoms: C_10  and  N_12
    4  A    between atoms: C_10  and  C_23
    5  A    between atoms: N_12  and  C_16
                            x       y       z     vdW  Elec       q    Type
                         _______ _______ _______ _____ _____    ______ ____

>  <TORSDO>
F 5

$$$$
=
 OpenBabel10222418073D

 25 27  0  0  1  0  0  0  0  0999 V2000
  184.9830  177.8390  142.3890 C   0  0  0  0  0  2  0  0  0  0  0  0
  180.7870  179.1780  144.0220 O   0  0  0  0  0  0  0  0  0  0  0  0
  183.5540  179.2500  144.5150 C   0  0  0  0  0  2  0  0  0  0  0  0
  185.7020  178.2620  143.6750 C   0  0  0  0  0  3  0  0  0  0  0  0
  183.8640  178.8230  142.0630 C   0  0  0  0  0  2  0  0  0  0  0  0
  184.6750  178.2600  144.8150 C   0  0  0  0  0  2  0  0  0  0  0  0
  181.5440  178.9740  143.0350 C   0  0  0  0  0  0  0  0  0  0  0  0
  182.9690  178.9510  143.2110 N   0  0  0  0  0  0  0  0  0  0  0  0
  187.9630  177.6790  147.3910 C   0  0  0  0  0  0  0  0  0  0  0  0
  187.1240  177.6030  146.3900 N   0  0  0  0  0  0  0  0  0  0  0  0
  186.8280  177.3450  143.9530 N   0  0  1  0  0  0  0  0  0  0  0  0
  187.5100  177.5710  148.6640 F   0  0  0  0  0  0  0  0  0  0  0  0
  189.2290  177.1700  143.4590 C   0  0  1  0  0  3  0  0  0  0  0  0
  189.8710  177.5850  145.9480 C   0  0  0  0  0  3  0  0  0  0  0  0
  188.9250  177.0510  144.9190 C   0  0  1  0  0  3  0  0  0  0  0  0
  189.9290  175.9160  142.9750 C   0  0  0  0  0  1  0  0  0  0  0  0
  189.3820  177.8300  147.1360 N   0  0  0  0  0  0  0  0  0  0  0  0
  187.8260  178.4590  141.8860 C   0  0  0  0  0  1  0  0  0  0  0  0
  187.8240  177.2610  142.8390 C   0  0  2  0  0  3  0  0  0  0  0  0
  187.6590  177.8260  145.0470 C   0  0  2  0  0  3  0  0  0  0  0  0
  180.9310  178.7150  141.7000 C   0  0  0  0  0  2  0  0  0  0  0  0
  180.3860  179.9510  141.1630 N   0  0  0  0  0  2  0  0  0  0  0  0
  180.4230  179.8420  139.7150 C   0  0  0  0  0  2  0  0  0  0  0  0
  182.2450  180.4580  138.6370 C   0  0  0  0  0  1  0  0  0  0  0  0
  181.6760  179.3790  139.3100 O   0  0  0  0  0  0  0  0  0  0  0  0
  1  4  1  0  0  0  0
  3  6  1  0  0  0  0
  4  6  1  0  0  0  0
  5  1  1  0  0  0  0
  5  8  1  0  0  0  0
  7  8  1  0  0  0  0
  7  2  2  0  0  0  0
  8  3  1  0  0  0  0
  9 12  1  0  0  0  0
 10  9  2  0  0  0  0
 11  4  1  6  0  0  0
 11 20  1  0  0  0  0
 13 16  1  6  0  0  0
 13 15  1  0  0  0  0
 14 17  2  0  0  0  0
 15 20  1  0  0  0  0
 15 14  1  1  0  0  0
 17  9  1  0  0  0  0
 19 18  1  6  0  0  0
 19 13  1  0  0  0  0
 19 11  1  0  0  0  0
 20 10  1  1  0  0  0
 21  7  1  0  0  0  0
 22 21  1  0  0  0  0
 23 22  1  0  0  0  0
 24 25  1  0  0  0  0
 25 23  1  0  0  0  0
M  END
>  <MODEL>
6

>  <REMARK>
 VINA RESULT:      -7.2      4.311      7.066
  Name = 
  5 active torsions:
  status: ('A' for Active; 'I' for Inactive)
    1  A    between atoms: N_4  and  C_15
    2  A    between atoms: O_8  and  C_16
    3  A    between atoms: C_10  and  N_12
    4  A    between atoms: C_10  and  C_23
    5  A    between atoms: N_12  and  C_16
                            x       y       z     vdW  Elec       q    Type
                         _______ _______ _______ _____ _____    ______ ____

>  <TORSDO>
F 5

$$$$
=
 OpenBabel10222418073D

 25 27  0  0  1  0  0  0  0  0999 V2000
  187.9910  177.5650  143.6980 C   0  0  0  0  0  2  0  0  0  0  0  0
  183.8600  179.2740  145.1390 O   0  0  0  0  0  0  0  0  0  0  0  0
  185.2830  178.3330  142.9040 C   0  0  0  0  0  2  0  0  0  0  0  0
  187.6050  177.6730  142.2180 C   0  0  0  0  0  3  0  0  0  0  0  0
  186.7830  177.1470  144.5290 C   0  0  0  0  0  2  0  0  0  0  0  0
  186.5080  178.7390  142.0920 C   0  0  0  0  0  2  0  0  0  0  0  0
  184.8690  178.5530  145.3710 C   0  0  0  0  0  0  0  0  0  0  0  0
  185.6740  178.0700  144.2870 N   0  0  0  0  0  0  0  0  0  0  0  0
  187.9370  178.2530  137.8810 C   0  0  0  0  0  0  0  0  0  0  0  0
  187.8100  178.3970  139.1750 N   0  0  0  0  0  0  0  0  0  0  0  0
  188.7930  178.0130  141.4070 N   0  0  1  0  0  0  0  0  0  0  0  0
  187.1200  178.9330  137.0400 F   0  0  0  0  0  0  0  0  0  0  0  0
  190.8250  176.9170  140.5640 C   0  0  1  0  0  3  0  0  0  0  0  0
  189.9820  177.0280  138.1030 C   0  0  0  0  0  3  0  0  0  0  0  0
  190.0400  177.5950  139.4860 C   0  0  1  0  0  3  0  0  0  0  0  0
  192.2210  177.5030  140.6300 C   0  0  0  0  0  1  0  0  0  0  0  0
  188.9840  177.4030  137.3470 N   0  0  0  0  0  0  0  0  0  0  0  0
  189.7960  176.0020  142.6150 C   0  0  0  0  0  1  0  0  0  0  0  0
  190.0360  177.2940  141.8300 C   0  0  2  0  0  3  0  0  0  0  0  0
  188.6530  177.5610  140.0300 C   0  0  2  0  0  3  0  0  0  0  0  0
  185.2280  178.2570  146.7880 C   0  0  0  0  0  2  0  0  0  0  0  0
  186.1390  179.2740  147.2860 N   0  0  0  0  0  2  0  0  0  0  0  0
  187.1570  178.5930  148.0660 C   0  0  0  0  0  2  0  0  0  0  0  0
  188.6940  177.0500  147.7190 C   0  0  0  0  0  1  0  0  0  0  0  0
  188.2460  178.2830  147.2490 O   0  0  0  0  0  0  0  0  0  0  0  0
  1  5  1  0  0  0  0
  2  7  2  0  0  0  0
  3  8  1  0  0  0  0
  4  1  1  0  0  0  0
  6  4  1  0  0  0  0
  6  3  1  0  0  0  0
  7 21  1  0  0  0  0
  8  5  1  0  0  0  0
  8  7  1  0  0  0  0
  9 10  2  0  0  0  0
 11 19  1  0  0  0  0
 11  4  1  1  0  0  0
 12  9  1  0  0  0  0
 13 16  1  1  0  0  0
 13 19  1  0  0  0  0
 15 14  1  6  0  0  0
 15 20  1  0  0  0  0
 15 13  1  0  0  0  0
 17  9  1  0  0  0  0
 17 14  2  0  0  0  0
 19 18  1  6  0  0  0
 20 10  1  6  0  0  0
 20 11  1  0  0  0  0
 21 22  1  0  0  0  0
 22 23  1  0  0  0  0
 25 24  1  0  0  0  0
 25 23  1  0  0  0  0
M  END
>  <MODEL>
7

>  <REMARK>
 VINA RESULT:      -7.0      3.626      7.511
  Name = 
  5 active torsions:
  status: ('A' for Active; 'I' for Inactive)
    1  A    between atoms: N_4  and  C_15
    2  A    between atoms: O_8  and  C_16
    3  A    between atoms: C_10  and  N_12
    4  A    between atoms: C_10  and  C_23
    5  A    between atoms: N_12  and  C_16
                            x       y       z     vdW  Elec       q    Type
                         _______ _______ _______ _____ _____    ______ ____

>  <TORSDO>
F 5

$$$$
=
 OpenBabel10222418073D

 25 27  0  0  1  0  0  0  0  0999 V2000
  187.8670  178.6290  141.9000 C   0  0  0  0  0  2  0  0  0  0  0  0
  191.0440  177.2340  138.7350 O   0  0  0  0  0  0  0  0  0  0  0  0
  189.8770  176.6170  141.2170 C   0  0  0  0  0  2  0  0  0  0  0  0
  188.3390  177.6030  142.9380 C   0  0  0  0  0  3  0  0  0  0  0  0
  187.9320  178.0300  140.4990 C   0  0  0  0  0  2  0  0  0  0  0  0
  189.7910  177.2320  142.6100 C   0  0  0  0  0  2  0  0  0  0  0  0
  189.9220  177.7530  138.9780 C   0  0  0  0  0  0  0  0  0  0  0  0
  189.2790  177.5240  140.2410 N   0  0  0  0  0  0  0  0  0  0  0  0
  190.7200  176.7570  146.5260 C   0  0  0  0  0  0  0  0  0  0  0  0
  190.2110  177.2540  145.4290 N   0  0  0  0  0  0  0  0  0  0  0  0
  188.2120  178.1630  144.3000 N   0  0  1  0  0  0  0  0  0  0  0  0
  192.0640  176.6390  146.6570 F   0  0  0  0  0  0  0  0  0  0  0  0
  186.7390  177.9410  146.2550 C   0  0  1  0  0  3  0  0  0  0  0  0
  188.6110  176.7970  147.6580 C   0  0  0  0  0  3  0  0  0  0  0  0
  188.1850  177.7570  146.5920 C   0  0  1  0  0  3  0  0  0  0  0  0
  186.1680  179.0970  147.0510 C   0  0  0  0  0  1  0  0  0  0  0  0
  189.8470  176.3750  147.6200 N   0  0  0  0  0  0  0  0  0  0  0  0
  185.7890  177.4080  144.0380 C   0  0  0  0  0  1  0  0  0  0  0  0
  186.7950  178.3060  144.7620 C   0  0  2  0  0  3  0  0  0  0  0  0
  188.7520  177.2610  145.3070 C   0  0  2  0  0  3  0  0  0  0  0  0
  189.3040  178.6410  137.9510 C   0  0  0  0  0  2  0  0  0  0  0  0
  188.6380  177.8340  136.9430 N   0  0  0  0  0  2  0  0  0  0  0  0
  187.4920  178.5940  136.4740 C   0  0  0  0  0  2  0  0  0  0  0  0
  185.7050  177.8810  137.5520 C   0  0  0  0  0  1  0  0  0  0  0  0
  186.6570  178.8990  137.5500 O   0  0  0  0  0  0  0  0  0  0  0  0
  1  4  1  0  0  0  0
  2  7  2  0  0  0  0
  3  6  1  0  0  0  0
  5  1  1  0  0  0  0
  6  4  1  0  0  0  0
  7  8  1  0  0  0  0
  8  5  1  0  0  0  0
  8  3  1  0  0  0  0
  9 12  1  0  0  0  0
  9 17  1  0  0  0  0
 10  9  2  0  0  0  0
 11  4  1  6  0  0  0
 11 19  1  0  0  0  0
 11 20  1  0  0  0  0
 13 15  1  0  0  0  0
 13 16  1  1  0  0  0
 15 14  1  1  0  0  0
 17 14  2  0  0  0  0
 19 18  1  6  0  0  0
 19 13  1  0  0  0  0
 20 10  1  1  0  0  0
 20 15  1  0  0  0  0
 21  7  1  0  0  0  0
 22 21  1  0  0  0  0
 23 22  1  0  0  0  0
 23 25  1  0  0  0  0
 25 24  1  0  0  0  0
M  END
>  <MODEL>
8

>  <REMARK>
 VINA RESULT:      -7.0      2.632      4.251
  Name = 
  5 active torsions:
  status: ('A' for Active; 'I' for Inactive)
    1  A    between atoms: N_4  and  C_15
    2  A    between atoms: O_8  and  C_16
    3  A    between atoms: C_10  and  N_12
    4  A    between atoms: C_10  and  C_23
    5  A    between atoms: N_12  and  C_16
                            x       y       z     vdW  Elec       q    Type
                         _______ _______ _______ _____ _____    ______ ____

>  <TORSDO>
F 5

$$$$
=
 OpenBabel10222418073D

 25 27  0  0  1  0  0  0  0  0999 V2000
  187.4510  177.7300  142.2450 C   0  0  0  0  0  2  0  0  0  0  0  0
  182.8650  178.7270  142.0710 O   0  0  0  0  0  0  0  0  0  0  0  0
  185.1560  178.8120  143.6980 C   0  0  0  0  0  2  0  0  0  0  0  0
  187.5300  178.0020  143.7520 C   0  0  0  0  0  3  0  0  0  0  0  0
  186.4970  178.7170  141.5800 C   0  0  0  0  0  2  0  0  0  0  0  0
  186.1240  177.8240  144.3390 C   0  0  0  0  0  2  0  0  0  0  0  0
  183.9790  178.6750  141.4840 C   0  0  0  0  0  0  0  0  0  0  0  0
  185.1960  178.6690  142.2450 N   0  0  0  0  0  0  0  0  0  0  0  0
  188.4900  177.4600  148.0000 C   0  0  0  0  0  0  0  0  0  0  0  0
  188.0130  177.3730  146.7850 N   0  0  0  0  0  0  0  0  0  0  0  0
  188.5060  177.0880  144.3830 N   0  0  1  0  0  0  0  0  0  0  0  0
  187.6560  177.3670  149.0640 F   0  0  0  0  0  0  0  0  0  0  0  0
  190.9390  176.9080  144.6800 C   0  0  1  0  0  3  0  0  0  0  0  0
  190.7570  177.3510  147.2390 C   0  0  0  0  0  3  0  0  0  0  0  0
  190.1870  176.8060  145.9690 C   0  0  1  0  0  3  0  0  0  0  0  0
  191.7530  175.6490  144.4570 C   0  0  0  0  0  1  0  0  0  0  0  0
  189.9180  177.6090  148.2070 N   0  0  0  0  0  0  0  0  0  0  0  0
  190.1130  178.1800  142.7290 C   0  0  0  0  0  1  0  0  0  0  0  0
  189.8050  176.9920  143.6440 C   0  0  2  0  0  3  0  0  0  0  0  0
  188.9480  177.5820  145.6790 C   0  0  2  0  0  3  0  0  0  0  0  0
  184.0030  178.5750  139.9960 C   0  0  0  0  0  2  0  0  0  0  0  0
  183.8330  179.8950  139.4130 N   0  0  0  0  0  2  0  0  0  0  0  0
  182.6830  179.8280  138.5280 C   0  0  0  0  0  2  0  0  0  0  0  0
  180.8650  180.7620  139.3570 C   0  0  0  0  0  1  0  0  0  0  0  0
  181.9840  181.0350  138.5720 O   0  0  0  0  0  0  0  0  0  0  0  0
  1  4  1  0  0  0  0
  3  6  1  0  0  0  0
  4  6  1  0  0  0  0
  5  1  1  0  0  0  0
  5  8  1  0  0  0  0
  7  2  2  0  0  0  0
  7  8  1  0  0  0  0
  8  3  1  0  0  0  0
  9 17  1  0  0  0  0
  9 12  1  0  0  0  0
 10  9  2  0  0  0  0
 11  4  1  6  0  0  0
 11 20  1  0  0  0  0
 13 16  1  6  0  0  0
 13 15  1  0  0  0  0
 14 17  2  0  0  0  0
 15 14  1  1  0  0  0
 19 18  1  1  0  0  0
 19 11  1  0  0  0  0
 19 13  1  0  0  0  0
 20 15  1  0  0  0  0
 20 10  1  1  0  0  0
 21  7  1  0  0  0  0
 22 21  1  0  0  0  0
 23 25  1  0  0  0  0
 23 22  1  0  0  0  0
 25 24  1  0  0  0  0
M  END
>  <MODEL>
9

>  <REMARK>
 VINA RESULT:      -6.7      4.340      6.128
  Name = 
  5 active torsions:
  status: ('A' for Active; 'I' for Inactive)
    1  A    between atoms: N_4  and  C_15
    2  A    between atoms: O_8  and  C_16
    3  A    between atoms: C_10  and  N_12
    4  A    between atoms: C_10  and  C_23
    5  A    between atoms: N_12  and  C_16
                            x       y       z     vdW  Elec       q    Type
                         _______ _______ _______ _____ _____    ______ ____

>  <TORSDO>
F 5

$$$$
