=
 OpenBabel10222417283D

 60 64  0  0  1  0  0  0  0  0999 V2000
  184.6610  180.0820  144.7690 N   0  0  0  0  0  0  0  0  0  0  0  0
  184.6560  179.6410  143.3780 C   0  0  1  0  0  3  0  0  0  0  0  0
  187.2630  177.8090  145.5940 C   0  0  0  0  0  0  0  0  0  0  0  0
  188.1800  176.9340  144.9300 N   0  0  0  0  0  2  0  0  0  0  0  0
  185.3330  179.3110  145.5560 C   0  0  0  0  0  0  0  0  0  0  0  0
  186.6390  179.1380  147.5050 C   0  0  0  0  0  3  0  0  0  0  0  0
  187.5190  178.2420  146.8000 N   0  0  0  0  0  0  0  0  0  0  0  0
  185.9790  178.3850  143.1860 S   0  0  0  0  0  0  0  0  0  0  0  0
  185.6090  179.6650  146.9130 N   0  0  0  0  0  0  0  0  0  0  0  0
  185.9240  178.0850  144.9710 C   0  0  1  0  0  3  0  0  0  0  0  0
  181.9480  178.2410  141.2350 C   0  0  0  0  0  3  0  0  0  0  0  0
  182.3550  178.7850  144.0220 C   0  0  0  0  0  2  0  0  0  0  0  0
  183.3590  179.0820  142.9870 N   0  0  0  0  0  0  0  0  0  0  0  0
  180.9770  178.6160  143.4440 C   0  0  0  0  0  0  0  0  0  0  0  0
  179.7940  178.6630  144.3470 C   0  0  0  0  0  1  0  0  0  0  0  0
  183.1640  178.6080  141.6380 C   0  0  0  0  0  0  0  0  0  0  0  0
  180.8060  178.3030  142.1590 C   0  0  0  0  0  3  0  0  0  0  0  0
  184.2970  178.5410  140.6650 C   0  0  0  0  0  2  0  0  0  0  0  0
  183.2800  180.0380  138.8690 C   0  0  0  0  0  0  0  0  0  0  0  0
  184.3080  179.7260  139.8210 N   0  0  0  0  0  2  0  0  0  0  0  0
  183.0430  181.2490  138.6160 O   0  0  0  0  0  0  0  0  0  0  0  0
  180.4110  178.0960  137.5050 C   0  0  0  0  0  3  0  0  0  0  0  0
  182.4360  177.0890  136.6400 C   0  0  0  0  0  0  0  0  0  0  0  0
  181.0260  177.1210  136.6990 C   0  0  0  0  0  0  0  0  0  0  0  0
  182.5170  178.9940  138.1470 C   0  0  0  0  0  0  0  0  0  0  0  0
  183.1650  178.0360  137.3650 C   0  0  0  0  0  3  0  0  0  0  0  0
  181.1570  179.0000  138.1960 N   0  0  0  0  0  0  0  0  0  0  0  0
  180.2530  176.1940  135.9890 O   0  0  0  0  0  0  0  0  0  0  0  0
  179.9740  176.3250  134.5990 C   0  0  0  0  0  1  0  0  0  0  0  0
  183.1740  176.1580  135.8960 O   0  0  0  0  0  0  0  0  0  0  0  0
  183.7940  174.9780  136.3960 C   0  0  0  0  0  2  0  0  0  0  0  0
  182.2450  173.3880  137.3020 O   0  0  0  0  0  1  0  0  0  0  0  0
  182.9340  173.7440  136.1400 C   0  0  2  0  0  3  0  0  0  0  0  0
  183.8200  172.5790  135.7160 C   0  0  0  0  0  2  0  0  0  0  0  0
  184.8670  172.3610  136.7030 N   0  0  0  0  0  2  0  0  0  0  0  0
  186.7140  172.5210  134.9640 C   0  0  0  0  0  1  0  0  0  0  0  0
  186.2570  172.4210  136.3760 C   0  0  0  0  0  0  0  0  0  0  0  0
  187.1150  172.3970  137.2950 O   0  0  0  0  0  0  0  0  0  0  0  0
  189.3450  176.3500  145.5890 C   0  0  0  0  0  2  0  0  0  0  0  0
  190.5230  177.2180  145.4850 N   0  0  0  0  0  0  0  0  0  0  0  0
  191.3550  177.3980  146.6000 N   0  0  0  0  0  1  0  0  0  0  0  0
  191.2810  179.2930  143.9850 S   0  0  0  0  0  0  0  0  0  0  0  0
  190.9660  177.6980  144.2090 C   0  0  0  0  0  0  0  0  0  0  0  0
  191.4530  176.7270  143.1840 C   0  0  0  0  0  2  0  0  0  0  0  0
  190.3180  176.2260  142.3080 C   0  0  0  0  0  2  0  0  0  0  0  0
  190.5220  176.6770  140.8720 C   0  0  2  0  0  3  0  0  0  0  0  0
  191.6390  177.5160  140.7870 O   0  0  0  0  0  1  0  0  0  0  0  0
  189.2760  177.3880  140.3530 C   0  0  1  0  0  3  0  0  0  0  0  0
  188.9040  178.4210  141.2170 O   0  0  0  0  0  1  0  0  0  0  0  0
  189.5370  177.9440  138.9580 C   0  0  0  0  0  2  0  0  0  0  0  0
  187.0930  178.5890  136.2260 C   0  0  0  0  0  2  0  0  0  0  0  0
  188.3770  176.3220  137.5330 C   0  0  1  0  0  3  0  0  0  0  0  0
  188.4060  178.6820  137.0020 C   0  0  0  0  0  2  0  0  0  0  0  0
  186.9030  177.1780  135.6720 C   0  0  0  0  0  2  0  0  0  0  0  0
  188.3950  177.6970  138.0840 N   0  0  0  0  0  0  0  0  0  0  0  0
  187.0510  176.1270  136.7810 C   0  0  0  0  0  2  0  0  0  0  0  0
  189.3540  174.7870  135.9410 O   0  0  0  0  0  1  0  0  0  0  0  0
  189.5810  175.9880  136.6170 C   0  0  2  0  0  3  0  0  0  0  0  0
  192.0610  176.0360  136.4680 C   0  0  0  0  0  1  0  0  0  0  0  0
  190.8770  175.8510  137.3930 C   0  0  0  0  0  2  0  0  0  0  0  0
  1  5  2  0  0  0  0
  2 13  1  1  0  0  0
  2  1  1  0  0  0  0
  3  7  2  0  0  0  0
  4 39  1  0  0  0  0
  4  3  1  0  0  0  0
  5  9  1  0  0  0  0
  7  6  1  0  0  0  0
  8  2  1  0  0  0  0
  9  6  2  0  0  0  0
 10  8  1  6  0  0  0
 10  5  1  0  0  0  0
 10  3  1  0  0  0  0
 11 16  2  0  0  0  0
 11 17  1  0  0  0  0
 13 12  1  0  0  0  0
 14 12  1  0  0  0  0
 14 15  1  0  0  0  0
 16 13  1  0  0  0  0
 17 14  2  0  0  0  0
 18 16  1  0  0  0  0
 19 20  1  0  0  0  0
 20 18  1  0  0  0  0
 21 19  2  0  0  0  0
 22 27  1  0  0  0  0
 23 24  1  0  0  0  0
 23 26  2  0  0  0  0
 24 22  2  0  0  0  0
 25 27  2  0  0  0  0
 25 19  1  0  0  0  0
 26 25  1  0  0  0  0
 28 24  1  0  0  0  0
 29 28  1  0  0  0  0
 30 31  1  0  0  0  0
 30 23  1  0  0  0  0
 33 31  1  0  0  0  0
 33 32  1  1  0  0  0
 34 33  1  0  0  0  0
 34 35  1  0  0  0  0
 36 37  1  0  0  0  0
 37 35  1  0  0  0  0
 37 38  2  0  0  0  0
 40 39  1  0  0  0  0
 40 41  1  0  0  0  0
 42 43  2  0  0  0  0
 43 40  1  0  0  0  0
 44 43  1  0  0  0  0
 45 44  1  0  0  0  0
 46 47  1  1  0  0  0
 46 45  1  0  0  0  0
 48 46  1  0  0  0  0
 48 49  1  1  0  0  0
 50 48  1  0  0  0  0
 51 53  1  0  0  0  0
 52 58  1  6  0  0  0
 52 55  1  0  0  0  0
 53 55  1  0  0  0  0
 54 51  1  0  0  0  0
 54 56  1  0  0  0  0
 55 50  1  0  0  0  0
 56 52  1  0  0  0  0
 58 57  1  1  0  0  0
 58 60  1  0  0  0  0
 59 60  1  0  0  0  0
M  END
>  <MODEL>
1

>  <REMARK>
 VINA RESULT:      -6.8      0.000      0.000
  Name = 
  21 active torsions:
  status: ('A' for Active; 'I' for Inactive)
    1  A    between atoms: C_2  and  C_23
    2  A    between atoms: C_2  and  C_44
    3  A    between atoms: C_3  and  N_11
    4  A    between atoms: C_4  and  C_30
    5  A    between atoms: C_7  and  C_21
    6  A    between atoms: C_7  and  N_50
    7  A    between atoms: N_8  and  C_35
    8  A    between atoms: N_12  and  C_35
    9  A    between atoms: N_12  and  C_51
   10  A    between atoms: C_13  and  O_16
   11  A    between atoms: O_16  and  C_52
   12  A    between atoms: C_17  and  O_42
   13  A    between atoms: C_18  and  C_20
   14  A    between atoms: C_18  and  N_26
   15  A    between atoms: C_20  and  C_52
   16  A    between atoms: C_21  and  C_23
   17  A    between atoms: C_22  and  N_24
   18  A    between atoms: C_22  and  C_55
   19  A    between atoms: C_25  and  C_28
   20  A    between atoms: C_25  and  C_56
   21  A    between atoms: C_44  and  C_51
                            x       y       z     vdW  Elec       q    Type
                         _______ _______ _______ _____ _____    ______ ____

>  <TORSDO>
F 21

$$$$
=
 OpenBabel10222417283D

 60 64  0  0  1  0  0  0  0  0999 V2000
  184.6900  179.4800  144.4900 N   0  0  0  0  0  0  0  0  0  0  0  0
  184.3510  179.5440  143.0710 C   0  0  1  0  0  3  0  0  0  0  0  0
  187.4180  177.2960  143.8500 C   0  0  0  0  0  0  0  0  0  0  0  0
  188.1490  176.7850  142.7320 N   0  0  0  0  0  2  0  0  0  0  0  0
  185.5330  178.5470  144.7810 C   0  0  0  0  0  0  0  0  0  0  0  0
  187.2700  177.8290  146.1960 C   0  0  0  0  0  3  0  0  0  0  0  0
  187.9560  177.3100  145.0410 N   0  0  0  0  0  0  0  0  0  0  0  0
  185.5910  178.5500  142.1560 S   0  0  0  0  0  0  0  0  0  0  0  0
  186.1270  178.4370  146.0760 N   0  0  0  0  0  0  0  0  0  0  0  0
  185.9680  177.6520  143.6820 C   0  0  1  0  0  3  0  0  0  0  0  0
  181.3660  178.3310  141.1990 C   0  0  0  0  0  3  0  0  0  0  0  0
  182.1120  178.7240  143.9410 C   0  0  0  0  0  2  0  0  0  0  0  0
  182.9990  179.0430  142.8110 N   0  0  0  0  0  0  0  0  0  0  0  0
  180.6710  178.6230  143.5220 C   0  0  0  0  0  0  0  0  0  0  0  0
  179.6030  178.6590  144.5590 C   0  0  0  0  0  1  0  0  0  0  0  0
  182.6330  178.6430  141.4730 C   0  0  0  0  0  0  0  0  0  0  0  0
  180.3420  178.3800  142.2530 C   0  0  0  0  0  3  0  0  0  0  0  0
  183.6420  178.5910  140.3720 C   0  0  0  0  0  2  0  0  0  0  0  0
  182.4240  178.9000  138.1530 C   0  0  0  0  0  0  0  0  0  0  0  0
  183.2040  179.4050  139.2470 N   0  0  0  0  0  2  0  0  0  0  0  0
  181.6350  179.6850  137.5640 O   0  0  0  0  0  0  0  0  0  0  0  0
  181.7910  175.2520  137.7580 C   0  0  0  0  0  3  0  0  0  0  0  0
  183.4650  175.8720  136.1220 C   0  0  0  0  0  0  0  0  0  0  0  0
  182.6360  174.8830  136.6950 C   0  0  0  0  0  0  0  0  0  0  0  0
  182.5420  177.5060  137.6650 C   0  0  0  0  0  0  0  0  0  0  0  0
  183.4010  177.1780  136.6140 C   0  0  0  0  0  3  0  0  0  0  0  0
  181.7590  176.5350  138.2080 N   0  0  0  0  0  0  0  0  0  0  0  0
  182.6630  173.5620  136.2340 O   0  0  0  0  0  0  0  0  0  0  0  0
  183.3660  172.5240  136.9090 C   0  0  0  0  0  1  0  0  0  0  0  0
  184.3670  175.6340  135.0750 O   0  0  0  0  0  0  0  0  0  0  0  0
  185.5470  176.3800  134.7920 C   0  0  0  0  0  2  0  0  0  0  0  0
  186.4290  174.1670  135.0670 O   0  0  0  0  0  1  0  0  0  0  0  0
  186.7910  175.4980  134.8470 C   0  0  2  0  0  3  0  0  0  0  0  0
  187.6970  175.9570  135.9830 C   0  0  0  0  0  2  0  0  0  0  0  0
  186.9190  176.6570  136.9930 N   0  0  0  0  0  2  0  0  0  0  0  0
  188.1860  178.8320  136.6430 C   0  0  0  0  0  1  0  0  0  0  0  0
  187.0760  178.0530  137.2560 C   0  0  0  0  0  0  0  0  0  0  0  0
  186.2630  178.6410  138.0130 O   0  0  0  0  0  0  0  0  0  0  0  0
  189.4390  176.1140  142.8610 C   0  0  0  0  0  2  0  0  0  0  0  0
  190.5210  176.8840  142.2370 N   0  0  0  0  0  0  0  0  0  0  0  0
  191.6530  177.2290  142.9900 N   0  0  0  0  0  1  0  0  0  0  0  0
  189.2230  177.6690  140.0390 S   0  0  0  0  0  0  0  0  0  0  0  0
  190.5460  177.0890  140.8180 C   0  0  0  0  0  0  0  0  0  0  0  0
  191.8540  177.0910  140.0960 C   0  0  0  0  0  2  0  0  0  0  0  0
  191.8910  176.0290  139.0100 C   0  0  0  0  0  2  0  0  0  0  0  0
  192.2750  176.6500  137.6790 C   0  0  2  0  0  3  0  0  0  0  0  0
  191.1840  176.6210  136.8030 O   0  0  0  0  0  1  0  0  0  0  0  0
  193.4690  175.9180  137.0730 C   0  0  1  0  0  3  0  0  0  0  0  0
  194.3240  176.8190  136.4310 O   0  0  0  0  0  1  0  0  0  0  0  0
  194.2260  175.1670  138.1610 C   0  0  0  0  0  2  0  0  0  0  0  0
  193.6350  172.0310  136.2440 C   0  0  0  0  0  2  0  0  0  0  0  0
  195.6520  173.1790  138.0100 C   0  0  1  0  0  3  0  0  0  0  0  0
  193.8020  173.5300  136.4900 C   0  0  0  0  0  2  0  0  0  0  0  0
  194.9630  171.3080  136.4640 C   0  0  0  0  0  2  0  0  0  0  0  0
  194.2900  173.7420  137.8530 N   0  0  0  0  0  0  0  0  0  0  0  0
  195.5590  171.6550  137.8350 C   0  0  0  0  0  2  0  0  0  0  0  0
  197.1140  172.8180  136.1190 O   0  0  0  0  0  1  0  0  0  0  0  0
  196.7030  173.7800  137.0440 C   0  0  2  0  0  3  0  0  0  0  0  0
  199.1800  173.9640  136.9740 C   0  0  0  0  0  1  0  0  0  0  0  0
  197.9360  174.2830  137.7730 C   0  0  0  0  0  2  0  0  0  0  0  0
  1  5  2  0  0  0  0
  2 13  1  1  0  0  0
  2  1  1  0  0  0  0
  3  7  2  0  0  0  0
  4 39  1  0  0  0  0
  4  3  1  0  0  0  0
  5  9  1  0  0  0  0
  7  6  1  0  0  0  0
  8  2  1  0  0  0  0
  9  6  2  0  0  0  0
 10  8  1  6  0  0  0
 10  3  1  0  0  0  0
 10  5  1  0  0  0  0
 11 16  2  0  0  0  0
 11 17  1  0  0  0  0
 13 12  1  0  0  0  0
 14 12  1  0  0  0  0
 14 15  1  0  0  0  0
 16 13  1  0  0  0  0
 17 14  2  0  0  0  0
 18 16  1  0  0  0  0
 19 20  1  0  0  0  0
 20 18  1  0  0  0  0
 21 19  2  0  0  0  0
 22 27  1  0  0  0  0
 23 26  2  0  0  0  0
 23 24  1  0  0  0  0
 24 22  2  0  0  0  0
 25 19  1  0  0  0  0
 25 27  2  0  0  0  0
 26 25  1  0  0  0  0
 28 24  1  0  0  0  0
 28 29  1  0  0  0  0
 30 23  1  0  0  0  0
 31 33  1  0  0  0  0
 31 30  1  0  0  0  0
 33 32  1  1  0  0  0
 33 34  1  0  0  0  0
 34 35  1  0  0  0  0
 35 37  1  0  0  0  0
 36 37  1  0  0  0  0
 37 38  2  0  0  0  0
 40 39  1  0  0  0  0
 40 41  1  0  0  0  0
 42 43  2  0  0  0  0
 43 40  1  0  0  0  0
 44 43  1  0  0  0  0
 45 44  1  0  0  0  0
 46 47  1  6  0  0  0
 46 45  1  0  0  0  0
 48 49  1  1  0  0  0
 48 46  1  0  0  0  0
 48 50  1  0  0  0  0
 51 54  1  0  0  0  0
 51 53  1  0  0  0  0
 52 58  1  6  0  0  0
 53 55  1  0  0  0  0
 54 56  1  0  0  0  0
 55 52  1  0  0  0  0
 55 50  1  0  0  0  0
 56 52  1  0  0  0  0
 58 57  1  6  0  0  0
 58 60  1  0  0  0  0
 59 60  1  0  0  0  0
M  END
>  <MODEL>
2

>  <REMARK>
 VINA RESULT:      -6.2      2.972      4.548
  Name = 
  21 active torsions:
  status: ('A' for Active; 'I' for Inactive)
    1  A    between atoms: C_2  and  C_23
    2  A    between atoms: C_2  and  C_44
    3  A    between atoms: C_3  and  N_11
    4  A    between atoms: C_4  and  C_30
    5  A    between atoms: C_7  and  C_21
    6  A    between atoms: C_7  and  N_50
    7  A    between atoms: N_8  and  C_35
    8  A    between atoms: N_12  and  C_35
    9  A    between atoms: N_12  and  C_51
   10  A    between atoms: C_13  and  O_16
   11  A    between atoms: O_16  and  C_52
   12  A    between atoms: C_17  and  O_42
   13  A    between atoms: C_18  and  C_20
   14  A    between atoms: C_18  and  N_26
   15  A    between atoms: C_20  and  C_52
   16  A    between atoms: C_21  and  C_23
   17  A    between atoms: C_22  and  N_24
   18  A    between atoms: C_22  and  C_55
   19  A    between atoms: C_25  and  C_28
   20  A    between atoms: C_25  and  C_56
   21  A    between atoms: C_44  and  C_51
                            x       y       z     vdW  Elec       q    Type
                         _______ _______ _______ _____ _____    ______ ____

>  <TORSDO>
F 21

$$$$
=
 OpenBabel10222417283D

 60 64  0  0  1  0  0  0  0  0999 V2000
  188.8090  177.9950  137.2250 N   0  0  0  0  0  0  0  0  0  0  0  0
  189.2120  177.0000  138.2130 C   0  0  1  0  0  3  0  0  0  0  0  0
  186.5900  175.7040  135.6610 C   0  0  0  0  0  0  0  0  0  0  0  0
  186.0370  174.4060  135.9010 N   0  0  0  0  0  2  0  0  0  0  0  0
  188.1430  177.5040  136.2340 C   0  0  0  0  0  0  0  0  0  0  0  0
  186.4960  177.8620  134.5940 C   0  0  0  0  0  3  0  0  0  0  0  0
  185.9910  176.5390  134.8550 N   0  0  0  0  0  0  0  0  0  0  0  0
  188.2400  175.4760  137.8990 S   0  0  0  0  0  0  0  0  0  0  0  0
  187.5070  178.3340  135.2600 N   0  0  0  0  0  0  0  0  0  0  0  0
  187.9530  176.0350  136.2000 C   0  0  1  0  0  3  0  0  0  0  0  0
  192.8280  177.0010  139.1120 C   0  0  0  0  0  3  0  0  0  0  0  0
  191.1620  175.8150  137.1010 C   0  0  0  0  0  2  0  0  0  0  0  0
  190.6470  176.7150  138.1460 N   0  0  0  0  0  0  0  0  0  0  0  0
  192.6480  175.9510  136.9150 C   0  0  0  0  0  0  0  0  0  0  0  0
  193.2850  175.3950  135.6890 C   0  0  0  0  0  1  0  0  0  0  0  0
  191.5060  177.1200  139.2330 C   0  0  0  0  0  0  0  0  0  0  0  0
  193.4170  176.4490  137.8830 C   0  0  0  0  0  3  0  0  0  0  0  0
  190.9470  177.6970  140.4940 C   0  0  0  0  0  2  0  0  0  0  0  0
  190.1450  176.2360  142.4240 C   0  0  0  0  0  0  0  0  0  0  0  0
  191.1880  176.7970  141.6110 N   0  0  0  0  0  2  0  0  0  0  0  0
  190.3330  175.1050  142.9450 O   0  0  0  0  0  0  0  0  0  0  0  0
  186.9100  177.9940  141.8740 C   0  0  0  0  0  3  0  0  0  0  0  0
  187.2090  177.7710  144.2670 C   0  0  0  0  0  0  0  0  0  0  0  0
  186.4190  178.1980  143.1770 C   0  0  0  0  0  0  0  0  0  0  0  0
  188.8800  176.9520  142.7040 C   0  0  0  0  0  0  0  0  0  0  0  0
  188.4320  177.1450  144.0120 C   0  0  0  0  0  3  0  0  0  0  0  0
  188.1070  177.3800  141.6690 N   0  0  0  0  0  0  0  0  0  0  0  0
  185.1860  178.8280  143.3820 O   0  0  0  0  0  0  0  0  0  0  0  0
  184.2230  178.9960  142.3470 C   0  0  0  0  0  1  0  0  0  0  0  0
  186.8500  177.9330  145.6120 O   0  0  0  0  0  0  0  0  0  0  0  0
  187.1230  177.0250  146.6740 C   0  0  0  0  0  2  0  0  0  0  0  0
  187.4330  178.9080  148.1260 O   0  0  0  0  0  1  0  0  0  0  0  0
  187.9770  177.6740  147.7590 C   0  0  2  0  0  3  0  0  0  0  0  0
  189.3910  177.8940  147.2370 C   0  0  0  0  0  2  0  0  0  0  0  0
  190.2700  176.8340  147.7060 N   0  0  0  0  0  2  0  0  0  0  0  0
  191.6990  176.9170  145.6070 C   0  0  0  0  0  1  0  0  0  0  0  0
  191.4300  176.4180  146.9820 C   0  0  0  0  0  0  0  0  0  0  0  0
  192.2450  175.6230  147.5140 O   0  0  0  0  0  0  0  0  0  0  0  0
  184.8930  173.8780  135.1630 C   0  0  0  0  0  2  0  0  0  0  0  0
  184.8290  172.4140  135.2320 N   0  0  0  0  0  0  0  0  0  0  0  0
  186.0100  171.6600  135.1530 N   0  0  0  0  0  1  0  0  0  0  0  0
  183.1840  170.3350  134.9050 S   0  0  0  0  0  0  0  0  0  0  0  0
  183.6130  171.7540  135.6090 C   0  0  0  0  0  0  0  0  0  0  0  0
  182.9040  172.1700  136.8570 C   0  0  0  0  0  2  0  0  0  0  0  0
  181.7430  173.1010  136.5530 C   0  0  0  0  0  2  0  0  0  0  0  0
  180.6350  172.9110  137.5740 C   0  0  2  0  0  3  0  0  0  0  0  0
  179.7270  171.9460  137.1220 O   0  0  0  0  0  1  0  0  0  0  0  0
  179.9220  174.2340  137.8410 C   0  0  1  0  0  3  0  0  0  0  0  0
  179.3800  174.2480  139.1290 O   0  0  0  0  0  1  0  0  0  0  0  0
  180.8980  175.3930  137.6730 C   0  0  0  0  0  2  0  0  0  0  0  0
  181.2630  177.6660  140.5980 C   0  0  0  0  0  2  0  0  0  0  0  0
  180.2150  177.7380  137.8790 C   0  0  1  0  0  3  0  0  0  0  0  0
  181.6910  176.7010  139.4920 C   0  0  0  0  0  2  0  0  0  0  0  0
  180.7870  178.9870  139.9950 C   0  0  0  0  0  2  0  0  0  0  0  0
  180.5640  176.4820  138.5850 N   0  0  0  0  0  0  0  0  0  0  0  0
  179.7150  178.7480  138.9230 C   0  0  0  0  0  2  0  0  0  0  0  0
  181.6140  179.6580  137.4340 O   0  0  0  0  0  1  0  0  0  0  0  0
  181.3710  178.3400  137.0420 C   0  0  2  0  0  3  0  0  0  0  0  0
  180.0720  177.2530  135.2250 C   0  0  0  0  0  1  0  0  0  0  0  0
  181.0690  178.3420  135.5550 C   0  0  0  0  0  2  0  0  0  0  0  0
  1  2  1  0  0  0  0
  2 13  1  6  0  0  0
  3  4  1  0  0  0  0
  5  1  2  0  0  0  0
  6  7  1  0  0  0  0
  6  9  2  0  0  0  0
  7  3  2  0  0  0  0
  8  2  1  0  0  0  0
  9  5  1  0  0  0  0
 10  3  1  1  0  0  0
 10  5  1  0  0  0  0
 10  8  1  0  0  0  0
 11 16  2  0  0  0  0
 12 13  1  0  0  0  0
 13 16  1  0  0  0  0
 14 12  1  0  0  0  0
 14 17  2  0  0  0  0
 15 14  1  0  0  0  0
 16 18  1  0  0  0  0
 17 11  1  0  0  0  0
 18 20  1  0  0  0  0
 19 25  1  0  0  0  0
 19 21  2  0  0  0  0
 20 19  1  0  0  0  0
 22 24  1  0  0  0  0
 23 30  1  0  0  0  0
 24 28  1  0  0  0  0
 24 23  2  0  0  0  0
 25 26  2  0  0  0  0
 26 23  1  0  0  0  0
 27 22  2  0  0  0  0
 27 25  1  0  0  0  0
 29 28  1  0  0  0  0
 30 31  1  0  0  0  0
 31 33  1  0  0  0  0
 33 32  1  6  0  0  0
 34 35  1  0  0  0  0
 34 33  1  0  0  0  0
 36 37  1  0  0  0  0
 37 38  2  0  0  0  0
 37 35  1  0  0  0  0
 39 40  1  0  0  0  0
 39  4  1  0  0  0  0
 40 43  1  0  0  0  0
 41 40  1  0  0  0  0
 42 43  2  0  0  0  0
 43 44  1  0  0  0  0
 45 44  1  0  0  0  0
 45 46  1  0  0  0  0
 46 47  1  6  0  0  0
 46 48  1  0  0  0  0
 48 49  1  1  0  0  0
 50 48  1  0  0  0  0
 50 55  1  0  0  0  0
 52 58  1  1  0  0  0
 52 55  1  0  0  0  0
 52 56  1  0  0  0  0
 53 51  1  0  0  0  0
 54 51  1  0  0  0  0
 55 53  1  0  0  0  0
 56 54  1  0  0  0  0
 58 57  1  1  0  0  0
 59 60  1  0  0  0  0
 60 58  1  0  0  0  0
M  END
>  <MODEL>
3

>  <REMARK>
 VINA RESULT:      -5.9      3.072     10.687
  Name = 
  21 active torsions:
  status: ('A' for Active; 'I' for Inactive)
    1  A    between atoms: C_2  and  C_23
    2  A    between atoms: C_2  and  C_44
    3  A    between atoms: C_3  and  N_11
    4  A    between atoms: C_4  and  C_30
    5  A    between atoms: C_7  and  C_21
    6  A    between atoms: C_7  and  N_50
    7  A    between atoms: N_8  and  C_35
    8  A    between atoms: N_12  and  C_35
    9  A    between atoms: N_12  and  C_51
   10  A    between atoms: C_13  and  O_16
   11  A    between atoms: O_16  and  C_52
   12  A    between atoms: C_17  and  O_42
   13  A    between atoms: C_18  and  C_20
   14  A    between atoms: C_18  and  N_26
   15  A    between atoms: C_20  and  C_52
   16  A    between atoms: C_21  and  C_23
   17  A    between atoms: C_22  and  N_24
   18  A    between atoms: C_22  and  C_55
   19  A    between atoms: C_25  and  C_28
   20  A    between atoms: C_25  and  C_56
   21  A    between atoms: C_44  and  C_51
                            x       y       z     vdW  Elec       q    Type
                         _______ _______ _______ _____ _____    ______ ____

>  <TORSDO>
F 21

$$$$
=
 OpenBabel10222417283D

 60 64  0  0  1  0  0  0  0  0999 V2000
  184.6300  179.3500  144.5470 N   0  0  0  0  0  0  0  0  0  0  0  0
  184.2560  179.5770  143.1540 C   0  0  1  0  0  3  0  0  0  0  0  0
  187.4280  177.3830  143.5910 C   0  0  0  0  0  0  0  0  0  0  0  0
  188.1540  177.0470  142.4040 N   0  0  0  0  0  2  0  0  0  0  0  0
  185.5160  178.4260  144.7040 C   0  0  0  0  0  0  0  0  0  0  0  0
  187.3120  177.6120  145.9870 C   0  0  0  0  0  3  0  0  0  0  0  0
  187.9920  177.2700  144.7640 N   0  0  0  0  0  0  0  0  0  0  0  0
  185.5140  178.7590  142.0990 S   0  0  0  0  0  0  0  0  0  0  0  0
  186.1430  178.1800  145.9640 N   0  0  0  0  0  0  0  0  0  0  0  0
  185.9620  177.6950  143.4940 C   0  0  1  0  0  3  0  0  0  0  0  0
  181.3440  178.3190  141.2000 C   0  0  0  0  0  3  0  0  0  0  0  0
  182.0070  178.7210  143.9620 C   0  0  0  0  0  2  0  0  0  0  0  0
  182.9200  179.0550  142.8560 N   0  0  0  0  0  0  0  0  0  0  0  0
  180.5800  178.5990  143.5030 C   0  0  0  0  0  0  0  0  0  0  0  0
  179.4840  178.6170  144.5100 C   0  0  0  0  0  1  0  0  0  0  0  0
  182.5970  178.6500  141.5090 C   0  0  0  0  0  0  0  0  0  0  0  0
  180.2900  178.3510  142.2250 C   0  0  0  0  0  3  0  0  0  0  0  0
  183.6370  178.6150  140.4360 C   0  0  0  0  0  2  0  0  0  0  0  0
  183.0580  178.4160  137.9610 C   0  0  0  0  0  0  0  0  0  0  0  0
  183.0990  179.1490  139.1940 N   0  0  0  0  0  2  0  0  0  0  0  0
  182.1330  178.6660  137.1430 O   0  0  0  0  0  0  0  0  0  0  0  0
  186.3710  176.8800  137.2380 C   0  0  0  0  0  3  0  0  0  0  0  0
  184.7180  175.1160  137.1050 C   0  0  0  0  0  0  0  0  0  0  0  0
  186.0690  175.5210  137.0350 C   0  0  0  0  0  0  0  0  0  0  0  0
  184.0810  177.4090  137.5960 C   0  0  0  0  0  0  0  0  0  0  0  0
  183.7390  176.0710  137.3920 C   0  0  0  0  0  3  0  0  0  0  0  0
  185.3880  177.7780  137.5150 N   0  0  0  0  0  0  0  0  0  0  0  0
  187.0840  174.6000  136.7520 O   0  0  0  0  0  0  0  0  0  0  0  0
  186.8730  173.4380  135.9560 C   0  0  0  0  0  1  0  0  0  0  0  0
  184.2770  173.8010  136.9010 O   0  0  0  0  0  0  0  0  0  0  0  0
  183.0830  173.4040  136.2340 C   0  0  0  0  0  2  0  0  0  0  0  0
  182.5850  171.0850  136.5870 O   0  0  0  0  0  1  0  0  0  0  0  0
  182.3050  172.3740  137.0470 C   0  0  2  0  0  3  0  0  0  0  0  0
  180.8100  172.6330  136.9090 C   0  0  0  0  0  2  0  0  0  0  0  0
  180.5510  174.0640  136.8620 N   0  0  0  0  0  2  0  0  0  0  0  0
  179.8880  174.1520  139.3130 C   0  0  0  0  0  1  0  0  0  0  0  0
  180.1990  174.8210  138.0210 C   0  0  0  0  0  0  0  0  0  0  0  0
  180.1560  176.0760  137.9580 O   0  0  0  0  0  0  0  0  0  0  0  0
  189.4730  176.4210  142.4260 C   0  0  0  0  0  2  0  0  0  0  0  0
  190.3890  177.0440  141.4640 N   0  0  0  0  0  0  0  0  0  0  0  0
  191.6680  177.4430  141.8800 N   0  0  0  0  0  1  0  0  0  0  0  0
  189.1020  178.1830  139.4200 S   0  0  0  0  0  0  0  0  0  0  0  0
  190.0880  177.0400  140.0620 C   0  0  0  0  0  0  0  0  0  0  0  0
  190.9140  176.2110  139.1330 C   0  0  0  0  0  2  0  0  0  0  0  0
  190.2230  176.0210  137.7940 C   0  0  0  0  0  2  0  0  0  0  0  0
  191.2360  176.0900  136.6640 C   0  0  2  0  0  3  0  0  0  0  0  0
  190.6050  176.4800  135.4770 O   0  0  0  0  0  1  0  0  0  0  0  0
  191.9290  174.7430  136.4850 C   0  0  1  0  0  3  0  0  0  0  0  0
  191.9210  174.3600  135.1410 O   0  0  0  0  0  1  0  0  0  0  0  0
  193.3630  174.8240  136.9940 C   0  0  0  0  0  2  0  0  0  0  0  0
  195.2480  177.1830  134.8160 C   0  0  0  0  0  2  0  0  0  0  0  0
  195.5460  174.5040  135.9260 C   0  0  1  0  0  3  0  0  0  0  0  0
  194.5080  176.6850  136.0580 C   0  0  0  0  0  2  0  0  0  0  0  0
  196.5620  176.4230  134.6430 C   0  0  0  0  0  2  0  0  0  0  0  0
  194.2650  175.2480  135.9280 N   0  0  0  0  0  0  0  0  0  0  0  0
  196.3290  174.9070  134.6670 C   0  0  0  0  0  2  0  0  0  0  0  0
  197.5420  175.4660  136.8930 O   0  0  0  0  0  1  0  0  0  0  0  0
  196.4060  174.7140  137.1980 C   0  0  2  0  0  3  0  0  0  0  0  0
  195.6670  172.5390  138.1470 C   0  0  0  0  0  1  0  0  0  0  0  0
  196.8630  173.4020  137.8090 C   0  0  0  0  0  2  0  0  0  0  0  0
  1  5  2  0  0  0  0
  2 13  1  1  0  0  0
  2  1  1  0  0  0  0
  3  7  2  0  0  0  0
  4 39  1  0  0  0  0
  4  3  1  0  0  0  0
  5  9  1  0  0  0  0
  7  6  1  0  0  0  0
  8  2  1  0  0  0  0
  9  6  2  0  0  0  0
 10  8  1  6  0  0  0
 10  3  1  0  0  0  0
 10  5  1  0  0  0  0
 11 16  2  0  0  0  0
 11 17  1  0  0  0  0
 13 12  1  0  0  0  0
 14 12  1  0  0  0  0
 14 15  1  0  0  0  0
 16 13  1  0  0  0  0
 17 14  2  0  0  0  0
 18 16  1  0  0  0  0
 19 20  1  0  0  0  0
 20 18  1  0  0  0  0
 21 19  2  0  0  0  0
 22 27  1  0  0  0  0
 23 26  2  0  0  0  0
 24 23  1  0  0  0  0
 24 22  2  0  0  0  0
 25 19  1  0  0  0  0
 26 25  1  0  0  0  0
 27 25  2  0  0  0  0
 28 24  1  0  0  0  0
 29 28  1  0  0  0  0
 30 23  1  0  0  0  0
 31 30  1  0  0  0  0
 31 33  1  0  0  0  0
 33 32  1  6  0  0  0
 34 33  1  0  0  0  0
 35 34  1  0  0  0  0
 35 37  1  0  0  0  0
 37 36  1  0  0  0  0
 38 37  2  0  0  0  0
 40 41  1  0  0  0  0
 40 39  1  0  0  0  0
 42 43  2  0  0  0  0
 43 40  1  0  0  0  0
 44 43  1  0  0  0  0
 45 44  1  0  0  0  0
 46 47  1  6  0  0  0
 46 45  1  0  0  0  0
 48 49  1  6  0  0  0
 48 46  1  0  0  0  0
 48 50  1  0  0  0  0
 51 53  1  0  0  0  0
 52 55  1  0  0  0  0
 52 58  1  1  0  0  0
 54 56  1  0  0  0  0
 54 51  1  0  0  0  0
 55 53  1  0  0  0  0
 55 50  1  0  0  0  0
 56 52  1  0  0  0  0
 58 57  1  6  0  0  0
 58 60  1  0  0  0  0
 60 59  1  0  0  0  0
M  END
>  <MODEL>
4

>  <REMARK>
 VINA RESULT:      -5.9      2.787      4.789
  Name = 
  21 active torsions:
  status: ('A' for Active; 'I' for Inactive)
    1  A    between atoms: C_2  and  C_23
    2  A    between atoms: C_2  and  C_44
    3  A    between atoms: C_3  and  N_11
    4  A    between atoms: C_4  and  C_30
    5  A    between atoms: C_7  and  C_21
    6  A    between atoms: C_7  and  N_50
    7  A    between atoms: N_8  and  C_35
    8  A    between atoms: N_12  and  C_35
    9  A    between atoms: N_12  and  C_51
   10  A    between atoms: C_13  and  O_16
   11  A    between atoms: O_16  and  C_52
   12  A    between atoms: C_17  and  O_42
   13  A    between atoms: C_18  and  C_20
   14  A    between atoms: C_18  and  N_26
   15  A    between atoms: C_20  and  C_52
   16  A    between atoms: C_21  and  C_23
   17  A    between atoms: C_22  and  N_24
   18  A    between atoms: C_22  and  C_55
   19  A    between atoms: C_25  and  C_28
   20  A    between atoms: C_25  and  C_56
   21  A    between atoms: C_44  and  C_51
                            x       y       z     vdW  Elec       q    Type
                         _______ _______ _______ _____ _____    ______ ____

>  <TORSDO>
F 21

$$$$
=
 OpenBabel10222417283D

 60 64  0  0  1  0  0  0  0  0999 V2000
  187.6050  176.8460  144.8760 N   0  0  0  0  0  0  0  0  0  0  0  0
  187.7990  176.7920  143.4300 C   0  0  1  0  0  3  0  0  0  0  0  0
  184.6310  178.7540  144.5150 C   0  0  0  0  0  0  0  0  0  0  0  0
  183.7420  179.1770  143.4770 N   0  0  0  0  0  2  0  0  0  0  0  0
  186.7120  177.7000  145.2490 C   0  0  0  0  0  0  0  0  0  0  0  0
  185.0720  178.2740  146.8350 C   0  0  0  0  0  3  0  0  0  0  0  0
  184.2240  178.7090  145.7560 N   0  0  0  0  0  0  0  0  0  0  0  0
  186.3810  177.6510  142.6440 S   0  0  0  0  0  0  0  0  0  0  0  0
  186.2490  177.7740  146.5980 N   0  0  0  0  0  0  0  0  0  0  0  0
  186.0820  178.5330  144.1970 C   0  0  1  0  0  3  0  0  0  0  0  0
  190.6630  177.8280  141.2830 C   0  0  0  0  0  3  0  0  0  0  0  0
  189.8020  178.2490  143.9860 C   0  0  0  0  0  2  0  0  0  0  0  0
  189.0630  177.4140  143.0260 N   0  0  0  0  0  0  0  0  0  0  0  0
  191.2310  178.4630  143.5710 C   0  0  0  0  0  0  0  0  0  0  0  0
  192.2140  178.9720  144.5670 C   0  0  0  0  0  1  0  0  0  0  0  0
  189.4500  177.4010  141.6350 C   0  0  0  0  0  0  0  0  0  0  0  0
  191.6040  178.3220  142.2990 C   0  0  0  0  0  3  0  0  0  0  0  0
  188.5270  176.8960  140.5740 C   0  0  0  0  0  2  0  0  0  0  0  0
  187.6490  177.8330  138.3710 C   0  0  0  0  0  0  0  0  0  0  0  0
  188.0780  177.9940  139.7310 N   0  0  0  0  0  2  0  0  0  0  0  0
  186.7860  178.6290  137.9140 O   0  0  0  0  0  0  0  0  0  0  0  0
  187.8330  175.0570  135.8970 C   0  0  0  0  0  3  0  0  0  0  0  0
  190.1060  175.7230  136.3990 C   0  0  0  0  0  0  0  0  0  0  0  0
  189.2140  174.9030  135.6750 C   0  0  0  0  0  0  0  0  0  0  0  0
  188.2090  176.7950  137.4750 C   0  0  0  0  0  0  0  0  0  0  0  0
  189.5870  176.6670  137.2900 C   0  0  0  0  0  3  0  0  0  0  0  0
  187.3680  175.9880  136.7730 N   0  0  0  0  0  0  0  0  0  0  0  0
  189.6870  173.9450  134.7700 O   0  0  0  0  0  0  0  0  0  0  0  0
  190.0310  172.6200  135.1600 C   0  0  0  0  0  1  0  0  0  0  0  0
  191.5020  175.6580  136.2900 O   0  0  0  0  0  0  0  0  0  0  0  0
  192.3540  174.6990  136.9100 C   0  0  0  0  0  2  0  0  0  0  0  0
  193.9520  176.4780  137.0860 O   0  0  0  0  0  1  0  0  0  0  0  0
  193.4270  175.3720  137.7600 C   0  0  2  0  0  3  0  0  0  0  0  0
  194.5540  174.3850  138.0390 C   0  0  0  0  0  2  0  0  0  0  0  0
  195.8360  175.0740  138.0390 N   0  0  0  0  0  2  0  0  0  0  0  0
  196.9910  173.1900  136.7850 C   0  0  0  0  0  1  0  0  0  0  0  0
  196.9860  174.5590  137.3660 C   0  0  0  0  0  0  0  0  0  0  0  0
  198.0140  175.2740  137.2520 O   0  0  0  0  0  0  0  0  0  0  0  0
  182.4140  179.7270  143.7380 C   0  0  0  0  0  2  0  0  0  0  0  0
  181.3530  178.8760  143.1870 N   0  0  0  0  0  0  0  0  0  0  0  0
  180.3910  178.3210  144.0440 N   0  0  0  0  0  1  0  0  0  0  0  0
  182.4230  178.6150  140.7540 S   0  0  0  0  0  0  0  0  0  0  0  0
  181.1470  178.7930  141.7710 C   0  0  0  0  0  0  0  0  0  0  0  0
  179.7740  178.5390  141.2390 C   0  0  0  0  0  2  0  0  0  0  0  0
  179.8180  177.7630  139.9340 C   0  0  0  0  0  2  0  0  0  0  0  0
  179.2410  176.3720  140.1290 C   0  0  2  0  0  3  0  0  0  0  0  0
  179.1010  176.0970  141.4940 O   0  0  0  0  0  1  0  0  0  0  0  0
  180.1290  175.3260  139.4600 C   0  0  1  0  0  3  0  0  0  0  0  0
  179.6280  174.0410  139.6820 O   0  0  0  0  0  1  0  0  0  0  0  0
  180.2170  175.6000  137.9630 C   0  0  0  0  0  2  0  0  0  0  0  0
  183.4710  174.9490  136.2770 C   0  0  0  0  0  2  0  0  0  0  0  0
  181.8340  177.2210  137.0880 C   0  0  1  0  0  3  0  0  0  0  0  0
  181.9650  174.8710  136.5270 C   0  0  0  0  0  2  0  0  0  0  0  0
  183.8660  176.3650  135.8620 C   0  0  0  0  0  2  0  0  0  0  0  0
  181.6000  175.8370  137.5640 N   0  0  0  0  0  0  0  0  0  0  0  0
  183.3450  177.4000  136.8690 C   0  0  0  0  0  2  0  0  0  0  0  0
  181.7070  178.6110  135.1140 O   0  0  0  0  0  1  0  0  0  0  0  0
  181.0450  177.5960  135.8090 C   0  0  2  0  0  3  0  0  0  0  0  0
  179.6640  179.5450  136.4920 C   0  0  0  0  0  1  0  0  0  0  0  0
  179.6400  178.0790  136.1170 C   0  0  0  0  0  2  0  0  0  0  0  0
  1  5  2  0  0  0  0
  2 13  1  1  0  0  0
  2  1  1  0  0  0  0
  3  7  2  0  0  0  0
  4 39  1  0  0  0  0
  4  3  1  0  0  0  0
  5  9  1  0  0  0  0
  7  6  1  0  0  0  0
  8  2  1  0  0  0  0
  9  6  2  0  0  0  0
 10  8  1  6  0  0  0
 10  3  1  0  0  0  0
 10  5  1  0  0  0  0
 11 16  2  0  0  0  0
 11 17  1  0  0  0  0
 13 12  1  0  0  0  0
 14 12  1  0  0  0  0
 14 15  1  0  0  0  0
 16 13  1  0  0  0  0
 17 14  2  0  0  0  0
 18 16  1  0  0  0  0
 19 20  1  0  0  0  0
 20 18  1  0  0  0  0
 21 19  2  0  0  0  0
 22 27  1  0  0  0  0
 23 26  2  0  0  0  0
 24 22  2  0  0  0  0
 24 23  1  0  0  0  0
 25 19  1  0  0  0  0
 26 25  1  0  0  0  0
 27 25  2  0  0  0  0
 28 29  1  0  0  0  0
 28 24  1  0  0  0  0
 30 23  1  0  0  0  0
 30 31  1  0  0  0  0
 31 33  1  0  0  0  0
 33 32  1  6  0  0  0
 33 34  1  0  0  0  0
 35 34  1  0  0  0  0
 36 37  1  0  0  0  0
 37 35  1  0  0  0  0
 38 37  2  0  0  0  0
 40 39  1  0  0  0  0
 40 41  1  0  0  0  0
 42 43  2  0  0  0  0
 43 40  1  0  0  0  0
 44 43  1  0  0  0  0
 45 46  1  0  0  0  0
 45 44  1  0  0  0  0
 46 47  1  1  0  0  0
 48 49  1  6  0  0  0
 48 46  1  0  0  0  0
 50 48  1  0  0  0  0
 51 53  1  0  0  0  0
 52 58  1  6  0  0  0
 52 55  1  0  0  0  0
 53 55  1  0  0  0  0
 54 51  1  0  0  0  0
 54 56  1  0  0  0  0
 55 50  1  0  0  0  0
 56 52  1  0  0  0  0
 58 57  1  1  0  0  0
 58 60  1  0  0  0  0
 60 59  1  0  0  0  0
M  END
>  <MODEL>
5

>  <REMARK>
 VINA RESULT:      -5.8      2.748      8.455
  Name = 
  21 active torsions:
  status: ('A' for Active; 'I' for Inactive)
    1  A    between atoms: C_2  and  C_23
    2  A    between atoms: C_2  and  C_44
    3  A    between atoms: C_3  and  N_11
    4  A    between atoms: C_4  and  C_30
    5  A    between atoms: C_7  and  C_21
    6  A    between atoms: C_7  and  N_50
    7  A    between atoms: N_8  and  C_35
    8  A    between atoms: N_12  and  C_35
    9  A    between atoms: N_12  and  C_51
   10  A    between atoms: C_13  and  O_16
   11  A    between atoms: O_16  and  C_52
   12  A    between atoms: C_17  and  O_42
   13  A    between atoms: C_18  and  C_20
   14  A    between atoms: C_18  and  N_26
   15  A    between atoms: C_20  and  C_52
   16  A    between atoms: C_21  and  C_23
   17  A    between atoms: C_22  and  N_24
   18  A    between atoms: C_22  and  C_55
   19  A    between atoms: C_25  and  C_28
   20  A    between atoms: C_25  and  C_56
   21  A    between atoms: C_44  and  C_51
                            x       y       z     vdW  Elec       q    Type
                         _______ _______ _______ _____ _____    ______ ____

>  <TORSDO>
F 21

$$$$
=
 OpenBabel10222417283D

 60 64  0  0  1  0  0  0  0  0999 V2000
  188.4770  177.5760  137.3010 N   0  0  0  0  0  0  0  0  0  0  0  0
  188.7350  176.4220  138.1580 C   0  0  1  0  0  3  0  0  0  0  0  0
  186.1010  175.7590  135.3860 C   0  0  0  0  0  0  0  0  0  0  0  0
  185.4080  174.5080  135.4350 N   0  0  0  0  0  2  0  0  0  0  0  0
  187.8060  177.2920  136.2360 C   0  0  0  0  0  0  0  0  0  0  0  0
  186.2730  178.0350  134.6140 C   0  0  0  0  0  3  0  0  0  0  0  0
  185.6250  176.7510  134.6820 N   0  0  0  0  0  0  0  0  0  0  0  0
  187.6250  175.0660  137.6170 S   0  0  0  0  0  0  0  0  0  0  0  0
  187.3000  178.3050  135.3650 N   0  0  0  0  0  0  0  0  0  0  0  0
  187.4670  175.8690  136.0010 C   0  0  1  0  0  3  0  0  0  0  0  0
  192.4120  176.3720  138.7600 C   0  0  0  0  0  3  0  0  0  0  0  0
  190.4860  174.7610  137.3730 C   0  0  0  0  0  2  0  0  0  0  0  0
  190.1350  175.9960  138.0930 N   0  0  0  0  0  0  0  0  0  0  0  0
  191.9530  174.6870  137.0530 C   0  0  0  0  0  0  0  0  0  0  0  0
  192.4320  173.7060  136.0400 C   0  0  0  0  0  1  0  0  0  0  0  0
  191.1180  176.6490  138.9240 C   0  0  0  0  0  0  0  0  0  0  0  0
  192.8430  175.3970  137.7470 C   0  0  0  0  0  3  0  0  0  0  0  0
  190.7220  177.6540  139.9570 C   0  0  0  0  0  2  0  0  0  0  0  0
  191.0710  177.0570  142.4110 C   0  0  0  0  0  0  0  0  0  0  0  0
  191.5570  177.5170  141.1410 N   0  0  0  0  0  2  0  0  0  0  0  0
  191.8650  176.4410  143.1710 O   0  0  0  0  0  0  0  0  0  0  0  0
  187.3790  177.5310  142.3590 C   0  0  0  0  0  3  0  0  0  0  0  0
  188.0840  177.6380  144.6730 C   0  0  0  0  0  0  0  0  0  0  0  0
  187.0440  177.6680  143.7180 C   0  0  0  0  0  0  0  0  0  0  0  0
  189.6890  177.3130  142.8780 C   0  0  0  0  0  0  0  0  0  0  0  0
  189.3990  177.4540  144.2360 C   0  0  0  0  0  3  0  0  0  0  0  0
  188.6720  177.3540  141.9750 N   0  0  0  0  0  0  0  0  0  0  0  0
  185.7120  177.8480  144.1080 O   0  0  0  0  0  0  0  0  0  0  0  0
  185.0090  179.0710  143.9130 C   0  0  0  0  0  1  0  0  0  0  0  0
  187.8920  177.7850  146.0540 O   0  0  0  0  0  0  0  0  0  0  0  0
  188.3500  176.8980  147.0690 C   0  0  0  0  0  2  0  0  0  0  0  0
  188.6120  179.0190  148.1540 O   0  0  0  0  0  1  0  0  0  0  0  0
  188.9130  177.6600  148.2650 C   0  0  2  0  0  3  0  0  0  0  0  0
  190.4270  177.4920  148.3140 C   0  0  0  0  0  2  0  0  0  0  0  0
  190.8930  176.7940  147.1250 N   0  0  0  0  0  2  0  0  0  0  0  0
  192.8080  175.6850  148.3740 C   0  0  0  0  0  1  0  0  0  0  0  0
  191.9710  175.8570  147.1560 C   0  0  0  0  0  0  0  0  0  0  0  0
  192.2180  175.1570  146.1420 O   0  0  0  0  0  0  0  0  0  0  0  0
  184.2470  174.2060  134.6020 C   0  0  0  0  0  2  0  0  0  0  0  0
  183.6260  172.9300  134.9730 N   0  0  0  0  0  0  0  0  0  0  0  0
  184.4340  171.8450  135.3450 N   0  0  0  0  0  1  0  0  0  0  0  0
  181.6050  171.8480  136.3430 S   0  0  0  0  0  0  0  0  0  0  0  0
  182.2110  172.8420  135.1860 C   0  0  0  0  0  0  0  0  0  0  0  0
  181.3090  173.8770  134.5970 C   0  0  0  0  0  2  0  0  0  0  0  0
  181.1270  175.0570  135.5370 C   0  0  0  0  0  2  0  0  0  0  0  0
  180.7670  174.5690  136.9300 C   0  0  2  0  0  3  0  0  0  0  0  0
  179.4360  174.1370  136.9570 O   0  0  0  0  0  1  0  0  0  0  0  0
  180.9920  175.6750  137.9570 C   0  0  1  0  0  3  0  0  0  0  0  0
  181.2540  175.1290  139.2170 O   0  0  0  0  0  1  0  0  0  0  0  0
  182.1530  176.5610  137.5220 C   0  0  0  0  0  2  0  0  0  0  0  0
  179.8520  179.4870  137.4860 C   0  0  0  0  0  2  0  0  0  0  0  0
  182.4680  178.7640  138.5490 C   0  0  1  0  0  3  0  0  0  0  0  0
  180.3090  178.0480  137.7240 C   0  0  0  0  0  2  0  0  0  0  0  0
  180.5860  180.4390  138.4300 C   0  0  0  0  0  2  0  0  0  0  0  0
  181.7560  177.9660  137.5230 N   0  0  0  0  0  0  0  0  0  0  0  0
  182.1050  180.2420  138.3380 C   0  0  0  0  0  2  0  0  0  0  0  0
  181.6310  179.3930  140.7280 O   0  0  0  0  0  1  0  0  0  0  0  0
  182.1790  178.3300  140.0080 C   0  0  2  0  0  3  0  0  0  0  0  0
  184.5780  178.8100  140.4390 C   0  0  0  0  0  1  0  0  0  0  0  0
  183.4300  177.8690  140.7330 C   0  0  0  0  0  2  0  0  0  0  0  0
  1  2  1  0  0  0  0
  2 13  1  6  0  0  0
  3  4  1  0  0  0  0
  5  1  2  0  0  0  0
  6  7  1  0  0  0  0
  6  9  2  0  0  0  0
  7  3  2  0  0  0  0
  8  2  1  0  0  0  0
  9  5  1  0  0  0  0
 10  3  1  1  0  0  0
 10  5  1  0  0  0  0
 10  8  1  0  0  0  0
 11 16  2  0  0  0  0
 12 13  1  0  0  0  0
 13 16  1  0  0  0  0
 14 12  1  0  0  0  0
 14 17  2  0  0  0  0
 15 14  1  0  0  0  0
 16 18  1  0  0  0  0
 17 11  1  0  0  0  0
 18 20  1  0  0  0  0
 19 25  1  0  0  0  0
 19 21  2  0  0  0  0
 20 19  1  0  0  0  0
 22 24  1  0  0  0  0
 23 30  1  0  0  0  0
 24 28  1  0  0  0  0
 24 23  2  0  0  0  0
 25 26  2  0  0  0  0
 26 23  1  0  0  0  0
 27 22  2  0  0  0  0
 27 25  1  0  0  0  0
 29 28  1  0  0  0  0
 30 31  1  0  0  0  0
 31 33  1  0  0  0  0
 33 32  1  6  0  0  0
 33 34  1  0  0  0  0
 35 37  1  0  0  0  0
 35 34  1  0  0  0  0
 37 36  1  0  0  0  0
 38 37  2  0  0  0  0
 39 40  1  0  0  0  0
 39  4  1  0  0  0  0
 40 43  1  0  0  0  0
 40 41  1  0  0  0  0
 43 42  2  0  0  0  0
 44 43  1  0  0  0  0
 44 45  1  0  0  0  0
 45 46  1  0  0  0  0
 46 47  1  6  0  0  0
 46 48  1  0  0  0  0
 48 49  1  1  0  0  0
 50 55  1  0  0  0  0
 50 48  1  0  0  0  0
 51 53  1  0  0  0  0
 51 54  1  0  0  0  0
 52 58  1  1  0  0  0
 55 53  1  0  0  0  0
 55 52  1  0  0  0  0
 56 54  1  0  0  0  0
 56 52  1  0  0  0  0
 58 57  1  1  0  0  0
 58 60  1  0  0  0  0
 59 60  1  0  0  0  0
M  END
>  <MODEL>
6

>  <REMARK>
 VINA RESULT:      -5.6      3.086     10.777
  Name = 
  21 active torsions:
  status: ('A' for Active; 'I' for Inactive)
    1  A    between atoms: C_2  and  C_23
    2  A    between atoms: C_2  and  C_44
    3  A    between atoms: C_3  and  N_11
    4  A    between atoms: C_4  and  C_30
    5  A    between atoms: C_7  and  C_21
    6  A    between atoms: C_7  and  N_50
    7  A    between atoms: N_8  and  C_35
    8  A    between atoms: N_12  and  C_35
    9  A    between atoms: N_12  and  C_51
   10  A    between atoms: C_13  and  O_16
   11  A    between atoms: O_16  and  C_52
   12  A    between atoms: C_17  and  O_42
   13  A    between atoms: C_18  and  C_20
   14  A    between atoms: C_18  and  N_26
   15  A    between atoms: C_20  and  C_52
   16  A    between atoms: C_21  and  C_23
   17  A    between atoms: C_22  and  N_24
   18  A    between atoms: C_22  and  C_55
   19  A    between atoms: C_25  and  C_28
   20  A    between atoms: C_25  and  C_56
   21  A    between atoms: C_44  and  C_51
                            x       y       z     vdW  Elec       q    Type
                         _______ _______ _______ _____ _____    ______ ____

>  <TORSDO>
F 21

$$$$
=
 OpenBabel10222417283D

 60 64  0  0  1  0  0  0  0  0999 V2000
  188.7160  177.7600  139.2120 N   0  0  0  0  0  0  0  0  0  0  0  0
  189.3990  176.5040  139.5050 C   0  0  1  0  0  3  0  0  0  0  0  0
  186.6620  176.2000  136.7710 C   0  0  0  0  0  0  0  0  0  0  0  0
  186.3460  174.8820  136.3110 N   0  0  0  0  0  2  0  0  0  0  0  0
  187.9970  177.7230  138.1410 C   0  0  0  0  0  0  0  0  0  0  0  0
  186.0980  178.5300  137.0120 C   0  0  0  0  0  3  0  0  0  0  0  0
  185.8370  177.1900  136.5550 N   0  0  0  0  0  0  0  0  0  0  0  0
  188.6290  175.1960  138.4750 S   0  0  0  0  0  0  0  0  0  0  0  0
  187.1130  178.7870  137.7830 N   0  0  0  0  0  0  0  0  0  0  0  0
  188.0230  176.4740  137.3440 C   0  0  1  0  0  3  0  0  0  0  0  0
  192.9970  177.3760  139.9310 C   0  0  0  0  0  3  0  0  0  0  0  0
  191.4010  175.8810  138.0750 C   0  0  0  0  0  2  0  0  0  0  0  0
  190.8370  176.5880  139.2350 N   0  0  0  0  0  0  0  0  0  0  0  0
  192.7680  176.3900  137.7090 C   0  0  0  0  0  0  0  0  0  0  0  0
  193.3420  176.0540  136.3770 C   0  0  0  0  0  1  0  0  0  0  0  0
  191.7160  177.1570  140.2290 C   0  0  0  0  0  0  0  0  0  0  0  0
  193.5230  177.0300  138.6030 C   0  0  0  0  0  3  0  0  0  0  0  0
  191.2170  177.5330  141.5870 C   0  0  0  0  0  2  0  0  0  0  0  0
  191.5160  176.2930  143.7950 C   0  0  0  0  0  0  0  0  0  0  0  0
  192.0440  176.9190  142.6150 N   0  0  0  0  0  2  0  0  0  0  0  0
  192.1600  175.3410  144.3100 O   0  0  0  0  0  0  0  0  0  0  0  0
  189.1200  177.3260  146.4510 C   0  0  0  0  0  3  0  0  0  0  0  0
  187.9990  177.6090  144.3230 C   0  0  0  0  0  0  0  0  0  0  0  0
  187.9790  177.7240  145.7300 C   0  0  0  0  0  0  0  0  0  0  0  0
  190.2690  176.7490  144.4500 C   0  0  0  0  0  0  0  0  0  0  0  0
  189.1540  177.1260  143.7000 C   0  0  0  0  0  3  0  0  0  0  0  0
  190.2230  176.8600  145.8060 N   0  0  0  0  0  0  0  0  0  0  0  0
  186.8470  178.2050  146.3980 O   0  0  0  0  0  0  0  0  0  0  0  0
  186.8620  178.5760  147.7730 C   0  0  0  0  0  1  0  0  0  0  0  0
  186.9250  177.9480  143.4880 O   0  0  0  0  0  0  0  0  0  0  0  0
  186.7840  177.6050  142.1130 C   0  0  0  0  0  2  0  0  0  0  0  0
  186.1720  179.7650  141.2690 O   0  0  0  0  0  1  0  0  0  0  0  0
  185.7140  178.4550  141.4330 C   0  0  2  0  0  3  0  0  0  0  0  0
  184.4540  178.4760  142.2890 C   0  0  0  0  0  2  0  0  0  0  0  0
  184.7250  179.1240  143.5640 N   0  0  0  0  0  2  0  0  0  0  0  0
  182.4580  178.4810  144.5150 C   0  0  0  0  0  1  0  0  0  0  0  0
  183.8210  179.0570  144.6690 C   0  0  0  0  0  0  0  0  0  0  0  0
  184.1790  179.4840  145.7950 O   0  0  0  0  0  0  0  0  0  0  0  0
  185.2000  174.5890  135.4560 C   0  0  0  0  0  2  0  0  0  0  0  0
  184.0670  174.0590  136.2230 N   0  0  0  0  0  0  0  0  0  0  0  0
  184.2630  173.6220  137.5410 N   0  0  0  0  0  1  0  0  0  0  0  0
  182.1450  173.1600  134.6020 S   0  0  0  0  0  0  0  0  0  0  0  0
  182.7260  174.1970  135.7330 C   0  0  0  0  0  0  0  0  0  0  0  0
  181.7560  175.0600  136.4710 C   0  0  0  0  0  2  0  0  0  0  0  0
  182.3320  176.4400  136.7400 C   0  0  0  0  0  2  0  0  0  0  0  0
  181.8450  177.4270  135.6930 C   0  0  2  0  0  3  0  0  0  0  0  0
  182.9340  177.9730  135.0060 O   0  0  0  0  0  1  0  0  0  0  0  0
  181.0140  178.5290  136.3440 C   0  0  1  0  0  3  0  0  0  0  0  0
  180.1020  179.0620  135.4300 O   0  0  0  0  0  1  0  0  0  0  0  0
  180.2750  177.9760  137.5560 C   0  0  0  0  0  2  0  0  0  0  0  0
  180.0220  180.7870  139.9840 C   0  0  0  0  0  2  0  0  0  0  0  0
  180.6430  177.9380  139.9790 C   0  0  1  0  0  3  0  0  0  0  0  0
  179.5780  179.8170  138.8880 C   0  0  0  0  0  2  0  0  0  0  0  0
  180.2140  180.0420  141.3040 C   0  0  0  0  0  2  0  0  0  0  0  0
  180.5810  178.7610  138.7480 N   0  0  0  0  0  0  0  0  0  0  0  0
  181.1420  178.8330  141.1240 C   0  0  0  0  0  2  0  0  0  0  0  0
  179.3590  176.7840  141.6710 O   0  0  0  0  0  1  0  0  0  0  0  0
  179.3040  177.2570  140.3580 C   0  0  2  0  0  3  0  0  0  0  0  0
  179.3240  174.7830  140.1360 C   0  0  0  0  0  1  0  0  0  0  0  0
  178.9740  176.0860  139.4520 C   0  0  0  0  0  2  0  0  0  0  0  0
  1  2  1  0  0  0  0
  2 13  1  6  0  0  0
  4  3  1  0  0  0  0
  5  1  2  0  0  0  0
  6  9  2  0  0  0  0
  7  3  2  0  0  0  0
  7  6  1  0  0  0  0
  8  2  1  0  0  0  0
  9  5  1  0  0  0  0
 10  3  1  1  0  0  0
 10  5  1  0  0  0  0
 10  8  1  0  0  0  0
 11 16  2  0  0  0  0
 12 13  1  0  0  0  0
 13 16  1  0  0  0  0
 14 12  1  0  0  0  0
 14 17  2  0  0  0  0
 15 14  1  0  0  0  0
 16 18  1  0  0  0  0
 17 11  1  0  0  0  0
 18 20  1  0  0  0  0
 19 21  2  0  0  0  0
 19 25  1  0  0  0  0
 20 19  1  0  0  0  0
 23 24  1  0  0  0  0
 24 28  1  0  0  0  0
 24 22  2  0  0  0  0
 25 27  2  0  0  0  0
 26 23  2  0  0  0  0
 26 25  1  0  0  0  0
 27 22  1  0  0  0  0
 28 29  1  0  0  0  0
 30 23  1  0  0  0  0
 31 30  1  0  0  0  0
 33 32  1  1  0  0  0
 33 31  1  0  0  0  0
 33 34  1  0  0  0  0
 34 35  1  0  0  0  0
 35 37  1  0  0  0  0
 36 37  1  0  0  0  0
 37 38  2  0  0  0  0
 39 40  1  0  0  0  0
 39  4  1  0  0  0  0
 40 41  1  0  0  0  0
 42 43  2  0  0  0  0
 43 40  1  0  0  0  0
 43 44  1  0  0  0  0
 44 45  1  0  0  0  0
 46 47  1  1  0  0  0
 46 48  1  0  0  0  0
 46 45  1  0  0  0  0
 48 49  1  6  0  0  0
 48 50  1  0  0  0  0
 50 55  1  0  0  0  0
 51 54  1  0  0  0  0
 52 58  1  1  0  0  0
 52 56  1  0  0  0  0
 53 51  1  0  0  0  0
 55 53  1  0  0  0  0
 55 52  1  0  0  0  0
 56 54  1  0  0  0  0
 58 57  1  1  0  0  0
 60 59  1  0  0  0  0
 60 58  1  0  0  0  0
M  END
>  <MODEL>
7

>  <REMARK>
 VINA RESULT:      -5.5      2.863     10.445
  Name = 
  21 active torsions:
  status: ('A' for Active; 'I' for Inactive)
    1  A    between atoms: C_2  and  C_23
    2  A    between atoms: C_2  and  C_44
    3  A    between atoms: C_3  and  N_11
    4  A    between atoms: C_4  and  C_30
    5  A    between atoms: C_7  and  C_21
    6  A    between atoms: C_7  and  N_50
    7  A    between atoms: N_8  and  C_35
    8  A    between atoms: N_12  and  C_35
    9  A    between atoms: N_12  and  C_51
   10  A    between atoms: C_13  and  O_16
   11  A    between atoms: O_16  and  C_52
   12  A    between atoms: C_17  and  O_42
   13  A    between atoms: C_18  and  C_20
   14  A    between atoms: C_18  and  N_26
   15  A    between atoms: C_20  and  C_52
   16  A    between atoms: C_21  and  C_23
   17  A    between atoms: C_22  and  N_24
   18  A    between atoms: C_22  and  C_55
   19  A    between atoms: C_25  and  C_28
   20  A    between atoms: C_25  and  C_56
   21  A    between atoms: C_44  and  C_51
                            x       y       z     vdW  Elec       q    Type
                         _______ _______ _______ _____ _____    ______ ____

>  <TORSDO>
F 21

$$$$
=
 OpenBabel10222417283D

 60 64  0  0  1  0  0  0  0  0999 V2000
  187.6030  176.8970  144.9420 N   0  0  0  0  0  0  0  0  0  0  0  0
  187.8590  176.7820  143.5090 C   0  0  1  0  0  3  0  0  0  0  0  0
  184.5830  178.6780  144.3700 C   0  0  0  0  0  0  0  0  0  0  0  0
  183.7240  179.0190  143.2780 N   0  0  0  0  0  2  0  0  0  0  0  0
  186.6670  177.7350  145.2370 C   0  0  0  0  0  0  0  0  0  0  0  0
  184.9450  178.3250  146.7260 C   0  0  0  0  0  3  0  0  0  0  0  0
  184.1270  178.6770  145.5940 N   0  0  0  0  0  0  0  0  0  0  0  0
  186.4470  177.5500  142.6270 S   0  0  0  0  0  0  0  0  0  0  0  0
  186.1470  177.8570  146.5620 N   0  0  0  0  0  0  0  0  0  0  0  0
  186.0540  178.4940  144.1220 C   0  0  1  0  0  3  0  0  0  0  0  0
  190.7160  177.9070  141.3990 C   0  0  0  0  0  3  0  0  0  0  0  0
  189.8430  178.2450  144.1100 C   0  0  0  0  0  2  0  0  0  0  0  0
  189.1160  177.4280  143.1260 N   0  0  0  0  0  0  0  0  0  0  0  0
  191.2710  178.4860  143.7050 C   0  0  0  0  0  0  0  0  0  0  0  0
  192.2460  178.9790  144.7170 C   0  0  0  0  0  1  0  0  0  0  0  0
  189.5070  177.4580  141.7360 C   0  0  0  0  0  0  0  0  0  0  0  0
  191.6480  178.3840  142.4300 C   0  0  0  0  0  3  0  0  0  0  0  0
  188.5920  176.9710  140.6590 C   0  0  0  0  0  2  0  0  0  0  0  0
  187.9870  177.8080  138.3270 C   0  0  0  0  0  0  0  0  0  0  0  0
  188.3270  178.0360  139.7040 N   0  0  0  0  0  2  0  0  0  0  0  0
  187.2510  178.6460  137.7430 O   0  0  0  0  0  0  0  0  0  0  0  0
  188.1890  174.4180  136.8010 C   0  0  0  0  0  3  0  0  0  0  0  0
  190.1240  175.6620  136.0460 C   0  0  0  0  0  0  0  0  0  0  0  0
  189.3620  174.4740  136.0260 C   0  0  0  0  0  0  0  0  0  0  0  0
  188.5010  176.6500  137.5600 C   0  0  0  0  0  0  0  0  0  0  0  0
  189.6760  176.7410  136.8130 C   0  0  0  0  0  3  0  0  0  0  0  0
  187.7870  175.4910  137.5340 N   0  0  0  0  0  0  0  0  0  0  0  0
  189.7700  173.3670  135.2720 O   0  0  0  0  0  0  0  0  0  0  0  0
  191.0400  172.7450  135.4390 C   0  0  0  0  0  1  0  0  0  0  0  0
  191.3220  175.8430  135.3400 O   0  0  0  0  0  0  0  0  0  0  0  0
  192.5350  176.3790  135.8590 C   0  0  0  0  0  2  0  0  0  0  0  0
  193.4730  176.2730  138.0630 O   0  0  0  0  0  1  0  0  0  0  0  0
  193.1100  175.4940  136.9610 C   0  0  2  0  0  3  0  0  0  0  0  0
  194.3440  174.7660  136.4440 C   0  0  0  0  0  2  0  0  0  0  0  0
  195.5340  175.2460  137.1290 N   0  0  0  0  0  2  0  0  0  0  0  0
  197.0950  174.1870  135.4270 C   0  0  0  0  0  1  0  0  0  0  0  0
  196.8510  175.0570  136.6090 C   0  0  0  0  0  0  0  0  0  0  0  0
  197.8250  175.6400  137.1490 O   0  0  0  0  0  0  0  0  0  0  0  0
  182.3690  179.5320  143.4590 C   0  0  0  0  0  2  0  0  0  0  0  0
  181.4200  178.9050  142.5320 N   0  0  0  0  0  0  0  0  0  0  0  0
  180.1220  178.5980  142.9670 N   0  0  0  0  0  1  0  0  0  0  0  0
  182.4750  177.4920  140.5270 S   0  0  0  0  0  0  0  0  0  0  0  0
  181.7180  178.8160  141.1320 C   0  0  0  0  0  0  0  0  0  0  0  0
  181.0620  179.7580  140.1760 C   0  0  0  0  0  2  0  0  0  0  0  0
  180.3860  179.0150  139.0370 C   0  0  0  0  0  2  0  0  0  0  0  0
  180.8600  179.5570  137.7000 C   0  0  2  0  0  3  0  0  0  0  0  0
  180.1250  180.6970  137.3570 O   0  0  0  0  0  1  0  0  0  0  0  0
  180.7330  178.4900  136.6160 C   0  0  1  0  0  3  0  0  0  0  0  0
  181.2700  178.9480  135.4100 O   0  0  0  0  0  1  0  0  0  0  0  0
  181.4450  177.2160  137.0540 C   0  0  0  0  0  2  0  0  0  0  0  0
  184.9620  177.1010  135.8400 C   0  0  0  0  0  2  0  0  0  0  0  0
  182.5240  175.5130  135.6590 C   0  0  1  0  0  3  0  0  0  0  0  0
  183.8130  177.1840  136.8440 C   0  0  0  0  0  2  0  0  0  0  0  0
  184.9920  175.7220  135.1810 C   0  0  0  0  0  2  0  0  0  0  0  0
  182.5520  176.9100  136.1530 N   0  0  0  0  0  0  0  0  0  0  0  0
  183.6210  175.3630  134.5940 C   0  0  0  0  0  2  0  0  0  0  0  0
  183.4910  173.3970  136.3140 O   0  0  0  0  0  1  0  0  0  0  0  0
  182.6850  174.4430  136.7680 C   0  0  2  0  0  3  0  0  0  0  0  0
  180.4130  173.7700  136.0190 C   0  0  0  0  0  1  0  0  0  0  0  0
  181.3550  173.8540  137.2000 C   0  0  0  0  0  2  0  0  0  0  0  0
  1  5  2  0  0  0  0
  2 13  1  1  0  0  0
  2  1  1  0  0  0  0
  3  7  2  0  0  0  0
  4 39  1  0  0  0  0
  4  3  1  0  0  0  0
  5  9  1  0  0  0  0
  7  6  1  0  0  0  0
  8  2  1  0  0  0  0
  9  6  2  0  0  0  0
 10  8  1  6  0  0  0
 10  3  1  0  0  0  0
 10  5  1  0  0  0  0
 11 16  2  0  0  0  0
 11 17  1  0  0  0  0
 13 12  1  0  0  0  0
 14 12  1  0  0  0  0
 14 15  1  0  0  0  0
 16 13  1  0  0  0  0
 17 14  2  0  0  0  0
 18 16  1  0  0  0  0
 19 20  1  0  0  0  0
 20 18  1  0  0  0  0
 21 19  2  0  0  0  0
 22 27  1  0  0  0  0
 23 26  2  0  0  0  0
 24 23  1  0  0  0  0
 24 22  2  0  0  0  0
 25 19  1  0  0  0  0
 26 25  1  0  0  0  0
 27 25  2  0  0  0  0
 28 29  1  0  0  0  0
 28 24  1  0  0  0  0
 30 31  1  0  0  0  0
 30 23  1  0  0  0  0
 31 33  1  0  0  0  0
 33 32  1  1  0  0  0
 34 33  1  0  0  0  0
 34 35  1  0  0  0  0
 36 37  1  0  0  0  0
 37 35  1  0  0  0  0
 37 38  2  0  0  0  0
 40 41  1  0  0  0  0
 40 39  1  0  0  0  0
 42 43  2  0  0  0  0
 43 40  1  0  0  0  0
 44 43  1  0  0  0  0
 45 44  1  0  0  0  0
 46 47  1  6  0  0  0
 46 45  1  0  0  0  0
 48 49  1  6  0  0  0
 48 50  1  0  0  0  0
 48 46  1  0  0  0  0
 51 53  1  0  0  0  0
 52 55  1  0  0  0  0
 52 58  1  1  0  0  0
 54 51  1  0  0  0  0
 55 53  1  0  0  0  0
 55 50  1  0  0  0  0
 56 54  1  0  0  0  0
 56 52  1  0  0  0  0
 58 57  1  6  0  0  0
 58 60  1  0  0  0  0
 59 60  1  0  0  0  0
M  END
>  <MODEL>
8

>  <REMARK>
 VINA RESULT:      -5.3      2.534      8.221
  Name = 
  21 active torsions:
  status: ('A' for Active; 'I' for Inactive)
    1  A    between atoms: C_2  and  C_23
    2  A    between atoms: C_2  and  C_44
    3  A    between atoms: C_3  and  N_11
    4  A    between atoms: C_4  and  C_30
    5  A    between atoms: C_7  and  C_21
    6  A    between atoms: C_7  and  N_50
    7  A    between atoms: N_8  and  C_35
    8  A    between atoms: N_12  and  C_35
    9  A    between atoms: N_12  and  C_51
   10  A    between atoms: C_13  and  O_16
   11  A    between atoms: O_16  and  C_52
   12  A    between atoms: C_17  and  O_42
   13  A    between atoms: C_18  and  C_20
   14  A    between atoms: C_18  and  N_26
   15  A    between atoms: C_20  and  C_52
   16  A    between atoms: C_21  and  C_23
   17  A    between atoms: C_22  and  N_24
   18  A    between atoms: C_22  and  C_55
   19  A    between atoms: C_25  and  C_28
   20  A    between atoms: C_25  and  C_56
   21  A    between atoms: C_44  and  C_51
                            x       y       z     vdW  Elec       q    Type
                         _______ _______ _______ _____ _____    ______ ____

>  <TORSDO>
F 21

$$$$
=
 OpenBabel10222417283D

 60 64  0  0  1  0  0  0  0  0999 V2000
  185.2560  177.8200  142.4260 N   0  0  0  0  0  0  0  0  0  0  0  0
  186.0260  177.1440  143.4660 C   0  0  1  0  0  3  0  0  0  0  0  0
  188.1380  178.1970  140.3840 C   0  0  0  0  0  0  0  0  0  0  0  0
  189.4940  177.7420  140.3400 N   0  0  0  0  0  2  0  0  0  0  0  0
  185.9850  178.3930  141.5290 C   0  0  0  0  0  0  0  0  0  0  0  0
  186.1810  179.0730  139.2860 C   0  0  0  0  0  3  0  0  0  0  0  0
  187.5480  178.6220  139.2990 N   0  0  0  0  0  0  0  0  0  0  0  0
  187.7530  176.9870  142.8680 S   0  0  0  0  0  0  0  0  0  0  0  0
  185.4260  178.9490  140.3370 N   0  0  0  0  0  0  0  0  0  0  0  0
  187.4550  178.3500  141.7140 C   0  0  1  0  0  3  0  0  0  0  0  0
  185.0580  179.6800  146.0190 C   0  0  0  0  0  3  0  0  0  0  0  0
  186.7810  177.3920  145.8770 C   0  0  0  0  0  2  0  0  0  0  0  0
  185.9880  177.8750  144.7350 N   0  0  0  0  0  0  0  0  0  0  0  0
  186.9550  178.4460  146.9350 C   0  0  0  0  0  0  0  0  0  0  0  0
  188.0010  178.2680  147.9790 C   0  0  0  0  0  1  0  0  0  0  0  0
  185.0020  178.9110  144.9310 C   0  0  0  0  0  0  0  0  0  0  0  0
  186.1080  179.4720  147.0250 C   0  0  0  0  0  3  0  0  0  0  0  0
  183.9250  179.1620  143.9260 C   0  0  0  0  0  2  0  0  0  0  0  0
  181.4140  178.7270  143.8410 C   0  0  0  0  0  0  0  0  0  0  0  0
  182.6160  179.0590  144.5530 N   0  0  0  0  0  2  0  0  0  0  0  0
  180.4990  178.1190  144.4580 O   0  0  0  0  0  0  0  0  0  0  0  0
  180.1810  180.5710  140.8510 C   0  0  0  0  0  3  0  0  0  0  0  0
  181.6880  178.8480  140.0610 C   0  0  0  0  0  0  0  0  0  0  0  0
  180.8400  179.9410  139.7790 C   0  0  0  0  0  0  0  0  0  0  0  0
  181.1930  179.1050  142.4260 C   0  0  0  0  0  0  0  0  0  0  0  0
  181.8570  178.4480  141.3900 C   0  0  0  0  0  3  0  0  0  0  0  0
  180.3730  180.1500  142.1300 N   0  0  0  0  0  0  0  0  0  0  0  0
  180.6400  180.3790  138.4650 O   0  0  0  0  0  0  0  0  0  0  0  0
  179.4980  181.1300  138.0670 C   0  0  0  0  0  1  0  0  0  0  0  0
  182.3840  178.1180  139.0880 O   0  0  0  0  0  0  0  0  0  0  0  0
  181.8570  177.0710  138.2800 C   0  0  0  0  0  2  0  0  0  0  0  0
  182.1570  176.7810  135.9190 O   0  0  0  0  0  1  0  0  0  0  0  0
  182.8130  176.7020  137.1490 C   0  0  2  0  0  3  0  0  0  0  0  0
  183.3190  175.2790  137.3490 C   0  0  0  0  0  2  0  0  0  0  0  0
  184.7730  175.2650  137.3950 N   0  0  0  0  0  2  0  0  0  0  0  0
  184.8740  172.7260  137.4220 C   0  0  0  0  0  1  0  0  0  0  0  0
  185.5340  174.0570  137.3370 C   0  0  0  0  0  0  0  0  0  0  0  0
  186.7830  174.1120  137.2070 O   0  0  0  0  0  0  0  0  0  0  0  0
  190.3400  177.8690  139.1570 C   0  0  0  0  0  2  0  0  0  0  0  0
  190.2720  176.6760  138.3060 N   0  0  0  0  0  0  0  0  0  0  0  0
  190.6300  175.4250  138.8320 N   0  0  0  0  0  1  0  0  0  0  0  0
  189.2480  178.1710  136.3460 S   0  0  0  0  0  0  0  0  0  0  0  0
  189.6280  176.7280  137.0260 C   0  0  0  0  0  0  0  0  0  0  0  0
  189.5960  175.5060  136.1660 C   0  0  0  0  0  2  0  0  0  0  0  0
  190.9810  174.9030  136.0050 C   0  0  0  0  0  2  0  0  0  0  0  0
  190.8780  173.4760  135.4950 C   0  0  2  0  0  3  0  0  0  0  0  0
  189.7600  172.8470  136.0550 O   0  0  0  0  0  1  0  0  0  0  0  0
  192.1500  172.7000  135.8210 C   0  0  1  0  0  3  0  0  0  0  0  0
  192.1170  171.4330  135.2320 O   0  0  0  0  0  1  0  0  0  0  0  0
  193.3700  173.4710  135.3320 C   0  0  0  0  0  2  0  0  0  0  0  0
  196.5060  172.4640  137.0670 C   0  0  0  0  0  2  0  0  0  0  0  0
  194.8890  174.8560  136.6660 C   0  0  1  0  0  3  0  0  0  0  0  0
  195.5240  172.6470  135.9100 C   0  0  0  0  0  2  0  0  0  0  0  0
  197.0120  173.8210  137.5520 C   0  0  0  0  0  2  0  0  0  0  0  0
  194.4120  173.4880  136.3540 N   0  0  0  0  0  0  0  0  0  0  0  0
  195.8430  174.7640  137.8670 C   0  0  0  0  0  2  0  0  0  0  0  0
  196.9240  175.7860  135.7510 O   0  0  0  0  0  1  0  0  0  0  0  0
  195.5700  175.5800  135.4780 C   0  0  2  0  0  3  0  0  0  0  0  0
  196.0170  177.9730  134.9820 C   0  0  0  0  0  1  0  0  0  0  0  0
  194.9410  176.9300  135.1860 C   0  0  0  0  0  2  0  0  0  0  0  0
  1  2  1  0  0  0  0
  2 13  1  1  0  0  0
  4  3  1  0  0  0  0
  5 10  1  0  0  0  0
  5  1  2  0  0  0  0
  6  7  1  0  0  0  0
  6  9  2  0  0  0  0
  7  3  2  0  0  0  0
  8  2  1  0  0  0  0
  9  5  1  0  0  0  0
 10  3  1  6  0  0  0
 10  8  1  0  0  0  0
 11 17  1  0  0  0  0
 12 14  1  0  0  0  0
 13 16  1  0  0  0  0
 13 12  1  0  0  0  0
 14 17  2  0  0  0  0
 14 15  1  0  0  0  0
 16 11  2  0  0  0  0
 18 20  1  0  0  0  0
 18 16  1  0  0  0  0
 19 21  2  0  0  0  0
 19 20  1  0  0  0  0
 22 27  1  0  0  0  0
 23 26  2  0  0  0  0
 24 23  1  0  0  0  0
 24 22  2  0  0  0  0
 25 19  1  0  0  0  0
 26 25  1  0  0  0  0
 27 25  2  0  0  0  0
 28 24  1  0  0  0  0
 29 28  1  0  0  0  0
 30 23  1  0  0  0  0
 31 30  1  0  0  0  0
 33 32  1  6  0  0  0
 33 34  1  0  0  0  0
 33 31  1  0  0  0  0
 34 35  1  0  0  0  0
 37 35  1  0  0  0  0
 37 36  1  0  0  0  0
 38 37  2  0  0  0  0
 39  4  1  0  0  0  0
 40 41  1  0  0  0  0
 40 39  1  0  0  0  0
 42 43  2  0  0  0  0
 43 40  1  0  0  0  0
 44 43  1  0  0  0  0
 45 44  1  0  0  0  0
 46 48  1  0  0  0  0
 46 45  1  0  0  0  0
 46 47  1  1  0  0  0
 48 49  1  6  0  0  0
 50 48  1  0  0  0  0
 50 55  1  0  0  0  0
 51 54  1  0  0  0  0
 52 58  1  6  0  0  0
 52 56  1  0  0  0  0
 53 55  1  0  0  0  0
 53 51  1  0  0  0  0
 54 56  1  0  0  0  0
 55 52  1  0  0  0  0
 58 57  1  1  0  0  0
 59 60  1  0  0  0  0
 60 58  1  0  0  0  0
M  END
>  <MODEL>
9

>  <REMARK>
 VINA RESULT:      -5.1      3.145      6.082
  Name = 
  21 active torsions:
  status: ('A' for Active; 'I' for Inactive)
    1  A    between atoms: C_2  and  C_23
    2  A    between atoms: C_2  and  C_44
    3  A    between atoms: C_3  and  N_11
    4  A    between atoms: C_4  and  C_30
    5  A    between atoms: C_7  and  C_21
    6  A    between atoms: C_7  and  N_50
    7  A    between atoms: N_8  and  C_35
    8  A    between atoms: N_12  and  C_35
    9  A    between atoms: N_12  and  C_51
   10  A    between atoms: C_13  and  O_16
   11  A    between atoms: O_16  and  C_52
   12  A    between atoms: C_17  and  O_42
   13  A    between atoms: C_18  and  C_20
   14  A    between atoms: C_18  and  N_26
   15  A    between atoms: C_20  and  C_52
   16  A    between atoms: C_21  and  C_23
   17  A    between atoms: C_22  and  N_24
   18  A    between atoms: C_22  and  C_55
   19  A    between atoms: C_25  and  C_28
   20  A    between atoms: C_25  and  C_56
   21  A    between atoms: C_44  and  C_51
                            x       y       z     vdW  Elec       q    Type
                         _______ _______ _______ _____ _____    ______ ____

>  <TORSDO>
F 21

$$$$
