=
 OpenBabel10222416523D

 41 46  0  0  1  0  0  0  0  0999 V2000
  180.9200  177.8380  136.7540 O   0  0  0  0  0  0  0  0  0  0  0  0
  178.9630  178.7900  135.6480 N   0  0  0  0  0  1  0  0  0  0  0  0
  182.1510  177.9610  137.4220 C   0  0  0  0  0  0  0  0  0  0  0  0
  186.7130  176.3180  136.7630 C   0  0  0  0  0  3  0  0  0  0  0  0
  185.3220  176.1470  136.7620 C   0  0  0  0  0  0  0  0  0  0  0  0
  180.4540  180.1510  136.9140 C   0  0  0  0  0  3  0  0  0  0  0  0
  187.3110  177.3170  137.5140 C   0  0  0  0  0  3  0  0  0  0  0  0
  184.4960  177.0230  137.5380 C   0  0  0  0  0  0  0  0  0  0  0  0
  181.6280  180.3140  137.7870 C   0  0  0  0  0  0  0  0  0  0  0  0
  183.2950  179.3630  139.2450 C   0  0  0  0  0  3  0  0  0  0  0  0
  184.4410  178.7300  139.4590 C   0  0  0  0  0  0  0  0  0  0  0  0
  182.5180  175.6650  136.7580 C   0  0  0  0  0  0  0  0  0  0  0  0
  180.1250  178.9480  136.4530 C   0  0  0  0  0  0  0  0  0  0  0  0
  183.0060  176.9100  137.3800 C   0  0  0  0  0  0  0  0  0  0  0  0
  186.5280  178.1140  138.3340 C   0  0  0  0  0  3  0  0  0  0  0  0
  183.3050  175.0690  135.6530 C   0  0  0  0  0  2  0  0  0  0  0  0
  181.8440  181.8900  138.5450 Cl  0  0  0  0  0  0  0  0  0  0  0  0
  182.4370  179.2700  138.0640 C   0  0  0  0  0  0  0  0  0  0  0  0
  181.4260  175.1410  137.1090 O   0  0  0  0  0  0  0  0  0  0  0  0
  185.1350  177.9580  138.4010 C   0  0  0  0  0  0  0  0  0  0  0  0
  184.7550  174.9100  136.0740 C   0  0  1  0  0  3  0  0  0  0  0  0
  184.6240  178.1360  141.9100 N   0  0  0  0  0  2  0  0  0  0  0  0
  185.0770  178.9110  140.7890 C   0  0  0  0  0  0  0  0  0  0  0  0
  185.9890  179.7730  140.9380 O   0  0  0  0  0  0  0  0  0  0  0  0
  186.8700  177.5340  144.8590 C   0  0  0  0  0  3  0  0  0  0  0  0
  184.9370  178.8080  145.5620 C   0  0  0  0  0  3  0  0  0  0  0  0
  184.4460  178.7870  144.2530 C   0  0  0  0  0  3  0  0  0  0  0  0
  186.1520  178.1880  145.8650 C   0  0  0  0  0  0  0  0  0  0  0  0
  185.1650  178.1430  143.2390 C   0  0  0  0  0  0  0  0  0  0  0  0
  186.3790  177.5140  143.5500 C   0  0  0  0  0  3  0  0  0  0  0  0
  186.6630  178.1890  147.2630 C   0  0  0  0  0  2  0  0  0  0  0  0
  187.9720  177.7100  147.2870 O   0  0  0  0  0  0  0  0  0  0  0  0
  188.5240  178.2580  148.4450 C   0  0  0  0  0  1  0  0  0  0  0  0
  185.5590  174.4650  134.8590 C   0  0  0  0  0  2  0  0  0  0  0  0
  186.2230  173.1270  135.1370 C   0  0  0  0  0  2  0  0  0  0  0  0
  185.4340  172.3560  136.1790 C   0  0  0  0  0  2  0  0  0  0  0  0
  183.7570  170.5380  136.0870 C   0  0  2  0  0  3  0  0  0  0  0  0
  185.1030  171.0260  135.6730 N   0  0  0  0  0  0  0  0  0  0  0  0
  183.9320  171.1960  134.7990 C   0  0  0  0  0  2  0  0  0  0  0  0
  181.5600  171.5950  136.5860 C   0  0  0  0  0  1  0  0  0  0  0  0
  182.9950  171.4530  137.0480 C   0  0  0  0  0  2  0  0  0  0  0  0
  1  3  1  0  0  0  0
  2 13  1  0  0  0  0
  3 18  1  0  0  0  0
  4  7  1  0  0  0  0
  5  4  2  0  0  0  0
  5  8  1  0  0  0  0
  6  9  1  0  0  0  0
  7 15  2  0  0  0  0
  8 20  2  0  0  0  0
  9 18  2  0  0  0  0
  9 17  1  0  0  0  0
 10 11  2  0  0  0  0
 11 23  1  0  0  0  0
 12 19  2  0  0  0  0
 12 14  1  0  0  0  0
 13  1  1  0  0  0  0
 13  6  2  0  0  0  0
 14  3  2  0  0  0  0
 14  8  1  0  0  0  0
 15 20  1  0  0  0  0
 16 21  1  0  0  0  0
 16 12  1  0  0  0  0
 18 10  1  0  0  0  0
 20 11  1  0  0  0  0
 21 34  1  6  0  0  0
 21  5  1  0  0  0  0
 22 29  1  0  0  0  0
 23 24  2  0  0  0  0
 23 22  1  0  0  0  0
 25 28  1  0  0  0  0
 26 28  2  0  0  0  0
 27 26  1  0  0  0  0
 28 31  1  0  0  0  0
 29 30  1  0  0  0  0
 29 27  2  0  0  0  0
 30 25  2  0  0  0  0
 31 32  1  0  0  0  0
 32 33  1  0  0  0  0
 34 35  1  0  0  0  0
 35 36  1  0  0  0  0
 37 41  1  1  0  0  0
 38 37  1  0  0  0  0
 38 36  1  0  0  0  0
 39 38  1  0  0  0  0
 39 37  1  0  0  0  0
 40 41  1  0  0  0  0
M  END
>  <MODEL>
1

>  <REMARK>
 VINA RESULT:      -7.6      0.000      0.000
  Name = 
  9 active torsions:
  status: ('A' for Active; 'I' for Inactive)
    1  A    between atoms: C_5  and  C_23
    2  A    between atoms: C_5  and  C_37
    3  A    between atoms: N_7  and  C_30
    4  A    between atoms: C_11  and  C_38
    5  A    between atoms: C_17  and  C_34
    6  A    between atoms: O_18  and  C_39
    7  A    between atoms: N_21  and  C_23
    8  A    between atoms: C_28  and  C_39
    9  A    between atoms: C_37  and  C_40
                            x       y       z     vdW  Elec       q    Type
                         _______ _______ _______ _____ _____    ______ ____

>  <TORSDO>
F 9

$$$$
=
 OpenBabel10222416523D

 41 46  0  0  1  0  0  0  0  0999 V2000
  180.9880  177.6060  136.7410 O   0  0  0  0  0  0  0  0  0  0  0  0
  178.9920  178.4460  135.6140 N   0  0  0  0  0  1  0  0  0  0  0  0
  182.2020  177.7970  137.4240 C   0  0  0  0  0  0  0  0  0  0  0  0
  186.8570  176.4180  136.8160 C   0  0  0  0  0  3  0  0  0  0  0  0
  185.4790  176.1680  136.7990 C   0  0  0  0  0  0  0  0  0  0  0  0
  180.3890  179.8880  136.8980 C   0  0  0  0  0  3  0  0  0  0  0  0
  187.3880  177.4480  137.5740 C   0  0  0  0  0  3  0  0  0  0  0  0
  184.5950  176.9940  137.5660 C   0  0  0  0  0  0  0  0  0  0  0  0
  181.5410  180.1170  137.7850 C   0  0  0  0  0  0  0  0  0  0  0  0
  183.2430  179.2600  139.2610 C   0  0  0  0  0  3  0  0  0  0  0  0
  184.4210  178.6920  139.4880 C   0  0  0  0  0  0  0  0  0  0  0  0
  182.7070  175.5270  136.7620 C   0  0  0  0  0  0  0  0  0  0  0  0
  180.1340  178.6690  136.4330 C   0  0  0  0  0  0  0  0  0  0  0  0
  183.1160  176.7970  137.3910 C   0  0  0  0  0  0  0  0  0  0  0  0
  186.5520  178.1980  138.3860 C   0  0  0  0  0  3  0  0  0  0  0  0
  183.5390  174.9790  135.6650 C   0  0  0  0  0  2  0  0  0  0  0  0
  181.6590  181.7010  138.5470 Cl  0  0  0  0  0  0  0  0  0  0  0  0
  182.4060  179.1200  138.0710 C   0  0  0  0  0  0  0  0  0  0  0  0
  181.6430  174.9410  137.1000 O   0  0  0  0  0  0  0  0  0  0  0  0
  185.1700  177.9630  138.4370 C   0  0  0  0  0  0  0  0  0  0  0  0
  184.9900  174.9020  136.1040 C   0  0  1  0  0  3  0  0  0  0  0  0
  184.6160  178.1000  141.9380 N   0  0  0  0  0  2  0  0  0  0  0  0
  185.0310  178.9070  140.8250 C   0  0  0  0  0  0  0  0  0  0  0  0
  185.8840  179.8240  140.9880 O   0  0  0  0  0  0  0  0  0  0  0  0
  186.8670  177.6310  144.9080 C   0  0  0  0  0  3  0  0  0  0  0  0
  184.8450  178.7690  145.5970 C   0  0  0  0  0  3  0  0  0  0  0  0
  184.3710  178.7230  144.2820 C   0  0  0  0  0  3  0  0  0  0  0  0
  186.0970  178.2300  145.9090 C   0  0  0  0  0  0  0  0  0  0  0  0
  185.1410  178.1350  143.2720 C   0  0  0  0  0  0  0  0  0  0  0  0
  186.3920  177.5870  143.5940 C   0  0  0  0  0  3  0  0  0  0  0  0
  186.5920  178.2570  147.3120 C   0  0  0  0  0  2  0  0  0  0  0  0
  187.7770  177.5280  147.4080 O   0  0  0  0  0  0  0  0  0  0  0  0
  188.5330  178.2140  148.3580 C   0  0  0  0  0  1  0  0  0  0  0  0
  185.8320  174.5050  134.8970 C   0  0  0  0  0  2  0  0  0  0  0  0
  186.5980  173.2280  135.1960 C   0  0  0  0  0  2  0  0  0  0  0  0
  188.0540  173.3820  134.7950 C   0  0  0  0  0  2  0  0  0  0  0  0
  189.9450  173.3700  136.3920 C   0  0  2  0  0  3  0  0  0  0  0  0
  188.9040  172.5820  135.6740 N   0  0  0  0  0  0  0  0  0  0  0  0
  188.6720  173.0800  137.0380 C   0  0  0  0  0  2  0  0  0  0  0  0
  191.0820  175.5350  136.8540 C   0  0  0  0  0  1  0  0  0  0  0  0
  190.0200  174.8510  136.0170 C   0  0  0  0  0  2  0  0  0  0  0  0
  1  3  1  0  0  0  0
  2 13  1  0  0  0  0
  3 18  1  0  0  0  0
  4  7  1  0  0  0  0
  5  4  2  0  0  0  0
  5  8  1  0  0  0  0
  6  9  1  0  0  0  0
  7 15  2  0  0  0  0
  8 20  2  0  0  0  0
  9 18  2  0  0  0  0
  9 17  1  0  0  0  0
 10 11  2  0  0  0  0
 11 23  1  0  0  0  0
 12 19  2  0  0  0  0
 12 14  1  0  0  0  0
 13  1  1  0  0  0  0
 13  6  2  0  0  0  0
 14  3  2  0  0  0  0
 14  8  1  0  0  0  0
 15 20  1  0  0  0  0
 16 21  1  0  0  0  0
 16 12  1  0  0  0  0
 18 10  1  0  0  0  0
 20 11  1  0  0  0  0
 21 34  1  6  0  0  0
 21  5  1  0  0  0  0
 22 29  1  0  0  0  0
 23 24  2  0  0  0  0
 23 22  1  0  0  0  0
 25 28  1  0  0  0  0
 26 28  2  0  0  0  0
 27 26  1  0  0  0  0
 28 31  1  0  0  0  0
 29 30  1  0  0  0  0
 29 27  2  0  0  0  0
 30 25  2  0  0  0  0
 31 32  1  0  0  0  0
 32 33  1  0  0  0  0
 34 35  1  0  0  0  0
 36 35  1  0  0  0  0
 36 38  1  0  0  0  0
 37 41  1  6  0  0  0
 37 39  1  0  0  0  0
 38 37  1  0  0  0  0
 38 39  1  0  0  0  0
 41 40  1  0  0  0  0
M  END
>  <MODEL>
2

>  <REMARK>
 VINA RESULT:      -7.2      1.394      2.584
  Name = 
  9 active torsions:
  status: ('A' for Active; 'I' for Inactive)
    1  A    between atoms: C_5  and  C_23
    2  A    between atoms: C_5  and  C_37
    3  A    between atoms: N_7  and  C_30
    4  A    between atoms: C_11  and  C_38
    5  A    between atoms: C_17  and  C_34
    6  A    between atoms: O_18  and  C_39
    7  A    between atoms: N_21  and  C_23
    8  A    between atoms: C_28  and  C_39
    9  A    between atoms: C_37  and  C_40
                            x       y       z     vdW  Elec       q    Type
                         _______ _______ _______ _____ _____    ______ ____

>  <TORSDO>
F 9

$$$$
=
 OpenBabel10222416523D

 41 46  0  0  1  0  0  0  0  0999 V2000
  182.5420  178.0910  140.6330 O   0  0  0  0  0  0  0  0  0  0  0  0
  180.2920  178.9730  140.9750 N   0  0  0  0  0  1  0  0  0  0  0  0
  183.9120  178.0270  140.9450 C   0  0  0  0  0  0  0  0  0  0  0  0
  188.1210  178.6400  138.5270 C   0  0  0  0  0  3  0  0  0  0  0  0
  186.8110  178.1560  138.6290 C   0  0  0  0  0  0  0  0  0  0  0  0
  182.0290  179.3660  142.5570 C   0  0  0  0  0  3  0  0  0  0  0  0
  188.8710  178.9210  139.6580 C   0  0  0  0  0  3  0  0  0  0  0  0
  186.2220  177.9590  139.9200 C   0  0  0  0  0  0  0  0  0  0  0  0
  183.4060  179.1690  143.0390 C   0  0  0  0  0  0  0  0  0  0  0  0
  185.4910  177.9610  142.9700 C   0  0  0  0  0  3  0  0  0  0  0  0
  186.6780  177.7010  142.4360 C   0  0  0  0  0  0  0  0  0  0  0  0
  184.1730  177.0940  138.7300 C   0  0  0  0  0  0  0  0  0  0  0  0
  181.6360  178.8170  141.4120 C   0  0  0  0  0  0  0  0  0  0  0  0
  184.7650  177.5990  139.9830 C   0  0  0  0  0  0  0  0  0  0  0  0
  188.3410  178.6530  140.9110 C   0  0  0  0  0  3  0  0  0  0  0  0
  184.6070  177.6970  137.4470 C   0  0  0  0  0  2  0  0  0  0  0  0
  183.7660  179.7210  144.6730 Cl  0  0  0  0  0  0  0  0  0  0  0  0
  184.3150  178.5060  142.2930 C   0  0  0  0  0  0  0  0  0  0  0  0
  183.2730  176.2110  138.7380 O   0  0  0  0  0  0  0  0  0  0  0  0
  187.0480  178.1310  141.0670 C   0  0  0  0  0  0  0  0  0  0  0  0
  186.1220  177.6820  137.3530 C   0  0  1  0  0  3  0  0  0  0  0  0
  188.4190  177.8340  144.2640 N   0  0  0  0  0  2  0  0  0  0  0  0
  187.6860  177.0490  143.3110 C   0  0  0  0  0  0  0  0  0  0  0  0
  187.9220  175.8140  143.1880 O   0  0  0  0  0  0  0  0  0  0  0  0
  190.0250  176.7500  147.4830 C   0  0  0  0  0  3  0  0  0  0  0  0
  191.6320  176.5840  145.6810 C   0  0  0  0  0  3  0  0  0  0  0  0
  190.6680  177.0440  144.7780 C   0  0  0  0  0  3  0  0  0  0  0  0
  191.3090  176.4290  147.0320 C   0  0  0  0  0  0  0  0  0  0  0  0
  189.3770  177.3560  145.2190 C   0  0  0  0  0  0  0  0  0  0  0  0
  189.0620  177.2090  146.5790 C   0  0  0  0  0  3  0  0  0  0  0  0
  192.3410  175.9630  147.9970 C   0  0  0  0  0  2  0  0  0  0  0  0
  192.7630  177.0310  148.7880 O   0  0  0  0  0  0  0  0  0  0  0  0
  193.6200  176.4550  149.7260 C   0  0  0  0  0  1  0  0  0  0  0  0
  186.5310  178.4660  136.1130 C   0  0  0  0  0  2  0  0  0  0  0  0
  187.1190  177.5250  135.0740 C   0  0  0  0  0  2  0  0  0  0  0  0
  188.5880  177.2760  135.3630 C   0  0  0  0  0  2  0  0  0  0  0  0
  189.9980  175.3740  136.0850 C   0  0  2  0  0  3  0  0  0  0  0  0
  188.8950  175.8560  135.2060 N   0  0  0  0  0  0  0  0  0  0  0  0
  188.6100  175.2250  136.5030 C   0  0  0  0  0  2  0  0  0  0  0  0
  190.7260  176.0230  138.3740 C   0  0  0  0  0  1  0  0  0  0  0  0
  190.6890  176.4520  136.9210 C   0  0  0  0  0  2  0  0  0  0  0  0
  1  3  1  0  0  0  0
  1 13  1  0  0  0  0
  2 13  1  0  0  0  0
  3 18  1  0  0  0  0
  4  5  2  0  0  0  0
  4  7  1  0  0  0  0
  5  8  1  0  0  0  0
  6  9  1  0  0  0  0
  7 15  2  0  0  0  0
  8 14  1  0  0  0  0
  8 20  2  0  0  0  0
  9 17  1  0  0  0  0
 11 10  2  0  0  0  0
 11 23  1  0  0  0  0
 12 19  2  0  0  0  0
 12 14  1  0  0  0  0
 13  6  2  0  0  0  0
 14  3  2  0  0  0  0
 15 20  1  0  0  0  0
 16 12  1  0  0  0  0
 18 10  1  0  0  0  0
 18  9  2  0  0  0  0
 20 11  1  0  0  0  0
 21 34  1  6  0  0  0
 21 16  1  0  0  0  0
 21  5  1  0  0  0  0
 22 29  1  0  0  0  0
 23 22  1  0  0  0  0
 24 23  2  0  0  0  0
 26 28  2  0  0  0  0
 27 29  2  0  0  0  0
 27 26  1  0  0  0  0
 28 25  1  0  0  0  0
 28 31  1  0  0  0  0
 29 30  1  0  0  0  0
 30 25  2  0  0  0  0
 31 32  1  0  0  0  0
 32 33  1  0  0  0  0
 35 36  1  0  0  0  0
 35 34  1  0  0  0  0
 37 39  1  0  0  0  0
 37 41  1  1  0  0  0
 38 36  1  0  0  0  0
 38 37  1  0  0  0  0
 38 39  1  0  0  0  0
 41 40  1  0  0  0  0
M  END
>  <MODEL>
3

>  <REMARK>
 VINA RESULT:      -6.9      3.690      5.205
  Name = 
  9 active torsions:
  status: ('A' for Active; 'I' for Inactive)
    1  A    between atoms: C_5  and  C_23
    2  A    between atoms: C_5  and  C_37
    3  A    between atoms: N_7  and  C_30
    4  A    between atoms: C_11  and  C_38
    5  A    between atoms: C_17  and  C_34
    6  A    between atoms: O_18  and  C_39
    7  A    between atoms: N_21  and  C_23
    8  A    between atoms: C_28  and  C_39
    9  A    between atoms: C_37  and  C_40
                            x       y       z     vdW  Elec       q    Type
                         _______ _______ _______ _____ _____    ______ ____

>  <TORSDO>
F 9

$$$$
=
 OpenBabel10222416523D

 41 46  0  0  1  0  0  0  0  0999 V2000
  182.9180  176.8890  136.6350 O   0  0  0  0  0  0  0  0  0  0  0  0
  180.7760  177.2570  135.5230 N   0  0  0  0  0  1  0  0  0  0  0  0
  183.9950  177.3210  137.4300 C   0  0  0  0  0  0  0  0  0  0  0  0
  188.8550  177.6110  136.9430 C   0  0  0  0  0  3  0  0  0  0  0  0
  187.6320  176.9490  136.7810 C   0  0  0  0  0  0  0  0  0  0  0  0
  181.6130  178.7970  137.1380 C   0  0  0  0  0  3  0  0  0  0  0  0
  189.0150  178.5950  137.9060 C   0  0  0  0  0  3  0  0  0  0  0  0
  186.5170  177.2970  137.6110 C   0  0  0  0  0  0  0  0  0  0  0  0
  182.6170  179.2050  138.1350 C   0  0  0  0  0  0  0  0  0  0  0  0
  184.4810  178.6640  139.5650 C   0  0  0  0  0  3  0  0  0  0  0  0
  185.7750  178.4630  139.7780 C   0  0  0  0  0  0  0  0  0  0  0  0
  185.2150  175.4900  136.4260 C   0  0  0  0  0  0  0  0  0  0  0  0
  181.7720  177.6690  136.4520 C   0  0  0  0  0  0  0  0  0  0  0  0
  185.1830  176.6830  137.2930 C   0  0  0  0  0  0  0  0  0  0  0  0
  187.9690  178.8780  138.7710 C   0  0  0  0  0  3  0  0  0  0  0  0
  186.1960  175.4470  135.3170 C   0  0  0  0  0  2  0  0  0  0  0  0
  182.2060  180.5740  139.1660 Cl  0  0  0  0  0  0  0  0  0  0  0  0
  183.7510  178.4950  138.3090 C   0  0  0  0  0  0  0  0  0  0  0  0
  184.3910  174.5470  136.5770 O   0  0  0  0  0  0  0  0  0  0  0  0
  186.7350  178.2160  138.6760 C   0  0  0  0  0  0  0  0  0  0  0  0
  187.5880  175.7480  135.8430 C   0  0  1  0  0  3  0  0  0  0  0  0
  187.0140  177.5410  141.7790 N   0  0  0  0  0  2  0  0  0  0  0  0
  186.2620  178.6040  141.1740 C   0  0  0  0  0  0  0  0  0  0  0  0
  185.9800  179.6410  141.8370 O   0  0  0  0  0  0  0  0  0  0  0  0
  189.5290  177.6830  144.5660 C   0  0  0  0  0  3  0  0  0  0  0  0
  187.3180  177.3370  145.4880 C   0  0  0  0  0  3  0  0  0  0  0  0
  186.7770  177.3540  144.1980 C   0  0  0  0  0  3  0  0  0  0  0  0
  188.6930  177.5090  145.6730 C   0  0  0  0  0  0  0  0  0  0  0  0
  187.6060  177.5380  143.0860 C   0  0  0  0  0  0  0  0  0  0  0  0
  188.9870  177.7000  143.2770 C   0  0  0  0  0  3  0  0  0  0  0  0
  189.2720  177.4670  147.0430 C   0  0  0  0  0  2  0  0  0  0  0  0
  188.2540  177.2930  147.9800 O   0  0  0  0  0  0  0  0  0  0  0  0
  188.4110  178.3560  148.8690 C   0  0  0  0  0  1  0  0  0  0  0  0
  188.5310  175.8690  134.6530 C   0  0  0  0  0  2  0  0  0  0  0  0
  189.4580  174.6660  134.5990 C   0  0  0  0  0  2  0  0  0  0  0  0
  190.9040  175.1110  134.7180 C   0  0  0  0  0  2  0  0  0  0  0  0
  192.3470  174.6230  136.6690 C   0  0  2  0  0  3  0  0  0  0  0  0
  191.6800  174.1050  135.4410 N   0  0  0  0  0  0  0  0  0  0  0  0
  191.0490  173.9680  136.7620 C   0  0  0  0  0  2  0  0  0  0  0  0
  191.9880  176.3840  138.3890 C   0  0  0  0  0  1  0  0  0  0  0  0
  192.2000  176.1260  136.9110 C   0  0  0  0  0  2  0  0  0  0  0  0
  1  3  1  0  0  0  0
  2 13  1  0  0  0  0
  3 18  1  0  0  0  0
  4  7  1  0  0  0  0
  5  4  2  0  0  0  0
  5  8  1  0  0  0  0
  6  9  1  0  0  0  0
  7 15  2  0  0  0  0
  8 20  2  0  0  0  0
  9 18  2  0  0  0  0
  9 17  1  0  0  0  0
 10 11  2  0  0  0  0
 11 23  1  0  0  0  0
 12 19  2  0  0  0  0
 12 14  1  0  0  0  0
 13  1  1  0  0  0  0
 13  6  2  0  0  0  0
 14  3  2  0  0  0  0
 14  8  1  0  0  0  0
 16 21  1  0  0  0  0
 16 12  1  0  0  0  0
 18 10  1  0  0  0  0
 20 15  1  0  0  0  0
 20 11  1  0  0  0  0
 21 34  1  6  0  0  0
 21  5  1  0  0  0  0
 22 29  1  0  0  0  0
 23 22  1  0  0  0  0
 23 24  2  0  0  0  0
 25 28  1  0  0  0  0
 26 28  2  0  0  0  0
 27 26  1  0  0  0  0
 28 31  1  0  0  0  0
 29 30  1  0  0  0  0
 29 27  2  0  0  0  0
 30 25  2  0  0  0  0
 31 32  1  0  0  0  0
 32 33  1  0  0  0  0
 35 34  1  0  0  0  0
 35 36  1  0  0  0  0
 36 38  1  0  0  0  0
 37 39  1  0  0  0  0
 37 41  1  6  0  0  0
 38 37  1  0  0  0  0
 38 39  1  0  0  0  0
 41 40  1  0  0  0  0
M  END
>  <MODEL>
4

>  <REMARK>
 VINA RESULT:      -6.7      2.625      4.040
  Name = 
  9 active torsions:
  status: ('A' for Active; 'I' for Inactive)
    1  A    between atoms: C_5  and  C_23
    2  A    between atoms: C_5  and  C_37
    3  A    between atoms: N_7  and  C_30
    4  A    between atoms: C_11  and  C_38
    5  A    between atoms: C_17  and  C_34
    6  A    between atoms: O_18  and  C_39
    7  A    between atoms: N_21  and  C_23
    8  A    between atoms: C_28  and  C_39
    9  A    between atoms: C_37  and  C_40
                            x       y       z     vdW  Elec       q    Type
                         _______ _______ _______ _____ _____    ______ ____

>  <TORSDO>
F 9

$$$$
=
 OpenBabel10222416523D

 41 46  0  0  1  0  0  0  0  0999 V2000
  188.5130  178.3610  140.2740 O   0  0  0  0  0  0  0  0  0  0  0  0
  190.0340  177.7940  142.0970 N   0  0  0  0  0  1  0  0  0  0  0  0
  187.2270  178.4470  139.7110 C   0  0  0  0  0  0  0  0  0  0  0  0
  185.0090  176.7680  135.6860 C   0  0  0  0  0  3  0  0  0  0  0  0
  186.1030  177.3350  136.3530 C   0  0  0  0  0  0  0  0  0  0  0  0
  187.6770  177.8810  142.4340 C   0  0  0  0  0  3  0  0  0  0  0  0
  183.7280  176.8590  136.2070 C   0  0  0  0  0  3  0  0  0  0  0  0
  185.9060  178.0100  137.6010 C   0  0  0  0  0  0  0  0  0  0  0  0
  186.3130  178.1520  141.9520 C   0  0  0  0  0  0  0  0  0  0  0  0
  184.8280  179.1290  140.3240 C   0  0  0  0  0  3  0  0  0  0  0  0
  184.1870  179.1120  139.1620 C   0  0  0  0  0  0  0  0  0  0  0  0
  188.3770  178.5210  137.5850 C   0  0  0  0  0  0  0  0  0  0  0  0
  188.7150  178.0130  141.6130 C   0  0  0  0  0  0  0  0  0  0  0  0
  187.1230  178.4560  138.3600 C   0  0  0  0  0  0  0  0  0  0  0  0
  183.5150  177.5840  137.3690 C   0  0  0  0  0  3  0  0  0  0  0  0
  188.6320  177.4800  136.5630 C   0  0  0  0  0  2  0  0  0  0  0  0
  185.0330  178.1910  143.1630 Cl  0  0  0  0  0  0  0  0  0  0  0  0
  186.0810  178.4520  140.6570 C   0  0  0  0  0  0  0  0  0  0  0  0
  189.2470  179.4030  137.8180 O   0  0  0  0  0  0  0  0  0  0  0  0
  184.5710  178.2040  138.0540 C   0  0  0  0  0  0  0  0  0  0  0  0
  187.4430  177.3690  135.6260 C   0  0  1  0  0  3  0  0  0  0  0  0
  183.1010  181.3040  138.5260 N   0  0  0  0  0  2  0  0  0  0  0  0
  182.9800  179.9690  139.0410 C   0  0  0  0  0  0  0  0  0  0  0  0
  181.8590  179.5340  139.4260 O   0  0  0  0  0  0  0  0  0  0  0  0
  179.6780  182.8220  138.2230 C   0  0  0  0  0  3  0  0  0  0  0  0
  181.3470  184.4580  137.5940 C   0  0  0  0  0  3  0  0  0  0  0  0
  182.3580  183.5240  137.8450 C   0  0  0  0  0  3  0  0  0  0  0  0
  180.0080  184.1100  137.7900 C   0  0  0  0  0  0  0  0  0  0  0  0
  182.0360  182.2360  138.2890 C   0  0  0  0  0  0  0  0  0  0  0  0
  180.6890  181.8890  138.4740 C   0  0  0  0  0  3  0  0  0  0  0  0
  178.9310  185.0950  137.5000 C   0  0  0  0  0  2  0  0  0  0  0  0
  179.3000  186.3510  137.9800 O   0  0  0  0  0  0  0  0  0  0  0  0
  179.1510  186.2550  139.3640 C   0  0  0  0  0  1  0  0  0  0  0  0
  187.6690  176.1740  134.7080 C   0  0  0  0  0  2  0  0  0  0  0  0
  188.7560  175.2790  135.2780 C   0  0  0  0  0  2  0  0  0  0  0  0
  188.1950  173.9020  135.5830 C   0  0  0  0  0  2  0  0  0  0  0  0
  186.4690  173.3320  137.2640 C   0  0  2  0  0  3  0  0  0  0  0  0
  187.8590  173.8000  137.0020 N   0  0  0  0  0  0  0  0  0  0  0  0
  187.5720  172.3800  137.2580 C   0  0  0  0  0  2  0  0  0  0  0  0
  184.1350  173.1600  136.4180 C   0  0  0  0  0  1  0  0  0  0  0  0
  185.5970  173.1390  136.0220 C   0  0  0  0  0  2  0  0  0  0  0  0
  1 13  1  0  0  0  0
  3  1  1  0  0  0  0
  3 18  1  0  0  0  0
  4  7  2  0  0  0  0
  4  5  1  0  0  0  0
  5  8  2  0  0  0  0
  7 15  1  0  0  0  0
  8 20  1  0  0  0  0
  8 14  1  0  0  0  0
  9  6  1  0  0  0  0
  9 17  1  0  0  0  0
 10 18  1  0  0  0  0
 11 10  2  0  0  0  0
 12 19  2  0  0  0  0
 12 14  1  0  0  0  0
 13  2  1  0  0  0  0
 13  6  2  0  0  0  0
 14  3  2  0  0  0  0
 15 20  2  0  0  0  0
 16 12  1  0  0  0  0
 18  9  2  0  0  0  0
 20 11  1  0  0  0  0
 21 34  1  1  0  0  0
 21  5  1  0  0  0  0
 21 16  1  0  0  0  0
 22 23  1  0  0  0  0
 23 11  1  0  0  0  0
 23 24  2  0  0  0  0
 25 30  1  0  0  0  0
 26 28  1  0  0  0  0
 26 27  2  0  0  0  0
 27 29  1  0  0  0  0
 28 25  2  0  0  0  0
 29 30  2  0  0  0  0
 29 22  1  0  0  0  0
 31 28  1  0  0  0  0
 31 32  1  0  0  0  0
 32 33  1  0  0  0  0
 34 35  1  0  0  0  0
 35 36  1  0  0  0  0
 36 38  1  0  0  0  0
 37 41  1  6  0  0  0
 38 39  1  0  0  0  0
 38 37  1  0  0  0  0
 39 37  1  0  0  0  0
 41 40  1  0  0  0  0
M  END
>  <MODEL>
5

>  <REMARK>
 VINA RESULT:      -6.4      3.242      7.310
  Name = 
  9 active torsions:
  status: ('A' for Active; 'I' for Inactive)
    1  A    between atoms: C_5  and  C_23
    2  A    between atoms: C_5  and  C_37
    3  A    between atoms: N_7  and  C_30
    4  A    between atoms: C_11  and  C_38
    5  A    between atoms: C_17  and  C_34
    6  A    between atoms: O_18  and  C_39
    7  A    between atoms: N_21  and  C_23
    8  A    between atoms: C_28  and  C_39
    9  A    between atoms: C_37  and  C_40
                            x       y       z     vdW  Elec       q    Type
                         _______ _______ _______ _____ _____    ______ ____

>  <TORSDO>
F 9

$$$$
=
 OpenBabel10222416523D

 41 46  0  0  1  0  0  0  0  0999 V2000
  183.2990  179.3660  142.5170 O   0  0  0  0  0  0  0  0  0  0  0  0
  180.8850  179.5120  142.1850 N   0  0  0  0  0  1  0  0  0  0  0  0
  184.5640  178.8290  142.2180 C   0  0  0  0  0  0  0  0  0  0  0  0
  188.1300  176.5830  144.7040 C   0  0  0  0  0  3  0  0  0  0  0  0
  187.1490  177.5740  144.5680 C   0  0  0  0  0  0  0  0  0  0  0  0
  182.2800  178.3530  140.6380 C   0  0  0  0  0  3  0  0  0  0  0  0
  188.6810  175.9640  143.5930 C   0  0  0  0  0  3  0  0  0  0  0  0
  186.6910  177.9500  143.2640 C   0  0  0  0  0  0  0  0  0  0  0  0
  183.6070  177.9270  140.1640 C   0  0  0  0  0  0  0  0  0  0  0  0
  186.0080  178.1360  140.2090 C   0  0  0  0  0  3  0  0  0  0  0  0
  187.1960  177.8870  140.7450 C   0  0  0  0  0  0  0  0  0  0  0  0
  185.2120  179.6510  144.3970 C   0  0  0  0  0  0  0  0  0  0  0  0
  182.1650  179.0630  141.7570 C   0  0  0  0  0  0  0  0  0  0  0  0
  185.5250  178.8920  143.1720 C   0  0  0  0  0  0  0  0  0  0  0  0
  188.3070  176.3810  142.3250 C   0  0  0  0  0  3  0  0  0  0  0  0
  185.3580  178.9730  145.7070 C   0  0  0  0  0  2  0  0  0  0  0  0
  183.6860  177.2090  138.5570 Cl  0  0  0  0  0  0  0  0  0  0  0  0
  184.7160  178.1700  140.8940 C   0  0  0  0  0  0  0  0  0  0  0  0
  184.7730  180.8320  144.3440 O   0  0  0  0  0  0  0  0  0  0  0  0
  187.3570  177.3960  142.1350 C   0  0  0  0  0  0  0  0  0  0  0  0
  186.7360  178.3460  145.8170 C   0  0  1  0  0  3  0  0  0  0  0  0
  189.2030  176.8660  139.5950 N   0  0  0  0  0  2  0  0  0  0  0  0
  188.3790  178.0130  139.8560 C   0  0  0  0  0  0  0  0  0  0  0  0
  188.6800  179.1370  139.3630 O   0  0  0  0  0  0  0  0  0  0  0  0
  191.3280  176.6250  136.5080 C   0  0  0  0  0  3  0  0  0  0  0  0
  192.7510  176.7520  138.4610 C   0  0  0  0  0  3  0  0  0  0  0  0
  191.6200  176.8240  139.2810 C   0  0  0  0  0  3  0  0  0  0  0  0
  192.6060  176.6610  137.0740 C   0  0  0  0  0  0  0  0  0  0  0  0
  190.3380  176.8000  138.7210 C   0  0  0  0  0  0  0  0  0  0  0  0
  190.1980  176.6970  137.3280 C   0  0  0  0  0  3  0  0  0  0  0  0
  193.8080  176.5600  136.2030 C   0  0  0  0  0  2  0  0  0  0  0  0
  194.8100  175.8470  136.8630 O   0  0  0  0  0  0  0  0  0  0  0  0
  194.8900  174.6380  136.1730 C   0  0  0  0  0  1  0  0  0  0  0  0
  186.7810  177.5140  147.0920 C   0  0  0  0  0  2  0  0  0  0  0  0
  187.6850  178.1800  148.1150 C   0  0  0  0  0  2  0  0  0  0  0  0
  189.1070  178.2540  147.5900 C   0  0  0  0  0  2  0  0  0  0  0  0
  190.8050  176.7440  146.6080 C   0  0  2  0  0  3  0  0  0  0  0  0
  189.7190  176.9260  147.6120 N   0  0  0  0  0  0  0  0  0  0  0  0
  191.1300  177.1280  147.9760 C   0  0  0  0  0  2  0  0  0  0  0  0
  191.6800  177.4360  144.3840 C   0  0  0  0  0  1  0  0  0  0  0  0
  191.0280  177.9250  145.6610 C   0  0  0  0  0  2  0  0  0  0  0  0
  3  1  1  0  0  0  0
  3 14  2  0  0  0  0
  5  4  1  0  0  0  0
  5 21  1  0  0  0  0
  6 13  2  0  0  0  0
  7  4  2  0  0  0  0
  8  5  2  0  0  0  0
  9  6  1  0  0  0  0
  9 18  2  0  0  0  0
 10 11  2  0  0  0  0
 10 18  1  0  0  0  0
 11 20  1  0  0  0  0
 12 16  1  0  0  0  0
 13  2  1  0  0  0  0
 13  1  1  0  0  0  0
 14  8  1  0  0  0  0
 14 12  1  0  0  0  0
 15  7  1  0  0  0  0
 16 21  1  0  0  0  0
 17  9  1  0  0  0  0
 18  3  1  0  0  0  0
 19 12  2  0  0  0  0
 20 15  2  0  0  0  0
 20  8  1  0  0  0  0
 21 34  1  1  0  0  0
 22 23  1  0  0  0  0
 23 11  1  0  0  0  0
 24 23  2  0  0  0  0
 25 28  2  0  0  0  0
 25 30  1  0  0  0  0
 26 27  2  0  0  0  0
 28 26  1  0  0  0  0
 29 27  1  0  0  0  0
 29 22  1  0  0  0  0
 30 29  2  0  0  0  0
 31 32  1  0  0  0  0
 31 28  1  0  0  0  0
 33 32  1  0  0  0  0
 34 35  1  0  0  0  0
 36 38  1  0  0  0  0
 36 35  1  0  0  0  0
 37 41  1  6  0  0  0
 37 38  1  0  0  0  0
 37 39  1  0  0  0  0
 38 39  1  0  0  0  0
 40 41  1  0  0  0  0
M  END
>  <MODEL>
6

>  <REMARK>
 VINA RESULT:      -6.3      4.596      9.397
  Name = 
  9 active torsions:
  status: ('A' for Active; 'I' for Inactive)
    1  A    between atoms: C_5  and  C_23
    2  A    between atoms: C_5  and  C_37
    3  A    between atoms: N_7  and  C_30
    4  A    between atoms: C_11  and  C_38
    5  A    between atoms: C_17  and  C_34
    6  A    between atoms: O_18  and  C_39
    7  A    between atoms: N_21  and  C_23
    8  A    between atoms: C_28  and  C_39
    9  A    between atoms: C_37  and  C_40
                            x       y       z     vdW  Elec       q    Type
                         _______ _______ _______ _____ _____    ______ ____

>  <TORSDO>
F 9

$$$$
=
 OpenBabel10222416523D

 41 46  0  0  1  0  0  0  0  0999 V2000
  191.5010  176.7760  139.8610 O   0  0  0  0  0  0  0  0  0  0  0  0
  193.8980  177.2290  139.9740 N   0  0  0  0  0  1  0  0  0  0  0  0
  190.2990  176.6210  139.1480 C   0  0  0  0  0  0  0  0  0  0  0  0
  185.8400  178.6310  139.2540 C   0  0  0  0  0  3  0  0  0  0  0  0
  186.9770  178.1070  139.8810 C   0  0  0  0  0  0  0  0  0  0  0  0
  192.8170  176.7960  137.8950 C   0  0  0  0  0  3  0  0  0  0  0  0
  185.5270  178.2990  137.9460 C   0  0  0  0  0  3  0  0  0  0  0  0
  187.8440  177.2210  139.1610 C   0  0  0  0  0  0  0  0  0  0  0  0
  191.6250  176.4370  137.1090 C   0  0  0  0  0  0  0  0  0  0  0  0
  189.3850  175.5550  136.9970 C   0  0  0  0  0  3  0  0  0  0  0  0
  188.0690  175.6780  137.1180 C   0  0  0  0  0  0  0  0  0  0  0  0
  189.2160  177.0320  141.2700 C   0  0  0  0  0  0  0  0  0  0  0  0
  192.7330  176.9280  139.2160 C   0  0  0  0  0  0  0  0  0  0  0  0
  189.1350  176.8150  139.8130 C   0  0  0  0  0  0  0  0  0  0  0  0
  186.3100  177.3770  137.2700 C   0  0  0  0  0  3  0  0  0  0  0  0
  188.5900  178.2470  141.8410 C   0  0  0  0  0  2  0  0  0  0  0  0
  191.8790  176.0450  135.4110 Cl  0  0  0  0  0  0  0  0  0  0  0  0
  190.4150  176.3220  137.6970 C   0  0  0  0  0  0  0  0  0  0  0  0
  189.8520  176.2400  142.0170 O   0  0  0  0  0  0  0  0  0  0  0  0
  187.4380  176.7920  137.8660 C   0  0  0  0  0  0  0  0  0  0  0  0
  187.1490  178.3570  141.3750 C   0  0  1  0  0  3  0  0  0  0  0  0
  186.6960  173.5570  137.0480 N   0  0  0  0  0  2  0  0  0  0  0  0
  187.2260  174.7080  136.3740 C   0  0  0  0  0  0  0  0  0  0  0  0
  187.0110  174.8780  135.1410 O   0  0  0  0  0  0  0  0  0  0  0  0
  185.2810  170.8650  134.8430 C   0  0  0  0  0  3  0  0  0  0  0  0
  183.7040  171.3800  136.6050 C   0  0  0  0  0  3  0  0  0  0  0  0
  184.5870  172.3360  137.1170 C   0  0  0  0  0  3  0  0  0  0  0  0
  184.0530  170.6390  135.4730 C   0  0  0  0  0  0  0  0  0  0  0  0
  185.8220  172.5610  136.4990 C   0  0  0  0  0  0  0  0  0  0  0  0
  186.1630  171.8210  135.3560 C   0  0  0  0  0  3  0  0  0  0  0  0
  183.1050  169.6380  134.9140 C   0  0  0  0  0  2  0  0  0  0  0  0
  181.8400  169.8250  135.4720 O   0  0  0  0  0  0  0  0  0  0  0  0
  181.1970  170.7000  134.5970 C   0  0  0  0  0  1  0  0  0  0  0  0
  186.6000  179.7020  141.8350 C   0  0  0  0  0  2  0  0  0  0  0  0
  185.3950  179.4910  142.7360 C   0  0  0  0  0  2  0  0  0  0  0  0
  185.5210  178.1750  143.4810 C   0  0  0  0  0  2  0  0  0  0  0  0
  185.7740  177.9990  145.9370 C   0  0  2  0  0  3  0  0  0  0  0  0
  184.8690  178.2730  144.7850 N   0  0  0  0  0  0  0  0  0  0  0  0
  185.5400  179.3690  145.5010 C   0  0  0  0  0  2  0  0  0  0  0  0
  188.1290  177.8420  146.7240 C   0  0  0  0  0  1  0  0  0  0  0  0
  187.1920  177.5610  145.5670 C   0  0  0  0  0  2  0  0  0  0  0  0
  3 14  2  0  0  0  0
  3  1  1  0  0  0  0
  4  5  1  0  0  0  0
  5 21  1  0  0  0  0
  6 13  2  0  0  0  0
  7  4  2  0  0  0  0
  8 14  1  0  0  0  0
  8  5  2  0  0  0  0
  9 18  2  0  0  0  0
  9  6  1  0  0  0  0
 10 11  2  0  0  0  0
 10 18  1  0  0  0  0
 11 20  1  0  0  0  0
 12 16  1  0  0  0  0
 12 19  2  0  0  0  0
 13  1  1  0  0  0  0
 13  2  1  0  0  0  0
 14 12  1  0  0  0  0
 15 20  2  0  0  0  0
 15  7  1  0  0  0  0
 17  9  1  0  0  0  0
 18  3  1  0  0  0  0
 20  8  1  0  0  0  0
 21 34  1  6  0  0  0
 21 16  1  0  0  0  0
 23 22  1  0  0  0  0
 23 11  1  0  0  0  0
 24 23  2  0  0  0  0
 25 30  2  0  0  0  0
 25 28  1  0  0  0  0
 26 27  1  0  0  0  0
 28 26  2  0  0  0  0
 29 22  1  0  0  0  0
 29 27  2  0  0  0  0
 30 29  1  0  0  0  0
 31 32  1  0  0  0  0
 31 28  1  0  0  0  0
 33 32  1  0  0  0  0
 34 35  1  0  0  0  0
 35 36  1  0  0  0  0
 36 38  1  0  0  0  0
 37 41  1  6  0  0  0
 38 39  1  0  0  0  0
 38 37  1  0  0  0  0
 39 37  1  0  0  0  0
 41 40  1  0  0  0  0
M  END
>  <MODEL>
7

>  <REMARK>
 VINA RESULT:      -6.2      3.780     10.217
  Name = 
  9 active torsions:
  status: ('A' for Active; 'I' for Inactive)
    1  A    between atoms: C_5  and  C_23
    2  A    between atoms: C_5  and  C_37
    3  A    between atoms: N_7  and  C_30
    4  A    between atoms: C_11  and  C_38
    5  A    between atoms: C_17  and  C_34
    6  A    between atoms: O_18  and  C_39
    7  A    between atoms: N_21  and  C_23
    8  A    between atoms: C_28  and  C_39
    9  A    between atoms: C_37  and  C_40
                            x       y       z     vdW  Elec       q    Type
                         _______ _______ _______ _____ _____    ______ ____

>  <TORSDO>
F 9

$$$$
=
 OpenBabel10222416523D

 41 46  0  0  1  0  0  0  0  0999 V2000
  188.4120  178.3780  141.1970 O   0  0  0  0  0  0  0  0  0  0  0  0
  189.7820  177.9050  143.1620 N   0  0  0  0  0  1  0  0  0  0  0  0
  187.1780  178.4190  140.5240 C   0  0  0  0  0  0  0  0  0  0  0  0
  185.3440  176.5610  136.3860 C   0  0  0  0  0  3  0  0  0  0  0  0
  186.3660  177.1730  137.1230 C   0  0  0  0  0  0  0  0  0  0  0  0
  187.4040  177.9530  143.2930 C   0  0  0  0  0  3  0  0  0  0  0  0
  184.0220  176.6420  136.7930 C   0  0  0  0  0  3  0  0  0  0  0  0
  186.0510  177.8850  138.3250 C   0  0  0  0  0  0  0  0  0  0  0  0
  186.0810  178.1790  142.6880 C   0  0  0  0  0  0  0  0  0  0  0  0
  184.7230  179.0700  140.9070 C   0  0  0  0  0  3  0  0  0  0  0  0
  184.1850  179.0000  139.6960 C   0  0  0  0  0  0  0  0  0  0  0  0
  188.5040  178.4470  138.5020 C   0  0  0  0  0  0  0  0  0  0  0  0
  188.5050  178.0790  142.5600 C   0  0  0  0  0  0  0  0  0  0  0  0
  187.1900  178.3810  139.1690 C   0  0  0  0  0  0  0  0  0  0  0  0
  183.6970  177.4000  137.9070 C   0  0  0  0  0  3  0  0  0  0  0  0
  188.8650  177.3770  137.5420 C   0  0  0  0  0  2  0  0  0  0  0  0
  184.7020  178.2310  143.7840 Cl  0  0  0  0  0  0  0  0  0  0  0  0
  185.9550  178.4310  141.3680 C   0  0  0  0  0  0  0  0  0  0  0  0
  189.3350  179.3540  138.7780 O   0  0  0  0  0  0  0  0  0  0  0  0
  184.6790  178.0650  138.6570 C   0  0  0  0  0  0  0  0  0  0  0  0
  187.7630  177.2110  136.5120 C   0  0  1  0  0  3  0  0  0  0  0  0
  183.0960  181.0640  138.7230 N   0  0  0  0  0  2  0  0  0  0  0  0
  182.9770  179.8270  139.4430 C   0  0  0  0  0  0  0  0  0  0  0  0
  181.8570  179.4590  139.8930 O   0  0  0  0  0  0  0  0  0  0  0  0
  179.6840  182.4100  137.9160 C   0  0  0  0  0  3  0  0  0  0  0  0
  181.3340  184.1520  137.6060 C   0  0  0  0  0  3  0  0  0  0  0  0
  182.3440  183.2650  137.9910 C   0  0  0  0  0  3  0  0  0  0  0  0
  180.0030  183.7280  137.5760 C   0  0  0  0  0  0  0  0  0  0  0  0
  182.0310  181.9470  138.3430 C   0  0  0  0  0  0  0  0  0  0  0  0
  180.6940  181.5230  138.3010 C   0  0  0  0  0  3  0  0  0  0  0  0
  178.9310  184.6650  137.1440 C   0  0  0  0  0  2  0  0  0  0  0  0
  179.3520  185.9810  137.3300 O   0  0  0  0  0  0  0  0  0  0  0  0
  179.4150  186.1350  138.7150 C   0  0  0  0  0  1  0  0  0  0  0  0
  188.0890  175.9910  135.6580 C   0  0  0  0  0  2  0  0  0  0  0  0
  188.3300  174.7840  136.5480 C   0  0  0  0  0  2  0  0  0  0  0  0
  189.5710  174.0370  136.0950 C   0  0  0  0  0  2  0  0  0  0  0  0
  191.9150  173.7650  136.8430 C   0  0  2  0  0  3  0  0  0  0  0  0
  190.4750  173.8340  137.2240 N   0  0  0  0  0  0  0  0  0  0  0  0
  191.3350  175.0270  137.2850 C   0  0  0  0  0  2  0  0  0  0  0  0
  193.5370  174.4770  135.0960 C   0  0  0  0  0  1  0  0  0  0  0  0
  192.1980  173.8110  135.3410 C   0  0  0  0  0  2  0  0  0  0  0  0
  1 13  1  0  0  0  0
  3  1  1  0  0  0  0
  3 18  1  0  0  0  0
  4  7  2  0  0  0  0
  4  5  1  0  0  0  0
  5  8  2  0  0  0  0
  7 15  1  0  0  0  0
  8 20  1  0  0  0  0
  8 14  1  0  0  0  0
  9  6  1  0  0  0  0
  9 17  1  0  0  0  0
 10 18  1  0  0  0  0
 11 10  2  0  0  0  0
 12 19  2  0  0  0  0
 12 14  1  0  0  0  0
 13  2  1  0  0  0  0
 13  6  2  0  0  0  0
 14  3  2  0  0  0  0
 15 20  2  0  0  0  0
 16 12  1  0  0  0  0
 18  9  2  0  0  0  0
 20 11  1  0  0  0  0
 21 34  1  1  0  0  0
 21  5  1  0  0  0  0
 21 16  1  0  0  0  0
 22 23  1  0  0  0  0
 23 11  1  0  0  0  0
 23 24  2  0  0  0  0
 25 30  1  0  0  0  0
 26 27  2  0  0  0  0
 27 29  1  0  0  0  0
 28 26  1  0  0  0  0
 28 25  2  0  0  0  0
 29 22  1  0  0  0  0
 30 29  2  0  0  0  0
 31 32  1  0  0  0  0
 31 28  1  0  0  0  0
 32 33  1  0  0  0  0
 34 35  1  0  0  0  0
 36 35  1  0  0  0  0
 36 38  1  0  0  0  0
 37 41  1  6  0  0  0
 37 38  1  0  0  0  0
 37 39  1  0  0  0  0
 38 39  1  0  0  0  0
 40 41  1  0  0  0  0
M  END
>  <MODEL>
8

>  <REMARK>
 VINA RESULT:      -5.9      3.658      7.984
  Name = 
  9 active torsions:
  status: ('A' for Active; 'I' for Inactive)
    1  A    between atoms: C_5  and  C_23
    2  A    between atoms: C_5  and  C_37
    3  A    between atoms: N_7  and  C_30
    4  A    between atoms: C_11  and  C_38
    5  A    between atoms: C_17  and  C_34
    6  A    between atoms: O_18  and  C_39
    7  A    between atoms: N_21  and  C_23
    8  A    between atoms: C_28  and  C_39
    9  A    between atoms: C_37  and  C_40
                            x       y       z     vdW  Elec       q    Type
                         _______ _______ _______ _____ _____    ______ ____

>  <TORSDO>
F 9

$$$$
=
 OpenBabel10222416523D

 41 46  0  0  1  0  0  0  0  0999 V2000
  191.3760  177.3380  142.2420 O   0  0  0  0  0  0  0  0  0  0  0  0
  192.0560  176.9810  144.5590 N   0  0  0  0  0  1  0  0  0  0  0  0
  190.4390  177.2590  141.1960 C   0  0  0  0  0  0  0  0  0  0  0  0
  190.2880  175.2800  136.7240 C   0  0  0  0  0  3  0  0  0  0  0  0
  190.9380  175.9840  137.7460 C   0  0  0  0  0  0  0  0  0  0  0  0
  189.7770  176.7790  143.8920 C   0  0  0  0  0  3  0  0  0  0  0  0
  188.9050  175.2170  136.6670 C   0  0  0  0  0  3  0  0  0  0  0  0
  190.1690  176.6420  138.7600 C   0  0  0  0  0  0  0  0  0  0  0  0
  188.7150  176.8750  142.8770 C   0  0  0  0  0  0  0  0  0  0  0  0
  187.9430  177.6450  140.7280 C   0  0  0  0  0  3  0  0  0  0  0  0
  187.8490  177.5370  139.4080 C   0  0  0  0  0  0  0  0  0  0  0  0
  192.3510  177.4540  139.7300 C   0  0  0  0  0  0  0  0  0  0  0  0
  191.0410  177.0300  143.5640 C   0  0  0  0  0  0  0  0  0  0  0  0
  190.9050  177.2420  139.9240 C   0  0  0  0  0  0  0  0  0  0  0  0
  188.1510  175.9210  137.5930 C   0  0  0  0  0  3  0  0  0  0  0  0
  193.1200  176.4430  138.9670 C   0  0  0  0  0  2  0  0  0  0  0  0
  187.0520  176.7670  143.4510 Cl  0  0  0  0  0  0  0  0  0  0  0  0
  189.0100  177.1310  141.5850 C   0  0  0  0  0  0  0  0  0  0  0  0
  192.9450  178.4390  140.2460 O   0  0  0  0  0  0  0  0  0  0  0  0
  188.7530  176.6740  138.6120 C   0  0  0  0  0  0  0  0  0  0  0  0
  192.4470  176.1770  137.6330 C   0  0  1  0  0  3  0  0  0  0  0  0
  185.3730  178.0060  139.2050 N   0  0  0  0  0  2  0  0  0  0  0  0
  186.7160  178.2370  138.7510 C   0  0  0  0  0  0  0  0  0  0  0  0
  186.9330  179.0030  137.7700 O   0  0  0  0  0  0  0  0  0  0  0  0
  182.5980  180.4860  138.6980 C   0  0  0  0  0  3  0  0  0  0  0  0
  182.2170  178.5490  137.2980 C   0  0  0  0  0  3  0  0  0  0  0  0
  183.3930  177.9670  137.7830 C   0  0  0  0  0  3  0  0  0  0  0  0
  181.8230  179.8120  137.7490 C   0  0  0  0  0  0  0  0  0  0  0  0
  184.1790  178.6410  138.7250 C   0  0  0  0  0  0  0  0  0  0  0  0
  183.7730  179.9040  139.1820 C   0  0  0  0  0  3  0  0  0  0  0  0
  180.5600  180.4220  137.2510 C   0  0  0  0  0  2  0  0  0  0  0  0
  180.8070  181.7210  136.8070 O   0  0  0  0  0  0  0  0  0  0  0  0
  180.4480  181.7030  135.4590 C   0  0  0  0  0  1  0  0  0  0  0  0
  193.1610  175.0110  136.9620 C   0  0  0  0  0  2  0  0  0  0  0  0
  194.3220  175.5240  136.1260 C   0  0  0  0  0  2  0  0  0  0  0  0
  195.5500  174.6590  136.3450 C   0  0  0  0  0  2  0  0  0  0  0  0
  196.1630  173.6410  138.5170 C   0  0  2  0  0  3  0  0  0  0  0  0
  196.0830  174.8780  137.6880 N   0  0  0  0  0  0  0  0  0  0  0  0
  197.3280  174.0980  137.7700 C   0  0  0  0  0  2  0  0  0  0  0  0
  196.6970  171.3930  137.5930 C   0  0  0  0  0  1  0  0  0  0  0  0
  195.5820  172.3820  137.8720 C   0  0  0  0  0  2  0  0  0  0  0  0
  1 13  1  0  0  0  0
  3 18  1  0  0  0  0
  3  1  1  0  0  0  0
  4  5  1  0  0  0  0
  5  8  2  0  0  0  0
  7  4  2  0  0  0  0
  7 15  1  0  0  0  0
  8 14  1  0  0  0  0
  9 17  1  0  0  0  0
  9  6  1  0  0  0  0
 10 18  1  0  0  0  0
 11 10  2  0  0  0  0
 12 14  1  0  0  0  0
 12 19  2  0  0  0  0
 13  6  2  0  0  0  0
 13  2  1  0  0  0  0
 14  3  2  0  0  0  0
 15 20  2  0  0  0  0
 16 12  1  0  0  0  0
 18  9  2  0  0  0  0
 20  8  1  0  0  0  0
 20 11  1  0  0  0  0
 21 34  1  1  0  0  0
 21  5  1  0  0  0  0
 21 16  1  0  0  0  0
 23 22  1  0  0  0  0
 23 11  1  0  0  0  0
 24 23  2  0  0  0  0
 25 30  1  0  0  0  0
 26 28  1  0  0  0  0
 26 27  2  0  0  0  0
 27 29  1  0  0  0  0
 28 25  2  0  0  0  0
 29 30  2  0  0  0  0
 29 22  1  0  0  0  0
 31 28  1  0  0  0  0
 32 31  1  0  0  0  0
 33 32  1  0  0  0  0
 35 36  1  0  0  0  0
 35 34  1  0  0  0  0
 36 38  1  0  0  0  0
 37 41  1  6  0  0  0
 38 39  1  0  0  0  0
 38 37  1  0  0  0  0
 39 37  1  0  0  0  0
 40 41  1  0  0  0  0
M  END
>  <MODEL>
9

>  <REMARK>
 VINA RESULT:      -5.9      5.505      9.541
  Name = 
  9 active torsions:
  status: ('A' for Active; 'I' for Inactive)
    1  A    between atoms: C_5  and  C_23
    2  A    between atoms: C_5  and  C_37
    3  A    between atoms: N_7  and  C_30
    4  A    between atoms: C_11  and  C_38
    5  A    between atoms: C_17  and  C_34
    6  A    between atoms: O_18  and  C_39
    7  A    between atoms: N_21  and  C_23
    8  A    between atoms: C_28  and  C_39
    9  A    between atoms: C_37  and  C_40
                            x       y       z     vdW  Elec       q    Type
                         _______ _______ _______ _____ _____    ______ ____

>  <TORSDO>
F 9

$$$$
