=
 OpenBabel10222420273D

 31 36  0  0  1  0  0  0  0  0999 V2000
  187.5830  178.0540  136.5360 C   0  0  0  0  0  0  0  0  0  0  0  0
  190.3360  175.9760  137.1530 N   0  0  0  0  0  0  0  0  0  0  0  0
  192.2130  177.3940  140.2580 C   0  0  2  0  0  3  0  0  0  0  0  0
  189.0950  176.0790  136.7470 C   0  0  0  0  0  0  0  0  0  0  0  0
  186.4020  176.2620  135.3350 C   0  0  0  0  0  2  0  0  0  0  0  0
  191.3720  177.0760  141.2990 C   0  0  1  0  0  3  0  0  0  0  0  0
  188.0930  176.9910  137.4710 C   0  0  1  0  0  3  0  0  0  0  0  0
  191.3490  178.1140  142.4310 C   0  0  0  0  0  2  0  0  0  0  0  0
  186.3640  178.6420  134.5940 O   0  0  0  0  0  1  0  0  0  0  0  0
  190.8070  177.7450  140.0920 N   0  0  2  0  0  0  0  0  0  0  0  0
  192.2040  176.4560  138.9970 C   0  0  0  0  0  2  0  0  0  0  0  0
  188.7060  175.3460  135.5720 N   0  0  0  0  0  0  0  0  0  0  0  0
  186.8020  177.6960  135.5120 C   0  0  0  0  0  0  0  0  0  0  0  0
  188.5990  177.5290  138.7880 C   0  0  0  0  0  0  0  0  0  0  0  0
  190.0620  177.5170  138.9580 C   0  0  2  0  0  3  0  0  0  0  0  0
  190.8470  176.7170  138.2690 C   0  0  2  0  0  3  0  0  0  0  0  0
  188.2380  178.1500  141.0930 C   0  0  0  0  0  0  0  0  0  0  0  0
  187.5700  175.4060  134.9330 C   0  0  0  0  0  3  0  0  0  0  0  0
  188.0210  179.4070  136.6640 N   0  0  0  0  0  1  0  0  0  0  0  0
  187.7400  177.8520  139.7730 C   0  0  0  0  0  3  0  0  0  0  0  0
  189.9600  178.2500  143.1120 C   0  0  1  0  0  3  0  0  0  0  0  0
  188.9010  178.2680  142.0930 C   0  0  0  0  0  0  0  0  0  0  0  0
  189.7370  177.1290  144.0180 N   0  0  0  0  0  2  0  0  0  0  0  0
  186.1430  178.6560  146.8130 C   0  0  0  0  0  1  0  0  0  0  0  0
  187.8830  177.4910  145.5130 C   0  0  0  0  0  3  0  0  0  0  0  0
  187.6790  177.8130  149.2160 O   0  0  0  0  0  1  0  0  0  0  0  0
  190.1510  177.2480  146.4990 C   0  0  0  0  0  2  0  0  0  0  0  0
  189.4570  177.0320  147.8420 C   0  0  0  0  0  2  0  0  0  0  0  0
  189.1940  177.2570  145.3360 C   0  0  0  0  0  0  0  0  0  0  0  0
  188.2600  177.9660  147.9560 C   0  0  1  0  0  3  0  0  0  0  0  0
  187.2440  177.6150  146.8690 C   0  0  1  0  0  3  0  0  0  0  0  0
  1 19  1  0  0  0  0
  2 16  1  0  0  0  0
  3 11  1  6  0  0  0
  3  6  1  0  0  0  0
  4  2  2  0  0  0  0
  4  7  1  0  0  0  0
  5 13  1  0  0  0  0
  6  8  1  1  0  0  0
  7  1  1  6  0  0  0
  7 14  1  0  0  0  0
  8 21  1  0  0  0  0
  9 13  1  0  0  0  0
 10  3  1  0  0  0  0
 10  6  1  0  0  0  0
 12  4  1  0  0  0  0
 13  1  2  0  0  0  0
 14 15  1  0  0  0  0
 14 20  2  0  0  0  0
 15 10  1  0  0  0  0
 16 15  1  0  0  0  0
 16 11  1  0  0  0  0
 17 22  3  0  0  0  0
 18  5  1  0  0  0  0
 18 12  2  0  0  0  0
 20 17  1  0  0  0  0
 21 23  1  0  0  0  0
 22 21  1  0  0  0  0
 23 29  1  0  0  0  0
 24 31  1  0  0  0  0
 25 31  1  0  0  0  0
 27 28  1  0  0  0  0
 28 30  1  0  0  0  0
 29 25  2  0  0  0  0
 29 27  1  0  0  0  0
 30 26  1  0  0  0  0
 31 30  1  0  0  0  0
M  END
>  <MODEL>
1

>  <REMARK>
 VINA RESULT:      -9.1      0.000      0.000
  Name = 
  2 active torsions:
  status: ('A' for Active; 'I' for Inactive)
    1  A    between atoms: N_6  and  C_19
    2  A    between atoms: N_6  and  C_30
                            x       y       z     vdW  Elec       q    Type
                         _______ _______ _______ _____ _____    ______ ____

>  <TORSDO>
F 2

$$$$
=
 OpenBabel10222420273D

 31 36  0  0  1  0  0  0  0  0999 V2000
  182.3440  179.8040  138.9110 C   0  0  0  0  0  0  0  0  0  0  0  0
  184.0230  177.3070  137.1170 N   0  0  0  0  0  0  0  0  0  0  0  0
  187.8380  177.7430  137.7740 C   0  0  2  0  0  3  0  0  0  0  0  0
  182.9630  177.6560  137.8010 C   0  0  0  0  0  0  0  0  0  0  0  0
  180.2640  178.4920  138.9400 C   0  0  0  0  0  2  0  0  0  0  0  0
  187.9790  177.3100  139.0720 C   0  0  1  0  0  3  0  0  0  0  0  0
  183.0810  178.5030  139.0770 C   0  0  1  0  0  3  0  0  0  0  0  0
  189.0500  178.0630  139.8760 C   0  0  0  0  0  2  0  0  0  0  0  0
  180.3010  180.9620  138.6070 O   0  0  0  0  0  1  0  0  0  0  0  0
  186.9090  178.2990  138.7520 N   0  0  2  0  0  0  0  0  0  0  0  0
  186.6780  177.1200  136.9170 C   0  0  0  0  0  2  0  0  0  0  0  0
  181.6740  177.2600  137.2980 N   0  0  0  0  0  0  0  0  0  0  0  0
  181.0100  179.7860  138.8230 C   0  0  0  0  0  0  0  0  0  0  0  0
  184.4970  178.6640  139.5730 C   0  0  0  0  0  0  0  0  0  0  0  0
  185.5510  178.4270  138.5720 C   0  0  2  0  0  3  0  0  0  0  0  0
  185.3490  177.7090  137.4890 C   0  0  2  0  0  3  0  0  0  0  0  0
  186.1020  178.7940  141.3740 C   0  0  0  0  0  0  0  0  0  0  0  0
  180.4990  177.6050  137.7500 C   0  0  0  0  0  3  0  0  0  0  0  0
  183.0580  181.0270  138.7290 N   0  0  0  0  0  1  0  0  0  0  0  0
  184.7480  178.8650  140.8810 C   0  0  0  0  0  3  0  0  0  0  0  0
  188.6950  178.2190  141.3790 C   0  0  1  0  0  3  0  0  0  0  0  0
  187.2820  178.5990  141.5240 C   0  0  0  0  0  0  0  0  0  0  0  0
  188.9280  176.9620  142.0810 N   0  0  0  0  0  2  0  0  0  0  0  0
  189.1560  177.9280  146.7780 C   0  0  0  0  0  1  0  0  0  0  0  0
  189.0320  177.0320  144.4860 C   0  0  0  0  0  3  0  0  0  0  0  0
  191.8620  176.6980  146.8810 O   0  0  0  0  0  1  0  0  0  0  0  0
  191.1440  176.6510  143.2340 C   0  0  0  0  0  2  0  0  0  0  0  0
  191.7530  176.1940  144.5580 C   0  0  0  0  0  2  0  0  0  0  0  0
  189.6530  176.8500  143.3100 C   0  0  0  0  0  0  0  0  0  0  0  0
  191.2430  177.0770  145.6890 C   0  0  1  0  0  3  0  0  0  0  0  0
  189.7280  176.9090  145.8130 C   0  0  1  0  0  3  0  0  0  0  0  0
  1  7  1  0  0  0  0
  2 16  1  0  0  0  0
  2  4  2  0  0  0  0
  3 11  1  6  0  0  0
  3 10  1  0  0  0  0
  3  6  1  0  0  0  0
  6  8  1  1  0  0  0
  7  4  1  6  0  0  0
  7 14  1  0  0  0  0
  8 21  1  0  0  0  0
  9 13  1  0  0  0  0
 10  6  1  0  0  0  0
 11 16  1  0  0  0  0
 12 18  2  0  0  0  0
 12  4  1  0  0  0  0
 13  1  2  0  0  0  0
 13  5  1  0  0  0  0
 14 20  2  0  0  0  0
 15 10  1  0  0  0  0
 15 14  1  0  0  0  0
 16 15  1  0  0  0  0
 17 22  3  0  0  0  0
 18  5  1  0  0  0  0
 19  1  1  0  0  0  0
 20 17  1  0  0  0  0
 21 22  1  0  0  0  0
 21 23  1  0  0  0  0
 23 29  1  0  0  0  0
 25 31  1  0  0  0  0
 27 29  1  0  0  0  0
 27 28  1  0  0  0  0
 28 30  1  0  0  0  0
 29 25  2  0  0  0  0
 30 31  1  0  0  0  0
 30 26  1  0  0  0  0
 31 24  1  0  0  0  0
M  END
>  <MODEL>
2

>  <REMARK>
 VINA RESULT:      -8.9      3.924      4.955
  Name = 
  2 active torsions:
  status: ('A' for Active; 'I' for Inactive)
    1  A    between atoms: N_6  and  C_19
    2  A    between atoms: N_6  and  C_30
                            x       y       z     vdW  Elec       q    Type
                         _______ _______ _______ _____ _____    ______ ____

>  <TORSDO>
F 2

$$$$
=
 OpenBabel10222420273D

 31 36  0  0  1  0  0  0  0  0999 V2000
  182.0630  179.7000  138.9850 C   0  0  0  0  0  0  0  0  0  0  0  0
  183.7970  177.1230  137.3630 N   0  0  0  0  0  0  0  0  0  0  0  0
  187.6050  177.7360  137.9080 C   0  0  2  0  0  3  0  0  0  0  0  0
  182.7370  177.4910  138.0380 C   0  0  0  0  0  0  0  0  0  0  0  0
  180.0300  178.3270  139.1590 C   0  0  0  0  0  2  0  0  0  0  0  0
  187.7820  177.4140  139.2330 C   0  0  1  0  0  3  0  0  0  0  0  0
  182.8470  178.4420  139.2390 C   0  0  1  0  0  3  0  0  0  0  0  0
  188.8410  178.2640  139.9520 C   0  0  0  0  0  2  0  0  0  0  0  0
  179.9770  180.7620  138.6290 O   0  0  0  0  0  1  0  0  0  0  0  0
  186.6740  178.3380  138.8560 N   0  0  2  0  0  0  0  0  0  0  0  0
  186.4520  177.0080  137.1260 C   0  0  0  0  0  2  0  0  0  0  0  0
  181.4540  177.0130  137.5940 N   0  0  0  0  0  0  0  0  0  0  0  0
  180.7300  179.6320  138.9240 C   0  0  0  0  0  0  0  0  0  0  0  0
  184.2660  178.6890  139.6930 C   0  0  0  0  0  0  0  0  0  0  0  0
  185.3100  178.4070  138.6930 C   0  0  2  0  0  3  0  0  0  0  0  0
  185.1140  177.5970  137.6750 C   0  0  2  0  0  3  0  0  0  0  0  0
  185.8950  179.0160  141.4450 C   0  0  0  0  0  0  0  0  0  0  0  0
  180.2760  177.3550  138.0400 C   0  0  0  0  0  3  0  0  0  0  0  0
  182.7320  180.9270  138.6900 N   0  0  0  0  0  1  0  0  0  0  0  0
  184.5320  179.0030  140.9750 C   0  0  0  0  0  3  0  0  0  0  0  0
  188.5060  178.5290  141.4450 C   0  0  1  0  0  3  0  0  0  0  0  0
  187.0840  178.8730  141.5870 C   0  0  0  0  0  0  0  0  0  0  0  0
  188.7950  177.3410  142.2400 N   0  0  0  0  0  2  0  0  0  0  0  0
  191.6650  176.5430  146.0050 C   0  0  0  0  0  1  0  0  0  0  0  0
  190.1930  177.3510  144.2010 C   0  0  0  0  0  3  0  0  0  0  0  0
  189.4090  177.1760  147.8360 O   0  0  0  0  0  1  0  0  0  0  0  0
  187.7320  177.2230  144.5200 C   0  0  0  0  0  2  0  0  0  0  0  0
  187.9820  177.5950  145.9790 C   0  0  0  0  0  2  0  0  0  0  0  0
  188.9630  177.3470  143.6620 C   0  0  0  0  0  0  0  0  0  0  0  0
  189.2320  176.8880  146.4820 C   0  0  1  0  0  3  0  0  0  0  0  0
  190.4410  177.3780  145.6840 C   0  0  1  0  0  3  0  0  0  0  0  0
  1  7  1  0  0  0  0
  2 16  1  0  0  0  0
  2  4  2  0  0  0  0
  3 11  1  6  0  0  0
  3 10  1  0  0  0  0
  3  6  1  0  0  0  0
  6  8  1  1  0  0  0
  7  4  1  6  0  0  0
  7 14  1  0  0  0  0
  8 21  1  0  0  0  0
  9 13  1  0  0  0  0
 10  6  1  0  0  0  0
 11 16  1  0  0  0  0
 12  4  1  0  0  0  0
 12 18  2  0  0  0  0
 13  1  2  0  0  0  0
 13  5  1  0  0  0  0
 14 20  2  0  0  0  0
 15 10  1  0  0  0  0
 15 14  1  0  0  0  0
 16 15  1  0  0  0  0
 17 22  3  0  0  0  0
 18  5  1  0  0  0  0
 19  1  1  0  0  0  0
 20 17  1  0  0  0  0
 21 22  1  0  0  0  0
 21 23  1  0  0  0  0
 23 29  1  0  0  0  0
 25 31  1  0  0  0  0
 27 28  1  0  0  0  0
 28 30  1  0  0  0  0
 29 25  2  0  0  0  0
 29 27  1  0  0  0  0
 30 26  1  0  0  0  0
 31 24  1  0  0  0  0
 31 30  1  0  0  0  0
M  END
>  <MODEL>
3

>  <REMARK>
 VINA RESULT:      -8.7      3.987      5.079
  Name = 
  2 active torsions:
  status: ('A' for Active; 'I' for Inactive)
    1  A    between atoms: N_6  and  C_19
    2  A    between atoms: N_6  and  C_30
                            x       y       z     vdW  Elec       q    Type
                         _______ _______ _______ _____ _____    ______ ____

>  <TORSDO>
F 2

$$$$
=
 OpenBabel10222420273D

 31 36  0  0  1  0  0  0  0  0999 V2000
  180.2680  181.1500  136.7690 C   0  0  0  0  0  0  0  0  0  0  0  0
  179.2260  181.9630  140.0140 N   0  0  0  0  0  0  0  0  0  0  0  0
  180.4460  179.1290  142.3910 C   0  0  2  0  0  3  0  0  0  0  0  0
  179.6510  182.3840  138.8490 C   0  0  0  0  0  0  0  0  0  0  0  0
  180.1560  183.5030  136.0610 C   0  0  0  0  0  2  0  0  0  0  0  0
  181.8020  179.3460  142.4600 C   0  0  1  0  0  3  0  0  0  0  0  0
  180.7700  181.6490  138.0960 C   0  0  1  0  0  3  0  0  0  0  0  0
  182.6420  178.0650  142.5810 C   0  0  0  0  0  2  0  0  0  0  0  0
  179.4310  181.6150  134.6040 O   0  0  0  0  0  1  0  0  0  0  0  0
  181.1450  179.3030  141.1220 N   0  0  2  0  0  0  0  0  0  0  0  0
  179.5180  180.3710  142.1350 C   0  0  0  0  0  2  0  0  0  0  0  0
  179.0080  183.5340  138.2700 N   0  0  0  0  0  0  0  0  0  0  0  0
  179.9560  182.0370  135.8190 C   0  0  0  0  0  0  0  0  0  0  0  0
  181.4690  180.5940  138.9190 C   0  0  0  0  0  0  0  0  0  0  0  0
  180.7160  180.0970  140.0840 C   0  0  2  0  0  3  0  0  0  0  0  0
  179.7480  180.7870  140.6470 C   0  0  2  0  0  3  0  0  0  0  0  0
  183.4710  179.4210  139.5900 C   0  0  0  0  0  0  0  0  0  0  0  0
  179.1880  184.0350  137.0790 C   0  0  0  0  0  3  0  0  0  0  0  0
  180.0100  179.7610  136.5640 N   0  0  0  0  0  1  0  0  0  0  0  0
  182.7480  180.2600  138.6660 C   0  0  0  0  0  3  0  0  0  0  0  0
  184.0150  178.1600  141.8630 C   0  0  1  0  0  3  0  0  0  0  0  0
  183.8510  178.7940  140.5470 C   0  0  0  0  0  0  0  0  0  0  0  0
  184.9450  178.9480  142.6640 N   0  0  0  0  0  2  0  0  0  0  0  0
  186.2240  178.8860  147.2920 C   0  0  0  0  0  1  0  0  0  0  0  0
  185.4550  178.5200  144.9790 C   0  0  0  0  0  3  0  0  0  0  0  0
  188.3890  176.9520  146.6480 O   0  0  0  0  0  1  0  0  0  0  0  0
  187.1090  177.8120  143.2660 C   0  0  0  0  0  2  0  0  0  0  0  0
  187.7520  176.9570  144.3550 C   0  0  0  0  0  2  0  0  0  0  0  0
  185.7880  178.4030  143.6840 C   0  0  0  0  0  0  0  0  0  0  0  0
  187.7340  177.7120  145.6770 C   0  0  1  0  0  3  0  0  0  0  0  0
  186.2840  177.9540  146.0980 C   0  0  1  0  0  3  0  0  0  0  0  0
  2 16  1  0  0  0  0
  3 11  1  1  0  0  0
  3  6  1  0  0  0  0
  4  2  2  0  0  0  0
  5 18  1  0  0  0  0
  6  8  1  6  0  0  0
  7  1  1  6  0  0  0
  7  4  1  0  0  0  0
  7 14  1  0  0  0  0
  9 13  1  0  0  0  0
 10  3  1  0  0  0  0
 10  6  1  0  0  0  0
 12  4  1  0  0  0  0
 13  5  1  0  0  0  0
 13  1  2  0  0  0  0
 14 15  1  0  0  0  0
 15 16  1  0  0  0  0
 15 10  1  0  0  0  0
 16 11  1  0  0  0  0
 17 22  3  0  0  0  0
 18 12  2  0  0  0  0
 19  1  1  0  0  0  0
 20 14  2  0  0  0  0
 20 17  1  0  0  0  0
 21  8  1  0  0  0  0
 21 23  1  0  0  0  0
 22 21  1  0  0  0  0
 23 29  1  0  0  0  0
 25 31  1  0  0  0  0
 27 29  1  0  0  0  0
 27 28  1  0  0  0  0
 28 30  1  0  0  0  0
 29 25  2  0  0  0  0
 30 31  1  0  0  0  0
 30 26  1  0  0  0  0
 31 24  1  0  0  0  0
M  END
>  <MODEL>
4

>  <REMARK>
 VINA RESULT:      -8.3      6.567      8.357
  Name = 
  2 active torsions:
  status: ('A' for Active; 'I' for Inactive)
    1  A    between atoms: N_6  and  C_19
    2  A    between atoms: N_6  and  C_30
                            x       y       z     vdW  Elec       q    Type
                         _______ _______ _______ _____ _____    ______ ____

>  <TORSDO>
F 2

$$$$
=
 OpenBabel10222420273D

 31 36  0  0  1  0  0  0  0  0999 V2000
  186.7330  177.1020  136.1280 C   0  0  0  0  0  0  0  0  0  0  0  0
  189.5120  174.9690  136.0760 N   0  0  0  0  0  0  0  0  0  0  0  0
  192.2580  176.5520  138.3410 C   0  0  2  0  0  3  0  0  0  0  0  0
  188.2080  175.0900  136.0520 C   0  0  0  0  0  0  0  0  0  0  0  0
  185.2180  175.2700  135.4970 C   0  0  0  0  0  2  0  0  0  0  0  0
  191.7640  176.3520  139.6090 C   0  0  1  0  0  3  0  0  0  0  0  0
  187.4840  176.0970  136.9580 C   0  0  1  0  0  3  0  0  0  0  0  0
  192.0990  177.4780  140.6000 C   0  0  0  0  0  2  0  0  0  0  0  0
  184.9950  177.5830  134.5940 O   0  0  0  0  0  1  0  0  0  0  0  0
  190.8720  176.9460  138.5720 N   0  0  2  0  0  0  0  0  0  0  0  0
  191.8550  175.5170  137.2290 C   0  0  0  0  0  2  0  0  0  0  0  0
  187.4720  174.2820  135.1160 N   0  0  0  0  0  0  0  0  0  0  0  0
  185.6750  176.6960  135.4200 C   0  0  0  0  0  0  0  0  0  0  0  0
  188.3710  176.7180  138.0100 C   0  0  0  0  0  0  0  0  0  0  0  0
  189.8170  176.6590  137.7370 C   0  0  2  0  0  3  0  0  0  0  0  0
  190.3470  175.7750  136.9180 C   0  0  2  0  0  3  0  0  0  0  0  0
  188.7300  177.5350  140.2550 C   0  0  0  0  0  0  0  0  0  0  0  0
  186.1970  174.3370  134.8420 C   0  0  0  0  0  3  0  0  0  0  0  0
  187.2100  178.4420  135.9990 N   0  0  0  0  0  1  0  0  0  0  0  0
  187.8540  177.1530  139.1740 C   0  0  0  0  0  3  0  0  0  0  0  0
  190.9820  177.7240  141.6500 C   0  0  1  0  0  3  0  0  0  0  0  0
  189.6650  177.7040  140.9970 C   0  0  0  0  0  0  0  0  0  0  0  0
  191.0240  176.6900  142.6770 N   0  0  0  0  0  2  0  0  0  0  0  0
  192.0170  175.9160  147.3100 C   0  0  0  0  0  1  0  0  0  0  0  0
  191.5730  176.7160  145.0220 C   0  0  0  0  0  3  0  0  0  0  0  0
  189.5290  177.3580  148.0650 O   0  0  0  0  0  1  0  0  0  0  0  0
  189.2300  177.2160  144.3630 C   0  0  0  0  0  2  0  0  0  0  0  0
  189.0350  177.7670  145.7740 C   0  0  0  0  0  2  0  0  0  0  0  0
  190.6690  176.9030  144.0470 C   0  0  0  0  0  0  0  0  0  0  0  0
  189.7740  176.8890  146.7740 C   0  0  1  0  0  3  0  0  0  0  0  0
  191.2730  176.9420  146.4780 C   0  0  1  0  0  3  0  0  0  0  0  0
  1  7  1  0  0  0  0
  2 16  1  0  0  0  0
  3 11  1  6  0  0  0
  3 10  1  0  0  0  0
  3  6  1  0  0  0  0
  4  2  2  0  0  0  0
  6  8  1  1  0  0  0
  7  4  1  6  0  0  0
  7 14  1  0  0  0  0
  8 21  1  0  0  0  0
  9 13  1  0  0  0  0
 10  6  1  0  0  0  0
 12  4  1  0  0  0  0
 13  5  1  0  0  0  0
 13  1  2  0  0  0  0
 14 20  2  0  0  0  0
 15 14  1  0  0  0  0
 15 10  1  0  0  0  0
 16 11  1  0  0  0  0
 16 15  1  0  0  0  0
 17 22  3  0  0  0  0
 18 12  2  0  0  0  0
 18  5  1  0  0  0  0
 19  1  1  0  0  0  0
 20 17  1  0  0  0  0
 21 23  1  0  0  0  0
 22 21  1  0  0  0  0
 23 29  1  0  0  0  0
 25 31  1  0  0  0  0
 27 28  1  0  0  0  0
 28 30  1  0  0  0  0
 29 27  1  0  0  0  0
 29 25  2  0  0  0  0
 30 26  1  0  0  0  0
 31 30  1  0  0  0  0
 31 24  1  0  0  0  0
M  END
>  <MODEL>
5

>  <REMARK>
 VINA RESULT:      -7.9      1.446      2.264
  Name = 
  2 active torsions:
  status: ('A' for Active; 'I' for Inactive)
    1  A    between atoms: N_6  and  C_19
    2  A    between atoms: N_6  and  C_30
                            x       y       z     vdW  Elec       q    Type
                         _______ _______ _______ _____ _____    ______ ____

>  <TORSDO>
F 2

$$$$
=
 OpenBabel10222420273D

 31 36  0  0  1  0  0  0  0  0999 V2000
  189.8540  176.9910  136.4690 C   0  0  0  0  0  0  0  0  0  0  0  0
  190.1740  176.2580  139.8810 N   0  0  0  0  0  0  0  0  0  0  0  0
  187.8900  178.7320  141.8400 C   0  0  2  0  0  3  0  0  0  0  0  0
  190.1420  175.8110  138.6500 C   0  0  0  0  0  0  0  0  0  0  0  0
  190.5740  174.7260  135.8370 C   0  0  0  0  0  2  0  0  0  0  0  0
  186.6260  178.2700  141.5620 C   0  0  1  0  0  3  0  0  0  0  0  0
  189.1340  176.3590  137.6290 C   0  0  1  0  0  3  0  0  0  0  0  0
  185.5610  179.3720  141.4530 C   0  0  0  0  0  2  0  0  0  0  0  0
  191.2820  176.7680  134.5940 O   0  0  0  0  0  1  0  0  0  0  0  0
  187.5800  178.4820  140.4360 N   0  0  2  0  0  0  0  0  0  0  0  0
  189.0660  177.6900  141.8410 C   0  0  0  0  0  2  0  0  0  0  0  0
  191.1120  174.8200  138.2660 N   0  0  0  0  0  0  0  0  0  0  0  0
  190.5540  176.2110  135.6390 C   0  0  0  0  0  0  0  0  0  0  0  0
  188.0670  177.2380  138.2370 C   0  0  0  0  0  0  0  0  0  0  0  0
  188.3960  177.8190  139.5500 C   0  0  2  0  0  3  0  0  0  0  0  0
  189.3010  177.2950  140.3480 C   0  0  2  0  0  3  0  0  0  0  0  0
  185.7800  178.0010  138.3630 C   0  0  0  0  0  0  0  0  0  0  0  0
  191.3350  174.3400  137.0730 C   0  0  0  0  0  3  0  0  0  0  0  0
  189.8930  178.4100  136.3230 N   0  0  0  0  0  1  0  0  0  0  0  0
  186.8550  177.3430  137.6620 C   0  0  0  0  0  3  0  0  0  0  0  0
  184.4550  179.0570  140.4090 C   0  0  1  0  0  3  0  0  0  0  0  0
  185.0610  178.5130  139.1850 C   0  0  0  0  0  0  0  0  0  0  0  0
  183.5160  178.0830  140.9540 N   0  0  0  0  0  2  0  0  0  0  0  0
  178.9840  179.6690  140.9930 C   0  0  0  0  0  1  0  0  0  0  0  0
  181.1510  178.5030  141.1320 C   0  0  0  0  0  3  0  0  0  0  0  0
  179.0130  179.6220  143.9660 O   0  0  0  0  0  1  0  0  0  0  0  0
  182.5520  178.8200  143.1600 C   0  0  0  0  0  2  0  0  0  0  0  0
  181.2520  178.8160  143.9610 C   0  0  0  0  0  2  0  0  0  0  0  0
  182.3560  178.4270  141.7190 C   0  0  0  0  0  0  0  0  0  0  0  0
  180.1740  179.5680  143.1930 C   0  0  1  0  0  3  0  0  0  0  0  0
  179.8900  178.8380  141.8800 C   0  0  1  0  0  3  0  0  0  0  0  0
  2 16  1  0  0  0  0
  3 11  1  1  0  0  0
  4  2  2  0  0  0  0
  5 18  1  0  0  0  0
  6  8  1  6  0  0  0
  6  3  1  0  0  0  0
  7  1  1  6  0  0  0
  7 14  1  0  0  0  0
  7  4  1  0  0  0  0
  9 13  1  0  0  0  0
 10  6  1  0  0  0  0
 10  3  1  0  0  0  0
 12  4  1  0  0  0  0
 13  5  1  0  0  0  0
 13  1  2  0  0  0  0
 14 15  1  0  0  0  0
 15 16  1  0  0  0  0
 15 10  1  0  0  0  0
 16 11  1  0  0  0  0
 17 22  3  0  0  0  0
 18 12  2  0  0  0  0
 19  1  1  0  0  0  0
 20 14  2  0  0  0  0
 20 17  1  0  0  0  0
 21 23  1  0  0  0  0
 21  8  1  0  0  0  0
 22 21  1  0  0  0  0
 23 29  1  0  0  0  0
 24 31  1  0  0  0  0
 25 29  2  0  0  0  0
 25 31  1  0  0  0  0
 27 28  1  0  0  0  0
 29 27  1  0  0  0  0
 30 28  1  0  0  0  0
 30 26  1  0  0  0  0
 31 30  1  0  0  0  0
M  END
>  <MODEL>
6

>  <REMARK>
 VINA RESULT:      -7.1      4.368      5.744
  Name = 
  2 active torsions:
  status: ('A' for Active; 'I' for Inactive)
    1  A    between atoms: N_6  and  C_19
    2  A    between atoms: N_6  and  C_30
                            x       y       z     vdW  Elec       q    Type
                         _______ _______ _______ _____ _____    ______ ____

>  <TORSDO>
F 2

$$$$
=
 OpenBabel10222420273D

 31 36  0  0  1  0  0  0  0  0999 V2000
  190.3800  178.3570  144.4020 C   0  0  0  0  0  0  0  0  0  0  0  0
  187.7180  177.5030  146.5140 N   0  0  0  0  0  0  0  0  0  0  0  0
  184.5010  179.1800  145.0950 C   0  0  2  0  0  3  0  0  0  0  0  0
  188.8480  177.1460  145.9560 C   0  0  0  0  0  0  0  0  0  0  0  0
  191.6800  176.3960  145.1200 C   0  0  0  0  0  2  0  0  0  0  0  0
  184.2310  178.4310  143.9740 C   0  0  1  0  0  3  0  0  0  0  0  0
  189.1560  177.4860  144.4910 C   0  0  1  0  0  3  0  0  0  0  0  0
  183.6240  179.2310  142.8110 C   0  0  0  0  0  2  0  0  0  0  0  0
  192.7110  178.6290  144.7150 O   0  0  0  0  0  1  0  0  0  0  0  0
  185.6130  178.9530  144.1790 N   0  0  2  0  0  0  0  0  0  0  0  0
  185.2420  178.4720  146.2860 C   0  0  0  0  0  2  0  0  0  0  0  0
  189.8160  176.4610  146.7710 N   0  0  0  0  0  0  0  0  0  0  0  0
  191.5690  177.8370  144.7260 C   0  0  0  0  0  0  0  0  0  0  0  0
  187.9700  178.0240  143.7270 C   0  0  0  0  0  0  0  0  0  0  0  0
  186.8840  178.5800  144.5510 C   0  0  2  0  0  3  0  0  0  0  0  0
  186.7140  178.2500  145.8140 C   0  0  2  0  0  3  0  0  0  0  0  0
  186.6470  178.1710  141.7110 C   0  0  0  0  0  0  0  0  0  0  0  0
  191.0390  176.1340  146.4540 C   0  0  0  0  0  3  0  0  0  0  0  0
  190.2650  179.7460  144.0950 N   0  0  0  0  0  1  0  0  0  0  0  0
  187.8780  177.8560  142.3940 C   0  0  0  0  0  3  0  0  0  0  0  0
  184.0650  178.7170  141.4140 C   0  0  1  0  0  3  0  0  0  0  0  0
  185.5060  178.4270  141.4170 C   0  0  0  0  0  0  0  0  0  0  0  0
  183.3320  177.5030  141.0750 N   0  0  0  0  0  2  0  0  0  0  0  0
  181.2200  179.1760  137.1010 C   0  0  0  0  0  1  0  0  0  0  0  0
  182.6200  178.2160  138.8870 C   0  0  0  0  0  3  0  0  0  0  0  0
  181.0260  176.3980  136.0570 O   0  0  0  0  0  1  0  0  0  0  0  0
  182.3080  175.8280  139.4990 C   0  0  0  0  0  2  0  0  0  0  0  0
  182.0910  175.5580  138.0110 C   0  0  0  0  0  2  0  0  0  0  0  0
  182.7910  177.2270  139.7790 C   0  0  0  0  0  0  0  0  0  0  0  0
  181.2810  176.6910  137.3970 C   0  0  1  0  0  3  0  0  0  0  0  0
  182.0770  177.9920  137.5030 C   0  0  1  0  0  3  0  0  0  0  0  0
  1  7  1  0  0  0  0
  1 13  2  0  0  0  0
  3 11  1  1  0  0  0
  4  2  2  0  0  0  0
  4 12  1  0  0  0  0
  5 18  1  0  0  0  0
  6  8  1  6  0  0  0
  6 10  1  0  0  0  0
  6  3  1  0  0  0  0
  7 14  1  1  0  0  0
  7  4  1  0  0  0  0
  9 13  1  0  0  0  0
 10 15  1  0  0  0  0
 10  3  1  0  0  0  0
 13  5  1  0  0  0  0
 14 15  1  0  0  0  0
 15 16  1  0  0  0  0
 16 11  1  0  0  0  0
 16  2  1  0  0  0  0
 17 20  1  0  0  0  0
 18 12  2  0  0  0  0
 19  1  1  0  0  0  0
 20 14  2  0  0  0  0
 21 22  1  0  0  0  0
 21  8  1  0  0  0  0
 22 17  3  0  0  0  0
 23 21  1  0  0  0  0
 24 31  1  0  0  0  0
 25 29  2  0  0  0  0
 26 30  1  0  0  0  0
 27 29  1  0  0  0  0
 28 27  1  0  0  0  0
 29 23  1  0  0  0  0
 30 31  1  0  0  0  0
 30 28  1  0  0  0  0
 31 25  1  0  0  0  0
M  END
>  <MODEL>
7

>  <REMARK>
 VINA RESULT:      -7.0      4.433      9.239
  Name = 
  2 active torsions:
  status: ('A' for Active; 'I' for Inactive)
    1  A    between atoms: N_6  and  C_19
    2  A    between atoms: N_6  and  C_30
                            x       y       z     vdW  Elec       q    Type
                         _______ _______ _______ _____ _____    ______ ____

>  <TORSDO>
F 2

$$$$
=
 OpenBabel10222420273D

 31 36  0  0  1  0  0  0  0  0999 V2000
  181.2760  178.6360  141.0070 C   0  0  0  0  0  0  0  0  0  0  0  0
  182.9470  176.9350  138.4390 N   0  0  0  0  0  0  0  0  0  0  0  0
  186.5680  178.3560  138.2420 C   0  0  2  0  0  3  0  0  0  0  0  0
  182.0660  176.8900  139.4070 C   0  0  0  0  0  0  0  0  0  0  0  0
  179.6700  176.7940  141.2870 C   0  0  0  0  0  2  0  0  0  0  0  0
  187.1640  177.8380  139.3680 C   0  0  1  0  0  3  0  0  0  0  0  0
  182.3240  177.5860  140.7520 C   0  0  1  0  0  3  0  0  0  0  0  0
  188.2000  178.7680  140.0180 C   0  0  0  0  0  2  0  0  0  0  0  0
  179.0120  179.1950  141.4130 O   0  0  0  0  0  1  0  0  0  0  0  0
  185.8410  178.5130  139.4970 N   0  0  2  0  0  0  0  0  0  0  0  0
  185.4040  177.5310  137.5850 C   0  0  0  0  0  2  0  0  0  0  0  0
  180.8250  176.2040  139.1600 N   0  0  0  0  0  0  0  0  0  0  0  0
  180.0160  178.2510  141.2360 C   0  0  0  0  0  0  0  0  0  0  0  0
  183.7390  178.0850  140.9190 C   0  0  0  0  0  0  0  0  0  0  0  0
  184.4980  178.2710  139.6710 C   0  0  2  0  0  3  0  0  0  0  0  0
  184.1840  177.6510  138.5530 C   0  0  2  0  0  3  0  0  0  0  0  0
  185.6980  178.4600  142.2810 C   0  0  0  0  0  0  0  0  0  0  0  0
  179.7750  176.1500  139.9330 C   0  0  0  0  0  3  0  0  0  0  0  0
  181.5910  180.0230  140.8880 N   0  0  0  0  0  1  0  0  0  0  0  0
  184.2860  178.2000  142.1440 C   0  0  0  0  0  3  0  0  0  0  0  0
  188.2490  178.6460  141.5660 C   0  0  1  0  0  3  0  0  0  0  0  0
  186.8840  178.5920  142.1090 C   0  0  0  0  0  0  0  0  0  0  0  0
  188.9670  177.4360  141.9490 N   0  0  0  0  0  2  0  0  0  0  0  0
  192.2810  175.1000  144.5210 C   0  0  0  0  0  1  0  0  0  0  0  0
  190.8120  176.6380  143.2760 C   0  0  0  0  0  3  0  0  0  0  0  0
  191.4150  176.5830  146.9480 O   0  0  0  0  0  1  0  0  0  0  0  0
  188.8800  177.6640  144.4550 C   0  0  0  0  0  2  0  0  0  0  0  0
  189.7840  177.7640  145.6820 C   0  0  0  0  0  2  0  0  0  0  0  0
  189.6220  177.2560  143.2090 C   0  0  0  0  0  0  0  0  0  0  0  0
  190.6480  176.5140  145.7850 C   0  0  1  0  0  3  0  0  0  0  0  0
  191.5630  176.4340  144.5630 C   0  0  1  0  0  3  0  0  0  0  0  0
  1 13  2  0  0  0  0
  2 16  1  0  0  0  0
  2  4  2  0  0  0  0
  3 11  1  6  0  0  0
  3  6  1  0  0  0  0
  3 10  1  0  0  0  0
  6 10  1  0  0  0  0
  6  8  1  1  0  0  0
  7  4  1  6  0  0  0
  7 14  1  0  0  0  0
  7  1  1  0  0  0  0
  8 21  1  0  0  0  0
 10 15  1  0  0  0  0
 11 16  1  0  0  0  0
 12  4  1  0  0  0  0
 12 18  2  0  0  0  0
 13  5  1  0  0  0  0
 13  9  1  0  0  0  0
 14 20  2  0  0  0  0
 15 14  1  0  0  0  0
 16 15  1  0  0  0  0
 18  5  1  0  0  0  0
 19  1  1  0  0  0  0
 20 17  1  0  0  0  0
 21 23  1  0  0  0  0
 21 22  1  0  0  0  0
 22 17  3  0  0  0  0
 23 29  1  0  0  0  0
 24 31  1  0  0  0  0
 25 31  1  0  0  0  0
 27 28  1  0  0  0  0
 28 30  1  0  0  0  0
 29 25  2  0  0  0  0
 29 27  1  0  0  0  0
 30 26  1  0  0  0  0
 31 30  1  0  0  0  0
M  END
>  <MODEL>
8

>  <REMARK>
 VINA RESULT:      -6.9      4.802      6.069
  Name = 
  2 active torsions:
  status: ('A' for Active; 'I' for Inactive)
    1  A    between atoms: N_6  and  C_19
    2  A    between atoms: N_6  and  C_30
                            x       y       z     vdW  Elec       q    Type
                         _______ _______ _______ _____ _____    ______ ____

>  <TORSDO>
F 2

$$$$
=
 OpenBabel10222420273D

 31 36  0  0  1  0  0  0  0  0999 V2000
  181.5440  173.5430  135.9950 C   0  0  0  0  0  0  0  0  0  0  0  0
  184.9070  174.2510  135.3130 N   0  0  0  0  0  0  0  0  0  0  0  0
  185.6260  177.8750  136.5490 C   0  0  2  0  0  3  0  0  0  0  0  0
  184.0110  173.3610  135.6570 C   0  0  0  0  0  0  0  0  0  0  0  0
  181.9710  171.1210  135.9810 C   0  0  0  0  0  2  0  0  0  0  0  0
  185.6320  177.7380  137.9170 C   0  0  1  0  0  3  0  0  0  0  0  0
  182.8890  173.7020  136.6500 C   0  0  1  0  0  3  0  0  0  0  0  0
  185.0770  178.9540  138.6750 C   0  0  0  0  0  2  0  0  0  0  0  0
  179.9190  172.1400  134.9980 O   0  0  0  0  0  1  0  0  0  0  0  0
  184.4970  177.1630  137.1390 N   0  0  2  0  0  0  0  0  0  0  0  0
  186.0530  176.6310  135.6880 C   0  0  0  0  0  2  0  0  0  0  0  0
  184.0780  172.0610  135.0440 N   0  0  0  0  0  0  0  0  0  0  0  0
  181.1280  172.3180  135.6600 C   0  0  0  0  0  0  0  0  0  0  0  0
  183.0750  175.0290  137.3470 C   0  0  0  0  0  0  0  0  0  0  0  0
  183.9740  175.9800  136.6720 C   0  0  2  0  0  3  0  0  0  0  0  0
  184.8900  175.5960  135.8090 C   0  0  2  0  0  3  0  0  0  0  0  0
  182.9260  176.4170  139.3170 C   0  0  0  0  0  0  0  0  0  0  0  0
  183.2210  171.0830  135.1480 C   0  0  0  0  0  3  0  0  0  0  0  0
  180.7750  174.6870  135.6260 N   0  0  0  0  0  1  0  0  0  0  0  0
  182.5580  175.2390  138.5720 C   0  0  0  0  0  3  0  0  0  0  0  0
  184.3260  178.5750  139.9800 C   0  0  1  0  0  3  0  0  0  0  0  0
  183.4560  177.4150  139.7400 C   0  0  0  0  0  0  0  0  0  0  0  0
  185.2830  178.2490  141.0300 N   0  0  0  0  0  0  0  0  0  0  0  0
  186.6230  177.3840  145.5590 C   0  0  0  0  0  1  0  0  0  0  0  0
  186.0170  178.2280  143.3240 C   0  0  0  0  0  2  0  0  0  0  0  0
  184.2340  178.8660  146.5290 O   0  0  0  0  0  1  0  0  0  0  0  0
  183.6410  178.7870  142.8610 C   0  0  0  0  0  2  0  0  0  0  0  0
  183.5700  179.3200  144.2900 C   0  0  0  0  0  2  0  0  0  0  0  0
  185.0430  178.4480  142.4270 C   0  0  0  0  0  0  0  0  0  0  0  0
  184.3660  178.4110  145.2160 C   0  0  1  0  0  3  0  0  0  0  0  0
  185.8380  178.4370  144.8030 C   0  0  1  0  0  3  0  0  0  0  0  0
  1  7  1  0  0  0  0
  2  4  2  0  0  0  0
  2 16  1  0  0  0  0
  3 11  1  6  0  0  0
  3 10  1  0  0  0  0
  3  6  1  0  0  0  0
  6  8  1  1  0  0  0
  7  4  1  6  0  0  0
  7 14  1  0  0  0  0
  8 21  1  0  0  0  0
  9 13  1  0  0  0  0
 10  6  1  0  0  0  0
 11 16  1  0  0  0  0
 12 18  2  0  0  0  0
 12  4  1  0  0  0  0
 13  5  1  0  0  0  0
 13  1  2  0  0  0  0
 14 20  2  0  0  0  0
 15 10  1  0  0  0  0
 15 14  1  0  0  0  0
 16 15  1  0  0  0  0
 17 22  3  0  0  0  0
 18  5  1  0  0  0  0
 19  1  1  0  0  0  0
 20 17  1  0  0  0  0
 21 23  1  0  0  0  0
 22 21  1  0  0  0  0
 23 29  2  0  0  0  0
 25 31  1  0  0  0  0
 27 28  1  0  0  0  0
 28 30  1  0  0  0  0
 29 27  1  0  0  0  0
 29 25  1  0  0  0  0
 30 26  1  0  0  0  0
 31 30  1  0  0  0  0
 31 24  1  0  0  0  0
M  END
>  <MODEL>
9

>  <REMARK>
 VINA RESULT:      -6.8      4.580      6.377
  Name = 
  2 active torsions:
  status: ('A' for Active; 'I' for Inactive)
    1  A    between atoms: N_6  and  C_19
    2  A    between atoms: N_6  and  C_30
                            x       y       z     vdW  Elec       q    Type
                         _______ _______ _______ _____ _____    ______ ____

>  <TORSDO>
F 2

$$$$
