=
 OpenBabel10222419263D

 64 69  0  0  1  0  0  0  0  0999 V2000
  189.3040  175.1170  135.3980 C   0  0  2  0  0  3  0  0  0  0  0  0
  191.5430  170.5120  135.0630 C   0  0  0  0  0  2  0  0  0  0  0  0
  189.9530  172.3790  134.7600 C   0  0  0  0  0  3  0  0  0  0  0  0
  192.6620  171.5360  134.9060 C   0  0  0  0  0  2  0  0  0  0  0  0
  190.2380  171.0860  134.5940 C   0  0  0  0  0  3  0  0  0  0  0  0
  192.3300  172.8130  135.6840 C   0  0  2  0  0  3  0  0  0  0  0  0
  190.9420  173.3090  135.3530 C   0  0  0  0  0  0  0  0  0  0  0  0
  190.6130  174.5280  135.6680 N   0  0  0  0  0  0  0  0  0  0  0  0
  193.2790  173.7910  135.3700 O   0  0  0  0  0  0  0  0  0  0  0  0
  194.5220  173.1820  135.5720 C   0  0  0  0  0  2  0  0  0  0  0  0
  195.3560  173.9700  136.5800 C   0  0  0  0  0  2  0  0  0  0  0  0
  197.5640  174.6750  137.3780 C   0  0  0  0  0  1  0  0  0  0  0  0
  197.4720  173.0600  135.5490 C   0  0  0  0  0  1  0  0  0  0  0  0
  196.7920  174.2870  136.1380 C   0  0  0  0  0  0  0  0  0  0  0  0
  197.1660  176.7250  135.8590 N   0  0  0  0  0  1  0  0  0  0  0  0
  196.8590  175.4770  135.1730 C   0  0  0  0  0  2  0  0  0  0  0  0
  189.4150  176.6060  135.2440 C   0  0  0  0  0  0  0  0  0  0  0  0
  190.3510  177.1020  134.6330 O   0  0  0  0  0  0  0  0  0  0  0  0
  188.3270  177.4800  135.7860 C   0  0  0  0  0  2  0  0  0  0  0  0
  188.7610  178.1330  137.3860 S   0  0  0  0  0  0  0  0  0  0  0  0
  188.7710  179.6360  137.3280 O   0  0  0  0  0  0  0  0  0  0  0  0
  190.1280  177.6390  137.7770 O   0  0  0  0  0  0  0  0  0  0  0  0
  186.1660  177.5420  137.8900 C   0  0  0  0  0  2  0  0  0  0  0  0
  186.5080  178.7050  138.8010 C   0  0  2  0  0  3  0  0  0  0  0  0
  187.5220  177.6010  138.5560 C   0  0  2  0  0  3  0  0  0  0  0  0
  184.6370  178.4900  140.2590 O   0  0  0  0  0  0  0  0  0  0  0  0
  186.7230  178.3450  141.2990 N   0  0  0  0  0  2  0  0  0  0  0  0
  185.8920  178.5210  140.1490 C   0  0  0  0  0  0  0  0  0  0  0  0
  186.3720  179.0850  145.8900 C   0  0  0  0  0  2  0  0  0  0  0  0
  186.7810  177.1430  144.4410 O   0  0  0  0  0  0  0  0  0  0  0  0
  185.1280  179.5740  143.0700 S   0  0  0  0  0  0  0  0  0  0  0  0
  184.3130  178.6530  144.4220 C   0  0  1  0  0  3  0  0  0  0  0  0
  187.2220  178.0220  143.5550 O   0  0  0  0  0  0  0  0  0  0  0  0
  187.0030  177.6920  145.7240 C   0  0  1  0  0  3  0  0  0  0  0  0
  184.8430  179.0810  145.7940 C   0  0  1  0  0  3  0  0  0  0  0  0
  184.3060  178.2710  146.7970 O   0  0  0  0  0  1  0  0  0  0  0  0
  186.1770  178.1510  142.6330 C   0  0  2  0  0  3  0  0  0  0  0  0
  190.2610  176.8320  147.6070 C   0  0  0  0  0  2  0  0  0  0  0  0
  188.4940  177.7010  146.0770 C   0  0  1  0  0  3  0  0  0  0  0  0
  188.8030  176.6820  147.1740 C   0  0  0  0  0  2  0  0  0  0  0  0
  190.7920  177.1570  145.1850 C   0  0  0  0  0  3  0  0  0  0  0  0
  191.2040  176.8690  146.4310 C   0  0  0  0  0  3  0  0  0  0  0  0
  189.3370  177.3590  144.8440 C   0  0  0  0  0  2  0  0  0  0  0  0
  182.8090  178.8700  144.3560 C   0  0  0  0  0  2  0  0  0  0  0  0
  182.3010  178.6230  142.9480 C   0  0  0  0  0  1  0  0  0  0  0  0
  188.2850  174.7120  136.4620 C   0  0  0  0  0  2  0  0  0  0  0  0
  186.9370  174.3210  135.8660 C   0  0  0  0  0  2  0  0  0  0  0  0
  186.3060  173.2300  136.7100 C   0  0  0  0  0  2  0  0  0  0  0  0
  182.6450  170.5340  135.7040 C   0  0  0  0  0  3  0  0  0  0  0  0
  184.8110  173.3050  136.7130 C   0  0  0  0  0  0  0  0  0  0  0  0
  181.3970  171.0580  136.2040 N   0  0  0  0  0  0  0  0  0  0  0  0
  180.0170  172.7100  137.3070 C   0  0  0  0  0  1  0  0  0  0  0  0
  182.8190  174.2050  136.8590 C   0  0  1  0  0  3  0  0  0  0  0  0
  181.3350  172.1850  136.8530 C   0  0  0  0  0  0  0  0  0  0  0  0
  183.8860  172.1820  137.0810 C   0  0  1  0  0  3  0  0  0  0  0  0
  182.5900  172.9180  137.0930 C   0  0  1  0  0  3  0  0  0  0  0  0
  183.8220  171.0770  136.0570 C   0  0  0  0  0  3  0  0  0  0  0  0
  184.2010  174.4440  136.6450 N   0  0  0  0  0  0  0  0  0  0  0  0
  181.7760  175.2260  136.5500 C   0  0  0  0  0  2  0  0  0  0  0  0
  182.4260  176.4730  135.9740 C   0  0  0  0  0  2  0  0  0  0  0  0
  182.4610  177.4550  138.1480 O   0  0  0  0  0  1  0  0  0  0  0  0
  182.0860  177.6870  136.8220 C   0  0  2  0  0  3  0  0  0  0  0  0
  180.1020  178.3310  138.0200 O   0  0  0  0  0  1  0  0  0  0  0  0
  180.6000  178.0220  136.7520 C   0  0  0  0  0  2  0  0  0  0  0  0
  1  8  1  0  0  0  0
  1 46  1  1  0  0  0
  3  7  1  0  0  0  0
  4  2  1  0  0  0  0
  4  6  1  0  0  0  0
  5  3  2  0  0  0  0
  5  2  1  0  0  0  0
  6  9  1  6  0  0  0
  7  8  2  0  0  0  0
  7  6  1  0  0  0  0
  9 10  1  0  0  0  0
 10 11  1  0  0  0  0
 13 14  1  0  0  0  0
 14 11  1  0  0  0  0
 14 12  1  0  0  0  0
 16 15  1  0  0  0  0
 16 14  1  0  0  0  0
 17  1  1  0  0  0  0
 17 19  1  0  0  0  0
 18 17  2  0  0  0  0
 19 20  1  0  0  0  0
 20 22  2  0  0  0  0
 21 20  2  0  0  0  0
 23 25  1  0  0  0  0
 23 24  1  0  0  0  0
 24 28  1  1  0  0  0
 25 20  1  6  0  0  0
 25 24  1  0  0  0  0
 28 26  2  0  0  0  0
 28 27  1  0  0  0  0
 30 34  1  0  0  0  0
 31 32  1  0  0  0  0
 32 44  1  1  0  0  0
 32 35  1  0  0  0  0
 33 30  1  0  0  0  0
 34 29  1  6  0  0  0
 34 39  1  0  0  0  0
 35 29  1  0  0  0  0
 35 36  1  1  0  0  0
 37 27  1  6  0  0  0
 37 31  1  0  0  0  0
 37 33  1  0  0  0  0
 39 43  1  6  0  0  0
 39 40  1  0  0  0  0
 40 38  1  0  0  0  0
 41 42  2  0  0  0  0
 42 38  1  0  0  0  0
 43 41  1  0  0  0  0
 45 44  1  0  0  0  0
 47 46  1  0  0  0  0
 47 48  1  0  0  0  0
 48 50  1  0  0  0  0
 49 57  2  0  0  0  0
 49 51  1  0  0  0  0
 50 55  1  0  0  0  0
 51 54  2  0  0  0  0
 53 59  1  6  0  0  0
 53 56  1  0  0  0  0
 54 52  1  0  0  0  0
 55 57  1  6  0  0  0
 55 56  1  0  0  0  0
 56 54  1  6  0  0  0
 58 50  2  0  0  0  0
 58 53  1  0  0  0  0
 60 59  1  0  0  0  0
 60 62  1  0  0  0  0
 62 61  1  1  0  0  0
 64 62  1  0  0  0  0
 64 63  1  0  0  0  0
M  END
>  <MODEL>
1

>  <REMARK>
 VINA RESULT:      -6.8      0.000      0.000
  Name = 
  22 active torsions:
  status: ('A' for Active; 'I' for Inactive)
    1  A    between atoms: C_5  and  C_40
    2  A    between atoms: C_7  and  C_8
    3  A    between atoms: C_7  and  C_43
    4  A    between atoms: C_8  and  C_33
    5  A    between atoms: C_9  and  C_43
    6  A    between atoms: C_9  and  C_53
    7  A    between atoms: S_13  and  C_53
    8  A    between atoms: S_13  and  C_63
    9  A    between atoms: C_14  and  C_38
   10  A    between atoms: C_16  and  C_34
   11  A    between atoms: C_16  and  O_56
   12  A    between atoms: C_20  and  C_33
   13  A    between atoms: N_21  and  C_59
   14  A    between atoms: C_25  and  C_27
   15  A    between atoms: C_30  and  C_35
   16  A    between atoms: C_34  and  C_45
   17  A    between atoms: C_35  and  C_47
   18  A    between atoms: C_43  and  N_60
   19  A    between atoms: C_44  and  C_45
   20  A    between atoms: C_47  and  C_57
   21  A    between atoms: C_50  and  O_56
   22  A    between atoms: C_54  and  C_57
                            x       y       z     vdW  Elec       q    Type
                         _______ _______ _______ _____ _____    ______ ____

>  <TORSDO>
F 22

$$$$
=
 OpenBabel10222419263D

 64 69  0  0  1  0  0  0  0  0999 V2000
  182.6650  177.5710  139.0190 C   0  0  2  0  0  3  0  0  0  0  0  0
  179.7600  173.8040  137.0930 C   0  0  0  0  0  2  0  0  0  0  0  0
  181.2850  175.0780  138.5620 C   0  0  0  0  0  3  0  0  0  0  0  0
  178.9310  175.0780  136.9710 C   0  0  0  0  0  2  0  0  0  0  0  0
  180.7200  173.9120  138.2420 C   0  0  0  0  0  3  0  0  0  0  0  0
  179.8460  176.2940  136.7890 C   0  0  2  0  0  3  0  0  0  0  0  0
  180.9320  176.3220  137.8380 C   0  0  0  0  0  0  0  0  0  0  0  0
  181.5960  177.4240  138.0340 N   0  0  0  0  0  0  0  0  0  0  0  0
  179.0710  177.4550  136.8660 O   0  0  0  0  0  0  0  0  0  0  0  0
  179.2180  178.0840  135.6250 C   0  0  0  0  0  2  0  0  0  0  0  0
  179.0070  179.5910  135.7510 C   0  0  0  0  0  2  0  0  0  0  0  0
  180.4080  181.1610  137.0120 C   0  0  0  0  0  1  0  0  0  0  0  0
  181.5220  179.5660  135.5360 C   0  0  0  0  0  1  0  0  0  0  0  0
  180.2860  180.4400  135.6890 C   0  0  0  0  0  0  0  0  0  0  0  0
  180.1860  182.8590  135.1460 N   0  0  0  0  0  1  0  0  0  0  0  0
  180.2240  181.5120  134.5940 C   0  0  0  0  0  2  0  0  0  0  0  0
  182.2400  178.4870  140.1280 C   0  0  0  0  0  0  0  0  0  0  0  0
  182.9580  179.4090  140.4860 O   0  0  0  0  0  0  0  0  0  0  0  0
  180.8890  178.3060  140.7480 C   0  0  0  0  0  2  0  0  0  0  0  0
  180.8670  178.8940  142.4300 S   0  0  0  0  0  0  0  0  0  0  0  0
  179.6530  178.3520  143.1340 O   0  0  0  0  0  0  0  0  0  0  0  0
  180.8180  180.3980  142.4360 O   0  0  0  0  0  0  0  0  0  0  0  0
  182.4000  178.8180  144.6620 C   0  0  0  0  0  2  0  0  0  0  0  0
  183.2690  179.4400  143.5860 C   0  0  2  0  0  3  0  0  0  0  0  0
  182.3360  178.2910  143.2470 C   0  0  2  0  0  3  0  0  0  0  0  0
  185.4990  179.2250  142.7750 O   0  0  0  0  0  0  0  0  0  0  0  0
  185.0730  178.1370  144.7970 N   0  0  0  0  0  2  0  0  0  0  0  0
  184.6690  178.9280  143.6760 C   0  0  0  0  0  0  0  0  0  0  0  0
  189.7160  178.2330  144.3850 C   0  0  0  0  0  2  0  0  0  0  0  0
  187.9100  176.7380  143.6520 O   0  0  0  0  0  0  0  0  0  0  0  0
  187.2650  178.5000  146.2970 S   0  0  0  0  0  0  0  0  0  0  0  0
  188.5550  177.2130  146.4320 C   0  0  1  0  0  3  0  0  0  0  0  0
  187.1280  177.8000  143.7440 O   0  0  0  0  0  0  0  0  0  0  0  0
  189.2150  177.1990  143.3640 C   0  0  1  0  0  3  0  0  0  0  0  0
  189.8740  177.6690  145.8010 C   0  0  1  0  0  3  0  0  0  0  0  0
  190.7990  176.6220  145.7960 O   0  0  0  0  0  1  0  0  0  0  0  0
  186.4250  177.6220  144.9410 C   0  0  2  0  0  3  0  0  0  0  0  0
  190.6200  177.7080  139.8050 C   0  0  0  0  0  2  0  0  0  0  0  0
  189.3140  177.7290  141.9290 C   0  0  1  0  0  3  0  0  0  0  0  0
  190.4520  177.0450  141.1710 C   0  0  0  0  0  2  0  0  0  0  0  0
  188.1230  177.7920  139.7040 C   0  0  0  0  0  3  0  0  0  0  0  0
  189.3080  177.8490  139.0740 C   0  0  0  0  0  3  0  0  0  0  0  0
  188.0050  177.4750  141.1730 C   0  0  0  0  0  2  0  0  0  0  0  0
  188.7750  176.8600  147.8950 C   0  0  0  0  0  2  0  0  0  0  0  0
  188.1780  177.9280  148.7920 C   0  0  0  0  0  1  0  0  0  0  0  0
  183.9690  178.0150  138.3570 C   0  0  0  0  0  2  0  0  0  0  0  0
  184.2950  177.2110  137.1030 C   0  0  0  0  0  2  0  0  0  0  0  0
  185.8010  177.1040  136.9470 C   0  0  0  0  0  2  0  0  0  0  0  0
  184.0570  172.7910  137.1380 C   0  0  0  0  0  3  0  0  0  0  0  0
  186.2530  175.6910  136.7490 C   0  0  0  0  0  0  0  0  0  0  0  0
  184.9160  171.8020  136.5340 N   0  0  0  0  0  0  0  0  0  0  0  0
  186.9400  171.0530  135.4430 C   0  0  0  0  0  1  0  0  0  0  0  0
  187.6380  174.0230  136.4330 C   0  0  1  0  0  3  0  0  0  0  0  0
  186.0650  172.1170  136.0110 C   0  0  0  0  0  0  0  0  0  0  0  0
  185.4330  174.5950  136.1360 C   0  0  1  0  0  3  0  0  0  0  0  0
  186.4720  173.5330  136.0280 C   0  0  1  0  0  3  0  0  0  0  0  0
  184.3070  174.1050  137.0120 C   0  0  0  0  0  3  0  0  0  0  0  0
  187.5020  175.3700  136.8580 N   0  0  0  0  0  0  0  0  0  0  0  0
  188.8650  173.2200  136.7070 C   0  0  0  0  0  2  0  0  0  0  0  0
  189.9860  174.1310  137.1770 C   0  0  0  0  0  2  0  0  0  0  0  0
  191.0520  172.9400  135.4070 O   0  0  0  0  0  1  0  0  0  0  0  0
  191.1510  174.0840  136.2020 C   0  0  2  0  0  3  0  0  0  0  0  0
  193.4700  173.4420  136.1780 O   0  0  0  0  0  1  0  0  0  0  0  0
  192.4920  174.0980  136.9300 C   0  0  0  0  0  2  0  0  0  0  0  0
  1 46  1  6  0  0  0
  1 17  1  0  0  0  0
  2  5  1  0  0  0  0
  4  2  1  0  0  0  0
  5  3  2  0  0  0  0
  6  9  1  1  0  0  0
  6  4  1  0  0  0  0
  6  7  1  0  0  0  0
  7  8  2  0  0  0  0
  7  3  1  0  0  0  0
  8  1  1  0  0  0  0
 10 11  1  0  0  0  0
 10  9  1  0  0  0  0
 13 14  1  0  0  0  0
 14 11  1  0  0  0  0
 14 12  1  0  0  0  0
 16 15  1  0  0  0  0
 16 14  1  0  0  0  0
 17 18  2  0  0  0  0
 17 19  1  0  0  0  0
 19 20  1  0  0  0  0
 20 22  2  0  0  0  0
 20 21  2  0  0  0  0
 24 28  1  1  0  0  0
 24 23  1  0  0  0  0
 25 20  1  6  0  0  0
 25 24  1  0  0  0  0
 25 23  1  0  0  0  0
 26 28  2  0  0  0  0
 28 27  1  0  0  0  0
 29 35  1  0  0  0  0
 30 33  1  0  0  0  0
 31 32  1  0  0  0  0
 32 44  1  1  0  0  0
 33 37  1  0  0  0  0
 34 30  1  0  0  0  0
 34 29  1  1  0  0  0
 35 36  1  6  0  0  0
 35 32  1  0  0  0  0
 37 27  1  6  0  0  0
 37 31  1  0  0  0  0
 38 40  1  0  0  0  0
 39 40  1  6  0  0  0
 39 34  1  0  0  0  0
 41 43  1  0  0  0  0
 42 41  2  0  0  0  0
 42 38  1  0  0  0  0
 43 39  1  0  0  0  0
 44 45  1  0  0  0  0
 47 46  1  0  0  0  0
 48 47  1  0  0  0  0
 50 58  2  0  0  0  0
 50 48  1  0  0  0  0
 51 49  1  0  0  0  0
 52 54  1  0  0  0  0
 53 59  1  1  0  0  0
 53 58  1  0  0  0  0
 54 51  2  0  0  0  0
 55 50  1  0  0  0  0
 55 57  1  1  0  0  0
 56 54  1  1  0  0  0
 56 55  1  0  0  0  0
 56 53  1  0  0  0  0
 57 49  2  0  0  0  0
 59 60  1  0  0  0  0
 62 61  1  1  0  0  0
 62 64  1  0  0  0  0
 62 60  1  0  0  0  0
 63 64  1  0  0  0  0
M  END
>  <MODEL>
2

>  <REMARK>
 VINA RESULT:      -6.4      3.126      9.311
  Name = 
  22 active torsions:
  status: ('A' for Active; 'I' for Inactive)
    1  A    between atoms: C_5  and  C_40
    2  A    between atoms: C_7  and  C_8
    3  A    between atoms: C_7  and  C_43
    4  A    between atoms: C_8  and  C_33
    5  A    between atoms: C_9  and  C_43
    6  A    between atoms: C_9  and  C_53
    7  A    between atoms: S_13  and  C_53
    8  A    between atoms: S_13  and  C_63
    9  A    between atoms: C_14  and  C_38
   10  A    between atoms: C_16  and  C_34
   11  A    between atoms: C_16  and  O_56
   12  A    between atoms: C_20  and  C_33
   13  A    between atoms: N_21  and  C_59
   14  A    between atoms: C_25  and  C_27
   15  A    between atoms: C_30  and  C_35
   16  A    between atoms: C_34  and  C_45
   17  A    between atoms: C_35  and  C_47
   18  A    between atoms: C_43  and  N_60
   19  A    between atoms: C_44  and  C_45
   20  A    between atoms: C_47  and  C_57
   21  A    between atoms: C_50  and  O_56
   22  A    between atoms: C_54  and  C_57
                            x       y       z     vdW  Elec       q    Type
                         _______ _______ _______ _____ _____    ______ ____

>  <TORSDO>
F 22

$$$$
=
 OpenBabel10222419263D

 64 69  0  0  1  0  0  0  0  0999 V2000
  181.8230  177.2770  139.6170 C   0  0  2  0  0  3  0  0  0  0  0  0
  179.7800  174.4320  135.8660 C   0  0  0  0  0  2  0  0  0  0  0  0
  180.7790  175.1100  138.0220 C   0  0  0  0  0  3  0  0  0  0  0  0
  178.9310  175.6960  135.9460 C   0  0  0  0  0  2  0  0  0  0  0  0
  180.3970  174.1300  137.2010 C   0  0  0  0  0  3  0  0  0  0  0  0
  179.7780  176.8800  136.4220 C   0  0  2  0  0  3  0  0  0  0  0  0
  180.5470  176.5320  137.6750 C   0  0  0  0  0  0  0  0  0  0  0  0
  181.0620  177.4900  138.3890 N   0  0  0  0  0  0  0  0  0  0  0  0
  178.9350  177.9700  136.6600 O   0  0  0  0  0  0  0  0  0  0  0  0
  179.7510  179.1010  136.5560 C   0  0  0  0  0  2  0  0  0  0  0  0
  178.9870  180.3600  136.9610 C   0  0  0  0  0  2  0  0  0  0  0  0
  181.1620  181.2430  137.6720 C   0  0  0  0  0  1  0  0  0  0  0  0
  180.1230  182.2210  135.6890 C   0  0  0  0  0  1  0  0  0  0  0  0
  179.8340  181.6370  137.0650 C   0  0  0  0  0  0  0  0  0  0  0  0
  179.4860  182.4120  139.3960 N   0  0  0  0  0  1  0  0  0  0  0  0
  179.2050  182.6830  137.9930 C   0  0  0  0  0  2  0  0  0  0  0  0
  181.2900  178.1360  140.7260 C   0  0  0  0  0  0  0  0  0  0  0  0
  180.9000  179.2730  140.5030 O   0  0  0  0  0  0  0  0  0  0  0  0
  181.1690  177.5600  142.1030 C   0  0  0  0  0  2  0  0  0  0  0  0
  181.2390  178.8360  143.3440 S   0  0  0  0  0  0  0  0  0  0  0  0
  180.4750  178.3940  144.5610 O   0  0  0  0  0  0  0  0  0  0  0  0
  180.6280  180.0990  142.8010 O   0  0  0  0  0  0  0  0  0  0  0  0
  183.5270  180.2490  143.0140 C   0  0  0  0  0  2  0  0  0  0  0  0
  183.8550  178.8290  142.5940 C   0  0  2  0  0  3  0  0  0  0  0  0
  182.9520  179.0850  143.7870 C   0  0  2  0  0  3  0  0  0  0  0  0
  186.2310  178.7910  142.4260 O   0  0  0  0  0  0  0  0  0  0  0  0
  185.3530  177.6870  144.2870 N   0  0  0  0  0  2  0  0  0  0  0  0
  185.2120  178.4340  143.0760 C   0  0  0  0  0  0  0  0  0  0  0  0
  189.9270  178.1210  145.0830 C   0  0  0  0  0  2  0  0  0  0  0  0
  188.4720  176.4580  144.0080 O   0  0  0  0  0  0  0  0  0  0  0  0
  187.0480  178.2880  146.2760 S   0  0  0  0  0  0  0  0  0  0  0  0
  188.3350  177.1120  146.8230 C   0  0  1  0  0  3  0  0  0  0  0  0
  187.6290  177.4600  143.8250 O   0  0  0  0  0  0  0  0  0  0  0  0
  189.7750  177.0050  144.0360 C   0  0  1  0  0  3  0  0  0  0  0  0
  189.7430  177.6380  146.5250 C   0  0  1  0  0  3  0  0  0  0  0  0
  190.6990  176.6670  146.8270 O   0  0  0  0  0  1  0  0  0  0  0  0
  186.6490  177.2850  144.8090 C   0  0  2  0  0  3  0  0  0  0  0  0
  191.9950  177.3830  140.9000 C   0  0  0  0  0  2  0  0  0  0  0  0
  190.2150  177.4730  142.6440 C   0  0  1  0  0  3  0  0  0  0  0  0
  191.5070  176.7770  142.2160 C   0  0  0  0  0  2  0  0  0  0  0  0
  189.5950  177.4150  140.1980 C   0  0  0  0  0  3  0  0  0  0  0  0
  190.8970  177.4670  139.8700 C   0  0  0  0  0  3  0  0  0  0  0  0
  189.1290  177.1610  141.6090 C   0  0  0  0  0  2  0  0  0  0  0  0
  188.1860  176.8460  148.3130 C   0  0  0  0  0  2  0  0  0  0  0  0
  187.9630  178.1470  149.0610 C   0  0  0  0  0  1  0  0  0  0  0  0
  183.3190  177.4820  139.3830 C   0  0  0  0  0  2  0  0  0  0  0  0
  183.6080  178.4980  138.2830 C   0  0  0  0  0  2  0  0  0  0  0  0
  185.0920  178.8150  138.2620 C   0  0  0  0  0  2  0  0  0  0  0  0
  189.3310  178.0940  136.4780 C   0  0  0  0  0  3  0  0  0  0  0  0
  185.9050  177.6930  137.6980 C   0  0  0  0  0  0  0  0  0  0  0  0
  189.6770  176.6960  136.3770 N   0  0  0  0  0  0  0  0  0  0  0  0
  189.2370  174.3270  136.5750 C   0  0  0  0  0  1  0  0  0  0  0  0
  186.3560  175.6900  136.9320 C   0  0  1  0  0  3  0  0  0  0  0  0
  188.8540  175.7570  136.7430 C   0  0  0  0  0  0  0  0  0  0  0  0
  187.3820  177.5070  137.8940 C   0  0  1  0  0  3  0  0  0  0  0  0
  187.5470  176.1530  137.2940 C   0  0  1  0  0  3  0  0  0  0  0  0
  188.2320  178.4960  137.1360 C   0  0  0  0  0  3  0  0  0  0  0  0
  185.3370  176.6400  137.2060 N   0  0  0  0  0  0  0  0  0  0  0  0
  186.1170  174.4880  136.0810 C   0  0  0  0  0  2  0  0  0  0  0  0
  185.9830  173.2530  136.9560 C   0  0  0  0  0  2  0  0  0  0  0  0
  184.6400  172.7020  135.0630 O   0  0  0  0  0  1  0  0  0  0  0  0
  184.9850  172.2800  136.3490 C   0  0  2  0  0  3  0  0  0  0  0  0
  182.7290  171.4640  136.5240 O   0  0  0  0  0  1  0  0  0  0  0  0
  183.7320  172.1530  137.2090 C   0  0  0  0  0  2  0  0  0  0  0  0
  1 46  1  6  0  0  0
  1 17  1  0  0  0  0
  2  4  1  0  0  0  0
  2  5  1  0  0  0  0
  4  6  1  0  0  0  0
  5  3  2  0  0  0  0
  6  9  1  1  0  0  0
  6  7  1  0  0  0  0
  7  3  1  0  0  0  0
  7  8  2  0  0  0  0
  8  1  1  0  0  0  0
 10  9  1  0  0  0  0
 10 11  1  0  0  0  0
 11 14  1  0  0  0  0
 13 14  1  0  0  0  0
 14 12  1  0  0  0  0
 14 16  1  0  0  0  0
 16 15  1  0  0  0  0
 17 19  1  0  0  0  0
 18 17  2  0  0  0  0
 19 20  1  0  0  0  0
 20 21  2  0  0  0  0
 22 20  2  0  0  0  0
 23 25  1  0  0  0  0
 24 23  1  0  0  0  0
 24 28  1  1  0  0  0
 24 25  1  0  0  0  0
 25 20  1  6  0  0  0
 26 28  2  0  0  0  0
 28 27  1  0  0  0  0
 29 35  1  0  0  0  0
 30 34  1  0  0  0  0
 31 32  1  0  0  0  0
 32 44  1  1  0  0  0
 33 30  1  0  0  0  0
 33 37  1  0  0  0  0
 34 29  1  1  0  0  0
 35 32  1  0  0  0  0
 35 36  1  6  0  0  0
 37 27  1  6  0  0  0
 37 31  1  0  0  0  0
 38 40  1  0  0  0  0
 39 43  1  6  0  0  0
 39 34  1  0  0  0  0
 40 39  1  0  0  0  0
 41 43  1  0  0  0  0
 42 41  2  0  0  0  0
 42 38  1  0  0  0  0
 44 45  1  0  0  0  0
 47 46  1  0  0  0  0
 48 47  1  0  0  0  0
 49 57  2  0  0  0  0
 50 55  1  0  0  0  0
 50 48  1  0  0  0  0
 51 49  1  0  0  0  0
 51 54  2  0  0  0  0
 52 54  1  0  0  0  0
 53 59  1  6  0  0  0
 53 58  1  0  0  0  0
 53 56  1  0  0  0  0
 55 57  1  6  0  0  0
 56 54  1  6  0  0  0
 56 55  1  0  0  0  0
 58 50  2  0  0  0  0
 59 60  1  0  0  0  0
 62 61  1  6  0  0  0
 62 60  1  0  0  0  0
 62 64  1  0  0  0  0
 63 64  1  0  0  0  0
M  END
>  <MODEL>
3

>  <REMARK>
 VINA RESULT:      -5.4      3.833      9.466
  Name = 
  22 active torsions:
  status: ('A' for Active; 'I' for Inactive)
    1  A    between atoms: C_5  and  C_40
    2  A    between atoms: C_7  and  C_8
    3  A    between atoms: C_7  and  C_43
    4  A    between atoms: C_8  and  C_33
    5  A    between atoms: C_9  and  C_43
    6  A    between atoms: C_9  and  C_53
    7  A    between atoms: S_13  and  C_53
    8  A    between atoms: S_13  and  C_63
    9  A    between atoms: C_14  and  C_38
   10  A    between atoms: C_16  and  C_34
   11  A    between atoms: C_16  and  O_56
   12  A    between atoms: C_20  and  C_33
   13  A    between atoms: N_21  and  C_59
   14  A    between atoms: C_25  and  C_27
   15  A    between atoms: C_30  and  C_35
   16  A    between atoms: C_34  and  C_45
   17  A    between atoms: C_35  and  C_47
   18  A    between atoms: C_43  and  N_60
   19  A    between atoms: C_44  and  C_45
   20  A    between atoms: C_47  and  C_57
   21  A    between atoms: C_50  and  O_56
   22  A    between atoms: C_54  and  C_57
                            x       y       z     vdW  Elec       q    Type
                         _______ _______ _______ _____ _____    ______ ____

>  <TORSDO>
F 22

$$$$
=
 OpenBabel10222419263D

 64 69  0  0  1  0  0  0  0  0999 V2000
  187.5730  176.8280  136.2700 C   0  0  2  0  0  3  0  0  0  0  0  0
  189.5500  172.3960  134.5990 C   0  0  0  0  0  2  0  0  0  0  0  0
  189.2590  174.5310  135.8090 C   0  0  0  0  0  3  0  0  0  0  0  0
  188.0770  172.1200  134.8820 C   0  0  0  0  0  2  0  0  0  0  0  0
  190.0500  173.5110  135.4710 C   0  0  0  0  0  3  0  0  0  0  0  0
  187.2430  173.3850  134.6590 C   0  0  2  0  0  3  0  0  0  0  0  0
  187.8370  174.5660  135.3920 C   0  0  0  0  0  0  0  0  0  0  0  0
  187.1090  175.6290  135.5770 N   0  0  0  0  0  0  0  0  0  0  0  0
  185.9390  173.1490  135.1020 O   0  0  0  0  0  0  0  0  0  0  0  0
  185.9440  171.8410  135.5970 C   0  0  0  0  0  2  0  0  0  0  0  0
  184.5690  171.1960  135.4400 C   0  0  0  0  0  2  0  0  0  0  0  0
  182.8690  170.7540  137.1520 C   0  0  0  0  0  1  0  0  0  0  0  0
  183.9860  172.9250  137.1840 C   0  0  0  0  0  1  0  0  0  0  0  0
  183.4450  171.8370  136.2690 C   0  0  0  0  0  0  0  0  0  0  0  0
  182.2250  173.8190  135.4060 N   0  0  0  0  0  1  0  0  0  0  0  0
  182.3000  172.3640  135.3940 C   0  0  0  0  0  2  0  0  0  0  0  0
  187.6900  176.5750  137.7440 C   0  0  0  0  0  0  0  0  0  0  0  0
  186.8400  176.9900  138.5180 O   0  0  0  0  0  0  0  0  0  0  0  0
  188.8250  175.7420  138.2550 C   0  0  0  0  0  2  0  0  0  0  0  0
  190.3290  176.6920  138.3520 S   0  0  0  0  0  0  0  0  0  0  0  0
  190.4210  177.6080  137.1630 O   0  0  0  0  0  0  0  0  0  0  0  0
  191.5120  175.7610  138.3600 O   0  0  0  0  0  0  0  0  0  0  0  0
  191.5300  177.4730  140.6520 C   0  0  0  0  0  2  0  0  0  0  0  0
  190.2470  176.7800  141.0710 C   0  0  2  0  0  3  0  0  0  0  0  0
  190.2680  177.6740  139.8430 C   0  0  2  0  0  3  0  0  0  0  0  0
  190.2380  178.4040  142.8140 O   0  0  0  0  0  0  0  0  0  0  0  0
  188.2440  177.2150  142.5600 N   0  0  0  0  0  2  0  0  0  0  0  0
  189.5970  177.5090  142.2010 C   0  0  0  0  0  0  0  0  0  0  0  0
  184.6580  178.1660  145.3840 C   0  0  0  0  0  2  0  0  0  0  0  0
  186.0630  179.4420  143.8240 O   0  0  0  0  0  0  0  0  0  0  0  0
  187.4430  176.7910  145.0830 S   0  0  0  0  0  0  0  0  0  0  0  0
  187.0830  178.1780  146.2180 C   0  0  1  0  0  3  0  0  0  0  0  0
  186.2790  178.2820  143.2260 O   0  0  0  0  0  0  0  0  0  0  0  0
  184.7900  179.3690  144.4350 C   0  0  1  0  0  3  0  0  0  0  0  0
  185.5990  178.2300  146.5910 C   0  0  1  0  0  3  0  0  0  0  0  0
  185.3260  179.3730  147.3460 O   0  0  0  0  0  1  0  0  0  0  0  0
  187.5590  177.9000  143.6440 C   0  0  2  0  0  3  0  0  0  0  0  0
  182.8280  178.4590  141.2380 C   0  0  0  0  0  2  0  0  0  0  0  0
  183.6670  179.3930  143.3920 C   0  0  1  0  0  3  0  0  0  0  0  0
  183.8730  178.3020  142.3420 C   0  0  0  0  0  2  0  0  0  0  0  0
  181.1990  178.9810  143.0620 C   0  0  0  0  0  3  0  0  0  0  0  0
  181.4340  178.6110  141.7920 C   0  0  0  0  0  3  0  0  0  0  0  0
  182.3090  179.1690  144.0650 C   0  0  0  0  0  2  0  0  0  0  0  0
  187.9290  178.0450  147.4750 C   0  0  0  0  0  2  0  0  0  0  0  0
  189.3590  177.6890  147.1130 C   0  0  0  0  0  1  0  0  0  0  0  0
  186.6860  178.0300  135.9490 C   0  0  0  0  0  2  0  0  0  0  0  0
  185.4330  178.0840  136.8160 C   0  0  0  0  0  2  0  0  0  0  0  0
  184.3640  177.1860  136.2210 C   0  0  0  0  0  2  0  0  0  0  0  0
  180.9980  175.3630  138.8720 C   0  0  0  0  0  3  0  0  0  0  0  0
  182.9930  177.5360  136.7060 C   0  0  0  0  0  0  0  0  0  0  0  0
  179.9840  176.3200  139.2430 N   0  0  0  0  0  0  0  0  0  0  0  0
  178.9330  178.4970  139.2130 C   0  0  0  0  0  1  0  0  0  0  0  0
  181.1120  178.6490  136.8640 C   0  0  1  0  0  3  0  0  0  0  0  0
  180.0290  177.5580  138.8440 C   0  0  0  0  0  0  0  0  0  0  0  0
  182.4430  177.2100  138.0640 C   0  0  1  0  0  3  0  0  0  0  0  0
  181.1680  177.9790  138.0100 C   0  0  1  0  0  3  0  0  0  0  0  0
  182.1360  175.7480  138.2690 C   0  0  0  0  0  3  0  0  0  0  0  0
  182.2580  178.3880  136.0680 N   0  0  0  0  0  0  0  0  0  0  0  0
  179.9040  179.3370  136.3230 C   0  0  0  0  0  2  0  0  0  0  0  0
  180.2830  180.1700  135.1100 C   0  0  0  0  0  2  0  0  0  0  0  0
  180.8060  182.4660  134.7300 O   0  0  0  0  0  1  0  0  0  0  0  0
  179.8590  181.6160  135.3070 C   0  0  2  0  0  3  0  0  0  0  0  0
  180.8480  182.5390  137.2970 O   0  0  0  0  0  1  0  0  0  0  0  0
  179.6880  181.9540  136.7840 C   0  0  0  0  0  2  0  0  0  0  0  0
  1 46  1  1  0  0  0
  1 17  1  0  0  0  0
  2  4  1  0  0  0  0
  2  5  1  0  0  0  0
  5  3  2  0  0  0  0
  6  4  1  0  0  0  0
  6  9  1  1  0  0  0
  6  7  1  0  0  0  0
  7  8  2  0  0  0  0
  7  3  1  0  0  0  0
  8  1  1  0  0  0  0
  9 10  1  0  0  0  0
 11 10  1  0  0  0  0
 11 14  1  0  0  0  0
 14 12  1  0  0  0  0
 14 13  1  0  0  0  0
 16 15  1  0  0  0  0
 16 14  1  0  0  0  0
 17 19  1  0  0  0  0
 17 18  2  0  0  0  0
 19 20  1  0  0  0  0
 20 22  2  0  0  0  0
 21 20  2  0  0  0  0
 23 24  1  0  0  0  0
 24 28  1  1  0  0  0
 25 20  1  6  0  0  0
 25 23  1  0  0  0  0
 25 24  1  0  0  0  0
 28 27  1  0  0  0  0
 28 26  2  0  0  0  0
 29 35  1  0  0  0  0
 30 34  1  0  0  0  0
 31 32  1  0  0  0  0
 32 35  1  0  0  0  0
 32 44  1  1  0  0  0
 33 37  1  0  0  0  0
 33 30  1  0  0  0  0
 34 29  1  6  0  0  0
 35 36  1  6  0  0  0
 37 27  1  6  0  0  0
 37 31  1  0  0  0  0
 38 42  1  0  0  0  0
 38 40  1  0  0  0  0
 39 40  1  6  0  0  0
 39 43  1  0  0  0  0
 39 34  1  0  0  0  0
 41 43  1  0  0  0  0
 42 41  2  0  0  0  0
 45 44  1  0  0  0  0
 46 47  1  0  0  0  0
 48 50  1  0  0  0  0
 48 47  1  0  0  0  0
 49 51  1  0  0  0  0
 50 55  1  0  0  0  0
 53 59  1  6  0  0  0
 53 56  1  0  0  0  0
 54 52  1  0  0  0  0
 54 51  2  0  0  0  0
 55 57  1  6  0  0  0
 56 55  1  0  0  0  0
 56 54  1  6  0  0  0
 57 49  2  0  0  0  0
 58 50  2  0  0  0  0
 58 53  1  0  0  0  0
 60 62  1  0  0  0  0
 60 59  1  0  0  0  0
 62 61  1  1  0  0  0
 62 64  1  0  0  0  0
 64 63  1  0  0  0  0
M  END
>  <MODEL>
4

>  <REMARK>
 VINA RESULT:      -5.2      3.100      6.502
  Name = 
  22 active torsions:
  status: ('A' for Active; 'I' for Inactive)
    1  A    between atoms: C_5  and  C_40
    2  A    between atoms: C_7  and  C_8
    3  A    between atoms: C_7  and  C_43
    4  A    between atoms: C_8  and  C_33
    5  A    between atoms: C_9  and  C_43
    6  A    between atoms: C_9  and  C_53
    7  A    between atoms: S_13  and  C_53
    8  A    between atoms: S_13  and  C_63
    9  A    between atoms: C_14  and  C_38
   10  A    between atoms: C_16  and  C_34
   11  A    between atoms: C_16  and  O_56
   12  A    between atoms: C_20  and  C_33
   13  A    between atoms: N_21  and  C_59
   14  A    between atoms: C_25  and  C_27
   15  A    between atoms: C_30  and  C_35
   16  A    between atoms: C_34  and  C_45
   17  A    between atoms: C_35  and  C_47
   18  A    between atoms: C_43  and  N_60
   19  A    between atoms: C_44  and  C_45
   20  A    between atoms: C_47  and  C_57
   21  A    between atoms: C_50  and  O_56
   22  A    between atoms: C_54  and  C_57
                            x       y       z     vdW  Elec       q    Type
                         _______ _______ _______ _____ _____    ______ ____

>  <TORSDO>
F 22

$$$$
=
 OpenBabel10222419263D

 64 69  0  0  1  0  0  0  0  0999 V2000
  186.3710  178.5030  141.4980 C   0  0  2  0  0  3  0  0  0  0  0  0
  181.5470  179.0050  143.1760 C   0  0  0  0  0  2  0  0  0  0  0  0
  183.9870  179.2970  142.9170 C   0  0  0  0  0  3  0  0  0  0  0  0
  181.4630  178.9820  141.6530 C   0  0  0  0  0  2  0  0  0  0  0  0
  182.8790  179.5400  143.6180 C   0  0  0  0  0  3  0  0  0  0  0  0
  182.5990  178.1370  141.0680 C   0  0  2  0  0  3  0  0  0  0  0  0
  183.9360  178.5480  141.6400 C   0  0  0  0  0  0  0  0  0  0  0  0
  185.0260  178.1670  141.0400 N   0  0  0  0  0  0  0  0  0  0  0  0
  182.6020  178.2870  139.6780 O   0  0  0  0  0  0  0  0  0  0  0  0
  181.3100  177.9470  139.2640 C   0  0  0  0  0  2  0  0  0  0  0  0
  181.3560  176.9770  138.0850 C   0  0  0  0  0  2  0  0  0  0  0  0
  181.6300  174.7220  137.1630 C   0  0  0  0  0  1  0  0  0  0  0  0
  182.9350  175.3150  139.1400 C   0  0  0  0  0  1  0  0  0  0  0  0
  181.5890  175.5050  138.4550 C   0  0  0  0  0  0  0  0  0  0  0  0
  179.2630  174.6420  138.5010 N   0  0  0  0  0  1  0  0  0  0  0  0
  180.4480  174.9250  139.3000 C   0  0  0  0  0  2  0  0  0  0  0  0
  187.3280  178.5480  140.3420 C   0  0  0  0  0  0  0  0  0  0  0  0
  188.5190  178.7510  140.5250 O   0  0  0  0  0  0  0  0  0  0  0  0
  186.8190  178.2670  138.9620 C   0  0  0  0  0  2  0  0  0  0  0  0
  188.0700  178.5920  137.7350 S   0  0  0  0  0  0  0  0  0  0  0  0
  189.1600  179.4320  138.3420 O   0  0  0  0  0  0  0  0  0  0  0  0
  187.4570  179.3290  136.5760 O   0  0  0  0  0  0  0  0  0  0  0  0
  188.2120  175.9070  138.0740 C   0  0  0  0  0  2  0  0  0  0  0  0
  189.6150  176.4290  138.3180 C   0  0  2  0  0  3  0  0  0  0  0  0
  188.7570  177.0270  137.2170 C   0  0  2  0  0  3  0  0  0  0  0  0
  190.3300  174.3130  137.4880 O   0  0  0  0  0  0  0  0  0  0  0  0
  191.9230  176.0160  137.3590 N   0  0  0  0  0  2  0  0  0  0  0  0
  190.6310  175.5170  137.7130 C   0  0  0  0  0  0  0  0  0  0  0  0
  195.4970  173.0220  137.3630 C   0  0  0  0  0  2  0  0  0  0  0  0
  195.0810  175.2710  136.4680 O   0  0  0  0  0  0  0  0  0  0  0  0
  192.4420  173.4300  136.8770 S   0  0  0  0  0  0  0  0  0  0  0  0
  193.6410  172.9180  135.5960 C   0  0  1  0  0  3  0  0  0  0  0  0
  194.1650  175.3710  137.4180 O   0  0  0  0  0  0  0  0  0  0  0  0
  196.0750  174.3810  136.9350 C   0  0  1  0  0  3  0  0  0  0  0  0
  194.8650  172.2330  136.2120 C   0  0  1  0  0  3  0  0  0  0  0  0
  195.8230  171.9750  135.2290 O   0  0  0  0  0  1  0  0  0  0  0  0
  192.9460  175.1750  136.7580 C   0  0  2  0  0  3  0  0  0  0  0  0
  197.0540  175.5500  140.4800 C   0  0  0  0  0  2  0  0  0  0  0  0
  196.9140  175.0150  138.0490 C   0  0  1  0  0  3  0  0  0  0  0  0
  196.2790  174.7730  139.4180 C   0  0  0  0  0  2  0  0  0  0  0  0
  199.1250  174.8640  139.2580 C   0  0  0  0  0  3  0  0  0  0  0  0
  198.5430  175.3290  140.3760 C   0  0  0  0  0  3  0  0  0  0  0  0
  198.3270  174.4220  138.0570 C   0  0  0  0  0  2  0  0  0  0  0  0
  192.9650  171.9810  134.6070 C   0  0  0  0  0  2  0  0  0  0  0  0
  191.4620  171.9910  134.8140 C   0  0  0  0  0  1  0  0  0  0  0  0
  186.8320  177.5540  142.6040 C   0  0  0  0  0  2  0  0  0  0  0  0
  185.7760  177.3590  143.6870 C   0  0  0  0  0  2  0  0  0  0  0  0
  186.1150  178.2240  144.8870 C   0  0  0  0  0  2  0  0  0  0  0  0
  188.5660  178.2500  148.8460 C   0  0  0  0  0  3  0  0  0  0  0  0
  187.5270  178.0350  145.3440 C   0  0  0  0  0  0  0  0  0  0  0  0
  189.8870  177.6860  148.7020 N   0  0  0  0  0  0  0  0  0  0  0  0
  191.7120  176.7130  147.4500 C   0  0  0  0  0  1  0  0  0  0  0  0
  189.6990  177.7840  145.1940 C   0  0  1  0  0  3  0  0  0  0  0  0
  190.3230  177.2400  147.5600 C   0  0  0  0  0  0  0  0  0  0  0  0
  187.9450  177.3580  146.6170 C   0  0  1  0  0  3  0  0  0  0  0  0
  189.4180  177.3000  146.3990 C   0  0  1  0  0  3  0  0  0  0  0  0
  187.6560  178.1570  147.8630 C   0  0  0  0  0  3  0  0  0  0  0  0
  188.5200  178.2180  144.5340 N   0  0  0  0  0  0  0  0  0  0  0  0
  191.0630  178.1230  144.6950 C   0  0  0  0  0  2  0  0  0  0  0  0
  191.0790  178.1000  143.1760 C   0  0  0  0  0  2  0  0  0  0  0  0
  189.8450  176.1150  142.7010 O   0  0  0  0  0  1  0  0  0  0  0  0
  191.1270  176.6680  142.6680 C   0  0  2  0  0  3  0  0  0  0  0  0
  191.4700  174.6230  143.8870 O   0  0  0  0  0  1  0  0  0  0  0  0
  192.0850  175.8130  143.4900 C   0  0  0  0  0  2  0  0  0  0  0  0
  1 46  1  1  0  0  0
  2  5  1  0  0  0  0
  3  5  2  0  0  0  0
  4  2  1  0  0  0  0
  6  9  1  6  0  0  0
  6  7  1  0  0  0  0
  6  4  1  0  0  0  0
  7  3  1  0  0  0  0
  8  1  1  0  0  0  0
  8  7  2  0  0  0  0
 10  9  1  0  0  0  0
 11 14  1  0  0  0  0
 11 10  1  0  0  0  0
 12 14  1  0  0  0  0
 14 13  1  0  0  0  0
 14 16  1  0  0  0  0
 15 16  1  0  0  0  0
 17 18  2  0  0  0  0
 17  1  1  0  0  0  0
 19 17  1  0  0  0  0
 20 21  2  0  0  0  0
 20 19  1  0  0  0  0
 22 20  2  0  0  0  0
 23 24  1  0  0  0  0
 24 28  1  6  0  0  0
 25 20  1  1  0  0  0
 25 23  1  0  0  0  0
 25 24  1  0  0  0  0
 26 28  2  0  0  0  0
 27 28  1  0  0  0  0
 30 34  1  0  0  0  0
 30 33  1  0  0  0  0
 32 44  1  6  0  0  0
 32 35  1  0  0  0  0
 32 31  1  0  0  0  0
 34 29  1  1  0  0  0
 34 39  1  0  0  0  0
 35 36  1  6  0  0  0
 35 29  1  0  0  0  0
 37 31  1  0  0  0  0
 37 27  1  1  0  0  0
 37 33  1  0  0  0  0
 39 43  1  1  0  0  0
 39 40  1  0  0  0  0
 40 38  1  0  0  0  0
 41 42  2  0  0  0  0
 42 38  1  0  0  0  0
 43 41  1  0  0  0  0
 44 45  1  0  0  0  0
 46 47  1  0  0  0  0
 47 48  1  0  0  0  0
 48 50  1  0  0  0  0
 50 55  1  0  0  0  0
 51 49  1  0  0  0  0
 52 54  1  0  0  0  0
 53 59  1  1  0  0  0
 53 56  1  0  0  0  0
 54 51  2  0  0  0  0
 55 57  1  1  0  0  0
 56 55  1  0  0  0  0
 56 54  1  1  0  0  0
 57 49  2  0  0  0  0
 58 53  1  0  0  0  0
 58 50  2  0  0  0  0
 60 59  1  0  0  0  0
 62 61  1  1  0  0  0
 62 60  1  0  0  0  0
 62 64  1  0  0  0  0
 64 63  1  0  0  0  0
M  END
>  <MODEL>
5

>  <REMARK>
 VINA RESULT:      -4.9      2.602     11.848
  Name = 
  22 active torsions:
  status: ('A' for Active; 'I' for Inactive)
    1  A    between atoms: C_5  and  C_40
    2  A    between atoms: C_7  and  C_8
    3  A    between atoms: C_7  and  C_43
    4  A    between atoms: C_8  and  C_33
    5  A    between atoms: C_9  and  C_43
    6  A    between atoms: C_9  and  C_53
    7  A    between atoms: S_13  and  C_53
    8  A    between atoms: S_13  and  C_63
    9  A    between atoms: C_14  and  C_38
   10  A    between atoms: C_16  and  C_34
   11  A    between atoms: C_16  and  O_56
   12  A    between atoms: C_20  and  C_33
   13  A    between atoms: N_21  and  C_59
   14  A    between atoms: C_25  and  C_27
   15  A    between atoms: C_30  and  C_35
   16  A    between atoms: C_34  and  C_45
   17  A    between atoms: C_35  and  C_47
   18  A    between atoms: C_43  and  N_60
   19  A    between atoms: C_44  and  C_45
   20  A    between atoms: C_47  and  C_57
   21  A    between atoms: C_50  and  O_56
   22  A    between atoms: C_54  and  C_57
                            x       y       z     vdW  Elec       q    Type
                         _______ _______ _______ _____ _____    ______ ____

>  <TORSDO>
F 22

$$$$
=
 OpenBabel10222419263D

 64 69  0  0  1  0  0  0  0  0999 V2000
  182.3270  177.4020  139.2240 C   0  0  2  0  0  3  0  0  0  0  0  0
  179.7360  180.8420  136.4330 C   0  0  0  0  0  2  0  0  0  0  0  0
  181.4050  179.8150  137.9380 C   0  0  0  0  0  3  0  0  0  0  0  0
  179.8820  179.6080  135.5500 C   0  0  0  0  0  2  0  0  0  0  0  0
  180.8690  180.9190  137.4160 C   0  0  0  0  0  3  0  0  0  0  0  0
  179.9310  178.3400  136.4080 C   0  0  2  0  0  3  0  0  0  0  0  0
  180.9490  178.4700  137.5170 C   0  0  0  0  0  0  0  0  0  0  0  0
  181.3490  177.4000  138.1390 N   0  0  0  0  0  0  0  0  0  0  0  0
  180.2490  177.2530  135.5870 O   0  0  0  0  0  0  0  0  0  0  0  0
  179.0790  176.4900  135.5100 C   0  0  0  0  0  2  0  0  0  0  0  0
  179.3570  175.1350  134.8620 C   0  0  0  0  0  2  0  0  0  0  0  0
  179.1970  174.4220  137.2040 C   0  0  0  0  0  1  0  0  0  0  0  0
  178.9460  172.7200  135.4710 C   0  0  0  0  0  1  0  0  0  0  0  0
  179.6880  173.9960  135.8390 C   0  0  0  0  0  0  0  0  0  0  0  0
  181.5210  172.3280  135.9650 N   0  0  0  0  0  1  0  0  0  0  0  0
  181.1970  173.7480  135.9580 C   0  0  0  0  0  2  0  0  0  0  0  0
  181.8900  178.3190  140.3280 C   0  0  0  0  0  0  0  0  0  0  0  0
  182.1650  179.5100  140.2960 O   0  0  0  0  0  0  0  0  0  0  0  0
  181.0450  177.7760  141.4380 C   0  0  0  0  0  2  0  0  0  0  0  0
  181.4280  178.5690  142.9870 S   0  0  0  0  0  0  0  0  0  0  0  0
  180.5790  177.9750  144.0770 O   0  0  0  0  0  0  0  0  0  0  0  0
  181.1440  180.0430  142.8800 O   0  0  0  0  0  0  0  0  0  0  0  0
  183.6950  179.3630  144.2410 C   0  0  0  0  0  2  0  0  0  0  0  0
  184.0220  179.3570  142.7590 C   0  0  2  0  0  3  0  0  0  0  0  0
  183.1490  178.2670  143.3540 C   0  0  2  0  0  3  0  0  0  0  0  0
  185.7410  177.7380  143.0730 O   0  0  0  0  0  0  0  0  0  0  0  0
  186.2960  179.5060  141.6520 N   0  0  0  0  0  2  0  0  0  0  0  0
  185.3950  178.8180  142.5230 C   0  0  0  0  0  0  0  0  0  0  0  0
  189.7910  176.4200  141.7290 C   0  0  0  0  0  2  0  0  0  0  0  0
  189.4580  178.7290  142.5000 O   0  0  0  0  0  0  0  0  0  0  0  0
  187.5800  177.8100  140.0200 S   0  0  0  0  0  0  0  0  0  0  0  0
  189.3760  177.9530  139.7140 C   0  0  1  0  0  3  0  0  0  0  0  0
  188.1700  178.4280  142.5300 O   0  0  0  0  0  0  0  0  0  0  0  0
  190.1750  177.5310  142.7200 C   0  0  1  0  0  3  0  0  0  0  0  0
  190.1400  176.7490  140.2740 C   0  0  1  0  0  3  0  0  0  0  0  0
  191.5170  176.9460  140.1480 O   0  0  0  0  0  1  0  0  0  0  0  0
  187.6390  179.0210  141.3790 C   0  0  2  0  0  3  0  0  0  0  0  0
  191.1410  175.8590  146.0620 C   0  0  0  0  0  2  0  0  0  0  0  0
  190.0450  177.0620  144.1730 C   0  0  1  0  0  3  0  0  0  0  0  0
  191.3560  176.4560  144.6720 C   0  0  0  0  0  2  0  0  0  0  0  0
  189.7350  177.8700  146.5450 C   0  0  0  0  0  3  0  0  0  0  0  0
  190.4410  176.8190  146.9920 C   0  0  0  0  0  3  0  0  0  0  0  0
  189.6760  178.2380  145.0840 C   0  0  0  0  0  2  0  0  0  0  0  0
  189.6320  178.0810  138.2210 C   0  0  0  0  0  2  0  0  0  0  0  0
  188.5470  178.9160  137.5680 C   0  0  0  0  0  1  0  0  0  0  0  0
  183.7260  177.7300  138.7070 C   0  0  0  0  0  2  0  0  0  0  0  0
  183.9590  177.2340  137.2840 C   0  0  0  0  0  2  0  0  0  0  0  0
  185.4330  177.3480  136.9410 C   0  0  0  0  0  2  0  0  0  0  0  0
  184.7490  172.7900  137.5980 C   0  0  0  0  0  3  0  0  0  0  0  0
  186.0190  176.0420  136.5040 C   0  0  0  0  0  0  0  0  0  0  0  0
  185.4550  171.9650  136.6480 N   0  0  0  0  0  0  0  0  0  0  0  0
  186.9610  171.5840  134.7950 C   0  0  0  0  0  1  0  0  0  0  0  0
  187.4380  174.6590  135.5700 C   0  0  1  0  0  3  0  0  0  0  0  0
  186.2130  172.4780  135.7220 C   0  0  0  0  0  0  0  0  0  0  0  0
  185.2380  174.7930  136.2190 C   0  0  1  0  0  3  0  0  0  0  0  0
  186.3210  173.9450  135.6460 C   0  0  1  0  0  3  0  0  0  0  0  0
  184.6790  174.1230  137.4490 C   0  0  0  0  0  3  0  0  0  0  0  0
  187.2400  175.9670  136.0830 N   0  0  0  0  0  0  0  0  0  0  0  0
  188.7960  174.1120  135.2830 C   0  0  0  0  0  2  0  0  0  0  0  0
  189.6640  174.2010  136.5260 C   0  0  0  0  0  2  0  0  0  0  0  0
  191.9020  173.6400  137.1300 O   0  0  0  0  0  1  0  0  0  0  0  0
  191.1340  174.2630  136.1440 C   0  0  2  0  0  3  0  0  0  0  0  0
  191.5910  176.0470  134.5960 O   0  0  0  0  0  1  0  0  0  0  0  0
  191.6020  175.7010  135.9490 C   0  0  0  0  0  2  0  0  0  0  0  0
  1 46  1  6  0  0  0
  1 17  1  0  0  0  0
  2  5  1  0  0  0  0
  4  6  1  0  0  0  0
  4  2  1  0  0  0  0
  5  3  2  0  0  0  0
  6  9  1  6  0  0  0
  6  7  1  0  0  0  0
  7  3  1  0  0  0  0
  7  8  2  0  0  0  0
  8  1  1  0  0  0  0
 10  9  1  0  0  0  0
 11 10  1  0  0  0  0
 11 14  1  0  0  0  0
 13 14  1  0  0  0  0
 14 16  1  0  0  0  0
 14 12  1  0  0  0  0
 16 15  1  0  0  0  0
 17 19  1  0  0  0  0
 18 17  2  0  0  0  0
 19 20  1  0  0  0  0
 20 21  2  0  0  0  0
 22 20  2  0  0  0  0
 24 28  1  1  0  0  0
 24 25  1  0  0  0  0
 24 23  1  0  0  0  0
 25 20  1  6  0  0  0
 25 23  1  0  0  0  0
 27 28  1  0  0  0  0
 28 26  2  0  0  0  0
 30 33  1  0  0  0  0
 30 34  1  0  0  0  0
 31 37  1  0  0  0  0
 32 44  1  6  0  0  0
 32 31  1  0  0  0  0
 32 35  1  0  0  0  0
 34 29  1  6  0  0  0
 34 39  1  0  0  0  0
 35 36  1  1  0  0  0
 35 29  1  0  0  0  0
 37 27  1  1  0  0  0
 37 33  1  0  0  0  0
 38 42  1  0  0  0  0
 39 40  1  1  0  0  0
 39 43  1  0  0  0  0
 40 38  1  0  0  0  0
 41 42  2  0  0  0  0
 43 41  1  0  0  0  0
 45 44  1  0  0  0  0
 47 46  1  0  0  0  0
 48 47  1  0  0  0  0
 50 48  1  0  0  0  0
 51 49  1  0  0  0  0
 52 54  1  0  0  0  0
 53 59  1  1  0  0  0
 53 56  1  0  0  0  0
 53 58  1  0  0  0  0
 54 51  2  0  0  0  0
 55 50  1  0  0  0  0
 55 57  1  1  0  0  0
 56 54  1  1  0  0  0
 56 55  1  0  0  0  0
 57 49  2  0  0  0  0
 58 50  2  0  0  0  0
 59 60  1  0  0  0  0
 62 60  1  0  0  0  0
 62 61  1  1  0  0  0
 63 64  1  0  0  0  0
 64 62  1  0  0  0  0
M  END
>  <MODEL>
6

>  <REMARK>
 VINA RESULT:      -4.9      2.951      9.293
  Name = 
  22 active torsions:
  status: ('A' for Active; 'I' for Inactive)
    1  A    between atoms: C_5  and  C_40
    2  A    between atoms: C_7  and  C_8
    3  A    between atoms: C_7  and  C_43
    4  A    between atoms: C_8  and  C_33
    5  A    between atoms: C_9  and  C_43
    6  A    between atoms: C_9  and  C_53
    7  A    between atoms: S_13  and  C_53
    8  A    between atoms: S_13  and  C_63
    9  A    between atoms: C_14  and  C_38
   10  A    between atoms: C_16  and  C_34
   11  A    between atoms: C_16  and  O_56
   12  A    between atoms: C_20  and  C_33
   13  A    between atoms: N_21  and  C_59
   14  A    between atoms: C_25  and  C_27
   15  A    between atoms: C_30  and  C_35
   16  A    between atoms: C_34  and  C_45
   17  A    between atoms: C_35  and  C_47
   18  A    between atoms: C_43  and  N_60
   19  A    between atoms: C_44  and  C_45
   20  A    between atoms: C_47  and  C_57
   21  A    between atoms: C_50  and  O_56
   22  A    between atoms: C_54  and  C_57
                            x       y       z     vdW  Elec       q    Type
                         _______ _______ _______ _____ _____    ______ ____

>  <TORSDO>
F 22

$$$$
=
 OpenBabel10222419263D

 64 69  0  0  1  0  0  0  0  0999 V2000
  186.1900  178.5770  141.5040 C   0  0  2  0  0  3  0  0  0  0  0  0
  181.3100  179.1670  142.9770 C   0  0  0  0  0  2  0  0  0  0  0  0
  183.7710  179.3560  142.8720 C   0  0  0  0  0  3  0  0  0  0  0  0
  181.3080  179.2930  141.4580 C   0  0  0  0  0  2  0  0  0  0  0  0
  182.6380  179.5880  143.5360 C   0  0  0  0  0  3  0  0  0  0  0  0
  182.4340  178.4490  140.8510 C   0  0  2  0  0  3  0  0  0  0  0  0
  183.7550  178.7340  141.5270 C   0  0  0  0  0  0  0  0  0  0  0  0
  184.8580  178.3570  140.9480 N   0  0  0  0  0  0  0  0  0  0  0  0
  182.5210  178.7300  139.4840 O   0  0  0  0  0  0  0  0  0  0  0  0
  181.3360  179.4000  139.1660 C   0  0  0  0  0  2  0  0  0  0  0  0
  181.5280  180.2890  137.9390 C   0  0  0  0  0  2  0  0  0  0  0  0
  181.2250  182.6790  137.4790 C   0  0  0  0  0  1  0  0  0  0  0  0
  179.5880  181.1210  136.5550 C   0  0  0  0  0  1  0  0  0  0  0  0
  180.4770  181.3950  137.7590 C   0  0  0  0  0  0  0  0  0  0  0  0
  179.3040  183.0280  139.2140 N   0  0  0  0  0  1  0  0  0  0  0  0
  179.6440  181.6240  139.0260 C   0  0  0  0  0  2  0  0  0  0  0  0
  187.2210  178.5970  140.4140 C   0  0  0  0  0  0  0  0  0  0  0  0
  188.3550  178.9970  140.6350 O   0  0  0  0  0  0  0  0  0  0  0  0
  186.8690  178.0520  139.0650 C   0  0  0  0  0  2  0  0  0  0  0  0
  188.0990  178.4880  137.8510 S   0  0  0  0  0  0  0  0  0  0  0  0
  189.1640  179.3300  138.4980 O   0  0  0  0  0  0  0  0  0  0  0  0
  187.4530  179.2670  136.7380 O   0  0  0  0  0  0  0  0  0  0  0  0
  188.2230  175.7830  137.9370 C   0  0  0  0  0  2  0  0  0  0  0  0
  189.5990  176.2720  138.3500 C   0  0  2  0  0  3  0  0  0  0  0  0
  188.8350  176.9790  137.2430 C   0  0  2  0  0  3  0  0  0  0  0  0
  190.4010  174.2330  137.4160 O   0  0  0  0  0  0  0  0  0  0  0  0
  191.9700  175.9600  137.5170 N   0  0  0  0  0  2  0  0  0  0  0  0
  190.6660  175.4200  137.7480 C   0  0  0  0  0  0  0  0  0  0  0  0
  195.6110  173.0470  137.5410 C   0  0  0  0  0  2  0  0  0  0  0  0
  195.1880  175.3370  136.7580 O   0  0  0  0  0  0  0  0  0  0  0  0
  192.5770  173.4190  136.9130 S   0  0  0  0  0  0  0  0  0  0  0  0
  193.8550  173.0110  135.6720 C   0  0  1  0  0  3  0  0  0  0  0  0
  194.2210  175.3600  137.6600 O   0  0  0  0  0  0  0  0  0  0  0  0
  196.1770  174.4410  137.2260 C   0  0  1  0  0  3  0  0  0  0  0  0
  195.0600  172.3160  136.3120 C   0  0  1  0  0  3  0  0  0  0  0  0
  196.0760  172.1380  135.3700 O   0  0  0  0  0  1  0  0  0  0  0  0
  193.0440  175.1790  136.9240 C   0  0  2  0  0  3  0  0  0  0  0  0
  196.9580  175.3750  140.8890 C   0  0  0  0  0  2  0  0  0  0  0  0
  196.9400  175.0250  138.4200 C   0  0  1  0  0  3  0  0  0  0  0  0
  196.2640  174.6470  139.7380 C   0  0  0  0  0  2  0  0  0  0  0  0
  199.1060  174.8820  139.7070 C   0  0  0  0  0  3  0  0  0  0  0  0
  198.4590  175.2320  140.8310 C   0  0  0  0  0  3  0  0  0  0  0  0
  198.3790  174.4990  138.4430 C   0  0  0  0  0  2  0  0  0  0  0  0
  193.2560  172.1210  134.5940 C   0  0  0  0  0  2  0  0  0  0  0  0
  193.0030  170.7280  135.1400 C   0  0  0  0  0  1  0  0  0  0  0  0
  186.5100  177.5570  142.5950 C   0  0  0  0  0  2  0  0  0  0  0  0
  185.3970  177.4360  143.6310 C   0  0  0  0  0  2  0  0  0  0  0  0
  185.7450  178.2690  144.8510 C   0  0  0  0  0  2  0  0  0  0  0  0
  188.2510  177.8240  148.7500 C   0  0  0  0  0  3  0  0  0  0  0  0
  187.1740  178.1020  145.2640 C   0  0  0  0  0  0  0  0  0  0  0  0
  189.6020  177.3770  148.5110 N   0  0  0  0  0  0  0  0  0  0  0  0
  191.4660  176.7360  147.1100 C   0  0  0  0  0  1  0  0  0  0  0  0
  189.3540  178.0190  145.0650 C   0  0  1  0  0  3  0  0  0  0  0  0
  190.0480  177.1480  147.3100 C   0  0  0  0  0  0  0  0  0  0  0  0
  187.6530  177.2600  146.4100 C   0  0  1  0  0  3  0  0  0  0  0  0
  189.1240  177.3330  146.1780 C   0  0  1  0  0  3  0  0  0  0  0  0
  187.3330  177.8290  147.7690 C   0  0  0  0  0  3  0  0  0  0  0  0
  188.1400  178.4750  144.4890 N   0  0  0  0  0  0  0  0  0  0  0  0
  190.6870  178.5210  144.6180 C   0  0  0  0  0  2  0  0  0  0  0  0
  190.6890  178.7150  143.1120 C   0  0  0  0  0  2  0  0  0  0  0  0
  190.4630  176.7000  141.8560 O   0  0  0  0  0  1  0  0  0  0  0  0
  191.4020  177.5600  142.4300 C   0  0  2  0  0  3  0  0  0  0  0  0
  191.6100  175.6730  143.9080 O   0  0  0  0  0  1  0  0  0  0  0  0
  192.2840  176.7890  143.4080 C   0  0  0  0  0  2  0  0  0  0  0  0
  1 46  1  1  0  0  0
  2  5  1  0  0  0  0
  3  5  2  0  0  0  0
  4  2  1  0  0  0  0
  6  9  1  6  0  0  0
  6  4  1  0  0  0  0
  6  7  1  0  0  0  0
  7  3  1  0  0  0  0
  8  1  1  0  0  0  0
  8  7  2  0  0  0  0
 10  9  1  0  0  0  0
 11 10  1  0  0  0  0
 12 14  1  0  0  0  0
 13 14  1  0  0  0  0
 14 11  1  0  0  0  0
 14 16  1  0  0  0  0
 16 15  1  0  0  0  0
 17 18  2  0  0  0  0
 17  1  1  0  0  0  0
 19 17  1  0  0  0  0
 20 21  2  0  0  0  0
 20 19  1  0  0  0  0
 22 20  2  0  0  0  0
 23 24  1  0  0  0  0
 24 28  1  6  0  0  0
 25 20  1  1  0  0  0
 25 23  1  0  0  0  0
 25 24  1  0  0  0  0
 26 28  2  0  0  0  0
 27 28  1  0  0  0  0
 30 34  1  0  0  0  0
 30 33  1  0  0  0  0
 31 37  1  0  0  0  0
 32 44  1  6  0  0  0
 32 35  1  0  0  0  0
 32 31  1  0  0  0  0
 34 29  1  1  0  0  0
 34 39  1  0  0  0  0
 35 36  1  6  0  0  0
 35 29  1  0  0  0  0
 37 27  1  1  0  0  0
 37 33  1  0  0  0  0
 39 43  1  1  0  0  0
 39 40  1  0  0  0  0
 40 38  1  0  0  0  0
 41 42  2  0  0  0  0
 42 38  1  0  0  0  0
 43 41  1  0  0  0  0
 44 45  1  0  0  0  0
 46 47  1  0  0  0  0
 47 48  1  0  0  0  0
 48 50  1  0  0  0  0
 50 55  1  0  0  0  0
 51 49  1  0  0  0  0
 52 54  1  0  0  0  0
 53 59  1  1  0  0  0
 53 56  1  0  0  0  0
 54 51  2  0  0  0  0
 55 57  1  1  0  0  0
 56 55  1  0  0  0  0
 56 54  1  1  0  0  0
 57 49  2  0  0  0  0
 58 53  1  0  0  0  0
 58 50  2  0  0  0  0
 60 59  1  0  0  0  0
 62 61  1  1  0  0  0
 62 60  1  0  0  0  0
 62 64  1  0  0  0  0
 64 63  1  0  0  0  0
M  END
>  <MODEL>
7

>  <REMARK>
 VINA RESULT:      -4.9      3.625     12.117
  Name = 
  22 active torsions:
  status: ('A' for Active; 'I' for Inactive)
    1  A    between atoms: C_5  and  C_40
    2  A    between atoms: C_7  and  C_8
    3  A    between atoms: C_7  and  C_43
    4  A    between atoms: C_8  and  C_33
    5  A    between atoms: C_9  and  C_43
    6  A    between atoms: C_9  and  C_53
    7  A    between atoms: S_13  and  C_53
    8  A    between atoms: S_13  and  C_63
    9  A    between atoms: C_14  and  C_38
   10  A    between atoms: C_16  and  C_34
   11  A    between atoms: C_16  and  O_56
   12  A    between atoms: C_20  and  C_33
   13  A    between atoms: N_21  and  C_59
   14  A    between atoms: C_25  and  C_27
   15  A    between atoms: C_30  and  C_35
   16  A    between atoms: C_34  and  C_45
   17  A    between atoms: C_35  and  C_47
   18  A    between atoms: C_43  and  N_60
   19  A    between atoms: C_44  and  C_45
   20  A    between atoms: C_47  and  C_57
   21  A    between atoms: C_50  and  O_56
   22  A    between atoms: C_54  and  C_57
                            x       y       z     vdW  Elec       q    Type
                         _______ _______ _______ _____ _____    ______ ____

>  <TORSDO>
F 22

$$$$
=
 OpenBabel10222419263D

 64 69  0  0  1  0  0  0  0  0999 V2000
  188.8650  176.3530  137.9540 C   0  0  2  0  0  3  0  0  0  0  0  0
  188.4440  171.7970  135.6300 C   0  0  0  0  0  2  0  0  0  0  0  0
  187.9000  174.0270  136.5450 C   0  0  0  0  0  3  0  0  0  0  0  0
  189.7570  172.3990  135.1400 C   0  0  0  0  0  2  0  0  0  0  0  0
  187.4770  172.8830  136.0040 C   0  0  0  0  0  3  0  0  0  0  0  0
  190.3630  173.3050  136.2160 C   0  0  2  0  0  3  0  0  0  0  0  0
  189.3450  174.2950  136.7330 C   0  0  0  0  0  0  0  0  0  0  0  0
  189.7540  175.3310  137.4070 N   0  0  0  0  0  0  0  0  0  0  0  0
  191.4590  173.9800  135.6720 O   0  0  0  0  0  0  0  0  0  0  0  0
  192.0400  174.6700  136.7400 C   0  0  0  0  0  2  0  0  0  0  0  0
  193.2470  173.9090  137.2840 C   0  0  0  0  0  2  0  0  0  0  0  0
  194.8420  173.3140  135.5190 C   0  0  0  0  0  1  0  0  0  0  0  0
  194.5590  175.6800  136.0540 C   0  0  0  0  0  1  0  0  0  0  0  0
  194.5980  174.2820  136.6540 C   0  0  0  0  0  0  0  0  0  0  0  0
  196.9200  174.9280  137.2450 N   0  0  0  0  0  1  0  0  0  0  0  0
  195.7650  174.1310  137.6370 C   0  0  0  0  0  2  0  0  0  0  0  0
  189.2360  177.7100  137.4320 C   0  0  0  0  0  0  0  0  0  0  0  0
  189.9520  178.4560  138.0840 O   0  0  0  0  0  0  0  0  0  0  0  0
  188.7780  178.1170  136.0660 C   0  0  0  0  0  2  0  0  0  0  0  0
  187.0730  177.6760  135.7990 S   0  0  0  0  0  0  0  0  0  0  0  0
  186.9780  176.2080  135.4840 O   0  0  0  0  0  0  0  0  0  0  0  0
  186.5230  178.4700  134.6450 O   0  0  0  0  0  0  0  0  0  0  0  0
  185.5200  176.7460  137.8150 C   0  0  0  0  0  2  0  0  0  0  0  0
  184.6840  177.7890  137.0970 C   0  0  2  0  0  3  0  0  0  0  0  0
  186.1720  178.0110  137.3040 C   0  0  2  0  0  3  0  0  0  0  0  0
  184.3270  179.7770  138.3590 O   0  0  0  0  0  0  0  0  0  0  0  0
  182.7150  178.1140  138.6580 N   0  0  0  0  0  2  0  0  0  0  0  0
  183.9200  178.6190  138.0750 C   0  0  0  0  0  0  0  0  0  0  0  0
  178.9310  180.3680  140.1870 C   0  0  0  0  0  2  0  0  0  0  0  0
  181.2940  180.9330  139.8200 O   0  0  0  0  0  0  0  0  0  0  0  0
  180.6890  177.7970  140.3840 S   0  0  0  0  0  0  0  0  0  0  0  0
  180.4070  178.9730  141.7540 C   0  0  1  0  0  3  0  0  0  0  0  0
  181.2920  179.9410  138.9450 O   0  0  0  0  0  0  0  0  0  0  0  0
  179.9790  181.4490  139.8730 C   0  0  1  0  0  3  0  0  0  0  0  0
  179.0940  179.7420  141.5760 C   0  0  1  0  0  3  0  0  0  0  0  0
  178.9690  180.7260  142.5590 O   0  0  0  0  0  1  0  0  0  0  0  0
  181.9260  178.8830  139.6070 C   0  0  2  0  0  3  0  0  0  0  0  0
  179.2880  184.4640  137.5630 C   0  0  0  0  0  2  0  0  0  0  0  0
  179.6290  182.2200  138.5950 C   0  0  1  0  0  3  0  0  0  0  0  0
  179.7950  183.7250  138.8010 C   0  0  0  0  0  2  0  0  0  0  0  0
  180.3730  182.6540  136.2220 C   0  0  0  0  0  3  0  0  0  0  0  0
  179.8500  183.8890  136.2870 C   0  0  0  0  0  3  0  0  0  0  0  0
  180.5400  181.7840  137.4420 C   0  0  0  0  0  2  0  0  0  0  0  0
  180.3930  178.2240  143.0770 C   0  0  0  0  0  2  0  0  0  0  0  0
  181.4090  178.8220  144.0330 C   0  0  0  0  0  1  0  0  0  0  0  0
  188.8350  176.2990  139.4810 C   0  0  0  0  0  2  0  0  0  0  0  0
  189.7120  177.3690  140.1230 C   0  0  0  0  0  2  0  0  0  0  0  0
  190.5510  176.7440  141.2230 C   0  0  0  0  0  2  0  0  0  0  0  0
  191.7230  176.2400  145.7010 C   0  0  0  0  0  3  0  0  0  0  0  0
  189.9490  176.9410  142.5790 C   0  0  0  0  0  0  0  0  0  0  0  0
  190.8110  176.8950  146.6060 N   0  0  0  0  0  0  0  0  0  0  0  0
  188.8240  178.1590  147.1550 C   0  0  0  0  0  1  0  0  0  0  0  0
  188.4060  177.3410  144.0830 C   0  0  1  0  0  3  0  0  0  0  0  0
  189.7650  177.5410  146.1790 C   0  0  0  0  0  0  0  0  0  0  0  0
  190.6830  177.4330  143.7920 C   0  0  1  0  0  3  0  0  0  0  0  0
  189.5360  177.6110  144.7260 C   0  0  1  0  0  3  0  0  0  0  0  0
  191.6500  176.4330  144.3740 C   0  0  0  0  0  3  0  0  0  0  0  0
  188.6660  176.9470  142.7440 N   0  0  0  0  0  0  0  0  0  0  0  0
  187.0680  177.1650  144.7200 C   0  0  0  0  0  2  0  0  0  0  0  0
  185.9720  177.5130  143.7280 C   0  0  0  0  0  2  0  0  0  0  0  0
  185.0040  179.2330  145.0670 O   0  0  0  0  0  1  0  0  0  0  0  0
  185.6090  178.9850  143.8330 C   0  0  2  0  0  3  0  0  0  0  0  0
  184.9890  178.7350  141.5220 O   0  0  0  0  0  1  0  0  0  0  0  0
  184.6810  179.4160  142.7020 C   0  0  0  0  0  2  0  0  0  0  0  0
  1 46  1  1  0  0  0
  2  5  1  0  0  0  0
  3  7  1  0  0  0  0
  4  2  1  0  0  0  0
  4  6  1  0  0  0  0
  5  3  2  0  0  0  0
  6  9  1  6  0  0  0
  6  7  1  0  0  0  0
  7  8  2  0  0  0  0
  8  1  1  0  0  0  0
  9 10  1  0  0  0  0
 10 11  1  0  0  0  0
 12 14  1  0  0  0  0
 13 14  1  0  0  0  0
 14 11  1  0  0  0  0
 14 16  1  0  0  0  0
 15 16  1  0  0  0  0
 17  1  1  0  0  0  0
 17 18  2  0  0  0  0
 19 17  1  0  0  0  0
 20 19  1  0  0  0  0
 21 20  2  0  0  0  0
 22 20  2  0  0  0  0
 24 25  1  0  0  0  0
 24 23  1  0  0  0  0
 24 28  1  1  0  0  0
 25 20  1  6  0  0  0
 25 23  1  0  0  0  0
 28 26  2  0  0  0  0
 28 27  1  0  0  0  0
 29 35  1  0  0  0  0
 30 34  1  0  0  0  0
 31 32  1  0  0  0  0
 32 44  1  1  0  0  0
 33 37  1  0  0  0  0
 33 30  1  0  0  0  0
 34 29  1  6  0  0  0
 35 32  1  0  0  0  0
 35 36  1  1  0  0  0
 37 27  1  6  0  0  0
 37 31  1  0  0  0  0
 38 40  1  0  0  0  0
 39 43  1  6  0  0  0
 39 40  1  0  0  0  0
 39 34  1  0  0  0  0
 41 42  2  0  0  0  0
 41 43  1  0  0  0  0
 42 38  1  0  0  0  0
 44 45  1  0  0  0  0
 46 47  1  0  0  0  0
 47 48  1  0  0  0  0
 48 50  1  0  0  0  0
 49 51  1  0  0  0  0
 50 58  2  0  0  0  0
 50 55  1  0  0  0  0
 53 59  1  1  0  0  0
 53 56  1  0  0  0  0
 54 51  2  0  0  0  0
 54 52  1  0  0  0  0
 55 57  1  1  0  0  0
 55 56  1  0  0  0  0
 56 54  1  1  0  0  0
 57 49  2  0  0  0  0
 58 53  1  0  0  0  0
 60 62  1  0  0  0  0
 60 59  1  0  0  0  0
 62 61  1  1  0  0  0
 63 64  1  0  0  0  0
 64 62  1  0  0  0  0
M  END
>  <MODEL>
8

>  <REMARK>
 VINA RESULT:      -4.8      2.930      7.904
  Name = 
  22 active torsions:
  status: ('A' for Active; 'I' for Inactive)
    1  A    between atoms: C_5  and  C_40
    2  A    between atoms: C_7  and  C_8
    3  A    between atoms: C_7  and  C_43
    4  A    between atoms: C_8  and  C_33
    5  A    between atoms: C_9  and  C_43
    6  A    between atoms: C_9  and  C_53
    7  A    between atoms: S_13  and  C_53
    8  A    between atoms: S_13  and  C_63
    9  A    between atoms: C_14  and  C_38
   10  A    between atoms: C_16  and  C_34
   11  A    between atoms: C_16  and  O_56
   12  A    between atoms: C_20  and  C_33
   13  A    between atoms: N_21  and  C_59
   14  A    between atoms: C_25  and  C_27
   15  A    between atoms: C_30  and  C_35
   16  A    between atoms: C_34  and  C_45
   17  A    between atoms: C_35  and  C_47
   18  A    between atoms: C_43  and  N_60
   19  A    between atoms: C_44  and  C_45
   20  A    between atoms: C_47  and  C_57
   21  A    between atoms: C_50  and  O_56
   22  A    between atoms: C_54  and  C_57
                            x       y       z     vdW  Elec       q    Type
                         _______ _______ _______ _____ _____    ______ ____

>  <TORSDO>
F 22

$$$$
=
 OpenBabel10222419263D

 64 69  0  0  1  0  0  0  0  0999 V2000
  188.6760  176.7870  141.1420 C   0  0  2  0  0  3  0  0  0  0  0  0
  188.5920  176.5700  136.0150 C   0  0  0  0  0  2  0  0  0  0  0  0
  187.9950  177.0960  138.3540 C   0  0  0  0  0  3  0  0  0  0  0  0
  190.0420  176.8440  136.4010 C   0  0  0  0  0  2  0  0  0  0  0  0
  187.6610  177.1090  137.0630 C   0  0  0  0  0  3  0  0  0  0  0  0
  190.3580  176.2230  137.7650 C   0  0  2  0  0  3  0  0  0  0  0  0
  189.3250  176.6140  138.7960 C   0  0  0  0  0  0  0  0  0  0  0  0
  189.5930  176.4470  140.0580 N   0  0  0  0  0  0  0  0  0  0  0  0
  191.6270  176.6470  138.1700 O   0  0  0  0  0  0  0  0  0  0  0  0
  192.5210  176.0620  137.2670 C   0  0  0  0  0  2  0  0  0  0  0  0
  193.8360  175.7080  137.9570 C   0  0  0  0  0  2  0  0  0  0  0  0
  193.8700  173.4390  137.0270 C   0  0  0  0  0  1  0  0  0  0  0  0
  195.1000  175.1810  135.8370 C   0  0  0  0  0  1  0  0  0  0  0  0
  194.7100  174.6820  137.2200 C   0  0  0  0  0  0  0  0  0  0  0  0
  195.7760  172.9720  138.6690 N   0  0  0  0  0  1  0  0  0  0  0  0
  195.9440  174.2720  138.0330 C   0  0  0  0  0  2  0  0  0  0  0  0
  188.6300  178.2730  141.3490 C   0  0  0  0  0  0  0  0  0  0  0  0
  189.5130  178.8440  141.9730 O   0  0  0  0  0  0  0  0  0  0  0  0
  187.5270  179.0650  140.7180 C   0  0  0  0  0  2  0  0  0  0  0  0
  185.9710  178.7670  141.5340 S   0  0  0  0  0  0  0  0  0  0  0  0
  185.6600  179.9170  142.4520 O   0  0  0  0  0  0  0  0  0  0  0  0
  186.0590  177.4970  142.3350 O   0  0  0  0  0  0  0  0  0  0  0  0
  183.3980  179.2110  140.8110 C   0  0  0  0  0  2  0  0  0  0  0  0
  183.5990  177.7100  140.7220 C   0  0  2  0  0  3  0  0  0  0  0  0
  184.7020  178.6570  140.2830 C   0  0  2  0  0  3  0  0  0  0  0  0
  183.5400  177.0870  138.4230 O   0  0  0  0  0  0  0  0  0  0  0  0
  181.5710  176.6750  139.6110 N   0  0  0  0  0  2  0  0  0  0  0  0
  182.9150  177.1560  139.5160 C   0  0  0  0  0  0  0  0  0  0  0  0
  180.6260  176.0540  135.0870 C   0  0  0  0  0  2  0  0  0  0  0  0
  179.3740  176.7980  137.0660 O   0  0  0  0  0  0  0  0  0  0  0  0
  181.8990  174.8540  137.6710 S   0  0  0  0  0  0  0  0  0  0  0  0
  180.4720  174.1360  136.7830 C   0  0  1  0  0  3  0  0  0  0  0  0
  180.5530  177.1350  137.5630 O   0  0  0  0  0  0  0  0  0  0  0  0
  179.4680  176.8890  135.6590 C   0  0  1  0  0  3  0  0  0  0  0  0
  180.4620  174.5470  135.3080 C   0  0  1  0  0  3  0  0  0  0  0  0
  179.2940  174.1000  134.6860 O   0  0  0  0  0  1  0  0  0  0  0  0
  180.8600  176.1170  138.4720 C   0  0  2  0  0  3  0  0  0  0  0  0
  178.9320  180.7120  135.7110 C   0  0  0  0  0  2  0  0  0  0  0  0
  179.5430  178.3490  135.1990 C   0  0  1  0  0  3  0  0  0  0  0  0
  178.9870  179.2900  136.2670 C   0  0  0  0  0  2  0  0  0  0  0  0
  181.1450  180.2230  134.6530 C   0  0  0  0  0  3  0  0  0  0  0  0
  180.2310  181.1190  135.0600 C   0  0  0  0  0  3  0  0  0  0  0  0
  180.9960  178.7450  134.9120 C   0  0  0  0  0  2  0  0  0  0  0  0
  180.5060  172.6200  136.8990 C   0  0  0  0  0  2  0  0  0  0  0  0
  181.7520  172.0680  136.2300 C   0  0  0  0  0  1  0  0  0  0  0  0
  189.0230  176.0270  142.4200 C   0  0  0  0  0  2  0  0  0  0  0  0
  190.5080  175.6930  142.5200 C   0  0  0  0  0  2  0  0  0  0  0  0
  191.1900  176.6820  143.4470 C   0  0  0  0  0  2  0  0  0  0  0  0
  191.5330  176.5020  148.0870 C   0  0  0  0  0  3  0  0  0  0  0  0
  190.3630  176.9920  144.6550 C   0  0  0  0  0  0  0  0  0  0  0  0
  190.4950  177.2400  148.7640 N   0  0  0  0  0  0  0  0  0  0  0  0
  188.4810  178.5760  148.8550 C   0  0  0  0  0  1  0  0  0  0  0  0
  188.5900  177.5310  145.8250 C   0  0  1  0  0  3  0  0  0  0  0  0
  189.5610  177.8680  148.1110 C   0  0  0  0  0  0  0  0  0  0  0  0
  190.8850  177.5630  145.9410 C   0  0  1  0  0  3  0  0  0  0  0  0
  189.5960  177.8310  146.6390 C   0  0  1  0  0  3  0  0  0  0  0  0
  191.7020  176.5940  146.7580 C   0  0  0  0  0  3  0  0  0  0  0  0
  189.0720  177.0320  144.5870 N   0  0  0  0  0  0  0  0  0  0  0  0
  187.1560  177.4280  146.2230 C   0  0  0  0  0  2  0  0  0  0  0  0
  186.3000  178.2810  145.3020 C   0  0  0  0  0  2  0  0  0  0  0  0
  185.1180  178.4310  147.3680 O   0  0  0  0  0  1  0  0  0  0  0  0
  185.2200  178.9970  146.0950 C   0  0  2  0  0  3  0  0  0  0  0  0
  183.8970  177.9970  144.3520 O   0  0  0  0  0  1  0  0  0  0  0  0
  183.8700  178.9340  145.3880 C   0  0  0  0  0  2  0  0  0  0  0  0
  1 17  1  0  0  0  0
  1 46  1  1  0  0  0
  2  4  1  0  0  0  0
  2  5  1  0  0  0  0
  3  7  1  0  0  0  0
  4  6  1  0  0  0  0
  5  3  2  0  0  0  0
  6  9  1  1  0  0  0
  6  7  1  0  0  0  0
  7  8  2  0  0  0  0
  8  1  1  0  0  0  0
 10 11  1  0  0  0  0
 10  9  1  0  0  0  0
 12 14  1  0  0  0  0
 13 14  1  0  0  0  0
 14 11  1  0  0  0  0
 14 16  1  0  0  0  0
 16 15  1  0  0  0  0
 17 18  2  0  0  0  0
 19 17  1  0  0  0  0
 19 20  1  0  0  0  0
 20 22  2  0  0  0  0
 20 21  2  0  0  0  0
 24 28  1  6  0  0  0
 24 23  1  0  0  0  0
 25 24  1  0  0  0  0
 25 23  1  0  0  0  0
 25 20  1  1  0  0  0
 26 28  2  0  0  0  0
 28 27  1  0  0  0  0
 29 35  1  0  0  0  0
 30 33  1  0  0  0  0
 31 37  1  0  0  0  0
 32 44  1  6  0  0  0
 32 31  1  0  0  0  0
 33 37  1  0  0  0  0
 34 29  1  1  0  0  0
 34 30  1  0  0  0  0
 35 36  1  1  0  0  0
 35 32  1  0  0  0  0
 37 27  1  1  0  0  0
 38 40  1  0  0  0  0
 39 43  1  1  0  0  0
 39 34  1  0  0  0  0
 39 40  1  0  0  0  0
 41 43  1  0  0  0  0
 41 42  2  0  0  0  0
 42 38  1  0  0  0  0
 45 44  1  0  0  0  0
 46 47  1  0  0  0  0
 47 48  1  0  0  0  0
 48 50  1  0  0  0  0
 49 51  1  0  0  0  0
 50 55  1  0  0  0  0
 53 59  1  1  0  0  0
 53 56  1  0  0  0  0
 54 51  2  0  0  0  0
 54 52  1  0  0  0  0
 55 56  1  0  0  0  0
 55 57  1  1  0  0  0
 56 54  1  1  0  0  0
 57 49  2  0  0  0  0
 58 50  2  0  0  0  0
 58 53  1  0  0  0  0
 60 62  1  0  0  0  0
 60 59  1  0  0  0  0
 62 61  1  1  0  0  0
 63 64  1  0  0  0  0
 64 62  1  0  0  0  0
M  END
>  <MODEL>
9

>  <REMARK>
 VINA RESULT:      -4.5      2.696      9.608
  Name = 
  22 active torsions:
  status: ('A' for Active; 'I' for Inactive)
    1  A    between atoms: C_5  and  C_40
    2  A    between atoms: C_7  and  C_8
    3  A    between atoms: C_7  and  C_43
    4  A    between atoms: C_8  and  C_33
    5  A    between atoms: C_9  and  C_43
    6  A    between atoms: C_9  and  C_53
    7  A    between atoms: S_13  and  C_53
    8  A    between atoms: S_13  and  C_63
    9  A    between atoms: C_14  and  C_38
   10  A    between atoms: C_16  and  C_34
   11  A    between atoms: C_16  and  O_56
   12  A    between atoms: C_20  and  C_33
   13  A    between atoms: N_21  and  C_59
   14  A    between atoms: C_25  and  C_27
   15  A    between atoms: C_30  and  C_35
   16  A    between atoms: C_34  and  C_45
   17  A    between atoms: C_35  and  C_47
   18  A    between atoms: C_43  and  N_60
   19  A    between atoms: C_44  and  C_45
   20  A    between atoms: C_47  and  C_57
   21  A    between atoms: C_50  and  O_56
   22  A    between atoms: C_54  and  C_57
                            x       y       z     vdW  Elec       q    Type
                         _______ _______ _______ _____ _____    ______ ____

>  <TORSDO>
F 22

$$$$
