=
 OpenBabel10222416573D

 28 31  0  0  1  0  0  0  0  0999 V2000
  189.6990  177.2440  146.2610 N   0  0  0  0  0  0  0  0  0  0  0  0
  184.0550  178.8220  144.6200 N   0  0  0  0  0  0  0  0  0  0  0  0
  184.1230  178.5290  143.2940 C   0  0  0  0  0  3  0  0  0  0  0  0
  185.1130  178.6250  145.4520 C   0  0  0  0  0  0  0  0  0  0  0  0
  186.3250  178.1040  144.9450 C   0  0  0  0  0  0  0  0  0  0  0  0
  190.9500  176.7700  145.7370 C   0  0  0  0  0  0  0  0  0  0  0  0
  187.2520  178.2370  147.1900 C   0  0  0  0  0  0  0  0  0  0  0  0
  187.4100  177.9090  145.8260 C   0  0  0  0  0  0  0  0  0  0  0  0
  191.9370  176.6080  146.5070 O   0  0  0  0  0  0  0  0  0  0  0  0
  185.2990  178.0120  142.7480 C   0  0  0  0  0  3  0  0  0  0  0  0
  186.4010  177.8000  143.5770 C   0  0  0  0  0  3  0  0  0  0  0  0
  189.5750  177.4930  147.7030 C   0  0  0  0  0  2  0  0  0  0  0  0
  188.2370  178.0680  148.0760 C   0  0  0  0  0  3  0  0  0  0  0  0
  186.0320  178.7540  147.6350 C   0  0  0  0  0  3  0  0  0  0  0  0
  188.5820  177.4350  145.3800 C   0  0  0  0  0  3  0  0  0  0  0  0
  185.0030  178.9350  146.7690 N   0  0  0  0  0  0  0  0  0  0  0  0
  191.9680  175.3330  144.0750 N   0  0  0  0  0  1  0  0  0  0  0  0
  191.1090  176.4890  144.2740 C   0  0  2  0  0  3  0  0  0  0  0  0
  191.6910  177.7010  143.5670 C   0  0  0  0  0  2  0  0  0  0  0  0
  191.3900  177.6380  142.1480 N   0  0  0  0  0  2  0  0  0  0  0  0
  189.9700  177.3550  142.0350 C   0  0  0  0  0  2  0  0  0  0  0  0
  189.8780  177.5790  138.2610 C   0  0  0  0  0  3  0  0  0  0  0  0
  187.8860  178.5520  139.1550 N   0  0  0  0  0  0  0  0  0  0  0  0
  188.6480  178.2170  138.0770 C   0  0  0  0  0  0  0  0  0  0  0  0
  189.5100  177.6350  140.6480 C   0  0  0  0  0  0  0  0  0  0  0  0
  188.1720  178.5310  136.7060 C   0  0  0  0  0  1  0  0  0  0  0  0
  190.3100  177.2900  139.5560 C   0  0  0  0  0  3  0  0  0  0  0  0
  188.2900  178.2790  140.4250 C   0  0  0  0  0  3  0  0  0  0  0  0
  1 12  1  0  0  0  0
  2  4  2  0  0  0  0
  3  2  1  0  0  0  0
  4 16  1  0  0  0  0
  5  4  1  0  0  0  0
  5  8  1  0  0  0  0
  6  1  1  0  0  0  0
  6  9  2  0  0  0  0
  7 14  1  0  0  0  0
  7 13  2  0  0  0  0
  8  7  1  0  0  0  0
 10  3  2  0  0  0  0
 10 11  1  0  0  0  0
 11  5  2  0  0  0  0
 12 13  1  0  0  0  0
 15  8  2  0  0  0  0
 15  1  1  0  0  0  0
 16 14  2  0  0  0  0
 18 17  1  1  0  0  0
 18  6  1  0  0  0  0
 19 18  1  0  0  0  0
 20 19  1  0  0  0  0
 21 20  1  0  0  0  0
 22 27  1  0  0  0  0
 23 28  2  0  0  0  0
 24 22  2  0  0  0  0
 24 23  1  0  0  0  0
 25 21  1  0  0  0  0
 26 24  1  0  0  0  0
 27 25  2  0  0  0  0
 28 25  1  0  0  0  0
M  END
>  <MODEL>
1

>  <REMARK>
 VINA RESULT:     -10.2      0.000      0.000
  Name = 
  5 active torsions:
  status: ('A' for Active; 'I' for Inactive)
    1  A    between atoms: C_8  and  C_11
    2  A    between atoms: C_8  and  C_25
    3  A    between atoms: C_12  and  C_13
    4  A    between atoms: C_13  and  N_18
    5  A    between atoms: N_18  and  C_25
                            x       y       z     vdW  Elec       q    Type
                         _______ _______ _______ _____ _____    ______ ____

>  <TORSDO>
F 5

$$$$
=
 OpenBabel10222416573D

 28 31  0  0  1  0  0  0  0  0999 V2000
  188.6230  177.8320  146.7610 N   0  0  0  0  0  0  0  0  0  0  0  0
  190.0840  177.0810  140.9010 N   0  0  0  0  0  0  0  0  0  0  0  0
  189.0380  177.7340  140.3290 C   0  0  0  0  0  3  0  0  0  0  0  0
  190.2120  176.9780  142.2510 C   0  0  0  0  0  0  0  0  0  0  0  0
  189.2440  177.5580  143.1010 C   0  0  0  0  0  0  0  0  0  0  0  0
  187.6080  178.3700  147.6240 C   0  0  0  0  0  0  0  0  0  0  0  0
  190.5160  176.7450  145.0080 C   0  0  0  0  0  0  0  0  0  0  0  0
  189.3960  177.4380  144.4980 C   0  0  0  0  0  0  0  0  0  0  0  0
  187.7190  178.2550  148.8770 O   0  0  0  0  0  0  0  0  0  0  0  0
  188.0570  178.3230  141.1270 C   0  0  0  0  0  3  0  0  0  0  0  0
  188.1610  178.2340  142.5160 C   0  0  0  0  0  3  0  0  0  0  0  0
  189.8020  177.1910  147.3540 C   0  0  0  0  0  2  0  0  0  0  0  0
  190.7220  176.6040  146.3200 C   0  0  0  0  0  3  0  0  0  0  0  0
  191.4400  176.1870  144.1210 C   0  0  0  0  0  3  0  0  0  0  0  0
  188.4890  177.9570  145.3370 C   0  0  0  0  0  3  0  0  0  0  0  0
  191.2720  176.3130  142.7790 N   0  0  0  0  0  0  0  0  0  0  0  0
  186.0190  180.1790  147.8840 N   0  0  0  0  0  1  0  0  0  0  0  0
  186.3980  179.0460  147.0550 C   0  0  2  0  0  3  0  0  0  0  0  0
  185.2460  178.0620  146.9540 C   0  0  0  0  0  2  0  0  0  0  0  0
  184.2610  178.5490  146.0050 N   0  0  0  0  0  2  0  0  0  0  0  0
  184.9490  178.7070  144.7350 C   0  0  0  0  0  2  0  0  0  0  0  0
  183.4440  178.3310  141.2850 C   0  0  0  0  0  3  0  0  0  0  0  0
  181.7300  178.9650  142.8260 N   0  0  0  0  0  0  0  0  0  0  0  0
  182.1100  178.6470  141.5590 C   0  0  0  0  0  0  0  0  0  0  0  0
  183.9630  178.6650  143.6210 C   0  0  0  0  0  0  0  0  0  0  0  0
  181.1060  178.6370  140.4630 C   0  0  0  0  0  1  0  0  0  0  0  0
  184.3750  178.3440  142.3260 C   0  0  0  0  0  3  0  0  0  0  0  0
  182.6220  178.9840  143.8540 C   0  0  0  0  0  3  0  0  0  0  0  0
  1 12  1  0  0  0  0
  1  6  1  0  0  0  0
  2  4  2  0  0  0  0
  3  2  1  0  0  0  0
  3 10  2  0  0  0  0
  4 16  1  0  0  0  0
  4  5  1  0  0  0  0
  5  8  1  0  0  0  0
  6  9  2  0  0  0  0
  7 13  2  0  0  0  0
  8  7  1  0  0  0  0
  8 15  2  0  0  0  0
 10 11  1  0  0  0  0
 11  5  2  0  0  0  0
 13 12  1  0  0  0  0
 14  7  1  0  0  0  0
 15  1  1  0  0  0  0
 16 14  2  0  0  0  0
 18  6  1  0  0  0  0
 18 17  1  1  0  0  0
 19 18  1  0  0  0  0
 20 19  1  0  0  0  0
 21 20  1  0  0  0  0
 22 24  2  0  0  0  0
 22 27  1  0  0  0  0
 23 28  2  0  0  0  0
 24 23  1  0  0  0  0
 25 28  1  0  0  0  0
 25 21  1  0  0  0  0
 26 24  1  0  0  0  0
 27 25  2  0  0  0  0
M  END
>  <MODEL>
2

>  <REMARK>
 VINA RESULT:      -8.8      1.828      5.850
  Name = 
  5 active torsions:
  status: ('A' for Active; 'I' for Inactive)
    1  A    between atoms: C_8  and  C_11
    2  A    between atoms: C_8  and  C_25
    3  A    between atoms: C_12  and  C_13
    4  A    between atoms: C_13  and  N_18
    5  A    between atoms: N_18  and  C_25
                            x       y       z     vdW  Elec       q    Type
                         _______ _______ _______ _____ _____    ______ ____

>  <TORSDO>
F 5

$$$$
=
 OpenBabel10222416573D

 28 31  0  0  1  0  0  0  0  0999 V2000
  189.4220  177.2430  145.5090 N   0  0  0  0  0  0  0  0  0  0  0  0
  183.6170  179.0330  145.1440 N   0  0  0  0  0  0  0  0  0  0  0  0
  183.4290  178.8950  143.8040 C   0  0  0  0  0  3  0  0  0  0  0  0
  184.8050  178.7360  145.7350 C   0  0  0  0  0  0  0  0  0  0  0  0
  185.8870  178.2690  144.9540 C   0  0  0  0  0  0  0  0  0  0  0  0
  190.5400  176.8250  144.7090 C   0  0  0  0  0  0  0  0  0  0  0  0
  187.2180  178.1370  146.9870 C   0  0  0  0  0  0  0  0  0  0  0  0
  187.1110  177.9680  145.5890 C   0  0  0  0  0  0  0  0  0  0  0  0
  191.6480  176.5710  145.2580 O   0  0  0  0  0  0  0  0  0  0  0  0
  184.4680  178.4370  142.9930 C   0  0  0  0  0  3  0  0  0  0  0  0
  185.6990  178.1240  143.5710 C   0  0  0  0  0  3  0  0  0  0  0  0
  189.5750  177.3260  146.9670 C   0  0  0  0  0  2  0  0  0  0  0  0
  188.3460  177.8620  147.6470 C   0  0  0  0  0  3  0  0  0  0  0  0
  186.1170  178.6070  147.7070 C   0  0  0  0  0  3  0  0  0  0  0  0
  188.1660  177.5410  144.8810 C   0  0  0  0  0  3  0  0  0  0  0  0
  184.9500  178.8920  147.0750 N   0  0  0  0  0  0  0  0  0  0  0  0
  190.5710  175.3290  142.8060 N   0  0  0  0  0  1  0  0  0  0  0  0
  190.4170  176.7140  143.2200 C   0  0  2  0  0  3  0  0  0  0  0  0
  191.4610  177.5830  142.5410 C   0  0  0  0  0  2  0  0  0  0  0  0
  191.8390  176.9960  141.2680 N   0  0  0  0  0  2  0  0  0  0  0  0
  190.8530  177.4370  140.2970 C   0  0  0  0  0  2  0  0  0  0  0  0
  192.8430  176.1600  137.3440 C   0  0  0  0  0  3  0  0  0  0  0  0
  190.5260  176.2270  136.7610 N   0  0  0  0  0  0  0  0  0  0  0  0
  191.8160  175.9560  136.4190 C   0  0  0  0  0  0  0  0  0  0  0  0
  191.1990  176.9030  138.9510 C   0  0  0  0  0  0  0  0  0  0  0  0
  192.1320  175.4460  135.0600 C   0  0  0  0  0  1  0  0  0  0  0  0
  192.5300  176.6390  138.6170 C   0  0  0  0  0  3  0  0  0  0  0  0
  190.2000  176.6950  137.9960 C   0  0  0  0  0  3  0  0  0  0  0  0
  1 12  1  0  0  0  0
  2  4  2  0  0  0  0
  3  2  1  0  0  0  0
  4 16  1  0  0  0  0
  5  8  1  0  0  0  0
  5  4  1  0  0  0  0
  6  9  2  0  0  0  0
  6  1  1  0  0  0  0
  7 13  2  0  0  0  0
  7 14  1  0  0  0  0
  8  7  1  0  0  0  0
 10 11  1  0  0  0  0
 10  3  2  0  0  0  0
 11  5  2  0  0  0  0
 12 13  1  0  0  0  0
 15  1  1  0  0  0  0
 15  8  2  0  0  0  0
 16 14  2  0  0  0  0
 18 17  1  1  0  0  0
 18  6  1  0  0  0  0
 19 18  1  0  0  0  0
 20 19  1  0  0  0  0
 21 20  1  0  0  0  0
 22 27  1  0  0  0  0
 23 28  2  0  0  0  0
 24 23  1  0  0  0  0
 24 22  2  0  0  0  0
 25 21  1  0  0  0  0
 26 24  1  0  0  0  0
 27 25  2  0  0  0  0
 28 25  1  0  0  0  0
M  END
>  <MODEL>
3

>  <REMARK>
 VINA RESULT:      -8.7      1.728      2.071
  Name = 
  5 active torsions:
  status: ('A' for Active; 'I' for Inactive)
    1  A    between atoms: C_8  and  C_11
    2  A    between atoms: C_8  and  C_25
    3  A    between atoms: C_12  and  C_13
    4  A    between atoms: C_13  and  N_18
    5  A    between atoms: N_18  and  C_25
                            x       y       z     vdW  Elec       q    Type
                         _______ _______ _______ _____ _____    ______ ____

>  <TORSDO>
F 5

$$$$
=
 OpenBabel10222416573D

 28 31  0  0  1  0  0  0  0  0999 V2000
  189.1920  177.1340  144.1700 N   0  0  0  0  0  0  0  0  0  0  0  0
  183.5810  179.0460  145.5480 N   0  0  0  0  0  0  0  0  0  0  0  0
  183.0400  179.0530  144.3000 C   0  0  0  0  0  3  0  0  0  0  0  0
  184.8690  178.6690  145.7670 C   0  0  0  0  0  0  0  0  0  0  0  0
  185.6840  178.2690  144.6840 C   0  0  0  0  0  0  0  0  0  0  0  0
  190.0400  176.7850  143.0640 C   0  0  0  0  0  0  0  0  0  0  0  0
  187.4980  177.9030  146.2630 C   0  0  0  0  0  0  0  0  0  0  0  0
  187.0180  177.8840  144.9360 C   0  0  0  0  0  0  0  0  0  0  0  0
  191.2410  176.4560  143.2690 O   0  0  0  0  0  0  0  0  0  0  0  0
  183.8060  178.6660  143.2000 C   0  0  0  0  0  3  0  0  0  0  0  0
  185.1310  178.2740  143.3940 C   0  0  0  0  0  3  0  0  0  0  0  0
  189.7280  177.0600  145.5350 C   0  0  0  0  0  2  0  0  0  0  0  0
  188.7470  177.5410  146.5680 C   0  0  0  0  0  3  0  0  0  0  0  0
  186.6490  178.3110  147.2940 C   0  0  0  0  0  3  0  0  0  0  0  0
  187.8290  177.5170  143.9330 C   0  0  0  0  0  3  0  0  0  0  0  0
  185.3690  178.6810  147.0290 N   0  0  0  0  0  0  0  0  0  0  0  0
  190.4800  176.2240  140.7500 N   0  0  0  0  0  1  0  0  0  0  0  0
  189.5220  176.8330  141.6590 C   0  0  2  0  0  3  0  0  0  0  0  0
  189.2520  178.2710  141.2480 C   0  0  0  0  0  2  0  0  0  0  0  0
  187.8790  178.4050  140.7950 N   0  0  0  0  0  2  0  0  0  0  0  0
  187.8980  178.2380  139.3530 C   0  0  0  0  0  2  0  0  0  0  0  0
  184.1350  178.5450  139.1090 C   0  0  0  0  0  3  0  0  0  0  0  0
  184.9610  177.4340  137.1610 N   0  0  0  0  0  0  0  0  0  0  0  0
  183.9130  177.9260  137.8770 C   0  0  0  0  0  0  0  0  0  0  0  0
  186.5030  178.1500  138.8390 C   0  0  0  0  0  0  0  0  0  0  0  0
  182.5300  177.8020  137.3470 C   0  0  0  0  0  1  0  0  0  0  0  0
  185.4410  178.6550  139.5920 C   0  0  0  0  0  3  0  0  0  0  0  0
  186.2410  177.5300  137.6140 C   0  0  0  0  0  3  0  0  0  0  0  0
  1 12  1  0  0  0  0
  2  4  2  0  0  0  0
  3  2  1  0  0  0  0
  4 16  1  0  0  0  0
  5  8  1  0  0  0  0
  5  4  1  0  0  0  0
  6  9  2  0  0  0  0
  6  1  1  0  0  0  0
  7 13  2  0  0  0  0
  7 14  1  0  0  0  0
  8  7  1  0  0  0  0
 10 11  1  0  0  0  0
 10  3  2  0  0  0  0
 11  5  2  0  0  0  0
 12 13  1  0  0  0  0
 15  1  1  0  0  0  0
 15  8  2  0  0  0  0
 16 14  2  0  0  0  0
 18 17  1  6  0  0  0
 18  6  1  0  0  0  0
 19 18  1  0  0  0  0
 20 19  1  0  0  0  0
 21 20  1  0  0  0  0
 22 27  1  0  0  0  0
 23 28  2  0  0  0  0
 23 24  1  0  0  0  0
 24 22  2  0  0  0  0
 25 21  1  0  0  0  0
 25 27  2  0  0  0  0
 26 24  1  0  0  0  0
 28 25  1  0  0  0  0
M  END
>  <MODEL>
4

>  <REMARK>
 VINA RESULT:      -8.6      2.234      3.063
  Name = 
  5 active torsions:
  status: ('A' for Active; 'I' for Inactive)
    1  A    between atoms: C_8  and  C_11
    2  A    between atoms: C_8  and  C_25
    3  A    between atoms: C_12  and  C_13
    4  A    between atoms: C_13  and  N_18
    5  A    between atoms: N_18  and  C_25
                            x       y       z     vdW  Elec       q    Type
                         _______ _______ _______ _____ _____    ______ ____

>  <TORSDO>
F 5

$$$$
=
 OpenBabel10222416573D

 28 31  0  0  1  0  0  0  0  0999 V2000
  187.2200  178.2230  141.9360 N   0  0  0  0  0  0  0  0  0  0  0  0
  190.0610  176.8060  147.1290 N   0  0  0  0  0  0  0  0  0  0  0  0
  191.3250  176.6550  146.6520 C   0  0  0  0  0  3  0  0  0  0  0  0
  189.0240  177.1440  146.3150 C   0  0  0  0  0  0  0  0  0  0  0  0
  189.2460  177.3490  144.9350 C   0  0  0  0  0  0  0  0  0  0  0  0
  187.4320  178.3740  140.5240 C   0  0  0  0  0  0  0  0  0  0  0  0
  186.8750  177.8370  144.6880 C   0  0  0  0  0  0  0  0  0  0  0  0
  188.1560  177.6980  144.1100 C   0  0  0  0  0  0  0  0  0  0  0  0
  186.4640  178.6660  139.7680 O   0  0  0  0  0  0  0  0  0  0  0  0
  191.5920  176.8470  145.2960 C   0  0  0  0  0  3  0  0  0  0  0  0
  190.5490  177.1940  144.4360 C   0  0  0  0  0  3  0  0  0  0  0  0
  185.8800  178.4580  142.4890 C   0  0  0  0  0  2  0  0  0  0  0  0
  185.8050  178.1740  143.9630 C   0  0  0  0  0  3  0  0  0  0  0  0
  186.7140  177.6180  146.0590 C   0  0  0  0  0  3  0  0  0  0  0  0
  188.3210  177.8810  142.7920 C   0  0  0  0  0  3  0  0  0  0  0  0
  187.7770  177.2810  146.8330 N   0  0  0  0  0  0  0  0  0  0  0  0
  189.0320  179.1270  138.8690 N   0  0  0  0  0  1  0  0  0  0  0  0
  188.7890  178.1580  139.9260 C   0  0  2  0  0  3  0  0  0  0  0  0
  188.9030  176.7460  139.3790 C   0  0  0  0  0  2  0  0  0  0  0  0
  190.2930  176.3270  139.3810 N   0  0  0  0  0  2  0  0  0  0  0  0
  190.7450  176.3750  138.0010 C   0  0  0  0  0  2  0  0  0  0  0  0
  193.4040  173.7720  137.3190 C   0  0  0  0  0  3  0  0  0  0  0  0
  194.4380  175.7430  138.1910 N   0  0  0  0  0  0  0  0  0  0  0  0
  194.5460  174.4710  137.7200 C   0  0  0  0  0  0  0  0  0  0  0  0
  192.0690  175.7060  137.8820 C   0  0  0  0  0  0  0  0  0  0  0  0
  195.8800  173.8220  137.6350 C   0  0  0  0  0  1  0  0  0  0  0  0
  192.1580  174.3960  137.4040 C   0  0  0  0  0  3  0  0  0  0  0  0
  193.2330  176.3690  138.2820 C   0  0  0  0  0  3  0  0  0  0  0  0
  1 12  1  0  0  0  0
  1 15  1  0  0  0  0
  3  2  1  0  0  0  0
  4 16  1  0  0  0  0
  4  2  2  0  0  0  0
  5  4  1  0  0  0  0
  6  1  1  0  0  0  0
  7 14  1  0  0  0  0
  8  7  1  0  0  0  0
  8  5  1  0  0  0  0
  9  6  2  0  0  0  0
 10  3  2  0  0  0  0
 11  5  2  0  0  0  0
 11 10  1  0  0  0  0
 12 13  1  0  0  0  0
 13  7  2  0  0  0  0
 14 16  2  0  0  0  0
 15  8  2  0  0  0  0
 18 17  1  6  0  0  0
 18  6  1  0  0  0  0
 19 20  1  0  0  0  0
 19 18  1  0  0  0  0
 21 20  1  0  0  0  0
 22 27  2  0  0  0  0
 22 24  1  0  0  0  0
 23 28  1  0  0  0  0
 24 23  2  0  0  0  0
 25 21  1  0  0  0  0
 25 28  2  0  0  0  0
 26 24  1  0  0  0  0
 27 25  1  0  0  0  0
M  END
>  <MODEL>
5

>  <REMARK>
 VINA RESULT:      -8.5      3.219      5.542
  Name = 
  5 active torsions:
  status: ('A' for Active; 'I' for Inactive)
    1  A    between atoms: C_8  and  C_11
    2  A    between atoms: C_8  and  C_25
    3  A    between atoms: C_12  and  C_13
    4  A    between atoms: C_13  and  N_18
    5  A    between atoms: N_18  and  C_25
                            x       y       z     vdW  Elec       q    Type
                         _______ _______ _______ _____ _____    ______ ____

>  <TORSDO>
F 5

$$$$
=
 OpenBabel10222416573D

 28 31  0  0  1  0  0  0  0  0999 V2000
  185.8800  178.5990  140.4290 N   0  0  0  0  0  0  0  0  0  0  0  0
  184.0470  178.6310  146.2330 N   0  0  0  0  0  0  0  0  0  0  0  0
  185.2610  178.6340  146.8450 C   0  0  0  0  0  3  0  0  0  0  0  0
  183.9290  178.6300  144.8780 C   0  0  0  0  0  0  0  0  0  0  0  0
  185.0860  178.6330  144.0660 C   0  0  0  0  0  0  0  0  0  0  0  0
  187.0540  178.5420  139.6030 C   0  0  0  0  0  0  0  0  0  0  0  0
  183.6400  178.6320  142.1090 C   0  0  0  0  0  0  0  0  0  0  0  0
  184.9390  178.6320  142.6630 C   0  0  0  0  0  0  0  0  0  0  0  0
  186.9410  178.5200  138.3460 O   0  0  0  0  0  0  0  0  0  0  0  0
  186.4310  178.6370  146.0860 C   0  0  0  0  0  3  0  0  0  0  0  0
  186.3420  178.6360  144.6930 C   0  0  0  0  0  3  0  0  0  0  0  0
  184.5590  178.6760  139.7930 C   0  0  0  0  0  2  0  0  0  0  0  0
  183.4350  178.6400  140.7900 C   0  0  0  0  0  3  0  0  0  0  0  0
  182.5320  178.6250  142.9600 C   0  0  0  0  0  3  0  0  0  0  0  0
  186.0120  178.6140  141.8590 C   0  0  0  0  0  3  0  0  0  0  0  0
  182.6970  178.6240  144.3080 N   0  0  0  0  0  0  0  0  0  0  0  0
  189.4360  178.7250  139.2080 N   0  0  0  0  0  1  0  0  0  0  0  0
  188.4190  178.4790  140.2180 C   0  0  2  0  0  3  0  0  0  0  0  0
  188.6410  177.1230  140.8650 C   0  0  0  0  0  2  0  0  0  0  0  0
  189.7690  177.1890  141.7770 N   0  0  0  0  0  2  0  0  0  0  0  0
  189.2600  177.7140  143.0320 C   0  0  0  0  0  2  0  0  0  0  0  0
  190.6150  177.1280  146.5150 C   0  0  0  0  0  3  0  0  0  0  0  0
  191.8020  175.7460  144.9670 N   0  0  0  0  0  0  0  0  0  0  0  0
  191.6000  176.1750  146.2430 C   0  0  0  0  0  0  0  0  0  0  0  0
  190.0600  177.1710  144.1640 C   0  0  0  0  0  0  0  0  0  0  0  0
  192.4300  175.6300  147.3490 C   0  0  0  0  0  1  0  0  0  0  0  0
  189.8430  177.6290  145.4650 C   0  0  0  0  0  3  0  0  0  0  0  0
  191.0600  176.2230  143.9300 C   0  0  0  0  0  3  0  0  0  0  0  0
  1 15  1  0  0  0  0
  2  3  1  0  0  0  0
  4  2  2  0  0  0  0
  5 11  2  0  0  0  0
  5  4  1  0  0  0  0
  6 18  1  0  0  0  0
  6  1  1  0  0  0  0
  7  8  1  0  0  0  0
  7 14  1  0  0  0  0
  8  5  1  0  0  0  0
  9  6  2  0  0  0  0
 10  3  2  0  0  0  0
 11 10  1  0  0  0  0
 12  1  1  0  0  0  0
 12 13  1  0  0  0  0
 13  7  2  0  0  0  0
 14 16  2  0  0  0  0
 15  8  2  0  0  0  0
 16  4  1  0  0  0  0
 18 17  1  6  0  0  0
 18 19  1  0  0  0  0
 19 20  1  0  0  0  0
 20 21  1  0  0  0  0
 21 25  1  0  0  0  0
 23 24  2  0  0  0  0
 24 22  1  0  0  0  0
 24 26  1  0  0  0  0
 25 27  1  0  0  0  0
 27 22  2  0  0  0  0
 28 25  2  0  0  0  0
 28 23  1  0  0  0  0
M  END
>  <MODEL>
6

>  <REMARK>
 VINA RESULT:      -8.5      2.447      6.073
  Name = 
  5 active torsions:
  status: ('A' for Active; 'I' for Inactive)
    1  A    between atoms: C_8  and  C_11
    2  A    between atoms: C_8  and  C_25
    3  A    between atoms: C_12  and  C_13
    4  A    between atoms: C_13  and  N_18
    5  A    between atoms: N_18  and  C_25
                            x       y       z     vdW  Elec       q    Type
                         _______ _______ _______ _____ _____    ______ ____

>  <TORSDO>
F 5

$$$$
=
 OpenBabel10222416573D

 28 31  0  0  1  0  0  0  0  0999 V2000
  185.1300  178.4360  144.5490 N   0  0  0  0  0  0  0  0  0  0  0  0
  190.7550  176.8720  146.2710 N   0  0  0  0  0  0  0  0  0  0  0  0
  191.3040  176.6510  145.0470 C   0  0  0  0  0  3  0  0  0  0  0  0
  189.4600  177.2650  146.4140 C   0  0  0  0  0  0  0  0  0  0  0  0
  188.6480  177.4560  145.2730 C   0  0  0  0  0  0  0  0  0  0  0  0
  184.2860  178.5720  143.3950 C   0  0  0  0  0  0  0  0  0  0  0  0
  186.8190  178.0740  146.7540 C   0  0  0  0  0  0  0  0  0  0  0  0
  187.3080  177.8630  145.4460 C   0  0  0  0  0  0  0  0  0  0  0  0
  183.0790  178.9170  143.5320 O   0  0  0  0  0  0  0  0  0  0  0  0
  190.5410  176.8260  143.8920 C   0  0  0  0  0  3  0  0  0  0  0  0
  189.2090  177.2290  144.0070 C   0  0  0  0  0  3  0  0  0  0  0  0
  184.5840  178.7450  145.8770 C   0  0  0  0  0  2  0  0  0  0  0  0
  185.5630  178.4680  146.9830 C   0  0  0  0  0  3  0  0  0  0  0  0
  187.6660  177.8660  147.8450 C   0  0  0  0  0  3  0  0  0  0  0  0
  186.5000  178.0350  144.3900 C   0  0  0  0  0  3  0  0  0  0  0  0
  188.9520  177.4720  147.6550 N   0  0  0  0  0  0  0  0  0  0  0  0
  185.5100  179.4440  141.4960 N   0  0  0  0  0  1  0  0  0  0  0  0
  184.8140  178.2810  142.0230 C   0  0  2  0  0  3  0  0  0  0  0  0
  183.6770  177.8870  141.0960 C   0  0  0  0  0  2  0  0  0  0  0  0
  183.7850  178.6140  139.8440 N   0  0  0  0  0  2  0  0  0  0  0  0
  183.4460  177.6770  138.7870 C   0  0  0  0  0  2  0  0  0  0  0  0
  186.7850  178.2190  137.0940 C   0  0  0  0  0  3  0  0  0  0  0  0
  185.3500  176.9910  135.6280 N   0  0  0  0  0  0  0  0  0  0  0  0
  186.5540  177.5770  135.8740 C   0  0  0  0  0  0  0  0  0  0  0  0
  184.5450  177.6330  137.7840 C   0  0  0  0  0  0  0  0  0  0  0  0
  187.6230  177.5360  134.8430 C   0  0  0  0  0  1  0  0  0  0  0  0
  185.7710  178.2470  138.0520 C   0  0  0  0  0  3  0  0  0  0  0  0
  184.3480  177.0090  136.5490 C   0  0  0  0  0  3  0  0  0  0  0  0
  1 12  1  0  0  0  0
  2  4  2  0  0  0  0
  3  2  1  0  0  0  0
  4 16  1  0  0  0  0
  5  8  1  0  0  0  0
  5  4  1  0  0  0  0
  6  9  2  0  0  0  0
  6  1  1  0  0  0  0
  7 13  2  0  0  0  0
  7 14  1  0  0  0  0
  8  7  1  0  0  0  0
 10 11  1  0  0  0  0
 10  3  2  0  0  0  0
 11  5  2  0  0  0  0
 12 13  1  0  0  0  0
 15  1  1  0  0  0  0
 15  8  2  0  0  0  0
 16 14  2  0  0  0  0
 18 17  1  6  0  0  0
 18  6  1  0  0  0  0
 19 18  1  0  0  0  0
 20 19  1  0  0  0  0
 21 20  1  0  0  0  0
 22 27  1  0  0  0  0
 23 24  1  0  0  0  0
 23 28  2  0  0  0  0
 24 22  2  0  0  0  0
 25 27  2  0  0  0  0
 25 21  1  0  0  0  0
 26 24  1  0  0  0  0
 28 25  1  0  0  0  0
M  END
>  <MODEL>
7

>  <REMARK>
 VINA RESULT:      -8.5      2.881      5.510
  Name = 
  5 active torsions:
  status: ('A' for Active; 'I' for Inactive)
    1  A    between atoms: C_8  and  C_11
    2  A    between atoms: C_8  and  C_25
    3  A    between atoms: C_12  and  C_13
    4  A    between atoms: C_13  and  N_18
    5  A    between atoms: N_18  and  C_25
                            x       y       z     vdW  Elec       q    Type
                         _______ _______ _______ _____ _____    ______ ____

>  <TORSDO>
F 5

$$$$
=
 OpenBabel10222416573D

 28 31  0  0  1  0  0  0  0  0999 V2000
  186.9740  178.2220  146.4910 N   0  0  0  0  0  0  0  0  0  0  0  0
  192.0400  176.8490  143.4100 N   0  0  0  0  0  0  0  0  0  0  0  0
  191.6380  177.2030  142.1590 C   0  0  0  0  0  3  0  0  0  0  0  0
  191.2220  176.9830  144.4890 C   0  0  0  0  0  0  0  0  0  0  0  0
  189.9170  177.5010  144.3290 C   0  0  0  0  0  0  0  0  0  0  0  0
  185.6270  178.6920  146.3210 C   0  0  0  0  0  0  0  0  0  0  0  0
  189.5860  177.2410  146.7250 C   0  0  0  0  0  0  0  0  0  0  0  0
  189.0870  177.6290  145.4620 C   0  0  0  0  0  0  0  0  0  0  0  0
  184.8640  178.7950  147.3220 O   0  0  0  0  0  0  0  0  0  0  0  0
  190.3580  177.7190  141.9530 C   0  0  0  0  0  3  0  0  0  0  0  0
  189.4970  177.8670  143.0410 C   0  0  0  0  0  3  0  0  0  0  0  0
  187.4590  177.9080  147.8400 C   0  0  0  0  0  2  0  0  0  0  0  0
  188.8530  177.3460  147.8370 C   0  0  0  0  0  3  0  0  0  0  0  0
  190.8830  176.7310  146.8230 C   0  0  0  0  0  3  0  0  0  0  0  0
  187.8360  178.0970  145.3490 C   0  0  0  0  0  3  0  0  0  0  0  0
  191.6640  176.6140  145.7180 N   0  0  0  0  0  0  0  0  0  0  0  0
  183.6990  179.4100  145.0430 N   0  0  0  0  0  1  0  0  0  0  0  0
  185.1020  179.0380  144.9610 C   0  0  2  0  0  3  0  0  0  0  0  0
  185.2780  177.8620  144.0160 C   0  0  0  0  0  2  0  0  0  0  0  0
  184.8710  178.2400  142.6750 N   0  0  0  0  0  2  0  0  0  0  0  0
  185.9430  179.0520  142.1270 C   0  0  0  0  0  2  0  0  0  0  0  0
  187.5390  178.0560  138.8450 C   0  0  0  0  0  3  0  0  0  0  0  0
  185.2420  178.5990  138.4690 N   0  0  0  0  0  0  0  0  0  0  0  0
  186.4490  178.1970  137.9830 C   0  0  0  0  0  0  0  0  0  0  0  0
  186.1270  178.7330  140.6840 C   0  0  0  0  0  0  0  0  0  0  0  0
  186.6060  177.9080  136.5340 C   0  0  0  0  0  1  0  0  0  0  0  0
  187.3750  178.3300  140.2040 C   0  0  0  0  0  3  0  0  0  0  0  0
  185.0610  178.8710  139.7900 C   0  0  0  0  0  3  0  0  0  0  0  0
  1 12  1  0  0  0  0
  2  4  2  0  0  0  0
  3  2  1  0  0  0  0
  4 16  1  0  0  0  0
  5  4  1  0  0  0  0
  5  8  1  0  0  0  0
  6  1  1  0  0  0  0
  6  9  2  0  0  0  0
  7 14  1  0  0  0  0
  7 13  2  0  0  0  0
  8  7  1  0  0  0  0
 10  3  2  0  0  0  0
 10 11  1  0  0  0  0
 11  5  2  0  0  0  0
 13 12  1  0  0  0  0
 15  8  2  0  0  0  0
 15  1  1  0  0  0  0
 16 14  2  0  0  0  0
 18 17  1  1  0  0  0
 18  6  1  0  0  0  0
 19 18  1  0  0  0  0
 20 19  1  0  0  0  0
 21 20  1  0  0  0  0
 22 27  1  0  0  0  0
 23 28  2  0  0  0  0
 24 23  1  0  0  0  0
 24 22  2  0  0  0  0
 25 21  1  0  0  0  0
 26 24  1  0  0  0  0
 27 25  2  0  0  0  0
 28 25  1  0  0  0  0
M  END
>  <MODEL>
8

>  <REMARK>
 VINA RESULT:      -8.5      2.073      4.996
  Name = 
  5 active torsions:
  status: ('A' for Active; 'I' for Inactive)
    1  A    between atoms: C_8  and  C_11
    2  A    between atoms: C_8  and  C_25
    3  A    between atoms: C_12  and  C_13
    4  A    between atoms: C_13  and  N_18
    5  A    between atoms: N_18  and  C_25
                            x       y       z     vdW  Elec       q    Type
                         _______ _______ _______ _____ _____    ______ ____

>  <TORSDO>
F 5

$$$$
=
 OpenBabel10222416573D

 28 31  0  0  1  0  0  0  0  0999 V2000
  183.9780  178.6600  143.1360 N   0  0  0  0  0  0  0  0  0  0  0  0
  189.0380  177.4610  146.2990 N   0  0  0  0  0  0  0  0  0  0  0  0
  189.8640  177.1260  145.2720 C   0  0  0  0  0  3  0  0  0  0  0  0
  187.7460  177.8290  146.0880 C   0  0  0  0  0  0  0  0  0  0  0  0
  187.2270  177.8700  144.7740 C   0  0  0  0  0  0  0  0  0  0  0  0
  183.4320  178.6450  141.8080 C   0  0  0  0  0  0  0  0  0  0  0  0
  185.0960  178.5900  145.7030 C   0  0  0  0  0  0  0  0  0  0  0  0
  185.8830  178.2530  144.5790 C   0  0  0  0  0  0  0  0  0  0  0  0
  182.2260  178.9660  141.6170 O   0  0  0  0  0  0  0  0  0  0  0  0
  189.3960  177.1510  143.9580 C   0  0  0  0  0  3  0  0  0  0  0  0
  188.0740  177.5240  143.7100 C   0  0  0  0  0  3  0  0  0  0  0  0
  183.1310  179.0940  144.2540 C   0  0  0  0  0  2  0  0  0  0  0  0
  183.8210  178.9690  145.5840 C   0  0  0  0  0  3  0  0  0  0  0  0
  185.6610  178.5270  146.9790 C   0  0  0  0  0  3  0  0  0  0  0  0
  185.3480  178.2850  143.3510 C   0  0  0  0  0  3  0  0  0  0  0  0
  186.9560  178.1530  147.1430 N   0  0  0  0  0  0  0  0  0  0  0  0
  184.9330  179.3780  140.0540 N   0  0  0  0  0  1  0  0  0  0  0  0
  184.2720  178.2230  140.6400 C   0  0  2  0  0  3  0  0  0  0  0  0
  183.4110  177.5280  139.6000 C   0  0  0  0  0  2  0  0  0  0  0  0
  183.3640  178.3230  138.3860 N   0  0  0  0  0  2  0  0  0  0  0  0
  181.9770  178.3440  137.9550 C   0  0  0  0  0  2  0  0  0  0  0  0
  180.4300  181.3910  136.3340 C   0  0  0  0  0  3  0  0  0  0  0  0
  181.5440  182.0500  138.3430 N   0  0  0  0  0  0  0  0  0  0  0  0
  180.8120  182.3800  137.2440 C   0  0  0  0  0  0  0  0  0  0  0  0
  181.5490  179.7470  137.7050 C   0  0  0  0  0  0  0  0  0  0  0  0
  180.4200  183.7940  137.0110 C   0  0  0  0  0  1  0  0  0  0  0  0
  180.8050  180.0670  136.5670 C   0  0  0  0  0  3  0  0  0  0  0  0
  181.9200  180.7650  138.5890 C   0  0  0  0  0  3  0  0  0  0  0  0
  1 15  1  0  0  0  0
  1 12  1  0  0  0  0
  3  2  1  0  0  0  0
  4  2  2  0  0  0  0
  4 16  1  0  0  0  0
  5  4  1  0  0  0  0
  6  1  1  0  0  0  0
  7 14  1  0  0  0  0
  8  5  1  0  0  0  0
  8  7  1  0  0  0  0
  9  6  2  0  0  0  0
 10  3  2  0  0  0  0
 11 10  1  0  0  0  0
 11  5  2  0  0  0  0
 12 13  1  0  0  0  0
 13  7  2  0  0  0  0
 14 16  2  0  0  0  0
 15  8  2  0  0  0  0
 18 17  1  6  0  0  0
 18  6  1  0  0  0  0
 19 18  1  0  0  0  0
 20 19  1  0  0  0  0
 21 20  1  0  0  0  0
 22 27  2  0  0  0  0
 22 24  1  0  0  0  0
 23 28  1  0  0  0  0
 24 23  2  0  0  0  0
 25 21  1  0  0  0  0
 25 28  2  0  0  0  0
 26 24  1  0  0  0  0
 27 25  1  0  0  0  0
M  END
>  <MODEL>
9

>  <REMARK>
 VINA RESULT:      -8.4      4.720      7.092
  Name = 
  5 active torsions:
  status: ('A' for Active; 'I' for Inactive)
    1  A    between atoms: C_8  and  C_11
    2  A    between atoms: C_8  and  C_25
    3  A    between atoms: C_12  and  C_13
    4  A    between atoms: C_13  and  N_18
    5  A    between atoms: N_18  and  C_25
                            x       y       z     vdW  Elec       q    Type
                         _______ _______ _______ _____ _____    ______ ____

>  <TORSDO>
F 5

$$$$
