=
 OpenBabel10222418403D

 41 42  0  0  1  0  0  0  0  0999 V2000
  187.4260  178.1540  141.1860 C   0  0  2  0  0  3  0  0  0  0  0  0
  187.3810  178.2890  139.6860 C   0  0  0  0  0  0  0  0  0  0  0  0
  185.1790  178.7760  138.4990 O   0  0  0  0  0  0  0  0  0  0  0  0
  186.2480  178.5400  139.0750 C   0  0  0  0  0  0  0  0  0  0  0  0
  188.6320  178.1740  138.9130 C   0  0  0  0  0  0  0  0  0  0  0  0
  189.1680  176.8830  138.5930 N   0  0  0  0  0  2  0  0  0  0  0  0
  189.1960  179.2180  138.4850 O   0  0  0  0  0  0  0  0  0  0  0  0
  191.5750  176.7400  138.9420 C   0  0  0  0  0  2  0  0  0  0  0  0
  190.7190  176.3500  136.7230 C   0  0  0  0  0  0  0  0  0  0  0  0
  192.0240  176.1340  136.2780 C   0  0  0  0  0  2  0  0  0  0  0  0
  192.8380  176.5240  138.4860 N   0  0  0  0  0  0  0  0  0  0  0  0
  189.7070  176.3360  135.8210 F   0  0  0  0  0  0  0  0  0  0  0  0
  193.0880  176.2160  137.1860 C   0  0  0  0  0  0  0  0  0  0  0  0
  190.4830  176.6380  138.0780 C   0  0  0  0  0  0  0  0  0  0  0  0
  194.9680  174.6790  136.4610 C   0  0  0  0  0  1  0  0  0  0  0  0
  194.4380  175.9980  136.7660 N   0  0  0  0  0  2  0  0  0  0  0  0
  186.3520  178.9760  141.8940 C   0  0  0  0  0  2  0  0  0  0  0  0
  185.3980  178.0870  142.6820 C   0  0  0  0  0  2  0  0  0  0  0  0
  184.0160  178.0220  142.0310 C   0  0  0  0  0  2  0  0  0  0  0  0
  180.8010  178.7680  142.8120 C   0  0  0  0  0  0  0  0  0  0  0  0
  181.2360  178.6830  144.0190 N   0  0  0  0  0  0  0  0  0  0  0  0
  183.0380  179.0850  142.5400 C   0  0  2  0  0  3  0  0  0  0  0  0
  182.6820  178.8750  144.0170 C   0  0  0  0  0  2  0  0  0  0  0  0
  181.7880  178.9990  141.8760 O   0  0  0  0  0  0  0  0  0  0  0  0
  179.2420  178.2390  140.9870 C   0  0  0  0  0  1  0  0  0  0  0  0
  179.3640  178.5950  142.4570 C   0  0  0  0  0  2  0  0  0  0  0  0
  188.8160  178.4260  141.7550 C   0  0  0  0  0  2  0  0  0  0  0  0
  189.6340  177.2950  141.6520 O   0  0  0  0  0  0  0  0  0  0  0  0
  189.5030  176.5030  143.1460 P   0  0  1  0  0  0  0  0  0  0  0  0
  188.0260  175.6790  143.2420 O   0  0  0  0  0  0  0  0  0  0  0  0
  190.6420  175.5150  143.2890 O   0  0  0  0  0  1  0  0  0  0  0  0
  189.5940  177.6680  144.3820 O   0  0  0  0  0  0  0  0  0  0  0  0
  189.6860  176.9510  145.5830 C   0  0  1  0  0  3  0  0  0  0  0  0
  191.0190  177.2030  146.2230 C   0  0  0  0  0  3  0  0  0  0  0  0
  191.7780  176.1900  146.6350 C   0  0  0  0  0  2  0  0  0  0  0  0
  188.5290  177.3120  146.5280 C   0  0  1  0  0  3  0  0  0  0  0  0
  188.2360  177.6820  148.8810 O   0  0  0  0  0  1  0  0  0  0  0  0
  189.0020  178.0570  147.7750 C   0  0  0  0  0  2  0  0  0  0  0  0
  187.4980  178.1440  145.7840 C   0  0  0  0  0  2  0  0  0  0  0  0
  186.0990  177.8240  146.2730 C   0  0  0  0  0  2  0  0  0  0  0  0
  185.3890  179.0630  146.5460 N   0  0  0  0  0  1  0  0  0  0  0  0
  1 27  1  1  0  0  0
  1 17  1  0  0  0  0
  2  1  1  0  0  0  0
  3  4  2  0  0  0  0
  4  2  2  0  0  0  0
  5  2  1  0  0  0  0
  6  5  1  0  0  0  0
  7  5  2  0  0  0  0
  9 14  2  0  0  0  0
 10  9  1  0  0  0  0
 10 13  1  0  0  0  0
 11  8  1  0  0  0  0
 12  9  1  0  0  0  0
 13 11  2  0  0  0  0
 14  6  1  0  0  0  0
 14  8  1  0  0  0  0
 15 16  1  0  0  0  0
 16 13  1  0  0  0  0
 17 18  1  0  0  0  0
 19 18  1  0  0  0  0
 20 21  2  0  0  0  0
 22 19  1  6  0  0  0
 22 23  1  0  0  0  0
 23 21  1  0  0  0  0
 24 22  1  0  0  0  0
 24 20  1  0  0  0  0
 25 26  1  0  0  0  0
 26 20  1  0  0  0  0
 28 27  1  0  0  0  0
 28 29  1  0  0  0  0
 29 30  2  1  0  0  0
 29 31  1  0  0  0  0
 29 32  1  0  0  0  0
 32 33  1  0  0  0  0
 33 34  1  1  0  0  0
 33 36  1  0  0  0  0
 34 35  2  0  0  0  0
 36 39  1  6  0  0  0
 36 38  1  0  0  0  0
 38 37  1  0  0  0  0
 39 40  1  0  0  0  0
 40 41  1  0  0  0  0
M  END
>  <MODEL>
1

>  <REMARK>
 VINA RESULT:      -7.1      0.000      0.000
  Name = 
  19 active torsions:
  status: ('A' for Active; 'I' for Inactive)
    1  A    between atoms: C_1  and  C_16
    2  A    between atoms: C_1  and  C_20
    3  A    between atoms: O_2  and  C_8
    4  A    between atoms: O_2  and  P_10
    5  A    between atoms: C_5  and  C_29
    6  A    between atoms: C_7  and  C_23
    7  A    between atoms: C_7  and  C_26
    8  A    between atoms: C_8  and  C_20
    9  A    between atoms: C_9  and  C_21
   10  A    between atoms: C_9  and  C_36
   11  A    between atoms: C_9  and  C_37
   12  A    between atoms: P_10  and  O_31
   13  A    between atoms: C_12  and  C_20
   14  A    between atoms: C_12  and  C_26
   15  A    between atoms: C_13  and  C_21
   16  A    between atoms: O_31  and  C_36
   17  A    between atoms: C_32  and  C_36
   18  A    between atoms: N_34  and  C_40
   19  A    between atoms: C_35  and  N_41
                            x       y       z     vdW  Elec       q    Type
                         _______ _______ _______ _____ _____    ______ ____

>  <TORSDO>
F 19

$$$$
=
 OpenBabel10222418403D

 41 42  0  0  1  0  0  0  0  0999 V2000
  185.1700  178.3240  142.2720 C   0  0  2  0  0  3  0  0  0  0  0  0
  185.3360  178.2360  143.7660 C   0  0  0  0  0  0  0  0  0  0  0  0
  183.5750  179.2230  145.3210 O   0  0  0  0  0  0  0  0  0  0  0  0
  184.4290  178.7430  144.5660 C   0  0  0  0  0  0  0  0  0  0  0  0
  186.5090  177.5360  144.3230 C   0  0  0  0  0  0  0  0  0  0  0  0
  187.2540  178.1210  145.4000 N   0  0  0  0  0  2  0  0  0  0  0  0
  186.8190  176.3950  143.8840 O   0  0  0  0  0  0  0  0  0  0  0  0
  189.6270  177.7560  144.9810 C   0  0  0  0  0  3  0  0  0  0  0  0
  188.7350  177.1130  147.1260 C   0  0  0  0  0  0  0  0  0  0  0  0
  190.0080  176.6850  147.5050 C   0  0  0  0  0  3  0  0  0  0  0  0
  190.8580  177.3340  145.3730 N   0  0  0  0  0  0  0  0  0  0  0  0
  187.6970  176.9200  147.9770 F   0  0  0  0  0  0  0  0  0  0  0  0
  191.0780  176.8130  146.6090 C   0  0  0  0  0  0  0  0  0  0  0  0
  188.5390  177.6750  145.8530 C   0  0  0  0  0  0  0  0  0  0  0  0
  192.7020  175.7340  148.2280 C   0  0  0  0  0  1  0  0  0  0  0  0
  192.3960  176.3880  146.9650 N   0  0  0  0  0  2  0  0  0  0  0  0
  186.1670  179.2750  141.6130 C   0  0  0  0  0  2  0  0  0  0  0  0
  187.2260  178.5150  140.8240 C   0  0  0  0  0  2  0  0  0  0  0  0
  188.5650  178.4790  141.5630 C   0  0  0  0  0  2  0  0  0  0  0  0
  190.6140  176.9540  139.3320 C   0  0  0  0  0  0  0  0  0  0  0  0
  191.5270  177.2890  140.1740 N   0  0  0  0  0  0  0  0  0  0  0  0
  189.4180  177.2470  141.2450 C   0  0  2  0  0  3  0  0  0  0  0  0
  190.9100  177.5100  141.4780 C   0  0  0  0  0  2  0  0  0  0  0  0
  189.3440  176.9070  139.8710 O   0  0  0  0  0  0  0  0  0  0  0  0
  189.8340  177.3200  137.0300 C   0  0  0  0  0  1  0  0  0  0  0  0
  190.9020  176.6780  137.8960 C   0  0  0  0  0  2  0  0  0  0  0  0
  183.7330  178.6340  141.8600 C   0  0  0  0  0  2  0  0  0  0  0  0
  183.6830  179.1770  140.5710 O   0  0  0  0  0  0  0  0  0  0  0  0
  182.6640  178.1490  139.6870 P   0  0  1  0  0  0  0  0  0  0  0  0
  183.0000  176.5310  140.0610 O   0  0  0  0  0  1  0  0  0  0  0  0
  181.2220  178.4570  140.0320 O   0  0  0  0  0  0  0  0  0  0  0  0
  182.9300  178.4230  138.0290 O   0  0  0  0  0  0  0  0  0  0  0  0
  183.3610  177.2000  137.4990 C   0  0  1  0  0  3  0  0  0  0  0  0
  182.3240  176.6630  136.5560 C   0  0  0  0  0  3  0  0  0  0  0  0
  181.3270  175.9020  137.0030 C   0  0  0  0  0  2  0  0  0  0  0  0
  184.7260  177.3490  136.8100 C   0  0  1  0  0  3  0  0  0  0  0  0
  186.6100  178.7250  137.3700 O   0  0  0  0  0  1  0  0  0  0  0  0
  185.8530  177.6320  137.8010 C   0  0  0  0  0  2  0  0  0  0  0  0
  185.0380  176.0950  136.0110 C   0  0  0  0  0  2  0  0  0  0  0  0
  185.9440  175.1700  136.8000 C   0  0  0  0  0  2  0  0  0  0  0  0
  185.1570  174.0730  137.3420 N   0  0  0  0  0  1  0  0  0  0  0  0
  1 17  1  1  0  0  0
  1  2  1  0  0  0  0
  2  5  1  0  0  0  0
  2  4  2  0  0  0  0
  4  3  2  0  0  0  0
  5  6  1  0  0  0  0
  6 14  1  0  0  0  0
  7  5  2  0  0  0  0
  8 11  1  0  0  0  0
  8 14  2  0  0  0  0
  9 10  2  0  0  0  0
  9 12  1  0  0  0  0
 11 13  2  0  0  0  0
 13 16  1  0  0  0  0
 13 10  1  0  0  0  0
 14  9  1  0  0  0  0
 16 15  1  0  0  0  0
 18 19  1  0  0  0  0
 18 17  1  0  0  0  0
 20 24  1  0  0  0  0
 20 21  2  0  0  0  0
 21 23  1  0  0  0  0
 22 23  1  0  0  0  0
 22 19  1  6  0  0  0
 24 22  1  0  0  0  0
 25 26  1  0  0  0  0
 26 20  1  0  0  0  0
 27  1  1  0  0  0  0
 28 27  1  0  0  0  0
 29 31  2  1  0  0  0
 29 30  1  0  0  0  0
 29 28  1  0  0  0  0
 32 29  1  0  0  0  0
 33 34  1  6  0  0  0
 33 32  1  0  0  0  0
 34 35  2  0  0  0  0
 36 39  1  1  0  0  0
 36 33  1  0  0  0  0
 36 38  1  0  0  0  0
 37 38  1  0  0  0  0
 39 40  1  0  0  0  0
 40 41  1  0  0  0  0
M  END
>  <MODEL>
2

>  <REMARK>
 VINA RESULT:      -7.0      3.588      9.073
  Name = 
  19 active torsions:
  status: ('A' for Active; 'I' for Inactive)
    1  A    between atoms: C_1  and  C_16
    2  A    between atoms: C_1  and  C_20
    3  A    between atoms: O_2  and  C_8
    4  A    between atoms: O_2  and  P_10
    5  A    between atoms: C_5  and  C_29
    6  A    between atoms: C_7  and  C_23
    7  A    between atoms: C_7  and  C_26
    8  A    between atoms: C_8  and  C_20
    9  A    between atoms: C_9  and  C_21
   10  A    between atoms: C_9  and  C_36
   11  A    between atoms: C_9  and  C_37
   12  A    between atoms: P_10  and  O_31
   13  A    between atoms: C_12  and  C_20
   14  A    between atoms: C_12  and  C_26
   15  A    between atoms: C_13  and  C_21
   16  A    between atoms: O_31  and  C_36
   17  A    between atoms: C_32  and  C_36
   18  A    between atoms: N_34  and  C_40
   19  A    between atoms: C_35  and  N_41
                            x       y       z     vdW  Elec       q    Type
                         _______ _______ _______ _____ _____    ______ ____

>  <TORSDO>
F 19

$$$$
=
 OpenBabel10222418403D

 41 42  0  0  1  0  0  0  0  0999 V2000
  184.9100  178.4960  142.4330 C   0  0  2  0  0  3  0  0  0  0  0  0
  185.0710  178.3560  143.9250 C   0  0  0  0  0  0  0  0  0  0  0  0
  183.2520  179.1880  145.5030 O   0  0  0  0  0  0  0  0  0  0  0  0
  184.1350  178.7840  144.7370 C   0  0  0  0  0  0  0  0  0  0  0  0
  186.2770  177.6970  144.4620 C   0  0  0  0  0  0  0  0  0  0  0  0
  186.9300  178.2240  145.6250 N   0  0  0  0  0  2  0  0  0  0  0  0
  186.6950  176.6340  143.9270 O   0  0  0  0  0  0  0  0  0  0  0  0
  188.3850  177.4660  147.4260 C   0  0  0  0  0  3  0  0  0  0  0  0
  189.3640  177.8620  145.2600 C   0  0  0  0  0  0  0  0  0  0  0  0
  190.6060  177.4860  145.7730 C   0  0  0  0  0  3  0  0  0  0  0  0
  189.6050  177.1020  147.9040 N   0  0  0  0  0  0  0  0  0  0  0  0
  189.2890  178.3070  143.9810 F   0  0  0  0  0  0  0  0  0  0  0  0
  190.7110  177.0930  147.1140 C   0  0  0  0  0  0  0  0  0  0  0  0
  188.2290  177.8360  146.0890 C   0  0  0  0  0  0  0  0  0  0  0  0
  192.5730  175.4010  147.4180 C   0  0  0  0  0  1  0  0  0  0  0  0
  191.9670  176.6980  147.6730 N   0  0  0  0  0  2  0  0  0  0  0  0
  186.0360  179.2950  141.7810 C   0  0  0  0  0  2  0  0  0  0  0  0
  186.6250  178.5550  140.5850 C   0  0  0  0  0  2  0  0  0  0  0  0
  188.1100  178.2480  140.7850 C   0  0  0  0  0  2  0  0  0  0  0  0
  188.9310  177.6980  137.5400 C   0  0  0  0  0  0  0  0  0  0  0  0
  190.1310  177.8420  137.9800 N   0  0  0  0  0  0  0  0  0  0  0  0
  188.6850  177.2650  139.7610 C   0  0  2  0  0  3  0  0  0  0  0  0
  190.1440  177.5860  139.4160 C   0  0  0  0  0  2  0  0  0  0  0  0
  188.0130  177.3620  138.5150 O   0  0  0  0  0  0  0  0  0  0  0  0
  187.0570  178.0570  135.9910 C   0  0  0  0  0  1  0  0  0  0  0  0
  188.5620  177.9110  136.1120 C   0  0  0  0  0  2  0  0  0  0  0  0
  183.5350  179.0310  142.0420 C   0  0  0  0  0  2  0  0  0  0  0  0
  182.6780  177.9910  141.6630 O   0  0  0  0  0  0  0  0  0  0  0  0
  181.1220  178.6660  141.6540 P   0  0  1  0  0  0  0  0  0  0  0  0
  179.9570  177.4450  141.8110 O   0  0  0  0  0  0  0  0  0  0  0  0
  180.9930  179.6370  142.8070 O   0  0  0  0  0  1  0  0  0  0  0  0
  180.9000  179.4870  140.1810 O   0  0  0  0  0  0  0  0  0  0  0  0
  181.2060  178.5640  139.1720 C   0  0  1  0  0  3  0  0  0  0  0  0
  179.9760  178.2680  138.3660 C   0  0  0  0  0  3  0  0  0  0  0  0
  179.6700  179.0030  137.2990 C   0  0  0  0  0  2  0  0  0  0  0  0
  182.3520  179.0760  138.2860 C   0  0  1  0  0  3  0  0  0  0  0  0
  184.1410  180.5160  138.9800 O   0  0  0  0  0  1  0  0  0  0  0  0
  182.7830  180.4950  138.6500 C   0  0  0  0  0  2  0  0  0  0  0  0
  183.5370  178.1300  138.3830 C   0  0  0  0  0  2  0  0  0  0  0  0
  183.1020  176.6990  138.1310 C   0  0  0  0  0  2  0  0  0  0  0  0
  182.9090  176.5000  136.7030 N   0  0  0  0  0  1  0  0  0  0  0  0
  1 17  1  1  0  0  0
  1  2  1  0  0  0  0
  2  5  1  0  0  0  0
  2  4  2  0  0  0  0
  4  3  2  0  0  0  0
  5  6  1  0  0  0  0
  6 14  1  0  0  0  0
  7  5  2  0  0  0  0
  8 11  1  0  0  0  0
  9 10  2  0  0  0  0
  9 14  1  0  0  0  0
 10 13  1  0  0  0  0
 12  9  1  0  0  0  0
 13 16  1  0  0  0  0
 13 11  2  0  0  0  0
 14  8  2  0  0  0  0
 15 16  1  0  0  0  0
 18 19  1  0  0  0  0
 18 17  1  0  0  0  0
 20 21  2  0  0  0  0
 20 24  1  0  0  0  0
 21 23  1  0  0  0  0
 22 19  1  1  0  0  0
 23 22  1  0  0  0  0
 24 22  1  0  0  0  0
 25 26  1  0  0  0  0
 26 20  1  0  0  0  0
 27  1  1  0  0  0  0
 28 27  1  0  0  0  0
 29 28  1  0  0  0  0
 29 30  2  1  0  0  0
 29 31  1  0  0  0  0
 32 29  1  0  0  0  0
 33 34  1  6  0  0  0
 33 32  1  0  0  0  0
 35 34  2  0  0  0  0
 36 39  1  1  0  0  0
 36 38  1  0  0  0  0
 36 33  1  0  0  0  0
 38 37  1  0  0  0  0
 40 39  1  0  0  0  0
 41 40  1  0  0  0  0
M  END
>  <MODEL>
3

>  <REMARK>
 VINA RESULT:      -6.9      3.260      8.998
  Name = 
  19 active torsions:
  status: ('A' for Active; 'I' for Inactive)
    1  A    between atoms: C_1  and  C_16
    2  A    between atoms: C_1  and  C_20
    3  A    between atoms: O_2  and  C_8
    4  A    between atoms: O_2  and  P_10
    5  A    between atoms: C_5  and  C_29
    6  A    between atoms: C_7  and  C_23
    7  A    between atoms: C_7  and  C_26
    8  A    between atoms: C_8  and  C_20
    9  A    between atoms: C_9  and  C_21
   10  A    between atoms: C_9  and  C_36
   11  A    between atoms: C_9  and  C_37
   12  A    between atoms: P_10  and  O_31
   13  A    between atoms: C_12  and  C_20
   14  A    between atoms: C_12  and  C_26
   15  A    between atoms: C_13  and  C_21
   16  A    between atoms: O_31  and  C_36
   17  A    between atoms: C_32  and  C_36
   18  A    between atoms: N_34  and  C_40
   19  A    between atoms: C_35  and  N_41
                            x       y       z     vdW  Elec       q    Type
                         _______ _______ _______ _____ _____    ______ ____

>  <TORSDO>
F 19

$$$$
=
 OpenBabel10222418403D

 41 42  0  0  1  0  0  0  0  0999 V2000
  188.7700  178.2610  139.3810 C   0  0  2  0  0  3  0  0  0  0  0  0
  187.7750  178.1460  138.2550 C   0  0  0  0  0  0  0  0  0  0  0  0
  188.5720  178.0010  135.8390 O   0  0  0  0  0  0  0  0  0  0  0  0
  188.1850  178.0700  137.0120 C   0  0  0  0  0  0  0  0  0  0  0  0
  186.3350  178.0780  138.5680 C   0  0  0  0  0  0  0  0  0  0  0  0
  185.7440  179.0370  139.4550 N   0  0  0  0  0  2  0  0  0  0  0  0
  185.6170  177.2080  138.0050 O   0  0  0  0  0  0  0  0  0  0  0  0
  183.3390  179.4030  139.3060 C   0  0  0  0  0  3  0  0  0  0  0  0
  184.2200  178.4190  141.3220 C   0  0  0  0  0  0  0  0  0  0  0  0
  182.9240  178.3550  141.8340 C   0  0  0  0  0  3  0  0  0  0  0  0
  182.0850  179.3290  139.8250 N   0  0  0  0  0  0  0  0  0  0  0  0
  185.2570  178.0390  142.1090 F   0  0  0  0  0  0  0  0  0  0  0  0
  181.8490  178.8110  141.0590 C   0  0  0  0  0  0  0  0  0  0  0  0
  184.4350  178.9320  140.0310 C   0  0  0  0  0  0  0  0  0  0  0  0
  180.1850  178.4710  142.9400 C   0  0  0  0  0  1  0  0  0  0  0  0
  180.5070  178.7580  141.5510 N   0  0  0  0  0  2  0  0  0  0  0  0
  190.1900  177.8810  138.9680 C   0  0  0  0  0  2  0  0  0  0  0  0
  190.4760  176.4090  139.2390 C   0  0  0  0  0  2  0  0  0  0  0  0
  190.6440  175.6160  137.9430 C   0  0  0  0  0  2  0  0  0  0  0  0
  193.9320  174.8710  137.5750 C   0  0  0  0  0  0  0  0  0  0  0  0
  193.5230  174.2940  136.5000 N   0  0  0  0  0  0  0  0  0  0  0  0
  191.9470  175.9160  137.1950 C   0  0  2  0  0  3  0  0  0  0  0  0
  192.2390  174.8690  136.1140 C   0  0  0  0  0  2  0  0  0  0  0  0
  193.0700  175.8340  138.0570 O   0  0  0  0  0  0  0  0  0  0  0  0
  195.2500  173.0010  138.4740 C   0  0  0  0  0  1  0  0  0  0  0  0
  195.2060  174.5020  138.2550 C   0  0  0  0  0  2  0  0  0  0  0  0
  188.3240  177.5110  140.6330 C   0  0  0  0  0  2  0  0  0  0  0  0
  188.3710  178.3380  141.7610 O   0  0  0  0  0  0  0  0  0  0  0  0
  189.3580  177.5280  142.8770 P   0  0  1  0  0  0  0  0  0  0  0  0
  188.9080  175.8980  142.9780 O   0  0  0  0  0  1  0  0  0  0  0  0
  190.8010  177.6260  142.4300 O   0  0  0  0  0  0  0  0  0  0  0  0
  189.1750  178.2710  144.3960 O   0  0  0  0  0  0  0  0  0  0  0  0
  189.3830  177.2630  145.3480 C   0  0  1  0  0  3  0  0  0  0  0  0
  190.7750  177.3650  145.8980 C   0  0  0  0  0  3  0  0  0  0  0  0
  191.6320  176.3540  145.7720 C   0  0  0  0  0  2  0  0  0  0  0  0
  188.3290  177.3340  146.4630 C   0  0  1  0  0  3  0  0  0  0  0  0
  187.9650  177.5850  148.8210 O   0  0  0  0  0  1  0  0  0  0  0  0
  188.9370  177.6780  147.8220 C   0  0  0  0  0  2  0  0  0  0  0  0
  187.2620  178.3530  146.0970 C   0  0  0  0  0  2  0  0  0  0  0  0
  185.8870  177.7140  146.1090 C   0  0  0  0  0  2  0  0  0  0  0  0
  184.9690  178.5610  146.8550 N   0  0  0  0  0  1  0  0  0  0  0  0
  1 17  1  6  0  0  0
  1 27  1  0  0  0  0
  2  5  1  0  0  0  0
  2  1  1  0  0  0  0
  3  4  2  0  0  0  0
  4  2  2  0  0  0  0
  5  6  1  0  0  0  0
  6 14  1  0  0  0  0
  7  5  2  0  0  0  0
  8 11  1  0  0  0  0
  8 14  2  0  0  0  0
  9 10  2  0  0  0  0
  9 12  1  0  0  0  0
 11 13  2  0  0  0  0
 13 16  1  0  0  0  0
 13 10  1  0  0  0  0
 14  9  1  0  0  0  0
 16 15  1  0  0  0  0
 17 18  1  0  0  0  0
 19 18  1  0  0  0  0
 20 24  1  0  0  0  0
 20 26  1  0  0  0  0
 21 20  2  0  0  0  0
 22 19  1  1  0  0  0
 22 24  1  0  0  0  0
 23 21  1  0  0  0  0
 23 22  1  0  0  0  0
 26 25  1  0  0  0  0
 27 28  1  0  0  0  0
 28 29  1  0  0  0  0
 29 31  2  6  0  0  0
 29 30  1  0  0  0  0
 29 32  1  0  0  0  0
 32 33  1  0  0  0  0
 33 34  1  1  0  0  0
 33 36  1  0  0  0  0
 35 34  2  0  0  0  0
 36 39  1  6  0  0  0
 36 38  1  0  0  0  0
 38 37  1  0  0  0  0
 39 40  1  0  0  0  0
 40 41  1  0  0  0  0
M  END
>  <MODEL>
4

>  <REMARK>
 VINA RESULT:      -6.8      2.228      8.293
  Name = 
  19 active torsions:
  status: ('A' for Active; 'I' for Inactive)
    1  A    between atoms: C_1  and  C_16
    2  A    between atoms: C_1  and  C_20
    3  A    between atoms: O_2  and  C_8
    4  A    between atoms: O_2  and  P_10
    5  A    between atoms: C_5  and  C_29
    6  A    between atoms: C_7  and  C_23
    7  A    between atoms: C_7  and  C_26
    8  A    between atoms: C_8  and  C_20
    9  A    between atoms: C_9  and  C_21
   10  A    between atoms: C_9  and  C_36
   11  A    between atoms: C_9  and  C_37
   12  A    between atoms: P_10  and  O_31
   13  A    between atoms: C_12  and  C_20
   14  A    between atoms: C_12  and  C_26
   15  A    between atoms: C_13  and  C_21
   16  A    between atoms: O_31  and  C_36
   17  A    between atoms: C_32  and  C_36
   18  A    between atoms: N_34  and  C_40
   19  A    between atoms: C_35  and  N_41
                            x       y       z     vdW  Elec       q    Type
                         _______ _______ _______ _____ _____    ______ ____

>  <TORSDO>
F 19

$$$$
=
 OpenBabel10222418403D

 41 42  0  0  1  0  0  0  0  0999 V2000
  186.2770  178.3470  141.4640 C   0  0  2  0  0  3  0  0  0  0  0  0
  185.9750  178.0230  142.9040 C   0  0  0  0  0  0  0  0  0  0  0  0
  183.6550  178.4560  143.8650 O   0  0  0  0  0  0  0  0  0  0  0  0
  184.7810  178.2450  143.3990 C   0  0  0  0  0  0  0  0  0  0  0  0
  187.0250  177.4150  143.7430 C   0  0  0  0  0  0  0  0  0  0  0  0
  187.5360  178.1200  144.8830 N   0  0  0  0  0  2  0  0  0  0  0  0
  187.4290  176.2480  143.4860 O   0  0  0  0  0  0  0  0  0  0  0  0
  188.6050  177.5230  146.9890 C   0  0  0  0  0  3  0  0  0  0  0  0
  189.9810  177.6840  145.0170 C   0  0  0  0  0  0  0  0  0  0  0  0
  191.0930  177.3410  145.7880 C   0  0  0  0  0  3  0  0  0  0  0  0
  189.7030  177.1890  147.7200 N   0  0  0  0  0  0  0  0  0  0  0  0
  190.1600  177.9990  143.7100 F   0  0  0  0  0  0  0  0  0  0  0  0
  190.9340  177.0820  147.1560 C   0  0  0  0  0  0  0  0  0  0  0  0
  188.7130  177.7590  145.6180 C   0  0  0  0  0  0  0  0  0  0  0  0
  192.7560  175.4600  147.8440 C   0  0  0  0  0  1  0  0  0  0  0  0
  192.0510  176.7250  147.9750 N   0  0  0  0  0  2  0  0  0  0  0  0
  187.7170  178.8010  141.2410 C   0  0  0  0  0  2  0  0  0  0  0  0
  188.3090  178.1800  139.9810 C   0  0  0  0  0  2  0  0  0  0  0  0
  189.4710  177.2400  140.3050 C   0  0  0  0  0  2  0  0  0  0  0  0
  190.3750  175.3530  137.6360 C   0  0  0  0  0  0  0  0  0  0  0  0
  189.8830  176.3370  136.9690 N   0  0  0  0  0  0  0  0  0  0  0  0
  190.4590  177.0500  139.1500 C   0  0  2  0  0  3  0  0  0  0  0  0
  189.8740  177.5250  137.8140 C   0  0  0  0  0  2  0  0  0  0  0  0
  190.7370  175.6780  138.9270 O   0  0  0  0  0  0  0  0  0  0  0  0
  189.5680  173.8240  135.8890 C   0  0  0  0  0  1  0  0  0  0  0  0
  190.5050  173.9790  137.0720 C   0  0  0  0  0  2  0  0  0  0  0  0
  185.2730  179.3270  140.8630 C   0  0  0  0  0  2  0  0  0  0  0  0
  185.1610  179.1500  139.4790 O   0  0  0  0  0  0  0  0  0  0  0  0
  183.4960  179.0910  139.1620 P   0  0  1  0  0  0  0  0  0  0  0  0
  182.6620  178.5380  140.5300 O   0  0  0  0  0  1  0  0  0  0  0  0
  183.0070  180.4780  138.8010 O   0  0  0  0  0  0  0  0  0  0  0  0
  183.2330  178.0300  137.8590 O   0  0  0  0  0  0  0  0  0  0  0  0
  183.9200  176.8510  138.1760 C   0  0  1  0  0  3  0  0  0  0  0  0
  182.9430  175.7260  138.3480 C   0  0  0  0  0  3  0  0  0  0  0  0
  181.6860  175.8450  137.9240 C   0  0  0  0  0  2  0  0  0  0  0  0
  184.9730  176.5240  137.1060 C   0  0  1  0  0  3  0  0  0  0  0  0
  186.5490  174.7340  137.3670 O   0  0  0  0  0  1  0  0  0  0  0  0
  185.2370  175.0250  136.9830 C   0  0  0  0  0  2  0  0  0  0  0  0
  184.5330  177.0870  135.7640 C   0  0  0  0  0  2  0  0  0  0  0  0
  185.7090  177.1720  134.8090 C   0  0  0  0  0  2  0  0  0  0  0  0
  186.7790  177.9360  135.4300 N   0  0  0  0  0  1  0  0  0  0  0  0
  1 27  1  1  0  0  0
  1  2  1  0  0  0  0
  2  4  2  0  0  0  0
  2  5  1  0  0  0  0
  4  3  2  0  0  0  0
  5  6  1  0  0  0  0
  6 14  1  0  0  0  0
  7  5  2  0  0  0  0
  8 11  1  0  0  0  0
  9 14  1  0  0  0  0
  9 10  2  0  0  0  0
 10 13  1  0  0  0  0
 12  9  1  0  0  0  0
 13 11  2  0  0  0  0
 13 16  1  0  0  0  0
 14  8  2  0  0  0  0
 15 16  1  0  0  0  0
 17  1  1  0  0  0  0
 18 19  1  0  0  0  0
 18 17  1  0  0  0  0
 20 24  1  0  0  0  0
 21 20  2  0  0  0  0
 21 23  1  0  0  0  0
 22 19  1  1  0  0  0
 23 22  1  0  0  0  0
 24 22  1  0  0  0  0
 25 26  1  0  0  0  0
 26 20  1  0  0  0  0
 28 27  1  0  0  0  0
 29 31  2  6  0  0  0
 29 28  1  0  0  0  0
 29 30  1  0  0  0  0
 32 33  1  0  0  0  0
 32 29  1  0  0  0  0
 33 34  1  6  0  0  0
 35 34  2  0  0  0  0
 36 39  1  6  0  0  0
 36 33  1  0  0  0  0
 38 36  1  0  0  0  0
 38 37  1  0  0  0  0
 40 41  1  0  0  0  0
 40 39  1  0  0  0  0
M  END
>  <MODEL>
5

>  <REMARK>
 VINA RESULT:      -6.7      3.257      9.090
  Name = 
  19 active torsions:
  status: ('A' for Active; 'I' for Inactive)
    1  A    between atoms: C_1  and  C_16
    2  A    between atoms: C_1  and  C_20
    3  A    between atoms: O_2  and  C_8
    4  A    between atoms: O_2  and  P_10
    5  A    between atoms: C_5  and  C_29
    6  A    between atoms: C_7  and  C_23
    7  A    between atoms: C_7  and  C_26
    8  A    between atoms: C_8  and  C_20
    9  A    between atoms: C_9  and  C_21
   10  A    between atoms: C_9  and  C_36
   11  A    between atoms: C_9  and  C_37
   12  A    between atoms: P_10  and  O_31
   13  A    between atoms: C_12  and  C_20
   14  A    between atoms: C_12  and  C_26
   15  A    between atoms: C_13  and  C_21
   16  A    between atoms: O_31  and  C_36
   17  A    between atoms: C_32  and  C_36
   18  A    between atoms: N_34  and  C_40
   19  A    between atoms: C_35  and  N_41
                            x       y       z     vdW  Elec       q    Type
                         _______ _______ _______ _____ _____    ______ ____

>  <TORSDO>
F 19

$$$$
=
 OpenBabel10222418403D

 41 42  0  0  1  0  0  0  0  0999 V2000
  190.3330  177.7080  140.1250 C   0  0  2  0  0  3  0  0  0  0  0  0
  191.5470  177.5520  141.0030 C   0  0  0  0  0  0  0  0  0  0  0  0
  193.8210  177.0280  139.9800 O   0  0  0  0  0  0  0  0  0  0  0  0
  192.7180  177.2830  140.4770 C   0  0  0  0  0  0  0  0  0  0  0  0
  191.4150  177.7450  142.4600 C   0  0  0  0  0  0  0  0  0  0  0  0
  190.7010  176.7870  143.2520 N   0  0  0  0  0  2  0  0  0  0  0  0
  191.9830  178.7260  143.0110 O   0  0  0  0  0  0  0  0  0  0  0  0
  189.0930  177.6580  144.8630 C   0  0  0  0  0  3  0  0  0  0  0  0
  191.0690  176.5620  145.7020 C   0  0  0  0  0  0  0  0  0  0  0  0
  190.6210  176.7930  147.0030 C   0  0  0  0  0  3  0  0  0  0  0  0
  188.6760  177.8700  146.1400 N   0  0  0  0  0  0  0  0  0  0  0  0
  192.2840  175.9890  145.5180 F   0  0  0  0  0  0  0  0  0  0  0  0
  189.3990  177.4490  147.2100 C   0  0  0  0  0  0  0  0  0  0  0  0
  190.2880  176.9820  144.6110 C   0  0  0  0  0  0  0  0  0  0  0  0
  187.5400  178.1120  148.7990 C   0  0  0  0  0  1  0  0  0  0  0  0
  188.9080  177.6990  148.5300 N   0  0  0  0  0  2  0  0  0  0  0  0
  189.0400  177.2640  140.8050 C   0  0  0  0  0  2  0  0  0  0  0  0
  187.9540  178.3270  140.6860 C   0  0  0  0  0  2  0  0  0  0  0  0
  187.0880  178.3950  141.9440 C   0  0  0  0  0  2  0  0  0  0  0  0
  184.3310  178.7500  139.9990 C   0  0  0  0  0  0  0  0  0  0  0  0
  183.7630  178.1010  140.9540 N   0  0  0  0  0  0  0  0  0  0  0  0
  185.7510  179.1150  141.7400 C   0  0  2  0  0  3  0  0  0  0  0  0
  184.5630  178.2450  142.1660 C   0  0  0  0  0  2  0  0  0  0  0  0
  185.5060  179.3740  140.3670 O   0  0  0  0  0  0  0  0  0  0  0  0
  182.4390  179.4890  138.6170 C   0  0  0  0  0  1  0  0  0  0  0  0
  183.7850  178.7910  138.6130 C   0  0  0  0  0  2  0  0  0  0  0  0
  190.5110  177.0490  138.7600 C   0  0  0  0  0  2  0  0  0  0  0  0
  189.9190  175.7810  138.7300 O   0  0  0  0  0  0  0  0  0  0  0  0
  190.2580  175.1590  137.1890 P   0  0  1  0  0  0  0  0  0  0  0  0
  191.5690  175.9840  136.5020 O   0  0  0  0  0  0  0  0  0  0  0  0
  190.5950  173.6880  137.3070 O   0  0  0  0  0  1  0  0  0  0  0  0
  188.8780  175.3560  136.2140 O   0  0  0  0  0  0  0  0  0  0  0  0
  187.7810  175.0410  137.0270 C   0  0  1  0  0  3  0  0  0  0  0  0
  186.8530  176.2170  137.1030 C   0  0  0  0  0  3  0  0  0  0  0  0
  187.3300  177.4600  137.1260 C   0  0  0  0  0  2  0  0  0  0  0  0
  187.0600  173.7850  136.5140 C   0  0  1  0  0  3  0  0  0  0  0  0
  188.0840  171.6370  136.2110 O   0  0  0  0  0  1  0  0  0  0  0  0
  187.5700  172.5060  137.1760 C   0  0  0  0  0  2  0  0  0  0  0  0
  185.5630  173.9260  136.7380 C   0  0  0  0  0  2  0  0  0  0  0  0
  185.0770  172.9100  137.7540 C   0  0  0  0  0  2  0  0  0  0  0  0
  183.9480  172.1790  137.2000 N   0  0  0  0  0  1  0  0  0  0  0  0
  1 27  1  6  0  0  0
  1 17  1  0  0  0  0
  1  2  1  0  0  0  0
  2  5  1  0  0  0  0
  3  4  2  0  0  0  0
  4  2  2  0  0  0  0
  5  7  2  0  0  0  0
  5  6  1  0  0  0  0
  6 14  1  0  0  0  0
  8 11  1  0  0  0  0
  9 10  2  0  0  0  0
 10 13  1  0  0  0  0
 11 13  2  0  0  0  0
 12  9  1  0  0  0  0
 13 16  1  0  0  0  0
 14  8  2  0  0  0  0
 14  9  1  0  0  0  0
 16 15  1  0  0  0  0
 18 17  1  0  0  0  0
 18 19  1  0  0  0  0
 20 24  1  0  0  0  0
 20 21  2  0  0  0  0
 21 23  1  0  0  0  0
 22 19  1  6  0  0  0
 22 23  1  0  0  0  0
 24 22  1  0  0  0  0
 26 25  1  0  0  0  0
 26 20  1  0  0  0  0
 28 27  1  0  0  0  0
 29 30  2  6  0  0  0
 29 31  1  0  0  0  0
 29 28  1  0  0  0  0
 32 33  1  0  0  0  0
 32 29  1  0  0  0  0
 33 34  1  6  0  0  0
 34 35  2  0  0  0  0
 36 39  1  1  0  0  0
 36 33  1  0  0  0  0
 36 38  1  0  0  0  0
 37 38  1  0  0  0  0
 39 40  1  0  0  0  0
 41 40  1  0  0  0  0
M  END
>  <MODEL>
6

>  <REMARK>
 VINA RESULT:      -6.6      3.934      8.068
  Name = 
  19 active torsions:
  status: ('A' for Active; 'I' for Inactive)
    1  A    between atoms: C_1  and  C_16
    2  A    between atoms: C_1  and  C_20
    3  A    between atoms: O_2  and  C_8
    4  A    between atoms: O_2  and  P_10
    5  A    between atoms: C_5  and  C_29
    6  A    between atoms: C_7  and  C_23
    7  A    between atoms: C_7  and  C_26
    8  A    between atoms: C_8  and  C_20
    9  A    between atoms: C_9  and  C_21
   10  A    between atoms: C_9  and  C_36
   11  A    between atoms: C_9  and  C_37
   12  A    between atoms: P_10  and  O_31
   13  A    between atoms: C_12  and  C_20
   14  A    between atoms: C_12  and  C_26
   15  A    between atoms: C_13  and  C_21
   16  A    between atoms: O_31  and  C_36
   17  A    between atoms: C_32  and  C_36
   18  A    between atoms: N_34  and  C_40
   19  A    between atoms: C_35  and  N_41
                            x       y       z     vdW  Elec       q    Type
                         _______ _______ _______ _____ _____    ______ ____

>  <TORSDO>
F 19

$$$$
=
 OpenBabel10222418403D

 41 42  0  0  1  0  0  0  0  0999 V2000
  184.0980  179.1550  139.4120 C   0  0  2  0  0  3  0  0  0  0  0  0
  183.7940  178.8220  140.8490 C   0  0  0  0  0  0  0  0  0  0  0  0
  181.4610  178.0560  141.5310 O   0  0  0  0  0  0  0  0  0  0  0  0
  182.5940  178.4270  141.2000 C   0  0  0  0  0  0  0  0  0  0  0  0
  184.8720  178.9050  141.8530 C   0  0  0  0  0  0  0  0  0  0  0  0
  185.1810  177.7710  142.6750 N   0  0  0  0  0  2  0  0  0  0  0  0
  185.5570  179.9600  141.9450 O   0  0  0  0  0  0  0  0  0  0  0  0
  187.2950  177.2430  143.7670 C   0  0  0  0  0  3  0  0  0  0  0  0
  185.5750  178.3180  145.0690 C   0  0  0  0  0  0  0  0  0  0  0  0
  186.4290  178.3040  146.1730 C   0  0  0  0  0  3  0  0  0  0  0  0
  188.1100  177.2420  144.8550 N   0  0  0  0  0  0  0  0  0  0  0  0
  184.3090  178.7790  145.2240 F   0  0  0  0  0  0  0  0  0  0  0  0
  187.7160  177.7650  146.0460 C   0  0  0  0  0  0  0  0  0  0  0  0
  186.0160  177.7980  143.8400 C   0  0  0  0  0  0  0  0  0  0  0  0
  189.7840  176.8680  147.2060 C   0  0  0  0  0  1  0  0  0  0  0  0
  188.6190  177.7370  147.1550 N   0  0  0  0  0  2  0  0  0  0  0  0
  182.8600  179.1400  138.5180 C   0  0  0  0  0  2  0  0  0  0  0  0
  182.3160  180.5460  138.2940 C   0  0  0  0  0  2  0  0  0  0  0  0
  180.9030  180.7020  138.8580 C   0  0  0  0  0  2  0  0  0  0  0  0
  180.5120  183.4520  136.9100 C   0  0  0  0  0  0  0  0  0  0  0  0
  180.5890  182.5950  135.9530 N   0  0  0  0  0  0  0  0  0  0  0  0
  179.9610  181.5080  137.9580 C   0  0  2  0  0  3  0  0  0  0  0  0
  180.2500  181.2740  136.4710 C   0  0  0  0  0  2  0  0  0  0  0  0
  180.1540  182.9040  138.1250 O   0  0  0  0  0  0  0  0  0  0  0  0
  179.5790  185.7230  137.0110 C   0  0  0  0  0  1  0  0  0  0  0  0
  180.8200  184.8980  136.7270 C   0  0  0  0  0  2  0  0  0  0  0  0
  185.2230  178.2970  138.8390 C   0  0  0  0  0  2  0  0  0  0  0  0
  186.0740  179.0570  138.0280 O   0  0  0  0  0  0  0  0  0  0  0  0
  186.9610  177.9300  137.1220 P   0  0  1  0  0  0  0  0  0  0  0  0
  186.6770  176.3630  137.6990 O   0  0  0  0  0  1  0  0  0  0  0  0
  186.5410  178.0160  135.6700 O   0  0  0  0  0  0  0  0  0  0  0  0
  188.6140  178.3060  137.2650 O   0  0  0  0  0  0  0  0  0  0  0  0
  189.1890  177.2520  137.9880 C   0  0  1  0  0  3  0  0  0  0  0  0
  190.3040  176.6410  137.1930 C   0  0  0  0  0  3  0  0  0  0  0  0
  190.0450  175.8390  136.1620 C   0  0  0  0  0  2  0  0  0  0  0  0
  189.6740  177.7300  139.3660 C   0  0  1  0  0  3  0  0  0  0  0  0
  188.1580  179.0850  140.6380 O   0  0  0  0  0  1  0  0  0  0  0  0
  188.5520  177.7670  140.4010 C   0  0  0  0  0  2  0  0  0  0  0  0
  190.8020  176.8350  139.8520 C   0  0  0  0  0  2  0  0  0  0  0  0
  191.5010  177.4560  141.0450 C   0  0  0  0  0  2  0  0  0  0  0  0
  191.1780  176.6960  142.2420 N   0  0  0  0  0  1  0  0  0  0  0  0
  1 17  1  6  0  0  0
  1  2  1  0  0  0  0
  2  4  2  0  0  0  0
  2  5  1  0  0  0  0
  4  3  2  0  0  0  0
  5  7  2  0  0  0  0
  5  6  1  0  0  0  0
  6 14  1  0  0  0  0
  8 14  2  0  0  0  0
  8 11  1  0  0  0  0
  9 12  1  0  0  0  0
  9 10  2  0  0  0  0
 11 13  2  0  0  0  0
 13 10  1  0  0  0  0
 13 16  1  0  0  0  0
 14  9  1  0  0  0  0
 16 15  1  0  0  0  0
 18 17  1  0  0  0  0
 18 19  1  0  0  0  0
 20 24  1  0  0  0  0
 21 23  1  0  0  0  0
 21 20  2  0  0  0  0
 22 24  1  0  0  0  0
 22 19  1  1  0  0  0
 23 22  1  0  0  0  0
 26 20  1  0  0  0  0
 26 25  1  0  0  0  0
 27  1  1  0  0  0  0
 28 27  1  0  0  0  0
 29 31  2  6  0  0  0
 29 32  1  0  0  0  0
 29 30  1  0  0  0  0
 29 28  1  0  0  0  0
 32 33  1  0  0  0  0
 33 34  1  6  0  0  0
 33 36  1  0  0  0  0
 35 34  2  0  0  0  0
 36 39  1  1  0  0  0
 36 38  1  0  0  0  0
 38 37  1  0  0  0  0
 39 40  1  0  0  0  0
 40 41  1  0  0  0  0
M  END
>  <MODEL>
7

>  <REMARK>
 VINA RESULT:      -6.6      4.133      7.703
  Name = 
  19 active torsions:
  status: ('A' for Active; 'I' for Inactive)
    1  A    between atoms: C_1  and  C_16
    2  A    between atoms: C_1  and  C_20
    3  A    between atoms: O_2  and  C_8
    4  A    between atoms: O_2  and  P_10
    5  A    between atoms: C_5  and  C_29
    6  A    between atoms: C_7  and  C_23
    7  A    between atoms: C_7  and  C_26
    8  A    between atoms: C_8  and  C_20
    9  A    between atoms: C_9  and  C_21
   10  A    between atoms: C_9  and  C_36
   11  A    between atoms: C_9  and  C_37
   12  A    between atoms: P_10  and  O_31
   13  A    between atoms: C_12  and  C_20
   14  A    between atoms: C_12  and  C_26
   15  A    between atoms: C_13  and  C_21
   16  A    between atoms: O_31  and  C_36
   17  A    between atoms: C_32  and  C_36
   18  A    between atoms: N_34  and  C_40
   19  A    between atoms: C_35  and  N_41
                            x       y       z     vdW  Elec       q    Type
                         _______ _______ _______ _____ _____    ______ ____

>  <TORSDO>
F 19

$$$$
=
 OpenBabel10222418403D

 41 42  0  0  1  0  0  0  0  0999 V2000
  185.5760  178.9220  142.0080 C   0  0  2  0  0  3  0  0  0  0  0  0
  185.5840  178.4880  143.4510 C   0  0  0  0  0  0  0  0  0  0  0  0
  183.5770  178.9550  144.9500 O   0  0  0  0  0  0  0  0  0  0  0  0
  184.5510  178.7280  144.2230 C   0  0  0  0  0  0  0  0  0  0  0  0
  186.7500  177.7550  143.9780 C   0  0  0  0  0  0  0  0  0  0  0  0
  187.4380  178.2340  145.1420 N   0  0  0  0  0  2  0  0  0  0  0  0
  187.1030  176.6730  143.4330 O   0  0  0  0  0  0  0  0  0  0  0  0
  188.8030  177.1660  146.8550 C   0  0  0  0  0  2  0  0  0  0  0  0
  189.8900  177.9360  144.8460 C   0  0  0  0  0  0  0  0  0  0  0  0
  191.1060  177.4720  145.3490 C   0  0  0  0  0  2  0  0  0  0  0  0
  189.9990  176.7190  147.3230 N   0  0  0  0  0  0  0  0  0  0  0  0
  189.8790  178.6000  143.6640 F   0  0  0  0  0  0  0  0  0  0  0  0
  191.1440  176.8470  146.6030 C   0  0  0  0  0  0  0  0  0  0  0  0
  188.7150  177.7660  145.5970 C   0  0  0  0  0  0  0  0  0  0  0  0
  192.4300  175.2930  148.1380 C   0  0  0  0  0  1  0  0  0  0  0  0
  192.3730  176.3570  147.1480 N   0  0  0  0  0  2  0  0  0  0  0  0
  184.4710  178.2600  141.1890 C   0  0  0  0  0  2  0  0  0  0  0  0
  183.3710  179.2530  140.8300 C   0  0  0  0  0  2  0  0  0  0  0  0
  182.5000  178.7410  139.6820 C   0  0  0  0  0  2  0  0  0  0  0  0
  180.0680  179.6990  141.8450 C   0  0  0  0  0  0  0  0  0  0  0  0
  179.9560  180.6940  141.0360 N   0  0  0  0  0  0  0  0  0  0  0  0
  180.9950  178.8760  139.9360 C   0  0  2  0  0  3  0  0  0  0  0  0
  180.5090  180.3170  139.7400 C   0  0  0  0  0  2  0  0  0  0  0  0
  180.6700  178.5900  141.2870 O   0  0  0  0  0  0  0  0  0  0  0  0
  180.0520  178.4940  143.9860 C   0  0  0  0  0  1  0  0  0  0  0  0
  179.6220  179.7580  143.2650 C   0  0  0  0  0  2  0  0  0  0  0  0
  186.9420  178.7710  141.3450 C   0  0  0  0  0  2  0  0  0  0  0  0
  186.8130  178.4950  139.9790 O   0  0  0  0  0  0  0  0  0  0  0  0
  188.3740  178.1030  139.4460 P   0  0  1  0  0  0  0  0  0  0  0  0
  188.9970  179.3590  138.4930 O   0  0  0  0  0  0  0  0  0  0  0  0
  189.2720  177.8880  140.6450 O   0  0  0  0  0  1  0  0  0  0  0  0
  188.2870  176.6740  138.5280 O   0  0  0  0  0  0  0  0  0  0  0  0
  187.8740  177.0620  137.2460 C   0  0  1  0  0  3  0  0  0  0  0  0
  189.0080  176.8990  136.2770 C   0  0  0  0  0  3  0  0  0  0  0  0
  189.0890  177.6630  135.1900 C   0  0  0  0  0  2  0  0  0  0  0  0
  186.6360  176.2670  136.8030 C   0  0  1  0  0  3  0  0  0  0  0  0
  187.2270  174.0210  136.2020 O   0  0  0  0  0  1  0  0  0  0  0  0
  186.6970  174.8020  137.2310 C   0  0  0  0  0  2  0  0  0  0  0  0
  185.3810  176.9200  137.3590 C   0  0  0  0  0  2  0  0  0  0  0  0
  184.1490  176.4140  136.6340 C   0  0  0  0  0  2  0  0  0  0  0  0
  183.2440  177.5250  136.3890 N   0  0  0  0  0  1  0  0  0  0  0  0
  1 17  1  6  0  0  0
  1  2  1  0  0  0  0
  2  5  1  0  0  0  0
  2  4  2  0  0  0  0
  4  3  2  0  0  0  0
  5  6  1  0  0  0  0
  6 14  1  0  0  0  0
  7  5  2  0  0  0  0
  8 11  1  0  0  0  0
  9 10  1  0  0  0  0
  9 14  2  0  0  0  0
 10 13  1  0  0  0  0
 12  9  1  0  0  0  0
 13 16  1  0  0  0  0
 13 11  2  0  0  0  0
 14  8  1  0  0  0  0
 16 15  1  0  0  0  0
 18 17  1  0  0  0  0
 19 18  1  0  0  0  0
 20 26  1  0  0  0  0
 21 20  2  0  0  0  0
 22 19  1  1  0  0  0
 22 24  1  0  0  0  0
 23 22  1  0  0  0  0
 23 21  1  0  0  0  0
 24 20  1  0  0  0  0
 26 25  1  0  0  0  0
 27  1  1  0  0  0  0
 28 27  1  0  0  0  0
 29 30  2  6  0  0  0
 29 28  1  0  0  0  0
 29 31  1  0  0  0  0
 32 29  1  0  0  0  0
 33 34  1  6  0  0  0
 33 32  1  0  0  0  0
 35 34  2  0  0  0  0
 36 38  1  1  0  0  0
 36 33  1  0  0  0  0
 36 39  1  0  0  0  0
 37 38  1  0  0  0  0
 40 39  1  0  0  0  0
 41 40  1  0  0  0  0
M  END
>  <MODEL>
8

>  <REMARK>
 VINA RESULT:      -6.6      3.611      7.340
  Name = 
  19 active torsions:
  status: ('A' for Active; 'I' for Inactive)
    1  A    between atoms: C_1  and  C_16
    2  A    between atoms: C_1  and  C_20
    3  A    between atoms: O_2  and  C_8
    4  A    between atoms: O_2  and  P_10
    5  A    between atoms: C_5  and  C_29
    6  A    between atoms: C_7  and  C_23
    7  A    between atoms: C_7  and  C_26
    8  A    between atoms: C_8  and  C_20
    9  A    between atoms: C_9  and  C_21
   10  A    between atoms: C_9  and  C_36
   11  A    between atoms: C_9  and  C_37
   12  A    between atoms: P_10  and  O_31
   13  A    between atoms: C_12  and  C_20
   14  A    between atoms: C_12  and  C_26
   15  A    between atoms: C_13  and  C_21
   16  A    between atoms: O_31  and  C_36
   17  A    between atoms: C_32  and  C_36
   18  A    between atoms: N_34  and  C_40
   19  A    between atoms: C_35  and  N_41
                            x       y       z     vdW  Elec       q    Type
                         _______ _______ _______ _____ _____    ______ ____

>  <TORSDO>
F 19

$$$$
=
 OpenBabel10222418403D

 41 42  0  0  1  0  0  0  0  0999 V2000
  190.0380  177.1470  139.5290 C   0  0  2  0  0  3  0  0  0  0  0  0
  191.1240  177.3190  140.5580 C   0  0  0  0  0  0  0  0  0  0  0  0
  193.5770  177.2670  139.8680 O   0  0  0  0  0  0  0  0  0  0  0  0
  192.3860  177.2930  140.2040 C   0  0  0  0  0  0  0  0  0  0  0  0
  190.7540  177.5560  141.9670 C   0  0  0  0  0  0  0  0  0  0  0  0
  189.7740  176.7260  142.6050 N   0  0  0  0  0  2  0  0  0  0  0  0
  191.3460  178.4560  142.6220 O   0  0  0  0  0  0  0  0  0  0  0  0
  189.9320  176.9970  145.0210 C   0  0  0  0  0  3  0  0  0  0  0  0
  187.7690  177.2360  143.9860 C   0  0  0  0  0  0  0  0  0  0  0  0
  187.2160  177.4880  145.2420 C   0  0  0  0  0  3  0  0  0  0  0  0
  189.3710  177.2470  146.2350 N   0  0  0  0  0  0  0  0  0  0  0  0
  186.9460  177.1580  142.9100 F   0  0  0  0  0  0  0  0  0  0  0  0
  188.0440  177.5010  146.3730 C   0  0  0  0  0  0  0  0  0  0  0  0
  189.1500  177.0050  143.8650 C   0  0  0  0  0  0  0  0  0  0  0  0
  188.3480  178.0750  148.8230 C   0  0  0  0  0  1  0  0  0  0  0  0
  187.5120  177.7590  147.6760 N   0  0  0  0  0  2  0  0  0  0  0  0
  190.5770  176.8460  138.1330 C   0  0  0  0  0  2  0  0  0  0  0  0
  190.3590  175.3870  137.7520 C   0  0  0  0  0  2  0  0  0  0  0  0
  191.3170  174.9400  136.6480 C   0  0  0  0  0  2  0  0  0  0  0  0
  194.7040  174.7750  136.6980 C   0  0  0  0  0  0  0  0  0  0  0  0
  194.5820  175.0540  135.4480 N   0  0  0  0  0  0  0  0  0  0  0  0
  192.6350  175.7190  136.6150 C   0  0  2  0  0  3  0  0  0  0  0  0
  193.2850  175.6840  135.2270 C   0  0  0  0  0  2  0  0  0  0  0  0
  193.6080  175.1260  137.4590 O   0  0  0  0  0  0  0  0  0  0  0  0
  195.6570  173.7440  138.7150 C   0  0  0  0  0  1  0  0  0  0  0  0
  195.9070  174.0990  137.2610 C   0  0  0  0  0  2  0  0  0  0  0  0
  189.0550  178.3140  139.5180 C   0  0  0  0  0  2  0  0  0  0  0  0
  187.7450  177.8740  139.7440 O   0  0  0  0  0  0  0  0  0  0  0  0
  186.8890  178.2510  138.3290 P   0  0  1  0  0  0  0  0  0  0  0  0
  187.8820  179.1130  137.2590 O   0  0  0  0  0  0  0  0  0  0  0  0
  186.4290  176.9700  137.6670 O   0  0  0  0  0  1  0  0  0  0  0  0
  185.5410  179.1980  138.7520 O   0  0  0  0  0  0  0  0  0  0  0  0
  184.7630  178.4040  139.6060 C   0  0  1  0  0  3  0  0  0  0  0  0
  184.9700  178.8350  141.0270 C   0  0  0  0  0  3  0  0  0  0  0  0
  184.0320  178.6200  141.9470 C   0  0  0  0  0  2  0  0  0  0  0  0
  183.2800  178.4600  139.2090 C   0  0  1  0  0  3  0  0  0  0  0  0
  181.8620  179.7300  137.7490 O   0  0  0  0  0  1  0  0  0  0  0  0
  182.8560  179.8450  138.7230 C   0  0  0  0  0  2  0  0  0  0  0  0
  182.9950  177.4220  138.1370 C   0  0  0  0  0  2  0  0  0  0  0  0
  182.9940  176.0270  138.7300 C   0  0  0  0  0  2  0  0  0  0  0  0
  182.0650  175.9800  139.8480 N   0  0  0  0  0  1  0  0  0  0  0  0
  1 17  1  6  0  0  0
  1  2  1  0  0  0  0
  2  5  1  0  0  0  0
  3  4  2  0  0  0  0
  4  2  2  0  0  0  0
  5  6  1  0  0  0  0
  5  7  2  0  0  0  0
  6 14  1  0  0  0  0
  8 11  1  0  0  0  0
  9 10  2  0  0  0  0
 10 13  1  0  0  0  0
 11 13  2  0  0  0  0
 12  9  1  0  0  0  0
 13 16  1  0  0  0  0
 14  9  1  0  0  0  0
 14  8  2  0  0  0  0
 16 15  1  0  0  0  0
 18 17  1  0  0  0  0
 19 18  1  0  0  0  0
 20 26  1  0  0  0  0
 20 24  1  0  0  0  0
 21 20  2  0  0  0  0
 22 19  1  6  0  0  0
 22 24  1  0  0  0  0
 23 21  1  0  0  0  0
 23 22  1  0  0  0  0
 26 25  1  0  0  0  0
 27  1  1  0  0  0  0
 27 28  1  0  0  0  0
 29 30  2  6  0  0  0
 29 32  1  0  0  0  0
 29 28  1  0  0  0  0
 31 29  1  0  0  0  0
 32 33  1  0  0  0  0
 33 34  1  1  0  0  0
 34 35  2  0  0  0  0
 36 39  1  6  0  0  0
 36 33  1  0  0  0  0
 37 38  1  0  0  0  0
 38 36  1  0  0  0  0
 39 40  1  0  0  0  0
 40 41  1  0  0  0  0
M  END
>  <MODEL>
9

>  <REMARK>
 VINA RESULT:      -6.5      3.003      9.731
  Name = 
  19 active torsions:
  status: ('A' for Active; 'I' for Inactive)
    1  A    between atoms: C_1  and  C_16
    2  A    between atoms: C_1  and  C_20
    3  A    between atoms: O_2  and  C_8
    4  A    between atoms: O_2  and  P_10
    5  A    between atoms: C_5  and  C_29
    6  A    between atoms: C_7  and  C_23
    7  A    between atoms: C_7  and  C_26
    8  A    between atoms: C_8  and  C_20
    9  A    between atoms: C_9  and  C_21
   10  A    between atoms: C_9  and  C_36
   11  A    between atoms: C_9  and  C_37
   12  A    between atoms: P_10  and  O_31
   13  A    between atoms: C_12  and  C_20
   14  A    between atoms: C_12  and  C_26
   15  A    between atoms: C_13  and  C_21
   16  A    between atoms: O_31  and  C_36
   17  A    between atoms: C_32  and  C_36
   18  A    between atoms: N_34  and  C_40
   19  A    between atoms: C_35  and  N_41
                            x       y       z     vdW  Elec       q    Type
                         _______ _______ _______ _____ _____    ______ ____

>  <TORSDO>
F 19

$$$$
