=
 OpenBabel10222416103D

 26 28  0  0  1  0  0  0  0  0999 V2000
  190.8810  176.5590  138.6680 C   0  0  0  0  0  0  0  0  0  0  0  0
  189.7020  175.9230  141.9850 N   0  0  0  0  0  0  0  0  0  0  0  0
  191.9140  175.8950  137.9490 N   0  0  0  0  0  1  0  0  0  0  0  0
  188.8010  177.7450  143.3700 C   0  0  2  0  0  3  0  0  0  0  0  0
  188.9830  177.9090  140.8310 C   0  0  0  0  0  0  0  0  0  0  0  0
  189.7410  176.6300  140.8940 C   0  0  0  0  0  0  0  0  0  0  0  0
  189.2160  178.3770  138.3590 C   0  0  0  0  0  3  0  0  0  0  0  0
  188.8610  176.2360  143.1400 C   0  0  0  0  0  2  0  0  0  0  0  0
  188.3260  178.4400  142.0920 C   0  0  1  0  0  3  0  0  0  0  0  0
  188.7810  178.6240  139.7300 C   0  0  0  0  0  3  0  0  0  0  0  0
  190.6730  176.2030  139.8970 N   0  0  0  0  0  0  0  0  0  0  0  0
  190.0870  177.5100  137.9530 N   0  0  0  0  0  0  0  0  0  0  0  0
  186.2070  178.7370  140.7890 C   0  0  0  0  0  3  0  0  0  0  0  0
  186.8260  178.4380  142.0070 C   0  0  0  0  0  0  0  0  0  0  0  0
  184.6340  178.1760  143.0050 C   0  0  0  0  0  3  0  0  0  0  0  0
  184.8500  178.7480  140.6960 N   0  0  0  0  0  0  0  0  0  0  0  0
  186.0250  178.1600  143.1220 C   0  0  0  0  0  3  0  0  0  0  0  0
  182.6430  178.4970  141.6320 N   0  0  0  0  0  1  0  0  0  0  0  0
  184.0590  178.4750  141.7690 C   0  0  0  0  0  0  0  0  0  0  0  0
  190.1550  178.3060  143.8060 C   0  0  0  0  0  2  0  0  0  0  0  0
  190.3980  178.1790  145.3090 C   0  0  1  0  0  3  0  0  0  0  0  0
  189.1910  177.9890  145.9870 O   0  0  0  0  0  1  0  0  0  0  0  0
  191.3710  177.0540  145.6250 C   0  0  0  0  0  2  0  0  0  0  0  0
  191.1630  176.5610  147.0460 C   0  0  0  0  0  2  0  0  0  0  0  0
  192.3080  175.6550  147.4580 C   0  0  0  0  0  2  0  0  0  0  0  0
  193.0080  176.2250  148.5220 O   0  0  0  0  0  1  0  0  0  0  0  0
  1 11  2  0  0  0  0
  2  8  1  0  0  0  0
  3  1  1  0  0  0  0
  4 20  1  6  0  0  0
  5  6  1  0  0  0  0
  5  9  1  0  0  0  0
  6  2  2  0  0  0  0
  7 10  1  0  0  0  0
  8  4  1  0  0  0  0
  9 14  1  6  0  0  0
  9  4  1  0  0  0  0
 10  5  2  0  0  0  0
 11  6  1  0  0  0  0
 12  7  2  0  0  0  0
 12  1  1  0  0  0  0
 13 14  1  0  0  0  0
 14 17  2  0  0  0  0
 15 17  1  0  0  0  0
 16 13  2  0  0  0  0
 16 19  1  0  0  0  0
 18 19  1  0  0  0  0
 19 15  2  0  0  0  0
 20 21  1  0  0  0  0
 21 23  1  0  0  0  0
 21 22  1  1  0  0  0
 23 24  1  0  0  0  0
 24 25  1  0  0  0  0
 25 26  1  0  0  0  0
M  END
>  <MODEL>
1

>  <REMARK>
 VINA RESULT:      -7.9      0.000      0.000
  Name = 
  6 active torsions:
  status: ('A' for Active; 'I' for Inactive)
    1  A    between atoms: C_4  and  C_21
    2  A    between atoms: C_6  and  C_14
    3  A    between atoms: C_11  and  C_14
    4  A    between atoms: C_11  and  C_25
    5  A    between atoms: C_12  and  C_24
    6  A    between atoms: C_24  and  C_25
                            x       y       z     vdW  Elec       q    Type
                         _______ _______ _______ _____ _____    ______ ____

>  <TORSDO>
F 6

$$$$
=
 OpenBabel10222416103D

 26 28  0  0  1  0  0  0  0  0999 V2000
  189.1330  177.9350  139.9820 C   0  0  0  0  0  0  0  0  0  0  0  0
  186.5290  179.6730  141.7140 N   0  0  0  0  0  0  0  0  0  0  0  0
  189.6690  178.1950  138.6910 N   0  0  0  0  0  1  0  0  0  0  0  0
  185.0630  178.4900  143.2930 C   0  0  2  0  0  3  0  0  0  0  0  0
  187.3340  177.5760  142.5780 C   0  0  0  0  0  0  0  0  0  0  0  0
  187.3650  178.6850  141.5860 C   0  0  0  0  0  0  0  0  0  0  0  0
  189.4570  176.3870  141.8980 C   0  0  0  0  0  3  0  0  0  0  0  0
  185.6170  179.8400  142.8440 C   0  0  0  0  0  2  0  0  0  0  0  0
  186.2200  177.5380  143.6080 C   0  0  1  0  0  3  0  0  0  0  0  0
  188.2450  176.6150  142.6790 C   0  0  0  0  0  3  0  0  0  0  0  0
  188.1320  178.6570  140.3800 N   0  0  0  0  0  0  0  0  0  0  0  0
  189.7960  176.9540  140.7850 N   0  0  0  0  0  0  0  0  0  0  0  0
  188.0340  177.3940  145.3290 C   0  0  0  0  0  3  0  0  0  0  0  0
  186.7200  177.7490  145.0090 C   0  0  0  0  0  0  0  0  0  0  0  0
  186.3990  178.4510  147.3050 C   0  0  0  0  0  3  0  0  0  0  0  0
  188.5020  177.5690  146.5950 N   0  0  0  0  0  0  0  0  0  0  0  0
  185.8990  178.2790  146.0140 C   0  0  0  0  0  3  0  0  0  0  0  0
  188.2430  178.2550  148.8900 N   0  0  0  0  0  1  0  0  0  0  0  0
  187.7180  178.0870  147.5790 C   0  0  0  0  0  0  0  0  0  0  0  0
  184.1440  177.8750  142.2370 C   0  0  0  0  0  2  0  0  0  0  0  0
  182.9050  178.7230  141.9550 C   0  0  1  0  0  3  0  0  0  0  0  0
  182.1290  178.1400  140.9500 O   0  0  0  0  0  1  0  0  0  0  0  0
  182.0770  178.9400  143.2120 C   0  0  0  0  0  2  0  0  0  0  0  0
  180.6170  179.1450  142.8520 C   0  0  0  0  0  2  0  0  0  0  0  0
  179.7380  178.8850  144.0610 C   0  0  0  0  0  2  0  0  0  0  0  0
  179.6880  177.5160  144.3280 O   0  0  0  0  0  1  0  0  0  0  0  0
  1 11  2  0  0  0  0
  1 12  1  0  0  0  0
  2  8  1  0  0  0  0
  3  1  1  0  0  0  0
  4 20  1  6  0  0  0
  4  9  1  0  0  0  0
  5 10  2  0  0  0  0
  5  9  1  0  0  0  0
  6  2  2  0  0  0  0
  6  5  1  0  0  0  0
  7 10  1  0  0  0  0
  8  4  1  0  0  0  0
  9 14  1  1  0  0  0
 11  6  1  0  0  0  0
 12  7  2  0  0  0  0
 13 16  1  0  0  0  0
 14 13  2  0  0  0  0
 14 17  1  0  0  0  0
 15 19  1  0  0  0  0
 16 19  2  0  0  0  0
 17 15  2  0  0  0  0
 19 18  1  0  0  0  0
 21 22  1  6  0  0  0
 21 20  1  0  0  0  0
 21 23  1  0  0  0  0
 24 23  1  0  0  0  0
 24 25  1  0  0  0  0
 25 26  1  0  0  0  0
M  END
>  <MODEL>
2

>  <REMARK>
 VINA RESULT:      -7.6      3.809      6.766
  Name = 
  6 active torsions:
  status: ('A' for Active; 'I' for Inactive)
    1  A    between atoms: C_4  and  C_21
    2  A    between atoms: C_6  and  C_14
    3  A    between atoms: C_11  and  C_14
    4  A    between atoms: C_11  and  C_25
    5  A    between atoms: C_12  and  C_24
    6  A    between atoms: C_24  and  C_25
                            x       y       z     vdW  Elec       q    Type
                         _______ _______ _______ _____ _____    ______ ____

>  <TORSDO>
F 6

$$$$
=
 OpenBabel10222416103D

 26 28  0  0  1  0  0  0  0  0999 V2000
  190.6410  176.7200  139.2410 C   0  0  0  0  0  0  0  0  0  0  0  0
  189.2150  175.8460  142.4040 N   0  0  0  0  0  0  0  0  0  0  0  0
  191.6970  176.0780  138.5340 N   0  0  0  0  0  1  0  0  0  0  0  0
  188.2870  177.5760  143.8840 C   0  0  2  0  0  3  0  0  0  0  0  0
  188.6480  177.9530  141.3880 C   0  0  0  0  0  0  0  0  0  0  0  0
  189.3550  176.6430  141.3850 C   0  0  0  0  0  0  0  0  0  0  0  0
  189.0660  178.6240  138.9870 C   0  0  0  0  0  3  0  0  0  0  0  0
  188.3090  176.0920  143.5240 C   0  0  0  0  0  2  0  0  0  0  0  0
  187.9250  178.3990  142.6450 C   0  0  1  0  0  3  0  0  0  0  0  0
  188.5470  178.7690  140.3440 C   0  0  0  0  0  3  0  0  0  0  0  0
  190.3370  176.2670  140.4170 N   0  0  0  0  0  0  0  0  0  0  0  0
  189.9320  177.7600  138.5630 N   0  0  0  0  0  0  0  0  0  0  0  0
  185.9090  178.7080  141.1900 C   0  0  0  0  0  3  0  0  0  0  0  0
  186.4350  178.4660  142.4630 C   0  0  0  0  0  0  0  0  0  0  0  0
  184.1750  178.3850  143.3310 C   0  0  0  0  0  3  0  0  0  0  0  0
  184.5630  178.7810  141.0080 N   0  0  0  0  0  0  0  0  0  0  0  0
  185.5520  178.3080  143.5400 C   0  0  0  0  0  3  0  0  0  0  0  0
  182.2930  178.7070  141.8120 N   0  0  0  0  0  1  0  0  0  0  0  0
  183.6940  178.6240  142.0430 C   0  0  0  0  0  0  0  0  0  0  0  0
  189.6260  178.0410  144.4570 C   0  0  0  0  0  2  0  0  0  0  0  0
  190.3480  176.9520  145.2470 C   0  0  1  0  0  3  0  0  0  0  0  0
  191.6610  176.8030  144.7910 O   0  0  0  0  0  1  0  0  0  0  0  0
  190.3310  177.2400  146.7400 C   0  0  0  0  0  2  0  0  0  0  0  0
  188.9630  176.9300  147.3210 C   0  0  0  0  0  2  0  0  0  0  0  0
  188.6020  177.9490  148.3860 C   0  0  0  0  0  2  0  0  0  0  0  0
  187.3680  178.5300  148.0920 O   0  0  0  0  0  1  0  0  0  0  0  0
  1 11  2  0  0  0  0
  2  8  1  0  0  0  0
  3  1  1  0  0  0  0
  4 20  1  6  0  0  0
  5  9  1  0  0  0  0
  6  5  1  0  0  0  0
  6  2  2  0  0  0  0
  7 10  1  0  0  0  0
  8  4  1  0  0  0  0
  9 14  1  6  0  0  0
  9  4  1  0  0  0  0
 10  5  2  0  0  0  0
 11  6  1  0  0  0  0
 12  7  2  0  0  0  0
 12  1  1  0  0  0  0
 13 14  1  0  0  0  0
 14 17  2  0  0  0  0
 15 17  1  0  0  0  0
 16 13  2  0  0  0  0
 16 19  1  0  0  0  0
 18 19  1  0  0  0  0
 19 15  2  0  0  0  0
 20 21  1  0  0  0  0
 21 22  1  6  0  0  0
 21 23  1  0  0  0  0
 23 24  1  0  0  0  0
 24 25  1  0  0  0  0
 26 25  1  0  0  0  0
M  END
>  <MODEL>
3

>  <REMARK>
 VINA RESULT:      -7.6      1.286      1.788
  Name = 
  6 active torsions:
  status: ('A' for Active; 'I' for Inactive)
    1  A    between atoms: C_4  and  C_21
    2  A    between atoms: C_6  and  C_14
    3  A    between atoms: C_11  and  C_14
    4  A    between atoms: C_11  and  C_25
    5  A    between atoms: C_12  and  C_24
    6  A    between atoms: C_24  and  C_25
                            x       y       z     vdW  Elec       q    Type
                         _______ _______ _______ _____ _____    ______ ____

>  <TORSDO>
F 6

$$$$
=
 OpenBabel10222416103D

 26 28  0  0  1  0  0  0  0  0999 V2000
  189.1290  178.0340  139.8590 C   0  0  0  0  0  0  0  0  0  0  0  0
  186.5020  179.6610  141.6640 N   0  0  0  0  0  0  0  0  0  0  0  0
  189.6360  178.3360  138.5650 N   0  0  0  0  0  1  0  0  0  0  0  0
  185.0980  178.4030  143.2430 C   0  0  2  0  0  3  0  0  0  0  0  0
  187.3830  177.5730  142.4750 C   0  0  0  0  0  0  0  0  0  0  0  0
  187.3660  178.7010  141.5050 C   0  0  0  0  0  0  0  0  0  0  0  0
  189.5300  176.4610  141.7390 C   0  0  0  0  0  3  0  0  0  0  0  0
  185.6040  179.7780  142.8120 C   0  0  0  0  0  2  0  0  0  0  0  0
  186.2870  177.4820  143.5210 C   0  0  1  0  0  3  0  0  0  0  0  0
  188.3240  176.6380  142.5430 C   0  0  0  0  0  3  0  0  0  0  0  0
  188.1140  178.7190  140.2860 N   0  0  0  0  0  0  0  0  0  0  0  0
  189.8340  177.0590  140.6320 N   0  0  0  0  0  0  0  0  0  0  0  0
  185.9290  178.1170  145.9180 C   0  0  0  0  0  3  0  0  0  0  0  0
  186.8040  177.6810  144.9180 C   0  0  0  0  0  0  0  0  0  0  0  0
  188.5910  177.6600  146.5540 C   0  0  0  0  0  3  0  0  0  0  0  0
  186.3810  178.3110  147.1860 N   0  0  0  0  0  0  0  0  0  0  0  0
  188.1480  177.4560  145.2470 C   0  0  0  0  0  3  0  0  0  0  0  0
  188.1170  178.3070  148.8580 N   0  0  0  0  0  1  0  0  0  0  0  0
  187.6820  178.0920  147.5210 C   0  0  0  0  0  0  0  0  0  0  0  0
  184.1800  177.7810  142.1890 C   0  0  0  0  0  2  0  0  0  0  0  0
  182.7390  178.2770  142.2840 C   0  0  1  0  0  3  0  0  0  0  0  0
  182.5990  179.1810  143.3400 O   0  0  0  0  0  1  0  0  0  0  0  0
  182.2760  178.9030  140.9780 C   0  0  0  0  0  2  0  0  0  0  0  0
  183.0630  178.3340  139.8120 C   0  0  0  0  0  2  0  0  0  0  0  0
  183.3300  179.4160  138.7830 C   0  0  0  0  0  2  0  0  0  0  0  0
  184.4100  180.2030  139.1870 O   0  0  0  0  0  1  0  0  0  0  0  0
  1 11  2  0  0  0  0
  1 12  1  0  0  0  0
  2  8  1  0  0  0  0
  3  1  1  0  0  0  0
  4 20  1  6  0  0  0
  4  9  1  0  0  0  0
  5 10  2  0  0  0  0
  5  9  1  0  0  0  0
  6  2  2  0  0  0  0
  6  5  1  0  0  0  0
  7 10  1  0  0  0  0
  8  4  1  0  0  0  0
  9 14  1  1  0  0  0
 11  6  1  0  0  0  0
 12  7  2  0  0  0  0
 13 16  1  0  0  0  0
 14 17  1  0  0  0  0
 14 13  2  0  0  0  0
 15 19  1  0  0  0  0
 16 19  2  0  0  0  0
 17 15  2  0  0  0  0
 19 18  1  0  0  0  0
 20 21  1  0  0  0  0
 21 22  1  1  0  0  0
 23 21  1  0  0  0  0
 24 23  1  0  0  0  0
 25 26  1  0  0  0  0
 25 24  1  0  0  0  0
M  END
>  <MODEL>
4

>  <REMARK>
 VINA RESULT:      -7.3      3.434      6.597
  Name = 
  6 active torsions:
  status: ('A' for Active; 'I' for Inactive)
    1  A    between atoms: C_4  and  C_21
    2  A    between atoms: C_6  and  C_14
    3  A    between atoms: C_11  and  C_14
    4  A    between atoms: C_11  and  C_25
    5  A    between atoms: C_12  and  C_24
    6  A    between atoms: C_24  and  C_25
                            x       y       z     vdW  Elec       q    Type
                         _______ _______ _______ _____ _____    ______ ____

>  <TORSDO>
F 6

$$$$
=
 OpenBabel10222416103D

 26 28  0  0  1  0  0  0  0  0999 V2000
  190.5500  177.2140  146.2240 C   0  0  0  0  0  0  0  0  0  0  0  0
  187.7150  176.6130  144.1250 N   0  0  0  0  0  0  0  0  0  0  0  0
  190.7330  176.8650  147.5910 N   0  0  0  0  0  1  0  0  0  0  0  0
  187.1500  178.1640  142.3030 C   0  0  2  0  0  3  0  0  0  0  0  0
  189.4680  178.0750  143.3620 C   0  0  0  0  0  0  0  0  0  0  0  0
  188.8730  177.1530  144.3680 C   0  0  0  0  0  0  0  0  0  0  0  0
  191.7810  178.2940  144.3570 C   0  0  0  0  0  3  0  0  0  0  0  0
  186.9890  176.7530  142.8640 C   0  0  0  0  0  2  0  0  0  0  0  0
  188.6380  178.4950  142.1630 C   0  0  1  0  0  3  0  0  0  0  0  0
  190.7120  178.5390  143.3920 C   0  0  0  0  0  3  0  0  0  0  0  0
  189.4000  176.9580  145.6820 N   0  0  0  0  0  0  0  0  0  0  0  0
  191.6790  177.7380  145.5210 N   0  0  0  0  0  0  0  0  0  0  0  0
  190.0440  176.8620  140.8840 C   0  0  0  0  0  3  0  0  0  0  0  0
  189.1850  177.9650  140.8670 C   0  0  0  0  0  0  0  0  0  0  0  0
  189.4040  178.0420  138.4560 C   0  0  0  0  0  3  0  0  0  0  0  0
  190.5550  176.3750  139.7210 N   0  0  0  0  0  0  0  0  0  0  0  0
  188.8690  178.5580  139.6370 C   0  0  0  0  0  3  0  0  0  0  0  0
  190.8090  176.3990  137.3250 N   0  0  0  0  0  1  0  0  0  0  0  0
  190.2540  176.9360  138.5200 C   0  0  0  0  0  0  0  0  0  0  0  0
  186.4560  179.2060  143.1820 C   0  0  0  0  0  2  0  0  0  0  0  0
  184.9730  179.3710  142.8560 C   0  0  1  0  0  3  0  0  0  0  0  0
  184.7400  179.1380  141.4980 O   0  0  0  0  0  1  0  0  0  0  0  0
  184.1080  178.4580  143.7110 C   0  0  0  0  0  2  0  0  0  0  0  0
  183.8370  179.1000  145.0590 C   0  0  0  0  0  2  0  0  0  0  0  0
  184.6650  178.4250  146.1370 C   0  0  0  0  0  2  0  0  0  0  0  0
  185.4150  179.3780  146.8280 O   0  0  0  0  0  1  0  0  0  0  0  0
  1  3  1  0  0  0  0
  2  6  2  0  0  0  0
  4  8  1  0  0  0  0
  4 20  1  1  0  0  0
  5 10  2  0  0  0  0
  5  6  1  0  0  0  0
  6 11  1  0  0  0  0
  7 12  2  0  0  0  0
  8  2  1  0  0  0  0
  9 14  1  6  0  0  0
  9  4  1  0  0  0  0
  9  5  1  0  0  0  0
 10  7  1  0  0  0  0
 11  1  2  0  0  0  0
 12  1  1  0  0  0  0
 14 13  1  0  0  0  0
 15 19  2  0  0  0  0
 15 17  1  0  0  0  0
 16 13  2  0  0  0  0
 17 14  2  0  0  0  0
 18 19  1  0  0  0  0
 19 16  1  0  0  0  0
 21 22  1  6  0  0  0
 21 20  1  0  0  0  0
 21 23  1  0  0  0  0
 23 24  1  0  0  0  0
 24 25  1  0  0  0  0
 25 26  1  0  0  0  0
M  END
>  <MODEL>
5

>  <REMARK>
 VINA RESULT:      -7.1      2.646      6.102
  Name = 
  6 active torsions:
  status: ('A' for Active; 'I' for Inactive)
    1  A    between atoms: C_4  and  C_21
    2  A    between atoms: C_6  and  C_14
    3  A    between atoms: C_11  and  C_14
    4  A    between atoms: C_11  and  C_25
    5  A    between atoms: C_12  and  C_24
    6  A    between atoms: C_24  and  C_25
                            x       y       z     vdW  Elec       q    Type
                         _______ _______ _______ _____ _____    ______ ____

>  <TORSDO>
F 6

$$$$
=
 OpenBabel10222416103D

 26 28  0  0  1  0  0  0  0  0999 V2000
  191.0860  177.1390  146.1850 C   0  0  0  0  0  0  0  0  0  0  0  0
  187.8580  176.4090  144.8250 N   0  0  0  0  0  0  0  0  0  0  0  0
  191.6540  176.6960  147.4120 N   0  0  0  0  0  1  0  0  0  0  0  0
  186.6990  178.0390  143.3940 C   0  0  2  0  0  3  0  0  0  0  0  0
  189.2140  178.1180  143.8100 C   0  0  0  0  0  0  0  0  0  0  0  0
  188.9880  177.0520  144.8230 C   0  0  0  0  0  0  0  0  0  0  0  0
  191.6810  178.5080  144.1990 C   0  0  0  0  0  3  0  0  0  0  0  0
  186.8140  176.5750  143.8150 C   0  0  0  0  0  2  0  0  0  0  0  0
  188.0630  178.5440  142.9170 C   0  0  1  0  0  3  0  0  0  0  0  0
  190.3780  178.7140  143.5740 C   0  0  0  0  0  3  0  0  0  0  0  0
  189.8590  176.8040  145.9300 N   0  0  0  0  0  0  0  0  0  0  0  0
  191.9390  177.8460  145.2810 N   0  0  0  0  0  0  0  0  0  0  0  0
  187.3730  178.6260  140.5100 C   0  0  0  0  0  3  0  0  0  0  0  0
  188.2890  178.1930  141.4740 C   0  0  0  0  0  0  0  0  0  0  0  0
  189.5610  177.1150  139.7160 C   0  0  0  0  0  3  0  0  0  0  0  0
  187.5580  178.3100  139.2000 N   0  0  0  0  0  0  0  0  0  0  0  0
  189.3900  177.4280  141.0650 C   0  0  0  0  0  3  0  0  0  0  0  0
  188.7820  177.2610  137.4090 N   0  0  0  0  0  1  0  0  0  0  0  0
  188.6240  177.5710  138.7880 C   0  0  0  0  0  0  0  0  0  0  0  0
  186.1770  178.9170  144.5320 C   0  0  0  0  0  2  0  0  0  0  0  0
  184.7210  178.6280  144.8900 C   0  0  1  0  0  3  0  0  0  0  0  0
  184.4690  178.9570  146.2250 O   0  0  0  0  0  1  0  0  0  0  0  0
  183.7610  179.3630  143.9680 C   0  0  0  0  0  2  0  0  0  0  0  0
  182.3520  178.8250  144.1360 C   0  0  0  0  0  2  0  0  0  0  0  0
  181.5670  179.0030  142.8490 C   0  0  0  0  0  2  0  0  0  0  0  0
  182.3500  178.6280  141.7570 O   0  0  0  0  0  1  0  0  0  0  0  0
  1  3  1  0  0  0  0
  4  8  1  0  0  0  0
  4 20  1  1  0  0  0
  5  6  1  0  0  0  0
  6  2  2  0  0  0  0
  6 11  1  0  0  0  0
  7 12  2  0  0  0  0
  8  2  1  0  0  0  0
  9 14  1  6  0  0  0
  9  4  1  0  0  0  0
  9  5  1  0  0  0  0
 10  5  2  0  0  0  0
 10  7  1  0  0  0  0
 11  1  2  0  0  0  0
 12  1  1  0  0  0  0
 13 14  1  0  0  0  0
 15 17  1  0  0  0  0
 16 13  2  0  0  0  0
 17 14  2  0  0  0  0
 18 19  1  0  0  0  0
 19 16  1  0  0  0  0
 19 15  2  0  0  0  0
 20 21  1  0  0  0  0
 21 22  1  1  0  0  0
 23 24  1  0  0  0  0
 23 21  1  0  0  0  0
 25 24  1  0  0  0  0
 26 25  1  0  0  0  0
M  END
>  <MODEL>
6

>  <REMARK>
 VINA RESULT:      -7.1      2.915      6.333
  Name = 
  6 active torsions:
  status: ('A' for Active; 'I' for Inactive)
    1  A    between atoms: C_4  and  C_21
    2  A    between atoms: C_6  and  C_14
    3  A    between atoms: C_11  and  C_14
    4  A    between atoms: C_11  and  C_25
    5  A    between atoms: C_12  and  C_24
    6  A    between atoms: C_24  and  C_25
                            x       y       z     vdW  Elec       q    Type
                         _______ _______ _______ _____ _____    ______ ____

>  <TORSDO>
F 6

$$$$
=
 OpenBabel10222416103D

 26 28  0  0  1  0  0  0  0  0999 V2000
  184.5220  178.5300  145.6160 C   0  0  0  0  0  0  0  0  0  0  0  0
  186.8380  176.7220  143.5750 N   0  0  0  0  0  0  0  0  0  0  0  0
  183.1120  178.6480  145.4690 N   0  0  0  0  0  1  0  0  0  0  0  0
  189.1540  177.5040  143.3090 C   0  0  2  0  0  3  0  0  0  0  0  0
  187.6660  178.2500  145.2400 C   0  0  0  0  0  0  0  0  0  0  0  0
  186.5560  177.5550  144.5330 C   0  0  0  0  0  0  0  0  0  0  0  0
  186.3410  179.2630  147.1390 C   0  0  0  0  0  3  0  0  0  0  0  0
  188.1950  176.3200  143.2060 C   0  0  0  0  0  2  0  0  0  0  0  0
  189.0820  178.1030  144.7150 C   0  0  1  0  0  3  0  0  0  0  0  0
  187.5330  178.9690  146.3490 C   0  0  0  0  0  3  0  0  0  0  0  0
  185.1730  177.8760  144.7050 N   0  0  0  0  0  0  0  0  0  0  0  0
  185.1070  179.0650  146.8060 N   0  0  0  0  0  0  0  0  0  0  0  0
  191.3200  177.1610  145.3330 C   0  0  0  0  0  3  0  0  0  0  0  0
  189.9750  177.3530  145.6630 C   0  0  0  0  0  0  0  0  0  0  0  0
  190.3510  176.1270  147.7180 C   0  0  0  0  0  3  0  0  0  0  0  0
  192.1410  176.4780  146.1750 N   0  0  0  0  0  0  0  0  0  0  0  0
  189.4920  176.8250  146.8680 C   0  0  0  0  0  3  0  0  0  0  0  0
  192.5770  175.2530  148.2050 N   0  0  0  0  0  1  0  0  0  0  0  0
  191.6880  175.9630  147.3500 C   0  0  0  0  0  0  0  0  0  0  0  0
  188.8480  178.5740  142.2600 C   0  0  0  0  0  2  0  0  0  0  0  0
  188.3270  177.9930  140.9480 C   0  0  1  0  0  3  0  0  0  0  0  0
  187.1430  178.6310  140.5650 O   0  0  0  0  0  1  0  0  0  0  0  0
  189.3660  178.0870  139.8420 C   0  0  0  0  0  2  0  0  0  0  0  0
  190.1810  176.8080  139.7750 C   0  0  0  0  0  2  0  0  0  0  0  0
  191.6630  177.1270  139.8360 C   0  0  0  0  0  2  0  0  0  0  0  0
  192.0170  177.5030  141.1330 O   0  0  0  0  0  1  0  0  0  0  0  0
  1 12  1  0  0  0  0
  2  6  2  0  0  0  0
  3  1  1  0  0  0  0
  4 20  1  6  0  0  0
  4  9  1  0  0  0  0
  5 10  2  0  0  0  0
  6 11  1  0  0  0  0
  6  5  1  0  0  0  0
  8  4  1  0  0  0  0
  8  2  1  0  0  0  0
  9  5  1  0  0  0  0
  9 14  1  1  0  0  0
 10  7  1  0  0  0  0
 11  1  2  0  0  0  0
 12  7  2  0  0  0  0
 13 14  2  0  0  0  0
 13 16  1  0  0  0  0
 14 17  1  0  0  0  0
 16 19  2  0  0  0  0
 17 15  2  0  0  0  0
 19 15  1  0  0  0  0
 19 18  1  0  0  0  0
 21 22  1  6  0  0  0
 21 20  1  0  0  0  0
 23 21  1  0  0  0  0
 24 25  1  0  0  0  0
 24 23  1  0  0  0  0
 25 26  1  0  0  0  0
M  END
>  <MODEL>
7

>  <REMARK>
 VINA RESULT:      -7.0      3.427      7.237
  Name = 
  6 active torsions:
  status: ('A' for Active; 'I' for Inactive)
    1  A    between atoms: C_4  and  C_21
    2  A    between atoms: C_6  and  C_14
    3  A    between atoms: C_11  and  C_14
    4  A    between atoms: C_11  and  C_25
    5  A    between atoms: C_12  and  C_24
    6  A    between atoms: C_24  and  C_25
                            x       y       z     vdW  Elec       q    Type
                         _______ _______ _______ _____ _____    ______ ____

>  <TORSDO>
F 6

$$$$
=
 OpenBabel10222416103D

 26 28  0  0  1  0  0  0  0  0999 V2000
  190.8020  177.1900  147.1560 C   0  0  0  0  0  0  0  0  0  0  0  0
  190.2510  178.7210  143.9690 N   0  0  0  0  0  0  0  0  0  0  0  0
  191.9910  177.1630  147.9350 N   0  0  0  0  0  1  0  0  0  0  0  0
  188.6370  177.7660  142.3780 C   0  0  2  0  0  3  0  0  0  0  0  0
  188.5920  177.2300  144.8710 C   0  0  0  0  0  0  0  0  0  0  0  0
  189.8840  177.9620  144.9590 C   0  0  0  0  0  0  0  0  0  0  0  0
  188.4440  176.4140  147.2580 C   0  0  0  0  0  3  0  0  0  0  0  0
  189.4230  179.0070  142.7990 C   0  0  0  0  0  2  0  0  0  0  0  0
  187.8200  177.2490  143.5640 C   0  0  1  0  0  3  0  0  0  0  0  0
  188.0110  176.5810  145.8740 C   0  0  0  0  0  3  0  0  0  0  0  0
  190.8560  177.7470  145.9860 N   0  0  0  0  0  0  0  0  0  0  0  0
  189.6080  176.6790  147.7570 N   0  0  0  0  0  0  0  0  0  0  0  0
  185.8050  178.3050  142.5130 C   0  0  0  0  0  3  0  0  0  0  0  0
  186.5140  177.9840  143.6760 C   0  0  0  0  0  0  0  0  0  0  0  0
  184.7780  179.0630  144.9770 C   0  0  0  0  0  3  0  0  0  0  0  0
  184.6250  178.9770  142.5950 N   0  0  0  0  0  0  0  0  0  0  0  0
  185.9900  178.3740  144.9160 C   0  0  0  0  0  3  0  0  0  0  0  0
  182.8660  180.0600  143.8360 N   0  0  0  0  0  1  0  0  0  0  0  0
  184.1030  179.3580  143.7920 C   0  0  0  0  0  0  0  0  0  0  0  0
  189.5570  176.6660  141.8490 C   0  0  0  0  0  2  0  0  0  0  0  0
  190.5760  177.1760  140.8320 C   0  0  1  0  0  3  0  0  0  0  0  0
  191.8660  177.1420  141.3700 O   0  0  0  0  0  1  0  0  0  0  0  0
  190.5170  176.3840  139.5350 C   0  0  0  0  0  2  0  0  0  0  0  0
  189.3200  176.8170  138.7080 C   0  0  0  0  0  2  0  0  0  0  0  0
  189.2350  178.3310  138.6610 C   0  0  0  0  0  2  0  0  0  0  0  0
  187.9550  178.7480  139.0300 O   0  0  0  0  0  1  0  0  0  0  0  0
  1 12  1  0  0  0  0
  1  3  1  0  0  0  0
  2  6  2  0  0  0  0
  4 20  1  1  0  0  0
  4  8  1  0  0  0  0
  4  9  1  0  0  0  0
  5  6  1  0  0  0  0
  5 10  2  0  0  0  0
  6 11  1  0  0  0  0
  7 12  2  0  0  0  0
  8  2  1  0  0  0  0
  9 14  1  1  0  0  0
  9  5  1  0  0  0  0
 10  7  1  0  0  0  0
 11  1  2  0  0  0  0
 13 16  2  0  0  0  0
 13 14  1  0  0  0  0
 14 17  2  0  0  0  0
 16 19  1  0  0  0  0
 17 15  1  0  0  0  0
 19 18  1  0  0  0  0
 19 15  2  0  0  0  0
 21 22  1  1  0  0  0
 21 20  1  0  0  0  0
 23 21  1  0  0  0  0
 24 23  1  0  0  0  0
 25 24  1  0  0  0  0
 25 26  1  0  0  0  0
M  END
>  <MODEL>
8

>  <REMARK>
 VINA RESULT:      -6.6      3.046      5.921
  Name = 
  6 active torsions:
  status: ('A' for Active; 'I' for Inactive)
    1  A    between atoms: C_4  and  C_21
    2  A    between atoms: C_6  and  C_14
    3  A    between atoms: C_11  and  C_14
    4  A    between atoms: C_11  and  C_25
    5  A    between atoms: C_12  and  C_24
    6  A    between atoms: C_24  and  C_25
                            x       y       z     vdW  Elec       q    Type
                         _______ _______ _______ _____ _____    ______ ____

>  <TORSDO>
F 6

$$$$
=
 OpenBabel10222416103D

 26 28  0  0  1  0  0  0  0  0999 V2000
  185.8000  176.0790  135.6500 C   0  0  0  0  0  0  0  0  0  0  0  0
  187.8660  178.6420  137.0520 N   0  0  0  0  0  0  0  0  0  0  0  0
  184.4980  176.1950  135.0890 N   0  0  0  0  0  1  0  0  0  0  0  0
  189.4470  178.1310  138.8640 C   0  0  2  0  0  3  0  0  0  0  0  0
  188.4870  176.3340  137.3300 C   0  0  0  0  0  0  0  0  0  0  0  0
  187.5920  177.3970  136.7970 C   0  0  0  0  0  0  0  0  0  0  0  0
  187.5490  174.3620  136.0580 C   0  0  0  0  0  3  0  0  0  0  0  0
  189.0720  179.0960  137.7420 C   0  0  0  0  0  2  0  0  0  0  0  0
  189.5920  176.7160  138.2980 C   0  0  1  0  0  3  0  0  0  0  0  0
  188.4360  175.0510  136.9900 C   0  0  0  0  0  3  0  0  0  0  0  0
  186.3320  177.1410  136.1700 N   0  0  0  0  0  0  0  0  0  0  0  0
  186.4650  174.8200  135.5180 N   0  0  0  0  0  0  0  0  0  0  0  0
  192.0840  176.6510  138.5440 C   0  0  0  0  0  3  0  0  0  0  0  0
  190.9630  176.5080  137.7200 C   0  0  0  0  0  0  0  0  0  0  0  0
  192.4440  176.0110  135.8690 C   0  0  0  0  0  3  0  0  0  0  0  0
  193.3340  176.4750  138.0360 N   0  0  0  0  0  0  0  0  0  0  0  0
  191.1530  176.1880  136.3690 C   0  0  0  0  0  3  0  0  0  0  0  0
  194.8560  175.9830  136.2340 N   0  0  0  0  0  1  0  0  0  0  0  0
  193.5340  176.1590  136.7280 C   0  0  0  0  0  0  0  0  0  0  0  0
  188.4160  178.1470  139.9930 C   0  0  0  0  0  2  0  0  0  0  0  0
  188.8670  177.3640  141.2250 C   0  0  1  0  0  3  0  0  0  0  0  0
  190.2180  177.6030  141.4910 O   0  0  0  0  0  1  0  0  0  0  0  0
  188.0150  177.6950  142.4410 C   0  0  0  0  0  2  0  0  0  0  0  0
  188.0860  176.5690  143.4560 C   0  0  0  0  0  2  0  0  0  0  0  0
  188.2070  177.1350  144.8590 C   0  0  0  0  0  2  0  0  0  0  0  0
  189.2090  178.1060  144.8960 O   0  0  0  0  0  1  0  0  0  0  0  0
  1 11  2  0  0  0  0
  2  8  1  0  0  0  0
  3  1  1  0  0  0  0
  4 20  1  1  0  0  0
  5  9  1  0  0  0  0
  6  2  2  0  0  0  0
  6  5  1  0  0  0  0
  7 10  1  0  0  0  0
  8  4  1  0  0  0  0
  9 14  1  6  0  0  0
  9  4  1  0  0  0  0
 10  5  2  0  0  0  0
 11  6  1  0  0  0  0
 12  1  1  0  0  0  0
 12  7  2  0  0  0  0
 14 13  2  0  0  0  0
 15 17  2  0  0  0  0
 15 19  1  0  0  0  0
 16 13  1  0  0  0  0
 17 14  1  0  0  0  0
 18 19  1  0  0  0  0
 19 16  2  0  0  0  0
 20 21  1  0  0  0  0
 21 22  1  1  0  0  0
 21 23  1  0  0  0  0
 23 24  1  0  0  0  0
 24 25  1  0  0  0  0
 25 26  1  0  0  0  0
M  END
>  <MODEL>
9

>  <REMARK>
 VINA RESULT:      -6.4      3.160      6.728
  Name = 
  6 active torsions:
  status: ('A' for Active; 'I' for Inactive)
    1  A    between atoms: C_4  and  C_21
    2  A    between atoms: C_6  and  C_14
    3  A    between atoms: C_11  and  C_14
    4  A    between atoms: C_11  and  C_25
    5  A    between atoms: C_12  and  C_24
    6  A    between atoms: C_24  and  C_25
                            x       y       z     vdW  Elec       q    Type
                         _______ _______ _______ _____ _____    ______ ____

>  <TORSDO>
F 6

$$$$
