=
 OpenBabel10222419233D

 49 53  0  0  1  0  0  0  0  0999 V2000
  185.5230  178.0890  139.8950 C   0  0  0  0  0  2  0  0  0  0  0  0
  182.9380  179.1020  140.2210 C   0  0  2  0  0  3  0  0  0  0  0  0
  185.5470  178.5160  143.7220 C   0  0  1  0  0  3  0  0  0  0  0  0
  183.6930  179.6670  139.0100 C   0  0  0  0  0  2  0  0  0  0  0  0
  183.8320  179.2080  141.4690 C   0  0  1  0  0  3  0  0  0  0  0  0
  185.0360  178.9660  138.7300 C   0  0  2  0  0  3  0  0  0  0  0  0
  183.1850  178.5850  142.7100 C   0  0  0  0  0  2  0  0  0  0  0  0
  185.3080  178.7740  141.2430 C   0  0  1  0  0  3  0  0  0  0  0  0
  185.8410  177.8850  142.3630 C   0  0  0  0  0  2  0  0  0  0  0  0
  184.0550  178.8010  143.9480 C   0  0  0  0  0  2  0  0  0  0  0  0
  186.0570  177.6410  144.8080 C   0  0  0  0  0  3  0  0  0  0  0  0
  188.5810  176.9690  144.8550 C   0  0  0  0  0  0  0  0  0  0  0  0
  191.1880  177.5110  147.5660 C   0  0  0  0  0  1  0  0  0  0  0  0
  187.3140  177.3010  144.8320 C   0  0  0  0  0  0  0  0  0  0  0  0
  191.3910  177.5340  145.0880 C   0  0  0  0  0  2  0  0  0  0  0  0
  188.6970  177.3650  142.4890 O   0  0  0  0  0  1  0  0  0  0  0  0
  189.4190  176.9140  143.5980 C   0  0  1  0  0  0  0  0  0  0  0  0
  190.6570  177.8030  143.7700 C   0  0  0  0  0  2  0  0  0  0  0  0
  189.2600  176.7970  146.1770 C   0  0  0  0  0  2  0  0  0  0  0  0
  190.4460  177.7500  146.2690 C   0  0  1  0  0  3  0  0  0  0  0  0
  189.8520  175.4830  143.3360 C   0  0  0  0  0  1  0  0  0  0  0  0
  184.9050  178.1670  137.5190 N   0  0  0  0  0  2  0  0  0  0  0  0
  186.2380  177.8570  135.2590 O   0  0  0  0  0  0  0  0  0  0  0  0
  187.2110  179.2990  136.9730 O   0  0  0  0  0  0  0  0  0  0  0  0
  186.4430  178.0300  136.7350 S   0  0  0  0  0  0  0  0  0  0  0  0
  187.3670  176.6390  137.3700 C   0  0  0  0  0  2  0  0  0  0  0  0
  189.4990  176.1490  136.1050 C   0  0  0  0  0  0  0  0  0  0  0  0
  188.7900  176.8380  137.1410 N   0  0  0  0  0  2  0  0  0  0  0  0
  188.8780  175.4430  135.2640 O   0  0  0  0  0  0  0  0  0  0  0  0
  190.9810  176.2770  136.0090 C   0  0  0  0  0  2  0  0  0  0  0  0
  191.9360  175.3460  137.9840 C   0  0  0  0  0  2  0  0  0  0  0  0
  191.6270  175.0930  136.5690 N   0  0  0  0  0  0  0  0  0  0  0  0
  193.1330  176.2920  138.1400 C   0  0  0  0  0  2  0  0  0  0  0  0
  192.8460  174.7890  135.8020 C   0  0  0  0  0  2  0  0  0  0  0  0
  194.2550  175.7490  137.4950 O   0  0  0  0  0  0  0  0  0  0  0  0
  193.9730  175.7770  136.1210 C   0  0  0  0  0  2  0  0  0  0  0  0
  182.4710  177.6660  139.9610 C   0  0  0  0  0  2  0  0  0  0  0  0
  181.4690  177.6020  138.8180 C   0  0  0  0  0  2  0  0  0  0  0  0
  180.1620  178.2200  139.2070 C   0  0  0  0  0  0  0  0  0  0  0  0
  179.6550  177.9330  140.2830 O   0  0  0  0  0  0  0  0  0  0  0  0
  180.8860  180.7480  136.8660 C   0  0  0  0  0  3  0  0  0  0  0  0
  179.5110  179.2190  138.2970 C   0  0  1  0  0  3  0  0  0  0  0  0
  179.0350  180.4690  139.0570 C   0  0  0  0  0  2  0  0  0  0  0  0
  180.4050  179.5230  137.1190 C   0  0  0  0  0  3  0  0  0  0  0  0
  180.1320  181.5260  139.1200 C   0  0  0  0  0  2  0  0  0  0  0  0
  180.4960  181.9410  137.7000 C   0  0  1  0  0  3  0  0  0  0  0  0
  181.6230  182.9650  137.7260 C   0  0  0  0  0  2  0  0  0  0  0  0
  181.1010  184.2470  137.5530 O   0  0  0  0  0  0  0  0  0  0  0  0
  181.0130  184.4070  136.1690 C   0  0  0  0  0  1  0  0  0  0  0  0
  2 37  1  6  0  0  0
  2  5  1  0  0  0  0
  3 10  1  0  0  0  0
  3 11  1  1  0  0  0
  4  2  1  0  0  0  0
  5  7  1  1  0  0  0
  6 22  1  6  0  0  0
  6  4  1  0  0  0  0
  6  1  1  0  0  0  0
  7 10  1  0  0  0  0
  8  1  1  6  0  0  0
  8  5  1  0  0  0  0
  8  9  1  0  0  0  0
  9  3  1  0  0  0  0
 11 14  2  0  0  0  0
 12 19  1  0  0  0  0
 14 12  2  0  0  0  0
 15 20  1  0  0  0  0
 16 17  1  0  0  0  0
 17 21  1  6  0  0  0
 17 18  1  0  0  0  0
 17 12  1  0  0  0  0
 18 15  1  0  0  0  0
 19 20  1  0  0  0  0
 20 13  1  1  0  0  0
 23 25  2  0  0  0  0
 25 24  2  0  0  0  0
 25 26  1  0  0  0  0
 25 22  1  0  0  0  0
 27 28  1  0  0  0  0
 28 26  1  0  0  0  0
 29 27  2  0  0  0  0
 30 27  1  0  0  0  0
 30 32  1  0  0  0  0
 31 33  1  0  0  0  0
 32 31  1  0  0  0  0
 34 36  1  0  0  0  0
 34 32  1  0  0  0  0
 35 33  1  0  0  0  0
 36 35  1  0  0  0  0
 38 39  1  0  0  0  0
 38 37  1  0  0  0  0
 39 40  2  0  0  0  0
 41 44  2  0  0  0  0
 41 46  1  0  0  0  0
 42 43  1  0  0  0  0
 42 39  1  1  0  0  0
 43 45  1  0  0  0  0
 44 42  1  0  0  0  0
 46 47  1  1  0  0  0
 46 45  1  0  0  0  0
 48 47  1  0  0  0  0
 49 48  1  0  0  0  0
M  END
>  <MODEL>
1

>  <REMARK>
 VINA RESULT:      -7.5      0.000      0.000
  Name = 
  13 active torsions:
  status: ('A' for Active; 'I' for Inactive)
    1  A    between atoms: C_1  and  C_13
    2  A    between atoms: C_2  and  C_32
    3  A    between atoms: N_4  and  C_32
    4  A    between atoms: N_7  and  C_35
    5  A    between atoms: C_8  and  C_43
    6  A    between atoms: C_16  and  C_41
    7  A    between atoms: C_16  and  C_43
    8  A    between atoms: N_21  and  C_22
    9  A    between atoms: N_21  and  S_38
   10  A    between atoms: C_26  and  O_31
   11  A    between atoms: C_26  and  C_46
   12  A    between atoms: C_28  and  C_41
   13  A    between atoms: C_35  and  S_38
                            x       y       z     vdW  Elec       q    Type
                         _______ _______ _______ _____ _____    ______ ____

>  <TORSDO>
F 13

$$$$
=
 OpenBabel10222419233D

 49 53  0  0  1  0  0  0  0  0999 V2000
  184.1500  177.8300  140.0540 C   0  0  0  0  0  2  0  0  0  0  0  0
  181.7230  179.0900  140.6280 C   0  0  2  0  0  3  0  0  0  0  0  0
  184.7800  178.6380  143.7660 C   0  0  1  0  0  3  0  0  0  0  0  0
  182.3240  179.4620  139.2660 C   0  0  0  0  0  2  0  0  0  0  0  0
  182.7990  179.2440  141.7160 C   0  0  1  0  0  3  0  0  0  0  0  0
  183.5570  178.6230  138.8790 C   0  0  2  0  0  3  0  0  0  0  0  0
  182.3040  178.8080  143.0980 C   0  0  0  0  0  2  0  0  0  0  0  0
  184.1900  178.6640  141.3330 C   0  0  1  0  0  3  0  0  0  0  0  0
  184.8210  177.8500  142.4590 C   0  0  0  0  0  2  0  0  0  0  0  0
  183.3630  179.0720  144.1680 C   0  0  0  0  0  2  0  0  0  0  0  0
  185.3850  177.8370  144.8600 C   0  0  0  0  0  3  0  0  0  0  0  0
  187.9090  177.1760  144.7420 C   0  0  0  0  0  0  0  0  0  0  0  0
  190.7250  177.9010  147.1890 C   0  0  0  0  0  1  0  0  0  0  0  0
  186.6430  177.5030  144.8020 C   0  0  0  0  0  0  0  0  0  0  0  0
  190.7240  177.7640  144.7070 C   0  0  0  0  0  2  0  0  0  0  0  0
  187.8280  177.4200  142.3540 O   0  0  0  0  0  1  0  0  0  0  0  0
  188.6430  177.0430  143.4260 C   0  0  1  0  0  0  0  0  0  0  0  0
  189.8830  177.9450  143.4390 C   0  0  0  0  0  2  0  0  0  0  0  0
  188.6960  177.0930  146.0120 C   0  0  0  0  0  2  0  0  0  0  0  0
  189.8780  178.0530  145.9450 C   0  0  1  0  0  3  0  0  0  0  0  0
  189.0640  175.6000  143.2220 C   0  0  0  0  0  1  0  0  0  0  0  0
  183.1890  177.7200  137.7970 N   0  0  0  0  0  2  0  0  0  0  0  0
  184.9830  175.8460  137.2950 O   0  0  0  0  0  0  0  0  0  0  0  0
  184.2880  177.2880  135.4510 O   0  0  0  0  0  0  0  0  0  0  0  0
  184.6050  177.2490  136.9180 S   0  0  0  0  0  0  0  0  0  0  0  0
  185.9740  178.3430  137.2680 C   0  0  0  0  0  2  0  0  0  0  0  0
  188.4970  178.2110  137.2480 C   0  0  0  0  0  0  0  0  0  0  0  0
  187.2130  177.5840  137.3430 N   0  0  0  0  0  2  0  0  0  0  0  0
  188.5960  179.4680  137.2300 O   0  0  0  0  0  0  0  0  0  0  0  0
  189.7280  177.3740  137.1820 C   0  0  0  0  0  2  0  0  0  0  0  0
  190.7900  176.3720  139.0670 C   0  0  0  0  0  2  0  0  0  0  0  0
  189.6480  176.2790  138.1450 N   0  0  0  0  0  0  0  0  0  0  0  0
  192.0930  175.9210  138.3960 C   0  0  0  0  0  2  0  0  0  0  0  0
  189.6410  174.9940  137.4300 C   0  0  0  0  0  2  0  0  0  0  0  0
  191.9580  174.6040  137.9320 O   0  0  0  0  0  0  0  0  0  0  0  0
  191.0290  174.6480  136.8810 C   0  0  0  0  0  2  0  0  0  0  0  0
  181.1210  177.6800  140.6000 C   0  0  0  0  0  2  0  0  0  0  0  0
  180.0110  177.5660  139.5660 C   0  0  0  0  0  2  0  0  0  0  0  0
  179.3610  176.2180  139.6160 C   0  0  0  0  0  0  0  0  0  0  0  0
  179.0360  175.7440  140.6950 O   0  0  0  0  0  0  0  0  0  0  0  0
  179.7390  173.0840  138.0570 C   0  0  0  0  0  3  0  0  0  0  0  0
  179.0730  175.4830  138.3400 C   0  0  1  0  0  3  0  0  0  0  0  0
  180.0860  175.8240  137.2340 C   0  0  0  0  0  2  0  0  0  0  0  0
  178.9310  174.0020  138.6050 C   0  0  0  0  0  3  0  0  0  0  0  0
  181.2880  174.8870  137.2800 C   0  0  0  0  0  2  0  0  0  0  0  0
  180.8060  173.4580  137.0610 C   0  0  1  0  0  3  0  0  0  0  0  0
  181.9780  172.4900  137.1460 C   0  0  0  0  0  2  0  0  0  0  0  0
  183.1350  173.1060  136.6690 O   0  0  0  0  0  0  0  0  0  0  0  0
  184.1280  172.1340  136.7990 C   0  0  0  0  0  1  0  0  0  0  0  0
  2 37  1  6  0  0  0
  2  5  1  0  0  0  0
  3 10  1  0  0  0  0
  3 11  1  1  0  0  0
  4  2  1  0  0  0  0
  5  7  1  1  0  0  0
  6 22  1  6  0  0  0
  6  4  1  0  0  0  0
  6  1  1  0  0  0  0
  7 10  1  0  0  0  0
  8  1  1  6  0  0  0
  8  5  1  0  0  0  0
  8  9  1  0  0  0  0
  9  3  1  0  0  0  0
 12 14  2  0  0  0  0
 12 19  1  0  0  0  0
 14 11  2  0  0  0  0
 15 20  1  0  0  0  0
 16 17  1  0  0  0  0
 17 21  1  6  0  0  0
 17 18  1  0  0  0  0
 17 12  1  0  0  0  0
 18 15  1  0  0  0  0
 20 19  1  0  0  0  0
 20 13  1  1  0  0  0
 24 25  2  0  0  0  0
 25 26  1  0  0  0  0
 25 23  2  0  0  0  0
 25 22  1  0  0  0  0
 26 28  1  0  0  0  0
 27 28  1  0  0  0  0
 29 27  2  0  0  0  0
 30 27  1  0  0  0  0
 30 32  1  0  0  0  0
 32 31  1  0  0  0  0
 33 31  1  0  0  0  0
 34 32  1  0  0  0  0
 35 33  1  0  0  0  0
 36 34  1  0  0  0  0
 36 35  1  0  0  0  0
 38 39  1  0  0  0  0
 38 37  1  0  0  0  0
 39 40  2  0  0  0  0
 41 44  2  0  0  0  0
 42 44  1  0  0  0  0
 42 39  1  1  0  0  0
 43 45  1  0  0  0  0
 43 42  1  0  0  0  0
 46 47  1  1  0  0  0
 46 45  1  0  0  0  0
 46 41  1  0  0  0  0
 48 49  1  0  0  0  0
 48 47  1  0  0  0  0
M  END
>  <MODEL>
2

>  <REMARK>
 VINA RESULT:      -7.3      2.348      4.057
  Name = 
  13 active torsions:
  status: ('A' for Active; 'I' for Inactive)
    1  A    between atoms: C_1  and  C_13
    2  A    between atoms: C_2  and  C_32
    3  A    between atoms: N_4  and  C_32
    4  A    between atoms: N_7  and  C_35
    5  A    between atoms: C_8  and  C_43
    6  A    between atoms: C_16  and  C_41
    7  A    between atoms: C_16  and  C_43
    8  A    between atoms: N_21  and  C_22
    9  A    between atoms: N_21  and  S_38
   10  A    between atoms: C_26  and  O_31
   11  A    between atoms: C_26  and  C_46
   12  A    between atoms: C_28  and  C_41
   13  A    between atoms: C_35  and  S_38
                            x       y       z     vdW  Elec       q    Type
                         _______ _______ _______ _____ _____    ______ ____

>  <TORSDO>
F 13

$$$$
=
 OpenBabel10222419233D

 49 53  0  0  1  0  0  0  0  0999 V2000
  188.3460  176.7190  138.9250 C   0  0  0  0  0  2  0  0  0  0  0  0
  189.8610  176.1650  136.6430 C   0  0  2  0  0  3  0  0  0  0  0  0
  185.6360  177.3520  136.2630 C   0  0  1  0  0  3  0  0  0  0  0  0
  190.6060  176.9670  137.7190 C   0  0  0  0  0  2  0  0  0  0  0  0
  188.5010  176.8310  136.3650 C   0  0  1  0  0  3  0  0  0  0  0  0
  189.8300  177.1020  139.0430 C   0  0  2  0  0  3  0  0  0  0  0  0
  187.6550  176.0410  135.3620 C   0  0  0  0  0  2  0  0  0  0  0  0
  187.7250  177.2640  137.6410 C   0  0  1  0  0  3  0  0  0  0  0  0
  186.2450  176.8940  137.5860 C   0  0  0  0  0  2  0  0  0  0  0  0
  186.3600  176.7840  135.0330 C   0  0  0  0  0  2  0  0  0  0  0  0
  184.1990  176.9780  136.2120 C   0  0  0  0  0  3  0  0  0  0  0  0
  182.4450  178.3810  137.5440 C   0  0  0  0  0  0  0  0  0  0  0  0
  179.3640  180.2270  136.3020 C   0  0  0  0  0  1  0  0  0  0  0  0
  183.3230  177.6740  136.8780 C   0  0  0  0  0  0  0  0  0  0  0  0
  180.9700  180.7820  138.1170 C   0  0  0  0  0  2  0  0  0  0  0  0
  184.1930  179.1010  139.0250 O   0  0  0  0  0  1  0  0  0  0  0  0
  182.8170  179.1590  138.7860 C   0  0  1  0  0  0  0  0  0  0  0  0
  182.4130  180.6280  138.6080 C   0  0  0  0  0  2  0  0  0  0  0  0
  181.0740  178.5590  136.9710 C   0  0  0  0  0  2  0  0  0  0  0  0
  180.7830  180.0440  136.7930 C   0  0  1  0  0  3  0  0  0  0  0  0
  182.0990  178.5750  139.9880 C   0  0  0  0  0  1  0  0  0  0  0  0
  190.4820  176.2810  140.0540 N   0  0  0  0  0  2  0  0  0  0  0  0
  191.7800  177.5580  141.9700 O   0  0  0  0  0  0  0  0  0  0  0  0
  189.4940  178.2590  141.4730 O   0  0  0  0  0  0  0  0  0  0  0  0
  190.4100  177.0750  141.5920 S   0  0  0  0  0  0  0  0  0  0  0  0
  189.8040  175.9700  142.8580 C   0  0  0  0  0  2  0  0  0  0  0  0
  188.0620  177.1410  144.2640 C   0  0  0  0  0  0  0  0  0  0  0  0
  188.4190  176.2830  143.1750 N   0  0  0  0  0  2  0  0  0  0  0  0
  188.9500  177.7650  144.9060 O   0  0  0  0  0  0  0  0  0  0  0  0
  186.6290  177.3110  144.6360 C   0  0  0  0  0  2  0  0  0  0  0  0
  186.0240  178.8890  146.3190 C   0  0  0  0  0  2  0  0  0  0  0  0
  186.3360  178.7190  144.8920 N   0  0  0  0  0  0  0  0  0  0  0  0
  184.6270  178.3530  146.6570 C   0  0  0  0  0  2  0  0  0  0  0  0
  185.2130  179.1500  144.0440 C   0  0  0  0  0  2  0  0  0  0  0  0
  183.6650  179.0100  145.8760 O   0  0  0  0  0  0  0  0  0  0  0  0
  183.8780  178.5940  144.5530 C   0  0  0  0  0  2  0  0  0  0  0  0
  189.7160  174.6940  137.0490 C   0  0  0  0  0  2  0  0  0  0  0  0
  191.0710  174.0440  137.2870 C   0  0  0  0  0  2  0  0  0  0  0  0
  191.6660  173.5470  136.0070 C   0  0  0  0  0  0  0  0  0  0  0  0
  190.9440  173.0260  135.1680 O   0  0  0  0  0  0  0  0  0  0  0  0
  194.8430  173.0270  137.4320 C   0  0  0  0  0  3  0  0  0  0  0  0
  193.1310  173.7330  135.7440 C   0  0  1  0  0  3  0  0  0  0  0  0
  193.5830  175.1830  135.9920 C   0  0  0  0  0  2  0  0  0  0  0  0
  193.9390  172.7020  136.4980 C   0  0  0  0  0  3  0  0  0  0  0  0
  194.0110  175.3860  137.4420 C   0  0  0  0  0  2  0  0  0  0  0  0
  195.1850  174.4620  137.7410 C   0  0  1  0  0  3  0  0  0  0  0  0
  195.6080  174.6070  139.1960 C   0  0  0  0  0  2  0  0  0  0  0  0
  197.0000  174.6460  139.2830 O   0  0  0  0  0  0  0  0  0  0  0  0
  197.2590  175.2540  140.5120 C   0  0  0  0  0  1  0  0  0  0  0  0
  1  6  1  0  0  0  0
  2 37  1  1  0  0  0
  2  4  1  0  0  0  0
  3 11  1  1  0  0  0
  3  9  1  0  0  0  0
  4  6  1  0  0  0  0
  5  7  1  1  0  0  0
  5  2  1  0  0  0  0
  5  8  1  0  0  0  0
  6 22  1  1  0  0  0
  8  9  1  6  0  0  0
  8  1  1  0  0  0  0
 10  7  1  0  0  0  0
 10  3  1  0  0  0  0
 11 14  2  0  0  0  0
 12 17  1  0  0  0  0
 14 12  2  0  0  0  0
 15 18  1  0  0  0  0
 17 16  1  0  0  0  0
 17 21  1  1  0  0  0
 18 17  1  0  0  0  0
 19 12  1  0  0  0  0
 20 13  1  1  0  0  0
 20 19  1  0  0  0  0
 20 15  1  0  0  0  0
 22 25  1  0  0  0  0
 24 25  2  0  0  0  0
 25 23  2  0  0  0  0
 25 26  1  0  0  0  0
 26 28  1  0  0  0  0
 27 30  1  0  0  0  0
 27 29  2  0  0  0  0
 28 27  1  0  0  0  0
 30 32  1  0  0  0  0
 31 33  1  0  0  0  0
 32 31  1  0  0  0  0
 34 36  1  0  0  0  0
 34 32  1  0  0  0  0
 35 33  1  0  0  0  0
 36 35  1  0  0  0  0
 37 38  1  0  0  0  0
 39 38  1  0  0  0  0
 40 39  2  0  0  0  0
 41 46  1  0  0  0  0
 42 43  1  0  0  0  0
 42 39  1  1  0  0  0
 42 44  1  0  0  0  0
 43 45  1  0  0  0  0
 44 41  2  0  0  0  0
 45 46  1  0  0  0  0
 46 47  1  1  0  0  0
 47 48  1  0  0  0  0
 48 49  1  0  0  0  0
M  END
>  <MODEL>
3

>  <REMARK>
 VINA RESULT:      -7.2      2.806     11.241
  Name = 
  13 active torsions:
  status: ('A' for Active; 'I' for Inactive)
    1  A    between atoms: C_1  and  C_13
    2  A    between atoms: C_2  and  C_32
    3  A    between atoms: N_4  and  C_32
    4  A    between atoms: N_7  and  C_35
    5  A    between atoms: C_8  and  C_43
    6  A    between atoms: C_16  and  C_41
    7  A    between atoms: C_16  and  C_43
    8  A    between atoms: N_21  and  C_22
    9  A    between atoms: N_21  and  S_38
   10  A    between atoms: C_26  and  O_31
   11  A    between atoms: C_26  and  C_46
   12  A    between atoms: C_28  and  C_41
   13  A    between atoms: C_35  and  S_38
                            x       y       z     vdW  Elec       q    Type
                         _______ _______ _______ _____ _____    ______ ____

>  <TORSDO>
F 13

$$$$
=
 OpenBabel10222419233D

 49 53  0  0  1  0  0  0  0  0999 V2000
  188.1930  176.2430  136.9300 C   0  0  0  0  0  2  0  0  0  0  0  0
  189.9770  177.8370  138.3730 C   0  0  2  0  0  3  0  0  0  0  0  0
  191.4920  174.8320  135.5310 C   0  0  1  0  0  3  0  0  0  0  0  0
  188.7450  178.5840  137.8430 C   0  0  0  0  0  2  0  0  0  0  0  0
  190.6160  177.0360  137.2260 C   0  0  1  0  0  3  0  0  0  0  0  0
  187.6810  177.6630  137.2170 C   0  0  2  0  0  3  0  0  0  0  0  0
  191.8060  176.1900  137.6910 C   0  0  0  0  0  2  0  0  0  0  0  0
  189.6010  176.2610  136.3390 C   0  0  1  0  0  3  0  0  0  0  0  0
  190.0510  174.8350  136.0340 C   0  0  0  0  0  2  0  0  0  0  0  0
  192.4770  175.4910  136.5090 C   0  0  0  0  0  2  0  0  0  0  0  0
  191.9270  173.4410  135.2480 C   0  0  0  0  0  3  0  0  0  0  0  0
  194.3930  172.7290  135.7320 C   0  0  0  0  0  0  0  0  0  0  0  0
  195.7260  169.9610  137.9680 C   0  0  0  0  0  1  0  0  0  0  0  0
  193.1570  173.0840  135.4850 C   0  0  0  0  0  0  0  0  0  0  0  0
  196.6320  172.2200  137.4640 C   0  0  0  0  0  2  0  0  0  0  0  0
  195.0600  175.0290  135.5460 O   0  0  0  0  0  1  0  0  0  0  0  0
  195.5310  173.7250  135.7270 C   0  0  1  0  0  0  0  0  0  0  0  0
  196.2760  173.6560  137.0660 C   0  0  0  0  0  2  0  0  0  0  0  0
  194.6670  171.3320  136.1930 C   0  0  0  0  0  2  0  0  0  0  0  0
  195.3670  171.3680  137.5460 C   0  0  1  0  0  3  0  0  0  0  0  0
  196.4870  173.4010  134.5950 C   0  0  0  0  0  1  0  0  0  0  0  0
  186.5250  177.6120  138.1020 N   0  0  0  0  0  2  0  0  0  0  0  0
  185.2910  177.4580  135.7700 O   0  0  0  0  0  0  0  0  0  0  0  0
  185.0210  175.6010  137.3320 O   0  0  0  0  0  0  0  0  0  0  0  0
  185.1300  177.0940  137.2170 S   0  0  0  0  0  0  0  0  0  0  0  0
  183.6450  177.8560  137.8550 C   0  0  0  0  0  2  0  0  0  0  0  0
  183.9740  178.8560  140.1520 C   0  0  0  0  0  0  0  0  0  0  0  0
  183.6160  177.7570  139.3060 N   0  0  0  0  0  2  0  0  0  0  0  0
  184.1990  179.9950  139.6610 O   0  0  0  0  0  0  0  0  0  0  0  0
  184.0690  178.6570  141.6260 C   0  0  0  0  0  2  0  0  0  0  0  0
  186.3600  178.4570  142.2560 C   0  0  0  0  0  2  0  0  0  0  0  0
  185.2200  179.3800  142.1600 N   0  0  0  0  0  0  0  0  0  0  0  0
  186.2000  177.4850  143.4330 C   0  0  0  0  0  2  0  0  0  0  0  0
  184.8780  179.9460  143.4750 C   0  0  0  0  0  2  0  0  0  0  0  0
  186.0660  178.2050  144.6290 O   0  0  0  0  0  0  0  0  0  0  0  0
  184.8280  178.8620  144.5580 C   0  0  0  0  0  2  0  0  0  0  0  0
  189.6150  176.9510  139.5700 C   0  0  0  0  0  2  0  0  0  0  0  0
  190.7610  176.8610  140.5670 C   0  0  0  0  0  2  0  0  0  0  0  0
  190.2580  176.8970  141.9760 C   0  0  0  0  0  0  0  0  0  0  0  0
  189.1650  176.4140  142.2390 O   0  0  0  0  0  0  0  0  0  0  0  0
  191.3090  176.3660  145.2940 C   0  0  0  0  0  3  0  0  0  0  0  0
  191.1160  177.4820  143.0590 C   0  0  1  0  0  3  0  0  0  0  0  0
  190.4220  178.6510  143.7780 C   0  0  0  0  0  2  0  0  0  0  0  0
  191.6070  176.3960  143.9880 C   0  0  0  0  0  3  0  0  0  0  0  0
  189.5970  178.1590  144.9610 C   0  0  0  0  0  2  0  0  0  0  0  0
  190.5240  177.4700  145.9550 C   0  0  1  0  0  3  0  0  0  0  0  0
  189.7230  176.9250  147.1290 C   0  0  0  0  0  2  0  0  0  0  0  0
  188.5520  177.6670  147.2880 O   0  0  0  0  0  0  0  0  0  0  0  0
  188.6080  178.1320  148.6030 C   0  0  0  0  0  1  0  0  0  0  0  0
  1  6  1  0  0  0  0
  2 37  1  1  0  0  0
  3 11  1  1  0  0  0
  3  9  1  0  0  0  0
  3 10  1  0  0  0  0
  4  2  1  0  0  0  0
  5  7  1  1  0  0  0
  5  2  1  0  0  0  0
  6  4  1  0  0  0  0
  6 22  1  1  0  0  0
  8  9  1  1  0  0  0
  8  1  1  0  0  0  0
  8  5  1  0  0  0  0
 10  7  1  0  0  0  0
 11 14  2  0  0  0  0
 12 19  1  0  0  0  0
 14 12  2  0  0  0  0
 15 20  1  0  0  0  0
 16 17  1  0  0  0  0
 17 21  1  6  0  0  0
 17 12  1  0  0  0  0
 17 18  1  0  0  0  0
 18 15  1  0  0  0  0
 19 20  1  0  0  0  0
 20 13  1  6  0  0  0
 23 25  2  0  0  0  0
 25 24  2  0  0  0  0
 25 26  1  0  0  0  0
 25 22  1  0  0  0  0
 26 28  1  0  0  0  0
 27 30  1  0  0  0  0
 28 27  1  0  0  0  0
 29 27  2  0  0  0  0
 30 32  1  0  0  0  0
 31 33  1  0  0  0  0
 32 31  1  0  0  0  0
 32 34  1  0  0  0  0
 33 35  1  0  0  0  0
 34 36  1  0  0  0  0
 36 35  1  0  0  0  0
 37 38  1  0  0  0  0
 38 39  1  0  0  0  0
 39 40  2  0  0  0  0
 41 46  1  0  0  0  0
 42 39  1  6  0  0  0
 42 43  1  0  0  0  0
 42 44  1  0  0  0  0
 43 45  1  0  0  0  0
 44 41  2  0  0  0  0
 45 46  1  0  0  0  0
 46 47  1  1  0  0  0
 47 48  1  0  0  0  0
 48 49  1  0  0  0  0
M  END
>  <MODEL>
4

>  <REMARK>
 VINA RESULT:      -7.2      2.918     10.127
  Name = 
  13 active torsions:
  status: ('A' for Active; 'I' for Inactive)
    1  A    between atoms: C_1  and  C_13
    2  A    between atoms: C_2  and  C_32
    3  A    between atoms: N_4  and  C_32
    4  A    between atoms: N_7  and  C_35
    5  A    between atoms: C_8  and  C_43
    6  A    between atoms: C_16  and  C_41
    7  A    between atoms: C_16  and  C_43
    8  A    between atoms: N_21  and  C_22
    9  A    between atoms: N_21  and  S_38
   10  A    between atoms: C_26  and  O_31
   11  A    between atoms: C_26  and  C_46
   12  A    between atoms: C_28  and  C_41
   13  A    between atoms: C_35  and  S_38
                            x       y       z     vdW  Elec       q    Type
                         _______ _______ _______ _____ _____    ______ ____

>  <TORSDO>
F 13

$$$$
=
 OpenBabel10222419233D

 49 53  0  0  1  0  0  0  0  0999 V2000
  183.9120  177.5530  142.0950 C   0  0  0  0  0  2  0  0  0  0  0  0
  185.7710  179.3810  141.0890 C   0  0  2  0  0  3  0  0  0  0  0  0
  182.5480  177.8490  138.5060 C   0  0  1  0  0  3  0  0  0  0  0  0
  185.2910  179.6840  142.5150 C   0  0  0  0  0  2  0  0  0  0  0  0
  184.5490  179.1430  140.1840 C   0  0  1  0  0  3  0  0  0  0  0  0
  184.4180  178.5730  143.1280 C   0  0  2  0  0  3  0  0  0  0  0  0
  184.9440  178.7480  138.7570 C   0  0  0  0  0  2  0  0  0  0  0  0
  183.4530  178.2360  140.8090 C   0  0  1  0  0  3  0  0  0  0  0  0
  182.9230  177.1900  139.8310 C   0  0  0  0  0  2  0  0  0  0  0  0
  183.7100  178.6220  137.8640 C   0  0  0  0  0  2  0  0  0  0  0  0
  182.0460  176.8240  137.5550 C   0  0  0  0  0  3  0  0  0  0  0  0
  183.6710  174.9980  136.6370 C   0  0  0  0  0  0  0  0  0  0  0  0
  183.4340  171.2110  136.8450 C   0  0  0  0  0  1  0  0  0  0  0  0
  182.8540  175.9150  137.0930 C   0  0  0  0  0  0  0  0  0  0  0  0
  185.4070  172.7220  136.9160 C   0  0  0  0  0  2  0  0  0  0  0  0
  185.5200  176.4630  137.0850 O   0  0  0  0  0  1  0  0  0  0  0  0
  185.1620  175.2300  136.5340 C   0  0  1  0  0  0  0  0  0  0  0  0
  185.9040  174.1220  137.2920 C   0  0  0  0  0  2  0  0  0  0  0  0
  183.1390  173.6270  136.3630 C   0  0  0  0  0  2  0  0  0  0  0  0
  183.9090  172.6050  137.1910 C   0  0  1  0  0  3  0  0  0  0  0  0
  185.5800  175.2180  135.0760 C   0  0  0  0  0  1  0  0  0  0  0  0
  185.1800  177.8980  144.1700 N   0  0  0  0  0  2  0  0  0  0  0  0
  185.3210  180.2260  145.4120 O   0  0  0  0  0  0  0  0  0  0  0  0
  183.6380  178.6260  146.1670 O   0  0  0  0  0  0  0  0  0  0  0  0
  185.0430  178.7720  145.6580 S   0  0  0  0  0  0  0  0  0  0  0  0
  186.1920  178.1510  146.8770 C   0  0  0  0  0  2  0  0  0  0  0  0
  188.6670  177.6650  146.7090 C   0  0  0  0  0  0  0  0  0  0  0  0
  187.3290  177.5240  146.2190 N   0  0  0  0  0  2  0  0  0  0  0  0
  188.8870  178.2320  147.8140 O   0  0  0  0  0  0  0  0  0  0  0  0
  189.8080  177.1270  145.9160 C   0  0  0  0  0  2  0  0  0  0  0  0
  190.1460  176.1850  143.7530 C   0  0  0  0  0  2  0  0  0  0  0  0
  189.5670  177.3180  144.4890 N   0  0  0  0  0  0  0  0  0  0  0  0
  191.6760  176.2780  143.6880 C   0  0  0  0  0  2  0  0  0  0  0  0
  190.1580  178.5940  144.0560 C   0  0  0  0  0  2  0  0  0  0  0  0
  192.0520  177.4850  143.0810 O   0  0  0  0  0  0  0  0  0  0  0  0
  191.6860  178.5060  143.9700 C   0  0  0  0  0  2  0  0  0  0  0  0
  186.7460  178.1990  141.0720 C   0  0  0  0  0  2  0  0  0  0  0  0
  188.1790  178.6600  140.8510 C   0  0  0  0  0  2  0  0  0  0  0  0
  188.6880  178.2230  139.5130 C   0  0  0  0  0  0  0  0  0  0  0  0
  188.6780  179.0100  138.5770 O   0  0  0  0  0  0  0  0  0  0  0  0
  191.7230  176.4480  139.3280 C   0  0  0  0  0  3  0  0  0  0  0  0
  189.2490  176.8410  139.3440 C   0  0  1  0  0  3  0  0  0  0  0  0
  189.2360  176.3880  137.8740 C   0  0  0  0  0  2  0  0  0  0  0  0
  190.6030  176.7360  140.0050 C   0  0  0  0  0  3  0  0  0  0  0  0
  190.5220  176.7910  137.1610 C   0  0  0  0  0  2  0  0  0  0  0  0
  191.7000  176.1210  137.8570 C   0  0  1  0  0  3  0  0  0  0  0  0
  193.0060  176.5400  137.1970 C   0  0  0  0  0  2  0  0  0  0  0  0
  194.0610  175.7880  137.7160 O   0  0  0  0  0  0  0  0  0  0  0  0
  194.6360  175.1750  136.6010 C   0  0  0  0  0  1  0  0  0  0  0  0
  1  6  1  0  0  0  0
  2 37  1  1  0  0  0
  2  4  1  0  0  0  0
  3 11  1  6  0  0  0
  3  9  1  0  0  0  0
  4  6  1  0  0  0  0
  5  7  1  6  0  0  0
  5  8  1  0  0  0  0
  5  2  1  0  0  0  0
  6 22  1  1  0  0  0
  8  9  1  6  0  0  0
  8  1  1  0  0  0  0
 10  3  1  0  0  0  0
 10  7  1  0  0  0  0
 12 14  2  0  0  0  0
 14 11  2  0  0  0  0
 15 20  1  0  0  0  0
 15 18  1  0  0  0  0
 17 21  1  6  0  0  0
 17 12  1  0  0  0  0
 17 16  1  0  0  0  0
 17 18  1  0  0  0  0
 19 12  1  0  0  0  0
 19 20  1  0  0  0  0
 20 13  1  6  0  0  0
 22 25  1  0  0  0  0
 23 25  2  0  0  0  0
 25 24  2  0  0  0  0
 25 26  1  0  0  0  0
 27 29  2  0  0  0  0
 28 27  1  0  0  0  0
 28 26  1  0  0  0  0
 30 27  1  0  0  0  0
 31 32  1  0  0  0  0
 32 30  1  0  0  0  0
 33 31  1  0  0  0  0
 34 32  1  0  0  0  0
 35 33  1  0  0  0  0
 35 36  1  0  0  0  0
 36 34  1  0  0  0  0
 38 37  1  0  0  0  0
 39 38  1  0  0  0  0
 40 39  2  0  0  0  0
 41 44  2  0  0  0  0
 42 39  1  6  0  0  0
 42 44  1  0  0  0  0
 43 42  1  0  0  0  0
 45 46  1  0  0  0  0
 45 43  1  0  0  0  0
 46 47  1  6  0  0  0
 46 41  1  0  0  0  0
 47 48  1  0  0  0  0
 49 48  1  0  0  0  0
M  END
>  <MODEL>
5

>  <REMARK>
 VINA RESULT:      -7.2      3.618      9.315
  Name = 
  13 active torsions:
  status: ('A' for Active; 'I' for Inactive)
    1  A    between atoms: C_1  and  C_13
    2  A    between atoms: C_2  and  C_32
    3  A    between atoms: N_4  and  C_32
    4  A    between atoms: N_7  and  C_35
    5  A    between atoms: C_8  and  C_43
    6  A    between atoms: C_16  and  C_41
    7  A    between atoms: C_16  and  C_43
    8  A    between atoms: N_21  and  C_22
    9  A    between atoms: N_21  and  S_38
   10  A    between atoms: C_26  and  O_31
   11  A    between atoms: C_26  and  C_46
   12  A    between atoms: C_28  and  C_41
   13  A    between atoms: C_35  and  S_38
                            x       y       z     vdW  Elec       q    Type
                         _______ _______ _______ _____ _____    ______ ____

>  <TORSDO>
F 13

$$$$
=
 OpenBabel10222419233D

 49 53  0  0  1  0  0  0  0  0999 V2000
  188.5940  175.9770  137.4910 C   0  0  0  0  0  2  0  0  0  0  0  0
  188.9260  178.3720  138.8920 C   0  0  2  0  0  3  0  0  0  0  0  0
  192.4140  175.8480  137.9600 C   0  0  1  0  0  3  0  0  0  0  0  0
  187.9260  178.4510  137.7310 C   0  0  0  0  0  2  0  0  0  0  0  0
  190.2340  177.7340  138.3920 C   0  0  1  0  0  3  0  0  0  0  0  0
  187.6090  177.0870  137.0890 C   0  0  2  0  0  3  0  0  0  0  0  0
  191.2580  177.5380  139.5140 C   0  0  0  0  0  2  0  0  0  0  0  0
  190.0360  176.4800  137.4950 C   0  0  1  0  0  3  0  0  0  0  0  0
  190.9790  175.3370  137.8600 C   0  0  0  0  0  2  0  0  0  0  0  0
  192.5780  177.0000  138.9630 C   0  0  0  0  0  2  0  0  0  0  0  0
  193.3240  174.7340  138.3270 C   0  0  0  0  0  3  0  0  0  0  0  0
  195.4740  174.2940  136.9110 C   0  0  0  0  0  0  0  0  0  0  0  0
  199.1170  174.2170  137.9870 C   0  0  0  0  0  1  0  0  0  0  0  0
  194.3950  174.5100  137.6200 C   0  0  0  0  0  0  0  0  0  0  0  0
  198.0630  174.9990  135.8760 C   0  0  0  0  0  2  0  0  0  0  0  0
  194.4310  175.3910  135.0460 O   0  0  0  0  0  1  0  0  0  0  0  0
  195.5690  174.6900  135.4540 C   0  0  1  0  0  0  0  0  0  0  0  0
  196.7960  175.5880  135.2480 C   0  0  0  0  0  2  0  0  0  0  0  0
  196.7040  173.7920  137.5980 C   0  0  0  0  0  2  0  0  0  0  0  0
  197.8510  174.7700  137.3720 C   0  0  1  0  0  3  0  0  0  0  0  0
  195.6980  173.4470  134.5950 C   0  0  0  0  0  1  0  0  0  0  0  0
  186.2490  176.7060  137.4450 N   0  0  0  0  0  2  0  0  0  0  0  0
  186.0960  176.8320  134.8090 O   0  0  0  0  0  0  0  0  0  0  0  0
  185.2020  174.8460  135.9140 O   0  0  0  0  0  0  0  0  0  0  0  0
  185.3480  176.3370  136.0130 S   0  0  0  0  0  0  0  0  0  0  0  0
  183.7320  177.0980  136.0560 C   0  0  0  0  0  2  0  0  0  0  0  0
  182.6900  176.5750  138.2990 C   0  0  0  0  0  0  0  0  0  0  0  0
  183.3890  177.4660  137.4220 N   0  0  0  0  0  2  0  0  0  0  0  0
  182.4660  175.3830  137.9550 O   0  0  0  0  0  0  0  0  0  0  0  0
  182.2340  177.0550  139.6340 C   0  0  0  0  0  2  0  0  0  0  0  0
  182.3560  179.2550  140.5430 C   0  0  0  0  0  2  0  0  0  0  0  0
  181.7040  178.4110  139.5310 N   0  0  0  0  0  0  0  0  0  0  0  0
  181.8200  178.9630  141.9500 C   0  0  0  0  0  2  0  0  0  0  0  0
  180.2450  178.3850  139.7160 C   0  0  0  0  0  2  0  0  0  0  0  0
  180.4320  179.1640  141.9810 O   0  0  0  0  0  0  0  0  0  0  0  0
  179.8680  178.1560  141.1850 C   0  0  0  0  0  2  0  0  0  0  0  0
  188.3300  177.6180  140.0860 C   0  0  0  0  0  2  0  0  0  0  0  0
  188.2740  178.4930  141.3290 C   0  0  0  0  0  2  0  0  0  0  0  0
  186.9730  178.3270  142.0500 C   0  0  0  0  0  0  0  0  0  0  0  0
  186.0050  178.9950  141.7110 O   0  0  0  0  0  0  0  0  0  0  0  0
  187.3830  177.9140  145.5220 C   0  0  0  0  0  3  0  0  0  0  0  0
  186.8530  177.3120  143.1490 C   0  0  1  0  0  3  0  0  0  0  0  0
  188.0620  176.3610  143.1910 C   0  0  0  0  0  2  0  0  0  0  0  0
  186.5620  177.9910  144.4660 C   0  0  0  0  0  3  0  0  0  0  0  0
  189.1680  176.9150  144.0830 C   0  0  0  0  0  2  0  0  0  0  0  0
  188.6280  177.0650  145.5000 C   0  0  1  0  0  3  0  0  0  0  0  0
  189.6960  177.6610  146.4070 C   0  0  0  0  0  2  0  0  0  0  0  0
  189.9210  176.8130  147.4920 O   0  0  0  0  0  0  0  0  0  0  0  0
  191.3110  176.7530  147.6080 C   0  0  0  0  0  1  0  0  0  0  0  0
  2 37  1  1  0  0  0
  3 11  1  1  0  0  0
  3 10  1  0  0  0  0
  4  2  1  0  0  0  0
  5  2  1  0  0  0  0
  5  7  1  1  0  0  0
  6 22  1  1  0  0  0
  6  1  1  0  0  0  0
  6  4  1  0  0  0  0
  8  1  1  1  0  0  0
  8  9  1  0  0  0  0
  8  5  1  0  0  0  0
  9  3  1  0  0  0  0
 10  7  1  0  0  0  0
 12 19  1  0  0  0  0
 12 14  2  0  0  0  0
 14 11  2  0  0  0  0
 15 20  1  0  0  0  0
 16 17  1  0  0  0  0
 17 21  1  6  0  0  0
 17 12  1  0  0  0  0
 18 17  1  0  0  0  0
 18 15  1  0  0  0  0
 20 19  1  0  0  0  0
 20 13  1  6  0  0  0
 23 25  2  0  0  0  0
 24 25  2  0  0  0  0
 25 26  1  0  0  0  0
 25 22  1  0  0  0  0
 26 28  1  0  0  0  0
 27 30  1  0  0  0  0
 28 27  1  0  0  0  0
 29 27  2  0  0  0  0
 31 33  1  0  0  0  0
 32 30  1  0  0  0  0
 32 34  1  0  0  0  0
 32 31  1  0  0  0  0
 33 35  1  0  0  0  0
 34 36  1  0  0  0  0
 36 35  1  0  0  0  0
 37 38  1  0  0  0  0
 38 39  1  0  0  0  0
 40 39  2  0  0  0  0
 42 39  1  6  0  0  0
 42 43  1  0  0  0  0
 42 44  1  0  0  0  0
 43 45  1  0  0  0  0
 44 41  2  0  0  0  0
 45 46  1  0  0  0  0
 46 41  1  0  0  0  0
 46 47  1  1  0  0  0
 47 48  1  0  0  0  0
 48 49  1  0  0  0  0
M  END
>  <MODEL>
6

>  <REMARK>
 VINA RESULT:      -6.9      2.637      9.810
  Name = 
  13 active torsions:
  status: ('A' for Active; 'I' for Inactive)
    1  A    between atoms: C_1  and  C_13
    2  A    between atoms: C_2  and  C_32
    3  A    between atoms: N_4  and  C_32
    4  A    between atoms: N_7  and  C_35
    5  A    between atoms: C_8  and  C_43
    6  A    between atoms: C_16  and  C_41
    7  A    between atoms: C_16  and  C_43
    8  A    between atoms: N_21  and  C_22
    9  A    between atoms: N_21  and  S_38
   10  A    between atoms: C_26  and  O_31
   11  A    between atoms: C_26  and  C_46
   12  A    between atoms: C_28  and  C_41
   13  A    between atoms: C_35  and  S_38
                            x       y       z     vdW  Elec       q    Type
                         _______ _______ _______ _____ _____    ______ ____

>  <TORSDO>
F 13

$$$$
=
 OpenBabel10222419233D

 49 53  0  0  1  0  0  0  0  0999 V2000
  188.3910  176.4310  138.0360 C   0  0  0  0  0  2  0  0  0  0  0  0
  190.3390  177.7740  139.5240 C   0  0  2  0  0  3  0  0  0  0  0  0
  191.5210  174.7900  136.5060 C   0  0  1  0  0  3  0  0  0  0  0  0
  189.1770  178.6600  139.0550 C   0  0  0  0  0  2  0  0  0  0  0  0
  190.8830  176.9760  138.3250 C   0  0  1  0  0  3  0  0  0  0  0  0
  188.0210  177.8770  138.4040 C   0  0  2  0  0  3  0  0  0  0  0  0
  191.9930  175.9990  138.7260 C   0  0  0  0  0  2  0  0  0  0  0  0
  189.7860  176.3470  137.4200 C   0  0  1  0  0  3  0  0  0  0  0  0
  190.0940  174.9020  137.0360 C   0  0  0  0  0  2  0  0  0  0  0  0
  192.5780  175.3020  137.4970 C   0  0  0  0  0  2  0  0  0  0  0  0
  191.8180  173.3800  136.1460 C   0  0  0  0  0  3  0  0  0  0  0  0
  194.2800  172.5120  136.2250 C   0  0  0  0  0  0  0  0  0  0  0  0
  195.7750  169.6280  138.1960 C   0  0  0  0  0  1  0  0  0  0  0  0
  193.0450  172.9460  136.1810 C   0  0  0  0  0  0  0  0  0  0  0  0
  196.7290  171.8370  137.5720 C   0  0  0  0  0  2  0  0  0  0  0  0
  195.0510  174.7700  135.9540 O   0  0  0  0  0  1  0  0  0  0  0  0
  195.4620  173.4380  136.0470 C   0  0  1  0  0  0  0  0  0  0  0  0
  196.4050  173.2990  137.2490 C   0  0  0  0  0  2  0  0  0  0  0  0
  194.5350  171.0930  136.6240 C   0  0  0  0  0  2  0  0  0  0  0  0
  195.4420  171.0620  137.8480 C   0  0  1  0  0  3  0  0  0  0  0  0
  196.2050  173.0770  134.7740 C   0  0  0  0  0  1  0  0  0  0  0  0
  186.8780  177.8900  139.3070 N   0  0  0  0  0  2  0  0  0  0  0  0
  184.8170  179.5380  139.4400 O   0  0  0  0  0  0  0  0  0  0  0  0
  185.9880  179.3390  137.3060 O   0  0  0  0  0  0  0  0  0  0  0  0
  185.5060  178.5820  138.5100 S   0  0  0  0  0  0  0  0  0  0  0  0
  184.3500  177.3170  138.0030 C   0  0  0  0  0  2  0  0  0  0  0  0
  181.9490  177.1640  138.7760 C   0  0  0  0  0  0  0  0  0  0  0  0
  183.3540  177.1040  139.0430 N   0  0  0  0  0  2  0  0  0  0  0  0
  181.5260  177.2710  137.5930 O   0  0  0  0  0  0  0  0  0  0  0  0
  180.9750  177.0860  139.9020 C   0  0  0  0  0  2  0  0  0  0  0  0
  181.2640  179.3140  140.7000 C   0  0  0  0  0  2  0  0  0  0  0  0
  180.3130  178.3740  140.0870 N   0  0  0  0  0  0  0  0  0  0  0  0
  181.4780  179.0090  142.1880 C   0  0  0  0  0  2  0  0  0  0  0  0
  179.1200  178.1970  140.9290 C   0  0  0  0  0  2  0  0  0  0  0  0
  180.2510  179.0610  142.8650 O   0  0  0  0  0  0  0  0  0  0  0  0
  179.4950  177.9740  142.3990 C   0  0  0  0  0  2  0  0  0  0  0  0
  189.9120  176.8660  140.6820 C   0  0  0  0  0  2  0  0  0  0  0  0
  190.8140  177.0420  141.8940 C   0  0  0  0  0  2  0  0  0  0  0  0
  190.0690  177.6510  143.0400 C   0  0  0  0  0  0  0  0  0  0  0  0
  190.0040  178.8680  143.1400 O   0  0  0  0  0  0  0  0  0  0  0  0
  186.8710  176.7780  144.2290 C   0  0  0  0  0  3  0  0  0  0  0  0
  189.3690  176.7650  144.0290 C   0  0  1  0  0  3  0  0  0  0  0  0
  189.4190  177.3380  145.4550 C   0  0  0  0  0  2  0  0  0  0  0  0
  187.9740  176.4360  143.5490 C   0  0  0  0  0  3  0  0  0  0  0  0
  188.2300  178.2540  145.7230 C   0  0  0  0  0  2  0  0  0  0  0  0
  186.9450  177.4480  145.5770 C   0  0  1  0  0  3  0  0  0  0  0  0
  185.7350  178.3460  145.7940 C   0  0  0  0  0  2  0  0  0  0  0  0
  185.1940  178.7150  144.5620 O   0  0  0  0  0  0  0  0  0  0  0  0
  183.9750  179.3170  144.8810 C   0  0  0  0  0  1  0  0  0  0  0  0
  1  6  1  0  0  0  0
  2 37  1  1  0  0  0
  3 11  1  1  0  0  0
  3  9  1  0  0  0  0
  3 10  1  0  0  0  0
  4  2  1  0  0  0  0
  5  7  1  1  0  0  0
  5  2  1  0  0  0  0
  6  4  1  0  0  0  0
  6 22  1  1  0  0  0
  8  9  1  1  0  0  0
  8  1  1  0  0  0  0
  8  5  1  0  0  0  0
 10  7  1  0  0  0  0
 11 14  2  0  0  0  0
 12 19  1  0  0  0  0
 14 12  2  0  0  0  0
 15 20  1  0  0  0  0
 16 17  1  0  0  0  0
 17 21  1  6  0  0  0
 17 12  1  0  0  0  0
 17 18  1  0  0  0  0
 18 15  1  0  0  0  0
 19 20  1  0  0  0  0
 20 13  1  6  0  0  0
 24 25  2  0  0  0  0
 25 22  1  0  0  0  0
 25 23  2  0  0  0  0
 26 25  1  0  0  0  0
 26 28  1  0  0  0  0
 27 28  1  0  0  0  0
 27 30  1  0  0  0  0
 29 27  2  0  0  0  0
 30 32  1  0  0  0  0
 31 33  1  0  0  0  0
 32 31  1  0  0  0  0
 32 34  1  0  0  0  0
 33 35  1  0  0  0  0
 34 36  1  0  0  0  0
 36 35  1  0  0  0  0
 37 38  1  0  0  0  0
 38 39  1  0  0  0  0
 39 40  2  0  0  0  0
 41 46  1  0  0  0  0
 42 39  1  6  0  0  0
 42 43  1  0  0  0  0
 43 45  1  0  0  0  0
 44 42  1  0  0  0  0
 44 41  2  0  0  0  0
 46 45  1  0  0  0  0
 46 47  1  6  0  0  0
 48 49  1  0  0  0  0
 48 47  1  0  0  0  0
M  END
>  <MODEL>
7

>  <REMARK>
 VINA RESULT:      -6.7      2.793     10.005
  Name = 
  13 active torsions:
  status: ('A' for Active; 'I' for Inactive)
    1  A    between atoms: C_1  and  C_13
    2  A    between atoms: C_2  and  C_32
    3  A    between atoms: N_4  and  C_32
    4  A    between atoms: N_7  and  C_35
    5  A    between atoms: C_8  and  C_43
    6  A    between atoms: C_16  and  C_41
    7  A    between atoms: C_16  and  C_43
    8  A    between atoms: N_21  and  C_22
    9  A    between atoms: N_21  and  S_38
   10  A    between atoms: C_26  and  O_31
   11  A    between atoms: C_26  and  C_46
   12  A    between atoms: C_28  and  C_41
   13  A    between atoms: C_35  and  S_38
                            x       y       z     vdW  Elec       q    Type
                         _______ _______ _______ _____ _____    ______ ____

>  <TORSDO>
F 13

$$$$
=
 OpenBabel10222419233D

 49 53  0  0  1  0  0  0  0  0999 V2000
  188.3470  176.7770  138.7050 C   0  0  0  0  0  2  0  0  0  0  0  0
  189.7580  176.3570  136.3300 C   0  0  2  0  0  3  0  0  0  0  0  0
  185.5070  177.5030  136.2090 C   0  0  1  0  0  3  0  0  0  0  0  0
  190.5440  177.1140  137.4090 C   0  0  0  0  0  2  0  0  0  0  0  0
  188.3800  177.0170  136.1500 C   0  0  1  0  0  3  0  0  0  0  0  0
  189.8310  177.1730  138.7730 C   0  0  2  0  0  3  0  0  0  0  0  0
  187.4960  176.2670  135.1490 C   0  0  0  0  0  2  0  0  0  0  0  0
  187.6600  177.3760  137.4810 C   0  0  1  0  0  3  0  0  0  0  0  0
  186.1830  176.9890  137.4770 C   0  0  0  0  0  2  0  0  0  0  0  0
  186.1790  177.0070  134.9190 C   0  0  0  0  0  2  0  0  0  0  0  0
  184.0740  177.1130  136.2060 C   0  0  0  0  0  3  0  0  0  0  0  0
  182.3540  178.4800  137.6180 C   0  0  0  0  0  0  0  0  0  0  0  0
  179.2090  180.3040  136.5120 C   0  0  0  0  0  1  0  0  0  0  0  0
  183.2150  177.7910  136.9120 C   0  0  0  0  0  0  0  0  0  0  0  0
  180.8730  180.8570  138.2740 C   0  0  0  0  0  2  0  0  0  0  0  0
  184.1470  179.2050  139.0420 O   0  0  0  0  0  1  0  0  0  0  0  0
  182.7630  179.2490  138.8550 C   0  0  1  0  0  0  0  0  0  0  0  0
  182.3350  180.7150  138.7100 C   0  0  0  0  0  2  0  0  0  0  0  0
  180.9610  178.6480  137.0990 C   0  0  0  0  0  2  0  0  0  0  0  0
  180.6470  180.1320  136.9490 C   0  0  1  0  0  3  0  0  0  0  0  0
  182.0960  178.6430  140.0750 C   0  0  0  0  0  1  0  0  0  0  0  0
  190.5390  176.3120  139.7100 N   0  0  0  0  0  2  0  0  0  0  0  0
  192.1110  177.6860  141.3300 O   0  0  0  0  0  0  0  0  0  0  0  0
  189.7370  178.2530  141.2880 O   0  0  0  0  0  0  0  0  0  0  0  0
  190.7240  177.1230  141.2290 S   0  0  0  0  0  0  0  0  0  0  0  0
  190.4410  176.0050  142.5940 C   0  0  0  0  0  2  0  0  0  0  0  0
  188.6510  176.9670  144.0960 C   0  0  0  0  0  0  0  0  0  0  0  0
  190.0290  176.7510  143.7740 N   0  0  0  0  0  2  0  0  0  0  0  0
  187.7410  176.3980  143.4330 O   0  0  0  0  0  0  0  0  0  0  0  0
  188.2850  177.8600  145.2320 C   0  0  0  0  0  2  0  0  0  0  0  0
  186.5870  177.7890  146.9040 C   0  0  0  0  0  2  0  0  0  0  0  0
  187.7420  177.0760  146.3370 N   0  0  0  0  0  0  0  0  0  0  0  0
  187.0270  178.9970  147.7420 C   0  0  0  0  0  2  0  0  0  0  0  0
  188.7880  176.8640  147.3500 C   0  0  0  0  0  2  0  0  0  0  0  0
  187.8800  178.5750  148.7720 O   0  0  0  0  0  0  0  0  0  0  0  0
  189.0620  178.1400  148.1530 C   0  0  0  0  0  2  0  0  0  0  0  0
  189.6500  174.8660  136.6680 C   0  0  0  0  0  2  0  0  0  0  0  0
  190.3200  174.0020  135.6110 C   0  0  0  0  0  2  0  0  0  0  0  0
  191.8070  174.1710  135.6350 C   0  0  0  0  0  0  0  0  0  0  0  0
  192.3600  174.7820  134.7320 O   0  0  0  0  0  0  0  0  0  0  0  0
  194.5690  174.8840  137.6990 C   0  0  0  0  0  3  0  0  0  0  0  0
  192.5990  173.6310  136.7890 C   0  0  1  0  0  3  0  0  0  0  0  0
  193.5850  172.5340  136.3500 C   0  0  0  0  0  2  0  0  0  0  0  0
  193.2410  174.7580  137.5630 C   0  0  0  0  0  3  0  0  0  0  0  0
  194.9310  173.1310  135.9520 C   0  0  0  0  0  2  0  0  0  0  0  0
  195.5240  173.8530  137.1560 C   0  0  1  0  0  3  0  0  0  0  0  0
  196.8490  174.4990  136.7780 C   0  0  0  0  0  2  0  0  0  0  0  0
  197.3330  175.2470  137.8520 O   0  0  0  0  0  0  0  0  0  0  0  0
  198.4040  174.5000  138.3450 C   0  0  0  0  0  1  0  0  0  0  0  0
  1  6  1  0  0  0  0
  2 37  1  1  0  0  0
  2  4  1  0  0  0  0
  3 11  1  6  0  0  0
  3  9  1  0  0  0  0
  4  6  1  0  0  0  0
  5  7  1  1  0  0  0
  5  2  1  0  0  0  0
  5  8  1  0  0  0  0
  6 22  1  1  0  0  0
  8  9  1  6  0  0  0
  8  1  1  0  0  0  0
 10  7  1  0  0  0  0
 10  3  1  0  0  0  0
 11 14  2  0  0  0  0
 12 17  1  0  0  0  0
 14 12  2  0  0  0  0
 15 18  1  0  0  0  0
 17 16  1  0  0  0  0
 17 21  1  1  0  0  0
 18 17  1  0  0  0  0
 19 12  1  0  0  0  0
 20 13  1  1  0  0  0
 20 19  1  0  0  0  0
 20 15  1  0  0  0  0
 22 25  1  0  0  0  0
 25 24  2  0  0  0  0
 25 23  2  0  0  0  0
 25 26  1  0  0  0  0
 26 28  1  0  0  0  0
 27 30  1  0  0  0  0
 28 27  1  0  0  0  0
 29 27  2  0  0  0  0
 30 32  1  0  0  0  0
 31 33  1  0  0  0  0
 32 31  1  0  0  0  0
 32 34  1  0  0  0  0
 33 35  1  0  0  0  0
 34 36  1  0  0  0  0
 36 35  1  0  0  0  0
 38 39  1  0  0  0  0
 38 37  1  0  0  0  0
 40 39  2  0  0  0  0
 42 39  1  6  0  0  0
 42 44  1  0  0  0  0
 43 42  1  0  0  0  0
 44 41  2  0  0  0  0
 45 43  1  0  0  0  0
 45 46  1  0  0  0  0
 46 47  1  6  0  0  0
 46 41  1  0  0  0  0
 47 48  1  0  0  0  0
 48 49  1  0  0  0  0
M  END
>  <MODEL>
8

>  <REMARK>
 VINA RESULT:      -6.7      3.010     11.301
  Name = 
  13 active torsions:
  status: ('A' for Active; 'I' for Inactive)
    1  A    between atoms: C_1  and  C_13
    2  A    between atoms: C_2  and  C_32
    3  A    between atoms: N_4  and  C_32
    4  A    between atoms: N_7  and  C_35
    5  A    between atoms: C_8  and  C_43
    6  A    between atoms: C_16  and  C_41
    7  A    between atoms: C_16  and  C_43
    8  A    between atoms: N_21  and  C_22
    9  A    between atoms: N_21  and  S_38
   10  A    between atoms: C_26  and  O_31
   11  A    between atoms: C_26  and  C_46
   12  A    between atoms: C_28  and  C_41
   13  A    between atoms: C_35  and  S_38
                            x       y       z     vdW  Elec       q    Type
                         _______ _______ _______ _____ _____    ______ ____

>  <TORSDO>
F 13

$$$$
=
 OpenBabel10222419233D

 49 53  0  0  1  0  0  0  0  0999 V2000
  188.5990  177.0140  139.8450 C   0  0  0  0  0  2  0  0  0  0  0  0
  190.9810  177.1070  138.3870 C   0  0  2  0  0  3  0  0  0  0  0  0
  187.1410  177.9800  136.4130 C   0  0  1  0  0  3  0  0  0  0  0  0
  191.0740  177.7150  139.7940 C   0  0  0  0  0  2  0  0  0  0  0  0
  189.7610  177.6980  137.6600 C   0  0  1  0  0  3  0  0  0  0  0  0
  189.8170  177.4880  140.6540 C   0  0  2  0  0  3  0  0  0  0  0  0
  189.5450  177.0780  136.2760 C   0  0  0  0  0  2  0  0  0  0  0  0
  188.4710  177.7730  138.5250 C   0  0  1  0  0  3  0  0  0  0  0  0
  187.2290  177.2970  137.7760 C   0  0  0  0  0  2  0  0  0  0  0  0
  188.3900  177.7610  135.5450 C   0  0  0  0  0  2  0  0  0  0  0  0
  185.9380  177.5040  135.6850 C   0  0  0  0  0  3  0  0  0  0  0  0
  185.2170  175.0000  135.8640 C   0  0  0  0  0  0  0  0  0  0  0  0
  181.9360  173.4970  137.0520 C   0  0  0  0  0  1  0  0  0  0  0  0
  185.5780  176.2550  135.7700 C   0  0  0  0  0  0  0  0  0  0  0  0
  184.2750  172.6900  137.2940 C   0  0  0  0  0  2  0  0  0  0  0  0
  187.4800  174.4230  136.4240 O   0  0  0  0  0  1  0  0  0  0  0  0
  186.2110  173.9000  136.1620 C   0  0  1  0  0  0  0  0  0  0  0  0
  185.7440  173.1100  137.3920 C   0  0  0  0  0  2  0  0  0  0  0  0
  183.7600  174.6620  135.8400 C   0  0  0  0  0  2  0  0  0  0  0  0
  183.3860  173.9200  137.1180 C   0  0  1  0  0  3  0  0  0  0  0  0
  186.3140  172.9690  134.9690 C   0  0  0  0  0  1  0  0  0  0  0  0
  190.1310  176.5250  141.7010 N   0  0  0  0  0  2  0  0  0  0  0  0
  191.7900  177.1100  143.6720 O   0  0  0  0  0  0  0  0  0  0  0  0
  190.1950  178.8220  142.9730 O   0  0  0  0  0  0  0  0  0  0  0  0
  190.3850  177.3500  143.2020 S   0  0  0  0  0  0  0  0  0  0  0  0
  189.2410  176.7810  144.4500 C   0  0  0  0  0  2  0  0  0  0  0  0
  186.9380  177.7380  144.8640 C   0  0  0  0  0  0  0  0  0  0  0  0
  187.8720  177.0430  144.0300 N   0  0  0  0  0  2  0  0  0  0  0  0
  187.3160  178.2670  145.9450 O   0  0  0  0  0  0  0  0  0  0  0  0
  185.5120  177.8490  144.4480 C   0  0  0  0  0  2  0  0  0  0  0  0
  184.0220  179.7030  144.2910 C   0  0  0  0  0  2  0  0  0  0  0  0
  185.2770  179.1280  143.7840 N   0  0  0  0  0  0  0  0  0  0  0  0
  182.7970  178.9780  143.7180 C   0  0  0  0  0  2  0  0  0  0  0  0
  185.2210  178.9230  142.3280 C   0  0  0  0  0  2  0  0  0  0  0  0
  182.8210  179.0420  142.3170 O   0  0  0  0  0  0  0  0  0  0  0  0
  183.9080  178.2560  141.9030 C   0  0  0  0  0  2  0  0  0  0  0  0
  190.9390  175.5770  138.4470 C   0  0  0  0  0  2  0  0  0  0  0  0
  191.6880  174.9500  137.2810 C   0  0  0  0  0  2  0  0  0  0  0  0
  193.1680  175.1050  137.4410 C   0  0  0  0  0  0  0  0  0  0  0  0
  193.6950  176.1760  137.1740 O   0  0  0  0  0  0  0  0  0  0  0  0
  196.4110  174.2580  138.5180 C   0  0  0  0  0  3  0  0  0  0  0  0
  193.9840  173.9630  137.9710 C   0  0  1  0  0  3  0  0  0  0  0  0
  194.4220  172.9990  136.8550 C   0  0  0  0  0  2  0  0  0  0  0  0
  195.1240  174.4770  138.8190 C   0  0  0  0  0  3  0  0  0  0  0  0
  195.7570  173.4240  136.2520 C   0  0  0  0  0  2  0  0  0  0  0  0
  196.8180  173.4040  137.3450 C   0  0  1  0  0  3  0  0  0  0  0  0
  198.1560  173.8680  136.7860 C   0  0  0  0  0  2  0  0  0  0  0  0
  198.1230  175.2450  136.5630 O   0  0  0  0  0  0  0  0  0  0  0  0
  198.1680  175.3760  135.1740 C   0  0  0  0  0  1  0  0  0  0  0  0
  1  6  1  0  0  0  0
  2 37  1  1  0  0  0
  2  4  1  0  0  0  0
  3 11  1  6  0  0  0
  3  9  1  0  0  0  0
  4  6  1  0  0  0  0
  5  7  1  6  0  0  0
  5  2  1  0  0  0  0
  5  8  1  0  0  0  0
  6 22  1  1  0  0  0
  8  9  1  6  0  0  0
  8  1  1  0  0  0  0
 10  7  1  0  0  0  0
 10  3  1  0  0  0  0
 11 14  2  0  0  0  0
 12 17  1  0  0  0  0
 14 12  2  0  0  0  0
 15 18  1  0  0  0  0
 17 21  1  6  0  0  0
 17 16  1  0  0  0  0
 17 18  1  0  0  0  0
 19 12  1  0  0  0  0
 19 20  1  0  0  0  0
 20 13  1  6  0  0  0
 20 15  1  0  0  0  0
 22 25  1  0  0  0  0
 24 25  2  0  0  0  0
 25 23  2  0  0  0  0
 25 26  1  0  0  0  0
 27 29  2  0  0  0  0
 28 26  1  0  0  0  0
 28 27  1  0  0  0  0
 30 27  1  0  0  0  0
 32 31  1  0  0  0  0
 32 30  1  0  0  0  0
 33 31  1  0  0  0  0
 34 32  1  0  0  0  0
 35 33  1  0  0  0  0
 36 35  1  0  0  0  0
 36 34  1  0  0  0  0
 38 39  1  0  0  0  0
 38 37  1  0  0  0  0
 40 39  2  0  0  0  0
 41 44  2  0  0  0  0
 42 39  1  6  0  0  0
 42 44  1  0  0  0  0
 43 42  1  0  0  0  0
 45 43  1  0  0  0  0
 45 46  1  0  0  0  0
 46 47  1  6  0  0  0
 46 41  1  0  0  0  0
 48 47  1  0  0  0  0
 49 48  1  0  0  0  0
M  END
>  <MODEL>
9

>  <REMARK>
 VINA RESULT:      -6.6      3.873     11.583
  Name = 
  13 active torsions:
  status: ('A' for Active; 'I' for Inactive)
    1  A    between atoms: C_1  and  C_13
    2  A    between atoms: C_2  and  C_32
    3  A    between atoms: N_4  and  C_32
    4  A    between atoms: N_7  and  C_35
    5  A    between atoms: C_8  and  C_43
    6  A    between atoms: C_16  and  C_41
    7  A    between atoms: C_16  and  C_43
    8  A    between atoms: N_21  and  C_22
    9  A    between atoms: N_21  and  S_38
   10  A    between atoms: C_26  and  O_31
   11  A    between atoms: C_26  and  C_46
   12  A    between atoms: C_28  and  C_41
   13  A    between atoms: C_35  and  S_38
                            x       y       z     vdW  Elec       q    Type
                         _______ _______ _______ _____ _____    ______ ____

>  <TORSDO>
F 13

$$$$
