=
 OpenBabel10222415233D

 47 50  0  0  1  0  0  0  0  0999 V2000
  182.9780  179.0420  138.5580 C   0  0  0  0  0  0  0  0  0  0  0  0
  181.6890  179.2270  137.9650 N   0  0  0  0  0  2  0  0  0  0  0  0
  184.6600  179.3410  140.1360 C   0  0  1  0  0  3  0  0  0  0  0  0
  184.1760  177.9420  137.8240 S   0  0  0  0  0  0  0  0  0  0  0  0
  186.6270  178.5510  138.9510 N   0  0  0  0  0  0  0  0  0  0  0  0
  185.3290  178.6440  139.0030 C   0  0  0  0  0  0  0  0  0  0  0  0
  183.3250  179.6570  139.6440 N   0  0  0  0  0  0  0  0  0  0  0  0
  188.9030  176.1140  137.2190 C   0  0  0  0  0  0  0  0  0  0  0  0
  189.0980  176.7750  136.0440 N   0  0  0  0  0  0  0  0  0  0  0  0
  189.5370  174.8600  137.4590 N   0  0  0  0  0  2  0  0  0  0  0  0
  187.6640  178.5450  136.7470 C   0  0  0  0  0  3  0  0  0  0  0  0
  187.4580  177.9020  137.9720 C   0  0  0  0  0  0  0  0  0  0  0  0
  188.0780  176.6690  138.2010 C   0  0  0  0  0  3  0  0  0  0  0  0
  188.4960  177.9640  135.7880 C   0  0  0  0  0  3  0  0  0  0  0  0
  193.5670  175.5240  137.9490 C   0  0  0  0  0  3  0  0  0  0  0  0
  190.4520  174.3240  136.5410 N   0  0  0  0  0  0  0  0  0  0  0  0
  191.7340  174.4280  136.7070 C   0  0  0  0  0  0  0  0  0  0  0  0
  192.8280  173.7620  135.4490 S   0  0  0  0  0  0  0  0  0  0  0  0
  192.2960  175.1170  137.8880 C   0  0  0  0  0  3  0  0  0  0  0  0
  194.5650  175.3080  136.8420 C   0  0  0  0  0  2  0  0  0  0  0  0
  193.8890  175.2350  135.4790 C   0  0  0  0  0  2  0  0  0  0  0  0
  183.6140  177.5790  141.3650 O   0  0  0  0  0  0  0  0  0  0  0  0
  184.5770  178.3870  141.2940 C   0  0  0  0  0  0  0  0  0  0  0  0
  185.5180  178.4660  142.3670 N   0  0  0  0  0  2  0  0  0  0  0  0
  184.4380  179.5230  144.2490 C   0  0  0  0  0  1  0  0  0  0  0  0
  185.1040  178.2610  143.7440 C   0  0  2  0  0  3  0  0  0  0  0  0
  186.3180  177.9600  144.6020 C   0  0  0  0  0  2  0  0  0  0  0  0
  187.2840  177.0750  143.8170 C   0  0  0  0  0  2  0  0  0  0  0  0
  190.6040  176.7950  146.9650 C   0  0  0  0  0  2  0  0  0  0  0  0
  189.6980  176.3630  143.5890 C   0  0  1  0  0  3  0  0  0  0  0  0
  190.4120  177.3420  145.7700 C   0  0  0  0  0  0  0  0  0  0  0  0
  191.3050  176.6930  144.3670 S   0  0  0  0  0  0  0  0  0  0  0  0
  188.7490  177.4800  144.0110 C   0  0  2  0  0  3  0  0  0  0  0  0
  189.8440  176.3610  142.1430 N   0  0  0  0  0  1  0  0  0  0  0  0
  189.0590  177.8750  145.4530 C   0  0  0  0  0  2  0  0  0  0  0  0
  180.7780  180.2960  138.3530 C   0  0  0  0  0  2  0  0  0  0  0  0
  179.5950  179.7350  139.1390 C   0  0  1  0  0  3  0  0  0  0  0  0
  179.0630  178.4390  138.5200 C   0  0  0  0  0  2  0  0  0  0  0  0
  179.2450  177.2190  139.4250 C   0  0  0  0  0  2  0  0  0  0  0  0
  179.9810  176.1170  138.6740 C   0  0  0  0  0  2  0  0  0  0  0  0
  182.2060  175.4620  139.2180 O   0  0  0  0  0  1  0  0  0  0  0  0
  180.8740  175.3330  139.6140 C   0  0  0  0  0  2  0  0  0  0  0  0
  179.9600  179.5260  140.5010 O   0  0  0  0  0  0  0  0  0  0  0  0
  179.6410  180.4330  141.5170 C   0  0  0  0  0  0  0  0  0  0  0  0
  178.9630  181.5050  141.2640 N   0  0  0  0  0  2  0  0  0  0  0  0
  180.9870  179.1110  142.9320 O   0  0  0  0  0  1  0  0  0  0  0  0
  180.0420  180.1370  142.9200 C   0  0  0  0  0  2  0  0  0  0  0  0
  1  7  2  0  0  0  0
  2 36  1  0  0  0  0
  2  1  1  0  0  0  0
  3 23  1  1  0  0  0
  4  1  1  0  0  0  0
  4  6  1  0  0  0  0
  5  6  2  0  0  0  0
  6  3  1  0  0  0  0
  7  3  1  0  0  0  0
  8 10  1  0  0  0  0
  8 13  1  0  0  0  0
  9  8  2  0  0  0  0
 11 12  1  0  0  0  0
 12 13  2  0  0  0  0
 12  5  1  0  0  0  0
 14  9  1  0  0  0  0
 14 11  2  0  0  0  0
 16 17  2  0  0  0  0
 16 10  1  0  0  0  0
 17 19  1  0  0  0  0
 18 21  1  0  0  0  0
 18 17  1  0  0  0  0
 19 15  2  0  0  0  0
 20 15  1  0  0  0  0
 21 20  1  0  0  0  0
 23 22  2  0  0  0  0
 23 24  1  0  0  0  0
 24 26  1  0  0  0  0
 26 25  1  1  0  0  0
 26 27  1  0  0  0  0
 28 27  1  0  0  0  0
 30 34  1  6  0  0  0
 30 33  1  0  0  0  0
 30 32  1  0  0  0  0
 31 29  2  0  0  0  0
 32 31  1  0  0  0  0
 33 28  1  1  0  0  0
 33 35  1  0  0  0  0
 35 31  1  0  0  0  0
 37 36  1  6  0  0  0
 37 43  1  0  0  0  0
 38 37  1  0  0  0  0
 38 39  1  0  0  0  0
 40 39  1  0  0  0  0
 40 42  1  0  0  0  0
 41 42  1  0  0  0  0
 43 44  1  0  0  0  0
 44 47  1  0  0  0  0
 45 44  2  0  0  0  0
 47 46  1  0  0  0  0
M  END
>  <MODEL>
1

>  <REMARK>
 VINA RESULT:      -7.1      0.000      0.000
  Name = 
  16 active torsions:
  status: ('A' for Active; 'I' for Inactive)
    1  A    between atoms: C_1  and  O_15
    2  A    between atoms: C_1  and  C_32
    3  A    between atoms: C_3  and  C_10
    4  A    between atoms: C_3  and  C_41
    5  A    between atoms: N_5  and  N_26
    6  A    between atoms: C_6  and  C_14
    7  A    between atoms: C_6  and  C_22
    8  A    between atoms: C_10  and  O_15
    9  A    between atoms: C_10  and  C_33
   10  A    between atoms: N_12  and  C_33
   11  A    between atoms: C_14  and  C_38
   12  A    between atoms: C_16  and  C_23
   13  A    between atoms: C_18  and  C_41
   14  A    between atoms: C_18  and  C_47
   15  A    between atoms: C_22  and  N_25
   16  A    between atoms: N_34  and  C_37
                            x       y       z     vdW  Elec       q    Type
                         _______ _______ _______ _____ _____    ______ ____

>  <TORSDO>
F 16

$$$$
=
 OpenBabel10222415233D

 47 50  0  0  1  0  0  0  0  0999 V2000
  186.5060  176.7170  137.2130 C   0  0  0  0  0  0  0  0  0  0  0  0
  185.1930  176.3710  136.7610 N   0  0  0  0  0  2  0  0  0  0  0  0
  188.1570  178.0850  138.1140 C   0  0  1  0  0  3  0  0  0  0  0  0
  187.8350  175.5270  137.1690 S   0  0  0  0  0  0  0  0  0  0  0  0
  190.1950  176.9420  137.4490 N   0  0  0  0  0  0  0  0  0  0  0  0
  188.8980  176.9140  137.5660 C   0  0  0  0  0  0  0  0  0  0  0  0
  186.7820  177.8980  137.6690 N   0  0  0  0  0  0  0  0  0  0  0  0
  192.9850  174.4370  137.2240 C   0  0  0  0  0  0  0  0  0  0  0  0
  192.8060  174.0050  135.9450 N   0  0  0  0  0  0  0  0  0  0  0  0
  194.0450  173.9150  138.0240 N   0  0  0  0  0  2  0  0  0  0  0  0
  190.9230  175.4410  135.6750 C   0  0  0  0  0  3  0  0  0  0  0  0
  191.0910  175.9200  136.9780 C   0  0  0  0  0  0  0  0  0  0  0  0
  192.1290  175.4010  137.7600 C   0  0  0  0  0  3  0  0  0  0  0  0
  191.7980  174.4770  135.1690 C   0  0  0  0  0  3  0  0  0  0  0  0
  198.0650  174.5970  138.5690 C   0  0  0  0  0  3  0  0  0  0  0  0
  194.9860  173.0250  137.4870 N   0  0  0  0  0  0  0  0  0  0  0  0
  196.2570  173.1480  137.7130 C   0  0  0  0  0  0  0  0  0  0  0  0
  197.3920  171.9940  136.9350 S   0  0  0  0  0  0  0  0  0  0  0  0
  196.7780  174.2400  138.5620 C   0  0  0  0  0  3  0  0  0  0  0  0
  199.1230  173.9200  137.7390 C   0  0  0  0  0  2  0  0  0  0  0  0
  198.5410  173.3190  136.4650 C   0  0  0  0  0  2  0  0  0  0  0  0
  187.5300  178.8190  140.2990 O   0  0  0  0  0  0  0  0  0  0  0  0
  188.2330  178.0300  139.6140 C   0  0  0  0  0  0  0  0  0  0  0  0
  189.1750  177.1720  140.2610 N   0  0  0  0  0  2  0  0  0  0  0  0
  191.3560  177.3140  141.2860 C   0  0  0  0  0  1  0  0  0  0  0  0
  189.8790  177.6000  141.4570 C   0  0  2  0  0  3  0  0  0  0  0  0
  189.3580  176.8310  142.6570 C   0  0  0  0  0  2  0  0  0  0  0  0
  189.4450  177.7150  143.8980 C   0  0  0  0  0  2  0  0  0  0  0  0
  188.9880  178.2640  148.4270 C   0  0  0  0  0  2  0  0  0  0  0  0
  187.3720  178.0680  145.3030 C   0  0  1  0  0  3  0  0  0  0  0  0
  188.4850  177.5000  147.4630 C   0  0  0  0  0  0  0  0  0  0  0  0
  186.7790  177.7220  146.9840 S   0  0  0  0  0  0  0  0  0  0  0  0
  188.5960  177.1890  145.0610 C   0  0  2  0  0  3  0  0  0  0  0  0
  186.3340  177.7420  144.3400 N   0  0  0  0  0  1  0  0  0  0  0  0
  189.3910  177.0780  146.3600 C   0  0  0  0  0  2  0  0  0  0  0  0
  184.1470  177.3550  136.5200 C   0  0  0  0  0  2  0  0  0  0  0  0
  183.2310  177.4760  137.7360 C   0  0  1  0  0  3  0  0  0  0  0  0
  182.3080  176.2620  137.8770 C   0  0  0  0  0  2  0  0  0  0  0  0
  182.3280  175.6490  139.2780 C   0  0  0  0  0  2  0  0  0  0  0  0
  180.9080  175.3440  139.7340 C   0  0  0  0  0  2  0  0  0  0  0  0
  179.6720  173.5520  138.7640 O   0  0  0  0  0  1  0  0  0  0  0  0
  180.0590  174.8790  138.5680 C   0  0  0  0  0  2  0  0  0  0  0  0
  184.0030  177.6580  138.9200 O   0  0  0  0  0  0  0  0  0  0  0  0
  183.9690  178.8380  139.6710 C   0  0  0  0  0  0  0  0  0  0  0  0
  184.3840  179.9570  139.1720 N   0  0  0  0  0  2  0  0  0  0  0  0
  184.0710  177.8710  141.8190 O   0  0  0  0  0  1  0  0  0  0  0  0
  183.3990  178.8190  141.0470 C   0  0  0  0  0  2  0  0  0  0  0  0
  1  7  2  0  0  0  0
  2  1  1  0  0  0  0
  3 23  1  1  0  0  0
  4  1  1  0  0  0  0
  4  6  1  0  0  0  0
  5  6  2  0  0  0  0
  6  3  1  0  0  0  0
  7  3  1  0  0  0  0
  8 13  1  0  0  0  0
  8 10  1  0  0  0  0
  9  8  2  0  0  0  0
 11 12  1  0  0  0  0
 12  5  1  0  0  0  0
 12 13  2  0  0  0  0
 14 11  2  0  0  0  0
 14  9  1  0  0  0  0
 16 17  2  0  0  0  0
 16 10  1  0  0  0  0
 17 19  1  0  0  0  0
 18 17  1  0  0  0  0
 19 15  2  0  0  0  0
 20 15  1  0  0  0  0
 21 18  1  0  0  0  0
 21 20  1  0  0  0  0
 23 24  1  0  0  0  0
 23 22  2  0  0  0  0
 24 26  1  0  0  0  0
 26 25  1  6  0  0  0
 26 27  1  0  0  0  0
 27 28  1  0  0  0  0
 30 34  1  6  0  0  0
 30 32  1  0  0  0  0
 31 29  2  0  0  0  0
 32 31  1  0  0  0  0
 33 28  1  6  0  0  0
 33 30  1  0  0  0  0
 33 35  1  0  0  0  0
 35 31  1  0  0  0  0
 36  2  1  0  0  0  0
 37 36  1  6  0  0  0
 37 38  1  0  0  0  0
 37 43  1  0  0  0  0
 38 39  1  0  0  0  0
 39 40  1  0  0  0  0
 42 41  1  0  0  0  0
 42 40  1  0  0  0  0
 43 44  1  0  0  0  0
 44 47  1  0  0  0  0
 45 44  2  0  0  0  0
 47 46  1  0  0  0  0
M  END
>  <MODEL>
2

>  <REMARK>
 VINA RESULT:      -6.9      2.672      4.323
  Name = 
  16 active torsions:
  status: ('A' for Active; 'I' for Inactive)
    1  A    between atoms: C_1  and  O_15
    2  A    between atoms: C_1  and  C_32
    3  A    between atoms: C_3  and  C_10
    4  A    between atoms: C_3  and  C_41
    5  A    between atoms: N_5  and  N_26
    6  A    between atoms: C_6  and  C_14
    7  A    between atoms: C_6  and  C_22
    8  A    between atoms: C_10  and  O_15
    9  A    between atoms: C_10  and  C_33
   10  A    between atoms: N_12  and  C_33
   11  A    between atoms: C_14  and  C_38
   12  A    between atoms: C_16  and  C_23
   13  A    between atoms: C_18  and  C_41
   14  A    between atoms: C_18  and  C_47
   15  A    between atoms: C_22  and  N_25
   16  A    between atoms: N_34  and  C_37
                            x       y       z     vdW  Elec       q    Type
                         _______ _______ _______ _____ _____    ______ ____

>  <TORSDO>
F 16

$$$$
=
 OpenBabel10222415233D

 47 50  0  0  1  0  0  0  0  0999 V2000
  188.6020  177.6900  143.6470 C   0  0  0  0  0  0  0  0  0  0  0  0
  188.6290  177.5240  145.0680 N   0  0  0  0  0  2  0  0  0  0  0  0
  189.4660  178.1670  141.5420 C   0  0  1  0  0  3  0  0  0  0  0  0
  187.1130  177.3770  142.7150 S   0  0  0  0  0  0  0  0  0  0  0  0
  187.4570  178.5430  140.2310 N   0  0  0  0  0  0  0  0  0  0  0  0
  187.9910  178.1150  141.3390 C   0  0  0  0  0  0  0  0  0  0  0  0
  189.6480  178.0700  142.9840 N   0  0  0  0  0  0  0  0  0  0  0  0
  184.2860  178.1310  138.2570 C   0  0  0  0  0  0  0  0  0  0  0  0
  183.3990  178.6940  139.1240 N   0  0  0  0  0  0  0  0  0  0  0  0
  183.8480  177.6220  136.9990 N   0  0  0  0  0  2  0  0  0  0  0  0
  185.1350  179.1090  140.7040 C   0  0  0  0  0  3  0  0  0  0  0  0
  186.0750  178.5550  139.8290 C   0  0  0  0  0  0  0  0  0  0  0  0
  185.6390  178.0530  138.5980 C   0  0  0  0  0  3  0  0  0  0  0  0
  183.7910  179.1740  140.3310 C   0  0  0  0  0  3  0  0  0  0  0  0
  181.3330  174.3690  136.8880 C   0  0  0  0  0  3  0  0  0  0  0  0
  182.5180  177.7780  136.5790 N   0  0  0  0  0  0  0  0  0  0  0  0
  181.6660  176.8010  136.6180 C   0  0  0  0  0  0  0  0  0  0  0  0
  180.0010  177.0800  136.0060 S   0  0  0  0  0  0  0  0  0  0  0  0
  182.0580  175.4670  137.1170 C   0  0  0  0  0  3  0  0  0  0  0  0
  180.0370  174.3710  136.1220 C   0  0  0  0  0  2  0  0  0  0  0  0
  179.9840  175.5040  135.1040 C   0  0  0  0  0  2  0  0  0  0  0  0
  190.4680  175.9970  141.5470 O   0  0  0  0  0  0  0  0  0  0  0  0
  190.0780  176.9760  140.8580 C   0  0  0  0  0  0  0  0  0  0  0  0
  190.3200  176.9950  139.4490 N   0  0  0  0  0  2  0  0  0  0  0  0
  192.7190  177.2250  139.3120 C   0  0  0  0  0  1  0  0  0  0  0  0
  191.5210  176.4020  138.8880 C   0  0  2  0  0  3  0  0  0  0  0  0
  191.4280  176.4000  137.3730 C   0  0  0  0  0  2  0  0  0  0  0  0
  190.0680  176.9500  136.9500 C   0  0  0  0  0  2  0  0  0  0  0  0
  188.2240  172.7540  136.8830 C   0  0  0  0  0  2  0  0  0  0  0  0
  187.8100  176.1680  136.1250 C   0  0  1  0  0  3  0  0  0  0  0  0
  188.4430  173.7560  136.0400 C   0  0  0  0  0  0  0  0  0  0  0  0
  187.0500  174.6800  135.4140 S   0  0  0  0  0  0  0  0  0  0  0  0
  189.3220  176.0150  135.9920 C   0  0  2  0  0  3  0  0  0  0  0  0
  187.3680  177.3430  135.3920 N   0  0  0  0  0  1  0  0  0  0  0  0
  189.6920  174.5490  136.2030 C   0  0  0  0  0  2  0  0  0  0  0  0
  189.7130  178.0140  145.9090 C   0  0  0  0  0  2  0  0  0  0  0  0
  189.6340  177.3950  147.3030 C   0  0  1  0  0  3  0  0  0  0  0  0
  188.1860  177.2500  147.7810 C   0  0  0  0  0  2  0  0  0  0  0  0
  187.6510  178.5050  148.4720 C   0  0  0  0  0  2  0  0  0  0  0  0
  186.6160  179.1870  147.5880 C   0  0  0  0  0  2  0  0  0  0  0  0
  184.4850  178.7100  146.6330 O   0  0  0  0  0  1  0  0  0  0  0  0
  185.7400  178.1590  146.8990 C   0  0  0  0  0  2  0  0  0  0  0  0
  190.2950  176.1320  147.3220 O   0  0  0  0  0  0  0  0  0  0  0  0
  191.6460  175.9810  146.9910 C   0  0  0  0  0  0  0  0  0  0  0  0
  192.0310  175.9590  145.7560 N   0  0  0  0  0  2  0  0  0  0  0  0
  192.6860  177.0920  148.7930 O   0  0  0  0  0  1  0  0  0  0  0  0
  192.6640  175.8970  148.0750 C   0  0  0  0  0  2  0  0  0  0  0  0
  1  2  1  0  0  0  0
  2 36  1  0  0  0  0
  3 23  1  6  0  0  0
  3  7  1  0  0  0  0
  4  1  1  0  0  0  0
  5  6  2  0  0  0  0
  6  3  1  0  0  0  0
  6  4  1  0  0  0  0
  7  1  2  0  0  0  0
  8 13  1  0  0  0  0
  8  9  2  0  0  0  0
  9 14  1  0  0  0  0
 10  8  1  0  0  0  0
 12  5  1  0  0  0  0
 12 11  1  0  0  0  0
 13 12  2  0  0  0  0
 14 11  2  0  0  0  0
 15 19  2  0  0  0  0
 16 17  2  0  0  0  0
 16 10  1  0  0  0  0
 17 19  1  0  0  0  0
 18 17  1  0  0  0  0
 20 15  1  0  0  0  0
 21 18  1  0  0  0  0
 21 20  1  0  0  0  0
 23 22  2  0  0  0  0
 24 23  1  0  0  0  0
 26 25  1  6  0  0  0
 26 24  1  0  0  0  0
 27 26  1  0  0  0  0
 28 27  1  0  0  0  0
 30 34  1  6  0  0  0
 31 35  1  0  0  0  0
 31 29  2  0  0  0  0
 32 31  1  0  0  0  0
 32 30  1  0  0  0  0
 33 30  1  0  0  0  0
 33 35  1  0  0  0  0
 33 28  1  1  0  0  0
 37 36  1  6  0  0  0
 37 43  1  0  0  0  0
 37 38  1  0  0  0  0
 38 39  1  0  0  0  0
 40 39  1  0  0  0  0
 41 42  1  0  0  0  0
 42 40  1  0  0  0  0
 44 43  1  0  0  0  0
 44 47  1  0  0  0  0
 45 44  2  0  0  0  0
 47 46  1  0  0  0  0
M  END
>  <MODEL>
3

>  <REMARK>
 VINA RESULT:      -6.6      3.520      9.699
  Name = 
  16 active torsions:
  status: ('A' for Active; 'I' for Inactive)
    1  A    between atoms: C_1  and  O_15
    2  A    between atoms: C_1  and  C_32
    3  A    between atoms: C_3  and  C_10
    4  A    between atoms: C_3  and  C_41
    5  A    between atoms: N_5  and  N_26
    6  A    between atoms: C_6  and  C_14
    7  A    between atoms: C_6  and  C_22
    8  A    between atoms: C_10  and  O_15
    9  A    between atoms: C_10  and  C_33
   10  A    between atoms: N_12  and  C_33
   11  A    between atoms: C_14  and  C_38
   12  A    between atoms: C_16  and  C_23
   13  A    between atoms: C_18  and  C_41
   14  A    between atoms: C_18  and  C_47
   15  A    between atoms: C_22  and  N_25
   16  A    between atoms: N_34  and  C_37
                            x       y       z     vdW  Elec       q    Type
                         _______ _______ _______ _____ _____    ______ ____

>  <TORSDO>
F 16

$$$$
=
 OpenBabel10222415233D

 47 50  0  0  1  0  0  0  0  0999 V2000
  184.1360  179.1870  139.3000 C   0  0  0  0  0  0  0  0  0  0  0  0
  183.0970  179.4240  138.3460 N   0  0  0  0  0  2  0  0  0  0  0  0
  185.2500  179.3930  141.3320 C   0  0  1  0  0  3  0  0  0  0  0  0
  185.4900  178.0860  138.9290 S   0  0  0  0  0  0  0  0  0  0  0  0
  187.4780  178.5980  140.7830 N   0  0  0  0  0  0  0  0  0  0  0  0
  186.2290  178.7190  140.4330 C   0  0  0  0  0  0  0  0  0  0  0  0
  184.1370  179.7570  140.4640 N   0  0  0  0  0  0  0  0  0  0  0  0
  189.6800  177.2070  138.0750 C   0  0  0  0  0  0  0  0  0  0  0  0
  190.6640  176.6540  138.8380 N   0  0  0  0  0  0  0  0  0  0  0  0
  189.7250  177.1110  136.6530 N   0  0  0  0  0  2  0  0  0  0  0  0
  189.5990  177.4020  140.8360 C   0  0  0  0  0  3  0  0  0  0  0  0
  188.5630  177.9630  140.0830 C   0  0  0  0  0  0  0  0  0  0  0  0
  188.6140  177.8710  138.6870 C   0  0  0  0  0  3  0  0  0  0  0  0
  190.6490  176.7430  140.1920 C   0  0  0  0  0  3  0  0  0  0  0  0
  188.8620  173.3660  135.1850 C   0  0  0  0  0  3  0  0  0  0  0  0
  190.7220  176.3630  136.0090 N   0  0  0  0  0  0  0  0  0  0  0  0
  190.4720  175.2200  135.4500 C   0  0  0  0  0  0  0  0  0  0  0  0
  191.8250  174.3080  134.7000 S   0  0  0  0  0  0  0  0  0  0  0  0
  189.1090  174.6500  135.4570 C   0  0  0  0  0  3  0  0  0  0  0  0
  189.9310  172.3710  134.8220 C   0  0  0  0  0  2  0  0  0  0  0  0
  191.2770  172.7390  135.4340 C   0  0  0  0  0  2  0  0  0  0  0  0
  183.9520  177.5240  142.0610 O   0  0  0  0  0  0  0  0  0  0  0  0
  184.8010  178.4020  142.3680 C   0  0  0  0  0  0  0  0  0  0  0  0
  185.2450  178.5180  143.7220 N   0  0  0  0  0  2  0  0  0  0  0  0
  183.2640  179.3000  144.8590 C   0  0  0  0  0  1  0  0  0  0  0  0
  184.3470  178.2430  144.8300 C   0  0  2  0  0  3  0  0  0  0  0  0
  185.1210  178.2860  146.1350 C   0  0  0  0  0  2  0  0  0  0  0  0
  186.5620  178.7050  145.8530 C   0  0  0  0  0  2  0  0  0  0  0  0
  190.7720  177.3800  144.6160 C   0  0  0  0  0  2  0  0  0  0  0  0
  188.5310  177.9850  147.2650 C   0  0  1  0  0  3  0  0  0  0  0  0
  189.7740  176.9370  145.3710 C   0  0  0  0  0  0  0  0  0  0  0  0
  189.9810  176.8980  147.1440 S   0  0  0  0  0  0  0  0  0  0  0  0
  187.5720  177.5900  146.1470 C   0  0  2  0  0  3  0  0  0  0  0  0
  187.8880  177.8020  148.5550 N   0  0  0  0  0  1  0  0  0  0  0  0
  188.3810  177.1960  144.9140 C   0  0  0  0  0  2  0  0  0  0  0  0
  182.1230  180.5000  138.4750 C   0  0  0  0  0  2  0  0  0  0  0  0
  180.7120  179.9340  138.6090 C   0  0  1  0  0  3  0  0  0  0  0  0
  180.1740  180.0720  140.0360 C   0  0  0  0  0  2  0  0  0  0  0  0
  180.6070  178.9300  140.9570 C   0  0  0  0  0  2  0  0  0  0  0  0
  180.3550  179.3080  142.4100 C   0  0  0  0  0  2  0  0  0  0  0  0
  179.2540  178.4660  144.3490 O   0  0  0  0  0  1  0  0  0  0  0  0
  179.9880  178.0840  143.2250 C   0  0  0  0  0  2  0  0  0  0  0  0
  179.8340  180.5670  137.6800 O   0  0  0  0  0  0  0  0  0  0  0  0
  180.2070  181.6900  136.9340 C   0  0  0  0  0  0  0  0  0  0  0  0
  180.3110  182.8540  137.4870 N   0  0  0  0  0  2  0  0  0  0  0  0
  180.5280  180.1830  135.1480 O   0  0  0  0  0  1  0  0  0  0  0  0
  180.5400  181.5350  135.4900 C   0  0  0  0  0  2  0  0  0  0  0  0
  1  7  2  0  0  0  0
  2 36  1  0  0  0  0
  2  1  1  0  0  0  0
  3 23  1  1  0  0  0
  4  1  1  0  0  0  0
  4  6  1  0  0  0  0
  6  5  2  0  0  0  0
  6  3  1  0  0  0  0
  7  3  1  0  0  0  0
  8 13  1  0  0  0  0
  8  9  2  0  0  0  0
  9 14  1  0  0  0  0
 10  8  1  0  0  0  0
 12  5  1  0  0  0  0
 12 11  1  0  0  0  0
 13 12  2  0  0  0  0
 14 11  2  0  0  0  0
 15 19  2  0  0  0  0
 16 10  1  0  0  0  0
 17 19  1  0  0  0  0
 17 16  2  0  0  0  0
 18 21  1  0  0  0  0
 18 17  1  0  0  0  0
 20 15  1  0  0  0  0
 20 21  1  0  0  0  0
 22 23  2  0  0  0  0
 23 24  1  0  0  0  0
 24 26  1  0  0  0  0
 26 25  1  1  0  0  0
 26 27  1  0  0  0  0
 28 27  1  0  0  0  0
 29 31  2  0  0  0  0
 30 34  1  1  0  0  0
 31 32  1  0  0  0  0
 32 30  1  0  0  0  0
 33 28  1  6  0  0  0
 33 30  1  0  0  0  0
 35 31  1  0  0  0  0
 35 33  1  0  0  0  0
 37 36  1  1  0  0  0
 37 38  1  0  0  0  0
 38 39  1  0  0  0  0
 39 40  1  0  0  0  0
 40 42  1  0  0  0  0
 42 41  1  0  0  0  0
 43 37  1  0  0  0  0
 44 45  2  0  0  0  0
 44 43  1  0  0  0  0
 46 47  1  0  0  0  0
 47 44  1  0  0  0  0
M  END
>  <MODEL>
4

>  <REMARK>
 VINA RESULT:      -6.5      2.330      3.515
  Name = 
  16 active torsions:
  status: ('A' for Active; 'I' for Inactive)
    1  A    between atoms: C_1  and  O_15
    2  A    between atoms: C_1  and  C_32
    3  A    between atoms: C_3  and  C_10
    4  A    between atoms: C_3  and  C_41
    5  A    between atoms: N_5  and  N_26
    6  A    between atoms: C_6  and  C_14
    7  A    between atoms: C_6  and  C_22
    8  A    between atoms: C_10  and  O_15
    9  A    between atoms: C_10  and  C_33
   10  A    between atoms: N_12  and  C_33
   11  A    between atoms: C_14  and  C_38
   12  A    between atoms: C_16  and  C_23
   13  A    between atoms: C_18  and  C_41
   14  A    between atoms: C_18  and  C_47
   15  A    between atoms: C_22  and  N_25
   16  A    between atoms: N_34  and  C_37
                            x       y       z     vdW  Elec       q    Type
                         _______ _______ _______ _____ _____    ______ ____

>  <TORSDO>
F 16

$$$$
=
 OpenBabel10222415233D

 47 50  0  0  1  0  0  0  0  0999 V2000
  190.4620  176.8400  141.2130 C   0  0  0  0  0  0  0  0  0  0  0  0
  190.2550  176.5270  142.5930 N   0  0  0  0  0  2  0  0  0  0  0  0
  191.6250  177.6240  139.3570 C   0  0  1  0  0  3  0  0  0  0  0  0
  189.2110  176.4790  139.9920 S   0  0  0  0  0  0  0  0  0  0  0  0
  189.8510  177.9320  137.7270 N   0  0  0  0  0  0  0  0  0  0  0  0
  190.2260  177.4450  138.8760 C   0  0  0  0  0  0  0  0  0  0  0  0
  191.5570  177.3930  140.7950 N   0  0  0  0  0  0  0  0  0  0  0  0
  186.1550  177.7440  137.0780 C   0  0  0  0  0  0  0  0  0  0  0  0
  186.1650  177.5970  135.7240 N   0  0  0  0  0  0  0  0  0  0  0  0
  184.9230  177.7660  137.7960 N   0  0  0  0  0  2  0  0  0  0  0  0
  188.5460  177.7120  135.6820 C   0  0  0  0  0  3  0  0  0  0  0  0
  188.5720  177.8450  137.0740 C   0  0  0  0  0  0  0  0  0  0  0  0
  187.3600  177.8710  137.7740 C   0  0  0  0  0  3  0  0  0  0  0  0
  187.3240  177.5840  135.0180 C   0  0  0  0  0  3  0  0  0  0  0  0
  181.6190  176.6250  139.9650 C   0  0  0  0  0  3  0  0  0  0  0  0
  183.7020  177.5360  137.1450 N   0  0  0  0  0  0  0  0  0  0  0  0
  182.6140  177.2670  137.7980 C   0  0  0  0  0  0  0  0  0  0  0  0
  181.1110  176.9310  136.8750 S   0  0  0  0  0  0  0  0  0  0  0  0
  182.6080  177.1970  139.2740 C   0  0  0  0  0  3  0  0  0  0  0  0
  180.4000  176.0150  139.3260 C   0  0  0  0  0  2  0  0  0  0  0  0
  180.6940  175.5060  137.9200 C   0  0  0  0  0  2  0  0  0  0  0  0
  193.6600  176.8770  138.3520 O   0  0  0  0  0  0  0  0  0  0  0  0
  192.4860  176.5820  138.7020 C   0  0  0  0  0  0  0  0  0  0  0  0
  191.9480  175.2990  138.3720 N   0  0  0  0  0  2  0  0  0  0  0  0
  191.1820  173.7140  136.7210 C   0  0  0  0  0  1  0  0  0  0  0  0
  192.3140  174.6290  137.1370 C   0  0  2  0  0  3  0  0  0  0  0  0
  193.5680  173.8030  137.3570 C   0  0  0  0  0  2  0  0  0  0  0  0
  194.6770  174.3170  136.4420 C   0  0  0  0  0  2  0  0  0  0  0  0
  198.2230  171.4470  136.8940 C   0  0  0  0  0  2  0  0  0  0  0  0
  197.1540  174.7170  136.1380 C   0  0  1  0  0  3  0  0  0  0  0  0
  197.8500  172.6420  137.3370 C   0  0  0  0  0  0  0  0  0  0  0  0
  198.7340  174.0880  136.7770 S   0  0  0  0  0  0  0  0  0  0  0  0
  196.0610  174.2610  137.0990 C   0  0  2  0  0  3  0  0  0  0  0  0
  197.1900  176.1690  136.0860 N   0  0  0  0  0  1  0  0  0  0  0  0
  196.4050  172.8660  137.6150 C   0  0  0  0  0  2  0  0  0  0  0  0
  191.1050  177.0320  143.6630 C   0  0  0  0  0  2  0  0  0  0  0  0
  190.2580  177.5890  144.8050 C   0  0  1  0  0  3  0  0  0  0  0  0
  188.8780  178.0420  144.3230 C   0  0  0  0  0  2  0  0  0  0  0  0
  187.7320  177.2220  144.9160 C   0  0  0  0  0  2  0  0  0  0  0  0
  186.4620  178.0610  144.9700 C   0  0  0  0  0  2  0  0  0  0  0  0
  185.5880  179.3570  146.7690 O   0  0  0  0  0  1  0  0  0  0  0  0
  185.8740  178.0510  146.3680 C   0  0  0  0  0  2  0  0  0  0  0  0
  190.1320  176.6210  145.8440 O   0  0  0  0  0  0  0  0  0  0  0  0
  190.4780  176.8880  147.1730 C   0  0  0  0  0  0  0  0  0  0  0  0
  189.6620  177.5060  147.9630 N   0  0  0  0  0  2  0  0  0  0  0  0
  192.3030  175.4280  146.8590 O   0  0  0  0  0  1  0  0  0  0  0  0
  191.7860  176.4100  147.7030 C   0  0  0  0  0  2  0  0  0  0  0  0
  1  2  1  0  0  0  0
  2 36  1  0  0  0  0
  3 23  1  6  0  0  0
  3  7  1  0  0  0  0
  4  1  1  0  0  0  0
  5  6  2  0  0  0  0
  6  3  1  0  0  0  0
  6  4  1  0  0  0  0
  7  1  2  0  0  0  0
  8 13  1  0  0  0  0
  8 10  1  0  0  0  0
  9  8  2  0  0  0  0
 11 12  1  0  0  0  0
 12  5  1  0  0  0  0
 12 13  2  0  0  0  0
 14 11  2  0  0  0  0
 14  9  1  0  0  0  0
 16 10  1  0  0  0  0
 16 17  2  0  0  0  0
 17 19  1  0  0  0  0
 18 17  1  0  0  0  0
 18 21  1  0  0  0  0
 19 15  2  0  0  0  0
 20 15  1  0  0  0  0
 21 20  1  0  0  0  0
 22 23  2  0  0  0  0
 24 23  1  0  0  0  0
 26 25  1  1  0  0  0
 26 27  1  0  0  0  0
 26 24  1  0  0  0  0
 28 27  1  0  0  0  0
 29 31  2  0  0  0  0
 30 34  1  1  0  0  0
 30 32  1  0  0  0  0
 30 33  1  0  0  0  0
 31 35  1  0  0  0  0
 32 31  1  0  0  0  0
 33 28  1  6  0  0  0
 33 35  1  0  0  0  0
 37 36  1  6  0  0  0
 37 43  1  0  0  0  0
 38 37  1  0  0  0  0
 38 39  1  0  0  0  0
 39 40  1  0  0  0  0
 40 42  1  0  0  0  0
 42 41  1  0  0  0  0
 43 44  1  0  0  0  0
 44 47  1  0  0  0  0
 44 45  2  0  0  0  0
 46 47  1  0  0  0  0
M  END
>  <MODEL>
5

>  <REMARK>
 VINA RESULT:      -6.4      3.696      9.882
  Name = 
  16 active torsions:
  status: ('A' for Active; 'I' for Inactive)
    1  A    between atoms: C_1  and  O_15
    2  A    between atoms: C_1  and  C_32
    3  A    between atoms: C_3  and  C_10
    4  A    between atoms: C_3  and  C_41
    5  A    between atoms: N_5  and  N_26
    6  A    between atoms: C_6  and  C_14
    7  A    between atoms: C_6  and  C_22
    8  A    between atoms: C_10  and  O_15
    9  A    between atoms: C_10  and  C_33
   10  A    between atoms: N_12  and  C_33
   11  A    between atoms: C_14  and  C_38
   12  A    between atoms: C_16  and  C_23
   13  A    between atoms: C_18  and  C_41
   14  A    between atoms: C_18  and  C_47
   15  A    between atoms: C_22  and  N_25
   16  A    between atoms: N_34  and  C_37
                            x       y       z     vdW  Elec       q    Type
                         _______ _______ _______ _____ _____    ______ ____

>  <TORSDO>
F 16

$$$$
=
 OpenBabel10222415233D

 47 50  0  0  1  0  0  0  0  0999 V2000
  190.3110  177.1740  139.0080 C   0  0  0  0  0  0  0  0  0  0  0  0
  190.9030  177.1250  137.7070 N   0  0  0  0  0  2  0  0  0  0  0  0
  190.0630  176.6350  141.2570 C   0  0  1  0  0  3  0  0  0  0  0  0
  188.9230  178.2440  139.3460 S   0  0  0  0  0  0  0  0  0  0  0  0
  187.7980  177.3810  141.7200 N   0  0  0  0  0  0  0  0  0  0  0  0
  188.8170  177.3740  140.9080 C   0  0  0  0  0  0  0  0  0  0  0  0
  190.7560  176.4520  139.9880 N   0  0  0  0  0  0  0  0  0  0  0  0
  184.8730  179.2930  140.3410 C   0  0  0  0  0  0  0  0  0  0  0  0
  184.1000  179.3710  141.4590 N   0  0  0  0  0  0  0  0  0  0  0  0
  184.4430  179.8880  139.1180 N   0  0  0  0  0  2  0  0  0  0  0  0
  185.7030  178.1290  142.7120 C   0  0  0  0  0  3  0  0  0  0  0  0
  186.5300  178.0470  141.5870 C   0  0  0  0  0  0  0  0  0  0  0  0
  186.1010  178.6280  140.3880 C   0  0  0  0  0  3  0  0  0  0  0  0
  184.4830  178.8030  142.6310 C   0  0  0  0  0  3  0  0  0  0  0  0
  181.2670  178.6040  136.8410 C   0  0  0  0  0  3  0  0  0  0  0  0
  183.2680  180.6520  139.0600 N   0  0  0  0  0  0  0  0  0  0  0  0
  182.2100  180.2400  138.4320 C   0  0  0  0  0  0  0  0  0  0  0  0
  180.7720  181.3130  138.3620 S   0  0  0  0  0  0  0  0  0  0  0  0
  182.1910  178.9310  137.7480 C   0  0  0  0  0  3  0  0  0  0  0  0
  180.1390  179.5140  136.4350 C   0  0  0  0  0  2  0  0  0  0  0  0
  180.5130  180.9820  136.5960 C   0  0  0  0  0  2  0  0  0  0  0  0
  192.1260  177.3320  142.2400 O   0  0  0  0  0  0  0  0  0  0  0  0
  190.8800  177.4980  142.1770 C   0  0  0  0  0  0  0  0  0  0  0  0
  190.2410  178.4240  143.0590 N   0  0  0  0  0  2  0  0  0  0  0  0
  192.0460  179.3810  144.3450 C   0  0  0  0  0  1  0  0  0  0  0  0
  190.7320  178.6320  144.4100 C   0  0  2  0  0  3  0  0  0  0  0  0
  190.9550  177.2900  145.0830 C   0  0  0  0  0  2  0  0  0  0  0  0
  189.6280  176.7780  145.6370 C   0  0  0  0  0  2  0  0  0  0  0  0
  185.2190  177.8700  146.2530 C   0  0  0  0  0  2  0  0  0  0  0  0
  188.4160  177.5860  147.7030 C   0  0  1  0  0  3  0  0  0  0  0  0
  186.4140  178.4100  146.4620 C   0  0  0  0  0  0  0  0  0  0  0  0
  186.9880  178.6200  148.1400 S   0  0  0  0  0  0  0  0  0  0  0  0
  188.7730  177.8920  146.2520 C   0  0  2  0  0  3  0  0  0  0  0  0
  189.5390  177.9120  148.5660 N   0  0  0  0  0  1  0  0  0  0  0  0
  187.4880  178.1400  145.4670 C   0  0  0  0  0  2  0  0  0  0  0  0
  191.8470  176.0940  137.2970 C   0  0  0  0  0  2  0  0  0  0  0  0
  191.3100  175.3190  136.0960 C   0  0  1  0  0  3  0  0  0  0  0  0
  190.3750  176.1760  135.2370 C   0  0  0  0  0  2  0  0  0  0  0  0
  189.0090  175.5300  135.0030 C   0  0  0  0  0  2  0  0  0  0  0  0
  187.9300  176.3060  135.7460 C   0  0  0  0  0  2  0  0  0  0  0  0
  187.1870  178.5280  136.1800 O   0  0  0  0  0  1  0  0  0  0  0  0
  187.8620  177.7360  135.2490 C   0  0  0  0  0  2  0  0  0  0  0  0
  192.3870  174.8130  135.3110 O   0  0  0  0  0  0  0  0  0  0  0  0
  193.7200  175.1690  135.5390 C   0  0  0  0  0  0  0  0  0  0  0  0
  194.4840  174.4440  136.2900 N   0  0  0  0  0  2  0  0  0  0  0  0
  195.0070  177.1300  135.7880 O   0  0  0  0  0  1  0  0  0  0  0  0
  194.2860  176.3710  134.8660 C   0  0  0  0  0  2  0  0  0  0  0  0
  1  4  1  0  0  0  0
  1  7  2  0  0  0  0
  2  1  1  0  0  0  0
  3 23  1  1  0  0  0
  4  6  1  0  0  0  0
  6  3  1  0  0  0  0
  6  5  2  0  0  0  0
  7  3  1  0  0  0  0
  8 13  1  0  0  0  0
  8  9  2  0  0  0  0
  9 14  1  0  0  0  0
 10  8  1  0  0  0  0
 12  5  1  0  0  0  0
 12 11  1  0  0  0  0
 13 12  2  0  0  0  0
 14 11  2  0  0  0  0
 15 19  2  0  0  0  0
 16 10  1  0  0  0  0
 17 16  2  0  0  0  0
 18 17  1  0  0  0  0
 19 17  1  0  0  0  0
 20 21  1  0  0  0  0
 20 15  1  0  0  0  0
 21 18  1  0  0  0  0
 23 22  2  0  0  0  0
 23 24  1  0  0  0  0
 24 26  1  0  0  0  0
 26 25  1  6  0  0  0
 26 27  1  0  0  0  0
 27 28  1  0  0  0  0
 29 31  2  0  0  0  0
 30 32  1  0  0  0  0
 30 34  1  1  0  0  0
 31 32  1  0  0  0  0
 33 28  1  6  0  0  0
 33 30  1  0  0  0  0
 35 33  1  0  0  0  0
 35 31  1  0  0  0  0
 36  2  1  0  0  0  0
 37 38  1  6  0  0  0
 37 36  1  0  0  0  0
 39 38  1  0  0  0  0
 39 40  1  0  0  0  0
 42 40  1  0  0  0  0
 42 41  1  0  0  0  0
 43 44  1  0  0  0  0
 43 37  1  0  0  0  0
 44 45  2  0  0  0  0
 47 44  1  0  0  0  0
 47 46  1  0  0  0  0
M  END
>  <MODEL>
6

>  <REMARK>
 VINA RESULT:      -6.2      3.775      9.481
  Name = 
  16 active torsions:
  status: ('A' for Active; 'I' for Inactive)
    1  A    between atoms: C_1  and  O_15
    2  A    between atoms: C_1  and  C_32
    3  A    between atoms: C_3  and  C_10
    4  A    between atoms: C_3  and  C_41
    5  A    between atoms: N_5  and  N_26
    6  A    between atoms: C_6  and  C_14
    7  A    between atoms: C_6  and  C_22
    8  A    between atoms: C_10  and  O_15
    9  A    between atoms: C_10  and  C_33
   10  A    between atoms: N_12  and  C_33
   11  A    between atoms: C_14  and  C_38
   12  A    between atoms: C_16  and  C_23
   13  A    between atoms: C_18  and  C_41
   14  A    between atoms: C_18  and  C_47
   15  A    between atoms: C_22  and  N_25
   16  A    between atoms: N_34  and  C_37
                            x       y       z     vdW  Elec       q    Type
                         _______ _______ _______ _____ _____    ______ ____

>  <TORSDO>
F 16

$$$$
=
 OpenBabel10222415233D

 47 50  0  0  1  0  0  0  0  0999 V2000
  186.5510  178.5290  141.5120 C   0  0  0  0  0  0  0  0  0  0  0  0
  187.7540  178.6750  140.7510 N   0  0  0  0  0  2  0  0  0  0  0  0
  185.1770  177.6730  143.1810 C   0  0  1  0  0  3  0  0  0  0  0  0
  185.1100  179.5180  141.1490 S   0  0  0  0  0  0  0  0  0  0  0  0
  182.9640  178.3090  142.4060 N   0  0  0  0  0  0  0  0  0  0  0  0
  184.2560  178.4330  142.2900 C   0  0  0  0  0  0  0  0  0  0  0  0
  186.4590  177.6830  142.4880 N   0  0  0  0  0  0  0  0  0  0  0  0
  180.9420  179.8740  139.6540 C   0  0  0  0  0  0  0  0  0  0  0  0
  179.8710  180.3100  140.3730 N   0  0  0  0  0  0  0  0  0  0  0  0
  181.0170  180.1090  138.2490 N   0  0  0  0  0  2  0  0  0  0  0  0
  180.7920  179.4100  142.3790 C   0  0  0  0  0  3  0  0  0  0  0  0
  181.9150  178.9670  141.6740 C   0  0  0  0  0  0  0  0  0  0  0  0
  181.9810  179.1950  140.2940 C   0  0  0  0  0  3  0  0  0  0  0  0
  179.7720  180.0880  141.7080 C   0  0  0  0  0  3  0  0  0  0  0  0
  181.7010  184.0980  137.5130 C   0  0  0  0  0  3  0  0  0  0  0  0
  180.0440  180.8770  137.5910 N   0  0  0  0  0  0  0  0  0  0  0  0
  180.2550  182.1120  137.2560 C   0  0  0  0  0  0  0  0  0  0  0  0
  178.9310  183.0340  136.4690 S   0  0  0  0  0  0  0  0  0  0  0  0
  181.5450  182.7720  137.5460 C   0  0  0  0  0  3  0  0  0  0  0  0
  180.5980  185.0580  137.1570 C   0  0  0  0  0  2  0  0  0  0  0  0
  179.2250  184.4950  137.5050 C   0  0  0  0  0  2  0  0  0  0  0  0
  185.3050  179.6690  144.4890 O   0  0  0  0  0  0  0  0  0  0  0  0
  185.2830  178.4100  144.4870 C   0  0  0  0  0  0  0  0  0  0  0  0
  185.4730  177.6940  145.7100 N   0  0  0  0  0  2  0  0  0  0  0  0
  185.7720  179.4910  147.2930 C   0  0  0  0  0  1  0  0  0  0  0  0
  186.3510  178.2030  146.7470 C   0  0  2  0  0  3  0  0  0  0  0  0
  187.7230  178.4840  146.1600 C   0  0  0  0  0  2  0  0  0  0  0  0
  188.7710  177.6740  146.9200 C   0  0  0  0  0  2  0  0  0  0  0  0
  191.3120  177.9350  143.1140 C   0  0  0  0  0  2  0  0  0  0  0  0
  191.0680  176.7450  146.4200 C   0  0  1  0  0  3  0  0  0  0  0  0
  190.8630  177.0030  143.9460 C   0  0  0  0  0  0  0  0  0  0  0  0
  192.0260  176.1480  144.9970 S   0  0  0  0  0  0  0  0  0  0  0  0
  189.6010  176.7690  146.0030 C   0  0  2  0  0  3  0  0  0  0  0  0
  191.2460  175.8420  147.5440 N   0  0  0  0  0  1  0  0  0  0  0  0
  189.5080  177.1840  144.5360 C   0  0  0  0  0  2  0  0  0  0  0  0
  188.8590  177.7280  140.8160 C   0  0  0  0  0  2  0  0  0  0  0  0
  189.2400  177.2490  139.4170 C   0  0  1  0  0  3  0  0  0  0  0  0
  188.4920  178.0230  138.3270 C   0  0  0  0  0  2  0  0  0  0  0  0
  188.1190  177.1590  137.1210 C   0  0  0  0  0  2  0  0  0  0  0  0
  186.6330  176.8300  137.1530 C   0  0  0  0  0  2  0  0  0  0  0  0
  184.4950  177.6340  137.8330 O   0  0  0  0  0  1  0  0  0  0  0  0
  185.8400  177.9910  137.7200 C   0  0  0  0  0  2  0  0  0  0  0  0
  190.6480  177.3520  139.2250 O   0  0  0  0  0  0  0  0  0  0  0  0
  191.4120  176.3220  138.6650 C   0  0  0  0  0  0  0  0  0  0  0  0
  190.8740  175.1870  138.3560 N   0  0  0  0  0  2  0  0  0  0  0  0
  193.3880  175.4290  137.7380 O   0  0  0  0  0  1  0  0  0  0  0  0
  192.8540  176.5510  138.3710 C   0  0  0  0  0  2  0  0  0  0  0  0
  1  7  2  0  0  0  0
  2 36  1  0  0  0  0
  2  1  1  0  0  0  0
  3 23  1  1  0  0  0
  4  1  1  0  0  0  0
  4  6  1  0  0  0  0
  6  5  2  0  0  0  0
  6  3  1  0  0  0  0
  7  3  1  0  0  0  0
  8 13  1  0  0  0  0
  8  9  2  0  0  0  0
  9 14  1  0  0  0  0
 10  8  1  0  0  0  0
 12 11  1  0  0  0  0
 12  5  1  0  0  0  0
 13 12  2  0  0  0  0
 14 11  2  0  0  0  0
 15 19  2  0  0  0  0
 16 10  1  0  0  0  0
 17 19  1  0  0  0  0
 17 16  2  0  0  0  0
 18 17  1  0  0  0  0
 18 21  1  0  0  0  0
 20 21  1  0  0  0  0
 20 15  1  0  0  0  0
 23 22  2  0  0  0  0
 23 24  1  0  0  0  0
 24 26  1  0  0  0  0
 26 25  1  6  0  0  0
 27 26  1  0  0  0  0
 27 28  1  0  0  0  0
 29 31  2  0  0  0  0
 30 34  1  1  0  0  0
 31 35  1  0  0  0  0
 31 32  1  0  0  0  0
 32 30  1  0  0  0  0
 33 30  1  0  0  0  0
 33 28  1  1  0  0  0
 35 33  1  0  0  0  0
 37 38  1  6  0  0  0
 37 36  1  0  0  0  0
 39 40  1  0  0  0  0
 39 38  1  0  0  0  0
 40 42  1  0  0  0  0
 42 41  1  0  0  0  0
 43 37  1  0  0  0  0
 44 43  1  0  0  0  0
 45 44  2  0  0  0  0
 46 47  1  0  0  0  0
 47 44  1  0  0  0  0
M  END
>  <MODEL>
7

>  <REMARK>
 VINA RESULT:      -6.2      3.202      9.001
  Name = 
  16 active torsions:
  status: ('A' for Active; 'I' for Inactive)
    1  A    between atoms: C_1  and  O_15
    2  A    between atoms: C_1  and  C_32
    3  A    between atoms: C_3  and  C_10
    4  A    between atoms: C_3  and  C_41
    5  A    between atoms: N_5  and  N_26
    6  A    between atoms: C_6  and  C_14
    7  A    between atoms: C_6  and  C_22
    8  A    between atoms: C_10  and  O_15
    9  A    between atoms: C_10  and  C_33
   10  A    between atoms: N_12  and  C_33
   11  A    between atoms: C_14  and  C_38
   12  A    between atoms: C_16  and  C_23
   13  A    between atoms: C_18  and  C_41
   14  A    between atoms: C_18  and  C_47
   15  A    between atoms: C_22  and  N_25
   16  A    between atoms: N_34  and  C_37
                            x       y       z     vdW  Elec       q    Type
                         _______ _______ _______ _____ _____    ______ ____

>  <TORSDO>
F 16

$$$$
=
 OpenBabel10222415233D

 47 50  0  0  1  0  0  0  0  0999 V2000
  190.2100  177.1210  139.0180 C   0  0  0  0  0  0  0  0  0  0  0  0
  190.8030  177.0550  137.7180 N   0  0  0  0  0  2  0  0  0  0  0  0
  189.9460  176.5960  141.2680 C   0  0  1  0  0  3  0  0  0  0  0  0
  188.8440  178.2220  139.3490 S   0  0  0  0  0  0  0  0  0  0  0  0
  187.6960  177.3910  141.7240 N   0  0  0  0  0  0  0  0  0  0  0  0
  188.7160  177.3590  140.9140 C   0  0  0  0  0  0  0  0  0  0  0  0
  190.6370  176.3930  140.0010 N   0  0  0  0  0  0  0  0  0  0  0  0
  184.7980  179.3250  140.3200 C   0  0  0  0  0  0  0  0  0  0  0  0
  184.0440  179.4630  141.4460 N   0  0  0  0  0  0  0  0  0  0  0  0
  184.3630  179.8870  139.0830 N   0  0  0  0  0  2  0  0  0  0  0  0
  185.6360  178.2270  142.7190 C   0  0  0  0  0  3  0  0  0  0  0  0
  186.4430  178.0840  141.5860 C   0  0  0  0  0  0  0  0  0  0  0  0
  186.0090  178.6320  140.3730 C   0  0  0  0  0  3  0  0  0  0  0  0
  184.4310  178.9280  142.6320 C   0  0  0  0  0  3  0  0  0  0  0  0
  181.1770  178.6740  136.7800 C   0  0  0  0  0  3  0  0  0  0  0  0
  183.2060  180.6780  139.0150 N   0  0  0  0  0  0  0  0  0  0  0  0
  182.1450  180.2900  138.3780 C   0  0  0  0  0  0  0  0  0  0  0  0
  180.7320  181.3950  138.2960 S   0  0  0  0  0  0  0  0  0  0  0  0
  182.1010  178.9810  137.6950 C   0  0  0  0  0  3  0  0  0  0  0  0
  180.0740  179.6100  136.3640 C   0  0  0  0  0  2  0  0  0  0  0  0
  180.4800  181.0690  136.5280 C   0  0  0  0  0  2  0  0  0  0  0  0
  192.0190  177.2400  142.2660 O   0  0  0  0  0  0  0  0  0  0  0  0
  190.7790  177.4450  142.1870 C   0  0  0  0  0  0  0  0  0  0  0  0
  190.1590  178.4010  143.0500 N   0  0  0  0  0  2  0  0  0  0  0  0
  191.9980  179.2810  144.3440 C   0  0  0  0  0  1  0  0  0  0  0  0
  190.6420  178.6110  144.4040 C   0  0  2  0  0  3  0  0  0  0  0  0
  190.7770  177.2740  145.1090 C   0  0  0  0  0  2  0  0  0  0  0  0
  189.3990  176.8050  145.5700 C   0  0  0  0  0  2  0  0  0  0  0  0
  185.0100  177.9190  146.2880 C   0  0  0  0  0  2  0  0  0  0  0  0
  188.2490  177.6650  147.6500 C   0  0  1  0  0  3  0  0  0  0  0  0
  186.2110  178.4620  146.4480 C   0  0  0  0  0  0  0  0  0  0  0  0
  186.8350  178.7110  148.1030 S   0  0  0  0  0  0  0  0  0  0  0  0
  188.5630  177.9350  146.1820 C   0  0  2  0  0  3  0  0  0  0  0  0
  189.3960  178.0100  148.4710 N   0  0  0  0  0  1  0  0  0  0  0  0
  187.2550  178.1660  145.4290 C   0  0  0  0  0  2  0  0  0  0  0  0
  191.7260  176.0030  137.3140 C   0  0  0  0  0  2  0  0  0  0  0  0
  191.8950  175.9900  135.7960 C   0  0  1  0  0  3  0  0  0  0  0  0
  193.2650  175.4470  135.3800 C   0  0  0  0  0  2  0  0  0  0  0  0
  194.3130  175.5390  136.4900 C   0  0  0  0  0  2  0  0  0  0  0  0
  194.8110  174.1470  136.8560 C   0  0  0  0  0  2  0  0  0  0  0  0
  195.1770  175.2560  138.9330 O   0  0  0  0  0  1  0  0  0  0  0  0
  195.6030  174.1840  138.1480 C   0  0  0  0  0  2  0  0  0  0  0  0
  190.8520  175.2330  135.1880 O   0  0  0  0  0  0  0  0  0  0  0  0
  190.3890  174.0230  135.7160 C   0  0  0  0  0  0  0  0  0  0  0  0
  191.0600  172.9280  135.5590 N   0  0  0  0  0  2  0  0  0  0  0  0
  188.2920  175.0320  136.0950 O   0  0  0  0  0  1  0  0  0  0  0  0
  189.1330  174.0020  136.5150 C   0  0  0  0  0  2  0  0  0  0  0  0
  1  4  1  0  0  0  0
  1  7  2  0  0  0  0
  2  1  1  0  0  0  0
  3 23  1  1  0  0  0
  4  6  1  0  0  0  0
  6  3  1  0  0  0  0
  6  5  2  0  0  0  0
  7  3  1  0  0  0  0
  8 13  1  0  0  0  0
  8  9  2  0  0  0  0
  9 14  1  0  0  0  0
 10  8  1  0  0  0  0
 12  5  1  0  0  0  0
 12 11  1  0  0  0  0
 13 12  2  0  0  0  0
 14 11  2  0  0  0  0
 15 19  2  0  0  0  0
 16 10  1  0  0  0  0
 17 16  2  0  0  0  0
 18 17  1  0  0  0  0
 19 17  1  0  0  0  0
 20 21  1  0  0  0  0
 20 15  1  0  0  0  0
 21 18  1  0  0  0  0
 23 22  2  0  0  0  0
 23 24  1  0  0  0  0
 24 26  1  0  0  0  0
 26 25  1  6  0  0  0
 26 27  1  0  0  0  0
 27 28  1  0  0  0  0
 29 31  2  0  0  0  0
 30 32  1  0  0  0  0
 30 34  1  1  0  0  0
 31 32  1  0  0  0  0
 33 28  1  6  0  0  0
 33 30  1  0  0  0  0
 35 33  1  0  0  0  0
 35 31  1  0  0  0  0
 36  2  1  0  0  0  0
 37 38  1  1  0  0  0
 37 36  1  0  0  0  0
 38 39  1  0  0  0  0
 39 40  1  0  0  0  0
 40 42  1  0  0  0  0
 42 41  1  0  0  0  0
 43 44  1  0  0  0  0
 43 37  1  0  0  0  0
 44 47  1  0  0  0  0
 45 44  2  0  0  0  0
 46 47  1  0  0  0  0
M  END
>  <MODEL>
8

>  <REMARK>
 VINA RESULT:      -6.1      3.798      9.717
  Name = 
  16 active torsions:
  status: ('A' for Active; 'I' for Inactive)
    1  A    between atoms: C_1  and  O_15
    2  A    between atoms: C_1  and  C_32
    3  A    between atoms: C_3  and  C_10
    4  A    between atoms: C_3  and  C_41
    5  A    between atoms: N_5  and  N_26
    6  A    between atoms: C_6  and  C_14
    7  A    between atoms: C_6  and  C_22
    8  A    between atoms: C_10  and  O_15
    9  A    between atoms: C_10  and  C_33
   10  A    between atoms: N_12  and  C_33
   11  A    between atoms: C_14  and  C_38
   12  A    between atoms: C_16  and  C_23
   13  A    between atoms: C_18  and  C_41
   14  A    between atoms: C_18  and  C_47
   15  A    between atoms: C_22  and  N_25
   16  A    between atoms: N_34  and  C_37
                            x       y       z     vdW  Elec       q    Type
                         _______ _______ _______ _____ _____    ______ ____

>  <TORSDO>
F 16

$$$$
=
 OpenBabel10222415233D

 47 50  0  0  1  0  0  0  0  0999 V2000
  189.0460  177.3500  143.8070 C   0  0  0  0  0  0  0  0  0  0  0  0
  189.4010  176.7540  145.0580 N   0  0  0  0  0  2  0  0  0  0  0  0
  189.3650  178.6270  141.8890 C   0  0  1  0  0  3  0  0  0  0  0  0
  187.4450  177.0600  143.0730 S   0  0  0  0  0  0  0  0  0  0  0  0
  187.0880  178.9940  141.1280 N   0  0  0  0  0  0  0  0  0  0  0  0
  187.9010  178.3520  141.9180 C   0  0  0  0  0  0  0  0  0  0  0  0
  189.8650  178.1180  143.1600 N   0  0  0  0  0  0  0  0  0  0  0  0
  183.6230  178.8650  139.6800 C   0  0  0  0  0  0  0  0  0  0  0  0
  182.9050  178.6540  140.8180 N   0  0  0  0  0  0  0  0  0  0  0  0
  182.9670  178.9840  138.4190 N   0  0  0  0  0  2  0  0  0  0  0  0
  184.8970  178.6230  142.1260 C   0  0  0  0  0  3  0  0  0  0  0  0
  185.6630  178.8580  140.9800 C   0  0  0  0  0  0  0  0  0  0  0  0
  185.0150  178.9690  139.7450 C   0  0  0  0  0  3  0  0  0  0  0  0
  183.5070  178.5260  142.0270 C   0  0  0  0  0  3  0  0  0  0  0  0
  180.9450  182.5440  138.0130 C   0  0  0  0  0  3  0  0  0  0  0  0
  181.5670  178.9890  138.3300 N   0  0  0  0  0  0  0  0  0  0  0  0
  180.8960  180.0770  138.1080 C   0  0  0  0  0  0  0  0  0  0  0  0
  179.1020  179.9950  138.0680 S   0  0  0  0  0  0  0  0  0  0  0  0
  181.5820  181.3730  137.9280 C   0  0  0  0  0  3  0  0  0  0  0  0
  179.4690  182.6730  138.2750 C   0  0  0  0  0  2  0  0  0  0  0  0
  178.9330  181.4940  139.0780 C   0  0  0  0  0  2  0  0  0  0  0  0
  191.1710  177.4990  140.8060 O   0  0  0  0  0  0  0  0  0  0  0  0
  189.9660  177.8590  140.7460 C   0  0  0  0  0  0  0  0  0  0  0  0
  189.2150  177.6320  139.5510 N   0  0  0  0  0  2  0  0  0  0  0  0
  189.2370  178.8340  137.4580 C   0  0  0  0  0  1  0  0  0  0  0  0
  189.8480  177.6950  138.2460 C   0  0  2  0  0  3  0  0  0  0  0  0
  189.6160  176.3930  137.5030 C   0  0  0  0  0  2  0  0  0  0  0  0
  188.4820  176.5820  136.4970 C   0  0  0  0  0  2  0  0  0  0  0  0
  183.9110  176.5060  136.1600 C   0  0  0  0  0  2  0  0  0  0  0  0
  186.9460  174.8500  135.4840 C   0  0  1  0  0  3  0  0  0  0  0  0
  184.8880  175.7190  136.5970 C   0  0  0  0  0  0  0  0  0  0  0  0
  185.2570  174.2190  135.7020 S   0  0  0  0  0  0  0  0  0  0  0  0
  187.3060  175.6300  136.7440 C   0  0  2  0  0  3  0  0  0  0  0  0
  187.8660  173.7380  135.3130 N   0  0  0  0  0  1  0  0  0  0  0  0
  186.0640  176.3590  137.2490 C   0  0  0  0  0  2  0  0  0  0  0  0
  190.5660  177.1570  145.8330 C   0  0  0  0  0  2  0  0  0  0  0  0
  190.3420  176.8910  147.3200 C   0  0  1  0  0  3  0  0  0  0  0  0
  188.8570  176.7120  147.6480 C   0  0  0  0  0  2  0  0  0  0  0  0
  188.0610  178.0150  147.5730 C   0  0  0  0  0  2  0  0  0  0  0  0
  186.6710  177.7470  147.0130 C   0  0  0  0  0  2  0  0  0  0  0  0
  184.5770  178.8680  146.8150 O   0  0  0  0  0  1  0  0  0  0  0  0
  185.9570  179.0480  146.7060 C   0  0  0  0  0  2  0  0  0  0  0  0
  191.0870  175.7490  147.7360 O   0  0  0  0  0  0  0  0  0  0  0  0
  192.4350  175.8200  148.1050 C   0  0  0  0  0  0  0  0  0  0  0  0
  193.3740  175.6020  147.2430 N   0  0  0  0  0  2  0  0  0  0  0  0
  193.7720  177.2000  149.4730 O   0  0  0  0  0  1  0  0  0  0  0  0
  192.7970  176.2030  149.4980 C   0  0  0  0  0  2  0  0  0  0  0  0
  1  2  1  0  0  0  0
  2 36  1  0  0  0  0
  3 23  1  6  0  0  0
  3  6  1  0  0  0  0
  3  7  1  0  0  0  0
  4  1  1  0  0  0  0
  5  6  2  0  0  0  0
  6  4  1  0  0  0  0
  7  1  2  0  0  0  0
  8 13  1  0  0  0  0
  8  9  2  0  0  0  0
  9 14  1  0  0  0  0
 10  8  1  0  0  0  0
 12  5  1  0  0  0  0
 12 11  1  0  0  0  0
 13 12  2  0  0  0  0
 14 11  2  0  0  0  0
 15 20  1  0  0  0  0
 16 10  1  0  0  0  0
 17 16  2  0  0  0  0
 18 17  1  0  0  0  0
 18 21  1  0  0  0  0
 19 15  2  0  0  0  0
 19 17  1  0  0  0  0
 20 21  1  0  0  0  0
 23 22  2  0  0  0  0
 24 23  1  0  0  0  0
 26 25  1  6  0  0  0
 26 24  1  0  0  0  0
 27 26  1  0  0  0  0
 28 27  1  0  0  0  0
 29 31  2  0  0  0  0
 30 34  1  1  0  0  0
 30 32  1  0  0  0  0
 30 33  1  0  0  0  0
 31 35  1  0  0  0  0
 32 31  1  0  0  0  0
 33 28  1  6  0  0  0
 33 35  1  0  0  0  0
 37 36  1  6  0  0  0
 37 38  1  0  0  0  0
 37 43  1  0  0  0  0
 39 38  1  0  0  0  0
 40 39  1  0  0  0  0
 42 41  1  0  0  0  0
 42 40  1  0  0  0  0
 43 44  1  0  0  0  0
 44 47  1  0  0  0  0
 45 44  2  0  0  0  0
 46 47  1  0  0  0  0
M  END
>  <MODEL>
9

>  <REMARK>
 VINA RESULT:      -6.1      3.673     10.460
  Name = 
  16 active torsions:
  status: ('A' for Active; 'I' for Inactive)
    1  A    between atoms: C_1  and  O_15
    2  A    between atoms: C_1  and  C_32
    3  A    between atoms: C_3  and  C_10
    4  A    between atoms: C_3  and  C_41
    5  A    between atoms: N_5  and  N_26
    6  A    between atoms: C_6  and  C_14
    7  A    between atoms: C_6  and  C_22
    8  A    between atoms: C_10  and  O_15
    9  A    between atoms: C_10  and  C_33
   10  A    between atoms: N_12  and  C_33
   11  A    between atoms: C_14  and  C_38
   12  A    between atoms: C_16  and  C_23
   13  A    between atoms: C_18  and  C_41
   14  A    between atoms: C_18  and  C_47
   15  A    between atoms: C_22  and  N_25
   16  A    between atoms: N_34  and  C_37
                            x       y       z     vdW  Elec       q    Type
                         _______ _______ _______ _____ _____    ______ ____

>  <TORSDO>
F 16

$$$$
