=
 OpenBabel10222415153D

 34 35  0  0  1  0  0  0  0  0999 V2000
  184.8960  178.2590  138.0800 C   0  0  1  0  0  3  0  0  0  0  0  0
  186.3860  178.6350  139.7360 C   0  0  0  0  0  0  0  0  0  0  0  0
  185.1350  179.1950  140.3120 C   0  0  1  0  0  3  0  0  0  0  0  0
  188.2870  178.1130  142.7360 O   0  0  0  0  0  0  0  0  0  0  0  0
  184.3640  176.8940  137.6890 C   0  0  0  0  0  1  0  0  0  0  0  0
  184.1530  178.7820  139.2680 C   0  0  0  0  0  0  0  0  0  0  0  0
  185.9220  178.3060  142.5050 C   0  0  0  0  0  0  0  0  0  0  0  0
  185.6670  177.8430  144.1880 Cl  0  0  0  0  0  0  0  0  0  0  0  0
  186.2640  178.1270  138.5570 N   0  0  0  0  0  0  0  0  0  0  0  0
  183.4950  178.6800  142.2540 C   0  0  0  0  0  1  0  0  0  0  0  0
  184.8840  178.6390  141.7030 C   0  0  0  0  0  0  0  0  0  0  0  0
  183.0060  179.3900  139.1330 C   0  0  0  0  0  0  0  0  0  0  0  0
  187.5190  178.3760  140.5560 N   0  0  0  0  0  2  0  0  0  0  0  0
  187.3050  178.2770  141.9670 C   0  0  0  0  0  0  0  0  0  0  0  0
  181.8610  180.0040  138.9890 C   0  0  0  0  0  0  0  0  0  0  0  0
  182.6100  182.2450  138.6920 O   0  0  0  0  0  0  0  0  0  0  0  0
  181.8060  181.3400  138.3440 C   0  0  0  0  0  0  0  0  0  0  0  0
  180.8120  181.6500  137.2710 C   0  0  0  0  0  2  0  0  0  0  0  0
  180.1650  182.9230  137.5440 N   0  0  0  0  0  2  0  0  0  0  0  0
  181.1410  184.0000  135.7190 O   0  0  0  0  0  0  0  0  0  0  0  0
  180.3540  184.0610  136.7030 C   0  0  0  0  0  0  0  0  0  0  0  0
  179.6600  185.2380  136.9830 O   0  0  0  0  0  0  0  0  0  0  0  0
  179.5560  185.7500  138.3030 C   0  0  0  0  0  1  0  0  0  0  0  0
  180.6230  179.2900  139.4620 C   0  0  2  0  0  3  0  0  0  0  0  0
  180.6320  178.3950  141.7590 O   0  0  0  0  0  0  0  0  0  0  0  0
  180.4470  179.4540  140.9010 N   0  0  0  0  0  0  0  0  0  0  0  0
  180.2610  180.5960  141.3680 O   0  0  0  0  0  0  0  0  0  0  0  0
  180.5630  177.8160  139.0420 C   0  0  2  0  0  3  0  0  0  0  0  0
  180.6260  177.6880  137.5270 C   0  0  0  0  0  1  0  0  0  0  0  0
  179.3290  177.2110  139.5240 N   0  0  0  0  0  2  0  0  0  0  0  0
  181.1370  175.3200  139.9450 O   0  0  0  0  0  0  0  0  0  0  0  0
  179.6520  175.5450  139.8760 S   0  0  0  0  0  0  0  0  0  0  0  0
  178.9310  175.1060  141.3840 N   0  0  0  0  0  1  0  0  0  0  0  0
  179.0730  174.6910  138.7830 O   0  0  0  0  0  0  0  0  0  0  0  0
  1  5  1  1  0  0  0
  1  9  1  0  0  0  0
  1  6  1  0  0  0  0
  2  3  1  0  0  0  0
  2 13  1  0  0  0  0
  3  6  1  6  0  0  0
  3 11  1  0  0  0  0
  7  8  1  0  0  0  0
  9  2  2  0  0  0  0
 11 10  1  0  0  0  0
 11  7  2  0  0  0  0
 12  6  2  0  0  0  0
 13 14  1  0  0  0  0
 14  7  1  0  0  0  0
 14  4  2  0  0  0  0
 15 12  2  0  0  0  0
 17 16  2  0  0  0  0
 17 15  1  0  0  0  0
 18 19  1  0  0  0  0
 18 17  1  0  0  0  0
 20 21  2  0  0  0  0
 21 22  1  0  0  0  0
 21 19  1  0  0  0  0
 22 23  1  0  0  0  0
 24 15  1  1  0  0  0
 24 26  1  0  0  0  0
 26 27  2  0  0  0  0
 26 25  2  0  0  0  0
 28 29  1  6  0  0  0
 28 24  1  0  0  0  0
 28 30  1  0  0  0  0
 30 32  1  0  0  0  0
 32 31  2  0  0  0  0
 32 33  1  0  0  0  0
 34 32  2  0  0  0  0
M  END
>  <MODEL>
1

>  <REMARK>
 VINA RESULT:      -6.0      0.000      0.000
  Name = 
  9 active torsions:
  status: ('A' for Active; 'I' for Inactive)
    1  A    between atoms: O_1  and  C_34
    2  A    between atoms: N_3  and  C_5
    3  A    between atoms: S_4  and  N_18
    4  A    between atoms: C_5  and  C_30
    5  A    between atoms: N_10  and  C_21
    6  A    between atoms: C_13  and  N_18
    7  A    between atoms: C_13  and  C_21
    8  A    between atoms: C_21  and  C_33
    9  A    between atoms: C_30  and  C_33
                            x       y       z     vdW  Elec       q    Type
                         _______ _______ _______ _____ _____    ______ ____

>  <TORSDO>
F 9

$$$$
=
 OpenBabel10222415153D

 34 35  0  0  1  0  0  0  0  0999 V2000
  187.0450  178.1970  135.8930 C   0  0  1  0  0  3  0  0  0  0  0  0
  188.5160  176.5590  136.3960 C   0  0  0  0  0  0  0  0  0  0  0  0
  187.3800  176.2430  137.3010 C   0  0  1  0  0  3  0  0  0  0  0  0
  190.1650  173.3720  136.3100 O   0  0  0  0  0  0  0  0  0  0  0  0
  186.2680  178.2930  134.5940 C   0  0  0  0  0  1  0  0  0  0  0  0
  186.3750  177.2370  136.8240 C   0  0  0  0  0  0  0  0  0  0  0  0
  187.8940  173.8430  136.8650 C   0  0  0  0  0  0  0  0  0  0  0  0
  187.4910  172.1250  136.8950 Cl  0  0  0  0  0  0  0  0  0  0  0  0
  188.3410  177.5880  135.6390 N   0  0  0  0  0  0  0  0  0  0  0  0
  185.5990  174.3810  137.5990 C   0  0  0  0  0  1  0  0  0  0  0  0
  186.9730  174.7860  137.1690 C   0  0  0  0  0  0  0  0  0  0  0  0
  185.3760  177.6110  137.5770 C   0  0  0  0  0  0  0  0  0  0  0  0
  189.5450  175.6080  136.1510 N   0  0  0  0  0  2  0  0  0  0  0  0
  189.2630  174.2390  136.4510 C   0  0  0  0  0  0  0  0  0  0  0  0
  184.3810  177.9950  138.3330 C   0  0  0  0  0  0  0  0  0  0  0  0
  184.3370  180.1650  139.3120 O   0  0  0  0  0  0  0  0  0  0  0  0
  184.6150  178.9440  139.4500 C   0  0  0  0  0  0  0  0  0  0  0  0
  185.1740  178.4870  140.7590 C   0  0  0  0  0  2  0  0  0  0  0  0
  186.6100  178.7090  140.7910 N   0  0  0  0  0  2  0  0  0  0  0  0
  186.8890  177.6900  142.8710 O   0  0  0  0  0  0  0  0  0  0  0  0
  187.4200  178.2550  141.8760 C   0  0  0  0  0  0  0  0  0  0  0  0
  188.8000  178.4460  141.8220 O   0  0  0  0  0  0  0  0  0  0  0  0
  189.6420  178.1410  142.9230 C   0  0  0  0  0  1  0  0  0  0  0  0
  183.0100  177.4710  137.9970 C   0  0  2  0  0  3  0  0  0  0  0  0
  182.0610  179.6960  137.5230 O   0  0  0  0  0  0  0  0  0  0  0  0
  182.2980  178.4000  137.1270 N   0  0  0  0  0  0  0  0  0  0  0  0
  182.0230  178.0560  135.9590 O   0  0  0  0  0  0  0  0  0  0  0  0
  182.1790  177.0870  139.2280 C   0  0  2  0  0  3  0  0  0  0  0  0
  182.2540  175.5880  139.4790 C   0  0  0  0  0  1  0  0  0  0  0  0
  180.7880  177.4710  139.0280 N   0  0  0  0  0  2  0  0  0  0  0  0
  179.3420  179.4480  140.0380 O   0  0  0  0  0  0  0  0  0  0  0  0
  180.2630  178.3290  140.4390 S   0  0  0  0  0  0  0  0  0  0  0  0
  179.4350  177.2570  141.5130 N   0  0  0  0  0  1  0  0  0  0  0  0
  181.4610  178.9030  141.1390 O   0  0  0  0  0  0  0  0  0  0  0  0
  1  5  1  6  0  0  0
  1  6  1  0  0  0  0
  3  2  1  6  0  0  0
  4 14  2  0  0  0  0
  6  3  1  0  0  0  0
  6 12  2  0  0  0  0
  7  8  1  0  0  0  0
  7 11  2  0  0  0  0
  9  1  1  0  0  0  0
  9  2  2  0  0  0  0
 11  3  1  0  0  0  0
 11 10  1  0  0  0  0
 12 15  2  0  0  0  0
 13  2  1  0  0  0  0
 13 14  1  0  0  0  0
 14  7  1  0  0  0  0
 15 17  1  0  0  0  0
 16 17  2  0  0  0  0
 17 18  1  0  0  0  0
 18 19  1  0  0  0  0
 19 21  1  0  0  0  0
 21 20  2  0  0  0  0
 22 21  1  0  0  0  0
 22 23  1  0  0  0  0
 24 15  1  1  0  0  0
 24 28  1  0  0  0  0
 26 25  2  0  0  0  0
 26 24  1  0  0  0  0
 27 26  2  0  0  0  0
 28 29  1  6  0  0  0
 30 28  1  0  0  0  0
 30 32  1  0  0  0  0
 31 32  2  0  0  0  0
 32 34  2  0  0  0  0
 32 33  1  0  0  0  0
M  END
>  <MODEL>
2

>  <REMARK>
 VINA RESULT:      -5.5      3.677      6.338
  Name = 
  9 active torsions:
  status: ('A' for Active; 'I' for Inactive)
    1  A    between atoms: O_1  and  C_34
    2  A    between atoms: N_3  and  C_5
    3  A    between atoms: S_4  and  N_18
    4  A    between atoms: C_5  and  C_30
    5  A    between atoms: N_10  and  C_21
    6  A    between atoms: C_13  and  N_18
    7  A    between atoms: C_13  and  C_21
    8  A    between atoms: C_21  and  C_33
    9  A    between atoms: C_30  and  C_33
                            x       y       z     vdW  Elec       q    Type
                         _______ _______ _______ _____ _____    ______ ____

>  <TORSDO>
F 9

$$$$
=
 OpenBabel10222415153D

 34 35  0  0  1  0  0  0  0  0999 V2000
  182.6840  179.3580  139.0140 C   0  0  1  0  0  3  0  0  0  0  0  0
  182.2190  178.7120  141.1280 C   0  0  0  0  0  0  0  0  0  0  0  0
  183.5530  178.0950  140.9020 C   0  0  1  0  0  3  0  0  0  0  0  0
  182.1360  178.7460  144.7170 O   0  0  0  0  0  0  0  0  0  0  0  0
  183.0270  180.7760  138.5980 C   0  0  0  0  0  1  0  0  0  0  0  0
  183.8930  178.6770  139.5720 C   0  0  0  0  0  0  0  0  0  0  0  0
  184.0410  178.6320  143.2880 C   0  0  0  0  0  0  0  0  0  0  0  0
  185.1410  178.8430  144.6500 Cl  0  0  0  0  0  0  0  0  0  0  0  0
  181.7570  179.3930  140.1350 N   0  0  0  0  0  0  0  0  0  0  0  0
  185.9790  178.3440  141.7850 C   0  0  0  0  0  1  0  0  0  0  0  0
  184.5070  178.4410  142.0320 C   0  0  0  0  0  0  0  0  0  0  0  0
  184.7750  178.1160  138.7880 C   0  0  0  0  0  0  0  0  0  0  0  0
  181.6760  178.8250  142.4380 N   0  0  0  0  0  2  0  0  0  0  0  0
  182.5810  178.7160  143.5400 C   0  0  0  0  0  0  0  0  0  0  0  0
  185.6490  177.5510  137.9980 C   0  0  0  0  0  0  0  0  0  0  0  0
  185.9380  175.2630  137.4070 O   0  0  0  0  0  0  0  0  0  0  0  0
  185.2880  176.3280  137.2380 C   0  0  0  0  0  0  0  0  0  0  0  0
  184.1510  176.3180  136.2660 C   0  0  0  0  0  2  0  0  0  0  0  0
  183.4000  175.0800  136.3930 N   0  0  0  0  0  2  0  0  0  0  0  0
  182.0480  175.8830  138.1170 O   0  0  0  0  0  0  0  0  0  0  0  0
  182.3310  174.9390  137.3300 C   0  0  0  0  0  0  0  0  0  0  0  0
  181.6090  173.7460  137.3630 O   0  0  0  0  0  0  0  0  0  0  0  0
  182.1660  172.5200  136.9180 C   0  0  0  0  0  1  0  0  0  0  0  0
  186.9970  178.2100  137.8660 C   0  0  2  0  0  3  0  0  0  0  0  0
  187.3670  180.1980  136.4570 O   0  0  0  0  0  0  0  0  0  0  0  0
  187.1390  178.8450  136.5610 N   0  0  0  0  0  0  0  0  0  0  0  0
  187.1900  178.1340  135.5370 O   0  0  0  0  0  0  0  0  0  0  0  0
  188.1710  177.2760  138.1800 C   0  0  2  0  0  3  0  0  0  0  0  0
  188.5980  177.4200  139.6340 C   0  0  0  0  0  1  0  0  0  0  0  0
  189.3010  177.5900  137.3160 N   0  0  0  0  0  2  0  0  0  0  0  0
  190.9760  176.3680  135.6650 O   0  0  0  0  0  0  0  0  0  0  0  0
  189.9790  176.0960  136.7570 S   0  0  0  0  0  0  0  0  0  0  0  0
  190.7610  175.2740  138.0620 N   0  0  0  0  0  1  0  0  0  0  0  0
  188.8770  175.2290  136.2160 O   0  0  0  0  0  0  0  0  0  0  0  0
  1  5  1  1  0  0  0
  1  6  1  0  0  0  0
  1  9  1  0  0  0  0
  2 13  1  0  0  0  0
  3  6  1  6  0  0  0
  3  2  1  0  0  0  0
  3 11  1  0  0  0  0
  7 14  1  0  0  0  0
  7  8  1  0  0  0  0
  9  2  2  0  0  0  0
 10 11  1  0  0  0  0
 11  7  2  0  0  0  0
 12  6  2  0  0  0  0
 13 14  1  0  0  0  0
 14  4  2  0  0  0  0
 15 12  2  0  0  0  0
 17 16  2  0  0  0  0
 17 15  1  0  0  0  0
 18 19  1  0  0  0  0
 18 17  1  0  0  0  0
 19 21  1  0  0  0  0
 21 22  1  0  0  0  0
 21 20  2  0  0  0  0
 23 22  1  0  0  0  0
 24 15  1  6  0  0  0
 24 28  1  0  0  0  0
 25 26  2  0  0  0  0
 26 24  1  0  0  0  0
 27 26  2  0  0  0  0
 28 29  1  1  0  0  0
 30 28  1  0  0  0  0
 31 32  2  0  0  0  0
 32 30  1  0  0  0  0
 32 33  1  0  0  0  0
 34 32  2  0  0  0  0
M  END
>  <MODEL>
3

>  <REMARK>
 VINA RESULT:      -5.4      4.031      7.478
  Name = 
  9 active torsions:
  status: ('A' for Active; 'I' for Inactive)
    1  A    between atoms: O_1  and  C_34
    2  A    between atoms: N_3  and  C_5
    3  A    between atoms: S_4  and  N_18
    4  A    between atoms: C_5  and  C_30
    5  A    between atoms: N_10  and  C_21
    6  A    between atoms: C_13  and  N_18
    7  A    between atoms: C_13  and  C_21
    8  A    between atoms: C_21  and  C_33
    9  A    between atoms: C_30  and  C_33
                            x       y       z     vdW  Elec       q    Type
                         _______ _______ _______ _____ _____    ______ ____

>  <TORSDO>
F 9

$$$$
=
 OpenBabel10222415153D

 34 35  0  0  1  0  0  0  0  0999 V2000
  184.3340  179.4260  144.3540 C   0  0  1  0  0  3  0  0  0  0  0  0
  185.7130  178.0390  145.4840 C   0  0  0  0  0  0  0  0  0  0  0  0
  185.9430  177.6230  144.0760 C   0  0  1  0  0  3  0  0  0  0  0  0
  188.7060  176.7780  147.0140 O   0  0  0  0  0  0  0  0  0  0  0  0
  184.5590  180.9160  144.1800 C   0  0  0  0  0  1  0  0  0  0  0  0
  185.1480  178.6620  143.3590 C   0  0  0  0  0  0  0  0  0  0  0  0
  188.3300  177.2960  144.7170 C   0  0  0  0  0  0  0  0  0  0  0  0
  190.0360  177.0680  144.3320 Cl  0  0  0  0  0  0  0  0  0  0  0  0
  184.8690  179.0020  145.6390 N   0  0  0  0  0  0  0  0  0  0  0  0
  187.8550  177.6790  142.3250 C   0  0  0  0  0  1  0  0  0  0  0  0
  187.4270  177.5950  143.7550 C   0  0  0  0  0  0  0  0  0  0  0  0
  184.7210  178.4720  142.1400 C   0  0  0  0  0  0  0  0  0  0  0  0
  186.6040  177.6420  146.5210 N   0  0  0  0  0  2  0  0  0  0  0  0
  187.9080  177.1980  146.1370 C   0  0  0  0  0  0  0  0  0  0  0  0
  184.2830  178.2800  140.9230 C   0  0  0  0  0  0  0  0  0  0  0  0
  183.2370  176.3830  139.9350 O   0  0  0  0  0  0  0  0  0  0  0  0
  183.1190  177.3920  140.6800 C   0  0  0  0  0  0  0  0  0  0  0  0
  181.7880  177.6580  141.3080 C   0  0  0  0  0  2  0  0  0  0  0  0
  181.2740  178.9420  140.8590 N   0  0  0  0  0  2  0  0  0  0  0  0
  179.9060  179.2340  142.7260 O   0  0  0  0  0  0  0  0  0  0  0  0
  180.3470  179.6970  141.6390 C   0  0  0  0  0  0  0  0  0  0  0  0
  179.9350  180.9490  141.1820 O   0  0  0  0  0  0  0  0  0  0  0  0
  180.0190  181.3130  139.8130 C   0  0  0  0  0  1  0  0  0  0  0  0
  184.9760  179.0190  139.8090 C   0  0  2  0  0  3  0  0  0  0  0  0
  183.1760  178.8680  138.1320 O   0  0  0  0  0  0  0  0  0  0  0  0
  184.0050  179.6390  138.9150 N   0  0  0  0  0  0  0  0  0  0  0  0
  183.8300  180.8730  138.9620 O   0  0  0  0  0  0  0  0  0  0  0  0
  185.9960  178.1670  139.0450 C   0  0  2  0  0  3  0  0  0  0  0  0
  187.3830  178.3130  139.6570 C   0  0  0  0  0  1  0  0  0  0  0  0
  186.0430  178.5790  137.6490 N   0  0  0  0  0  2  0  0  0  0  0  0
  185.3220  177.4200  135.3780 O   0  0  0  0  0  0  0  0  0  0  0  0
  186.0420  177.1490  136.6690 S   0  0  0  0  0  0  0  0  0  0  0  0
  187.6650  176.6590  136.3330 N   0  0  0  0  0  1  0  0  0  0  0  0
  185.3350  176.0480  137.4080 O   0  0  0  0  0  0  0  0  0  0  0  0
  1  5  1  6  0  0  0
  1  9  1  0  0  0  0
  2  9  2  0  0  0  0
  2 13  1  0  0  0  0
  3  6  1  6  0  0  0
  3  2  1  0  0  0  0
  6  1  1  0  0  0  0
  7 14  1  0  0  0  0
  8  7  1  0  0  0  0
 10 11  1  0  0  0  0
 11  3  1  0  0  0  0
 11  7  2  0  0  0  0
 12  6  2  0  0  0  0
 14 13  1  0  0  0  0
 14  4  2  0  0  0  0
 15 12  2  0  0  0  0
 16 17  2  0  0  0  0
 17 15  1  0  0  0  0
 17 18  1  0  0  0  0
 19 18  1  0  0  0  0
 19 21  1  0  0  0  0
 21 20  2  0  0  0  0
 22 21  1  0  0  0  0
 23 22  1  0  0  0  0
 24 15  1  1  0  0  0
 25 26  2  0  0  0  0
 26 27  2  0  0  0  0
 26 24  1  0  0  0  0
 28 29  1  1  0  0  0
 28 24  1  0  0  0  0
 30 28  1  0  0  0  0
 31 32  2  0  0  0  0
 32 34  2  0  0  0  0
 32 30  1  0  0  0  0
 33 32  1  0  0  0  0
M  END
>  <MODEL>
4

>  <REMARK>
 VINA RESULT:      -5.4      3.268      5.764
  Name = 
  9 active torsions:
  status: ('A' for Active; 'I' for Inactive)
    1  A    between atoms: O_1  and  C_34
    2  A    between atoms: N_3  and  C_5
    3  A    between atoms: S_4  and  N_18
    4  A    between atoms: C_5  and  C_30
    5  A    between atoms: N_10  and  C_21
    6  A    between atoms: C_13  and  N_18
    7  A    between atoms: C_13  and  C_21
    8  A    between atoms: C_21  and  C_33
    9  A    between atoms: C_30  and  C_33
                            x       y       z     vdW  Elec       q    Type
                         _______ _______ _______ _____ _____    ______ ____

>  <TORSDO>
F 9

$$$$
=
 OpenBabel10222415153D

 34 35  0  0  1  0  0  0  0  0999 V2000
  186.7160  177.5070  145.9150 C   0  0  1  0  0  3  0  0  0  0  0  0
  184.9880  178.8340  145.3220 C   0  0  0  0  0  0  0  0  0  0  0  0
  185.8400  178.8750  144.1050 C   0  0  1  0  0  3  0  0  0  0  0  0
  181.8370  179.8340  143.9230 O   0  0  0  0  0  0  0  0  0  0  0  0
  186.6350  176.0000  146.0730 C   0  0  0  0  0  1  0  0  0  0  0  0
  186.8760  177.8650  144.4720 C   0  0  0  0  0  0  0  0  0  0  0  0
  183.7170  178.8930  142.7990 C   0  0  0  0  0  0  0  0  0  0  0  0
  182.7980  178.7130  141.3030 Cl  0  0  0  0  0  0  0  0  0  0  0  0
  185.4410  178.1010  146.2820 N   0  0  0  0  0  0  0  0  0  0  0  0
  185.7380  178.0780  141.6390 C   0  0  0  0  0  1  0  0  0  0  0  0
  185.0260  178.5570  142.8640 C   0  0  0  0  0  0  0  0  0  0  0  0
  188.0480  177.8520  143.8970 C   0  0  0  0  0  0  0  0  0  0  0  0
  183.6380  179.2820  145.2880 N   0  0  0  0  0  2  0  0  0  0  0  0
  183.0080  179.3820  144.0080 C   0  0  0  0  0  0  0  0  0  0  0  0
  189.2260  177.8440  143.3310 C   0  0  0  0  0  0  0  0  0  0  0  0
  190.7340  179.6210  142.8420 O   0  0  0  0  0  0  0  0  0  0  0  0
  190.2450  178.8530  143.7140 C   0  0  0  0  0  0  0  0  0  0  0  0
  190.7140  178.9950  145.1270 C   0  0  0  0  0  2  0  0  0  0  0  0
  191.5990  177.8940  145.4700 N   0  0  0  0  0  2  0  0  0  0  0  0
  190.0370  176.8490  146.8510 O   0  0  0  0  0  0  0  0  0  0  0  0
  191.1820  176.8290  146.3240 C   0  0  0  0  0  0  0  0  0  0  0  0
  192.0570  175.7700  146.5690 O   0  0  0  0  0  0  0  0  0  0  0  0
  192.7310  175.6270  147.8100 C   0  0  0  0  0  1  0  0  0  0  0  0
  189.5070  176.7600  142.3250 C   0  0  2  0  0  3  0  0  0  0  0  0
  191.8880  176.3870  142.8460 O   0  0  0  0  0  0  0  0  0  0  0  0
  190.6010  175.9050  142.7740 N   0  0  0  0  0  0  0  0  0  0  0  0
  190.3440  174.7710  143.2280 O   0  0  0  0  0  0  0  0  0  0  0  0
  189.7380  177.2850  140.9030 C   0  0  2  0  0  3  0  0  0  0  0  0
  188.6370  178.2580  140.5050 C   0  0  0  0  0  1  0  0  0  0  0  0
  189.7580  176.1740  139.9600 N   0  0  0  0  0  2  0  0  0  0  0  0
  192.1820  177.1300  139.4750 O   0  0  0  0  0  0  0  0  0  0  0  0
  191.0060  176.4830  138.7980 S   0  0  0  0  0  0  0  0  0  0  0  0
  191.5080  175.0030  138.0580 N   0  0  0  0  0  1  0  0  0  0  0  0
  190.4740  177.4080  137.7400 O   0  0  0  0  0  0  0  0  0  0  0  0
  1  5  1  6  0  0  0
  1  9  1  0  0  0  0
  2  9  2  0  0  0  0
  3 11  1  6  0  0  0
  3  6  1  0  0  0  0
  3  2  1  0  0  0  0
  4 14  2  0  0  0  0
  6  1  1  0  0  0  0
  7 11  2  0  0  0  0
  7 14  1  0  0  0  0
  8  7  1  0  0  0  0
 10 11  1  0  0  0  0
 12  6  2  0  0  0  0
 13  2  1  0  0  0  0
 14 13  1  0  0  0  0
 15 17  1  0  0  0  0
 15 12  2  0  0  0  0
 16 17  2  0  0  0  0
 17 18  1  0  0  0  0
 18 19  1  0  0  0  0
 19 21  1  0  0  0  0
 21 22  1  0  0  0  0
 21 20  2  0  0  0  0
 22 23  1  0  0  0  0
 24 26  1  0  0  0  0
 24 15  1  1  0  0  0
 26 25  2  0  0  0  0
 26 27  2  0  0  0  0
 28 29  1  6  0  0  0
 28 24  1  0  0  0  0
 30 28  1  0  0  0  0
 32 31  2  0  0  0  0
 32 30  1  0  0  0  0
 33 32  1  0  0  0  0
 34 32  2  0  0  0  0
M  END
>  <MODEL>
5

>  <REMARK>
 VINA RESULT:      -5.4      5.775     10.390
  Name = 
  9 active torsions:
  status: ('A' for Active; 'I' for Inactive)
    1  A    between atoms: O_1  and  C_34
    2  A    between atoms: N_3  and  C_5
    3  A    between atoms: S_4  and  N_18
    4  A    between atoms: C_5  and  C_30
    5  A    between atoms: N_10  and  C_21
    6  A    between atoms: C_13  and  N_18
    7  A    between atoms: C_13  and  C_21
    8  A    between atoms: C_21  and  C_33
    9  A    between atoms: C_30  and  C_33
                            x       y       z     vdW  Elec       q    Type
                         _______ _______ _______ _____ _____    ______ ____

>  <TORSDO>
F 9

$$$$
=
 OpenBabel10222415153D

 34 35  0  0  1  0  0  0  0  0999 V2000
  185.4840  176.8190  135.8480 C   0  0  1  0  0  3  0  0  0  0  0  0
  185.5800  174.5770  136.0990 C   0  0  0  0  0  0  0  0  0  0  0  0
  184.7120  174.9780  137.2370 C   0  0  1  0  0  3  0  0  0  0  0  0
  184.6790  171.1150  135.8040 O   0  0  0  0  0  0  0  0  0  0  0  0
  184.7340  177.5350  134.7400 C   0  0  0  0  0  1  0  0  0  0  0  0
  184.5390  176.4300  136.9410 C   0  0  0  0  0  0  0  0  0  0  0  0
  183.4320  172.8820  136.8060 C   0  0  0  0  0  0  0  0  0  0  0  0
  182.0170  171.8460  136.9970 Cl  0  0  0  0  0  0  0  0  0  0  0  0
  185.9840  175.5480  135.3510 N   0  0  0  0  0  0  0  0  0  0  0  0
  182.2450  174.6970  137.9860 C   0  0  0  0  0  1  0  0  0  0  0  0
  183.4340  174.1580  137.2580 C   0  0  0  0  0  0  0  0  0  0  0  0
  184.1960  177.2790  137.8710 C   0  0  0  0  0  0  0  0  0  0  0  0
  185.6630  173.2190  135.6820 N   0  0  0  0  0  2  0  0  0  0  0  0
  184.6150  172.3370  136.0950 C   0  0  0  0  0  0  0  0  0  0  0  0
  183.8620  178.1320  138.8030 C   0  0  0  0  0  0  0  0  0  0  0  0
  186.0570  178.7870  139.4540 O   0  0  0  0  0  0  0  0  0  0  0  0
  184.8650  178.5760  139.8030 C   0  0  0  0  0  0  0  0  0  0  0  0
  184.4980  178.7920  141.2360 C   0  0  0  0  0  2  0  0  0  0  0  0
  185.5540  178.2910  142.1010 N   0  0  0  0  0  2  0  0  0  0  0  0
  184.3730  178.7150  144.0680 O   0  0  0  0  0  0  0  0  0  0  0  0
  185.4130  178.2560  143.5220 C   0  0  0  0  0  0  0  0  0  0  0  0
  186.4380  177.7090  144.2940 O   0  0  0  0  0  0  0  0  0  0  0  0
  187.6750  177.3110  143.7240 C   0  0  0  0  0  1  0  0  0  0  0  0
  182.4530  178.6620  138.7900 C   0  0  2  0  0  3  0  0  0  0  0  0
  181.5130  180.4750  137.4080 O   0  0  0  0  0  0  0  0  0  0  0  0
  182.4260  180.0520  138.3470 N   0  0  0  0  0  0  0  0  0  0  0  0
  183.1450  180.8930  138.9240 O   0  0  0  0  0  0  0  0  0  0  0  0
  181.7090  178.4690  140.1160 C   0  0  2  0  0  3  0  0  0  0  0  0
  181.2040  177.0390  140.2450 C   0  0  0  0  0  1  0  0  0  0  0  0
  180.5780  179.3850  140.1900 N   0  0  0  0  0  2  0  0  0  0  0  0
  179.6800  180.9940  142.0940 O   0  0  0  0  0  0  0  0  0  0  0  0
  180.1660  179.5910  141.8610 S   0  0  0  0  0  0  0  0  0  0  0  0
  178.9310  178.4690  142.3110 N   0  0  0  0  0  1  0  0  0  0  0  0
  181.3870  179.3450  142.7020 O   0  0  0  0  0  0  0  0  0  0  0  0
  1  5  1  6  0  0  0
  1  6  1  0  0  0  0
  3  2  1  6  0  0  0
  3 11  1  0  0  0  0
  4 14  2  0  0  0  0
  6  3  1  0  0  0  0
  6 12  2  0  0  0  0
  7  8  1  0  0  0  0
  7 11  2  0  0  0  0
  9  1  1  0  0  0  0
  9  2  2  0  0  0  0
 11 10  1  0  0  0  0
 12 15  2  0  0  0  0
 13 14  1  0  0  0  0
 13  2  1  0  0  0  0
 14  7  1  0  0  0  0
 15 17  1  0  0  0  0
 16 17  2  0  0  0  0
 17 18  1  0  0  0  0
 18 19  1  0  0  0  0
 19 21  1  0  0  0  0
 21 20  2  0  0  0  0
 21 22  1  0  0  0  0
 23 22  1  0  0  0  0
 24 15  1  1  0  0  0
 24 28  1  0  0  0  0
 25 26  2  0  0  0  0
 26 24  1  0  0  0  0
 26 27  2  0  0  0  0
 28 30  1  0  0  0  0
 28 29  1  6  0  0  0
 30 32  1  0  0  0  0
 32 31  2  0  0  0  0
 32 33  1  0  0  0  0
 32 34  2  0  0  0  0
M  END
>  <MODEL>
6

>  <REMARK>
 VINA RESULT:      -5.2      3.591      6.595
  Name = 
  9 active torsions:
  status: ('A' for Active; 'I' for Inactive)
    1  A    between atoms: O_1  and  C_34
    2  A    between atoms: N_3  and  C_5
    3  A    between atoms: S_4  and  N_18
    4  A    between atoms: C_5  and  C_30
    5  A    between atoms: N_10  and  C_21
    6  A    between atoms: C_13  and  N_18
    7  A    between atoms: C_13  and  C_21
    8  A    between atoms: C_21  and  C_33
    9  A    between atoms: C_30  and  C_33
                            x       y       z     vdW  Elec       q    Type
                         _______ _______ _______ _____ _____    ______ ____

>  <TORSDO>
F 9

$$$$
=
 OpenBabel10222415153D

 34 35  0  0  1  0  0  0  0  0999 V2000
  187.0500  178.1880  135.9740 C   0  0  1  0  0  3  0  0  0  0  0  0
  188.5290  176.6000  136.6010 C   0  0  0  0  0  0  0  0  0  0  0  0
  187.3100  176.2000  137.3510 C   0  0  1  0  0  3  0  0  0  0  0  0
  190.3300  173.4950  136.6170 O   0  0  0  0  0  0  0  0  0  0  0  0
  186.4300  178.2960  134.5940 C   0  0  0  0  0  1  0  0  0  0  0  0
  186.3220  177.1650  136.7870 C   0  0  0  0  0  0  0  0  0  0  0  0
  187.9900  173.8430  136.9070 C   0  0  0  0  0  0  0  0  0  0  0  0
  187.6690  172.1090  136.8360 Cl  0  0  0  0  0  0  0  0  0  0  0  0
  188.3950  177.6470  135.8600 N   0  0  0  0  0  0  0  0  0  0  0  0
  185.6000  174.2510  137.3740 C   0  0  0  0  0  1  0  0  0  0  0  0
  186.9930  174.7320  137.1260 C   0  0  0  0  0  0  0  0  0  0  0  0
  185.2230  177.4660  137.4250 C   0  0  0  0  0  0  0  0  0  0  0  0
  189.6260  175.7050  136.4530 N   0  0  0  0  0  2  0  0  0  0  0  0
  189.3770  174.3150  136.6740 C   0  0  0  0  0  0  0  0  0  0  0  0
  184.1270  177.7770  138.0660 C   0  0  0  0  0  0  0  0  0  0  0  0
  184.5970  179.8750  139.0910 O   0  0  0  0  0  0  0  0  0  0  0  0
  184.1790  178.6940  139.2320 C   0  0  0  0  0  0  0  0  0  0  0  0
  183.7370  178.2570  140.5910 C   0  0  0  0  0  2  0  0  0  0  0  0
  184.8770  178.2050  141.4920 N   0  0  0  0  0  2  0  0  0  0  0  0
  183.6000  178.6250  143.3990 O   0  0  0  0  0  0  0  0  0  0  0  0
  184.7320  178.3720  142.9030 C   0  0  0  0  0  0  0  0  0  0  0  0
  185.8550  178.2540  143.7220 O   0  0  0  0  0  0  0  0  0  0  0  0
  187.0510  177.6390  143.2690 C   0  0  0  0  0  1  0  0  0  0  0  0
  182.8330  177.2050  137.5510 C   0  0  2  0  0  3  0  0  0  0  0  0
  182.8230  175.6380  135.6490 O   0  0  0  0  0  0  0  0  0  0  0  0
  182.9210  176.9260  136.1220 N   0  0  0  0  0  0  0  0  0  0  0  0
  182.9480  177.8760  135.3140 O   0  0  0  0  0  0  0  0  0  0  0  0
  181.6040  178.0550  137.8950 C   0  0  2  0  0  3  0  0  0  0  0  0
  180.3260  177.3440  137.4750 C   0  0  0  0  0  1  0  0  0  0  0  0
  181.6830  179.3400  137.2140 N   0  0  0  0  0  2  0  0  0  0  0  0
  181.9360  181.7240  138.3430 O   0  0  0  0  0  0  0  0  0  0  0  0
  181.0090  180.5430  138.2640 S   0  0  0  0  0  0  0  0  0  0  0  0
  179.4690  181.0560  137.6680 N   0  0  0  0  0  1  0  0  0  0  0  0
  180.8380  179.9570  139.6370 O   0  0  0  0  0  0  0  0  0  0  0  0
  1  5  1  6  0  0  0
  1  6  1  0  0  0  0
  3  2  1  6  0  0  0
  4 14  2  0  0  0  0
  6  3  1  0  0  0  0
  6 12  2  0  0  0  0
  7 11  2  0  0  0  0
  8  7  1  0  0  0  0
  9  1  1  0  0  0  0
  9  2  2  0  0  0  0
 11  3  1  0  0  0  0
 11 10  1  0  0  0  0
 12 15  2  0  0  0  0
 13  2  1  0  0  0  0
 13 14  1  0  0  0  0
 14  7  1  0  0  0  0
 15 17  1  0  0  0  0
 16 17  2  0  0  0  0
 17 18  1  0  0  0  0
 18 19  1  0  0  0  0
 19 21  1  0  0  0  0
 21 20  2  0  0  0  0
 21 22  1  0  0  0  0
 23 22  1  0  0  0  0
 24 28  1  0  0  0  0
 24 15  1  6  0  0  0
 25 26  2  0  0  0  0
 26 24  1  0  0  0  0
 27 26  2  0  0  0  0
 28 29  1  6  0  0  0
 30 28  1  0  0  0  0
 30 32  1  0  0  0  0
 32 31  2  0  0  0  0
 32 34  2  0  0  0  0
 33 32  1  0  0  0  0
M  END
>  <MODEL>
7

>  <REMARK>
 VINA RESULT:      -5.0      3.801      6.389
  Name = 
  9 active torsions:
  status: ('A' for Active; 'I' for Inactive)
    1  A    between atoms: O_1  and  C_34
    2  A    between atoms: N_3  and  C_5
    3  A    between atoms: S_4  and  N_18
    4  A    between atoms: C_5  and  C_30
    5  A    between atoms: N_10  and  C_21
    6  A    between atoms: C_13  and  N_18
    7  A    between atoms: C_13  and  C_21
    8  A    between atoms: C_21  and  C_33
    9  A    between atoms: C_30  and  C_33
                            x       y       z     vdW  Elec       q    Type
                         _______ _______ _______ _____ _____    ______ ____

>  <TORSDO>
F 9

$$$$
=
 OpenBabel10222415153D

 34 35  0  0  1  0  0  0  0  0999 V2000
  184.7190  174.7980  136.5790 C   0  0  1  0  0  3  0  0  0  0  0  0
  186.5990  175.9620  136.1180 C   0  0  0  0  0  0  0  0  0  0  0  0
  185.7630  176.9830  136.8030 C   0  0  1  0  0  3  0  0  0  0  0  0
  189.8540  177.4100  136.5580 O   0  0  0  0  0  0  0  0  0  0  0  0
  184.6150  173.6980  137.6190 C   0  0  0  0  0  1  0  0  0  0  0  0
  184.6110  176.1380  137.2330 C   0  0  0  0  0  0  0  0  0  0  0  0
  187.8780  177.8110  137.8300 C   0  0  0  0  0  0  0  0  0  0  0  0
  188.7740  178.7550  139.0220 Cl  0  0  0  0  0  0  0  0  0  0  0  0
  186.0560  174.7970  136.0060 N   0  0  0  0  0  0  0  0  0  0  0  0
  185.7770  178.3320  139.0180 C   0  0  0  0  0  1  0  0  0  0  0  0
  186.5380  177.6530  137.9240 C   0  0  0  0  0  0  0  0  0  0  0  0
  183.4480  176.6620  137.5120 C   0  0  0  0  0  0  0  0  0  0  0  0
  187.9940  176.1660  135.9240 N   0  0  0  0  0  2  0  0  0  0  0  0
  188.6360  177.1510  136.7380 C   0  0  0  0  0  0  0  0  0  0  0  0
  182.2800  177.1840  137.7800 C   0  0  0  0  0  0  0  0  0  0  0  0
  181.3850  178.8360  136.3170 O   0  0  0  0  0  0  0  0  0  0  0  0
  181.3900  177.6290  136.6800 C   0  0  0  0  0  0  0  0  0  0  0  0
  180.4860  176.6730  135.9690 C   0  0  0  0  0  2  0  0  0  0  0  0
  181.0090  175.3200  136.0780 N   0  0  0  0  0  2  0  0  0  0  0  0
  179.0420  174.4540  136.9850 O   0  0  0  0  0  0  0  0  0  0  0  0
  180.2150  174.2420  136.5740 C   0  0  0  0  0  0  0  0  0  0  0  0
  180.7540  172.9560  136.5990 O   0  0  0  0  0  0  0  0  0  0  0  0
  180.4030  172.0160  137.6030 C   0  0  0  0  0  1  0  0  0  0  0  0
  181.8730  177.2720  139.2280 C   0  0  2  0  0  3  0  0  0  0  0  0
  179.4850  176.6620  139.2890 O   0  0  0  0  0  0  0  0  0  0  0  0
  180.8000  176.3290  139.5230 N   0  0  0  0  0  0  0  0  0  0  0  0
  181.0860  175.1620  139.8600 O   0  0  0  0  0  0  0  0  0  0  0  0
  181.5290  178.6940  139.6860 C   0  0  2  0  0  3  0  0  0  0  0  0
  182.6080  179.6740  139.2480 C   0  0  0  0  0  1  0  0  0  0  0  0
  181.4060  178.7330  141.1360 N   0  0  0  0  0  2  0  0  0  0  0  0
  178.9920  178.2830  142.1320 O   0  0  0  0  0  0  0  0  0  0  0  0
  179.8400  179.3650  141.5230 S   0  0  0  0  0  0  0  0  0  0  0  0
  179.9880  180.6780  142.6380 N   0  0  0  0  0  1  0  0  0  0  0  0
  179.1840  179.8580  140.2640 O   0  0  0  0  0  0  0  0  0  0  0  0
  1  6  1  0  0  0  0
  1  5  1  1  0  0  0
  3  2  1  1  0  0  0
  3  6  1  0  0  0  0
  3 11  1  0  0  0  0
  4 14  2  0  0  0  0
  6 12  2  0  0  0  0
  7 11  2  0  0  0  0
  7  8  1  0  0  0  0
  9  2  2  0  0  0  0
  9  1  1  0  0  0  0
 11 10  1  0  0  0  0
 12 15  2  0  0  0  0
 13  2  1  0  0  0  0
 13 14  1  0  0  0  0
 14  7  1  0  0  0  0
 16 17  2  0  0  0  0
 17 15  1  0  0  0  0
 18 19  1  0  0  0  0
 18 17  1  0  0  0  0
 19 21  1  0  0  0  0
 21 22  1  0  0  0  0
 21 20  2  0  0  0  0
 22 23  1  0  0  0  0
 24 15  1  6  0  0  0
 24 26  1  0  0  0  0
 24 28  1  0  0  0  0
 25 26  2  0  0  0  0
 26 27  2  0  0  0  0
 28 29  1  1  0  0  0
 28 30  1  0  0  0  0
 30 32  1  0  0  0  0
 32 31  2  0  0  0  0
 32 33  1  0  0  0  0
 34 32  2  0  0  0  0
M  END
>  <MODEL>
8

>  <REMARK>
 VINA RESULT:      -4.9      3.534      5.804
  Name = 
  9 active torsions:
  status: ('A' for Active; 'I' for Inactive)
    1  A    between atoms: O_1  and  C_34
    2  A    between atoms: N_3  and  C_5
    3  A    between atoms: S_4  and  N_18
    4  A    between atoms: C_5  and  C_30
    5  A    between atoms: N_10  and  C_21
    6  A    between atoms: C_13  and  N_18
    7  A    between atoms: C_13  and  C_21
    8  A    between atoms: C_21  and  C_33
    9  A    between atoms: C_30  and  C_33
                            x       y       z     vdW  Elec       q    Type
                         _______ _______ _______ _____ _____    ______ ____

>  <TORSDO>
F 9

$$$$
=
 OpenBabel10222415153D

 34 35  0  0  1  0  0  0  0  0999 V2000
  182.3330  177.1540  135.6060 C   0  0  1  0  0  3  0  0  0  0  0  0
  181.6070  175.0850  136.1450 C   0  0  0  0  0  0  0  0  0  0  0  0
  182.2770  175.5140  137.4000 C   0  0  1  0  0  3  0  0  0  0  0  0
  179.4780  172.4900  137.4190 O   0  0  0  0  0  0  0  0  0  0  0  0
  181.4370  178.3630  135.4140 C   0  0  0  0  0  1  0  0  0  0  0  0
  182.5940  176.9320  137.0620 C   0  0  0  0  0  0  0  0  0  0  0  0
  180.4600  174.3070  138.6090 C   0  0  0  0  0  0  0  0  0  0  0  0
  179.5250  173.9340  140.0570 Cl  0  0  0  0  0  0  0  0  0  0  0  0
  181.6230  175.9540  135.1930 N   0  0  0  0  0  0  0  0  0  0  0  0
  181.6290  176.0980  139.8430 C   0  0  0  0  0  1  0  0  0  0  0  0
  181.3640  175.3150  138.5970 C   0  0  0  0  0  0  0  0  0  0  0  0
  183.5320  177.5890  137.6890 C   0  0  0  0  0  0  0  0  0  0  0  0
  180.7330  173.9610  136.1270 N   0  0  0  0  0  2  0  0  0  0  0  0
  180.2030  173.5180  137.3790 C   0  0  0  0  0  0  0  0  0  0  0  0
  184.4770  178.2460  138.3070 C   0  0  0  0  0  0  0  0  0  0  0  0
  186.8110  178.6600  138.5350 O   0  0  0  0  0  0  0  0  0  0  0  0
  185.9020  177.9760  137.9920 C   0  0  0  0  0  0  0  0  0  0  0  0
  186.3020  176.8960  137.0390 C   0  0  0  0  0  2  0  0  0  0  0  0
  187.7130  176.5850  137.2030 N   0  0  0  0  0  2  0  0  0  0  0  0
  187.4660  174.3540  136.5650 O   0  0  0  0  0  0  0  0  0  0  0  0
  188.2380  175.2880  136.9190 C   0  0  0  0  0  0  0  0  0  0  0  0
  189.6090  175.0660  137.0390 O   0  0  0  0  0  0  0  0  0  0  0  0
  190.1720  173.7690  136.9230 C   0  0  0  0  0  1  0  0  0  0  0  0
  184.0590  179.2940  139.3040 C   0  0  2  0  0  3  0  0  0  0  0  0
  184.2090  177.7190  141.1940 O   0  0  0  0  0  0  0  0  0  0  0  0
  184.5110  178.9440  140.6460 N   0  0  0  0  0  0  0  0  0  0  0  0
  185.2940  179.7080  141.2470 O   0  0  0  0  0  0  0  0  0  0  0  0
  182.5600  179.6150  139.2690 C   0  0  2  0  0  3  0  0  0  0  0  0
  182.3230  181.0110  138.7120 C   0  0  0  0  0  1  0  0  0  0  0  0
  182.0040  179.5340  140.6130 N   0  0  0  0  0  2  0  0  0  0  0  0
  179.6850  178.5610  141.4510 O   0  0  0  0  0  0  0  0  0  0  0  0
  180.2760  179.5420  140.4770 S   0  0  0  0  0  0  0  0  0  0  0  0
  179.6620  181.1240  140.8080 N   0  0  0  0  0  1  0  0  0  0  0  0
  179.8910  179.1450  139.0800 O   0  0  0  0  0  0  0  0  0  0  0  0
  1  5  1  1  0  0  0
  1  6  1  0  0  0  0
  3  2  1  6  0  0  0
  3 11  1  0  0  0  0
  6  3  1  0  0  0  0
  6 12  2  0  0  0  0
  7  8  1  0  0  0  0
  9  1  1  0  0  0  0
  9  2  2  0  0  0  0
 11  7  2  0  0  0  0
 11 10  1  0  0  0  0
 12 15  2  0  0  0  0
 13  2  1  0  0  0  0
 13 14  1  0  0  0  0
 14  4  2  0  0  0  0
 14  7  1  0  0  0  0
 17 15  1  0  0  0  0
 17 16  2  0  0  0  0
 18 19  1  0  0  0  0
 18 17  1  0  0  0  0
 20 21  2  0  0  0  0
 21 22  1  0  0  0  0
 21 19  1  0  0  0  0
 23 22  1  0  0  0  0
 24 15  1  6  0  0  0
 24 26  1  0  0  0  0
 26 25  2  0  0  0  0
 26 27  2  0  0  0  0
 28 29  1  1  0  0  0
 28 24  1  0  0  0  0
 28 30  1  0  0  0  0
 32 30  1  0  0  0  0
 32 33  1  0  0  0  0
 32 31  2  0  0  0  0
 34 32  2  0  0  0  0
M  END
>  <MODEL>
9

>  <REMARK>
 VINA RESULT:      -4.9      3.676      7.288
  Name = 
  9 active torsions:
  status: ('A' for Active; 'I' for Inactive)
    1  A    between atoms: O_1  and  C_34
    2  A    between atoms: N_3  and  C_5
    3  A    between atoms: S_4  and  N_18
    4  A    between atoms: C_5  and  C_30
    5  A    between atoms: N_10  and  C_21
    6  A    between atoms: C_13  and  N_18
    7  A    between atoms: C_13  and  C_21
    8  A    between atoms: C_21  and  C_33
    9  A    between atoms: C_30  and  C_33
                            x       y       z     vdW  Elec       q    Type
                         _______ _______ _______ _____ _____    ______ ____

>  <TORSDO>
F 9

$$$$
