=
 OpenBabel10222416433D

 45 47  0  0  1  0  0  0  0  0999 V2000
  182.0040  176.3650  136.2140 C   0  0  0  0  0  0  0  0  0  0  0  0
  181.7890  177.6040  135.3680 C   0  0  0  0  0  2  0  0  0  0  0  0
  182.2710  176.4890  137.5240 C   0  0  0  0  0  3  0  0  0  0  0  0
  182.3500  177.8460  138.1830 C   0  0  2  0  0  3  0  0  0  0  0  0
  181.1970  178.7240  136.1760 C   0  0  0  0  0  3  0  0  0  0  0  0
  181.4790  178.8610  137.4770 C   0  0  0  0  0  0  0  0  0  0  0  0
  180.9310  181.2730  137.6880 C   0  0  0  0  0  1  0  0  0  0  0  0
  179.6900  180.6130  140.1210 O   0  0  0  0  0  0  0  0  0  0  0  0
  180.2480  179.6720  139.4960 C   0  0  0  0  0  0  0  0  0  0  0  0
  180.8720  179.9200  138.2250 N   0  0  0  0  0  0  0  0  0  0  0  0
  180.2790  178.3040  140.1090 C   0  0  0  0  0  2  0  0  0  0  0  0
  181.6890  178.8730  142.1130 N   0  0  0  0  0  2  0  0  0  0  0  0
  180.4620  178.3690  141.5890 C   0  0  0  0  0  0  0  0  0  0  0  0
  179.5510  177.9620  142.3580 O   0  0  0  0  0  0  0  0  0  0  0  0
  181.9190  179.0320  143.5400 C   0  0  0  0  0  2  0  0  0  0  0  0
  183.8240  178.8640  145.1630 C   0  0  0  0  0  3  0  0  0  0  0  0
  185.5770  178.1630  143.1000 C   0  0  0  0  0  3  0  0  0  0  0  0
  185.6760  178.7440  146.8400 C   0  0  0  0  0  1  0  0  0  0  0  0
  185.1740  178.6290  145.4410 C   0  0  0  0  0  0  0  0  0  0  0  0
  184.2290  178.4030  142.8200 C   0  0  0  0  0  3  0  0  0  0  0  0
  183.3490  178.7540  143.8520 C   0  0  0  0  0  0  0  0  0  0  0  0
  186.0510  178.2770  144.4110 C   0  0  0  0  0  3  0  0  0  0  0  0
  183.7670  178.3160  138.3280 C   0  0  0  0  0  0  0  0  0  0  0  0
  184.1250  179.7520  139.3530 S   0  0  0  0  0  1  0  0  0  0  0  0
  184.7190  177.5780  137.7360 C   0  0  0  0  0  3  0  0  0  0  0  0
  186.1250  177.8650  137.7090 N   0  0  0  0  0  0  0  0  0  0  0  0
  186.9360  177.6700  138.6990 C   0  0  0  0  0  3  0  0  0  0  0  0
  188.3310  177.9740  138.5870 N   0  0  0  0  0  0  0  0  0  0  0  0
  190.9070  177.4830  141.9340 C   0  0  0  0  0  3  0  0  0  0  0  0
  190.5580  177.4630  139.5360 C   0  0  0  0  0  3  0  0  0  0  0  0
  189.2080  177.8050  139.7170 C   0  0  0  0  0  0  0  0  0  0  0  0
  188.7210  177.9800  141.0230 C   0  0  0  0  0  3  0  0  0  0  0  0
  189.5650  177.8190  142.1250 C   0  0  0  0  0  3  0  0  0  0  0  0
  191.4030  177.3030  140.6390 C   0  0  0  0  0  3  0  0  0  0  0  0
  188.9650  179.7600  137.4360 O   0  0  0  0  0  1  0  0  0  0  0  0
  188.8460  178.4140  137.3570 N   0  0  0  0  0  2  0  0  0  0  0  0
  181.9440  174.9890  135.6230 C   0  0  0  0  0  2  0  0  0  0  0  0
  181.9640  173.9620  136.6550 N   0  0  0  0  0  2  0  0  0  0  0  0
  182.4300  172.7830  136.0500 N   0  0  0  0  0  0  0  0  0  0  0  0
  183.6330  170.6760  136.4420 C   0  0  0  0  0  1  0  0  0  0  0  0
  183.2860  172.0510  136.9940 C   0  0  0  0  0  3  0  0  0  0  0  0
  184.5630  172.8050  137.3700 C   0  0  0  0  0  1  0  0  0  0  0  0
  181.2690  171.9570  135.7390 C   0  0  0  0  0  2  0  0  0  0  0  0
  179.2500  171.0320  136.7360 N   0  0  0  0  0  1  0  0  0  0  0  0
  180.2030  172.1280  136.8090 C   0  0  0  0  0  2  0  0  0  0  0  0
  1  3  2  0  0  0  0
  2  5  1  0  0  0  0
  2  1  1  0  0  0  0
  3  4  1  0  0  0  0
  4 23  1  6  0  0  0
  5  6  2  0  0  0  0
  6  4  1  0  0  0  0
  6 10  1  0  0  0  0
  7 10  1  0  0  0  0
  9 11  1  0  0  0  0
  9  8  2  0  0  0  0
 10  9  1  0  0  0  0
 11 13  1  0  0  0  0
 12 15  1  0  0  0  0
 13 12  1  0  0  0  0
 13 14  2  0  0  0  0
 15 21  1  0  0  0  0
 16 19  1  0  0  0  0
 17 22  1  0  0  0  0
 19 18  1  0  0  0  0
 20 17  2  0  0  0  0
 20 21  1  0  0  0  0
 21 16  2  0  0  0  0
 22 19  2  0  0  0  0
 23 24  1  0  0  0  0
 25 23  2  0  0  0  0
 26 25  1  0  0  0  0
 26 27  2  0  0  0  0
 28 27  1  0  0  0  0
 28 31  1  0  0  0  0
 29 33  1  0  0  0  0
 30 31  2  0  0  0  0
 30 34  1  0  0  0  0
 31 32  1  0  0  0  0
 32 33  2  0  0  0  0
 34 29  2  0  0  0  0
 36 35  1  0  0  0  0
 36 28  1  0  0  0  0
 37  1  1  0  0  0  0
 37 38  1  0  0  0  0
 39 38  1  0  0  0  0
 39 41  1  0  0  0  0
 40 41  1  0  0  0  0
 41 42  1  0  0  0  0
 43 39  1  0  0  0  0
 43 45  1  0  0  0  0
 44 45  1  0  0  0  0
M  END
>  <MODEL>
1

>  <REMARK>
 VINA RESULT:      -7.4      0.000      0.000
  Name = 
  15 active torsions:
  status: ('A' for Active; 'I' for Inactive)
    1  A    between atoms: C_1  and  C_8
    2  A    between atoms: N_3  and  C_21
    3  A    between atoms: C_6  and  C_40
    4  A    between atoms: C_8  and  N_33
    5  A    between atoms: N_11  and  C_35
    6  A    between atoms: N_14  and  N_32
    7  A    between atoms: C_17  and  N_32
    8  A    between atoms: N_19  and  C_30
    9  A    between atoms: N_19  and  N_33
   10  A    between atoms: N_19  and  C_37
   11  A    between atoms: C_21  and  C_42
   12  A    between atoms: C_23  and  C_39
   13  A    between atoms: C_26  and  C_37
   14  A    between atoms: C_28  and  C_39
   15  A    between atoms: N_31  and  C_43
                            x       y       z     vdW  Elec       q    Type
                         _______ _______ _______ _____ _____    ______ ____

>  <TORSDO>
F 15

$$$$
=
 OpenBabel10222416433D

 45 47  0  0  1  0  0  0  0  0999 V2000
  181.4530  180.6230  138.6670 C   0  0  0  0  0  0  0  0  0  0  0  0
  180.3630  179.5720  138.7180 C   0  0  0  0  0  2  0  0  0  0  0  0
  182.6890  180.3250  139.0980 C   0  0  0  0  0  3  0  0  0  0  0  0
  183.0250  178.9490  139.6240 C   0  0  2  0  0  3  0  0  0  0  0  0
  180.9260  178.1890  138.5530 C   0  0  0  0  0  3  0  0  0  0  0  0
  182.1500  177.8840  139.0000 C   0  0  0  0  0  0  0  0  0  0  0  0
  182.2710  175.5120  139.7210 C   0  0  0  0  0  1  0  0  0  0  0  0
  184.0110  175.1090  137.5520 O   0  0  0  0  0  0  0  0  0  0  0  0
  183.5930  176.2840  137.7320 C   0  0  0  0  0  0  0  0  0  0  0  0
  182.6700  176.5650  138.7980 N   0  0  0  0  0  0  0  0  0  0  0  0
  184.0960  177.3830  136.8460 C   0  0  0  0  0  2  0  0  0  0  0  0
  186.3990  177.6350  137.8260 N   0  0  0  0  0  2  0  0  0  0  0  0
  185.5800  177.3340  136.6970 C   0  0  0  0  0  0  0  0  0  0  0  0
  186.0960  177.0530  135.5830 O   0  0  0  0  0  0  0  0  0  0  0  0
  187.8490  177.5440  137.7810 C   0  0  0  0  0  2  0  0  0  0  0  0
  189.7290  177.3960  139.4350 C   0  0  0  0  0  3  0  0  0  0  0  0
  188.1030  178.4640  141.4450 C   0  0  0  0  0  3  0  0  0  0  0  0
  191.6440  177.1920  141.0310 C   0  0  0  0  0  1  0  0  0  0  0  0
  190.2350  177.5690  140.7280 C   0  0  0  0  0  0  0  0  0  0  0  0
  187.5950  178.2860  140.1540 C   0  0  0  0  0  3  0  0  0  0  0  0
  188.4070  177.7520  139.1470 C   0  0  0  0  0  0  0  0  0  0  0  0
  189.4230  178.1040  141.7330 C   0  0  0  0  0  3  0  0  0  0  0  0
  182.9980  178.9010  141.1220 C   0  0  0  0  0  0  0  0  0  0  0  0
  181.4200  178.7780  141.9790 S   0  0  0  0  0  1  0  0  0  0  0  0
  184.1820  178.8730  141.7540 C   0  0  0  0  0  3  0  0  0  0  0  0
  184.3900  178.8710  143.1740 N   0  0  0  0  0  0  0  0  0  0  0  0
  185.4900  178.5150  143.7570 C   0  0  0  0  0  3  0  0  0  0  0  0
  185.6210  178.5530  145.1820 N   0  0  0  0  0  0  0  0  0  0  0  0
  189.1880  177.2190  147.0720 C   0  0  0  0  0  3  0  0  0  0  0  0
  187.8660  177.5190  145.0640 C   0  0  0  0  0  3  0  0  0  0  0  0
  186.8310  178.0990  145.8170 C   0  0  0  0  0  0  0  0  0  0  0  0
  186.9920  178.2270  147.2060 C   0  0  0  0  0  3  0  0  0  0  0  0
  188.1640  177.7900  147.8300 C   0  0  0  0  0  3  0  0  0  0  0  0
  189.0380  177.0810  145.6880 C   0  0  0  0  0  3  0  0  0  0  0  0
  183.9930  178.0080  146.5870 O   0  0  0  0  0  1  0  0  0  0  0  0
  184.5670  179.0610  145.9600 N   0  0  0  0  0  2  0  0  0  0  0  0
  181.1870  182.0090  138.1620 C   0  0  0  0  0  2  0  0  0  0  0  0
  180.9250  182.0150  136.7300 N   0  0  0  0  0  2  0  0  0  0  0  0
  179.6210  182.5090  136.5550 N   0  0  0  0  0  0  0  0  0  0  0  0
  178.9310  184.8530  136.8240 C   0  0  0  0  0  1  0  0  0  0  0  0
  179.6810  183.8510  135.9580 C   0  0  0  0  0  3  0  0  0  0  0  0
  181.1070  184.3410  135.7010 C   0  0  0  0  0  1  0  0  0  0  0  0
  178.9310  181.6200  135.6280 C   0  0  0  0  0  2  0  0  0  0  0  0
  179.5330  179.3370  135.0340 N   0  0  0  0  0  1  0  0  0  0  0  0
  179.9330  180.7300  134.9110 C   0  0  0  0  0  2  0  0  0  0  0  0
  1  2  1  0  0  0  0
  1  3  2  0  0  0  0
  3  4  1  0  0  0  0
  4 23  1  1  0  0  0
  5  2  1  0  0  0  0
  5  6  2  0  0  0  0
  6  4  1  0  0  0  0
  8  9  2  0  0  0  0
  9 10  1  0  0  0  0
 10  6  1  0  0  0  0
 10  7  1  0  0  0  0
 11  9  1  0  0  0  0
 13 11  1  0  0  0  0
 13 12  1  0  0  0  0
 14 13  2  0  0  0  0
 15 12  1  0  0  0  0
 15 21  1  0  0  0  0
 16 19  1  0  0  0  0
 17 22  1  0  0  0  0
 19 18  1  0  0  0  0
 19 22  2  0  0  0  0
 20 17  2  0  0  0  0
 21 16  2  0  0  0  0
 21 20  1  0  0  0  0
 23 25  2  0  0  0  0
 23 24  1  0  0  0  0
 25 26  1  0  0  0  0
 26 27  2  0  0  0  0
 27 28  1  0  0  0  0
 28 31  1  0  0  0  0
 28 36  1  0  0  0  0
 29 33  1  0  0  0  0
 30 34  1  0  0  0  0
 30 31  2  0  0  0  0
 31 32  1  0  0  0  0
 32 33  2  0  0  0  0
 34 29  2  0  0  0  0
 36 35  1  0  0  0  0
 37  1  1  0  0  0  0
 38 37  1  0  0  0  0
 39 38  1  0  0  0  0
 41 39  1  0  0  0  0
 41 40  1  0  0  0  0
 42 41  1  0  0  0  0
 43 39  1  0  0  0  0
 45 44  1  0  0  0  0
 45 43  1  0  0  0  0
M  END
>  <MODEL>
2

>  <REMARK>
 VINA RESULT:      -7.4      3.084      7.222
  Name = 
  15 active torsions:
  status: ('A' for Active; 'I' for Inactive)
    1  A    between atoms: C_1  and  C_8
    2  A    between atoms: N_3  and  C_21
    3  A    between atoms: C_6  and  C_40
    4  A    between atoms: C_8  and  N_33
    5  A    between atoms: N_11  and  C_35
    6  A    between atoms: N_14  and  N_32
    7  A    between atoms: C_17  and  N_32
    8  A    between atoms: N_19  and  C_30
    9  A    between atoms: N_19  and  N_33
   10  A    between atoms: N_19  and  C_37
   11  A    between atoms: C_21  and  C_42
   12  A    between atoms: C_23  and  C_39
   13  A    between atoms: C_26  and  C_37
   14  A    between atoms: C_28  and  C_39
   15  A    between atoms: N_31  and  C_43
                            x       y       z     vdW  Elec       q    Type
                         _______ _______ _______ _____ _____    ______ ____

>  <TORSDO>
F 15

$$$$
=
 OpenBabel10222416433D

 45 47  0  0  1  0  0  0  0  0999 V2000
  192.3310  175.7920  136.7230 C   0  0  0  0  0  0  0  0  0  0  0  0
  192.3170  175.6180  138.2280 C   0  0  0  0  0  2  0  0  0  0  0  0
  191.2380  176.2540  136.0940 C   0  0  0  0  0  3  0  0  0  0  0  0
  189.9880  176.6200  136.8610 C   0  0  2  0  0  3  0  0  0  0  0  0
  191.4090  176.6170  138.8880 C   0  0  0  0  0  3  0  0  0  0  0  0
  190.3080  177.0630  138.2710 C   0  0  0  0  0  0  0  0  0  0  0  0
  189.1160  179.2380  138.1720 C   0  0  0  0  0  1  0  0  0  0  0  0
  188.2930  178.7230  140.8090 O   0  0  0  0  0  0  0  0  0  0  0  0
  189.0480  177.8680  140.2740 C   0  0  0  0  0  0  0  0  0  0  0  0
  189.4820  178.0390  138.9140 N   0  0  0  0  0  0  0  0  0  0  0  0
  189.5110  176.6930  141.0820 C   0  0  0  0  0  2  0  0  0  0  0  0
  189.6870  176.6750  143.5920 N   0  0  0  0  0  2  0  0  0  0  0  0
  190.1950  177.1240  142.3370 C   0  0  0  0  0  0  0  0  0  0  0  0
  191.1920  177.8920  142.2830 O   0  0  0  0  0  0  0  0  0  0  0  0
  190.3350  176.9940  144.8530 C   0  0  0  0  0  2  0  0  0  0  0  0
  187.9910  177.6240  145.4870 C   0  0  0  0  0  3  0  0  0  0  0  0
  188.7120  177.7600  148.1860 C   0  0  0  0  0  3  0  0  0  0  0  0
  185.6380  178.2730  146.0360 C   0  0  0  0  0  1  0  0  0  0  0  0
  187.0400  177.9770  146.4490 C   0  0  0  0  0  0  0  0  0  0  0  0
  189.6650  177.4110  147.2240 C   0  0  0  0  0  3  0  0  0  0  0  0
  189.3060  177.3420  145.8720 C   0  0  0  0  0  0  0  0  0  0  0  0
  187.3980  178.0440  147.7990 C   0  0  0  0  0  3  0  0  0  0  0  0
  188.9700  175.5200  136.8270 C   0  0  0  0  0  0  0  0  0  0  0  0
  189.5150  173.8050  136.7970 S   0  0  0  0  0  1  0  0  0  0  0  0
  187.6790  175.8810  136.9010 C   0  0  0  0  0  3  0  0  0  0  0  0
  186.5440  175.0030  136.8410 N   0  0  0  0  0  0  0  0  0  0  0  0
  185.3500  175.3160  137.2300 C   0  0  0  0  0  3  0  0  0  0  0  0
  184.2680  174.3840  137.1260 N   0  0  0  0  0  0  0  0  0  0  0  0
  180.4100  175.4050  138.5920 C   0  0  0  0  0  3  0  0  0  0  0  0
  181.8010  174.3030  136.9430 C   0  0  0  0  0  3  0  0  0  0  0  0
  182.9590  174.7280  137.6170 C   0  0  0  0  0  0  0  0  0  0  0  0
  182.8200  175.4990  138.7830 C   0  0  0  0  0  3  0  0  0  0  0  0
  181.5530  175.8370  139.2670 C   0  0  0  0  0  3  0  0  0  0  0  0
  180.5340  174.6400  137.4280 C   0  0  0  0  0  3  0  0  0  0  0  0
  184.5810  172.2220  137.5090 O   0  0  0  0  0  1  0  0  0  0  0  0
  184.4850  173.1370  136.5160 N   0  0  0  0  0  2  0  0  0  0  0  0
  193.5350  175.4440  135.9020 C   0  0  0  0  0  2  0  0  0  0  0  0
  194.7660  175.6130  136.6600 N   0  0  0  0  0  2  0  0  0  0  0  0
  195.5470  174.4670  136.4330 N   0  0  0  0  0  0  0  0  0  0  0  0
  197.0510  175.9800  135.2120 C   0  0  0  0  0  1  0  0  0  0  0  0
  196.3270  174.6410  135.2000 C   0  0  0  0  0  3  0  0  0  0  0  0
  197.3230  173.5080  134.9430 C   0  0  0  0  0  1  0  0  0  0  0  0
  196.4720  174.3310  137.5520 C   0  0  0  0  0  2  0  0  0  0  0  0
  196.2190  175.0120  139.8760 N   0  0  0  0  0  1  0  0  0  0  0  0
  195.7010  174.1250  138.8460 C   0  0  0  0  0  2  0  0  0  0  0  0
  1  2  1  0  0  0  0
  2  5  1  0  0  0  0
  3  1  2  0  0  0  0
  3  4  1  0  0  0  0
  4 23  1  1  0  0  0
  4  6  1  0  0  0  0
  6  5  2  0  0  0  0
  6 10  1  0  0  0  0
  7 10  1  0  0  0  0
  9  8  2  0  0  0  0
  9 11  1  0  0  0  0
 10  9  1  0  0  0  0
 11 13  1  0  0  0  0
 12 15  1  0  0  0  0
 13 12  1  0  0  0  0
 14 13  2  0  0  0  0
 15 21  1  0  0  0  0
 16 21  2  0  0  0  0
 16 19  1  0  0  0  0
 18 19  1  0  0  0  0
 19 22  2  0  0  0  0
 20 17  2  0  0  0  0
 21 20  1  0  0  0  0
 22 17  1  0  0  0  0
 23 25  2  0  0  0  0
 24 23  1  0  0  0  0
 26 25  1  0  0  0  0
 26 27  2  0  0  0  0
 28 27  1  0  0  0  0
 28 31  1  0  0  0  0
 29 33  1  0  0  0  0
 30 34  1  0  0  0  0
 30 31  2  0  0  0  0
 31 32  1  0  0  0  0
 32 33  2  0  0  0  0
 34 29  2  0  0  0  0
 36 28  1  0  0  0  0
 36 35  1  0  0  0  0
 37 38  1  0  0  0  0
 37  1  1  0  0  0  0
 39 38  1  0  0  0  0
 39 43  1  0  0  0  0
 41 40  1  0  0  0  0
 41 39  1  0  0  0  0
 42 41  1  0  0  0  0
 43 45  1  0  0  0  0
 45 44  1  0  0  0  0
M  END
>  <MODEL>
3

>  <REMARK>
 VINA RESULT:      -7.3      4.459      9.635
  Name = 
  15 active torsions:
  status: ('A' for Active; 'I' for Inactive)
    1  A    between atoms: C_1  and  C_8
    2  A    between atoms: N_3  and  C_21
    3  A    between atoms: C_6  and  C_40
    4  A    between atoms: C_8  and  N_33
    5  A    between atoms: N_11  and  C_35
    6  A    between atoms: N_14  and  N_32
    7  A    between atoms: C_17  and  N_32
    8  A    between atoms: N_19  and  C_30
    9  A    between atoms: N_19  and  N_33
   10  A    between atoms: N_19  and  C_37
   11  A    between atoms: C_21  and  C_42
   12  A    between atoms: C_23  and  C_39
   13  A    between atoms: C_26  and  C_37
   14  A    between atoms: C_28  and  C_39
   15  A    between atoms: N_31  and  C_43
                            x       y       z     vdW  Elec       q    Type
                         _______ _______ _______ _____ _____    ______ ____

>  <TORSDO>
F 15

$$$$
=
 OpenBabel10222416433D

 45 47  0  0  1  0  0  0  0  0999 V2000
  187.7650  177.2950  137.5080 C   0  0  0  0  0  0  0  0  0  0  0  0
  188.6020  178.5520  137.6280 C   0  0  0  0  0  2  0  0  0  0  0  0
  188.2840  176.1090  137.8650 C   0  0  0  0  0  3  0  0  0  0  0  0
  189.6920  176.0010  138.4030 C   0  0  2  0  0  3  0  0  0  0  0  0
  189.5880  178.4490  138.7580 C   0  0  0  0  0  3  0  0  0  0  0  0
  190.1220  177.2710  139.1030 C   0  0  0  0  0  0  0  0  0  0  0  0
  192.4310  177.5400  139.9730 C   0  0  0  0  0  1  0  0  0  0  0  0
  191.4080  176.7570  142.4710 O   0  0  0  0  0  0  0  0  0  0  0  0
  190.5960  176.7770  141.5070 C   0  0  0  0  0  0  0  0  0  0  0  0
  191.0330  177.2030  140.2050 N   0  0  0  0  0  0  0  0  0  0  0  0
  189.1850  176.3210  141.7290 C   0  0  0  0  0  2  0  0  0  0  0  0
  187.5940  176.7910  143.6190 N   0  0  0  0  0  2  0  0  0  0  0  0
  188.4210  177.2890  142.5690 C   0  0  0  0  0  0  0  0  0  0  0  0
  188.4900  178.5240  142.3340 O   0  0  0  0  0  0  0  0  0  0  0  0
  186.8720  177.6690  144.5240 C   0  0  0  0  0  2  0  0  0  0  0  0
  188.8800  177.2420  145.9650 C   0  0  0  0  0  3  0  0  0  0  0  0
  187.5560  178.2870  148.1960 C   0  0  0  0  0  3  0  0  0  0  0  0
  190.9130  176.7610  147.3410 C   0  0  0  0  0  1  0  0  0  0  0  0
  189.5200  177.2760  147.2080 C   0  0  0  0  0  0  0  0  0  0  0  0
  186.9130  178.2500  146.9550 C   0  0  0  0  0  3  0  0  0  0  0  0
  187.5740  177.7270  145.8360 C   0  0  0  0  0  0  0  0  0  0  0  0
  188.8600  177.7990  148.3230 C   0  0  0  0  0  3  0  0  0  0  0  0
  190.6640  175.5780  137.3430 C   0  0  0  0  0  0  0  0  0  0  0  0
  190.5100  176.2460  135.6790 S   0  0  0  0  0  1  0  0  0  0  0  0
  191.6650  174.7670  137.7210 C   0  0  0  0  0  3  0  0  0  0  0  0
  192.6750  174.2070  136.8680 N   0  0  0  0  0  0  0  0  0  0  0  0
  193.9490  174.3550  137.0410 C   0  0  0  0  0  3  0  0  0  0  0  0
  194.8940  173.7530  136.1490 N   0  0  0  0  0  0  0  0  0  0  0  0
  199.0640  174.4190  136.6430 C   0  0  0  0  0  3  0  0  0  0  0  0
  196.9790  173.4960  137.4590 C   0  0  0  0  0  3  0  0  0  0  0  0
  196.3060  173.9770  136.3220 C   0  0  0  0  0  0  0  0  0  0  0  0
  197.0350  174.6850  135.3530 C   0  0  0  0  0  3  0  0  0  0  0  0
  198.4060  174.9060  135.5120 C   0  0  0  0  0  3  0  0  0  0  0  0
  198.3500  173.7150  137.6180 C   0  0  0  0  0  3  0  0  0  0  0  0
  194.6890  171.6440  135.4940 O   0  0  0  0  0  1  0  0  0  0  0  0
  194.4360  172.9200  135.1160 N   0  0  0  0  0  2  0  0  0  0  0  0
  186.3640  177.3320  136.9780 C   0  0  0  0  0  2  0  0  0  0  0  0
  185.5670  178.3540  137.6420 N   0  0  0  0  0  2  0  0  0  0  0  0
  184.5290  177.6900  138.3170 N   0  0  0  0  0  0  0  0  0  0  0  0
  185.3560  178.8320  140.3300 C   0  0  0  0  0  1  0  0  0  0  0  0
  184.1340  178.4690  139.4980 C   0  0  0  0  0  3  0  0  0  0  0  0
  183.3350  179.7290  139.1590 C   0  0  0  0  0  1  0  0  0  0  0  0
  183.3900  177.6120  137.4100 C   0  0  0  0  0  2  0  0  0  0  0  0
  181.9050  175.9550  136.4210 N   0  0  0  0  0  1  0  0  0  0  0  0
  182.6350  176.3110  137.6270 C   0  0  0  0  0  2  0  0  0  0  0  0
  1  2  1  0  0  0  0
  1  3  2  0  0  0  0
  2  5  1  0  0  0  0
  3  4  1  0  0  0  0
  4 23  1  6  0  0  0
  4  6  1  0  0  0  0
  5  6  2  0  0  0  0
  6 10  1  0  0  0  0
  7 10  1  0  0  0  0
  9 11  1  0  0  0  0
  9  8  2  0  0  0  0
 10  9  1  0  0  0  0
 11 13  1  0  0  0  0
 12 15  1  0  0  0  0
 13 12  1  0  0  0  0
 14 13  2  0  0  0  0
 15 21  1  0  0  0  0
 16 19  1  0  0  0  0
 17 22  1  0  0  0  0
 19 18  1  0  0  0  0
 19 22  2  0  0  0  0
 20 17  2  0  0  0  0
 21 16  2  0  0  0  0
 21 20  1  0  0  0  0
 23 25  2  0  0  0  0
 24 23  1  0  0  0  0
 26 27  2  0  0  0  0
 26 25  1  0  0  0  0
 28 31  1  0  0  0  0
 28 27  1  0  0  0  0
 29 34  1  0  0  0  0
 30 34  2  0  0  0  0
 31 30  1  0  0  0  0
 32 33  1  0  0  0  0
 32 31  2  0  0  0  0
 33 29  2  0  0  0  0
 36 35  1  0  0  0  0
 36 28  1  0  0  0  0
 37  1  1  0  0  0  0
 37 38  1  0  0  0  0
 38 39  1  0  0  0  0
 39 41  1  0  0  0  0
 41 40  1  0  0  0  0
 42 41  1  0  0  0  0
 43 45  1  0  0  0  0
 43 39  1  0  0  0  0
 44 45  1  0  0  0  0
M  END
>  <MODEL>
4

>  <REMARK>
 VINA RESULT:      -7.3      4.766      7.930
  Name = 
  15 active torsions:
  status: ('A' for Active; 'I' for Inactive)
    1  A    between atoms: C_1  and  C_8
    2  A    between atoms: N_3  and  C_21
    3  A    between atoms: C_6  and  C_40
    4  A    between atoms: C_8  and  N_33
    5  A    between atoms: N_11  and  C_35
    6  A    between atoms: N_14  and  N_32
    7  A    between atoms: C_17  and  N_32
    8  A    between atoms: N_19  and  C_30
    9  A    between atoms: N_19  and  N_33
   10  A    between atoms: N_19  and  C_37
   11  A    between atoms: C_21  and  C_42
   12  A    between atoms: C_23  and  C_39
   13  A    between atoms: C_26  and  C_37
   14  A    between atoms: C_28  and  C_39
   15  A    between atoms: N_31  and  C_43
                            x       y       z     vdW  Elec       q    Type
                         _______ _______ _______ _____ _____    ______ ____

>  <TORSDO>
F 15

$$$$
=
 OpenBabel10222416433D

 45 47  0  0  1  0  0  0  0  0999 V2000
  186.1980  176.8480  136.1960 C   0  0  0  0  0  0  0  0  0  0  0  0
  186.8670  178.2030  136.0950 C   0  0  0  0  0  2  0  0  0  0  0  0
  186.7640  175.8760  136.9290 C   0  0  0  0  0  3  0  0  0  0  0  0
  188.0590  176.1100  137.6730 C   0  0  2  0  0  3  0  0  0  0  0  0
  187.6420  178.5270  137.3410 C   0  0  0  0  0  3  0  0  0  0  0  0
  188.2250  177.5620  138.0610 C   0  0  0  0  0  0  0  0  0  0  0  0
  190.3770  177.7410  139.2860 C   0  0  0  0  0  1  0  0  0  0  0  0
  188.8730  178.6830  141.4650 O   0  0  0  0  0  0  0  0  0  0  0  0
  188.2300  178.3560  140.4320 C   0  0  0  0  0  0  0  0  0  0  0  0
  188.9290  177.9020  139.2610 N   0  0  0  0  0  0  0  0  0  0  0  0
  186.7320  178.4180  140.4520 C   0  0  0  0  0  2  0  0  0  0  0  0
  186.4490  177.7170  142.8510 N   0  0  0  0  0  2  0  0  0  0  0  0
  186.2110  178.6800  141.8260 C   0  0  0  0  0  0  0  0  0  0  0  0
  185.5510  179.7260  142.0650 O   0  0  0  0  0  0  0  0  0  0  0  0
  186.0340  177.9280  144.2280 C   0  0  0  0  0  2  0  0  0  0  0  0
  187.0640  177.9410  146.5150 C   0  0  0  0  0  3  0  0  0  0  0  0
  189.5300  177.1500  145.4560 C   0  0  0  0  0  3  0  0  0  0  0  0
  188.0260  178.0030  148.8230 C   0  0  0  0  0  1  0  0  0  0  0  0
  188.1670  177.7700  147.3580 C   0  0  0  0  0  0  0  0  0  0  0  0
  188.4290  177.3250  144.6110 C   0  0  0  0  0  3  0  0  0  0  0  0
  187.1940  177.7200  145.1390 C   0  0  0  0  0  0  0  0  0  0  0  0
  189.4000  177.3740  146.8300 C   0  0  0  0  0  3  0  0  0  0  0  0
  189.2410  175.5840  136.9170 C   0  0  0  0  0  0  0  0  0  0  0  0
  189.7210  176.3610  135.3660 S   0  0  0  0  0  1  0  0  0  0  0  0
  189.9390  174.5900  137.4890 C   0  0  0  0  0  3  0  0  0  0  0  0
  191.0720  173.9110  136.9250 N   0  0  0  0  0  0  0  0  0  0  0  0
  192.3020  174.1250  137.2650 C   0  0  0  0  0  3  0  0  0  0  0  0
  193.3770  173.3960  136.6610 N   0  0  0  0  0  0  0  0  0  0  0  0
  197.4160  174.2580  137.6690 C   0  0  0  0  0  3  0  0  0  0  0  0
  195.1840  173.5960  138.3390 C   0  0  0  0  0  3  0  0  0  0  0  0
  194.7430  173.6870  137.0080 C   0  0  0  0  0  0  0  0  0  0  0  0
  195.6590  174.0720  136.0150 C   0  0  0  0  0  3  0  0  0  0  0  0
  196.9880  174.3560  136.3440 C   0  0  0  0  0  3  0  0  0  0  0  0
  196.5130  173.8790  138.6680 C   0  0  0  0  0  3  0  0  0  0  0  0
  193.5390  171.2160  136.2840 O   0  0  0  0  0  1  0  0  0  0  0  0
  193.0880  172.3720  135.7430 N   0  0  0  0  0  2  0  0  0  0  0  0
  184.9160  176.5480  135.4800 C   0  0  0  0  0  2  0  0  0  0  0  0
  183.8160  177.3540  135.9910 N   0  0  0  0  0  2  0  0  0  0  0  0
  183.0780  176.5340  136.8620 N   0  0  0  0  0  0  0  0  0  0  0  0
  183.5250  178.2790  138.5340 C   0  0  0  0  0  1  0  0  0  0  0  0
  183.4990  176.7850  138.2470 C   0  0  0  0  0  3  0  0  0  0  0  0
  182.6360  176.0640  139.2860 C   0  0  0  0  0  1  0  0  0  0  0  0
  181.6730  176.9010  136.7300 C   0  0  0  0  0  2  0  0  0  0  0  0
  180.7660  179.0490  136.0260 N   0  0  0  0  0  1  0  0  0  0  0  0
  181.4910  177.8720  135.5740 C   0  0  0  0  0  2  0  0  0  0  0  0
  1  3  2  0  0  0  0
  2  1  1  0  0  0  0
  2  5  1  0  0  0  0
  3  4  1  0  0  0  0
  4 23  1  6  0  0  0
  4  6  1  0  0  0  0
  5  6  2  0  0  0  0
  6 10  1  0  0  0  0
  9 11  1  0  0  0  0
  9  8  2  0  0  0  0
 10  7  1  0  0  0  0
 10  9  1  0  0  0  0
 11 13  1  0  0  0  0
 12 15  1  0  0  0  0
 13 14  2  0  0  0  0
 13 12  1  0  0  0  0
 15 21  1  0  0  0  0
 16 19  1  0  0  0  0
 17 22  1  0  0  0  0
 19 18  1  0  0  0  0
 20 21  1  0  0  0  0
 20 17  2  0  0  0  0
 21 16  2  0  0  0  0
 22 19  2  0  0  0  0
 23 25  2  0  0  0  0
 24 23  1  0  0  0  0
 26 27  2  0  0  0  0
 26 25  1  0  0  0  0
 28 31  1  0  0  0  0
 28 27  1  0  0  0  0
 29 34  1  0  0  0  0
 30 34  2  0  0  0  0
 31 30  1  0  0  0  0
 32 33  1  0  0  0  0
 32 31  2  0  0  0  0
 33 29  2  0  0  0  0
 36 35  1  0  0  0  0
 36 28  1  0  0  0  0
 37 38  1  0  0  0  0
 37  1  1  0  0  0  0
 38 39  1  0  0  0  0
 39 41  1  0  0  0  0
 41 40  1  0  0  0  0
 41 42  1  0  0  0  0
 43 39  1  0  0  0  0
 45 44  1  0  0  0  0
 45 43  1  0  0  0  0
M  END
>  <MODEL>
5

>  <REMARK>
 VINA RESULT:      -7.2      4.220      6.474
  Name = 
  15 active torsions:
  status: ('A' for Active; 'I' for Inactive)
    1  A    between atoms: C_1  and  C_8
    2  A    between atoms: N_3  and  C_21
    3  A    between atoms: C_6  and  C_40
    4  A    between atoms: C_8  and  N_33
    5  A    between atoms: N_11  and  C_35
    6  A    between atoms: N_14  and  N_32
    7  A    between atoms: C_17  and  N_32
    8  A    between atoms: N_19  and  C_30
    9  A    between atoms: N_19  and  N_33
   10  A    between atoms: N_19  and  C_37
   11  A    between atoms: C_21  and  C_42
   12  A    between atoms: C_23  and  C_39
   13  A    between atoms: C_26  and  C_37
   14  A    between atoms: C_28  and  C_39
   15  A    between atoms: N_31  and  C_43
                            x       y       z     vdW  Elec       q    Type
                         _______ _______ _______ _____ _____    ______ ____

>  <TORSDO>
F 15

$$$$
=
 OpenBabel10222416433D

 45 47  0  0  1  0  0  0  0  0999 V2000
  180.7170  175.4890  137.7930 C   0  0  0  0  0  0  0  0  0  0  0  0
  180.0820  176.5070  136.8670 C   0  0  0  0  0  2  0  0  0  0  0  0
  181.6440  175.8810  138.6820 C   0  0  0  0  0  3  0  0  0  0  0  0
  182.0610  177.3280  138.7920 C   0  0  2  0  0  3  0  0  0  0  0  0
  180.0120  177.8640  137.5090 C   0  0  0  0  0  3  0  0  0  0  0  0
  180.9460  178.2640  138.3800 C   0  0  0  0  0  0  0  0  0  0  0  0
  181.3970  180.7040  138.3120 C   0  0  0  0  0  1  0  0  0  0  0  0
  180.0890  180.8520  140.7950 O   0  0  0  0  0  0  0  0  0  0  0  0
  180.2090  179.7060  140.2850 C   0  0  0  0  0  0  0  0  0  0  0  0
  180.8320  179.5500  138.9990 N   0  0  0  0  0  0  0  0  0  0  0  0
  179.7250  178.5110  141.0500 C   0  0  0  0  0  2  0  0  0  0  0  0
  181.5310  178.8890  142.7590 N   0  0  0  0  0  2  0  0  0  0  0  0
  180.1750  178.5490  142.4720 C   0  0  0  0  0  0  0  0  0  0  0  0
  179.3730  178.2600  143.3990 O   0  0  0  0  0  0  0  0  0  0  0  0
  182.0300  179.0130  144.1190 C   0  0  0  0  0  2  0  0  0  0  0  0
  184.1740  178.6410  145.3660 C   0  0  0  0  0  3  0  0  0  0  0  0
  185.5530  178.2480  142.9640 C   0  0  0  0  0  3  0  0  0  0  0  0
  186.2770  178.3060  146.6790 C   0  0  0  0  0  1  0  0  0  0  0  0
  185.5490  178.3810  145.3800 C   0  0  0  0  0  0  0  0  0  0  0  0
  184.1800  178.5120  142.9470 C   0  0  0  0  0  3  0  0  0  0  0  0
  183.4880  178.7080  144.1490 C   0  0  0  0  0  0  0  0  0  0  0  0
  186.2380  178.1840  144.1800 C   0  0  0  0  0  3  0  0  0  0  0  0
  183.3350  177.6010  138.0500 C   0  0  0  0  0  0  0  0  0  0  0  0
  183.4720  177.1300  136.3180 S   0  0  0  0  0  1  0  0  0  0  0  0
  184.2970  178.2650  138.7100 C   0  0  0  0  0  3  0  0  0  0  0  0
  185.6030  178.5910  138.2110 N   0  0  0  0  0  0  0  0  0  0  0  0
  186.6450  177.8330  138.3290 C   0  0  0  0  0  3  0  0  0  0  0  0
  187.9140  178.2260  137.7930 N   0  0  0  0  0  0  0  0  0  0  0  0
  191.3440  175.7750  138.3380 C   0  0  0  0  0  3  0  0  0  0  0  0
  189.6680  177.2660  139.2510 C   0  0  0  0  0  3  0  0  0  0  0  0
  189.0760  177.3980  137.9830 C   0  0  0  0  0  0  0  0  0  0  0  0
  189.6390  176.7080  136.8970 C   0  0  0  0  0  3  0  0  0  0  0  0
  190.7670  175.9020  137.0730 C   0  0  0  0  0  3  0  0  0  0  0  0
  190.7950  176.4590  139.4270 C   0  0  0  0  0  3  0  0  0  0  0  0
  189.0420  180.1240  137.5790 O   0  0  0  0  0  1  0  0  0  0  0  0
  188.0130  179.4170  137.0550 N   0  0  0  0  0  2  0  0  0  0  0  0
  180.3520  174.0370  137.7330 C   0  0  0  0  0  2  0  0  0  0  0  0
  180.5110  173.5000  136.3890 N   0  0  0  0  0  2  0  0  0  0  0  0
  181.4970  172.5020  136.4620 N   0  0  0  0  0  0  0  0  0  0  0  0
  182.1420  170.2540  135.7040 C   0  0  0  0  0  1  0  0  0  0  0  0
  181.0520  171.3160  135.7160 C   0  0  0  0  0  3  0  0  0  0  0  0
  179.7440  170.7210  136.2410 C   0  0  0  0  0  1  0  0  0  0  0  0
  182.7020  173.0230  135.8270 C   0  0  0  0  0  2  0  0  0  0  0  0
  184.5760  172.2570  137.1800 N   0  0  0  0  0  1  0  0  0  0  0  0
  183.7280  173.4010  136.8830 C   0  0  0  0  0  2  0  0  0  0  0  0
  1  3  2  0  0  0  0
  2  5  1  0  0  0  0
  2  1  1  0  0  0  0
  3  4  1  0  0  0  0
  4 23  1  6  0  0  0
  5  6  2  0  0  0  0
  6  4  1  0  0  0  0
  6 10  1  0  0  0  0
  7 10  1  0  0  0  0
  9  8  2  0  0  0  0
  9 11  1  0  0  0  0
 10  9  1  0  0  0  0
 11 13  1  0  0  0  0
 12 15  1  0  0  0  0
 13 12  1  0  0  0  0
 13 14  2  0  0  0  0
 15 21  1  0  0  0  0
 16 19  1  0  0  0  0
 17 22  1  0  0  0  0
 19 18  1  0  0  0  0
 20 17  2  0  0  0  0
 20 21  1  0  0  0  0
 21 16  2  0  0  0  0
 22 19  2  0  0  0  0
 23 25  2  0  0  0  0
 24 23  1  0  0  0  0
 26 27  2  0  0  0  0
 26 25  1  0  0  0  0
 28 31  1  0  0  0  0
 28 27  1  0  0  0  0
 29 34  1  0  0  0  0
 30 34  2  0  0  0  0
 31 30  1  0  0  0  0
 32 33  1  0  0  0  0
 32 31  2  0  0  0  0
 33 29  2  0  0  0  0
 36 35  1  0  0  0  0
 36 28  1  0  0  0  0
 37  1  1  0  0  0  0
 38 39  1  0  0  0  0
 38 37  1  0  0  0  0
 40 41  1  0  0  0  0
 41 42  1  0  0  0  0
 41 39  1  0  0  0  0
 43 39  1  0  0  0  0
 43 45  1  0  0  0  0
 45 44  1  0  0  0  0
M  END
>  <MODEL>
6

>  <REMARK>
 VINA RESULT:      -7.0      1.477      2.218
  Name = 
  15 active torsions:
  status: ('A' for Active; 'I' for Inactive)
    1  A    between atoms: C_1  and  C_8
    2  A    between atoms: N_3  and  C_21
    3  A    between atoms: C_6  and  C_40
    4  A    between atoms: C_8  and  N_33
    5  A    between atoms: N_11  and  C_35
    6  A    between atoms: N_14  and  N_32
    7  A    between atoms: C_17  and  N_32
    8  A    between atoms: N_19  and  C_30
    9  A    between atoms: N_19  and  N_33
   10  A    between atoms: N_19  and  C_37
   11  A    between atoms: C_21  and  C_42
   12  A    between atoms: C_23  and  C_39
   13  A    between atoms: C_26  and  C_37
   14  A    between atoms: C_28  and  C_39
   15  A    between atoms: N_31  and  C_43
                            x       y       z     vdW  Elec       q    Type
                         _______ _______ _______ _____ _____    ______ ____

>  <TORSDO>
F 15

$$$$
=
 OpenBabel10222416433D

 45 47  0  0  1  0  0  0  0  0999 V2000
  186.0780  176.4520  136.4850 C   0  0  0  0  0  0  0  0  0  0  0  0
  186.5260  177.8920  136.3420 C   0  0  0  0  0  2  0  0  0  0  0  0
  186.8200  175.5890  137.1980 C   0  0  0  0  0  3  0  0  0  0  0  0
  188.0950  176.0280  137.8790 C   0  0  2  0  0  3  0  0  0  0  0  0
  187.2980  178.3490  137.5480 C   0  0  0  0  0  3  0  0  0  0  0  0
  188.0540  177.4940  138.2480 C   0  0  0  0  0  0  0  0  0  0  0  0
  190.2050  177.8740  139.4280 C   0  0  0  0  0  1  0  0  0  0  0  0
  188.6740  178.8860  141.5550 O   0  0  0  0  0  0  0  0  0  0  0  0
  188.0390  178.4540  140.5560 C   0  0  0  0  0  0  0  0  0  0  0  0
  188.7510  177.9550  139.4110 N   0  0  0  0  0  0  0  0  0  0  0  0
  186.5410  178.4370  140.5930 C   0  0  0  0  0  2  0  0  0  0  0  0
  186.2930  177.7960  143.0120 N   0  0  0  0  0  2  0  0  0  0  0  0
  186.0210  178.7220  141.9630 C   0  0  0  0  0  0  0  0  0  0  0  0
  185.3330  179.7550  142.1770 O   0  0  0  0  0  0  0  0  0  0  0  0
  185.8810  178.0330  144.3860 C   0  0  0  0  0  2  0  0  0  0  0  0
  188.3050  177.5270  144.7870 C   0  0  0  0  0  3  0  0  0  0  0  0
  187.9280  177.6990  147.5530 C   0  0  0  0  0  3  0  0  0  0  0  0
  190.7280  176.9910  145.1060 C   0  0  0  0  0  1  0  0  0  0  0  0
  189.3790  177.3080  145.6560 C   0  0  0  0  0  0  0  0  0  0  0  0
  186.8520  177.9120  146.6860 C   0  0  0  0  0  3  0  0  0  0  0  0
  187.0390  177.8270  145.3010 C   0  0  0  0  0  0  0  0  0  0  0  0
  189.1920  177.3950  147.0390 C   0  0  0  0  0  3  0  0  0  0  0  0
  189.3090  175.6790  137.0720 C   0  0  0  0  0  0  0  0  0  0  0  0
  189.6430  176.5640  135.5410 S   0  0  0  0  0  1  0  0  0  0  0  0
  190.1400  174.7580  137.5860 C   0  0  0  0  0  3  0  0  0  0  0  0
  191.3290  174.2430  136.9670 N   0  0  0  0  0  0  0  0  0  0  0  0
  192.5290  174.4180  137.4200 C   0  0  0  0  0  3  0  0  0  0  0  0
  193.6640  173.8610  136.7480 N   0  0  0  0  0  0  0  0  0  0  0  0
  197.5920  174.6030  138.1960 C   0  0  0  0  0  3  0  0  0  0  0  0
  195.9990  174.5880  136.3710 C   0  0  0  0  0  3  0  0  0  0  0  0
  194.9960  174.1130  137.2330 C   0  0  0  0  0  0  0  0  0  0  0  0
  195.3140  173.8840  138.5820 C   0  0  0  0  0  3  0  0  0  0  0  0
  196.6040  174.1270  139.0610 C   0  0  0  0  0  3  0  0  0  0  0  0
  197.2900  174.8320  136.8500 C   0  0  0  0  0  3  0  0  0  0  0  0
  193.3600  171.7700  136.0730 O   0  0  0  0  0  1  0  0  0  0  0  0
  193.4690  173.0420  135.6230 N   0  0  0  0  0  2  0  0  0  0  0  0
  184.8270  175.9490  135.8320 C   0  0  0  0  0  2  0  0  0  0  0  0
  183.7420  176.9140  135.9390 N   0  0  0  0  0  2  0  0  0  0  0  0
  182.9620  176.5320  137.0430 N   0  0  0  0  0  0  0  0  0  0  0  0
  182.2190  178.6190  138.1070 C   0  0  0  0  0  1  0  0  0  0  0  0
  183.2020  177.4580  138.1580 C   0  0  0  0  0  3  0  0  0  0  0  0
  183.1510  176.7850  139.5320 C   0  0  0  0  0  1  0  0  0  0  0  0
  181.5610  176.6320  136.6510 C   0  0  0  0  0  2  0  0  0  0  0  0
  181.8220  174.3010  137.3050 N   0  0  0  0  0  1  0  0  0  0  0  0
  180.8910  175.2700  136.7500 C   0  0  0  0  0  2  0  0  0  0  0  0
  1  3  2  0  0  0  0
  2  1  1  0  0  0  0
  2  5  1  0  0  0  0
  3  4  1  0  0  0  0
  4 23  1  6  0  0  0
  4  6  1  0  0  0  0
  5  6  2  0  0  0  0
  6 10  1  0  0  0  0
  9 11  1  0  0  0  0
  9  8  2  0  0  0  0
 10  7  1  0  0  0  0
 10  9  1  0  0  0  0
 11 13  1  0  0  0  0
 12 15  1  0  0  0  0
 13 14  2  0  0  0  0
 13 12  1  0  0  0  0
 15 21  1  0  0  0  0
 16 21  2  0  0  0  0
 16 19  1  0  0  0  0
 18 19  1  0  0  0  0
 19 22  2  0  0  0  0
 20 17  2  0  0  0  0
 21 20  1  0  0  0  0
 22 17  1  0  0  0  0
 23 25  2  0  0  0  0
 24 23  1  0  0  0  0
 26 27  2  0  0  0  0
 26 25  1  0  0  0  0
 28 31  1  0  0  0  0
 28 27  1  0  0  0  0
 29 33  1  0  0  0  0
 30 34  1  0  0  0  0
 30 31  2  0  0  0  0
 31 32  1  0  0  0  0
 32 33  2  0  0  0  0
 34 29  2  0  0  0  0
 36 35  1  0  0  0  0
 36 28  1  0  0  0  0
 37 38  1  0  0  0  0
 37  1  1  0  0  0  0
 38 39  1  0  0  0  0
 39 41  1  0  0  0  0
 40 41  1  0  0  0  0
 41 42  1  0  0  0  0
 43 45  1  0  0  0  0
 43 39  1  0  0  0  0
 45 44  1  0  0  0  0
M  END
>  <MODEL>
7

>  <REMARK>
 VINA RESULT:      -7.0      4.098      6.283
  Name = 
  15 active torsions:
  status: ('A' for Active; 'I' for Inactive)
    1  A    between atoms: C_1  and  C_8
    2  A    between atoms: N_3  and  C_21
    3  A    between atoms: C_6  and  C_40
    4  A    between atoms: C_8  and  N_33
    5  A    between atoms: N_11  and  C_35
    6  A    between atoms: N_14  and  N_32
    7  A    between atoms: C_17  and  N_32
    8  A    between atoms: N_19  and  C_30
    9  A    between atoms: N_19  and  N_33
   10  A    between atoms: N_19  and  C_37
   11  A    between atoms: C_21  and  C_42
   12  A    between atoms: C_23  and  C_39
   13  A    between atoms: C_26  and  C_37
   14  A    between atoms: C_28  and  C_39
   15  A    between atoms: N_31  and  C_43
                            x       y       z     vdW  Elec       q    Type
                         _______ _______ _______ _____ _____    ______ ____

>  <TORSDO>
F 15

$$$$
=
 OpenBabel10222416433D

 45 47  0  0  1  0  0  0  0  0999 V2000
  181.8510  176.1070  137.4160 C   0  0  0  0  0  0  0  0  0  0  0  0
  181.5790  177.2850  136.5030 C   0  0  0  0  0  2  0  0  0  0  0  0
  182.3290  176.3180  138.6540 C   0  0  0  0  0  3  0  0  0  0  0  0
  182.5900  177.7150  139.1650 C   0  0  2  0  0  3  0  0  0  0  0  0
  181.1880  178.5070  137.2850 C   0  0  0  0  0  3  0  0  0  0  0  0
  181.6790  178.7290  138.5090 C   0  0  0  0  0  0  0  0  0  0  0  0
  181.3210  181.1840  138.5810 C   0  0  0  0  0  1  0  0  0  0  0  0
  180.4270  180.8150  141.2190 O   0  0  0  0  0  0  0  0  0  0  0  0
  180.8230  179.7880  140.6060 C   0  0  0  0  0  0  0  0  0  0  0  0
  181.2600  179.8870  139.2400 N   0  0  0  0  0  0  0  0  0  0  0  0
  180.8640  178.4750  141.3290 C   0  0  0  0  0  2  0  0  0  0  0  0
  182.4630  178.8680  143.2300 N   0  0  0  0  0  2  0  0  0  0  0  0
  181.1230  178.6570  142.7870 C   0  0  0  0  0  0  0  0  0  0  0  0
  180.1730  178.6010  143.6120 O   0  0  0  0  0  0  0  0  0  0  0  0
  182.7910  179.1210  144.6230 C   0  0  0  0  0  2  0  0  0  0  0  0
  185.0350  178.3140  143.8480 C   0  0  0  0  0  3  0  0  0  0  0  0
  185.9510  178.1920  146.4890 C   0  0  0  0  0  3  0  0  0  0  0  0
  187.2380  177.4870  142.9990 C   0  0  0  0  0  1  0  0  0  0  0  0
  186.3370  177.8780  144.1200 C   0  0  0  0  0  0  0  0  0  0  0  0
  184.6480  178.6220  146.2190 C   0  0  0  0  0  3  0  0  0  0  0  0
  184.1880  178.6850  144.8980 C   0  0  0  0  0  0  0  0  0  0  0  0
  186.7960  177.8180  145.4390 C   0  0  0  0  0  3  0  0  0  0  0  0
  184.0360  178.0920  139.0500 C   0  0  0  0  0  0  0  0  0  0  0  0
  184.8260  179.0030  140.3860 S   0  0  0  0  0  1  0  0  0  0  0  0
  184.6980  177.6530  137.9670 C   0  0  0  0  0  3  0  0  0  0  0  0
  186.0660  177.9310  137.6350 N   0  0  0  0  0  0  0  0  0  0  0  0
  187.0130  177.0490  137.6140 C   0  0  0  0  0  3  0  0  0  0  0  0
  188.3540  177.4060  137.2600 N   0  0  0  0  0  0  0  0  0  0  0  0
  191.4720  174.5190  137.3780 C   0  0  0  0  0  3  0  0  0  0  0  0
  189.1790  175.1070  136.8660 C   0  0  0  0  0  3  0  0  0  0  0  0
  189.4060  176.4240  137.2990 C   0  0  0  0  0  0  0  0  0  0  0  0
  190.6810  176.7710  137.7750 C   0  0  0  0  0  3  0  0  0  0  0  0
  191.7080  175.8240  137.8150 C   0  0  0  0  0  3  0  0  0  0  0  0
  190.2060  174.1590  136.9050 C   0  0  0  0  0  3  0  0  0  0  0  0
  189.0130  179.4080  137.9500 O   0  0  0  0  0  1  0  0  0  0  0  0
  188.6330  178.7200  136.8480 N   0  0  0  0  0  2  0  0  0  0  0  0
  181.6190  174.6960  136.9710 C   0  0  0  0  0  2  0  0  0  0  0  0
  182.5970  173.7840  137.5480 N   0  0  0  0  0  2  0  0  0  0  0  0
  183.4780  173.4220  136.5160 N   0  0  0  0  0  0  0  0  0  0  0  0
  185.6850  173.2910  137.5890 C   0  0  0  0  0  1  0  0  0  0  0  0
  184.7620  174.1120  136.7000 C   0  0  0  0  0  3  0  0  0  0  0  0
  185.4650  174.4560  135.3850 C   0  0  0  0  0  1  0  0  0  0  0  0
  183.7060  171.9850  136.6120 C   0  0  0  0  0  2  0  0  0  0  0  0
  181.7950  170.8080  135.6680 N   0  0  0  0  0  1  0  0  0  0  0  0
  182.4000  171.2660  136.9090 C   0  0  0  0  0  2  0  0  0  0  0  0
  1  3  2  0  0  0  0
  2  5  1  0  0  0  0
  2  1  1  0  0  0  0
  3  4  1  0  0  0  0
  4 23  1  6  0  0  0
  5  6  2  0  0  0  0
  6  4  1  0  0  0  0
  6 10  1  0  0  0  0
  7 10  1  0  0  0  0
  9  8  2  0  0  0  0
  9 11  1  0  0  0  0
 10  9  1  0  0  0  0
 11 13  1  0  0  0  0
 12 15  1  0  0  0  0
 13 12  1  0  0  0  0
 13 14  2  0  0  0  0
 15 21  1  0  0  0  0
 16 19  2  0  0  0  0
 16 21  1  0  0  0  0
 18 19  1  0  0  0  0
 19 22  1  0  0  0  0
 20 17  1  0  0  0  0
 21 20  2  0  0  0  0
 22 17  2  0  0  0  0
 23 24  1  0  0  0  0
 25 23  2  0  0  0  0
 26 25  1  0  0  0  0
 27 26  2  0  0  0  0
 28 31  1  0  0  0  0
 28 27  1  0  0  0  0
 29 33  1  0  0  0  0
 30 34  1  0  0  0  0
 30 31  2  0  0  0  0
 31 32  1  0  0  0  0
 32 33  2  0  0  0  0
 34 29  2  0  0  0  0
 36 28  1  0  0  0  0
 36 35  1  0  0  0  0
 37  1  1  0  0  0  0
 37 38  1  0  0  0  0
 39 43  1  0  0  0  0
 39 41  1  0  0  0  0
 39 38  1  0  0  0  0
 41 40  1  0  0  0  0
 42 41  1  0  0  0  0
 43 45  1  0  0  0  0
 44 45  1  0  0  0  0
M  END
>  <MODEL>
8

>  <REMARK>
 VINA RESULT:      -6.9      1.625      2.381
  Name = 
  15 active torsions:
  status: ('A' for Active; 'I' for Inactive)
    1  A    between atoms: C_1  and  C_8
    2  A    between atoms: N_3  and  C_21
    3  A    between atoms: C_6  and  C_40
    4  A    between atoms: C_8  and  N_33
    5  A    between atoms: N_11  and  C_35
    6  A    between atoms: N_14  and  N_32
    7  A    between atoms: C_17  and  N_32
    8  A    between atoms: N_19  and  C_30
    9  A    between atoms: N_19  and  N_33
   10  A    between atoms: N_19  and  C_37
   11  A    between atoms: C_21  and  C_42
   12  A    between atoms: C_23  and  C_39
   13  A    between atoms: C_26  and  C_37
   14  A    between atoms: C_28  and  C_39
   15  A    between atoms: N_31  and  C_43
                            x       y       z     vdW  Elec       q    Type
                         _______ _______ _______ _____ _____    ______ ____

>  <TORSDO>
F 15

$$$$
=
 OpenBabel10222416433D

 45 47  0  0  1  0  0  0  0  0999 V2000
  184.1440  178.5610  138.8600 C   0  0  0  0  0  0  0  0  0  0  0  0
  184.0450  177.0680  138.6280 C   0  0  0  0  0  2  0  0  0  0  0  0
  185.2460  179.2250  138.4750 C   0  0  0  0  0  3  0  0  0  0  0  0
  186.3920  178.5130  137.7960 C   0  0  2  0  0  3  0  0  0  0  0  0
  184.8100  176.6500  137.4040 C   0  0  0  0  0  3  0  0  0  0  0  0
  185.9200  177.2980  137.0300 C   0  0  0  0  0  0  0  0  0  0  0  0
  186.4980  177.7340  134.6560 C   0  0  0  0  0  1  0  0  0  0  0  0
  187.9890  175.3540  134.7490 O   0  0  0  0  0  0  0  0  0  0  0  0
  187.3630  175.6720  135.7950 C   0  0  0  0  0  0  0  0  0  0  0  0
  186.6080  176.8950  135.8410 N   0  0  0  0  0  0  0  0  0  0  0  0
  187.3910  174.7460  136.9740 C   0  0  0  0  0  2  0  0  0  0  0  0
  185.3770  173.2740  137.2930 N   0  0  0  0  0  2  0  0  0  0  0  0
  186.6550  173.4780  136.6950 C   0  0  0  0  0  0  0  0  0  0  0  0
  187.1710  172.5950  135.9590 O   0  0  0  0  0  0  0  0  0  0  0  0
  184.5680  172.0980  137.0180 C   0  0  0  0  0  2  0  0  0  0  0  0
  182.7950  173.8280  136.6240 C   0  0  0  0  0  3  0  0  0  0  0  0
  180.7900  171.8940  136.8750 C   0  0  0  0  0  3  0  0  0  0  0  0
  181.0860  175.6160  136.2490 C   0  0  0  0  0  1  0  0  0  0  0  0
  181.4500  174.1940  136.5110 C   0  0  0  0  0  0  0  0  0  0  0  0
  182.1340  171.5280  136.9930 C   0  0  0  0  0  3  0  0  0  0  0  0
  183.1400  172.4940  136.8670 C   0  0  0  0  0  0  0  0  0  0  0  0
  180.4470  173.2280  136.6350 C   0  0  0  0  0  3  0  0  0  0  0  0
  187.4950  178.1870  138.7580 C   0  0  0  0  0  0  0  0  0  0  0  0
  189.1440  177.8310  138.1300 S   0  0  0  0  0  1  0  0  0  0  0  0
  187.2050  178.2540  140.0660 C   0  0  0  0  0  3  0  0  0  0  0  0
  188.0900  177.9410  141.1520 N   0  0  0  0  0  0  0  0  0  0  0  0
  187.7470  177.9260  142.4000 C   0  0  0  0  0  3  0  0  0  0  0  0
  188.6900  177.5920  143.4250 N   0  0  0  0  0  0  0  0  0  0  0  0
  187.5440  177.7290  147.5170 C   0  0  0  0  0  3  0  0  0  0  0  0
  189.2680  177.5110  145.8300 C   0  0  0  0  0  3  0  0  0  0  0  0
  188.3080  177.6370  144.8130 C   0  0  0  0  0  0  0  0  0  0  0  0
  186.9600  177.8050  145.1700 C   0  0  0  0  0  3  0  0  0  0  0  0
  186.5800  177.8510  146.5140 C   0  0  0  0  0  3  0  0  0  0  0  0
  188.8890  177.5570  147.1750 C   0  0  0  0  0  3  0  0  0  0  0  0
  189.9440  175.8600  142.8370 O   0  0  0  0  0  1  0  0  0  0  0  0
  189.9890  177.1930  143.0670 N   0  0  0  0  0  2  0  0  0  0  0  0
  183.0450  179.3280  139.5310 C   0  0  0  0  0  2  0  0  0  0  0  0
  182.2080  178.4600  140.3470 N   0  0  0  0  0  2  0  0  0  0  0  0
  180.8830  178.8970  140.1840 N   0  0  0  0  0  0  0  0  0  0  0  0
  179.2330  177.9690  138.6170 C   0  0  0  0  0  1  0  0  0  0  0  0
  180.0170  177.7450  139.9020 C   0  0  0  0  0  3  0  0  0  0  0  0
  180.7720  176.4160  139.8320 C   0  0  0  0  0  1  0  0  0  0  0  0
  180.4580  179.5010  141.4420 C   0  0  0  0  0  2  0  0  0  0  0  0
  179.6600  178.2430  143.3680 N   0  0  0  0  0  1  0  0  0  0  0  0
  180.8460  178.6070  142.6090 C   0  0  0  0  0  2  0  0  0  0  0  0
  1 37  1  0  0  0  0
  2  1  1  0  0  0  0
  3  1  2  0  0  0  0
  4  3  1  0  0  0  0
  4 23  1  1  0  0  0
  5  2  1  0  0  0  0
  6  5  2  0  0  0  0
  6  4  1  0  0  0  0
  7 10  1  0  0  0  0
  8  9  2  0  0  0  0
  9 10  1  0  0  0  0
  9 11  1  0  0  0  0
 10  6  1  0  0  0  0
 13 11  1  0  0  0  0
 13 12  1  0  0  0  0
 14 13  2  0  0  0  0
 15 12  1  0  0  0  0
 16 21  1  0  0  0  0
 17 20  1  0  0  0  0
 18 19  1  0  0  0  0
 19 16  2  0  0  0  0
 19 22  1  0  0  0  0
 21 20  2  0  0  0  0
 21 15  1  0  0  0  0
 22 17  2  0  0  0  0
 23 25  2  0  0  0  0
 24 23  1  0  0  0  0
 25 26  1  0  0  0  0
 26 27  2  0  0  0  0
 27 28  1  0  0  0  0
 28 31  1  0  0  0  0
 30 34  2  0  0  0  0
 31 32  2  0  0  0  0
 31 30  1  0  0  0  0
 32 33  1  0  0  0  0
 33 29  2  0  0  0  0
 34 29  1  0  0  0  0
 35 36  1  0  0  0  0
 36 28  1  0  0  0  0
 37 38  1  0  0  0  0
 39 38  1  0  0  0  0
 39 43  1  0  0  0  0
 40 41  1  0  0  0  0
 41 39  1  0  0  0  0
 42 41  1  0  0  0  0
 43 45  1  0  0  0  0
 45 44  1  0  0  0  0
M  END
>  <MODEL>
9

>  <REMARK>
 VINA RESULT:      -6.7      3.467      7.549
  Name = 
  15 active torsions:
  status: ('A' for Active; 'I' for Inactive)
    1  A    between atoms: C_1  and  C_8
    2  A    between atoms: N_3  and  C_21
    3  A    between atoms: C_6  and  C_40
    4  A    between atoms: C_8  and  N_33
    5  A    between atoms: N_11  and  C_35
    6  A    between atoms: N_14  and  N_32
    7  A    between atoms: C_17  and  N_32
    8  A    between atoms: N_19  and  C_30
    9  A    between atoms: N_19  and  N_33
   10  A    between atoms: N_19  and  C_37
   11  A    between atoms: C_21  and  C_42
   12  A    between atoms: C_23  and  C_39
   13  A    between atoms: C_26  and  C_37
   14  A    between atoms: C_28  and  C_39
   15  A    between atoms: N_31  and  C_43
                            x       y       z     vdW  Elec       q    Type
                         _______ _______ _______ _____ _____    ______ ____

>  <TORSDO>
F 15

$$$$
