=
 OpenBabel10222417393D

 30 32  0  0  1  0  0  0  0  0999 V2000
  189.9260  177.9210  145.4740 C   0  0  0  0  0  2  0  0  0  0  0  0
  191.6220  176.2350  145.8930 C   0  0  0  0  0  0  0  0  0  0  0  0
  192.1810  175.4250  146.7500 C   0  0  0  0  0  3  0  0  0  0  0  0
  191.0540  177.0430  145.0380 C   0  0  0  0  0  0  0  0  0  0  0  0
  192.4520  175.8700  148.1450 C   0  0  0  0  0  3  0  0  0  0  0  0
  191.9340  177.1360  148.3310 F   0  0  0  0  0  0  0  0  0  0  0  0
  193.8160  175.8950  148.3770 F   0  0  0  0  0  0  0  0  0  0  0  0
  191.6600  177.2290  143.6880 C   0  0  0  0  0  2  0  0  0  0  0  0
  190.7870  178.1090  142.8040 C   0  0  0  0  0  2  0  0  0  0  0  0
  191.0260  177.8350  141.4540 O   0  0  0  0  0  0  0  0  0  0  0  0
  190.0110  176.9510  141.0760 C   0  0  0  0  0  3  0  0  0  0  0  0
  188.1780  178.6690  140.9530 C   0  0  0  0  0  2  0  0  0  0  0  0
  189.9350  176.8640  139.5500 C   0  0  0  0  0  2  0  0  0  0  0  0
  188.6670  177.4030  141.6570 C   0  0  0  0  0  2  0  0  0  0  0  0
  188.0480  178.4250  139.5170 N   0  0  0  0  0  2  0  0  0  0  0  0
  189.3770  178.1630  138.9700 C   0  0  0  0  0  2  0  0  0  0  0  0
  188.6750  177.1000  145.7180 C   0  0  0  0  0  2  0  0  0  0  0  0
  188.4750  176.9590  147.0920 O   0  0  0  0  0  0  0  0  0  0  0  0
  187.5190  177.9270  147.4140 C   0  0  0  0  0  2  0  0  0  0  0  0
  186.3670  177.8800  146.4230 C   0  0  0  0  0  2  0  0  0  0  0  0
  185.6510  179.2150  146.3810 C   0  0  0  0  0  2  0  0  0  0  0  0
  184.2960  179.0070  146.1180 O   0  0  0  0  0  0  0  0  0  0  0  0
  184.8800  179.1070  142.5360 C   0  0  0  0  0  3  0  0  0  0  0  0
  180.6930  178.9170  143.5540 N   0  0  0  0  0  1  0  0  0  0  0  0
  183.9400  178.7480  141.6190 C   0  0  0  0  0  3  0  0  0  0  0  0
  182.4680  178.7110  141.9200 C   0  0  0  0  0  3  0  0  0  0  0  0
  184.5230  179.5670  143.9390 C   0  0  1  0  0  3  0  0  0  0  0  0
  182.0630  178.9220  143.1720 C   0  0  0  0  0  0  0  0  0  0  0  0
  183.1030  179.1630  144.0910 N   0  0  0  0  0  0  0  0  0  0  0  0
  184.2600  178.5390  144.8050 C   0  0  2  0  0  3  0  0  0  0  0  0
  1 17  1  0  0  0  0
  2  3  2  0  0  0  0
  3  5  1  0  0  0  0
  4  1  1  0  0  0  0
  4  2  2  0  0  0  0
  5  6  1  0  0  0  0
  5  7  1  0  0  0  0
  8  4  1  0  0  0  0
  9  8  1  0  0  0  0
 10  9  1  0  0  0  0
 11 10  1  0  0  0  0
 11 14  1  0  0  0  0
 12 14  1  0  0  0  0
 13 11  1  0  0  0  0
 15 12  1  0  0  0  0
 16 15  1  0  0  0  0
 16 13  1  0  0  0  0
 17 18  1  0  0  0  0
 18 19  1  0  0  0  0
 20 19  1  0  0  0  0
 21 20  1  0  0  0  0
 22 21  1  0  0  0  0
 25 26  1  0  0  0  0
 25 23  2  0  0  0  0
 26 28  2  0  0  0  0
 27 23  1  6  0  0  0
 27 29  1  0  0  0  0
 27 30  1  0  0  0  0
 28 24  1  0  0  0  0
 28 29  1  0  0  0  0
 29 30  1  0  0  0  0
 30 22  1  1  0  0  0
M  END
>  <MODEL>
1

>  <REMARK>
 VINA RESULT:      -7.5      0.000      0.000
  Name = 
  13 active torsions:
  status: ('A' for Active; 'I' for Inactive)
    1  A    between atoms: O_3  and  C_23
    2  A    between atoms: O_3  and  C_26
    3  A    between atoms: O_6  and  C_10
    4  A    between atoms: O_6  and  C_15
    5  A    between atoms: C_8  and  O_9
    6  A    between atoms: O_9  and  C_18
    7  A    between atoms: C_10  and  C_21
    8  A    between atoms: C_12  and  C_15
    9  A    between atoms: C_12  and  C_30
   10  A    between atoms: C_18  and  C_22
   11  A    between atoms: C_21  and  C_23
   12  A    between atoms: C_22  and  C_30
   13  A    between atoms: C_24  and  C_29
                            x       y       z     vdW  Elec       q    Type
                         _______ _______ _______ _____ _____    ______ ____

>  <TORSDO>
F 13

$$$$
=
 OpenBabel10222417393D

 30 32  0  0  1  0  0  0  0  0999 V2000
  186.9820  177.1950  143.1670 C   0  0  0  0  0  2  0  0  0  0  0  0
  185.4950  178.6110  144.4600 C   0  0  0  0  0  0  0  0  0  0  0  0
  185.2670  179.2310  145.5860 C   0  0  0  0  0  3  0  0  0  0  0  0
  185.7310  177.9940  143.3340 C   0  0  0  0  0  0  0  0  0  0  0  0
  185.5750  178.5740  146.8860 C   0  0  0  0  0  3  0  0  0  0  0  0
  186.4670  179.3560  147.5950 F   0  0  0  0  0  0  0  0  0  0  0  0
  186.1340  177.3280  146.6670 F   0  0  0  0  0  0  0  0  0  0  0  0
  184.6620  177.9270  142.2950 C   0  0  0  0  0  2  0  0  0  0  0  0
  184.7970  179.0590  141.2860 C   0  0  0  0  0  2  0  0  0  0  0  0
  183.5910  179.2540  140.6060 O   0  0  0  0  0  0  0  0  0  0  0  0
  183.9580  179.6100  139.3050 C   0  0  0  0  0  3  0  0  0  0  0  0
  183.4290  177.3880  138.2510 C   0  0  0  0  0  2  0  0  0  0  0  0
  182.7490  180.1730  138.5560 C   0  0  0  0  0  2  0  0  0  0  0  0
  184.5330  178.3990  138.5650 C   0  0  0  0  0  2  0  0  0  0  0  0
  182.3860  178.0210  137.4450 N   0  0  0  0  0  2  0  0  0  0  0  0
  181.7470  179.0600  138.2500 C   0  0  0  0  0  2  0  0  0  0  0  0
  187.9140  177.8650  142.1750 C   0  0  0  0  0  2  0  0  0  0  0  0
  188.7660  176.9090  141.6220 O   0  0  0  0  0  0  0  0  0  0  0  0
  189.6140  177.6310  140.7790 C   0  0  0  0  0  2  0  0  0  0  0  0
  191.0590  177.2200  141.0070 C   0  0  0  0  0  2  0  0  0  0  0  0
  191.5520  177.7380  142.3440 C   0  0  0  0  0  2  0  0  0  0  0  0
  191.9020  176.6610  143.1580 O   0  0  0  0  0  0  0  0  0  0  0  0
  189.4530  178.0260  145.4640 C   0  0  0  0  0  3  0  0  0  0  0  0
  192.6080  175.8600  147.4500 N   0  0  0  0  0  1  0  0  0  0  0  0
  189.3220  177.5980  146.7500 C   0  0  0  0  0  3  0  0  0  0  0  0
  190.4120  176.8790  147.4920 C   0  0  0  0  0  3  0  0  0  0  0  0
  190.7420  177.8710  144.6750 C   0  0  1  0  0  3  0  0  0  0  0  0
  191.5180  176.5330  146.8340 C   0  0  0  0  0  0  0  0  0  0  0  0
  191.5280  176.8990  145.4730 N   0  0  0  0  0  0  0  0  0  0  0  0
  190.9110  176.6220  144.1380 C   0  0  2  0  0  3  0  0  0  0  0  0
  1  4  1  0  0  0  0
  2  3  2  0  0  0  0
  3  5  1  0  0  0  0
  4  2  2  0  0  0  0
  5  6  1  0  0  0  0
  7  5  1  0  0  0  0
  8  4  1  0  0  0  0
  9  8  1  0  0  0  0
 10  9  1  0  0  0  0
 11 10  1  0  0  0  0
 12 14  1  0  0  0  0
 13 11  1  0  0  0  0
 14 11  1  0  0  0  0
 15 16  1  0  0  0  0
 15 12  1  0  0  0  0
 16 13  1  0  0  0  0
 17  1  1  0  0  0  0
 18 17  1  0  0  0  0
 19 20  1  0  0  0  0
 19 18  1  0  0  0  0
 20 21  1  0  0  0  0
 21 22  1  0  0  0  0
 23 25  2  0  0  0  0
 25 26  1  0  0  0  0
 27 23  1  1  0  0  0
 27 29  1  0  0  0  0
 28 24  1  0  0  0  0
 28 26  2  0  0  0  0
 29 28  1  0  0  0  0
 30 22  1  6  0  0  0
 30 27  1  0  0  0  0
 30 29  1  0  0  0  0
M  END
>  <MODEL>
2

>  <REMARK>
 VINA RESULT:      -7.5      3.527      7.355
  Name = 
  13 active torsions:
  status: ('A' for Active; 'I' for Inactive)
    1  A    between atoms: O_3  and  C_23
    2  A    between atoms: O_3  and  C_26
    3  A    between atoms: O_6  and  C_10
    4  A    between atoms: O_6  and  C_15
    5  A    between atoms: C_8  and  O_9
    6  A    between atoms: O_9  and  C_18
    7  A    between atoms: C_10  and  C_21
    8  A    between atoms: C_12  and  C_15
    9  A    between atoms: C_12  and  C_30
   10  A    between atoms: C_18  and  C_22
   11  A    between atoms: C_21  and  C_23
   12  A    between atoms: C_22  and  C_30
   13  A    between atoms: C_24  and  C_29
                            x       y       z     vdW  Elec       q    Type
                         _______ _______ _______ _____ _____    ______ ____

>  <TORSDO>
F 13

$$$$
=
 OpenBabel10222417393D

 30 32  0  0  1  0  0  0  0  0999 V2000
  186.6740  178.1090  142.6270 C   0  0  0  0  0  2  0  0  0  0  0  0
  184.8080  178.6460  144.0830 C   0  0  0  0  0  0  0  0  0  0  0  0
  184.4070  179.0060  145.2720 C   0  0  0  0  0  3  0  0  0  0  0  0
  185.2160  178.2920  142.8940 C   0  0  0  0  0  0  0  0  0  0  0  0
  185.0320  178.4210  146.4900 C   0  0  0  0  0  3  0  0  0  0  0  0
  185.9380  179.3190  147.0170 F   0  0  0  0  0  0  0  0  0  0  0  0
  185.6870  177.2450  146.1680 F   0  0  0  0  0  0  0  0  0  0  0  0
  184.2150  177.8810  141.8660 C   0  0  0  0  0  2  0  0  0  0  0  0
  183.3560  179.0590  141.4250 C   0  0  0  0  0  2  0  0  0  0  0  0
  182.0060  178.8010  141.6780 O   0  0  0  0  0  0  0  0  0  0  0  0
  181.5730  178.0270  140.5980 C   0  0  0  0  0  3  0  0  0  0  0  0
  179.1150  178.4440  140.9240 C   0  0  0  0  0  2  0  0  0  0  0  0
  181.4810  178.8910  139.3390 C   0  0  0  0  0  2  0  0  0  0  0  0
  180.2180  177.3850  140.9110 C   0  0  0  0  0  2  0  0  0  0  0  0
  179.0610  179.1270  139.6330 N   0  0  0  0  0  2  0  0  0  0  0  0
  180.3080  179.8650  139.4480 C   0  0  0  0  0  2  0  0  0  0  0  0
  187.0300  178.6160  141.2420 C   0  0  0  0  0  2  0  0  0  0  0  0
  188.4150  178.7540  141.1420 O   0  0  0  0  0  0  0  0  0  0  0  0
  188.8290  177.6540  140.3870 C   0  0  0  0  0  2  0  0  0  0  0  0
  190.2810  177.3210  140.6930 C   0  0  0  0  0  2  0  0  0  0  0  0
  190.3670  176.3510  141.8540 C   0  0  0  0  0  2  0  0  0  0  0  0
  191.0320  176.9590  142.9190 O   0  0  0  0  0  0  0  0  0  0  0  0
  188.7570  177.9790  145.5580 C   0  0  0  0  0  3  0  0  0  0  0  0
  192.3610  176.1470  147.0590 N   0  0  0  0  0  1  0  0  0  0  0  0
  188.8390  177.5100  146.8340 C   0  0  0  0  0  3  0  0  0  0  0  0
  190.0890  176.9050  147.4090 C   0  0  0  0  0  3  0  0  0  0  0  0
  189.9450  177.9920  144.6110 C   0  0  1  0  0  3  0  0  0  0  0  0
  191.1340  176.7040  146.6070 C   0  0  0  0  0  0  0  0  0  0  0  0
  190.9300  177.0990  145.2700 N   0  0  0  0  0  0  0  0  0  0  0  0
  190.1840  176.7830  144.0120 C   0  0  2  0  0  3  0  0  0  0  0  0
  1  4  1  0  0  0  0
  2  3  2  0  0  0  0
  3  5  1  0  0  0  0
  4  2  2  0  0  0  0
  5  6  1  0  0  0  0
  7  5  1  0  0  0  0
  8  4  1  0  0  0  0
  9 10  1  0  0  0  0
  9  8  1  0  0  0  0
 11 14  1  0  0  0  0
 11 10  1  0  0  0  0
 13 16  1  0  0  0  0
 13 11  1  0  0  0  0
 14 12  1  0  0  0  0
 15 12  1  0  0  0  0
 16 15  1  0  0  0  0
 17  1  1  0  0  0  0
 18 17  1  0  0  0  0
 19 20  1  0  0  0  0
 19 18  1  0  0  0  0
 20 21  1  0  0  0  0
 21 22  1  0  0  0  0
 23 25  2  0  0  0  0
 25 26  1  0  0  0  0
 27 29  1  0  0  0  0
 27 23  1  1  0  0  0
 28 24  1  0  0  0  0
 28 26  2  0  0  0  0
 29 28  1  0  0  0  0
 30 22  1  6  0  0  0
 30 27  1  0  0  0  0
 30 29  1  0  0  0  0
M  END
>  <MODEL>
3

>  <REMARK>
 VINA RESULT:      -7.4      3.320      7.905
  Name = 
  13 active torsions:
  status: ('A' for Active; 'I' for Inactive)
    1  A    between atoms: O_3  and  C_23
    2  A    between atoms: O_3  and  C_26
    3  A    between atoms: O_6  and  C_10
    4  A    between atoms: O_6  and  C_15
    5  A    between atoms: C_8  and  O_9
    6  A    between atoms: O_9  and  C_18
    7  A    between atoms: C_10  and  C_21
    8  A    between atoms: C_12  and  C_15
    9  A    between atoms: C_12  and  C_30
   10  A    between atoms: C_18  and  C_22
   11  A    between atoms: C_21  and  C_23
   12  A    between atoms: C_22  and  C_30
   13  A    between atoms: C_24  and  C_29
                            x       y       z     vdW  Elec       q    Type
                         _______ _______ _______ _____ _____    ______ ____

>  <TORSDO>
F 13

$$$$
=
 OpenBabel10222417393D

 30 32  0  0  1  0  0  0  0  0999 V2000
  184.2730  178.3550  142.4870 C   0  0  0  0  0  2  0  0  0  0  0  0
  185.9370  177.9900  144.2160 C   0  0  0  0  0  0  0  0  0  0  0  0
  186.1830  177.7510  145.4750 C   0  0  0  0  0  3  0  0  0  0  0  0
  185.6850  178.2230  142.9560 C   0  0  0  0  0  0  0  0  0  0  0  0
  185.4020  178.4360  146.5410 C   0  0  0  0  0  3  0  0  0  0  0  0
  184.0780  178.5210  146.1580 F   0  0  0  0  0  0  0  0  0  0  0  0
  185.9010  179.7100  146.7490 F   0  0  0  0  0  0  0  0  0  0  0  0
  186.8080  178.5540  142.0310 C   0  0  0  0  0  2  0  0  0  0  0  0
  187.9550  177.5630  142.1730 C   0  0  0  0  0  2  0  0  0  0  0  0
  189.1280  178.2230  142.5480 O   0  0  0  0  0  0  0  0  0  0  0  0
  190.0840  177.2140  142.6940 C   0  0  0  0  0  3  0  0  0  0  0  0
  191.6840  178.5490  144.1030 C   0  0  0  0  0  2  0  0  0  0  0  0
  189.7840  176.3860  143.9450 C   0  0  0  0  0  2  0  0  0  0  0  0
  191.4900  177.8190  142.7730 C   0  0  0  0  0  2  0  0  0  0  0  0
  191.4710  177.6260  145.2160 N   0  0  0  0  0  2  0  0  0  0  0  0
  190.0720  177.2030  145.2050 C   0  0  0  0  0  2  0  0  0  0  0  0
  184.2040  178.2830  140.9740 C   0  0  0  0  0  2  0  0  0  0  0  0
  184.0550  179.5700  140.4570 O   0  0  0  0  0  0  0  0  0  0  0  0
  184.3420  179.4430  139.0950 C   0  0  0  0  0  2  0  0  0  0  0  0
  184.4790  177.9760  138.7200 C   0  0  0  0  0  2  0  0  0  0  0  0
  185.5510  177.7980  137.6630 C   0  0  0  0  0  2  0  0  0  0  0  0
  186.6380  178.6210  137.9610 O   0  0  0  0  0  0  0  0  0  0  0  0
  189.9250  177.6070  139.1220 C   0  0  0  0  0  3  0  0  0  0  0  0
  189.4210  177.1260  134.8660 N   0  0  0  0  0  1  0  0  0  0  0  0
  190.7630  176.8220  138.3910 C   0  0  0  0  0  3  0  0  0  0  0  0
  190.6490  176.6610  136.9010 C   0  0  0  0  0  3  0  0  0  0  0  0
  188.8290  178.4490  138.4900 C   0  0  1  0  0  3  0  0  0  0  0  0
  189.6110  177.2140  136.2730 C   0  0  0  0  0  0  0  0  0  0  0  0
  188.7180  177.9050  137.1140 N   0  0  0  0  0  0  0  0  0  0  0  0
  187.6940  177.7420  138.1930 C   0  0  2  0  0  3  0  0  0  0  0  0
  1  4  1  0  0  0  0
  2  3  2  0  0  0  0
  3  5  1  0  0  0  0
  4  2  2  0  0  0  0
  5  7  1  0  0  0  0
  6  5  1  0  0  0  0
  8  9  1  0  0  0  0
  8  4  1  0  0  0  0
  9 10  1  0  0  0  0
 10 11  1  0  0  0  0
 11 14  1  0  0  0  0
 11 13  1  0  0  0  0
 12 15  1  0  0  0  0
 13 16  1  0  0  0  0
 14 12  1  0  0  0  0
 16 15  1  0  0  0  0
 17  1  1  0  0  0  0
 18 17  1  0  0  0  0
 19 18  1  0  0  0  0
 20 19  1  0  0  0  0
 21 22  1  0  0  0  0
 21 20  1  0  0  0  0
 24 28  1  0  0  0  0
 25 23  2  0  0  0  0
 26 25  1  0  0  0  0
 27 23  1  1  0  0  0
 28 26  2  0  0  0  0
 28 29  1  0  0  0  0
 29 30  1  0  0  0  0
 29 27  1  0  0  0  0
 30 22  1  6  0  0  0
 30 27  1  0  0  0  0
M  END
>  <MODEL>
4

>  <REMARK>
 VINA RESULT:      -7.2      3.833      7.302
  Name = 
  13 active torsions:
  status: ('A' for Active; 'I' for Inactive)
    1  A    between atoms: O_3  and  C_23
    2  A    between atoms: O_3  and  C_26
    3  A    between atoms: O_6  and  C_10
    4  A    between atoms: O_6  and  C_15
    5  A    between atoms: C_8  and  O_9
    6  A    between atoms: O_9  and  C_18
    7  A    between atoms: C_10  and  C_21
    8  A    between atoms: C_12  and  C_15
    9  A    between atoms: C_12  and  C_30
   10  A    between atoms: C_18  and  C_22
   11  A    between atoms: C_21  and  C_23
   12  A    between atoms: C_22  and  C_30
   13  A    between atoms: C_24  and  C_29
                            x       y       z     vdW  Elec       q    Type
                         _______ _______ _______ _____ _____    ______ ____

>  <TORSDO>
F 13

$$$$
=
 OpenBabel10222417393D

 30 32  0  0  1  0  0  0  0  0999 V2000
  187.9080  178.0320  144.2490 C   0  0  0  0  0  2  0  0  0  0  0  0
  189.4280  176.5980  143.0140 C   0  0  0  0  0  0  0  0  0  0  0  0
  190.4600  175.8000  143.0470 C   0  0  0  0  0  3  0  0  0  0  0  0
  188.3920  177.3930  142.9890 C   0  0  0  0  0  0  0  0  0  0  0  0
  191.6450  176.1300  143.8850 C   0  0  0  0  0  3  0  0  0  0  0  0
  191.3160  175.9930  145.2190 F   0  0  0  0  0  0  0  0  0  0  0  0
  192.0470  177.4320  143.6450 F   0  0  0  0  0  0  0  0  0  0  0  0
  187.8220  177.8160  141.6760 C   0  0  0  0  0  2  0  0  0  0  0  0
  188.9170  178.0450  140.6430 C   0  0  0  0  0  2  0  0  0  0  0  0
  188.3900  178.6480  139.4970 O   0  0  0  0  0  0  0  0  0  0  0  0
  189.2530  178.2790  138.4610 C   0  0  0  0  0  3  0  0  0  0  0  0
  187.8010  176.4490  137.5290 C   0  0  0  0  0  2  0  0  0  0  0  0
  188.9290  179.0820  137.2000 C   0  0  0  0  0  2  0  0  0  0  0  0
  189.1420  176.7760  138.1860 C   0  0  0  0  0  2  0  0  0  0  0  0
  187.6580  177.2000  136.2830 N   0  0  0  0  0  2  0  0  0  0  0  0
  187.5970  178.6240  136.6060 C   0  0  0  0  0  2  0  0  0  0  0  0
  188.1820  177.1340  145.4410 C   0  0  0  0  0  2  0  0  0  0  0  0
  187.0680  177.1280  146.2810 O   0  0  0  0  0  0  0  0  0  0  0  0
  187.2570  178.2220  147.1310 C   0  0  0  0  0  2  0  0  0  0  0  0
  185.9750  179.0320  147.2400 C   0  0  0  0  0  2  0  0  0  0  0  0
  184.8090  178.2570  146.6590 C   0  0  0  0  0  2  0  0  0  0  0  0
  183.9850  179.1250  145.9430 O   0  0  0  0  0  0  0  0  0  0  0  0
  184.5500  178.8310  142.3690 C   0  0  0  0  0  3  0  0  0  0  0  0
  180.3810  179.2640  143.3830 N   0  0  0  0  0  1  0  0  0  0  0  0
  183.5660  178.5130  141.4840 C   0  0  0  0  0  3  0  0  0  0  0  0
  182.1040  178.6900  141.7810 C   0  0  0  0  0  3  0  0  0  0  0  0
  184.2640  179.4560  143.7240 C   0  0  1  0  0  3  0  0  0  0  0  0
  181.7370  179.0610  143.0080 C   0  0  0  0  0  0  0  0  0  0  0  0
  182.8060  179.2500  143.9060 N   0  0  0  0  0  0  0  0  0  0  0  0
  183.8800  178.5500  144.6780 C   0  0  2  0  0  3  0  0  0  0  0  0
  1 17  1  0  0  0  0
  2  3  2  0  0  0  0
  3  5  1  0  0  0  0
  4  2  2  0  0  0  0
  4  1  1  0  0  0  0
  5  6  1  0  0  0  0
  7  5  1  0  0  0  0
  8  4  1  0  0  0  0
  9  8  1  0  0  0  0
 10  9  1  0  0  0  0
 11 10  1  0  0  0  0
 12 14  1  0  0  0  0
 13 11  1  0  0  0  0
 14 11  1  0  0  0  0
 15 16  1  0  0  0  0
 15 12  1  0  0  0  0
 16 13  1  0  0  0  0
 17 18  1  0  0  0  0
 18 19  1  0  0  0  0
 19 20  1  0  0  0  0
 21 20  1  0  0  0  0
 22 21  1  0  0  0  0
 25 26  1  0  0  0  0
 25 23  2  0  0  0  0
 26 28  2  0  0  0  0
 27 23  1  6  0  0  0
 27 29  1  0  0  0  0
 27 30  1  0  0  0  0
 28 24  1  0  0  0  0
 28 29  1  0  0  0  0
 29 30  1  0  0  0  0
 30 22  1  1  0  0  0
M  END
>  <MODEL>
5

>  <REMARK>
 VINA RESULT:      -7.1      1.906      2.730
  Name = 
  13 active torsions:
  status: ('A' for Active; 'I' for Inactive)
    1  A    between atoms: O_3  and  C_23
    2  A    between atoms: O_3  and  C_26
    3  A    between atoms: O_6  and  C_10
    4  A    between atoms: O_6  and  C_15
    5  A    between atoms: C_8  and  O_9
    6  A    between atoms: O_9  and  C_18
    7  A    between atoms: C_10  and  C_21
    8  A    between atoms: C_12  and  C_15
    9  A    between atoms: C_12  and  C_30
   10  A    between atoms: C_18  and  C_22
   11  A    between atoms: C_21  and  C_23
   12  A    between atoms: C_22  and  C_30
   13  A    between atoms: C_24  and  C_29
                            x       y       z     vdW  Elec       q    Type
                         _______ _______ _______ _____ _____    ______ ____

>  <TORSDO>
F 13

$$$$
=
 OpenBabel10222417393D

 30 32  0  0  1  0  0  0  0  0999 V2000
  185.6360  179.0100  142.1890 C   0  0  0  0  0  2  0  0  0  0  0  0
  186.1970  177.9110  144.2800 C   0  0  0  0  0  0  0  0  0  0  0  0
  185.8280  177.5960  145.4910 C   0  0  0  0  0  3  0  0  0  0  0  0
  186.5580  178.2240  143.0640 C   0  0  0  0  0  0  0  0  0  0  0  0
  185.1080  178.5820  146.3430 C   0  0  0  0  0  3  0  0  0  0  0  0
  183.9620  178.9970  145.6950 F   0  0  0  0  0  0  0  0  0  0  0  0
  185.9180  179.6780  146.5880 F   0  0  0  0  0  0  0  0  0  0  0  0
  187.9610  177.9690  142.6250 C   0  0  0  0  0  2  0  0  0  0  0  0
  188.3660  176.5230  142.8760 C   0  0  0  0  0  2  0  0  0  0  0  0
  188.8880  176.3780  144.1650 O   0  0  0  0  0  0  0  0  0  0  0  0
  189.8090  177.4200  144.3050 C   0  0  0  0  0  3  0  0  0  0  0  0
  190.2560  177.0670  146.7550 C   0  0  0  0  0  2  0  0  0  0  0  0
  191.2250  176.9040  144.0440 C   0  0  0  0  0  2  0  0  0  0  0  0
  189.7090  178.0350  145.7050 C   0  0  0  0  0  2  0  0  0  0  0  0
  191.6470  176.7330  146.4510 N   0  0  0  0  0  2  0  0  0  0  0  0
  191.6800  175.9980  145.1880 C   0  0  0  0  0  2  0  0  0  0  0  0
  184.5010  178.1370  141.6890 C   0  0  0  0  0  2  0  0  0  0  0  0
  183.7590  178.8410  140.7410 O   0  0  0  0  0  0  0  0  0  0  0  0
  184.6850  179.1970  139.7560 C   0  0  0  0  0  2  0  0  0  0  0  0
  184.6360  178.2040  138.6060 C   0  0  0  0  0  2  0  0  0  0  0  0
  185.9730  178.1570  137.8910 C   0  0  0  0  0  2  0  0  0  0  0  0
  187.0020  178.2870  138.8240 O   0  0  0  0  0  0  0  0  0  0  0  0
  189.3310  176.4570  136.7240 C   0  0  0  0  0  3  0  0  0  0  0  0
  190.9870  177.4890  140.5700 N   0  0  0  0  0  1  0  0  0  0  0  0
  190.6730  176.4270  136.9520 C   0  0  0  0  0  3  0  0  0  0  0  0
  191.2870  176.7360  138.2880 C   0  0  0  0  0  3  0  0  0  0  0  0
  188.3190  176.7480  137.8190 C   0  0  1  0  0  3  0  0  0  0  0  0
  190.5010  177.1790  139.2700 C   0  0  0  0  0  0  0  0  0  0  0  0
  189.1430  177.3040  138.9210 N   0  0  0  0  0  0  0  0  0  0  0  0
  188.1700  178.0820  138.0910 C   0  0  2  0  0  3  0  0  0  0  0  0
  1  4  1  0  0  0  0
  2  3  2  0  0  0  0
  3  5  1  0  0  0  0
  4  2  2  0  0  0  0
  5  7  1  0  0  0  0
  6  5  1  0  0  0  0
  8  9  1  0  0  0  0
  8  4  1  0  0  0  0
  9 10  1  0  0  0  0
 10 11  1  0  0  0  0
 11 14  1  0  0  0  0
 13 11  1  0  0  0  0
 13 16  1  0  0  0  0
 14 12  1  0  0  0  0
 15 12  1  0  0  0  0
 16 15  1  0  0  0  0
 17  1  1  0  0  0  0
 18 17  1  0  0  0  0
 19 18  1  0  0  0  0
 20 19  1  0  0  0  0
 21 20  1  0  0  0  0
 21 22  1  0  0  0  0
 23 25  2  0  0  0  0
 25 26  1  0  0  0  0
 26 28  2  0  0  0  0
 27 23  1  6  0  0  0
 27 30  1  0  0  0  0
 27 29  1  0  0  0  0
 28 24  1  0  0  0  0
 29 28  1  0  0  0  0
 30 22  1  1  0  0  0
 30 29  1  0  0  0  0
M  END
>  <MODEL>
6

>  <REMARK>
 VINA RESULT:      -7.1      3.668      7.271
  Name = 
  13 active torsions:
  status: ('A' for Active; 'I' for Inactive)
    1  A    between atoms: O_3  and  C_23
    2  A    between atoms: O_3  and  C_26
    3  A    between atoms: O_6  and  C_10
    4  A    between atoms: O_6  and  C_15
    5  A    between atoms: C_8  and  O_9
    6  A    between atoms: O_9  and  C_18
    7  A    between atoms: C_10  and  C_21
    8  A    between atoms: C_12  and  C_15
    9  A    between atoms: C_12  and  C_30
   10  A    between atoms: C_18  and  C_22
   11  A    between atoms: C_21  and  C_23
   12  A    between atoms: C_22  and  C_30
   13  A    between atoms: C_24  and  C_29
                            x       y       z     vdW  Elec       q    Type
                         _______ _______ _______ _____ _____    ______ ____

>  <TORSDO>
F 13

$$$$
=
 OpenBabel10222417393D

 30 32  0  0  1  0  0  0  0  0999 V2000
  184.3920  178.2040  142.3630 C   0  0  0  0  0  2  0  0  0  0  0  0
  182.5330  178.8690  143.7750 C   0  0  0  0  0  0  0  0  0  0  0  0
  181.2410  178.8900  143.9560 C   0  0  0  0  0  3  0  0  0  0  0  0
  183.8260  178.8400  143.5900 C   0  0  0  0  0  0  0  0  0  0  0  0
  180.3220  179.1750  142.8200 C   0  0  0  0  0  3  0  0  0  0  0  0
  179.0470  178.7550  143.1450 F   0  0  0  0  0  0  0  0  0  0  0  0
  180.7490  178.5070  141.6870 F   0  0  0  0  0  0  0  0  0  0  0  0
  184.7170  179.6130  144.5040 C   0  0  0  0  0  2  0  0  0  0  0  0
  185.1130  178.7890  145.7220 C   0  0  0  0  0  2  0  0  0  0  0  0
  186.4980  178.8270  145.9080 O   0  0  0  0  0  0  0  0  0  0  0  0
  186.8980  177.4880  145.9380 C   0  0  0  0  0  3  0  0  0  0  0  0
  189.1160  177.8360  144.8050 C   0  0  0  0  0  2  0  0  0  0  0  0
  187.6790  177.2050  147.2230 C   0  0  0  0  0  2  0  0  0  0  0  0
  187.7490  177.1590  144.7080 C   0  0  0  0  0  2  0  0  0  0  0  0
  189.8040  177.4040  146.0210 N   0  0  0  0  0  2  0  0  0  0  0  0
  189.0470  177.8850  147.1750 C   0  0  0  0  0  2  0  0  0  0  0  0
  185.5170  179.0490  141.7950 C   0  0  0  0  0  2  0  0  0  0  0  0
  185.0640  179.7170  140.6570 O   0  0  0  0  0  0  0  0  0  0  0  0
  184.6000  178.7060  139.8110 C   0  0  0  0  0  2  0  0  0  0  0  0
  185.0810  178.9460  138.3890 C   0  0  0  0  0  2  0  0  0  0  0  0
  185.9270  177.7820  137.9130 C   0  0  0  0  0  2  0  0  0  0  0  0
  187.2570  178.1890  137.8040 O   0  0  0  0  0  0  0  0  0  0  0  0
  188.9620  177.8660  140.9930 C   0  0  0  0  0  3  0  0  0  0  0  0
  191.4370  176.7520  137.6420 N   0  0  0  0  0  1  0  0  0  0  0  0
  190.0960  177.1320  141.1600 C   0  0  0  0  0  3  0  0  0  0  0  0
  191.0090  176.7590  140.0250 C   0  0  0  0  0  3  0  0  0  0  0  0
  188.5420  178.4340  139.6480 C   0  0  1  0  0  3  0  0  0  0  0  0
  190.6380  177.0540  138.7790 C   0  0  0  0  0  0  0  0  0  0  0  0
  189.3920  177.7030  138.6770 N   0  0  0  0  0  0  0  0  0  0  0  0
  187.9150  177.5250  138.8380 C   0  0  2  0  0  3  0  0  0  0  0  0
  1  4  1  0  0  0  0
  2  3  2  0  0  0  0
  4  2  2  0  0  0  0
  4  8  1  0  0  0  0
  5  6  1  0  0  0  0
  5  3  1  0  0  0  0
  7  5  1  0  0  0  0
  8  9  1  0  0  0  0
  9 10  1  0  0  0  0
 10 11  1  0  0  0  0
 11 13  1  0  0  0  0
 12 15  1  0  0  0  0
 14 12  1  0  0  0  0
 14 11  1  0  0  0  0
 15 16  1  0  0  0  0
 16 13  1  0  0  0  0
 17  1  1  0  0  0  0
 18 17  1  0  0  0  0
 19 18  1  0  0  0  0
 20 19  1  0  0  0  0
 21 20  1  0  0  0  0
 22 21  1  0  0  0  0
 23 25  2  0  0  0  0
 24 28  1  0  0  0  0
 26 25  1  0  0  0  0
 27 23  1  1  0  0  0
 28 26  2  0  0  0  0
 29 28  1  0  0  0  0
 29 30  1  0  0  0  0
 29 27  1  0  0  0  0
 30 22  1  6  0  0  0
 30 27  1  0  0  0  0
M  END
>  <MODEL>
7

>  <REMARK>
 VINA RESULT:      -7.0      4.681      8.636
  Name = 
  13 active torsions:
  status: ('A' for Active; 'I' for Inactive)
    1  A    between atoms: O_3  and  C_23
    2  A    between atoms: O_3  and  C_26
    3  A    between atoms: O_6  and  C_10
    4  A    between atoms: O_6  and  C_15
    5  A    between atoms: C_8  and  O_9
    6  A    between atoms: O_9  and  C_18
    7  A    between atoms: C_10  and  C_21
    8  A    between atoms: C_12  and  C_15
    9  A    between atoms: C_12  and  C_30
   10  A    between atoms: C_18  and  C_22
   11  A    between atoms: C_21  and  C_23
   12  A    between atoms: C_22  and  C_30
   13  A    between atoms: C_24  and  C_29
                            x       y       z     vdW  Elec       q    Type
                         _______ _______ _______ _____ _____    ______ ____

>  <TORSDO>
F 13

$$$$
=
 OpenBabel10222417393D

 30 32  0  0  1  0  0  0  0  0999 V2000
  185.8140  179.1270  145.9440 C   0  0  0  0  0  2  0  0  0  0  0  0
  187.4510  177.4770  146.6450 C   0  0  0  0  0  0  0  0  0  0  0  0
  188.1730  176.9860  147.6140 C   0  0  0  0  0  3  0  0  0  0  0  0
  186.7220  177.9700  145.6800 C   0  0  0  0  0  0  0  0  0  0  0  0
  188.8430  177.8880  148.5910 C   0  0  0  0  0  3  0  0  0  0  0  0
  187.9260  178.3000  149.5380 F   0  0  0  0  0  0  0  0  0  0  0  0
  189.3560  178.9950  147.9380 F   0  0  0  0  0  0  0  0  0  0  0  0
  186.9450  177.5060  144.2790 C   0  0  0  0  0  2  0  0  0  0  0  0
  188.2260  176.6920  144.1620 C   0  0  0  0  0  2  0  0  0  0  0  0
  188.5860  176.5380  142.8200 O   0  0  0  0  0  0  0  0  0  0  0  0
  189.0240  177.8010  142.4130 C   0  0  0  0  0  3  0  0  0  0  0  0
  191.4850  177.3130  142.5910 C   0  0  0  0  0  2  0  0  0  0  0  0
  189.2110  177.8250  140.8940 C   0  0  0  0  0  2  0  0  0  0  0  0
  190.3320  178.1660  143.1210 C   0  0  0  0  0  2  0  0  0  0  0  0
  191.6250  177.5030  141.1480 N   0  0  0  0  0  2  0  0  0  0  0  0
  190.4250  176.9870  140.4940 C   0  0  0  0  0  2  0  0  0  0  0  0
  184.3750  178.7560  145.6370 C   0  0  0  0  0  2  0  0  0  0  0  0
  183.9340  179.4890  144.5350 O   0  0  0  0  0  0  0  0  0  0  0  0
  183.1910  178.5790  143.7780 C   0  0  0  0  0  2  0  0  0  0  0  0
  183.5480  178.7050  142.3050 C   0  0  0  0  0  2  0  0  0  0  0  0
  185.0010  179.1090  142.1460 C   0  0  0  0  0  2  0  0  0  0  0  0
  185.2450  179.4480  140.8150 O   0  0  0  0  0  0  0  0  0  0  0  0
  183.8680  177.6040  138.0080 C   0  0  0  0  0  3  0  0  0  0  0  0
  181.8620  181.3580  138.7020 N   0  0  0  0  0  1  0  0  0  0  0  0
  182.6420  177.8650  137.4760 C   0  0  0  0  0  3  0  0  0  0  0  0
  181.9280  179.1750  137.6570 C   0  0  0  0  0  3  0  0  0  0  0  0
  184.6610  178.6400  138.7860 C   0  0  1  0  0  3  0  0  0  0  0  0
  182.4560  180.0870  138.4730 C   0  0  0  0  0  0  0  0  0  0  0  0
  183.6630  179.6950  139.0860 N   0  0  0  0  0  0  0  0  0  0  0  0
  184.2670  178.7670  140.0920 C   0  0  2  0  0  3  0  0  0  0  0  0
  2  3  2  0  0  0  0
  3  5  1  0  0  0  0
  4  1  1  0  0  0  0
  4  2  2  0  0  0  0
  5  6  1  0  0  0  0
  7  5  1  0  0  0  0
  8  4  1  0  0  0  0
  9  8  1  0  0  0  0
 10  9  1  0  0  0  0
 11 10  1  0  0  0  0
 11 14  1  0  0  0  0
 12 14  1  0  0  0  0
 13 11  1  0  0  0  0
 15 12  1  0  0  0  0
 16 13  1  0  0  0  0
 16 15  1  0  0  0  0
 17  1  1  0  0  0  0
 18 17  1  0  0  0  0
 19 18  1  0  0  0  0
 20 19  1  0  0  0  0
 21 20  1  0  0  0  0
 22 21  1  0  0  0  0
 25 26  1  0  0  0  0
 25 23  2  0  0  0  0
 26 28  2  0  0  0  0
 27 23  1  6  0  0  0
 27 29  1  0  0  0  0
 27 30  1  0  0  0  0
 28 24  1  0  0  0  0
 28 29  1  0  0  0  0
 29 30  1  0  0  0  0
 30 22  1  1  0  0  0
M  END
>  <MODEL>
8

>  <REMARK>
 VINA RESULT:      -7.0      2.814      4.423
  Name = 
  13 active torsions:
  status: ('A' for Active; 'I' for Inactive)
    1  A    between atoms: O_3  and  C_23
    2  A    between atoms: O_3  and  C_26
    3  A    between atoms: O_6  and  C_10
    4  A    between atoms: O_6  and  C_15
    5  A    between atoms: C_8  and  O_9
    6  A    between atoms: O_9  and  C_18
    7  A    between atoms: C_10  and  C_21
    8  A    between atoms: C_12  and  C_15
    9  A    between atoms: C_12  and  C_30
   10  A    between atoms: C_18  and  C_22
   11  A    between atoms: C_21  and  C_23
   12  A    between atoms: C_22  and  C_30
   13  A    between atoms: C_24  and  C_29
                            x       y       z     vdW  Elec       q    Type
                         _______ _______ _______ _____ _____    ______ ____

>  <TORSDO>
F 13

$$$$
=
 OpenBabel10222417393D

 30 32  0  0  1  0  0  0  0  0999 V2000
  190.5420  177.8640  143.3120 C   0  0  0  0  0  2  0  0  0  0  0  0
  189.8520  176.9640  145.4580 C   0  0  0  0  0  0  0  0  0  0  0  0
  190.1010  176.8480  146.7340 C   0  0  0  0  0  3  0  0  0  0  0  0
  189.6060  177.0900  144.1820 C   0  0  0  0  0  0  0  0  0  0  0  0
  191.4880  176.6070  147.2160 C   0  0  0  0  0  3  0  0  0  0  0  0
  191.6780  175.2520  147.4100 F   0  0  0  0  0  0  0  0  0  0  0  0
  191.6980  177.2740  148.4100 F   0  0  0  0  0  0  0  0  0  0  0  0
  188.5040  176.2960  143.5640 C   0  0  0  0  0  2  0  0  0  0  0  0
  187.2370  177.1280  143.4150 C   0  0  0  0  0  2  0  0  0  0  0  0
  186.5520  177.1980  144.6310 O   0  0  0  0  0  0  0  0  0  0  0  0
  186.3840  178.5630  144.8780 C   0  0  0  0  0  3  0  0  0  0  0  0
  183.9270  178.6410  144.3480 C   0  0  0  0  0  2  0  0  0  0  0  0
  186.0040  178.7870  146.3430 C   0  0  0  0  0  2  0  0  0  0  0  0
  185.3140  179.1450  143.9490 C   0  0  0  0  0  2  0  0  0  0  0  0
  183.6420  179.0080  145.7340 N   0  0  0  0  0  2  0  0  0  0  0  0
  184.5790  178.2990  146.6020 C   0  0  0  0  0  2  0  0  0  0  0  0
  190.8260  177.1080  142.0280 C   0  0  0  0  0  2  0  0  0  0  0  0
  190.2280  177.7730  140.9580 O   0  0  0  0  0  0  0  0  0  0  0  0
  190.8890  177.2910  139.8240 C   0  0  0  0  0  2  0  0  0  0  0  0
  189.8880  176.7100  138.8390 C   0  0  0  0  0  2  0  0  0  0  0  0
  189.6160  177.6940  137.7180 C   0  0  0  0  0  2  0  0  0  0  0  0
  188.5590  178.5290  138.0800 O   0  0  0  0  0  0  0  0  0  0  0  0
  185.7570  176.6020  136.8080 C   0  0  0  0  0  3  0  0  0  0  0  0
  184.5550  179.7150  139.5400 N   0  0  0  0  0  1  0  0  0  0  0  0
  184.5290  176.5980  137.3950 C   0  0  0  0  0  3  0  0  0  0  0  0
  184.0550  177.6850  138.3180 C   0  0  0  0  0  3  0  0  0  0  0  0
  186.7460  177.7420  136.9820 C   0  0  1  0  0  3  0  0  0  0  0  0
  184.9120  178.6400  138.6790 C   0  0  0  0  0  0  0  0  0  0  0  0
  186.2020  178.5070  138.1310 N   0  0  0  0  0  0  0  0  0  0  0  0
  187.4520  177.6840  138.1540 C   0  0  2  0  0  3  0  0  0  0  0  0
  1  4  1  0  0  0  0
  2  3  2  0  0  0  0
  3  5  1  0  0  0  0
  4  2  2  0  0  0  0
  5  6  1  0  0  0  0
  5  7  1  0  0  0  0
  8  4  1  0  0  0  0
  9  8  1  0  0  0  0
  9 10  1  0  0  0  0
 10 11  1  0  0  0  0
 11 13  1  0  0  0  0
 12 15  1  0  0  0  0
 13 16  1  0  0  0  0
 14 12  1  0  0  0  0
 14 11  1  0  0  0  0
 15 16  1  0  0  0  0
 17  1  1  0  0  0  0
 18 17  1  0  0  0  0
 19 18  1  0  0  0  0
 20 19  1  0  0  0  0
 21 22  1  0  0  0  0
 21 20  1  0  0  0  0
 23 25  2  0  0  0  0
 25 26  1  0  0  0  0
 26 28  2  0  0  0  0
 27 23  1  1  0  0  0
 27 29  1  0  0  0  0
 27 30  1  0  0  0  0
 28 24  1  0  0  0  0
 29 30  1  0  0  0  0
 29 28  1  0  0  0  0
 30 22  1  6  0  0  0
M  END
>  <MODEL>
9

>  <REMARK>
 VINA RESULT:      -7.0      2.350      5.899
  Name = 
  13 active torsions:
  status: ('A' for Active; 'I' for Inactive)
    1  A    between atoms: O_3  and  C_23
    2  A    between atoms: O_3  and  C_26
    3  A    between atoms: O_6  and  C_10
    4  A    between atoms: O_6  and  C_15
    5  A    between atoms: C_8  and  O_9
    6  A    between atoms: O_9  and  C_18
    7  A    between atoms: C_10  and  C_21
    8  A    between atoms: C_12  and  C_15
    9  A    between atoms: C_12  and  C_30
   10  A    between atoms: C_18  and  C_22
   11  A    between atoms: C_21  and  C_23
   12  A    between atoms: C_22  and  C_30
   13  A    between atoms: C_24  and  C_29
                            x       y       z     vdW  Elec       q    Type
                         _______ _______ _______ _____ _____    ______ ____

>  <TORSDO>
F 13

$$$$
