=
 OpenBabel10222415403D

 40 44  0  0  1  0  0  0  0  0999 V2000
  188.4190  177.8810  140.9520 C   0  0  0  0  0  1  0  0  0  0  0  0
  186.5310  175.8130  136.6200 C   0  0  0  0  0  1  0  0  0  0  0  0
  185.6880  176.8780  137.2910 C   0  0  1  0  0  0  0  0  0  0  0  0
  182.3510  177.8800  137.3030 C   0  0  0  0  0  2  0  0  0  0  0  0
  186.3030  177.2620  138.6550 C   0  0  1  0  0  3  0  0  0  0  0  0
  183.9430  178.1300  139.3380 C   0  0  1  0  0  0  0  0  0  0  0  0
  187.6000  178.0630  138.6710 C   0  0  1  0  0  3  0  0  0  0  0  0
  183.3110  177.1910  138.2850 C   0  0  2  0  0  3  0  0  0  0  0  0
  181.8140  179.2470  137.7580 C   0  0  2  0  0  3  0  0  0  0  0  0
  183.0710  178.7630  140.4210 C   0  0  0  0  0  2  0  0  0  0  0  0
  185.6030  177.9820  136.4390 O   0  0  0  0  0  1  0  0  0  0  0  0
  185.4250  178.1510  139.5000 C   0  0  2  0  0  0  0  0  0  0  0  0
  180.9580  179.2160  139.0430 C   0  0  1  0  0  3  0  0  0  0  0  0
  187.7140  178.7340  139.9920 N   0  0  0  0  0  0  0  0  0  0  0  0
  184.7340  179.0950  138.7030 O   0  0  0  0  0  0  0  0  0  0  0  0
  186.3080  178.9800  140.4080 C   0  0  2  0  0  3  0  0  0  0  0  0
  184.2960  176.2770  137.5320 C   0  0  0  0  0  2  0  0  0  0  0  0
  181.5910  178.4400  140.2090 C   0  0  0  0  0  2  0  0  0  0  0  0
  185.9970  178.8470  141.8810 C   0  0  0  0  0  0  0  0  0  0  0  0
  185.4390  178.5400  144.6100 C   0  0  0  0  0  0  0  0  0  0  0  0
  186.3000  177.6460  143.9670 C   0  0  0  0  0  3  0  0  0  0  0  0
  186.5760  177.7980  142.6040 C   0  0  0  0  0  3  0  0  0  0  0  0
  184.8520  179.5850  143.8910 C   0  0  0  0  0  3  0  0  0  0  0  0
  185.1280  179.7380  142.5300 C   0  0  0  0  0  3  0  0  0  0  0  0
  184.9270  178.2570  147.1360 N   0  0  0  0  0  0  0  0  0  0  0  0
  185.1560  178.3830  146.0080 C   0  0  0  0  0  0  0  0  0  0  0  0
  180.6310  180.6340  139.4940 C   0  0  0  0  0  2  0  0  0  0  0  0
  179.5460  180.6190  140.3710 O   0  0  0  0  0  1  0  0  0  0  0  0
  188.8580  177.3590  138.1170 C   0  0  1  0  0  3  0  0  0  0  0  0
  189.3630  178.0310  136.8530 C   0  0  0  0  0  1  0  0  0  0  0  0
  190.2050  177.1550  139.3360 S   0  0  0  0  0  0  0  0  0  0  0  0
  191.3720  176.5170  138.0980 C   0  0  2  0  0  3  0  0  0  0  0  0
  191.0660  175.0550  137.8380 C   0  0  0  0  0  1  0  0  0  0  0  0
  192.7340  176.6510  138.5930 N   0  0  0  0  0  2  0  0  0  0  0  0
  194.6620  175.3570  138.4870 O   0  0  0  0  0  1  0  0  0  0  0  0
  193.5960  175.8500  137.7380 C   0  0  0  0  0  3  0  0  0  0  0  0
  194.0880  176.6370  136.6950 O   0  0  0  0  0  1  0  0  0  0  0  0
  181.0630  179.9050  136.6030 C   0  0  0  0  0  2  0  0  0  0  0  0
  179.7340  179.2110  134.9840 C   0  0  0  0  0  1  0  0  0  0  0  0
  179.8450  179.2600  136.3720 O   0  0  0  0  0  0  0  0  0  0  0  0
  3  2  1  6  0  0  0
  3 17  1  0  0  0  0
  3  5  1  0  0  0  0
  4  9  1  0  0  0  0
  4  8  1  0  0  0  0
  5  7  1  0  0  0  0
  5 12  1  0  0  0  0
  6 12  1  0  0  0  0
  6 10  1  0  0  0  0
  7 14  1  0  0  0  0
  8  6  1  0  0  0  0
  9 13  1  0  0  0  0
 11  3  1  0  0  0  0
 12 16  1  0  0  0  0
 13 27  1  0  0  0  0
 13 18  1  0  0  0  0
 14 16  1  0  0  0  0
 14  1  1  0  0  0  0
 15  6  1  0  0  0  0
 15 12  1  0  0  0  0
 16 19  1  0  0  0  0
 17  8  1  0  0  0  0
 18 10  1  0  0  0  0
 19 24  2  0  0  0  0
 19 22  1  0  0  0  0
 20 26  1  0  0  0  0
 21 20  1  0  0  0  0
 22 21  2  0  0  0  0
 23 20  2  0  0  0  0
 24 23  1  0  0  0  0
 26 25  3  0  0  0  0
 27 28  1  0  0  0  0
 29  7  1  0  0  0  0
 29 31  1  0  0  0  0
 30 29  1  0  0  0  0
 32 34  1  0  0  0  0
 32 31  1  0  0  0  0
 33 32  1  0  0  0  0
 36 35  1  0  0  0  0
 36 34  1  0  0  0  0
 37 36  1  0  0  0  0
 38  9  1  0  0  0  0
 39 40  1  0  0  0  0
 40 38  1  0  0  0  0
M  END
>  <MODEL>
1

>  <REMARK>
 VINA RESULT:      -5.9      0.000      0.000
  Name = 
  10 active torsions:
  status: ('A' for Active; 'I' for Inactive)
    1  A    between atoms: C_7  and  C_21
    2  A    between atoms: C_9  and  C_20
    3  A    between atoms: C_10  and  C_30
    4  A    between atoms: C_14  and  N_29
    5  A    between atoms: C_14  and  S_32
    6  A    between atoms: C_16  and  C_36
    7  A    between atoms: O_19  and  C_30
    8  A    between atoms: C_21  and  S_32
    9  A    between atoms: C_22  and  C_40
   10  A    between atoms: C_24  and  N_29
                            x       y       z     vdW  Elec       q    Type
                         _______ _______ _______ _____ _____    ______ ____

>  <TORSDO>
F 10

$$$$
=
 OpenBabel10222415403D

 40 44  0  0  1  0  0  0  0  0999 V2000
  184.8290  177.9540  137.7600 C   0  0  0  0  0  1  0  0  0  0  0  0
  184.1980  178.3580  142.8640 C   0  0  0  0  0  1  0  0  0  0  0  0
  185.6200  178.4150  142.3460 C   0  0  1  0  0  0  0  0  0  0  0  0
  188.8320  177.9090  143.6020 C   0  0  0  0  0  2  0  0  0  0  0  0
  185.6490  178.1030  140.8340 C   0  0  1  0  0  3  0  0  0  0  0  0
  188.1550  177.4600  141.1360 C   0  0  1  0  0  0  0  0  0  0  0  0
  185.0930  179.1410  139.8650 C   0  0  1  0  0  3  0  0  0  0  0  0
  187.8870  177.1820  142.6330 C   0  0  2  0  0  3  0  0  0  0  0  0
  190.1410  178.4230  142.9820 C   0  0  2  0  0  3  0  0  0  0  0  0
  189.4400  176.9520  140.4810 C   0  0  0  0  0  2  0  0  0  0  0  0
  186.1440  179.6820  142.6180 O   0  0  0  0  0  1  0  0  0  0  0  0
  187.0350  177.9190  140.2670 C   0  0  2  0  0  0  0  0  0  0  0  0
  191.0720  177.3250  142.4220 C   0  0  1  0  0  3  0  0  0  0  0  0
  185.6730  178.8790  138.5220 N   0  0  0  0  0  0  0  0  0  0  0  0
  187.9540  178.8170  140.8590 O   0  0  0  0  0  0  0  0  0  0  0  0
  187.0120  178.2950  138.8010 C   0  0  2  0  0  3  0  0  0  0  0  0
  186.4220  177.3330  143.0850 C   0  0  0  0  0  2  0  0  0  0  0  0
  190.3730  176.3060  141.5060 C   0  0  0  0  0  2  0  0  0  0  0  0
  187.4940  177.2110  137.8650 C   0  0  0  0  0  0  0  0  0  0  0  0
  188.3610  175.1580  136.1670 C   0  0  0  0  0  0  0  0  0  0  0  0
  187.3110  174.9310  137.0590 C   0  0  0  0  0  3  0  0  0  0  0  0
  186.8790  175.9550  137.9080 C   0  0  0  0  0  3  0  0  0  0  0  0
  188.9840  176.4090  136.1230 C   0  0  0  0  0  3  0  0  0  0  0  0
  188.5540  177.4330  136.9710 C   0  0  0  0  0  3  0  0  0  0  0  0
  189.1600  173.2580  134.5940 N   0  0  0  0  0  0  0  0  0  0  0  0
  188.8040  174.1060  135.2960 C   0  0  0  0  0  0  0  0  0  0  0  0
  192.2450  177.9540  141.6810 C   0  0  0  0  0  2  0  0  0  0  0  0
  192.6740  177.1080  140.6580 O   0  0  0  0  0  1  0  0  0  0  0  0
  183.5770  179.4250  139.9450 C   0  0  1  0  0  3  0  0  0  0  0  0
  183.1290  180.3800  138.8530 C   0  0  0  0  0  1  0  0  0  0  0  0
  182.5310  177.9260  139.9780 S   0  0  0  0  0  0  0  0  0  0  0  0
  180.9900  178.8760  140.1330 C   0  0  2  0  0  3  0  0  0  0  0  0
  180.8060  179.2870  141.5810 C   0  0  0  0  0  1  0  0  0  0  0  0
  179.8640  178.0560  139.7100 N   0  0  0  0  0  2  0  0  0  0  0  0
  179.9670  175.9890  138.6520 O   0  0  0  0  0  1  0  0  0  0  0  0
  180.2600  176.6620  139.8360 C   0  0  0  0  0  3  0  0  0  0  0  0
  179.5650  176.0690  140.8900 O   0  0  0  0  0  1  0  0  0  0  0  0
  190.8670  179.3070  143.9930 C   0  0  0  0  0  2  0  0  0  0  0  0
  191.0900  177.9450  145.7150 C   0  0  0  0  0  1  0  0  0  0  0  0
  191.8180  178.5700  144.7030 O   0  0  0  0  0  0  0  0  0  0  0  0
  1 14  1  0  0  0  0
  3 11  1  0  0  0  0
  3  2  1  1  0  0  0
  3 17  1  0  0  0  0
  5  3  1  0  0  0  0
  6  8  1  0  0  0  0
  7 29  1  0  0  0  0
  7  5  1  0  0  0  0
  8 17  1  0  0  0  0
  8  4  1  0  0  0  0
  9  4  1  0  0  0  0
  9 38  1  0  0  0  0
 10  6  1  0  0  0  0
 10 18  1  0  0  0  0
 12  5  1  0  0  0  0
 12 15  1  0  0  0  0
 12  6  1  0  0  0  0
 13  9  1  0  0  0  0
 14 16  1  0  0  0  0
 14  7  1  0  0  0  0
 15  6  1  0  0  0  0
 16 12  1  0  0  0  0
 18 13  1  0  0  0  0
 19 22  1  0  0  0  0
 19 16  1  0  0  0  0
 20 21  1  0  0  0  0
 21 22  2  0  0  0  0
 23 20  2  0  0  0  0
 23 24  1  0  0  0  0
 24 19  2  0  0  0  0
 25 26  3  0  0  0  0
 26 20  1  0  0  0  0
 27 13  1  0  0  0  0
 28 27  1  0  0  0  0
 29 31  1  0  0  0  0
 30 29  1  0  0  0  0
 31 32  1  0  0  0  0
 32 33  1  0  0  0  0
 34 36  1  0  0  0  0
 34 32  1  0  0  0  0
 35 36  1  0  0  0  0
 36 37  1  0  0  0  0
 38 40  1  0  0  0  0
 40 39  1  0  0  0  0
M  END
>  <MODEL>
2

>  <REMARK>
 VINA RESULT:      -4.9      3.344      9.382
  Name = 
  10 active torsions:
  status: ('A' for Active; 'I' for Inactive)
    1  A    between atoms: C_7  and  C_21
    2  A    between atoms: C_9  and  C_20
    3  A    between atoms: C_10  and  C_30
    4  A    between atoms: C_14  and  N_29
    5  A    between atoms: C_14  and  S_32
    6  A    between atoms: C_16  and  C_36
    7  A    between atoms: O_19  and  C_30
    8  A    between atoms: C_21  and  S_32
    9  A    between atoms: C_22  and  C_40
   10  A    between atoms: C_24  and  N_29
                            x       y       z     vdW  Elec       q    Type
                         _______ _______ _______ _____ _____    ______ ____

>  <TORSDO>
F 10

$$$$
=
 OpenBabel10222415403D

 40 44  0  0  1  0  0  0  0  0999 V2000
  186.2020  178.1290  138.1550 C   0  0  0  0  0  1  0  0  0  0  0  0
  183.9140  177.8860  142.7720 C   0  0  0  0  0  1  0  0  0  0  0  0
  185.4240  177.9960  142.7640 C   0  0  1  0  0  0  0  0  0  0  0  0
  188.0590  177.3080  144.9390 C   0  0  0  0  0  2  0  0  0  0  0  0
  185.9590  177.8800  141.3210 C   0  0  1  0  0  3  0  0  0  0  0  0
  188.2470  177.1820  142.3530 C   0  0  1  0  0  0  0  0  0  0  0  0
  185.7180  179.0370  140.3580 C   0  0  1  0  0  3  0  0  0  0  0  0
  187.5110  176.7180  143.6320 C   0  0  2  0  0  3  0  0  0  0  0  0
  189.4810  177.8860  144.8560 C   0  0  2  0  0  3  0  0  0  0  0  0
  189.6920  176.7510  142.1030 C   0  0  0  0  0  2  0  0  0  0  0  0
  185.7860  179.2140  143.3480 O   0  0  0  0  0  1  0  0  0  0  0  0
  187.4600  177.7570  141.2260 C   0  0  2  0  0  0  0  0  0  0  0  0
  190.5810  176.8610  144.5050 C   0  0  1  0  0  3  0  0  0  0  0  0
  186.7160  178.9430  139.2600 N   0  0  0  0  0  0  0  0  0  0  0  0
  188.1020  178.5650  142.1950 O   0  0  0  0  0  0  0  0  0  0  0  0
  187.9080  178.3170  139.8930 C   0  0  2  0  0  3  0  0  0  0  0  0
  185.9750  176.8230  143.5890 C   0  0  0  0  0  2  0  0  0  0  0  0
  190.2580  175.9730  143.2920 C   0  0  0  0  0  2  0  0  0  0  0  0
  188.7080  177.3570  139.0430 C   0  0  0  0  0  0  0  0  0  0  0  0
  190.2370  175.6190  137.4650 C   0  0  0  0  0  0  0  0  0  0  0  0
  190.8570  176.6600  138.1620 C   0  0  0  0  0  3  0  0  0  0  0  0
  190.0930  177.5290  138.9480 C   0  0  0  0  0  3  0  0  0  0  0  0
  188.8530  175.4460  137.5510 C   0  0  0  0  0  3  0  0  0  0  0  0
  188.0880  176.3140  138.3360 C   0  0  0  0  0  3  0  0  0  0  0  0
  191.6560  174.0090  136.0080 N   0  0  0  0  0  0  0  0  0  0  0  0
  191.0220  174.7280  136.6590 C   0  0  0  0  0  0  0  0  0  0  0  0
  191.9110  177.5690  144.2760 C   0  0  0  0  0  2  0  0  0  0  0  0
  191.6970  178.8060  143.6680 O   0  0  0  0  0  1  0  0  0  0  0  0
  184.2510  179.3210  139.9660 C   0  0  1  0  0  3  0  0  0  0  0  0
  184.1560  180.4020  138.9050 C   0  0  0  0  0  1  0  0  0  0  0  0
  183.3010  177.8360  139.4810 S   0  0  0  0  0  0  0  0  0  0  0  0
  181.6960  178.6480  139.7430 C   0  0  2  0  0  3  0  0  0  0  0  0
  180.8920  177.8420  140.7440 C   0  0  0  0  0  1  0  0  0  0  0  0
  180.9740  178.7240  138.4820 N   0  0  0  0  0  2  0  0  0  0  0  0
  181.0250  180.6690  137.2080 O   0  0  0  0  0  1  0  0  0  0  0  0
  180.4690  180.0810  138.3430 C   0  0  0  0  0  3  0  0  0  0  0  0
  180.8160  180.8300  139.4680 O   0  0  0  0  0  1  0  0  0  0  0  0
  189.8030  178.6290  146.1500 C   0  0  0  0  0  2  0  0  0  0  0  0
  189.0510  178.2480  148.1900 C   0  0  0  0  0  1  0  0  0  0  0  0
  189.9110  177.7360  147.2190 O   0  0  0  0  0  0  0  0  0  0  0  0
  1 14  1  0  0  0  0
  3  2  1  6  0  0  0
  3 11  1  0  0  0  0
  3 17  1  0  0  0  0
  5  3  1  0  0  0  0
  6  8  1  0  0  0  0
  7  5  1  0  0  0  0
  8  4  1  0  0  0  0
  9  4  1  0  0  0  0
  9 38  1  0  0  0  0
 10  6  1  0  0  0  0
 10 18  1  0  0  0  0
 12  5  1  0  0  0  0
 12 15  1  0  0  0  0
 12  6  1  0  0  0  0
 13  9  1  0  0  0  0
 14 16  1  0  0  0  0
 14  7  1  0  0  0  0
 15  6  1  0  0  0  0
 16 12  1  0  0  0  0
 17  8  1  0  0  0  0
 18 13  1  0  0  0  0
 19 16  1  0  0  0  0
 20 23  2  0  0  0  0
 20 21  1  0  0  0  0
 21 22  2  0  0  0  0
 22 19  1  0  0  0  0
 23 24  1  0  0  0  0
 24 19  2  0  0  0  0
 25 26  3  0  0  0  0
 26 20  1  0  0  0  0
 27 13  1  0  0  0  0
 28 27  1  0  0  0  0
 29  7  1  0  0  0  0
 30 29  1  0  0  0  0
 31 32  1  0  0  0  0
 31 29  1  0  0  0  0
 32 33  1  0  0  0  0
 34 32  1  0  0  0  0
 35 36  1  0  0  0  0
 36 34  1  0  0  0  0
 36 37  1  0  0  0  0
 38 40  1  0  0  0  0
 40 39  1  0  0  0  0
M  END
>  <MODEL>
3

>  <REMARK>
 VINA RESULT:      -4.6      3.409      9.292
  Name = 
  10 active torsions:
  status: ('A' for Active; 'I' for Inactive)
    1  A    between atoms: C_7  and  C_21
    2  A    between atoms: C_9  and  C_20
    3  A    between atoms: C_10  and  C_30
    4  A    between atoms: C_14  and  N_29
    5  A    between atoms: C_14  and  S_32
    6  A    between atoms: C_16  and  C_36
    7  A    between atoms: O_19  and  C_30
    8  A    between atoms: C_21  and  S_32
    9  A    between atoms: C_22  and  C_40
   10  A    between atoms: C_24  and  N_29
                            x       y       z     vdW  Elec       q    Type
                         _______ _______ _______ _____ _____    ______ ____

>  <TORSDO>
F 10

$$$$
=
 OpenBabel10222415403D

 40 44  0  0  1  0  0  0  0  0999 V2000
  189.6160  176.8200  138.4550 C   0  0  0  0  0  1  0  0  0  0  0  0
  186.6590  174.4700  134.9420 C   0  0  0  0  0  1  0  0  0  0  0  0
  186.0330  175.6220  135.7000 C   0  0  1  0  0  0  0  0  0  0  0  0
  182.8250  176.7600  136.4500 C   0  0  0  0  0  2  0  0  0  0  0  0
  186.9780  176.0950  136.8250 C   0  0  1  0  0  3  0  0  0  0  0  0
  184.8840  177.1160  137.9910 C   0  0  1  0  0  0  0  0  0  0  0  0
  188.2520  176.8400  136.4430 C   0  0  1  0  0  3  0  0  0  0  0  0
  183.9880  176.1180  137.2210 C   0  0  2  0  0  3  0  0  0  0  0  0
  182.4460  178.1820  136.8940 C   0  0  2  0  0  3  0  0  0  0  0  0
  184.3240  177.8760  139.1940 C   0  0  0  0  0  2  0  0  0  0  0  0
  185.7560  176.6520  134.7970 O   0  0  0  0  0  1  0  0  0  0  0  0
  186.3580  177.0890  137.7760 C   0  0  2  0  0  0  0  0  0  0  0  0
  181.9410  178.2960  138.3490 C   0  0  1  0  0  3  0  0  0  0  0  0
  188.7080  177.6170  137.6260 N   0  0  0  0  0  0  0  0  0  0  0  0
  185.5070  177.9900  137.0920 O   0  0  0  0  0  0  0  0  0  0  0  0
  187.4570  177.9550  138.3540 C   0  0  2  0  0  3  0  0  0  0  0  0
  184.7340  175.1030  136.3350 C   0  0  0  0  0  2  0  0  0  0  0  0
  182.8330  177.5970  139.3880 C   0  0  0  0  0  2  0  0  0  0  0  0
  187.5250  177.9620  139.8640 C   0  0  0  0  0  0  0  0  0  0  0  0
  187.6850  177.9200  142.6610 C   0  0  0  0  0  0  0  0  0  0  0  0
  188.6090  177.2030  141.8970 C   0  0  0  0  0  3  0  0  0  0  0  0
  188.5280  177.2210  140.5010 C   0  0  0  0  0  3  0  0  0  0  0  0
  186.6780  178.6560  142.0310 C   0  0  0  0  0  3  0  0  0  0  0  0
  186.5950  178.6760  140.6360 C   0  0  0  0  0  3  0  0  0  0  0  0
  187.8370  177.8850  145.2490 N   0  0  0  0  0  0  0  0  0  0  0  0
  187.7690  177.9010  144.0940 C   0  0  0  0  0  0  0  0  0  0  0  0
  181.7650  179.7600  138.7340 C   0  0  0  0  0  2  0  0  0  0  0  0
  180.4570  179.9900  139.1590 O   0  0  0  0  0  1  0  0  0  0  0  0
  189.3170  176.0400  135.6610 C   0  0  1  0  0  3  0  0  0  0  0  0
  190.4240  176.9400  135.1440 C   0  0  0  0  0  1  0  0  0  0  0  0
  190.0020  174.6100  136.5710 S   0  0  0  0  0  0  0  0  0  0  0  0
  191.7090  174.9700  136.0620 C   0  0  2  0  0  3  0  0  0  0  0  0
  192.1910  173.8710  135.1350 C   0  0  0  0  0  1  0  0  0  0  0  0
  192.5680  175.0320  137.2350 N   0  0  0  0  0  2  0  0  0  0  0  0
  194.6700  175.8750  136.7080 O   0  0  0  0  0  1  0  0  0  0  0  0
  193.3870  176.2290  137.1210 C   0  0  0  0  0  3  0  0  0  0  0  0
  193.4590  176.8700  138.3580 O   0  0  0  0  0  1  0  0  0  0  0  0
  181.4410  178.7700  135.9070 C   0  0  0  0  0  2  0  0  0  0  0  0
  179.5940  177.9020  135.0670 C   0  0  0  0  0  1  0  0  0  0  0  0
  180.9820  177.7880  135.0240 O   0  0  0  0  0  0  0  0  0  0  0  0
  3  2  1  6  0  0  0
  3 17  1  0  0  0  0
  3  5  1  0  0  0  0
  4  9  1  0  0  0  0
  4  8  1  0  0  0  0
  5 12  1  0  0  0  0
  6 10  1  0  0  0  0
  7  5  1  0  0  0  0
  7 14  1  0  0  0  0
  8  6  1  0  0  0  0
  9 13  1  0  0  0  0
 10 18  1  0  0  0  0
 11  3  1  0  0  0  0
 12  6  1  0  0  0  0
 12 16  1  0  0  0  0
 13 27  1  0  0  0  0
 13 18  1  0  0  0  0
 14 16  1  0  0  0  0
 14  1  1  0  0  0  0
 15 12  1  0  0  0  0
 15  6  1  0  0  0  0
 16 19  1  0  0  0  0
 17  8  1  0  0  0  0
 19 22  2  0  0  0  0
 19 24  1  0  0  0  0
 20 26  1  0  0  0  0
 21 20  2  0  0  0  0
 22 21  1  0  0  0  0
 23 20  1  0  0  0  0
 24 23  2  0  0  0  0
 26 25  3  0  0  0  0
 27 28  1  0  0  0  0
 29  7  1  0  0  0  0
 29 31  1  0  0  0  0
 30 29  1  0  0  0  0
 32 31  1  0  0  0  0
 32 34  1  0  0  0  0
 33 32  1  0  0  0  0
 35 36  1  0  0  0  0
 36 34  1  0  0  0  0
 36 37  1  0  0  0  0
 38  9  1  0  0  0  0
 40 39  1  0  0  0  0
 40 38  1  0  0  0  0
M  END
>  <MODEL>
4

>  <REMARK>
 VINA RESULT:      -4.5      1.730      2.362
  Name = 
  10 active torsions:
  status: ('A' for Active; 'I' for Inactive)
    1  A    between atoms: C_7  and  C_21
    2  A    between atoms: C_9  and  C_20
    3  A    between atoms: C_10  and  C_30
    4  A    between atoms: C_14  and  N_29
    5  A    between atoms: C_14  and  S_32
    6  A    between atoms: C_16  and  C_36
    7  A    between atoms: O_19  and  C_30
    8  A    between atoms: C_21  and  S_32
    9  A    between atoms: C_22  and  C_40
   10  A    between atoms: C_24  and  N_29
                            x       y       z     vdW  Elec       q    Type
                         _______ _______ _______ _____ _____    ______ ____

>  <TORSDO>
F 10

$$$$
=
 OpenBabel10222415403D

 40 44  0  0  1  0  0  0  0  0999 V2000
  183.9420  177.7370  136.0650 C   0  0  0  0  0  1  0  0  0  0  0  0
  189.0900  177.8240  136.3740 C   0  0  0  0  0  1  0  0  0  0  0  0
  188.3320  177.6140  137.6690 C   0  0  1  0  0  0  0  0  0  0  0  0
  188.9330  177.9780  141.0820 C   0  0  0  0  0  2  0  0  0  0  0  0
  186.8170  177.7900  137.4330 C   0  0  1  0  0  3  0  0  0  0  0  0
  186.5970  178.2630  139.9860 C   0  0  1  0  0  0  0  0  0  0  0  0
  186.0710  176.7190  136.6460 C   0  0  1  0  0  3  0  0  0  0  0  0
  188.0840  178.6890  140.0180 C   0  0  2  0  0  3  0  0  0  0  0  0
  188.1410  177.3140  142.2200 C   0  0  2  0  0  3  0  0  0  0  0  0
  185.6750  178.6130  141.1540 C   0  0  0  0  0  2  0  0  0  0  0  0
  188.6300  176.3390  138.1570 O   0  0  0  0  0  1  0  0  0  0  0  0
  185.9940  177.8190  138.6980 C   0  0  2  0  0  0  0  0  0  0  0  0
  187.3170  178.2840  143.0940 C   0  0  1  0  0  3  0  0  0  0  0  0
  184.6260  176.8190  136.9790 N   0  0  0  0  0  0  0  0  0  0  0  0
  186.4970  176.9070  139.6560 O   0  0  0  0  0  0  0  0  0  0  0  0
  184.6010  177.3200  138.3790 C   0  0  2  0  0  3  0  0  0  0  0  0
  188.8050  178.6900  138.6580 C   0  0  0  0  0  2  0  0  0  0  0  0
  186.4460  179.2710  142.2990 C   0  0  0  0  0  2  0  0  0  0  0  0
  183.4910  178.2790  138.7420 C   0  0  0  0  0  0  0  0  0  0  0  0
  181.3920  180.0090  139.4130 C   0  0  0  0  0  0  0  0  0  0  0  0
  181.2630  178.6350  139.6330 C   0  0  0  0  0  3  0  0  0  0  0  0
  182.3100  177.7720  139.2960 C   0  0  0  0  0  3  0  0  0  0  0  0
  182.5650  180.5220  138.8540 C   0  0  0  0  0  3  0  0  0  0  0  0
  183.6120  179.6600  138.5160 C   0  0  0  0  0  3  0  0  0  0  0  0
  179.4490  181.6100  140.0390 N   0  0  0  0  0  0  0  0  0  0  0  0
  180.3160  180.8950  139.7600 C   0  0  0  0  0  0  0  0  0  0  0  0
  186.4420  177.5060  144.0690 C   0  0  0  0  0  2  0  0  0  0  0  0
  185.6050  178.3780  144.7630 O   0  0  0  0  0  1  0  0  0  0  0  0
  186.4510  176.5600  135.1570 C   0  0  1  0  0  3  0  0  0  0  0  0
  187.1090  177.8150  134.6120 C   0  0  0  0  0  1  0  0  0  0  0  0
  187.4560  175.0770  134.7900 S   0  0  0  0  0  0  0  0  0  0  0  0
  186.6600  174.0870  136.0900 C   0  0  2  0  0  3  0  0  0  0  0  0
  187.6780  173.1250  136.6710 C   0  0  0  0  0  1  0  0  0  0  0  0
  185.5470  173.3390  135.5240 N   0  0  0  0  0  2  0  0  0  0  0  0
  184.5480  171.2740  135.9020 O   0  0  0  0  0  1  0  0  0  0  0  0
  185.0940  172.3920  136.5300 C   0  0  0  0  0  3  0  0  0  0  0  0
  184.1230  172.9900  137.3360 O   0  0  0  0  0  1  0  0  0  0  0  0
  189.0870  176.4660  143.0670 C   0  0  0  0  0  2  0  0  0  0  0  0
  191.2590  176.1870  143.3420 C   0  0  0  0  0  1  0  0  0  0  0  0
  190.2640  176.1870  142.3670 O   0  0  0  0  0  0  0  0  0  0  0  0
  1 14  1  0  0  0  0
  3  2  1  6  0  0  0
  3 11  1  0  0  0  0
  3 17  1  0  0  0  0
  4  9  1  0  0  0  0
  5  3  1  0  0  0  0
  5 12  1  0  0  0  0
  6  8  1  0  0  0  0
  6 10  1  0  0  0  0
  7 14  1  0  0  0  0
  7  5  1  0  0  0  0
  8  4  1  0  0  0  0
  9 38  1  0  0  0  0
  9 13  1  0  0  0  0
 10 18  1  0  0  0  0
 12 15  1  0  0  0  0
 12  6  1  0  0  0  0
 13 27  1  0  0  0  0
 14 16  1  0  0  0  0
 15  6  1  0  0  0  0
 16 12  1  0  0  0  0
 16 19  1  0  0  0  0
 17  8  1  0  0  0  0
 18 13  1  0  0  0  0
 19 22  1  0  0  0  0
 20 21  1  0  0  0  0
 20 26  1  0  0  0  0
 22 21  2  0  0  0  0
 23 20  2  0  0  0  0
 24 19  2  0  0  0  0
 24 23  1  0  0  0  0
 26 25  3  0  0  0  0
 27 28  1  0  0  0  0
 29  7  1  0  0  0  0
 30 29  1  0  0  0  0
 31 29  1  0  0  0  0
 31 32  1  0  0  0  0
 32 33  1  0  0  0  0
 34 32  1  0  0  0  0
 34 36  1  0  0  0  0
 35 36  1  0  0  0  0
 36 37  1  0  0  0  0
 40 38  1  0  0  0  0
 40 39  1  0  0  0  0
M  END
>  <MODEL>
5

>  <REMARK>
 VINA RESULT:      -4.5      3.675      6.830
  Name = 
  10 active torsions:
  status: ('A' for Active; 'I' for Inactive)
    1  A    between atoms: C_7  and  C_21
    2  A    between atoms: C_9  and  C_20
    3  A    between atoms: C_10  and  C_30
    4  A    between atoms: C_14  and  N_29
    5  A    between atoms: C_14  and  S_32
    6  A    between atoms: C_16  and  C_36
    7  A    between atoms: O_19  and  C_30
    8  A    between atoms: C_21  and  S_32
    9  A    between atoms: C_22  and  C_40
   10  A    between atoms: C_24  and  N_29
                            x       y       z     vdW  Elec       q    Type
                         _______ _______ _______ _____ _____    ______ ____

>  <TORSDO>
F 10

$$$$
=
 OpenBabel10222415403D

 40 44  0  0  1  0  0  0  0  0999 V2000
  192.2190  177.2640  138.7840 C   0  0  0  0  0  1  0  0  0  0  0  0
  187.3020  177.7750  137.3110 C   0  0  0  0  0  1  0  0  0  0  0  0
  187.8950  176.3830  137.2370 C   0  0  1  0  0  0  0  0  0  0  0  0
  187.2360  173.3970  135.5650 C   0  0  0  0  0  2  0  0  0  0  0  0
  189.4080  176.4330  137.5390 C   0  0  1  0  0  3  0  0  0  0  0  0
  189.6130  174.1640  136.2740 C   0  0  1  0  0  0  0  0  0  0  0  0
  189.8590  176.7140  138.9680 C   0  0  1  0  0  3  0  0  0  0  0  0
  188.3110  174.4930  135.5070 C   0  0  2  0  0  3  0  0  0  0  0  0
  187.7410  172.0010  135.9650 C   0  0  2  0  0  3  0  0  0  0  0  0
  190.5310  173.0460  135.7810 C   0  0  0  0  0  2  0  0  0  0  0  0
  187.2190  175.5620  138.1440 O   0  0  0  0  0  1  0  0  0  0  0  0
  190.1340  175.1360  137.2770 C   0  0  2  0  0  0  0  0  0  0  0  0
  188.7580  171.3720  134.9890 C   0  0  1  0  0  3  0  0  0  0  0  0
  191.2510  176.2180  139.1220 N   0  0  0  0  0  0  0  0  0  0  0  0
  189.3390  174.0230  137.6400 O   0  0  0  0  0  0  0  0  0  0  0  0
  191.3420  175.0660  138.1870 C   0  0  2  0  0  3  0  0  0  0  0  0
  187.6970  175.8740  135.8020 C   0  0  0  0  0  2  0  0  0  0  0  0
  189.9180  172.3010  134.5940 C   0  0  0  0  0  2  0  0  0  0  0  0
  192.6580  174.8670  137.4720 C   0  0  0  0  0  0  0  0  0  0  0  0
  195.1270  174.4950  136.2010 C   0  0  0  0  0  0  0  0  0  0  0  0
  194.9510  174.0790  137.5230 C   0  0  0  0  0  3  0  0  0  0  0  0
  193.7190  174.2670  138.1580 C   0  0  0  0  0  3  0  0  0  0  0  0
  194.0730  175.1000  135.5120 C   0  0  0  0  0  3  0  0  0  0  0  0
  192.8410  175.2890  136.1450 C   0  0  0  0  0  3  0  0  0  0  0  0
  197.4120  174.1460  135.0250 N   0  0  0  0  0  0  0  0  0  0  0  0
  196.3920  174.3010  135.5500 C   0  0  0  0  0  0  0  0  0  0  0  0
  189.3190  170.0800  135.5700 C   0  0  0  0  0  2  0  0  0  0  0  0
  190.3870  169.6290  134.7950 O   0  0  0  0  0  1  0  0  0  0  0  0
  189.5320  178.1130  139.5370 C   0  0  1  0  0  3  0  0  0  0  0  0
  189.1400  179.0840  138.4390 C   0  0  0  0  0  1  0  0  0  0  0  0
  188.2960  178.1080  140.8840 S   0  0  0  0  0  0  0  0  0  0  0  0
  189.4400  177.3470  142.0740 C   0  0  2  0  0  3  0  0  0  0  0  0
  188.7170  176.2410  142.8170 C   0  0  0  0  0  1  0  0  0  0  0  0
  189.9030  178.3510  143.0200 N   0  0  0  0  0  2  0  0  0  0  0  0
  191.7790  177.0640  142.5410 O   0  0  0  0  0  1  0  0  0  0  0  0
  191.2380  177.9680  143.4530 C   0  0  0  0  0  3  0  0  0  0  0  0
  191.1720  177.3710  144.7120 O   0  0  0  0  0  1  0  0  0  0  0  0
  186.5460  171.0790  136.1980 C   0  0  0  0  0  2  0  0  0  0  0  0
  184.9390  170.3690  134.8640 C   0  0  0  0  0  1  0  0  0  0  0  0
  185.4340  171.5190  135.4760 O   0  0  0  0  0  0  0  0  0  0  0  0
  1 14  1  0  0  0  0
  3  2  1  1  0  0  0
  3  5  1  0  0  0  0
  3 11  1  0  0  0  0
  4  9  1  0  0  0  0
  5  7  1  0  0  0  0
  6 12  1  0  0  0  0
  6 15  1  0  0  0  0
  7 14  1  0  0  0  0
  7 29  1  0  0  0  0
  8  4  1  0  0  0  0
  8 17  1  0  0  0  0
  8  6  1  0  0  0  0
  9 38  1  0  0  0  0
 10  6  1  0  0  0  0
 12  5  1  0  0  0  0
 12 15  1  0  0  0  0
 12 16  1  0  0  0  0
 13 27  1  0  0  0  0
 13  9  1  0  0  0  0
 16 14  1  0  0  0  0
 17  3  1  0  0  0  0
 18 13  1  0  0  0  0
 18 10  1  0  0  0  0
 19 22  1  0  0  0  0
 19 16  1  0  0  0  0
 20 21  1  0  0  0  0
 21 22  2  0  0  0  0
 23 24  1  0  0  0  0
 23 20  2  0  0  0  0
 24 19  2  0  0  0  0
 25 26  3  0  0  0  0
 26 20  1  0  0  0  0
 28 27  1  0  0  0  0
 29 31  1  0  0  0  0
 30 29  1  0  0  0  0
 31 32  1  0  0  0  0
 32 33  1  0  0  0  0
 32 34  1  0  0  0  0
 34 36  1  0  0  0  0
 35 36  1  0  0  0  0
 36 37  1  0  0  0  0
 39 40  1  0  0  0  0
 40 38  1  0  0  0  0
M  END
>  <MODEL>
6

>  <REMARK>
 VINA RESULT:      -4.4      4.657      8.948
  Name = 
  10 active torsions:
  status: ('A' for Active; 'I' for Inactive)
    1  A    between atoms: C_7  and  C_21
    2  A    between atoms: C_9  and  C_20
    3  A    between atoms: C_10  and  C_30
    4  A    between atoms: C_14  and  N_29
    5  A    between atoms: C_14  and  S_32
    6  A    between atoms: C_16  and  C_36
    7  A    between atoms: O_19  and  C_30
    8  A    between atoms: C_21  and  S_32
    9  A    between atoms: C_22  and  C_40
   10  A    between atoms: C_24  and  N_29
                            x       y       z     vdW  Elec       q    Type
                         _______ _______ _______ _____ _____    ______ ____

>  <TORSDO>
F 10

$$$$
=
 OpenBabel10222415403D

 40 44  0  0  1  0  0  0  0  0999 V2000
  187.6310  177.8490  139.9780 C   0  0  0  0  0  1  0  0  0  0  0  0
  192.6180  178.2530  141.2350 C   0  0  0  0  0  1  0  0  0  0  0  0
  191.6880  177.7100  142.3000 C   0  0  1  0  0  0  0  0  0  0  0  0
  191.6790  177.3650  145.7680 C   0  0  0  0  0  2  0  0  0  0  0  0
  190.2210  177.8190  141.8320 C   0  0  1  0  0  3  0  0  0  0  0  0
  189.5370  177.7060  144.3430 C   0  0  1  0  0  0  0  0  0  0  0  0
  189.7380  176.8920  140.7220 C   0  0  1  0  0  3  0  0  0  0  0  0
  190.9400  178.2250  144.7320 C   0  0  2  0  0  3  0  0  0  0  0  0
  190.7930  176.4100  146.5840 C   0  0  2  0  0  3  0  0  0  0  0  0
  188.4030  177.7220  145.3680 C   0  0  0  0  0  2  0  0  0  0  0  0
  192.0430  176.3840  142.5670 O   0  0  0  0  0  1  0  0  0  0  0  0
  189.2050  177.5090  142.9030 C   0  0  2  0  0  0  0  0  0  0  0  0
  189.7340  177.1020  147.4690 C   0  0  1  0  0  3  0  0  0  0  0  0
  188.2560  176.8080  140.7980 N   0  0  0  0  0  0  0  0  0  0  0  0
  189.6440  176.4500  143.7340 O   0  0  0  0  0  0  0  0  0  0  0  0
  187.9470  176.9880  142.2410 C   0  0  2  0  0  3  0  0  0  0  0  0
  191.8690  178.5760  143.5550 C   0  0  0  0  0  2  0  0  0  0  0  0
  188.8990  178.1700  146.7440 C   0  0  0  0  0  2  0  0  0  0  0  0
  186.6920  177.7590  142.5800 C   0  0  0  0  0  0  0  0  0  0  0  0
  184.3510  179.1440  143.2520 C   0  0  0  0  0  0  0  0  0  0  0  0
  184.8950  178.2160  144.1430 C   0  0  0  0  0  3  0  0  0  0  0  0
  186.0620  177.5230  143.8070 C   0  0  0  0  0  3  0  0  0  0  0  0
  184.9720  179.3800  142.0220 C   0  0  0  0  0  3  0  0  0  0  0  0
  186.1390  178.6880  141.6850 C   0  0  0  0  0  3  0  0  0  0  0  0
  182.1860  180.4280  143.8770 N   0  0  0  0  0  0  0  0  0  0  0  0
  183.1530  179.8550  143.5980 C   0  0  0  0  0  0  0  0  0  0  0  0
  188.8050  176.0660  148.0900 C   0  0  0  0  0  2  0  0  0  0  0  0
  187.7320  176.7000  148.7190 O   0  0  0  0  0  1  0  0  0  0  0  0
  190.3710  177.0910  139.3270 C   0  0  1  0  0  3  0  0  0  0  0  0
  190.7720  175.7670  138.7010 C   0  0  0  0  0  1  0  0  0  0  0  0
  189.3550  178.0820  138.1740 S   0  0  0  0  0  0  0  0  0  0  0  0
  189.1990  176.7230  136.9770 C   0  0  2  0  0  3  0  0  0  0  0  0
  189.8820  177.1230  135.6840 C   0  0  0  0  0  1  0  0  0  0  0  0
  187.7910  176.4530  136.7240 N   0  0  0  0  0  2  0  0  0  0  0  0
  188.1360  174.1760  136.4040 O   0  0  0  0  0  1  0  0  0  0  0  0
  187.5030  175.1150  137.2160 C   0  0  0  0  0  3  0  0  0  0  0  0
  186.1250  174.8920  137.1940 O   0  0  0  0  0  1  0  0  0  0  0  0
  191.6770  175.4720  147.4020 C   0  0  0  0  0  2  0  0  0  0  0  0
  193.1750  175.9550  148.9490 C   0  0  0  0  0  1  0  0  0  0  0  0
  192.9510  176.0190  147.5750 O   0  0  0  0  0  0  0  0  0  0  0  0
  1 14  1  0  0  0  0
  3  2  1  6  0  0  0
  3 11  1  0  0  0  0
  3 17  1  0  0  0  0
  4  9  1  0  0  0  0
  5  3  1  0  0  0  0
  5 12  1  0  0  0  0
  6  8  1  0  0  0  0
  6 10  1  0  0  0  0
  7 14  1  0  0  0  0
  7  5  1  0  0  0  0
  8  4  1  0  0  0  0
  9 38  1  0  0  0  0
  9 13  1  0  0  0  0
 10 18  1  0  0  0  0
 12 15  1  0  0  0  0
 12  6  1  0  0  0  0
 13 27  1  0  0  0  0
 14 16  1  0  0  0  0
 15  6  1  0  0  0  0
 16 19  1  0  0  0  0
 16 12  1  0  0  0  0
 17  8  1  0  0  0  0
 18 13  1  0  0  0  0
 19 22  1  0  0  0  0
 20 26  1  0  0  0  0
 20 21  1  0  0  0  0
 22 21  2  0  0  0  0
 23 20  2  0  0  0  0
 24 23  1  0  0  0  0
 24 19  2  0  0  0  0
 26 25  3  0  0  0  0
 27 28  1  0  0  0  0
 29  7  1  0  0  0  0
 30 29  1  0  0  0  0
 31 29  1  0  0  0  0
 32 31  1  0  0  0  0
 33 32  1  0  0  0  0
 34 32  1  0  0  0  0
 34 36  1  0  0  0  0
 35 36  1  0  0  0  0
 37 36  1  0  0  0  0
 38 40  1  0  0  0  0
 40 39  1  0  0  0  0
M  END
>  <MODEL>
7

>  <REMARK>
 VINA RESULT:      -4.3      4.228      8.290
  Name = 
  10 active torsions:
  status: ('A' for Active; 'I' for Inactive)
    1  A    between atoms: C_7  and  C_21
    2  A    between atoms: C_9  and  C_20
    3  A    between atoms: C_10  and  C_30
    4  A    between atoms: C_14  and  N_29
    5  A    between atoms: C_14  and  S_32
    6  A    between atoms: C_16  and  C_36
    7  A    between atoms: O_19  and  C_30
    8  A    between atoms: C_21  and  S_32
    9  A    between atoms: C_22  and  C_40
   10  A    between atoms: C_24  and  N_29
                            x       y       z     vdW  Elec       q    Type
                         _______ _______ _______ _____ _____    ______ ____

>  <TORSDO>
F 10

$$$$
=
 OpenBabel10222415403D

 40 44  0  0  1  0  0  0  0  0999 V2000
  187.4840  177.4380  139.3380 C   0  0  0  0  0  1  0  0  0  0  0  0
  184.4420  175.3340  135.7420 C   0  0  0  0  0  1  0  0  0  0  0  0
  183.8700  176.4990  136.5230 C   0  0  1  0  0  0  0  0  0  0  0  0
  180.7190  177.7850  137.2740 C   0  0  0  0  0  2  0  0  0  0  0  0
  184.8270  176.8940  137.6680 C   0  0  1  0  0  3  0  0  0  0  0  0
  182.7780  177.9950  138.8410 C   0  0  1  0  0  0  0  0  0  0  0  0
  186.1420  177.5800  137.3160 C   0  0  1  0  0  3  0  0  0  0  0  0
  181.8390  177.0650  138.0380 C   0  0  2  0  0  3  0  0  0  0  0  0
  180.4100  179.2140  137.7500 C   0  0  2  0  0  3  0  0  0  0  0  0
  182.2470  178.7530  140.0570 C   0  0  0  0  0  2  0  0  0  0  0  0
  183.6570  177.5640  135.6440 O   0  0  0  0  0  1  0  0  0  0  0  0
  184.2510  177.8950  138.6380 C   0  0  2  0  0  0  0  0  0  0  0  0
  179.8980  179.3200  139.2030 C   0  0  1  0  0  3  0  0  0  0  0  0
  186.6270  178.3020  138.5210 N   0  0  0  0  0  0  0  0  0  0  0  0
  183.4550  178.8560  137.9690 O   0  0  0  0  0  0  0  0  0  0  0  0
  185.3880  178.6880  139.2470 C   0  0  2  0  0  3  0  0  0  0  0  0
  182.5390  176.0330  137.1330 C   0  0  0  0  0  2  0  0  0  0  0  0
  180.7420  178.5490  140.2320 C   0  0  0  0  0  2  0  0  0  0  0  0
  185.4410  178.6540  140.7570 C   0  0  0  0  0  0  0  0  0  0  0  0
  185.6020  178.5880  143.5530 C   0  0  0  0  0  0  0  0  0  0  0  0
  186.7110  178.9790  142.7980 C   0  0  0  0  0  3  0  0  0  0  0  0
  186.6310  179.0090  141.4020 C   0  0  0  0  0  3  0  0  0  0  0  0
  184.4130  178.2250  142.9150 C   0  0  0  0  0  3  0  0  0  0  0  0
  184.3320  178.2550  141.5200 C   0  0  0  0  0  3  0  0  0  0  0  0
  185.7520  178.5310  146.1420 N   0  0  0  0  0  0  0  0  0  0  0  0
  185.6860  178.5570  144.9860 C   0  0  0  0  0  0  0  0  0  0  0  0
  179.7950  180.7810  139.6220 C   0  0  0  0  0  2  0  0  0  0  0  0
  179.7790  180.8800  141.0140 O   0  0  0  0  0  1  0  0  0  0  0  0
  187.1710  176.7430  136.5230 C   0  0  1  0  0  3  0  0  0  0  0  0
  187.6640  177.4840  135.2930 C   0  0  0  0  0  1  0  0  0  0  0  0
  188.5710  176.1260  137.5240 S   0  0  0  0  0  0  0  0  0  0  0  0
  188.7720  174.6300  136.5120 C   0  0  2  0  0  3  0  0  0  0  0  0
  187.7070  173.6230  136.9010 C   0  0  0  0  0  1  0  0  0  0  0  0
  190.0910  174.0590  136.7380 N   0  0  0  0  0  2  0  0  0  0  0  0
  190.8360  172.5380  135.1450 O   0  0  0  0  0  1  0  0  0  0  0  0
  190.7300  173.8960  135.4420 C   0  0  0  0  0  3  0  0  0  0  0  0
  192.0050  174.4630  135.4700 O   0  0  0  0  0  1  0  0  0  0  0  0
  179.4480  179.8780  136.7690 C   0  0  0  0  0  2  0  0  0  0  0  0
  180.2060  181.8200  136.0450 C   0  0  0  0  0  1  0  0  0  0  0  0
  180.1470  180.4680  135.7120 O   0  0  0  0  0  0  0  0  0  0  0  0
  3  2  1  6  0  0  0
  3 17  1  0  0  0  0
  3  5  1  0  0  0  0
  4  9  1  0  0  0  0
  4  8  1  0  0  0  0
  5 12  1  0  0  0  0
  6 10  1  0  0  0  0
  7  5  1  0  0  0  0
  7 14  1  0  0  0  0
  8  6  1  0  0  0  0
  9 13  1  0  0  0  0
 10 18  1  0  0  0  0
 11  3  1  0  0  0  0
 12  6  1  0  0  0  0
 12 16  1  0  0  0  0
 13 27  1  0  0  0  0
 13 18  1  0  0  0  0
 14 16  1  0  0  0  0
 14  1  1  0  0  0  0
 15 12  1  0  0  0  0
 15  6  1  0  0  0  0
 16 19  1  0  0  0  0
 17  8  1  0  0  0  0
 19 22  2  0  0  0  0
 19 24  1  0  0  0  0
 20 26  1  0  0  0  0
 21 20  2  0  0  0  0
 22 21  1  0  0  0  0
 23 20  1  0  0  0  0
 24 23  2  0  0  0  0
 26 25  3  0  0  0  0
 27 28  1  0  0  0  0
 29  7  1  0  0  0  0
 29 31  1  0  0  0  0
 30 29  1  0  0  0  0
 32 34  1  0  0  0  0
 32 33  1  0  0  0  0
 32 31  1  0  0  0  0
 35 36  1  0  0  0  0
 36 37  1  0  0  0  0
 36 34  1  0  0  0  0
 38  9  1  0  0  0  0
 40 39  1  0  0  0  0
 40 38  1  0  0  0  0
M  END
>  <MODEL>
8

>  <REMARK>
 VINA RESULT:      -4.1      1.917      2.275
  Name = 
  10 active torsions:
  status: ('A' for Active; 'I' for Inactive)
    1  A    between atoms: C_7  and  C_21
    2  A    between atoms: C_9  and  C_20
    3  A    between atoms: C_10  and  C_30
    4  A    between atoms: C_14  and  N_29
    5  A    between atoms: C_14  and  S_32
    6  A    between atoms: C_16  and  C_36
    7  A    between atoms: O_19  and  C_30
    8  A    between atoms: C_21  and  S_32
    9  A    between atoms: C_22  and  C_40
   10  A    between atoms: C_24  and  N_29
                            x       y       z     vdW  Elec       q    Type
                         _______ _______ _______ _____ _____    ______ ____

>  <TORSDO>
F 10

$$$$
=
 OpenBabel10222415403D

 40 44  0  0  1  0  0  0  0  0999 V2000
  189.0630  177.6630  139.7710 C   0  0  0  0  0  1  0  0  0  0  0  0
  186.7270  175.7290  135.5980 C   0  0  0  0  0  1  0  0  0  0  0  0
  185.9180  176.6840  136.4510 C   0  0  1  0  0  0  0  0  0  0  0  0
  182.5560  177.4300  136.9850 C   0  0  0  0  0  2  0  0  0  0  0  0
  186.6910  177.0280  137.7430 C   0  0  1  0  0  3  0  0  0  0  0  0
  184.3980  177.6740  138.7980 C   0  0  1  0  0  0  0  0  0  0  0  0
  187.9220  177.9220  137.6400 C   0  0  1  0  0  3  0  0  0  0  0  0
  183.6880  176.7570  137.7760 C   0  0  2  0  0  3  0  0  0  0  0  0
  182.0000  178.7230  137.6040 C   0  0  2  0  0  3  0  0  0  0  0  0
  183.6460  178.1730  140.0320 C   0  0  0  0  0  2  0  0  0  0  0  0
  185.6420  177.8290  135.6990 O   0  0  0  0  0  1  0  0  0  0  0  0
  185.8830  177.7960  138.7600 C   0  0  2  0  0  0  0  0  0  0  0  0
  181.3360  178.5490  138.9880 C   0  0  1  0  0  3  0  0  0  0  0  0
  188.1750  178.5180  138.9780 N   0  0  0  0  0  0  0  0  0  0  0  0
  185.0270  178.7330  138.1330 O   0  0  0  0  0  0  0  0  0  0  0  0
  186.8280  178.6320  139.5970 C   0  0  2  0  0  3  0  0  0  0  0  0
  184.6150  175.9670  136.8340 C   0  0  0  0  0  2  0  0  0  0  0  0
  182.1760  177.7530  140.0000 C   0  0  0  0  0  2  0  0  0  0  0  0
  186.7360  178.3860  141.0850 C   0  0  0  0  0  0  0  0  0  0  0  0
  186.5350  177.9840  143.8510 C   0  0  0  0  0  0  0  0  0  0  0  0
  185.6720  178.8760  143.2090 C   0  0  0  0  0  3  0  0  0  0  0  0
  185.7730  179.0780  141.8280 C   0  0  0  0  0  3  0  0  0  0  0  0
  187.5030  177.2950  143.1150 C   0  0  0  0  0  3  0  0  0  0  0  0
  187.6060  177.4960  141.7360 C   0  0  0  0  0  3  0  0  0  0  0  0
  186.3450  177.6110  146.4100 N   0  0  0  0  0  0  0  0  0  0  0  0
  186.4300  177.7780  145.2670 C   0  0  0  0  0  0  0  0  0  0  0  0
  180.9830  179.9090  139.5790 C   0  0  0  0  0  2  0  0  0  0  0  0
  181.8660  180.8800  139.1080 O   0  0  0  0  0  1  0  0  0  0  0  0
  189.1340  177.3500  136.8720 C   0  0  1  0  0  3  0  0  0  0  0  0
  189.5340  178.2450  135.7140 C   0  0  0  0  0  1  0  0  0  0  0  0
  190.5740  176.9540  137.9270 S   0  0  0  0  0  0  0  0  0  0  0  0
  191.0100  175.4790  136.9590 C   0  0  2  0  0  3  0  0  0  0  0  0
  190.4440  175.6210  135.5590 C   0  0  0  0  0  1  0  0  0  0  0  0
  190.4530  174.2930  137.5940 N   0  0  0  0  0  2  0  0  0  0  0  0
  188.5590  173.0050  137.1990 O   0  0  0  0  0  1  0  0  0  0  0  0
  189.6750  173.5800  136.5940 C   0  0  0  0  0  3  0  0  0  0  0  0
  190.4560  172.5770  136.0170 O   0  0  0  0  0  1  0  0  0  0  0  0
  181.0530  179.3930  136.6110 C   0  0  0  0  0  2  0  0  0  0  0  0
  179.5610  178.7730  135.1080 C   0  0  0  0  0  1  0  0  0  0  0  0
  179.8850  178.6420  136.4570 O   0  0  0  0  0  0  0  0  0  0  0  0
  3  2  1  6  0  0  0
  3 17  1  0  0  0  0
  3  5  1  0  0  0  0
  4  9  1  0  0  0  0
  4  8  1  0  0  0  0
  5 12  1  0  0  0  0
  6 10  1  0  0  0  0
  7  5  1  0  0  0  0
  7 14  1  0  0  0  0
  8  6  1  0  0  0  0
  9 13  1  0  0  0  0
 11  3  1  0  0  0  0
 12  6  1  0  0  0  0
 12 16  1  0  0  0  0
 13 27  1  0  0  0  0
 13 18  1  0  0  0  0
 14 16  1  0  0  0  0
 14  1  1  0  0  0  0
 15 12  1  0  0  0  0
 15  6  1  0  0  0  0
 16 19  1  0  0  0  0
 17  8  1  0  0  0  0
 18 10  1  0  0  0  0
 19 24  2  0  0  0  0
 19 22  1  0  0  0  0
 20 26  1  0  0  0  0
 21 20  1  0  0  0  0
 22 21  2  0  0  0  0
 23 20  2  0  0  0  0
 24 23  1  0  0  0  0
 26 25  3  0  0  0  0
 28 27  1  0  0  0  0
 29  7  1  0  0  0  0
 29 31  1  0  0  0  0
 30 29  1  0  0  0  0
 32 34  1  0  0  0  0
 32 31  1  0  0  0  0
 33 32  1  0  0  0  0
 36 35  1  0  0  0  0
 36 34  1  0  0  0  0
 37 36  1  0  0  0  0
 38  9  1  0  0  0  0
 39 40  1  0  0  0  0
 40 38  1  0  0  0  0
M  END
>  <MODEL>
9

>  <REMARK>
 VINA RESULT:      -3.9      1.775      2.148
  Name = 
  10 active torsions:
  status: ('A' for Active; 'I' for Inactive)
    1  A    between atoms: C_7  and  C_21
    2  A    between atoms: C_9  and  C_20
    3  A    between atoms: C_10  and  C_30
    4  A    between atoms: C_14  and  N_29
    5  A    between atoms: C_14  and  S_32
    6  A    between atoms: C_16  and  C_36
    7  A    between atoms: O_19  and  C_30
    8  A    between atoms: C_21  and  S_32
    9  A    between atoms: C_22  and  C_40
   10  A    between atoms: C_24  and  N_29
                            x       y       z     vdW  Elec       q    Type
                         _______ _______ _______ _____ _____    ______ ____

>  <TORSDO>
F 10

$$$$
