=
 OpenBabel10222417203D

 46 52  0  0  1  0  0  0  0  0999 V2000
  190.7990  177.6390  142.9180 C   0  0  0  0  0  0  0  0  0  0  0  0
  187.2500  177.1720  143.6660 N   0  0  0  0  0  0  0  0  0  0  0  0
  190.4630  177.4220  145.4660 C   0  0  1  0  0  3  0  0  0  0  0  0
  186.7140  177.1780  145.0280 C   0  0  2  0  0  3  0  0  0  0  0  0
  189.2520  177.0710  141.0240 S   0  0  0  0  0  0  0  0  0  0  0  0
  185.7630  178.3250  145.2760 C   0  0  0  0  0  0  0  0  0  0  0  0
  190.8630  177.4550  140.6880 C   0  0  0  0  0  0  0  0  0  0  0  0
  188.5370  177.1420  143.7620 C   0  0  0  0  0  0  0  0  0  0  0  0
  189.4840  177.2820  142.6720 C   0  0  0  0  0  0  0  0  0  0  0  0
  186.8120  178.6980  147.4920 C   0  0  0  0  0  3  0  0  0  0  0  0
  191.5690  177.7500  141.8060 N   0  0  0  0  0  0  0  0  0  0  0  0
  185.7820  178.9740  146.4580 C   0  0  0  0  0  3  0  0  0  0  0  0
  191.2760  178.0460  144.2960 C   0  0  0  0  0  2  0  0  0  0  0  0
  189.0070  177.2390  145.1180 C   0  0  2  0  0  3  0  0  0  0  0  0
  187.8580  177.8990  147.2350 C   0  0  0  0  0  0  0  0  0  0  0  0
  187.9380  177.3080  145.8910 C   0  0  1  0  0  3  0  0  0  0  0  0
  191.4540  175.0940  136.3530 C   0  0  0  0  0  3  0  0  0  0  0  0
  192.8120  176.0990  138.0580 N   0  0  0  0  0  0  0  0  0  0  0  0
  194.0170  175.3680  137.6680 C   0  0  0  0  0  2  0  0  0  0  0  0
  192.6520  174.3460  135.8430 C   0  0  0  0  0  2  0  0  0  0  0  0
  191.4470  177.4760  139.3170 C   0  0  1  0  0  3  0  0  0  0  0  0
  192.7200  176.7390  139.3020 N   0  0  0  0  0  2  0  0  0  0  0  0
  193.6360  174.0570  136.9800 C   0  0  0  0  0  2  0  0  0  0  0  0
  191.5910  175.9630  137.3540 C   0  0  0  0  0  0  0  0  0  0  0  0
  190.2390  176.8000  138.1040 S   0  0  0  0  0  0  0  0  0  0  0  0
  188.9080  177.6680  148.2340 C   0  0  0  0  0  3  0  0  0  0  0  0
  189.5060  178.6260  148.7910 O   0  0  0  0  0  0  0  0  0  0  0  0
  191.0290  176.1340  145.8340 N   0  0  0  0  0  2  0  0  0  0  0  0
  192.5350  175.8830  147.9470 C   0  0  0  0  0  3  0  0  0  0  0  0
  191.8390  175.9970  146.9690 C   0  0  0  0  0  0  0  0  0  0  0  0
  184.7450  178.5980  144.3080 N   0  0  0  0  0  2  0  0  0  0  0  0
  183.3220  178.5690  144.6070 C   0  0  0  0  0  2  0  0  0  0  0  0
  182.5990  179.6330  143.7960 C   0  0  0  0  0  2  0  0  0  0  0  0
  181.3350  179.2610  140.5220 N   0  0  0  0  0  0  0  0  0  0  0  0
  180.5040  179.9740  142.5990 N   0  0  0  0  0  2  0  0  0  0  0  0
  179.3520  181.0870  140.4500 S   0  0  0  0  0  0  0  0  0  0  0  0
  180.3980  180.0740  141.1950 C   0  0  0  0  0  0  0  0  0  0  0  0
  182.1700  178.6180  141.5170 C   0  0  0  0  0  2  0  0  0  0  0  0
  181.5570  179.0040  142.8810 C   0  0  1  0  0  3  0  0  0  0  0  0
  181.6530  179.3120  139.1040 C   0  0  0  0  0  2  0  0  0  0  0  0
  184.1570  179.1760  138.8140 C   0  0  0  0  0  0  0  0  0  0  0  0
  184.2690  180.4150  139.0190 O   0  0  0  0  0  0  0  0  0  0  0  0
  182.8680  178.5550  138.8460 N   0  0  0  0  0  2  0  0  0  0  0  0
  185.3550  178.3680  138.5490 C   0  0  0  0  0  0  0  0  0  0  0  0
  185.3340  177.3650  137.5380 N   0  0  0  0  0  1  0  0  0  0  0  0
  186.4090  178.5640  139.2080 O   0  0  0  0  0  0  0  0  0  0  0  0
  1 13  1  0  0  0  0
  2  8  2  0  0  0  0
  3 28  1  6  0  0  0
  4  2  1  6  0  0  0
  4  6  1  0  0  0  0
  4 16  1  0  0  0  0
  5  9  1  0  0  0  0
  6 12  2  0  0  0  0
  7  5  1  0  0  0  0
  7 11  2  0  0  0  0
  9  1  2  0  0  0  0
  9  8  1  0  0  0  0
 11  1  1  0  0  0  0
 12 10  1  0  0  0  0
 13  3  1  0  0  0  0
 14  8  1  6  0  0  0
 14  3  1  0  0  0  0
 14 16  1  0  0  0  0
 15 10  2  0  0  0  0
 15 26  1  0  0  0  0
 16 15  1  6  0  0  0
 17 24  2  0  0  0  0
 18 22  1  0  0  0  0
 19 18  1  0  0  0  0
 20 17  1  0  0  0  0
 20 23  1  0  0  0  0
 21  7  1  1  0  0  0
 22 21  1  0  0  0  0
 23 19  1  0  0  0  0
 24 18  1  0  0  0  0
 24 25  1  0  0  0  0
 25 21  1  0  0  0  0
 26 27  2  0  0  0  0
 28 30  1  0  0  0  0
 30 29  3  0  0  0  0
 31 32  1  0  0  0  0
 31  6  1  0  0  0  0
 33 32  1  0  0  0  0
 34 37  1  0  0  0  0
 34 38  1  0  0  0  0
 35 39  1  0  0  0  0
 36 37  2  0  0  0  0
 37 35  1  0  0  0  0
 38 39  1  0  0  0  0
 39 33  1  1  0  0  0
 40 34  1  0  0  0  0
 41 43  1  0  0  0  0
 41 42  2  0  0  0  0
 43 40  1  0  0  0  0
 44 41  1  0  0  0  0
 44 46  2  0  0  0  0
 45 44  1  0  0  0  0
M  END
>  <MODEL>
1

>  <REMARK>
 VINA RESULT:      -9.9      0.000      0.000
  Name = 
  11 active torsions:
  status: ('A' for Active; 'I' for Inactive)
    1  A    between atoms: C_5  and  N_11
    2  A    between atoms: N_6  and  C_15
    3  A    between atoms: C_9  and  C_40
    4  A    between atoms: C_10  and  N_11
    5  A    between atoms: C_12  and  C_13
    6  A    between atoms: C_15  and  N_41
    7  A    between atoms: C_19  and  C_36
    8  A    between atoms: C_19  and  C_44
    9  A    between atoms: N_20  and  C_22
   10  A    between atoms: N_20  and  C_36
   11  A    between atoms: C_23  and  C_33
                            x       y       z     vdW  Elec       q    Type
                         _______ _______ _______ _____ _____    ______ ____

>  <TORSDO>
F 11

$$$$
=
 OpenBabel10222417203D

 46 52  0  0  1  0  0  0  0  0999 V2000
  190.8540  177.6270  142.8690 C   0  0  0  0  0  0  0  0  0  0  0  0
  187.2910  177.1360  143.5340 N   0  0  0  0  0  0  0  0  0  0  0  0
  190.4550  177.4410  145.4100 C   0  0  1  0  0  3  0  0  0  0  0  0
  186.7210  177.1540  144.8820 C   0  0  2  0  0  3  0  0  0  0  0  0
  189.3600  177.0190  140.9440 S   0  0  0  0  0  0  0  0  0  0  0  0
  185.7530  178.2950  145.0900 C   0  0  0  0  0  0  0  0  0  0  0  0
  190.9750  177.4150  140.6440 C   0  0  0  0  0  0  0  0  0  0  0  0
  188.5760  177.1190  143.6630 C   0  0  0  0  0  0  0  0  0  0  0  0
  189.5480  177.2550  142.5950 C   0  0  0  0  0  0  0  0  0  0  0  0
  186.7430  178.7080  147.3270 C   0  0  0  0  0  3  0  0  0  0  0  0
  191.6500  177.7310  141.7760 N   0  0  0  0  0  0  0  0  0  0  0  0
  185.7370  178.9590  146.2640 C   0  0  0  0  0  3  0  0  0  0  0  0
  191.2910  178.0570  144.2530 C   0  0  0  0  0  2  0  0  0  0  0  0
  189.0110  177.2390  145.0280 C   0  0  2  0  0  3  0  0  0  0  0  0
  187.8020  177.9160  147.1070 C   0  0  0  0  0  0  0  0  0  0  0  0
  187.9220  177.3080  145.7730 C   0  0  1  0  0  3  0  0  0  0  0  0
  191.6970  175.0030  136.3570 C   0  0  0  0  0  3  0  0  0  0  0  0
  193.0030  176.0440  138.0820 N   0  0  0  0  0  0  0  0  0  0  0  0
  194.2240  175.3190  137.7320 C   0  0  0  0  0  2  0  0  0  0  0  0
  192.9150  174.2600  135.8870 C   0  0  0  0  0  2  0  0  0  0  0  0
  191.5930  177.4240  139.2880 C   0  0  1  0  0  3  0  0  0  0  0  0
  192.8730  176.6990  139.3140 N   0  0  0  0  0  2  0  0  0  0  0  0
  193.8720  173.9960  137.0520 C   0  0  0  0  0  2  0  0  0  0  0  0
  191.8010  175.8870  137.3500 C   0  0  0  0  0  0  0  0  0  0  0  0
  190.4220  176.7210  138.0540 S   0  0  0  0  0  0  0  0  0  0  0  0
  188.8280  177.7070  148.1350 C   0  0  0  0  0  3  0  0  0  0  0  0
  189.3720  178.6790  148.7260 O   0  0  0  0  0  0  0  0  0  0  0  0
  191.0240  176.1640  145.8090 N   0  0  0  0  0  2  0  0  0  0  0  0
  192.4740  175.9500  147.9650 C   0  0  0  0  0  3  0  0  0  0  0  0
  191.8060  176.0490  146.9670 C   0  0  0  0  0  0  0  0  0  0  0  0
  184.7570  178.5460  144.0940 N   0  0  0  0  0  2  0  0  0  0  0  0
  185.0650  178.9670  142.7360 C   0  0  0  0  0  2  0  0  0  0  0  0
  184.1850  178.2180  141.7490 C   0  0  0  0  0  2  0  0  0  0  0  0
  184.2470  177.8630  138.2380 N   0  0  0  0  0  0  0  0  0  0  0  0
  185.5630  178.9250  139.8660 N   0  0  0  0  0  2  0  0  0  0  0  0
  186.8700  178.1190  137.6700 S   0  0  0  0  0  0  0  0  0  0  0  0
  185.5340  178.3230  138.5900 C   0  0  0  0  0  0  0  0  0  0  0  0
  183.3590  178.1040  139.3580 C   0  0  0  0  0  2  0  0  0  0  0  0
  184.1990  178.8950  140.3850 C   0  0  1  0  0  3  0  0  0  0  0  0
  183.9230  176.9940  137.1180 C   0  0  0  0  0  2  0  0  0  0  0  0
  184.9880  174.7080  136.9890 C   0  0  0  0  0  0  0  0  0  0  0  0
  185.8110  175.1180  136.1240 O   0  0  0  0  0  0  0  0  0  0  0  0
  184.0120  175.6030  137.5330 N   0  0  0  0  0  2  0  0  0  0  0  0
  185.0380  173.3120  137.4400 C   0  0  0  0  0  0  0  0  0  0  0  0
  183.9120  172.4600  137.2600 N   0  0  0  0  0  1  0  0  0  0  0  0
  186.0790  172.8580  137.9830 O   0  0  0  0  0  0  0  0  0  0  0  0
  1 13  1  0  0  0  0
  2  8  2  0  0  0  0
  3 28  1  6  0  0  0
  4  2  1  6  0  0  0
  4  6  1  0  0  0  0
  4 16  1  0  0  0  0
  5  9  1  0  0  0  0
  6 12  2  0  0  0  0
  7  5  1  0  0  0  0
  7 11  2  0  0  0  0
  9  1  2  0  0  0  0
  9  8  1  0  0  0  0
 11  1  1  0  0  0  0
 12 10  1  0  0  0  0
 13  3  1  0  0  0  0
 14  8  1  6  0  0  0
 14  3  1  0  0  0  0
 14 16  1  0  0  0  0
 15 10  2  0  0  0  0
 15 26  1  0  0  0  0
 16 15  1  6  0  0  0
 17 24  2  0  0  0  0
 18 22  1  0  0  0  0
 19 18  1  0  0  0  0
 20 17  1  0  0  0  0
 20 23  1  0  0  0  0
 21 22  1  0  0  0  0
 21  7  1  1  0  0  0
 23 19  1  0  0  0  0
 24 25  1  0  0  0  0
 24 18  1  0  0  0  0
 25 21  1  0  0  0  0
 26 27  2  0  0  0  0
 28 30  1  0  0  0  0
 30 29  3  0  0  0  0
 31  6  1  0  0  0  0
 32 31  1  0  0  0  0
 33 32  1  0  0  0  0
 34 37  1  0  0  0  0
 34 38  1  0  0  0  0
 35 39  1  0  0  0  0
 36 37  2  0  0  0  0
 37 35  1  0  0  0  0
 38 39  1  0  0  0  0
 39 33  1  1  0  0  0
 40 43  1  0  0  0  0
 40 34  1  0  0  0  0
 41 44  1  0  0  0  0
 41 43  1  0  0  0  0
 42 41  2  0  0  0  0
 44 46  2  0  0  0  0
 45 44  1  0  0  0  0
M  END
>  <MODEL>
2

>  <REMARK>
 VINA RESULT:      -9.6      2.220      2.840
  Name = 
  11 active torsions:
  status: ('A' for Active; 'I' for Inactive)
    1  A    between atoms: C_5  and  N_11
    2  A    between atoms: N_6  and  C_15
    3  A    between atoms: C_9  and  C_40
    4  A    between atoms: C_10  and  N_11
    5  A    between atoms: C_12  and  C_13
    6  A    between atoms: C_15  and  N_41
    7  A    between atoms: C_19  and  C_36
    8  A    between atoms: C_19  and  C_44
    9  A    between atoms: N_20  and  C_22
   10  A    between atoms: N_20  and  C_36
   11  A    between atoms: C_23  and  C_33
                            x       y       z     vdW  Elec       q    Type
                         _______ _______ _______ _____ _____    ______ ____

>  <TORSDO>
F 11

$$$$
=
 OpenBabel10222417203D

 46 52  0  0  1  0  0  0  0  0999 V2000
  190.4580  177.6050  142.9670 C   0  0  0  0  0  0  0  0  0  0  0  0
  186.9980  177.1710  144.0680 N   0  0  0  0  0  0  0  0  0  0  0  0
  190.3700  177.4650  145.5410 C   0  0  1  0  0  3  0  0  0  0  0  0
  186.5960  177.2170  145.4750 C   0  0  2  0  0  3  0  0  0  0  0  0
  188.7340  176.9860  141.2490 S   0  0  0  0  0  0  0  0  0  0  0  0
  185.6730  178.3740  145.7800 C   0  0  0  0  0  0  0  0  0  0  0  0
  190.3050  177.3560  140.7470 C   0  0  0  0  0  0  0  0  0  0  0  0
  188.2880  177.1390  144.0400 C   0  0  0  0  0  0  0  0  0  0  0  0
  189.1250  177.2450  142.8600 C   0  0  0  0  0  0  0  0  0  0  0  0
  186.9320  178.8100  147.8720 C   0  0  0  0  0  3  0  0  0  0  0  0
  191.1160  177.6820  141.7830 N   0  0  0  0  0  0  0  0  0  0  0  0
  185.8070  179.0570  146.9340 C   0  0  0  0  0  3  0  0  0  0  0  0
  191.0660  178.0520  144.2800 C   0  0  0  0  0  2  0  0  0  0  0  0
  188.8880  177.2760  145.3400 C   0  0  2  0  0  3  0  0  0  0  0  0
  187.9480  178.0010  147.5390 C   0  0  0  0  0  0  0  0  0  0  0  0
  187.8980  177.3700  146.2110 C   0  0  1  0  0  3  0  0  0  0  0  0
  189.1040  176.5510  135.9910 C   0  0  0  0  0  3  0  0  0  0  0  0
  190.7360  175.8100  137.5890 N   0  0  0  0  0  0  0  0  0  0  0  0
  191.0540  174.5920  136.8460 C   0  0  0  0  0  2  0  0  0  0  0  0
  189.4080  175.3580  135.1300 C   0  0  0  0  0  2  0  0  0  0  0  0
  190.7540  177.3350  139.3270 C   0  0  1  0  0  3  0  0  0  0  0  0
  191.1070  175.9630  138.9310 N   0  0  0  0  0  2  0  0  0  0  0  0
  189.8600  174.1730  135.9880 C   0  0  0  0  0  2  0  0  0  0  0  0
  189.8050  176.7610  137.1050 C   0  0  0  0  0  0  0  0  0  0  0  0
  189.4530  178.0570  138.2420 S   0  0  0  0  0  0  0  0  0  0  0  0
  189.0900  177.7960  148.4380 C   0  0  0  0  0  3  0  0  0  0  0  0
  189.8180  178.7580  148.8040 O   0  0  0  0  0  0  0  0  0  0  0  0
  190.9700  176.1880  145.8900 N   0  0  0  0  0  2  0  0  0  0  0  0
  192.5030  175.9420  147.9830 C   0  0  0  0  0  3  0  0  0  0  0  0
  191.7930  176.0570  147.0170 C   0  0  0  0  0  0  0  0  0  0  0  0
  184.5660  178.6210  144.9080 N   0  0  0  0  0  2  0  0  0  0  0  0
  184.4700  179.7830  144.0380 C   0  0  0  0  0  2  0  0  0  0  0  0
  184.9820  179.4340  142.6490 C   0  0  0  0  0  2  0  0  0  0  0  0
  183.1870  178.3490  139.8110 N   0  0  0  0  0  0  0  0  0  0  0  0
  182.7130  178.7530  142.0740 N   0  0  0  0  0  2  0  0  0  0  0  0
  180.6680  179.1190  140.3820 S   0  0  0  0  0  0  0  0  0  0  0  0
  182.2060  178.7110  140.7570 C   0  0  0  0  0  0  0  0  0  0  0  0
  184.4500  178.1960  140.5050 C   0  0  0  0  0  2  0  0  0  0  0  0
  184.1170  178.3590  142.0050 C   0  0  1  0  0  3  0  0  0  0  0  0
  183.0620  178.4460  138.3650 C   0  0  0  0  0  2  0  0  0  0  0  0
  183.0700  175.9930  137.7670 C   0  0  0  0  0  0  0  0  0  0  0  0
  181.9590  175.8290  138.3410 O   0  0  0  0  0  0  0  0  0  0  0  0
  183.6800  177.2880  137.7390 N   0  0  0  0  0  2  0  0  0  0  0  0
  183.7340  174.8540  137.1200 C   0  0  0  0  0  0  0  0  0  0  0  0
  183.6650  174.6920  135.7070 N   0  0  0  0  0  1  0  0  0  0  0  0
  184.3740  174.0190  137.8110 O   0  0  0  0  0  0  0  0  0  0  0  0
  1 13  1  0  0  0  0
  3 28  1  6  0  0  0
  4  2  1  6  0  0  0
  4  6  1  0  0  0  0
  4 16  1  0  0  0  0
  5  9  1  0  0  0  0
  6 12  2  0  0  0  0
  7  5  1  0  0  0  0
  7 11  2  0  0  0  0
  8  2  2  0  0  0  0
  9  1  2  0  0  0  0
  9  8  1  0  0  0  0
 11  1  1  0  0  0  0
 12 10  1  0  0  0  0
 13  3  1  0  0  0  0
 14  8  1  6  0  0  0
 14  3  1  0  0  0  0
 14 16  1  0  0  0  0
 15 10  2  0  0  0  0
 15 26  1  0  0  0  0
 16 15  1  6  0  0  0
 17 24  2  0  0  0  0
 18 22  1  0  0  0  0
 19 18  1  0  0  0  0
 20 23  1  0  0  0  0
 20 17  1  0  0  0  0
 21  7  1  1  0  0  0
 22 21  1  0  0  0  0
 23 19  1  0  0  0  0
 24 18  1  0  0  0  0
 24 25  1  0  0  0  0
 25 21  1  0  0  0  0
 26 27  2  0  0  0  0
 28 30  1  0  0  0  0
 30 29  3  0  0  0  0
 31  6  1  0  0  0  0
 32 31  1  0  0  0  0
 33 32  1  0  0  0  0
 34 38  1  0  0  0  0
 34 37  1  0  0  0  0
 36 37  2  0  0  0  0
 37 35  1  0  0  0  0
 38 39  1  0  0  0  0
 39 35  1  0  0  0  0
 39 33  1  6  0  0  0
 40 34  1  0  0  0  0
 41 42  2  0  0  0  0
 43 41  1  0  0  0  0
 43 40  1  0  0  0  0
 44 41  1  0  0  0  0
 44 46  2  0  0  0  0
 45 44  1  0  0  0  0
M  END
>  <MODEL>
3

>  <REMARK>
 VINA RESULT:      -9.0      1.898      2.151
  Name = 
  11 active torsions:
  status: ('A' for Active; 'I' for Inactive)
    1  A    between atoms: C_5  and  N_11
    2  A    between atoms: N_6  and  C_15
    3  A    between atoms: C_9  and  C_40
    4  A    between atoms: C_10  and  N_11
    5  A    between atoms: C_12  and  C_13
    6  A    between atoms: C_15  and  N_41
    7  A    between atoms: C_19  and  C_36
    8  A    between atoms: C_19  and  C_44
    9  A    between atoms: N_20  and  C_22
   10  A    between atoms: N_20  and  C_36
   11  A    between atoms: C_23  and  C_33
                            x       y       z     vdW  Elec       q    Type
                         _______ _______ _______ _____ _____    ______ ____

>  <TORSDO>
F 11

$$$$
=
 OpenBabel10222417203D

 46 52  0  0  1  0  0  0  0  0999 V2000
  190.8130  177.6830  142.5750 C   0  0  0  0  0  0  0  0  0  0  0  0
  187.2380  176.9860  142.9150 N   0  0  0  0  0  0  0  0  0  0  0  0
  190.1560  177.6750  145.0700 C   0  0  1  0  0  3  0  0  0  0  0  0
  186.5270  177.0710  144.1910 C   0  0  2  0  0  3  0  0  0  0  0  0
  189.5770  176.8120  140.5700 S   0  0  0  0  0  0  0  0  0  0  0  0
  185.4700  178.1520  144.1980 C   0  0  0  0  0  0  0  0  0  0  0  0
  191.1870  177.3000  140.4020 C   0  0  0  0  0  0  0  0  0  0  0  0
  188.5000  177.0750  143.1750 C   0  0  0  0  0  0  0  0  0  0  0  0
  189.5710  177.1940  142.2040 C   0  0  0  0  0  0  0  0  0  0  0  0
  186.1840  178.8160  146.4790 C   0  0  0  0  0  3  0  0  0  0  0  0
  191.7140  177.7560  141.5640 N   0  0  0  0  0  0  0  0  0  0  0  0
  185.2840  178.9060  145.3000 C   0  0  0  0  0  3  0  0  0  0  0  0
  191.0700  178.2550  143.9530 C   0  0  0  0  0  2  0  0  0  0  0  0
  188.7770  177.3370  144.5620 C   0  0  2  0  0  3  0  0  0  0  0  0
  187.3100  178.0890  146.4390 C   0  0  0  0  0  0  0  0  0  0  0  0
  187.6120  177.3850  145.1830 C   0  0  1  0  0  3  0  0  0  0  0  0
  192.2420  174.7440  136.2710 C   0  0  0  0  0  3  0  0  0  0  0  0
  193.4060  175.7690  138.1040 N   0  0  0  0  0  0  0  0  0  0  0  0
  194.6210  174.9800  137.9030 C   0  0  0  0  0  2  0  0  0  0  0  0
  193.4660  173.9330  135.9500 C   0  0  0  0  0  2  0  0  0  0  0  0
  191.9450  177.2440  139.1200 C   0  0  1  0  0  3  0  0  0  0  0  0
  193.1780  176.4620  139.3000 N   0  0  0  0  0  2  0  0  0  0  0  0
  194.2800  173.6570  137.2180 C   0  0  0  0  0  2  0  0  0  0  0  0
  192.2830  175.6480  137.2500 C   0  0  0  0  0  0  0  0  0  0  0  0
  190.8800  176.5630  137.7830 S   0  0  0  0  0  0  0  0  0  0  0  0
  188.2310  178.0410  147.5810 C   0  0  0  0  0  3  0  0  0  0  0  0
  188.2750  177.0420  148.3470 O   0  0  0  0  0  0  0  0  0  0  0  0
  190.7600  176.4800  145.6360 N   0  0  0  0  0  2  0  0  0  0  0  0
  192.0380  176.5570  147.9060 C   0  0  0  0  0  3  0  0  0  0  0  0
  191.4460  176.5240  146.8570 C   0  0  0  0  0  0  0  0  0  0  0  0
  184.5730  178.2460  143.0870 N   0  0  0  0  0  2  0  0  0  0  0  0
  184.5080  179.3970  142.2010 C   0  0  0  0  0  2  0  0  0  0  0  0
  185.0960  179.0400  140.8450 C   0  0  0  0  0  2  0  0  0  0  0  0
  181.9570  179.5710  139.3220 N   0  0  0  0  0  0  0  0  0  0  0  0
  182.9350  177.9250  140.6800 N   0  0  0  0  0  2  0  0  0  0  0  0
  180.2830  178.2130  140.9420 S   0  0  0  0  0  0  0  0  0  0  0  0
  181.7390  178.5630  140.2850 C   0  0  0  0  0  0  0  0  0  0  0  0
  183.3840  179.6740  139.0910 C   0  0  0  0  0  2  0  0  0  0  0  0
  184.0160  178.5230  139.9040 C   0  0  1  0  0  3  0  0  0  0  0  0
  180.9900  180.5670  138.8890 C   0  0  0  0  0  2  0  0  0  0  0  0
  181.0040  182.8330  137.7740 C   0  0  0  0  0  0  0  0  0  0  0  0
  179.7620  182.7600  137.5650 O   0  0  0  0  0  0  0  0  0  0  0  0
  181.6850  181.7640  138.4400 N   0  0  0  0  0  2  0  0  0  0  0  0
  181.7510  184.0210  137.3400 C   0  0  0  0  0  0  0  0  0  0  0  0
  181.3510  184.7300  136.1720 N   0  0  0  0  0  1  0  0  0  0  0  0
  182.7430  184.4230  138.0020 O   0  0  0  0  0  0  0  0  0  0  0  0
  1 13  1  0  0  0  0
  2  8  2  0  0  0  0
  3 28  1  6  0  0  0
  4  2  1  6  0  0  0
  4  6  1  0  0  0  0
  4 16  1  0  0  0  0
  5  9  1  0  0  0  0
  6 12  2  0  0  0  0
  7  5  1  0  0  0  0
  7 11  2  0  0  0  0
  9  1  2  0  0  0  0
  9  8  1  0  0  0  0
 11  1  1  0  0  0  0
 12 10  1  0  0  0  0
 13  3  1  0  0  0  0
 14  8  1  6  0  0  0
 14  3  1  0  0  0  0
 14 16  1  0  0  0  0
 15 10  2  0  0  0  0
 15 26  1  0  0  0  0
 16 15  1  6  0  0  0
 17 24  2  0  0  0  0
 18 22  1  0  0  0  0
 19 18  1  0  0  0  0
 20 17  1  0  0  0  0
 20 23  1  0  0  0  0
 21 22  1  0  0  0  0
 21  7  1  1  0  0  0
 23 19  1  0  0  0  0
 24 25  1  0  0  0  0
 24 18  1  0  0  0  0
 25 21  1  0  0  0  0
 26 27  2  0  0  0  0
 28 30  1  0  0  0  0
 30 29  3  0  0  0  0
 31  6  1  0  0  0  0
 32 31  1  0  0  0  0
 33 32  1  0  0  0  0
 34 37  1  0  0  0  0
 37 35  1  0  0  0  0
 37 36  2  0  0  0  0
 38 34  1  0  0  0  0
 38 39  1  0  0  0  0
 39 35  1  0  0  0  0
 39 33  1  1  0  0  0
 40 34  1  0  0  0  0
 41 43  1  0  0  0  0
 42 41  2  0  0  0  0
 43 40  1  0  0  0  0
 44 41  1  0  0  0  0
 44 46  2  0  0  0  0
 45 44  1  0  0  0  0
M  END
>  <MODEL>
4

>  <REMARK>
 VINA RESULT:      -8.8      2.073      2.692
  Name = 
  11 active torsions:
  status: ('A' for Active; 'I' for Inactive)
    1  A    between atoms: C_5  and  N_11
    2  A    between atoms: N_6  and  C_15
    3  A    between atoms: C_9  and  C_40
    4  A    between atoms: C_10  and  N_11
    5  A    between atoms: C_12  and  C_13
    6  A    between atoms: C_15  and  N_41
    7  A    between atoms: C_19  and  C_36
    8  A    between atoms: C_19  and  C_44
    9  A    between atoms: N_20  and  C_22
   10  A    between atoms: N_20  and  C_36
   11  A    between atoms: C_23  and  C_33
                            x       y       z     vdW  Elec       q    Type
                         _______ _______ _______ _____ _____    ______ ____

>  <TORSDO>
F 11

$$$$
=
 OpenBabel10222417203D

 46 52  0  0  1  0  0  0  0  0999 V2000
  183.8390  177.7610  138.6130 C   0  0  0  0  0  0  0  0  0  0  0  0
  185.5000  179.1410  141.5640 N   0  0  0  0  0  0  0  0  0  0  0  0
  182.0750  178.5840  140.3050 C   0  0  1  0  0  3  0  0  0  0  0  0
  184.7770  179.5440  142.7710 C   0  0  2  0  0  3  0  0  0  0  0  0
  186.3010  178.2360  138.4760 S   0  0  0  0  0  0  0  0  0  0  0  0
  185.1470  178.7120  143.9780 C   0  0  0  0  0  0  0  0  0  0  0  0
  185.5390  177.4460  137.1910 C   0  0  0  0  0  0  0  0  0  0  0  0
  184.6180  178.9090  140.6510 C   0  0  0  0  0  0  0  0  0  0  0  0
  184.8670  178.3360  139.3410 C   0  0  0  0  0  0  0  0  0  0  0  0
  182.7530  178.6000  144.6180 C   0  0  0  0  0  3  0  0  0  0  0  0
  184.2160  177.2490  137.4150 N   0  0  0  0  0  0  0  0  0  0  0  0
  184.1960  178.3420  144.8590 C   0  0  0  0  0  3  0  0  0  0  0  0
  182.4560  177.5630  139.1960 C   0  0  0  0  0  2  0  0  0  0  0  0
  183.2650  179.0020  141.1300 C   0  0  2  0  0  3  0  0  0  0  0  0
  182.3210  179.0770  143.4420 C   0  0  0  0  0  0  0  0  0  0  0  0
  183.3330  179.3360  142.4070 C   0  0  1  0  0  3  0  0  0  0  0  0
  188.7110  174.2500  135.0850 C   0  0  0  0  0  3  0  0  0  0  0  0
  188.4260  176.6240  135.3090 N   0  0  0  0  0  0  0  0  0  0  0  0
  189.8250  176.9200  135.0060 C   0  0  0  0  0  2  0  0  0  0  0  0
  190.1490  174.4620  134.7040 C   0  0  0  0  0  2  0  0  0  0  0  0
  186.2380  177.0050  135.9510 C   0  0  1  0  0  3  0  0  0  0  0  0
  187.5920  177.5780  135.9070 N   0  0  0  0  0  2  0  0  0  0  0  0
  190.7060  175.7240  135.3690 C   0  0  0  0  0  2  0  0  0  0  0  0
  187.9180  175.3020  135.2920 C   0  0  0  0  0  0  0  0  0  0  0  0
  186.2580  175.1670  135.8540 S   0  0  0  0  0  0  0  0  0  0  0  0
  180.8910  179.2810  143.1780 C   0  0  0  0  0  3  0  0  0  0  0  0
  180.4300  180.4220  142.9050 O   0  0  0  0  0  0  0  0  0  0  0  0
  181.4720  179.7650  139.7080 N   0  0  0  0  0  2  0  0  0  0  0  0
  179.1720  179.6330  138.4880 C   0  0  0  0  0  3  0  0  0  0  0  0
  180.2340  179.6940  139.0540 C   0  0  0  0  0  0  0  0  0  0  0  0
  186.5310  178.4690  144.2490 N   0  0  0  0  0  2  0  0  0  0  0  0
  187.0320  177.2300  144.8230 C   0  0  0  0  0  2  0  0  0  0  0  0
  187.2550  177.4040  146.3170 C   0  0  0  0  0  2  0  0  0  0  0  0
  190.6920  177.4210  145.5180 N   0  0  0  0  0  0  0  0  0  0  0  0
  189.3900  177.0390  147.4340 N   0  0  0  0  0  2  0  0  0  0  0  0
  191.7260  175.7280  147.3440 S   0  0  0  0  0  0  0  0  0  0  0  0
  190.6010  176.7630  146.7630 C   0  0  0  0  0  0  0  0  0  0  0  0
  189.4510  178.1360  145.2940 C   0  0  0  0  0  2  0  0  0  0  0  0
  188.6400  177.9710  146.5980 C   0  0  1  0  0  3  0  0  0  0  0  0
  191.6810  177.1660  144.4830 C   0  0  0  0  0  2  0  0  0  0  0  0
  190.4640  176.4600  142.3870 C   0  0  0  0  0  0  0  0  0  0  0  0
  190.3650  175.2780  142.8180 O   0  0  0  0  0  0  0  0  0  0  0  0
  191.1120  177.4620  143.1770 N   0  0  0  0  0  2  0  0  0  0  0  0
  189.9050  176.8080  141.0740 C   0  0  0  0  0  0  0  0  0  0  0  0
  190.5540  176.3770  139.8820 N   0  0  0  0  0  1  0  0  0  0  0  0
  188.8450  177.4820  140.9950 O   0  0  0  0  0  0  0  0  0  0  0  0
  1 13  1  0  0  0  0
  1  9  2  0  0  0  0
  3 28  1  6  0  0  0
  3 14  1  0  0  0  0
  4  2  1  6  0  0  0
  4  6  1  0  0  0  0
  5  9  1  0  0  0  0
  6 31  1  0  0  0  0
  6 12  2  0  0  0  0
  7 11  2  0  0  0  0
  7  5  1  0  0  0  0
  8  2  2  0  0  0  0
  9  8  1  0  0  0  0
 10 12  1  0  0  0  0
 11  1  1  0  0  0  0
 13  3  1  0  0  0  0
 14  8  1  1  0  0  0
 14 16  1  0  0  0  0
 15 10  2  0  0  0  0
 16  4  1  0  0  0  0
 16 15  1  1  0  0  0
 17 24  2  0  0  0  0
 18 22  1  0  0  0  0
 19 18  1  0  0  0  0
 19 23  1  0  0  0  0
 20 17  1  0  0  0  0
 20 23  1  0  0  0  0
 21  7  1  1  0  0  0
 22 21  1  0  0  0  0
 24 18  1  0  0  0  0
 24 25  1  0  0  0  0
 25 21  1  0  0  0  0
 26 15  1  0  0  0  0
 27 26  2  0  0  0  0
 29 30  3  0  0  0  0
 30 28  1  0  0  0  0
 31 32  1  0  0  0  0
 32 33  1  0  0  0  0
 34 37  1  0  0  0  0
 37 36  2  0  0  0  0
 37 35  1  0  0  0  0
 38 34  1  0  0  0  0
 38 39  1  0  0  0  0
 39 33  1  6  0  0  0
 39 35  1  0  0  0  0
 40 34  1  0  0  0  0
 41 42  2  0  0  0  0
 41 43  1  0  0  0  0
 43 40  1  0  0  0  0
 44 41  1  0  0  0  0
 45 44  1  0  0  0  0
 46 44  2  0  0  0  0
M  END
>  <MODEL>
5

>  <REMARK>
 VINA RESULT:      -8.2      2.627      7.979
  Name = 
  11 active torsions:
  status: ('A' for Active; 'I' for Inactive)
    1  A    between atoms: C_5  and  N_11
    2  A    between atoms: N_6  and  C_15
    3  A    between atoms: C_9  and  C_40
    4  A    between atoms: C_10  and  N_11
    5  A    between atoms: C_12  and  C_13
    6  A    between atoms: C_15  and  N_41
    7  A    between atoms: C_19  and  C_36
    8  A    between atoms: C_19  and  C_44
    9  A    between atoms: N_20  and  C_22
   10  A    between atoms: N_20  and  C_36
   11  A    between atoms: C_23  and  C_33
                            x       y       z     vdW  Elec       q    Type
                         _______ _______ _______ _____ _____    ______ ____

>  <TORSDO>
F 11

$$$$
=
 OpenBabel10222417203D

 46 52  0  0  1  0  0  0  0  0999 V2000
  190.4680  177.8160  142.5800 C   0  0  0  0  0  0  0  0  0  0  0  0
  186.9290  177.1300  143.1950 N   0  0  0  0  0  0  0  0  0  0  0  0
  190.0090  177.7910  145.1180 C   0  0  1  0  0  3  0  0  0  0  0  0
  186.3200  177.2080  144.5240 C   0  0  2  0  0  3  0  0  0  0  0  0
  189.0750  176.9640  140.6720 S   0  0  0  0  0  0  0  0  0  0  0  0
  185.2720  178.2920  144.6220 C   0  0  0  0  0  0  0  0  0  0  0  0
  190.6680  177.4470  140.3810 C   0  0  0  0  0  0  0  0  0  0  0  0
  188.2070  177.2110  143.3550 C   0  0  0  0  0  0  0  0  0  0  0  0
  189.1990  177.3340  142.3040 C   0  0  0  0  0  0  0  0  0  0  0  0
  186.1660  178.9370  146.8440 C   0  0  0  0  0  3  0  0  0  0  0  0
  191.2870  177.8930  141.5010 N   0  0  0  0  0  0  0  0  0  0  0  0
  185.1770  179.0390  145.7400 C   0  0  0  0  0  3  0  0  0  0  0  0
  190.8350  178.3760  143.9370 C   0  0  0  0  0  2  0  0  0  0  0  0
  188.5930  177.4620  144.7180 C   0  0  2  0  0  3  0  0  0  0  0  0
  187.2820  178.2060  146.7100 C   0  0  0  0  0  0  0  0  0  0  0  0
  187.4810  177.5100  145.4290 C   0  0  1  0  0  3  0  0  0  0  0  0
  190.5390  175.7300  135.7170 C   0  0  0  0  0  3  0  0  0  0  0  0
  192.0410  175.7490  137.5910 N   0  0  0  0  0  0  0  0  0  0  0  0
  192.8230  174.6150  137.1010 C   0  0  0  0  0  2  0  0  0  0  0  0
  191.3190  174.6010  135.1060 C   0  0  0  0  0  2  0  0  0  0  0  0
  191.3230  177.3990  139.0430 C   0  0  1  0  0  3  0  0  0  0  0  0
  192.1290  176.1730  138.9230 N   0  0  0  0  0  2  0  0  0  0  0  0
  191.9620  173.7350  136.1940 C   0  0  0  0  0  2  0  0  0  0  0  0
  190.9570  176.2860  136.8540 C   0  0  0  0  0  0  0  0  0  0  0  0
  190.0580  177.5300  137.7130 S   0  0  0  0  0  0  0  0  0  0  0  0
  188.2900  178.1460  147.7750 C   0  0  0  0  0  3  0  0  0  0  0  0
  188.4510  177.1060  148.4680 O   0  0  0  0  0  0  0  0  0  0  0  0
  190.6510  176.5900  145.6260 N   0  0  0  0  0  2  0  0  0  0  0  0
  192.1200  176.6500  147.7790 C   0  0  0  0  0  3  0  0  0  0  0  0
  191.4410  176.6250  146.7840 C   0  0  0  0  0  0  0  0  0  0  0  0
  184.2900  178.3980  143.5850 N   0  0  0  0  0  2  0  0  0  0  0  0
  184.3830  179.3420  142.4830 C   0  0  0  0  0  2  0  0  0  0  0  0
  185.3650  178.8290  141.4420 C   0  0  0  0  0  2  0  0  0  0  0  0
  182.4660  178.6400  139.4370 N   0  0  0  0  0  0  0  0  0  0  0  0
  184.5320  177.5310  139.5540 N   0  0  0  0  0  2  0  0  0  0  0  0
  182.4890  176.0720  138.6150 S   0  0  0  0  0  0  0  0  0  0  0  0
  183.1710  177.4440  139.1880 C   0  0  0  0  0  0  0  0  0  0  0  0
  183.3760  179.5770  140.0660 C   0  0  0  0  0  2  0  0  0  0  0  0
  184.7570  178.8860  140.0470 C   0  0  1  0  0  3  0  0  0  0  0  0
  181.0230  178.8080  139.4030 C   0  0  0  0  0  2  0  0  0  0  0  0
  180.1860  178.7100  141.7840 C   0  0  0  0  0  0  0  0  0  0  0  0
  180.2310  177.4490  141.7690 O   0  0  0  0  0  0  0  0  0  0  0  0
  180.5740  179.4560  140.6260 N   0  0  0  0  0  2  0  0  0  0  0  0
  179.7410  179.4110  142.9950 C   0  0  0  0  0  0  0  0  0  0  0  0
  178.9570  178.7300  143.9690 N   0  0  0  0  0  1  0  0  0  0  0  0
  180.0560  180.6150  143.1810 O   0  0  0  0  0  0  0  0  0  0  0  0
  1 13  1  0  0  0  0
  2  8  2  0  0  0  0
  3 28  1  6  0  0  0
  4  2  1  6  0  0  0
  4  6  1  0  0  0  0
  4 16  1  0  0  0  0
  5  9  1  0  0  0  0
  6 12  2  0  0  0  0
  7  5  1  0  0  0  0
  7 11  2  0  0  0  0
  9  1  2  0  0  0  0
  9  8  1  0  0  0  0
 11  1  1  0  0  0  0
 12 10  1  0  0  0  0
 13  3  1  0  0  0  0
 14  8  1  6  0  0  0
 14  3  1  0  0  0  0
 14 16  1  0  0  0  0
 15 10  2  0  0  0  0
 15 26  1  0  0  0  0
 16 15  1  6  0  0  0
 17 24  2  0  0  0  0
 18 22  1  0  0  0  0
 19 18  1  0  0  0  0
 20 17  1  0  0  0  0
 20 23  1  0  0  0  0
 21  7  1  1  0  0  0
 22 21  1  0  0  0  0
 23 19  1  0  0  0  0
 24 18  1  0  0  0  0
 24 25  1  0  0  0  0
 25 21  1  0  0  0  0
 26 27  2  0  0  0  0
 28 30  1  0  0  0  0
 30 29  3  0  0  0  0
 31  6  1  0  0  0  0
 32 31  1  0  0  0  0
 33 32  1  0  0  0  0
 34 38  1  0  0  0  0
 35 39  1  0  0  0  0
 36 37  2  0  0  0  0
 37 34  1  0  0  0  0
 37 35  1  0  0  0  0
 39 38  1  0  0  0  0
 39 33  1  1  0  0  0
 40 34  1  0  0  0  0
 40 43  1  0  0  0  0
 41 44  1  0  0  0  0
 42 41  2  0  0  0  0
 43 41  1  0  0  0  0
 44 46  2  0  0  0  0
 44 45  1  0  0  0  0
M  END
>  <MODEL>
6

>  <REMARK>
 VINA RESULT:      -8.1      1.940      3.040
  Name = 
  11 active torsions:
  status: ('A' for Active; 'I' for Inactive)
    1  A    between atoms: C_5  and  N_11
    2  A    between atoms: N_6  and  C_15
    3  A    between atoms: C_9  and  C_40
    4  A    between atoms: C_10  and  N_11
    5  A    between atoms: C_12  and  C_13
    6  A    between atoms: C_15  and  N_41
    7  A    between atoms: C_19  and  C_36
    8  A    between atoms: C_19  and  C_44
    9  A    between atoms: N_20  and  C_22
   10  A    between atoms: N_20  and  C_36
   11  A    between atoms: C_23  and  C_33
                            x       y       z     vdW  Elec       q    Type
                         _______ _______ _______ _____ _____    ______ ____

>  <TORSDO>
F 11

$$$$
=
 OpenBabel10222417203D

 46 52  0  0  1  0  0  0  0  0999 V2000
  186.8480  178.1650  138.1820 C   0  0  0  0  0  0  0  0  0  0  0  0
  189.3680  177.1350  140.6250 N   0  0  0  0  0  0  0  0  0  0  0  0
  188.7520  176.8960  136.9920 C   0  0  1  0  0  3  0  0  0  0  0  0
  190.6480  176.5360  140.2450 C   0  0  2  0  0  3  0  0  0  0  0  0
  186.2600  178.2940  140.6210 S   0  0  0  0  0  0  0  0  0  0  0  0
  191.8300  177.3960  140.6280 C   0  0  0  0  0  0  0  0  0  0  0  0
  185.1830  178.9170  139.4770 C   0  0  0  0  0  0  0  0  0  0  0  0
  188.6360  177.1760  139.5610 C   0  0  0  0  0  0  0  0  0  0  0  0
  187.3480  177.8300  139.4300 C   0  0  0  0  0  0  0  0  0  0  0  0
  192.8750  176.9160  138.4300 C   0  0  0  0  0  3  0  0  0  0  0  0
  185.6420  178.7860  138.2080 N   0  0  0  0  0  0  0  0  0  0  0  0
  192.8850  177.5030  139.7950 C   0  0  0  0  0  3  0  0  0  0  0  0
  187.6700  178.0100  136.9210 C   0  0  0  0  0  2  0  0  0  0  0  0
  189.3310  176.7490  138.3770 C   0  0  2  0  0  3  0  0  0  0  0  0
  191.7580  176.3840  137.9120 C   0  0  0  0  0  0  0  0  0  0  0  0
  190.5510  176.4050  138.7510 C   0  0  1  0  0  3  0  0  0  0  0  0
  180.3530  179.3860  138.3960 C   0  0  0  0  0  3  0  0  0  0  0  0
  182.2770  180.7900  138.7040 N   0  0  0  0  0  0  0  0  0  0  0  0
  181.6940  181.9160  137.9760 C   0  0  0  0  0  2  0  0  0  0  0  0
  179.6510  180.5090  137.6870 C   0  0  0  0  0  2  0  0  0  0  0  0
  183.8770  179.5470  139.8180 C   0  0  1  0  0  3  0  0  0  0  0  0
  183.6510  180.7270  138.9690 N   0  0  0  0  0  2  0  0  0  0  0  0
  180.6580  181.4130  136.9710 C   0  0  0  0  0  2  0  0  0  0  0  0
  181.5620  179.5870  138.9210 C   0  0  0  0  0  0  0  0  0  0  0  0
  182.5190  178.3130  139.6650 S   0  0  0  0  0  0  0  0  0  0  0  0
  191.7280  175.8530  136.5440 C   0  0  0  0  0  3  0  0  0  0  0  0
  192.6740  176.0610  135.7380 O   0  0  0  0  0  0  0  0  0  0  0  0
  188.1840  175.6240  136.5780 N   0  0  0  0  0  2  0  0  0  0  0  0
  186.3110  175.5100  134.7680 C   0  0  0  0  0  3  0  0  0  0  0  0
  187.1790  175.5620  135.6030 C   0  0  0  0  0  0  0  0  0  0  0  0
  191.8790  177.9540  141.9450 N   0  0  0  0  0  2  0  0  0  0  0  0
  191.7080  177.1700  143.1580 C   0  0  0  0  0  2  0  0  0  0  0  0
  190.8870  177.9530  144.1700 C   0  0  0  0  0  2  0  0  0  0  0  0
  188.0770  177.2840  146.1990 N   0  0  0  0  0  0  0  0  0  0  0  0
  190.3920  177.5130  146.5160 N   0  0  0  0  0  2  0  0  0  0  0  0
  188.8660  178.1970  148.6100 S   0  0  0  0  0  0  0  0  0  0  0  0
  189.1100  177.6340  147.0940 C   0  0  0  0  0  0  0  0  0  0  0  0
  188.6780  176.9670  144.9190 C   0  0  0  0  0  2  0  0  0  0  0  0
  190.2040  177.0160  145.1570 C   0  0  1  0  0  3  0  0  0  0  0  0
  186.6560  177.5260  146.3910 C   0  0  0  0  0  2  0  0  0  0  0  0
  184.8420  178.7440  145.1260 C   0  0  0  0  0  0  0  0  0  0  0  0
  184.2420  179.0110  146.2030 O   0  0  0  0  0  0  0  0  0  0  0  0
  186.0660  178.0020  145.1500 N   0  0  0  0  0  2  0  0  0  0  0  0
  184.2860  179.2030  143.8470 C   0  0  0  0  0  0  0  0  0  0  0  0
  183.0800  178.6370  143.3450 N   0  0  0  0  0  1  0  0  0  0  0  0
  184.8690  180.1060  143.1910 O   0  0  0  0  0  0  0  0  0  0  0  0
  1 11  1  0  0  0  0
  1  9  2  0  0  0  0
  3 28  1  1  0  0  0
  3 14  1  0  0  0  0
  4  2  1  6  0  0  0
  4  6  1  0  0  0  0
  6 31  1  0  0  0  0
  7  5  1  0  0  0  0
  8  2  2  0  0  0  0
  9  8  1  0  0  0  0
  9  5  1  0  0  0  0
 10 12  1  0  0  0  0
 11  7  2  0  0  0  0
 12  6  2  0  0  0  0
 13  3  1  0  0  0  0
 13  1  1  0  0  0  0
 14 16  1  0  0  0  0
 14  8  1  6  0  0  0
 15 10  2  0  0  0  0
 16 15  1  6  0  0  0
 16  4  1  0  0  0  0
 17 24  2  0  0  0  0
 18 24  1  0  0  0  0
 18 22  1  0  0  0  0
 19 18  1  0  0  0  0
 20 17  1  0  0  0  0
 21  7  1  6  0  0  0
 22 21  1  0  0  0  0
 23 20  1  0  0  0  0
 23 19  1  0  0  0  0
 24 25  1  0  0  0  0
 25 21  1  0  0  0  0
 26 15  1  0  0  0  0
 27 26  2  0  0  0  0
 29 30  3  0  0  0  0
 30 28  1  0  0  0  0
 31 32  1  0  0  0  0
 32 33  1  0  0  0  0
 34 40  1  0  0  0  0
 34 37  1  0  0  0  0
 35 37  1  0  0  0  0
 37 36  2  0  0  0  0
 38 39  1  0  0  0  0
 38 34  1  0  0  0  0
 39 33  1  6  0  0  0
 39 35  1  0  0  0  0
 41 43  1  0  0  0  0
 41 42  2  0  0  0  0
 43 40  1  0  0  0  0
 44 41  1  0  0  0  0
 45 44  1  0  0  0  0
 46 44  2  0  0  0  0
M  END
>  <MODEL>
7

>  <REMARK>
 VINA RESULT:      -8.0      2.855      9.362
  Name = 
  11 active torsions:
  status: ('A' for Active; 'I' for Inactive)
    1  A    between atoms: C_5  and  N_11
    2  A    between atoms: N_6  and  C_15
    3  A    between atoms: C_9  and  C_40
    4  A    between atoms: C_10  and  N_11
    5  A    between atoms: C_12  and  C_13
    6  A    between atoms: C_15  and  N_41
    7  A    between atoms: C_19  and  C_36
    8  A    between atoms: C_19  and  C_44
    9  A    between atoms: N_20  and  C_22
   10  A    between atoms: N_20  and  C_36
   11  A    between atoms: C_23  and  C_33
                            x       y       z     vdW  Elec       q    Type
                         _______ _______ _______ _____ _____    ______ ____

>  <TORSDO>
F 11

$$$$
=
 OpenBabel10222417203D

 46 52  0  0  1  0  0  0  0  0999 V2000
  185.8060  177.8460  143.6160 C   0  0  0  0  0  0  0  0  0  0  0  0
  189.1340  178.6410  142.3240 N   0  0  0  0  0  0  0  0  0  0  0  0
  187.5750  177.4430  145.4490 C   0  0  1  0  0  3  0  0  0  0  0  0
  190.3650  178.3640  143.0670 C   0  0  2  0  0  3  0  0  0  0  0  0
  185.9690  179.1170  141.4560 S   0  0  0  0  0  0  0  0  0  0  0  0
  191.2480  177.3510  142.3750 C   0  0  0  0  0  0  0  0  0  0  0  0
  184.4550  178.5910  141.9930 C   0  0  0  0  0  0  0  0  0  0  0  0
  188.1480  178.4470  143.1350 C   0  0  0  0  0  0  0  0  0  0  0  0
  186.7390  178.4520  142.7910 C   0  0  0  0  0  0  0  0  0  0  0  0
  191.6830  176.2590  144.5600 C   0  0  0  0  0  3  0  0  0  0  0  0
  184.5290  177.9110  143.1630 N   0  0  0  0  0  0  0  0  0  0  0  0
  191.9050  176.4230  143.1000 C   0  0  0  0  0  3  0  0  0  0  0  0
  186.2140  177.0270  144.8220 C   0  0  0  0  0  2  0  0  0  0  0  0
  188.5570  177.9300  144.4130 C   0  0  2  0  0  3  0  0  0  0  0  0
  190.7080  176.9280  145.1930 C   0  0  0  0  0  0  0  0  0  0  0  0
  189.8740  177.8280  144.3820 C   0  0  1  0  0  3  0  0  0  0  0  0
  179.6190  177.5320  141.5450 C   0  0  0  0  0  3  0  0  0  0  0  0
  181.5960  177.5460  140.1820 N   0  0  0  0  0  0  0  0  0  0  0  0
  181.0330  176.6380  139.1840 C   0  0  0  0  0  2  0  0  0  0  0  0
  178.9370  176.6450  140.5420 C   0  0  0  0  0  2  0  0  0  0  0  0
  183.1800  178.8370  141.2630 C   0  0  1  0  0  3  0  0  0  0  0  0
  182.9730  177.7930  140.2470 N   0  0  0  0  0  2  0  0  0  0  0  0
  179.9560  175.7590  139.8210 C   0  0  0  0  0  2  0  0  0  0  0  0
  180.8470  177.9900  141.2990 C   0  0  0  0  0  0  0  0  0  0  0  0
  181.7790  178.9340  142.4530 S   0  0  0  0  0  0  0  0  0  0  0  0
  190.4480  176.7280  146.6240 C   0  0  0  0  0  3  0  0  0  0  0  0
  191.2340  176.0580  147.3460 O   0  0  0  0  0  0  0  0  0  0  0  0
  187.3690  178.4880  146.4380 N   0  0  0  0  0  2  0  0  0  0  0  0
  187.9270  178.0900  148.9530 C   0  0  0  0  0  3  0  0  0  0  0  0
  187.6670  178.2750  147.7900 C   0  0  0  0  0  0  0  0  0  0  0  0
  191.4990  177.4980  140.9740 N   0  0  0  0  0  2  0  0  0  0  0  0
  190.9680  176.5990  139.9630 C   0  0  0  0  0  2  0  0  0  0  0  0
  189.4730  176.8240  139.8030 C   0  0  0  0  0  2  0  0  0  0  0  0
  187.5230  177.6440  136.9780 N   0  0  0  0  0  0  0  0  0  0  0  0
  189.8030  177.3270  137.4410 N   0  0  0  0  0  2  0  0  0  0  0  0
  189.0400  176.7450  134.9390 S   0  0  0  0  0  0  0  0  0  0  0  0
  188.7830  177.2690  136.4660 C   0  0  0  0  0  0  0  0  0  0  0  0
  187.6730  177.9130  138.3940 C   0  0  0  0  0  2  0  0  0  0  0  0
  189.1890  177.8060  138.6750 C   0  0  1  0  0  3  0  0  0  0  0  0
  186.2410  177.4650  136.3160 C   0  0  0  0  0  2  0  0  0  0  0  0
  185.3840  175.1100  136.6250 C   0  0  0  0  0  0  0  0  0  0  0  0
  186.0280  174.7210  135.6120 O   0  0  0  0  0  0  0  0  0  0  0  0
  185.4500  176.4800  137.0370 N   0  0  0  0  0  2  0  0  0  0  0  0
  184.5710  174.1520  137.3860 C   0  0  0  0  0  0  0  0  0  0  0  0
  185.1760  173.0020  137.9670 N   0  0  0  0  0  1  0  0  0  0  0  0
  183.3370  174.3480  137.5350 O   0  0  0  0  0  0  0  0  0  0  0  0
  1 13  1  0  0  0  0
  2  8  2  0  0  0  0
  3 28  1  1  0  0  0
  4  2  1  6  0  0  0
  4 16  1  0  0  0  0
  5  7  1  0  0  0  0
  5  9  1  0  0  0  0
  6  4  1  0  0  0  0
  6 12  2  0  0  0  0
  7 11  2  0  0  0  0
  9  8  1  0  0  0  0
  9  1  2  0  0  0  0
 10 15  2  0  0  0  0
 11  1  1  0  0  0  0
 12 10  1  0  0  0  0
 13  3  1  0  0  0  0
 14  8  1  6  0  0  0
 14  3  1  0  0  0  0
 15 26  1  0  0  0  0
 16 14  1  0  0  0  0
 16 15  1  6  0  0  0
 18 22  1  0  0  0  0
 18 24  1  0  0  0  0
 19 23  1  0  0  0  0
 19 18  1  0  0  0  0
 20 17  1  0  0  0  0
 21  7  1  1  0  0  0
 21 25  1  0  0  0  0
 22 21  1  0  0  0  0
 23 20  1  0  0  0  0
 24 17  2  0  0  0  0
 24 25  1  0  0  0  0
 26 27  2  0  0  0  0
 28 30  1  0  0  0  0
 30 29  3  0  0  0  0
 31  6  1  0  0  0  0
 32 31  1  0  0  0  0
 33 32  1  0  0  0  0
 34 38  1  0  0  0  0
 35 39  1  0  0  0  0
 36 37  2  0  0  0  0
 37 34  1  0  0  0  0
 37 35  1  0  0  0  0
 38 39  1  0  0  0  0
 39 33  1  1  0  0  0
 40 34  1  0  0  0  0
 40 43  1  0  0  0  0
 41 43  1  0  0  0  0
 41 44  1  0  0  0  0
 42 41  2  0  0  0  0
 44 46  2  0  0  0  0
 44 45  1  0  0  0  0
M  END
>  <MODEL>
8

>  <REMARK>
 VINA RESULT:      -8.0      2.731      7.627
  Name = 
  11 active torsions:
  status: ('A' for Active; 'I' for Inactive)
    1  A    between atoms: C_5  and  N_11
    2  A    between atoms: N_6  and  C_15
    3  A    between atoms: C_9  and  C_40
    4  A    between atoms: C_10  and  N_11
    5  A    between atoms: C_12  and  C_13
    6  A    between atoms: C_15  and  N_41
    7  A    between atoms: C_19  and  C_36
    8  A    between atoms: C_19  and  C_44
    9  A    between atoms: N_20  and  C_22
   10  A    between atoms: N_20  and  C_36
   11  A    between atoms: C_23  and  C_33
                            x       y       z     vdW  Elec       q    Type
                         _______ _______ _______ _____ _____    ______ ____

>  <TORSDO>
F 11

$$$$
=
 OpenBabel10222417203D

 46 52  0  0  1  0  0  0  0  0999 V2000
  183.6290  178.6500  141.3250 C   0  0  0  0  0  0  0  0  0  0  0  0
  187.1090  178.9960  140.2530 N   0  0  0  0  0  0  0  0  0  0  0  0
  185.2070  178.1700  143.3080 C   0  0  1  0  0  3  0  0  0  0  0  0
  188.2450  178.6330  141.1020 C   0  0  2  0  0  3  0  0  0  0  0  0
  184.0870  179.7590  139.1190 S   0  0  0  0  0  0  0  0  0  0  0  0
  189.0540  177.4900  140.5360 C   0  0  0  0  0  0  0  0  0  0  0  0
  182.4890  179.4350  139.5650 C   0  0  0  0  0  0  0  0  0  0  0  0
  186.0520  178.9620  140.9950 C   0  0  0  0  0  0  0  0  0  0  0  0
  184.6800  179.0980  140.5430 C   0  0  0  0  0  0  0  0  0  0  0  0
  189.2070  176.4940  142.8030 C   0  0  0  0  0  3  0  0  0  0  0  0
  182.4030  178.8250  140.7730 N   0  0  0  0  0  0  0  0  0  0  0  0
  189.5490  176.5420  141.3580 C   0  0  0  0  0  3  0  0  0  0  0  0
  183.8560  177.8670  142.6010 C   0  0  0  0  0  2  0  0  0  0  0  0
  186.3080  178.4830  142.3270 C   0  0  2  0  0  3  0  0  0  0  0  0
  188.2720  177.3030  143.3220 C   0  0  0  0  0  0  0  0  0  0  0  0
  187.6040  178.2360  142.4030 C   0  0  1  0  0  3  0  0  0  0  0  0
  180.7620  180.7190  135.0840 C   0  0  0  0  0  3  0  0  0  0  0  0
  180.6740  181.5170  137.3470 N   0  0  0  0  0  0  0  0  0  0  0  0
  180.3060  182.8770  136.9570 C   0  0  0  0  0  2  0  0  0  0  0  0
  180.3270  182.0710  134.5940 C   0  0  0  0  0  2  0  0  0  0  0  0
  181.3050  179.7730  138.7270 C   0  0  1  0  0  3  0  0  0  0  0  0
  181.1570  181.2330  138.6310 N   0  0  0  0  0  2  0  0  0  0  0  0
  180.8050  183.1720  135.5430 C   0  0  0  0  0  2  0  0  0  0  0  0
  180.8430  180.4840  136.3940 C   0  0  0  0  0  0  0  0  0  0  0  0
  181.4530  178.9800  137.0730 S   0  0  0  0  0  0  0  0  0  0  0  0
  187.8910  177.2210  144.7370 C   0  0  0  0  0  3  0  0  0  0  0  0
  188.7050  177.5110  145.6540 O   0  0  0  0  0  0  0  0  0  0  0  0
  185.0510  179.2910  144.2210 N   0  0  0  0  0  2  0  0  0  0  0  0
  185.3920  178.9980  146.7880 C   0  0  0  0  0  3  0  0  0  0  0  0
  185.2360  179.1330  145.6010 C   0  0  0  0  0  0  0  0  0  0  0  0
  189.4190  177.5220  139.1530 N   0  0  0  0  0  2  0  0  0  0  0  0
  188.7450  176.7450  138.1250 C   0  0  0  0  0  2  0  0  0  0  0  0
  187.9950  177.6730  137.1820 C   0  0  0  0  0  2  0  0  0  0  0  0
  185.7470  175.7650  135.2430 N   0  0  0  0  0  0  0  0  0  0  0  0
  187.9650  175.5510  135.9820 N   0  0  0  0  0  2  0  0  0  0  0  0
  186.6430  173.2490  135.6140 S   0  0  0  0  0  0  0  0  0  0  0  0
  186.7880  174.8780  135.5890 C   0  0  0  0  0  0  0  0  0  0  0  0
  186.2120  177.1180  135.4720 C   0  0  0  0  0  2  0  0  0  0  0  0
  187.7020  176.9810  135.8580 C   0  0  1  0  0  3  0  0  0  0  0  0
  184.3530  175.4100  135.0310 C   0  0  0  0  0  2  0  0  0  0  0  0
  183.2360  174.9600  137.2500 C   0  0  0  0  0  0  0  0  0  0  0  0
  183.6490  173.7680  137.2390 O   0  0  0  0  0  0  0  0  0  0  0  0
  183.5570  175.8420  136.1690 N   0  0  0  0  0  2  0  0  0  0  0  0
  182.4290  175.4430  138.3780 C   0  0  0  0  0  0  0  0  0  0  0  0
  181.0080  175.4400  138.2960 N   0  0  0  0  0  1  0  0  0  0  0  0
  182.9900  175.8560  139.4270 O   0  0  0  0  0  0  0  0  0  0  0  0
  1 13  1  0  0  0  0
  2  8  2  0  0  0  0
  3 28  1  1  0  0  0
  4  2  1  6  0  0  0
  4 16  1  0  0  0  0
  5  7  1  0  0  0  0
  5  9  1  0  0  0  0
  6  4  1  0  0  0  0
  6 12  2  0  0  0  0
  7 11  2  0  0  0  0
  9  8  1  0  0  0  0
  9  1  2  0  0  0  0
 10 15  2  0  0  0  0
 11  1  1  0  0  0  0
 12 10  1  0  0  0  0
 13  3  1  0  0  0  0
 14  8  1  6  0  0  0
 14 16  1  0  0  0  0
 14  3  1  0  0  0  0
 15 26  1  0  0  0  0
 16 15  1  6  0  0  0
 17 24  2  0  0  0  0
 18 22  1  0  0  0  0
 19 18  1  0  0  0  0
 20 17  1  0  0  0  0
 20 23  1  0  0  0  0
 21  7  1  1  0  0  0
 22 21  1  0  0  0  0
 23 19  1  0  0  0  0
 24 25  1  0  0  0  0
 24 18  1  0  0  0  0
 25 21  1  0  0  0  0
 26 27  2  0  0  0  0
 28 30  1  0  0  0  0
 30 29  3  0  0  0  0
 31  6  1  0  0  0  0
 32 31  1  0  0  0  0
 33 32  1  0  0  0  0
 34 38  1  0  0  0  0
 34 37  1  0  0  0  0
 37 36  2  0  0  0  0
 37 35  1  0  0  0  0
 38 39  1  0  0  0  0
 39 35  1  0  0  0  0
 39 33  1  1  0  0  0
 40 34  1  0  0  0  0
 40 43  1  0  0  0  0
 41 44  1  0  0  0  0
 42 41  2  0  0  0  0
 43 41  1  0  0  0  0
 44 46  2  0  0  0  0
 45 44  1  0  0  0  0
M  END
>  <MODEL>
9

>  <REMARK>
 VINA RESULT:      -7.9      3.369      8.389
  Name = 
  11 active torsions:
  status: ('A' for Active; 'I' for Inactive)
    1  A    between atoms: C_5  and  N_11
    2  A    between atoms: N_6  and  C_15
    3  A    between atoms: C_9  and  C_40
    4  A    between atoms: C_10  and  N_11
    5  A    between atoms: C_12  and  C_13
    6  A    between atoms: C_15  and  N_41
    7  A    between atoms: C_19  and  C_36
    8  A    between atoms: C_19  and  C_44
    9  A    between atoms: N_20  and  C_22
   10  A    between atoms: N_20  and  C_36
   11  A    between atoms: C_23  and  C_33
                            x       y       z     vdW  Elec       q    Type
                         _______ _______ _______ _____ _____    ______ ____

>  <TORSDO>
F 11

$$$$
