=
 OpenBabel10222421063D

 29 33  0  0  1  0  0  0  0  0999 V2000
  184.5970  179.0290  143.4310 C   0  0  0  0  0  3  0  0  0  0  0  0
  190.6990  177.7290  140.7210 C   0  0  0  0  0  2  0  0  0  0  0  0
  186.6400  178.1940  146.8830 C   0  0  0  0  0  0  0  0  0  0  0  0
  188.8510  176.2070  143.2460 C   0  0  0  0  0  3  0  0  0  0  0  0
  184.3440  179.0100  140.9830 N   0  0  0  0  0  0  0  0  0  0  0  0
  186.5010  178.5580  141.8650 C   0  0  0  0  0  3  0  0  0  0  0  0
  189.3970  178.8560  142.3640 O   0  0  0  0  0  1  0  0  0  0  0  0
  188.3440  176.8750  145.5710 C   0  0  2  0  0  3  0  0  0  0  0  0
  184.0170  179.0730  138.6560 F   0  0  0  0  0  0  0  0  0  0  0  0
  188.7200  177.5640  147.9080 C   0  0  0  0  0  3  0  0  0  0  0  0
  190.4230  177.6790  139.2230 C   0  0  2  0  0  3  0  0  0  0  0  0
  186.1570  178.6240  139.5200 N   0  0  0  0  0  0  0  0  0  0  0  0
  187.1120  177.7330  145.6460 C   0  0  0  0  0  0  0  0  0  0  0  0
  187.0020  178.4490  140.5720 C   0  0  0  0  0  0  0  0  0  0  0  0
  184.8370  178.8990  139.7200 C   0  0  0  0  0  0  0  0  0  0  0  0
  188.9900  178.1490  139.0330 C   0  0  0  0  0  2  0  0  0  0  0  0
  186.3940  177.9940  144.5280 N   0  0  0  0  0  0  0  0  0  0  0  0
  184.7120  179.0710  145.8070 C   0  0  0  0  0  3  0  0  0  0  0  0
  189.3520  177.8350  141.4110 C   0  0  1  0  0  0  0  0  0  0  0  0
  188.3990  178.1710  140.3570 N   0  0  0  0  0  0  0  0  0  0  0  0
  189.0000  176.5340  141.9950 N   0  0  0  0  0  0  0  0  0  0  0  0
  189.2190  177.0410  146.7810 C   0  0  0  0  0  3  0  0  0  0  0  0
  185.2270  178.6870  144.5640 C   0  0  0  0  0  0  0  0  0  0  0  0
  185.1460  178.8320  142.0670 C   0  0  0  0  0  0  0  0  0  0  0  0
  187.3770  178.0860  147.9510 N   0  0  0  0  0  0  0  0  0  0  0  0
  189.0640  177.1130  144.3290 N   0  0  0  0  0  2  0  0  0  0  0  0
  185.4310  178.8200  146.9380 N   0  0  0  0  0  0  0  0  0  0  0  0
  192.2440  176.2460  137.9800 C   0  0  0  0  0  1  0  0  0  0  0  0
  190.5780  175.9630  138.6450 S   0  0  0  0  0  0  0  0  0  0  0  0
  1 23  2  0  0  0  0
  2 19  1  0  0  0  0
  3 27  1  0  0  0  0
  3 25  2  0  0  0  0
  4 26  1  0  0  0  0
  5 24  1  0  0  0  0
  6 24  2  0  0  0  0
  8 13  1  0  0  0  0
  8 22  1  1  0  0  0
  9 15  1  0  0  0  0
 10 25  1  0  0  0  0
 11 29  1  1  0  0  0
 11  2  1  0  0  0  0
 12 15  1  0  0  0  0
 12 14  2  0  0  0  0
 13  3  1  0  0  0  0
 14  6  1  0  0  0  0
 15  5  2  0  0  0  0
 16 11  1  0  0  0  0
 16 20  1  0  0  0  0
 17 23  1  0  0  0  0
 17 13  2  0  0  0  0
 18 27  2  0  0  0  0
 19 21  1  0  0  0  0
 19  7  1  1  0  0  0
 20 14  1  0  0  0  0
 20 19  1  0  0  0  0
 21  4  2  0  0  0  0
 22 10  2  0  0  0  0
 23 18  1  0  0  0  0
 24  1  1  0  0  0  0
 26  8  1  0  0  0  0
 28 29  1  0  0  0  0
M  END
>  <MODEL>
1

>  <REMARK>
 VINA RESULT:     -10.2      0.000      0.000
  Name = 
  1 active torsions:
  status: ('A' for Active; 'I' for Inactive)
    1  A    between atoms: C_11  and  S_24
                            x       y       z     vdW  Elec       q    Type
                         _______ _______ _______ _____ _____    ______ ____

>  <TORSDO>
F 1

$$$$
=
 OpenBabel10222421063D

 29 33  0  0  1  0  0  0  0  0999 V2000
  184.9800  178.8020  144.6470 C   0  0  0  0  0  3  0  0  0  0  0  0
  190.0310  177.9690  140.1680 C   0  0  0  0  0  2  0  0  0  0  0  0
  187.9920  177.9060  147.2750 C   0  0  0  0  0  0  0  0  0  0  0  0
  189.0820  176.2250  143.0260 C   0  0  0  0  0  3  0  0  0  0  0  0
  184.0050  178.8910  142.3890 N   0  0  0  0  0  0  0  0  0  0  0  0
  186.3420  178.5120  142.5590 C   0  0  0  0  0  3  0  0  0  0  0  0
  189.2420  178.9410  142.1930 O   0  0  0  0  0  1  0  0  0  0  0  0
  189.2720  176.7470  145.4350 C   0  0  2  0  0  3  0  0  0  0  0  0
  182.9930  179.0530  140.2730 F   0  0  0  0  0  0  0  0  0  0  0  0
  190.3060  177.3380  147.5930 C   0  0  0  0  0  3  0  0  0  0  0  0
  189.3210  177.9790  138.8200 C   0  0  2  0  0  3  0  0  0  0  0  0
  185.3090  178.6770  140.4320 N   0  0  0  0  0  0  0  0  0  0  0  0
  188.0880  177.5330  145.9270 C   0  0  0  0  0  0  0  0  0  0  0  0
  186.4370  178.4950  141.1710 C   0  0  0  0  0  0  0  0  0  0  0  0
  184.1010  178.8700  141.0310 C   0  0  0  0  0  0  0  0  0  0  0  0
  187.8810  178.3800  139.0950 C   0  0  0  0  0  2  0  0  0  0  0  0
  187.0600  177.8110  145.0920 N   0  0  0  0  0  0  0  0  0  0  0  0
  185.8000  178.7300  146.8790 C   0  0  0  0  0  3  0  0  0  0  0  0
  188.9500  177.9670  141.2330 C   0  0  1  0  0  0  0  0  0  0  0  0
  187.7140  178.3040  140.5330 N   0  0  0  0  0  0  0  0  0  0  0  0
  188.8370  176.6220  141.8110 N   0  0  0  0  0  0  0  0  0  0  0  0
  190.4630  176.9000  146.3380 C   0  0  0  0  0  3  0  0  0  0  0  0
  185.9320  178.4370  145.5170 C   0  0  0  0  0  0  0  0  0  0  0  0
  185.1010  178.7030  143.1710 C   0  0  0  0  0  0  0  0  0  0  0  0
  189.0190  177.7840  148.0670 N   0  0  0  0  0  0  0  0  0  0  0  0
  189.5780  177.0860  144.0530 N   0  0  0  0  0  2  0  0  0  0  0  0
  186.8340  178.4620  147.7270 N   0  0  0  0  0  0  0  0  0  0  0  0
  191.0760  176.0300  138.6350 C   0  0  0  0  0  1  0  0  0  0  0  0
  189.3590  176.3050  138.1140 S   0  0  0  0  0  0  0  0  0  0  0  0
  1 23  2  0  0  0  0
  2 19  1  0  0  0  0
  3 27  1  0  0  0  0
  3 25  2  0  0  0  0
  4 26  1  0  0  0  0
  5 24  1  0  0  0  0
  6 24  2  0  0  0  0
  8 13  1  0  0  0  0
  8 22  1  1  0  0  0
  9 15  1  0  0  0  0
 10 25  1  0  0  0  0
 11 29  1  1  0  0  0
 11 16  1  0  0  0  0
 11  2  1  0  0  0  0
 12 15  1  0  0  0  0
 12 14  2  0  0  0  0
 13  3  1  0  0  0  0
 14  6  1  0  0  0  0
 15  5  2  0  0  0  0
 16 20  1  0  0  0  0
 17 23  1  0  0  0  0
 17 13  2  0  0  0  0
 18 27  2  0  0  0  0
 19 21  1  0  0  0  0
 19  7  1  1  0  0  0
 20 14  1  0  0  0  0
 20 19  1  0  0  0  0
 21  4  2  0  0  0  0
 22 10  2  0  0  0  0
 23 18  1  0  0  0  0
 24  1  1  0  0  0  0
 26  8  1  0  0  0  0
 29 28  1  0  0  0  0
M  END
>  <MODEL>
2

>  <REMARK>
 VINA RESULT:      -9.6      1.032      1.189
  Name = 
  1 active torsions:
  status: ('A' for Active; 'I' for Inactive)
    1  A    between atoms: C_11  and  S_24
                            x       y       z     vdW  Elec       q    Type
                         _______ _______ _______ _____ _____    ______ ____

>  <TORSDO>
F 1

$$$$
=
 OpenBabel10222421063D

 29 33  0  0  1  0  0  0  0  0999 V2000
  185.7350  178.3090  145.5270 C   0  0  0  0  0  3  0  0  0  0  0  0
  189.6980  178.0160  140.0070 C   0  0  0  0  0  2  0  0  0  0  0  0
  189.2790  177.3850  147.3620 C   0  0  0  0  0  0  0  0  0  0  0  0
  189.4590  176.0440  142.8640 C   0  0  0  0  0  3  0  0  0  0  0  0
  184.2840  178.5010  143.5490 N   0  0  0  0  0  0  0  0  0  0  0  0
  186.6120  178.2240  143.1770 C   0  0  0  0  0  3  0  0  0  0  0  0
  189.3440  178.8130  142.2220 O   0  0  0  0  0  1  0  0  0  0  0  0
  190.1570  176.4130  145.2060 C   0  0  2  0  0  3  0  0  0  0  0  0
  182.8260  178.7550  141.7220 F   0  0  0  0  0  0  0  0  0  0  0  0
  191.6220  176.9090  147.1250 C   0  0  0  0  0  3  0  0  0  0  0  0
  188.7090  178.0820  138.8500 C   0  0  2  0  0  3  0  0  0  0  0  0
  185.1300  178.4800  141.3440 N   0  0  0  0  0  0  0  0  0  0  0  0
  189.0870  177.1080  146.0010 C   0  0  0  0  0  0  0  0  0  0  0  0
  186.3980  178.3030  141.8050 C   0  0  0  0  0  0  0  0  0  0  0  0
  184.0780  178.5750  142.2050 C   0  0  0  0  0  0  0  0  0  0  0  0
  187.3530  178.3950  139.4620 C   0  0  0  0  0  2  0  0  0  0  0  0
  187.8920  177.3910  145.4330 N   0  0  0  0  0  0  0  0  0  0  0  0
  187.0280  178.1290  147.5160 C   0  0  0  0  0  3  0  0  0  0  0  0
  188.8790  177.8930  141.2780 C   0  0  1  0  0  0  0  0  0  0  0  0
  187.5090  178.2160  140.8920 N   0  0  0  0  0  0  0  0  0  0  0  0
  188.9390  176.5080  141.7640 N   0  0  0  0  0  0  0  0  0  0  0  0
  191.5130  176.5630  145.8370 C   0  0  0  0  0  3  0  0  0  0  0  0
  186.8660  177.9340  146.1400 C   0  0  0  0  0  0  0  0  0  0  0  0
  185.5300  178.3140  144.0580 C   0  0  0  0  0  0  0  0  0  0  0  0
  190.4580  177.2600  147.9000 N   0  0  0  0  0  0  0  0  0  0  0  0
  190.1400  176.8570  143.8200 N   0  0  0  0  0  2  0  0  0  0  0  0
  188.2320  177.8550  148.0950 N   0  0  0  0  0  0  0  0  0  0  0  0
  190.3850  176.1070  138.3990 C   0  0  0  0  0  1  0  0  0  0  0  0
  188.6430  176.4620  138.0300 S   0  0  0  0  0  0  0  0  0  0  0  0
  1 23  2  0  0  0  0
  2 19  1  0  0  0  0
  3 25  2  0  0  0  0
  3 27  1  0  0  0  0
  4 26  1  0  0  0  0
  5 24  1  0  0  0  0
  6 24  2  0  0  0  0
  8 22  1  1  0  0  0
  8 13  1  0  0  0  0
  9 15  1  0  0  0  0
 10 25  1  0  0  0  0
 11 29  1  1  0  0  0
 11 16  1  0  0  0  0
 11  2  1  0  0  0  0
 12 14  2  0  0  0  0
 12 15  1  0  0  0  0
 13  3  1  0  0  0  0
 14  6  1  0  0  0  0
 15  5  2  0  0  0  0
 16 20  1  0  0  0  0
 17 13  2  0  0  0  0
 17 23  1  0  0  0  0
 18 27  2  0  0  0  0
 19 21  1  0  0  0  0
 19  7  1  1  0  0  0
 20 19  1  0  0  0  0
 20 14  1  0  0  0  0
 21  4  2  0  0  0  0
 22 10  2  0  0  0  0
 23 18  1  0  0  0  0
 24  1  1  0  0  0  0
 26  8  1  0  0  0  0
 29 28  1  0  0  0  0
M  END
>  <MODEL>
3

>  <REMARK>
 VINA RESULT:      -9.6      1.530      2.141
  Name = 
  1 active torsions:
  status: ('A' for Active; 'I' for Inactive)
    1  A    between atoms: C_11  and  S_24
                            x       y       z     vdW  Elec       q    Type
                         _______ _______ _______ _____ _____    ______ ____

>  <TORSDO>
F 1

$$$$
=
 OpenBabel10222421063D

 29 33  0  0  1  0  0  0  0  0999 V2000
  185.0320  178.6210  146.2650 C   0  0  0  0  0  3  0  0  0  0  0  0
  189.9050  176.2860  142.1330 C   0  0  0  0  0  2  0  0  0  0  0  0
  182.9900  178.8370  142.7200 C   0  0  0  0  0  0  0  0  0  0  0  0
  187.6080  178.8860  141.8610 C   0  0  0  0  0  3  0  0  0  0  0  0
  187.0950  178.3970  147.5870 N   0  0  0  0  0  0  0  0  0  0  0  0
  187.2060  177.8410  145.2820 C   0  0  0  0  0  3  0  0  0  0  0  0
  187.6370  176.2190  142.8520 O   0  0  0  0  0  1  0  0  0  0  0  0
  185.1700  178.9180  141.4530 C   0  0  2  0  0  3  0  0  0  0  0  0
  188.9990  178.1560  148.9450 F   0  0  0  0  0  0  0  0  0  0  0  0
  183.0120  178.4930  140.3410 C   0  0  0  0  0  3  0  0  0  0  0  0
  191.1400  176.2410  143.0240 C   0  0  2  0  0  3  0  0  0  0  0  0
  189.1180  177.6040  146.6630 N   0  0  0  0  0  0  0  0  0  0  0  0
  184.3920  178.8090  142.7340 C   0  0  0  0  0  0  0  0  0  0  0  0
  188.5430  177.4900  145.4350 C   0  0  0  0  0  0  0  0  0  0  0  0
  188.4050  178.0560  147.7320 C   0  0  0  0  0  0  0  0  0  0  0  0
  190.6610  176.5250  144.4380 C   0  0  0  0  0  2  0  0  0  0  0  0
  185.0370  178.7760  143.9230 N   0  0  0  0  0  0  0  0  0  0  0  0
  182.9770  178.8860  145.0940 C   0  0  0  0  0  3  0  0  0  0  0  0
  188.8130  176.9700  142.9330 C   0  0  1  0  0  0  0  0  0  0  0  0
  189.2970  176.9990  144.3100 N   0  0  0  0  0  0  0  0  0  0  0  0
  188.6380  178.3450  142.4450 N   0  0  0  0  0  0  0  0  0  0  0  0
  184.3470  178.5210  140.2600 C   0  0  0  0  0  3  0  0  0  0  0  0
  184.3720  178.7710  145.1070 C   0  0  0  0  0  0  0  0  0  0  0  0
  186.4790  178.3120  146.3780 C   0  0  0  0  0  0  0  0  0  0  0  0
  182.3400  178.7230  141.5970 N   0  0  0  0  0  0  0  0  0  0  0  0
  186.4150  178.1690  141.5410 N   0  0  0  0  0  2  0  0  0  0  0  0
  182.3170  178.9120  143.9020 N   0  0  0  0  0  0  0  0  0  0  0  0
  191.7840  177.4270  140.7680 C   0  0  0  0  0  1  0  0  0  0  0  0
  192.2970  177.5430  142.5050 S   0  0  0  0  0  0  0  0  0  0  0  0
  1 24  1  0  0  0  0
  2 19  1  0  0  0  0
  2 11  1  0  0  0  0
  3 13  1  0  0  0  0
  3 27  1  0  0  0  0
  4 21  2  0  0  0  0
  5 15  2  0  0  0  0
  6 14  1  0  0  0  0
  6 24  2  0  0  0  0
  8 22  1  6  0  0  0
  8 26  1  0  0  0  0
  8 13  1  0  0  0  0
 10 25  1  0  0  0  0
 11 29  1  6  0  0  0
 11 16  1  0  0  0  0
 12 15  1  0  0  0  0
 13 17  2  0  0  0  0
 14 12  2  0  0  0  0
 15  9  1  0  0  0  0
 17 23  1  0  0  0  0
 18 23  1  0  0  0  0
 19  7  1  6  0  0  0
 19 20  1  0  0  0  0
 20 16  1  0  0  0  0
 20 14  1  0  0  0  0
 21 19  1  0  0  0  0
 22 10  2  0  0  0  0
 23  1  2  0  0  0  0
 24  5  1  0  0  0  0
 25  3  2  0  0  0  0
 26  4  1  0  0  0  0
 27 18  2  0  0  0  0
 28 29  1  0  0  0  0
M  END
>  <MODEL>
4

>  <REMARK>
 VINA RESULT:      -9.5      2.790      5.474
  Name = 
  1 active torsions:
  status: ('A' for Active; 'I' for Inactive)
    1  A    between atoms: C_11  and  S_24
                            x       y       z     vdW  Elec       q    Type
                         _______ _______ _______ _____ _____    ______ ____

>  <TORSDO>
F 1

$$$$
=
 OpenBabel10222421063D

 29 33  0  0  1  0  0  0  0  0999 V2000
  184.6390  178.7640  140.9580 C   0  0  0  0  0  3  0  0  0  0  0  0
  189.4550  176.4590  145.1720 C   0  0  0  0  0  2  0  0  0  0  0  0
  187.5830  178.0530  138.1990 C   0  0  0  0  0  0  0  0  0  0  0  0
  189.5250  178.6120  142.4390 C   0  0  0  0  0  3  0  0  0  0  0  0
  183.8330  179.0760  143.2630 N   0  0  0  0  0  0  0  0  0  0  0  0
  185.9970  178.1430  142.9750 C   0  0  0  0  0  3  0  0  0  0  0  0
  188.2100  176.1950  143.1610 O   0  0  0  0  0  1  0  0  0  0  0  0
  189.3350  178.2210  140.0070 C   0  0  2  0  0  3  0  0  0  0  0  0
  182.9540  179.3550  145.4250 F   0  0  0  0  0  0  0  0  0  0  0  0
  189.8250  177.3000  137.7730 C   0  0  0  0  0  3  0  0  0  0  0  0
  188.8900  176.7510  146.5570 C   0  0  2  0  0  3  0  0  0  0  0  0
  185.0980  178.4310  145.1500 N   0  0  0  0  0  0  0  0  0  0  0  0
  187.9020  178.2300  139.5530 C   0  0  0  0  0  0  0  0  0  0  0  0
  186.1230  178.0200  144.3550 C   0  0  0  0  0  0  0  0  0  0  0  0
  183.9620  178.9580  144.6130 C   0  0  0  0  0  0  0  0  0  0  0  0
  187.4560  177.2080  146.3490 C   0  0  0  0  0  2  0  0  0  0  0  0
  186.9110  178.5010  140.4340 N   0  0  0  0  0  0  0  0  0  0  0  0
  185.3050  178.5190  138.6880 C   0  0  0  0  0  3  0  0  0  0  0  0
  188.5190  177.1100  144.1720 C   0  0  1  0  0  0  0  0  0  0  0  0
  187.3170  177.4520  144.9270 N   0  0  0  0  0  0  0  0  0  0  0  0
  189.1380  178.3370  143.6510 N   0  0  0  0  0  0  0  0  0  0  0  0
  190.2280  177.5050  139.0320 C   0  0  0  0  0  3  0  0  0  0  0  0
  185.6120  178.6100  140.0500 C   0  0  0  0  0  0  0  0  0  0  0  0
  184.8340  178.6910  142.4270 C   0  0  0  0  0  0  0  0  0  0  0  0
  188.4890  177.6490  137.3560 N   0  0  0  0  0  0  0  0  0  0  0  0
  189.4460  177.6860  141.3560 N   0  0  0  0  0  2  0  0  0  0  0  0
  186.2960  178.2390  137.7930 N   0  0  0  0  0  0  0  0  0  0  0  0
  188.6390  178.3120  148.6580 C   0  0  0  0  0  1  0  0  0  0  0  0
  189.8480  178.0930  147.3220 S   0  0  0  0  0  0  0  0  0  0  0  0
  1 24  1  0  0  0  0
  2 11  1  0  0  0  0
  3 13  1  0  0  0  0
  4 21  2  0  0  0  0
  5 15  2  0  0  0  0
  6 14  1  0  0  0  0
  8 22  1  6  0  0  0
  8 26  1  0  0  0  0
 10 22  2  0  0  0  0
 11 29  1  6  0  0  0
 13  8  1  0  0  0  0
 13 17  2  0  0  0  0
 14 20  1  0  0  0  0
 14 12  2  0  0  0  0
 15 12  1  0  0  0  0
 15  9  1  0  0  0  0
 16 11  1  0  0  0  0
 18 23  1  0  0  0  0
 19  7  1  6  0  0  0
 19 20  1  0  0  0  0
 19  2  1  0  0  0  0
 20 16  1  0  0  0  0
 21 19  1  0  0  0  0
 23 17  1  0  0  0  0
 23  1  2  0  0  0  0
 24  6  2  0  0  0  0
 24  5  1  0  0  0  0
 25 10  1  0  0  0  0
 25  3  2  0  0  0  0
 26  4  1  0  0  0  0
 27  3  1  0  0  0  0
 27 18  2  0  0  0  0
 29 28  1  0  0  0  0
M  END
>  <MODEL>
5

>  <REMARK>
 VINA RESULT:      -8.6      2.576      6.285
  Name = 
  1 active torsions:
  status: ('A' for Active; 'I' for Inactive)
    1  A    between atoms: C_11  and  S_24
                            x       y       z     vdW  Elec       q    Type
                         _______ _______ _______ _____ _____    ______ ____

>  <TORSDO>
F 1

$$$$
=
 OpenBabel10222421063D

 29 33  0  0  1  0  0  0  0  0999 V2000
  185.5860  178.6980  140.7580 C   0  0  0  0  0  3  0  0  0  0  0  0
  189.2890  176.4850  146.0160 C   0  0  0  0  0  2  0  0  0  0  0  0
  188.9800  177.6420  138.7210 C   0  0  0  0  0  0  0  0  0  0  0  0
  190.0490  178.4220  143.2280 C   0  0  0  0  0  3  0  0  0  0  0  0
  184.3490  179.2190  142.8200 N   0  0  0  0  0  0  0  0  0  0  0  0
  186.4630  178.1640  143.0480 C   0  0  0  0  0  3  0  0  0  0  0  0
  188.4650  176.1310  143.8110 O   0  0  0  0  0  1  0  0  0  0  0  0
  190.3340  177.8600  140.8380 C   0  0  2  0  0  3  0  0  0  0  0  0
  183.0660  179.7000  144.7310 F   0  0  0  0  0  0  0  0  0  0  0  0
  191.2100  176.7530  138.8170 C   0  0  0  0  0  3  0  0  0  0  0  0
  188.4730  176.9050  147.2330 C   0  0  2  0  0  3  0  0  0  0  0  0
  185.1590  178.6560  144.9660 N   0  0  0  0  0  0  0  0  0  0  0  0
  189.0270  177.9050  140.0970 C   0  0  0  0  0  0  0  0  0  0  0  0
  186.2970  178.1380  144.4290 C   0  0  0  0  0  0  0  0  0  0  0  0
  184.1920  179.1960  144.1720 C   0  0  0  0  0  0  0  0  0  0  0  0
  187.1420  177.4140  146.7030 C   0  0  0  0  0  2  0  0  0  0  0  0
  187.8960  178.2870  140.7340 N   0  0  0  0  0  0  0  0  0  0  0  0
  186.6840  178.2530  138.6950 C   0  0  0  0  0  3  0  0  0  0  0  0
  188.6190  177.1030  144.8040 C   0  0  1  0  0  0  0  0  0  0  0  0
  187.3120  177.5580  145.2700 N   0  0  0  0  0  0  0  0  0  0  0  0
  189.4060  178.2560  144.3470 N   0  0  0  0  0  0  0  0  0  0  0  0
  191.3600  177.0320  140.1170 C   0  0  0  0  0  3  0  0  0  0  0  0
  186.7120  178.4290  140.0820 C   0  0  0  0  0  0  0  0  0  0  0  0
  185.4730  178.7250  142.2370 C   0  0  0  0  0  0  0  0  0  0  0  0
  190.0120  177.1340  138.1110 N   0  0  0  0  0  0  0  0  0  0  0  0
  190.1350  177.4220  142.2120 N   0  0  0  0  0  2  0  0  0  0  0  0
  187.8170  177.8590  138.0450 N   0  0  0  0  0  0  0  0  0  0  0  0
  190.9650  177.4930  147.8300 C   0  0  0  0  0  1  0  0  0  0  0  0
  189.3370  178.2530  148.0930 S   0  0  0  0  0  0  0  0  0  0  0  0
  1 24  1  0  0  0  0
  2 11  1  0  0  0  0
  3 13  1  0  0  0  0
  4 21  2  0  0  0  0
  5 15  2  0  0  0  0
  6 14  1  0  0  0  0
  8 22  1  6  0  0  0
  8 26  1  0  0  0  0
 10 22  2  0  0  0  0
 11 29  1  6  0  0  0
 13 17  2  0  0  0  0
 13  8  1  0  0  0  0
 14 12  2  0  0  0  0
 14 20  1  0  0  0  0
 15  9  1  0  0  0  0
 15 12  1  0  0  0  0
 16 11  1  0  0  0  0
 18 23  1  0  0  0  0
 19  7  1  6  0  0  0
 19 20  1  0  0  0  0
 19  2  1  0  0  0  0
 20 16  1  0  0  0  0
 21 19  1  0  0  0  0
 23 17  1  0  0  0  0
 23  1  2  0  0  0  0
 24  5  1  0  0  0  0
 24  6  2  0  0  0  0
 25  3  2  0  0  0  0
 25 10  1  0  0  0  0
 26  4  1  0  0  0  0
 27 18  2  0  0  0  0
 27  3  1  0  0  0  0
 28 29  1  0  0  0  0
M  END
>  <MODEL>
6

>  <REMARK>
 VINA RESULT:      -8.4      2.600      6.170
  Name = 
  1 active torsions:
  status: ('A' for Active; 'I' for Inactive)
    1  A    between atoms: C_11  and  S_24
                            x       y       z     vdW  Elec       q    Type
                         _______ _______ _______ _____ _____    ______ ____

>  <TORSDO>
F 1

$$$$
=
 OpenBabel10222421063D

 29 33  0  0  1  0  0  0  0  0999 V2000
  187.8160  178.0340  142.1930 C   0  0  0  0  0  3  0  0  0  0  0  0
  182.1710  179.5800  138.7270 C   0  0  0  0  0  2  0  0  0  0  0  0
  189.3410  177.8070  138.3970 C   0  0  0  0  0  0  0  0  0  0  0  0
  184.6830  177.2220  138.2400 C   0  0  0  0  0  3  0  0  0  0  0  0
  185.9510  178.1260  143.7960 N   0  0  0  0  0  0  0  0  0  0  0  0
  185.4500  178.5190  141.5090 C   0  0  0  0  0  3  0  0  0  0  0  0
  184.4960  179.9290  139.0950 O   0  0  0  0  0  1  0  0  0  0  0  0
  187.0250  177.4190  137.4750 C   0  0  2  0  0  3  0  0  0  0  0  0
  184.2460  178.2540  145.4090 F   0  0  0  0  0  0  0  0  0  0  0  0
  188.9410  177.9950  136.0350 C   0  0  0  0  0  3  0  0  0  0  0  0
  181.0780  179.5530  139.7890 C   0  0  2  0  0  3  0  0  0  0  0  0
  183.7400  178.6440  143.1470 N   0  0  0  0  0  0  0  0  0  0  0  0
  187.9610  177.6890  138.6190 C   0  0  0  0  0  0  0  0  0  0  0  0
  184.1170  178.7380  141.8420 C   0  0  0  0  0  0  0  0  0  0  0  0
  184.6450  178.3370  144.1180 C   0  0  0  0  0  0  0  0  0  0  0  0
  181.7840  179.4120  141.1280 C   0  0  0  0  0  2  0  0  0  0  0  0
  187.4930  177.7310  139.8880 N   0  0  0  0  0  0  0  0  0  0  0  0
  189.6980  177.9110  140.7430 C   0  0  0  0  0  3  0  0  0  0  0  0
  183.4360  179.0660  139.3870 C   0  0  1  0  0  0  0  0  0  0  0  0
  183.1600  179.0750  140.8200 N   0  0  0  0  0  0  0  0  0  0  0  0
  183.6920  177.6890  138.9440 N   0  0  0  0  0  0  0  0  0  0  0  0
  187.6190  177.8220  136.1550 C   0  0  0  0  0  3  0  0  0  0  0  0
  188.3160  177.8810  140.9580 C   0  0  0  0  0  0  0  0  0  0  0  0
  186.3750  178.1980  142.5060 C   0  0  0  0  0  0  0  0  0  0  0  0
  189.8060  177.9160  137.1860 N   0  0  0  0  0  0  0  0  0  0  0  0
  185.7290  178.0380  137.7120 N   0  0  0  0  0  2  0  0  0  0  0  0
  190.1800  177.8780  139.4680 N   0  0  0  0  0  0  0  0  0  0  0  0
  179.8030  177.8110  141.2900 C   0  0  0  0  0  1  0  0  0  0  0  0
  180.0120  178.1080  139.5110 S   0  0  0  0  0  0  0  0  0  0  0  0
  1 24  1  0  0  0  0
  2 19  1  0  0  0  0
  2 11  1  0  0  0  0
  3 13  1  0  0  0  0
  3 27  1  0  0  0  0
  4 21  2  0  0  0  0
  5 15  2  0  0  0  0
  6 14  1  0  0  0  0
  6 24  2  0  0  0  0
  8 22  1  6  0  0  0
  8 26  1  0  0  0  0
  8 13  1  0  0  0  0
 10 22  2  0  0  0  0
 10 25  1  0  0  0  0
 11 29  1  6  0  0  0
 11 16  1  0  0  0  0
 12 15  1  0  0  0  0
 13 17  2  0  0  0  0
 14 12  2  0  0  0  0
 15  9  1  0  0  0  0
 17 23  1  0  0  0  0
 18 23  1  0  0  0  0
 19  7  1  6  0  0  0
 19 20  1  0  0  0  0
 20 16  1  0  0  0  0
 20 14  1  0  0  0  0
 21 19  1  0  0  0  0
 23  1  2  0  0  0  0
 24  5  1  0  0  0  0
 25  3  2  0  0  0  0
 26  4  1  0  0  0  0
 27 18  2  0  0  0  0
 29 28  1  0  0  0  0
M  END
>  <MODEL>
7

>  <REMARK>
 VINA RESULT:      -7.6      3.593      7.505
  Name = 
  1 active torsions:
  status: ('A' for Active; 'I' for Inactive)
    1  A    between atoms: C_11  and  S_24
                            x       y       z     vdW  Elec       q    Type
                         _______ _______ _______ _____ _____    ______ ____

>  <TORSDO>
F 1

$$$$
=
 OpenBabel10222421063D

 29 33  0  0  1  0  0  0  0  0999 V2000
  183.6910  178.7280  142.6680 C   0  0  0  0  0  3  0  0  0  0  0  0
  190.0610  176.3920  143.1480 C   0  0  0  0  0  2  0  0  0  0  0  0
  184.4630  178.2180  138.6770 C   0  0  0  0  0  0  0  0  0  0  0  0
  188.5200  178.6580  141.0030 C   0  0  0  0  0  3  0  0  0  0  0  0
  184.3870  178.9210  145.0200 N   0  0  0  0  0  0  0  0  0  0  0  0
  185.9720  178.0640  143.4760 C   0  0  0  0  0  3  0  0  0  0  0  0
  187.8740  176.1750  142.2340 O   0  0  0  0  0  1  0  0  0  0  0  0
  186.9420  178.3620  139.1240 C   0  0  2  0  0  3  0  0  0  0  0  0
  184.9390  179.0850  147.3000 F   0  0  0  0  0  0  0  0  0  0  0  0
  186.0300  177.5480  136.9830 C   0  0  0  0  0  3  0  0  0  0  0  0
  190.4140  176.6100  144.6150 C   0  0  2  0  0  3  0  0  0  0  0  0
  186.5160  178.2360  145.7770 N   0  0  0  0  0  0  0  0  0  0  0  0
  185.5140  178.3480  139.5950 C   0  0  0  0  0  0  0  0  0  0  0  0
  186.8820  177.8880  144.5130 C   0  0  0  0  0  0  0  0  0  0  0  0
  185.2810  178.7510  146.0320 C   0  0  0  0  0  0  0  0  0  0  0  0
  189.1290  177.0330  145.3080 C   0  0  0  0  0  2  0  0  0  0  0  0
  185.2260  178.5530  140.9020 N   0  0  0  0  0  0  0  0  0  0  0  0
  182.9020  178.5970  140.4270 C   0  0  0  0  0  3  0  0  0  0  0  0
  188.7170  177.0560  142.9180 C   0  0  1  0  0  0  0  0  0  0  0  0
  188.1840  177.3310  144.2490 N   0  0  0  0  0  0  0  0  0  0  0  0
  188.9140  178.3210  142.1970 N   0  0  0  0  0  0  0  0  0  0  0  0
  187.0950  177.7130  137.7770 C   0  0  0  0  0  3  0  0  0  0  0  0
  183.9480  178.6400  141.3550 C   0  0  0  0  0  0  0  0  0  0  0  0
  184.7090  178.6000  143.7390 C   0  0  0  0  0  0  0  0  0  0  0  0
  184.7040  177.8760  137.4440 N   0  0  0  0  0  0  0  0  0  0  0  0
  187.8210  177.7750  140.1250 N   0  0  0  0  0  2  0  0  0  0  0  0
  183.1820  178.3820  139.1100 N   0  0  0  0  0  0  0  0  0  0  0  0
  192.0530  177.8510  142.9760 C   0  0  0  0  0  1  0  0  0  0  0  0
  191.6390  177.9460  144.7420 S   0  0  0  0  0  0  0  0  0  0  0  0
  1 24  1  0  0  0  0
  2 11  1  0  0  0  0
  3 27  1  0  0  0  0
  3 13  1  0  0  0  0
  4 21  2  0  0  0  0
  5 15  2  0  0  0  0
  6 24  2  0  0  0  0
  6 14  1  0  0  0  0
  8 22  1  6  0  0  0
  8 13  1  0  0  0  0
  8 26  1  0  0  0  0
 10 25  1  0  0  0  0
 10 22  2  0  0  0  0
 11 29  1  6  0  0  0
 11 16  1  0  0  0  0
 12 15  1  0  0  0  0
 13 17  2  0  0  0  0
 14 12  2  0  0  0  0
 15  9  1  0  0  0  0
 17 23  1  0  0  0  0
 18 23  1  0  0  0  0
 19  7  1  6  0  0  0
 19  2  1  0  0  0  0
 19 20  1  0  0  0  0
 20 14  1  0  0  0  0
 20 16  1  0  0  0  0
 21 19  1  0  0  0  0
 23  1  2  0  0  0  0
 24  5  1  0  0  0  0
 25  3  2  0  0  0  0
 26  4  1  0  0  0  0
 27 18  2  0  0  0  0
 28 29  1  0  0  0  0
M  END
>  <MODEL>
8

>  <REMARK>
 VINA RESULT:      -7.5      2.738      5.930
  Name = 
  1 active torsions:
  status: ('A' for Active; 'I' for Inactive)
    1  A    between atoms: C_11  and  S_24
                            x       y       z     vdW  Elec       q    Type
                         _______ _______ _______ _____ _____    ______ ____

>  <TORSDO>
F 1

$$$$
=
 OpenBabel10222421063D

 29 33  0  0  1  0  0  0  0  0999 V2000
  187.4470  178.2130  139.2580 C   0  0  0  0  0  3  0  0  0  0  0  0
  189.7440  176.5150  145.4310 C   0  0  0  0  0  2  0  0  0  0  0  0
  191.2670  177.1520  138.2240 C   0  0  0  0  0  0  0  0  0  0  0  0
  191.1450  178.2830  142.7810 C   0  0  0  0  0  3  0  0  0  0  0  0
  185.7190  178.8270  140.8980 N   0  0  0  0  0  0  0  0  0  0  0  0
  187.7280  177.8730  141.7290 C   0  0  0  0  0  3  0  0  0  0  0  0
  189.5130  175.9780  143.1240 O   0  0  0  0  0  1  0  0  0  0  0  0
  192.0370  177.5680  140.5900 C   0  0  2  0  0  3  0  0  0  0  0  0
  183.9850  179.3890  142.3840 F   0  0  0  0  0  0  0  0  0  0  0  0
  193.4180  176.3590  138.9440 C   0  0  0  0  0  3  0  0  0  0  0  0
  188.6390  176.9860  146.3680 C   0  0  2  0  0  3  0  0  0  0  0  0
  185.9720  178.4460  143.2150 N   0  0  0  0  0  0  0  0  0  0  0  0
  190.9590  177.5100  139.5440 C   0  0  0  0  0  0  0  0  0  0  0  0
  187.2190  177.9370  143.0220 C   0  0  0  0  0  0  0  0  0  0  0  0
  185.2260  178.8910  142.1660 C   0  0  0  0  0  0  0  0  0  0  0  0
  187.4760  177.4050  145.4840 C   0  0  0  0  0  2  0  0  0  0  0  0
  189.6960  177.8920  139.8460 N   0  0  0  0  0  0  0  0  0  0  0  0
  189.0410  177.6690  137.5770 C   0  0  0  0  0  3  0  0  0  0  0  0
  189.3900  177.0210  144.0460 C   0  0  1  0  0  0  0  0  0  0  0  0
  187.9990  177.4550  144.1330 N   0  0  0  0  0  0  0  0  0  0  0  0
  190.2440  178.1700  143.7140 N   0  0  0  0  0  0  0  0  0  0  0  0
  193.2290  176.7330  140.2150 C   0  0  0  0  0  3  0  0  0  0  0  0
  188.7130  177.9430  138.9090 C   0  0  0  0  0  0  0  0  0  0  0  0
  186.9640  178.3380  140.6550 C   0  0  0  0  0  0  0  0  0  0  0  0
  192.4300  176.6430  137.9330 N   0  0  0  0  0  0  0  0  0  0  0  0
  191.5060  177.2190  141.8990 N   0  0  0  0  0  2  0  0  0  0  0  0
  190.3080  177.2760  137.2640 N   0  0  0  0  0  0  0  0  0  0  0  0
  188.3210  177.9260  148.8030 C   0  0  0  0  0  1  0  0  0  0  0  0
  189.2300  178.4230  147.3120 S   0  0  0  0  0  0  0  0  0  0  0  0
  1 24  1  0  0  0  0
  2 11  1  0  0  0  0
  3 13  1  0  0  0  0
  4 21  2  0  0  0  0
  5 15  2  0  0  0  0
  6 14  1  0  0  0  0
  8 22  1  6  0  0  0
  8 26  1  0  0  0  0
 10 22  2  0  0  0  0
 11 29  1  6  0  0  0
 13 17  2  0  0  0  0
 13  8  1  0  0  0  0
 14 12  2  0  0  0  0
 14 20  1  0  0  0  0
 15  9  1  0  0  0  0
 15 12  1  0  0  0  0
 16 11  1  0  0  0  0
 18 23  1  0  0  0  0
 19  7  1  6  0  0  0
 19 20  1  0  0  0  0
 19  2  1  0  0  0  0
 20 16  1  0  0  0  0
 21 19  1  0  0  0  0
 23  1  2  0  0  0  0
 23 17  1  0  0  0  0
 24  5  1  0  0  0  0
 24  6  2  0  0  0  0
 25  3  2  0  0  0  0
 25 10  1  0  0  0  0
 26  4  1  0  0  0  0
 27 18  2  0  0  0  0
 27  3  1  0  0  0  0
 29 28  1  0  0  0  0
M  END
>  <MODEL>
9

>  <REMARK>
 VINA RESULT:      -7.2      2.580      6.548
  Name = 
  1 active torsions:
  status: ('A' for Active; 'I' for Inactive)
    1  A    between atoms: C_11  and  S_24
                            x       y       z     vdW  Elec       q    Type
                         _______ _______ _______ _____ _____    ______ ____

>  <TORSDO>
F 1

$$$$
