=
 OpenBabel10222417103D

 51 55  0  0  1  0  0  0  0  0999 V2000
  192.0320  176.7280  147.0410 N   0  0  0  0  0  0  0  0  0  0  0  0
  190.5800  178.0670  141.6720 C   0  0  0  0  0  3  0  0  0  0  0  0
  187.5490  177.8490  144.9460 C   0  0  0  0  0  0  0  0  0  0  0  0
  189.5340  177.5950  140.9670 C   0  0  0  0  0  0  0  0  0  0  0  0
  188.0530  176.7330  142.7800 C   0  0  0  0  0  3  0  0  0  0  0  0
  188.4760  177.7980  143.7410 C   0  0  2  0  0  3  0  0  0  0  0  0
  188.5180  176.6820  141.5320 C   0  0  0  0  0  3  0  0  0  0  0  0
  190.8630  177.8420  143.1050 C   0  0  0  0  0  3  0  0  0  0  0  0
  189.4060  177.2520  146.4540 C   0  0  0  0  0  0  0  0  0  0  0  0
  189.8010  176.9270  147.7490 C   0  0  0  0  0  3  0  0  0  0  0  0
  191.7000  177.0460  145.7630 C   0  0  0  0  0  3  0  0  0  0  0  0
  188.0000  177.5670  146.1770 C   0  0  0  0  0  3  0  0  0  0  0  0
  189.9450  177.6570  144.0620 C   0  0  0  0  0  0  0  0  0  0  0  0
  191.1110  176.6700  148.0050 N   0  0  0  0  0  0  0  0  0  0  0  0
  190.3650  177.3200  145.4400 C   0  0  0  0  0  0  0  0  0  0  0  0
  186.1240  178.2400  144.7660 C   0  0  0  0  0  0  0  0  0  0  0  0
  185.3050  178.4770  145.8810 C   0  0  0  0  0  3  0  0  0  0  0  0
  183.9650  178.8400  145.7180 C   0  0  0  0  0  3  0  0  0  0  0  0
  183.4260  178.9650  144.4370 C   0  0  0  0  0  3  0  0  0  0  0  0
  184.2210  178.7270  143.3130 C   0  0  0  0  0  0  0  0  0  0  0  0
  185.5660  178.3660  143.4810 C   0  0  0  0  0  3  0  0  0  0  0  0
  183.6450  178.8530  142.0110 N   0  0  0  0  0  2  0  0  0  0  0  0
  184.4430  178.8840  140.7950 C   0  0  0  0  0  2  0  0  0  0  0  0
  183.8200  177.9790  139.7490 C   0  0  0  0  0  2  0  0  0  0  0  0
  182.6490  177.4090  140.2500 O   0  0  0  0  0  0  0  0  0  0  0  0
  182.5210  176.2050  139.5600 C   0  0  0  0  0  2  0  0  0  0  0  0
  182.7760  176.4370  138.0790 C   0  0  0  0  0  2  0  0  0  0  0  0
  183.1910  175.1630  137.3320 C   0  0  1  0  0  3  0  0  0  0  0  0
  181.8660  173.0540  137.1740 O   0  0  0  0  0  1  0  0  0  0  0  0
  181.2420  174.8910  135.9570 O   0  0  0  0  0  0  0  0  0  0  0  0
  182.0430  174.3740  136.7790 C   0  0  0  0  0  0  0  0  0  0  0  0
  185.5040  176.1560  136.9140 C   0  0  0  0  0  1  0  0  0  0  0  0
  184.3700  175.3120  136.3560 C   0  0  1  0  0  3  0  0  0  0  0  0
  184.8800  174.0070  135.9600 N   0  0  0  0  0  2  0  0  0  0  0  0
  185.9140  173.6250  136.9150 C   0  0  1  0  0  3  0  0  0  0  0  0
  185.3560  172.8290  137.9210 O   0  0  0  0  0  1  0  0  0  0  0  0
  187.0650  172.8970  136.2120 C   0  0  0  0  0  0  0  0  0  0  0  0
  188.0250  172.2860  137.2190 C   0  0  0  0  0  1  0  0  0  0  0  0
  186.5500  171.8850  135.4010 O   0  0  0  0  0  1  0  0  0  0  0  0
  187.8280  173.8740  135.3370 C   0  0  0  0  0  1  0  0  0  0  0  0
  189.4460  177.8740  139.5650 N   0  0  0  0  0  2  0  0  0  0  0  0
  189.2510  177.4790  137.1860 C   0  0  0  0  0  3  0  0  0  0  0  0
  190.9030  176.1890  138.5460 C   0  0  0  0  0  2  0  0  0  0  0  0
  189.5260  176.8570  138.5240 C   0  0  1  0  0  3  0  0  0  0  0  0
  191.0020  175.2350  137.3570 C   0  0  1  0  0  3  0  0  0  0  0  0
  190.7330  175.9360  136.1400 O   0  0  0  0  0  0  0  0  0  0  0  0
  189.8220  177.0000  136.0780 C   0  0  0  0  0  3  0  0  0  0  0  0
  192.3830  174.6070  137.2870 C   0  0  0  0  0  2  0  0  0  0  0  0
  193.5340  172.6620  136.2280 O   0  0  0  0  0  1  0  0  0  0  0  0
  192.3570  173.3580  136.4740 C   0  0  0  0  0  0  0  0  0  0  0  0
  191.2630  172.9130  136.0390 O   0  0  0  0  0  0  0  0  0  0  0  0
  1 14  1  0  0  0  0
  2  8  1  0  0  0  0
  3 12  2  0  0  0  0
  4  7  1  0  0  0  0
  4  2  2  0  0  0  0
  6  5  1  6  0  0  0
  6 13  1  0  0  0  0
  6  3  1  0  0  0  0
  7  5  2  0  0  0  0
  8 13  2  0  0  0  0
  9 10  1  0  0  0  0
 10 14  2  0  0  0  0
 11  1  2  0  0  0  0
 12  9  1  0  0  0  0
 13 15  1  0  0  0  0
 15 11  1  0  0  0  0
 15  9  2  0  0  0  0
 16  3  1  0  0  0  0
 16 17  1  0  0  0  0
 18 17  2  0  0  0  0
 19 18  1  0  0  0  0
 20 21  1  0  0  0  0
 20 19  2  0  0  0  0
 21 16  2  0  0  0  0
 22 20  1  0  0  0  0
 23 22  1  0  0  0  0
 24 25  1  0  0  0  0
 24 23  1  0  0  0  0
 26 25  1  0  0  0  0
 27 26  1  0  0  0  0
 28 27  1  6  0  0  0
 30 31  2  0  0  0  0
 31 29  1  0  0  0  0
 31 28  1  0  0  0  0
 33 32  1  1  0  0  0
 33 28  1  0  0  0  0
 34 33  1  0  0  0  0
 34 35  1  0  0  0  0
 35 36  1  1  0  0  0
 37 35  1  0  0  0  0
 37 38  1  0  0  0  0
 39 37  1  0  0  0  0
 40 37  1  0  0  0  0
 41  4  1  0  0  0  0
 42 44  1  0  0  0  0
 44 43  1  0  0  0  0
 44 41  1  1  0  0  0
 45 48  1  6  0  0  0
 45 43  1  0  0  0  0
 46 45  1  0  0  0  0
 47 46  1  0  0  0  0
 47 42  2  0  0  0  0
 49 50  1  0  0  0  0
 50 48  1  0  0  0  0
 51 50  2  0  0  0  0
M  END
>  <MODEL>
1

>  <REMARK>
 VINA RESULT:      -7.9      0.000      0.000
  Name = 
  17 active torsions:
  status: ('A' for Active; 'I' for Inactive)
    1  A    between atoms: C_4  and  C_5
    2  A    between atoms: C_8  and  C_24
    3  A    between atoms: C_8  and  N_51
    4  A    between atoms: C_10  and  N_33
    5  A    between atoms: C_18  and  C_19
    6  A    between atoms: C_18  and  C_48
    7  A    between atoms: C_19  and  O_45
    8  A    between atoms: C_21  and  N_33
    9  A    between atoms: C_22  and  C_48
   10  A    between atoms: C_22  and  N_51
   11  A    between atoms: C_26  and  C_31
   12  A    between atoms: C_27  and  N_50
   13  A    between atoms: C_29  and  C_31
   14  A    between atoms: C_39  and  C_44
   15  A    between atoms: C_39  and  N_50
   16  A    between atoms: C_44  and  O_45
   17  A    between atoms: C_48  and  C_49
                            x       y       z     vdW  Elec       q    Type
                         _______ _______ _______ _____ _____    ______ ____

>  <TORSDO>
F 17

$$$$
=
 OpenBabel10222417103D

 51 55  0  0  1  0  0  0  0  0999 V2000
  180.1840  180.6980  136.1190 N   0  0  0  0  0  0  0  0  0  0  0  0
  184.2500  179.4040  139.9300 C   0  0  0  0  0  3  0  0  0  0  0  0
  182.4100  176.2950  137.3030 C   0  0  0  0  0  0  0  0  0  0  0  0
  184.2680  178.3630  140.7830 C   0  0  2  0  0  3  0  0  0  0  0  0
  182.6180  176.8190  139.7270 C   0  0  0  0  0  3  0  0  0  0  0  0
  182.9830  177.2480  138.3420 C   0  0  0  0  0  0  0  0  0  0  0  0
  183.2300  177.3110  140.8030 C   0  0  0  0  0  3  0  0  0  0  0  0
  183.2800  179.6490  138.8420 C   0  0  0  0  0  3  0  0  0  0  0  0
  181.0320  178.1010  136.3450 C   0  0  0  0  0  0  0  0  0  0  0  0
  180.0480  178.4580  135.4260 C   0  0  0  0  0  3  0  0  0  0  0  0
  181.1500  180.4040  137.0270 C   0  0  0  0  0  3  0  0  0  0  0  0
  181.4950  176.7110  136.4150 C   0  0  0  0  0  3  0  0  0  0  0  0
  182.6410  178.7050  138.1400 C   0  0  0  0  0  0  0  0  0  0  0  0
  179.6480  179.7540  135.3430 N   0  0  0  0  0  0  0  0  0  0  0  0
  181.6010  179.0850  137.1580 C   0  0  0  0  0  0  0  0  0  0  0  0
  182.8860  174.8860  137.2510 C   0  0  0  0  0  0  0  0  0  0  0  0
  181.9950  173.8450  136.9450 C   0  0  0  0  0  3  0  0  0  0  0  0
  182.4350  172.5190  136.8990 C   0  0  0  0  0  3  0  0  0  0  0  0
  183.7720  172.2170  137.1650 C   0  0  0  0  0  3  0  0  0  0  0  0
  184.6740  173.2360  137.4780 C   0  0  0  0  0  0  0  0  0  0  0  0
  184.2290  174.5660  137.5200 C   0  0  0  0  0  3  0  0  0  0  0  0
  186.0360  172.9030  137.7550 N   0  0  0  0  0  2  0  0  0  0  0  0
  187.1230  173.1940  136.8330 C   0  0  0  0  0  2  0  0  0  0  0  0
  187.9080  174.3950  137.3270 C   0  0  0  0  0  2  0  0  0  0  0  0
  188.8970  174.7280  136.4020 O   0  0  0  0  0  0  0  0  0  0  0  0
  189.2620  176.0320  136.7330 C   0  0  0  0  0  2  0  0  0  0  0  0
  189.2230  176.2030  138.2440 C   0  0  0  0  0  2  0  0  0  0  0  0
  189.4480  177.6530  138.6920 C   0  0  1  0  0  3  0  0  0  0  0  0
  189.0470  179.7700  137.4320 O   0  0  0  0  0  0  0  0  0  0  0  0
  187.2760  178.4680  138.0750 O   0  0  0  0  0  1  0  0  0  0  0  0
  188.5220  178.6430  138.0520 C   0  0  0  0  0  0  0  0  0  0  0  0
  188.3290  178.1060  140.9400 C   0  0  0  0  0  1  0  0  0  0  0  0
  189.6370  177.8670  140.2030 C   0  0  1  0  0  3  0  0  0  0  0  0
  190.3350  176.7380  140.8000 N   0  0  0  0  0  2  0  0  0  0  0  0
  190.0360  176.7340  142.2270 C   0  0  1  0  0  3  0  0  0  0  0  0
  189.6520  175.4480  142.6240 O   0  0  0  0  0  1  0  0  0  0  0  0
  191.2390  177.2250  143.0390 C   0  0  0  0  0  0  0  0  0  0  0  0
  191.5800  176.2540  144.1580 C   0  0  0  0  0  1  0  0  0  0  0  0
  192.3450  177.3580  142.1990 O   0  0  0  0  0  1  0  0  0  0  0  0
  190.9270  178.5800  143.6450 C   0  0  0  0  0  1  0  0  0  0  0  0
  185.2600  178.3130  141.8150 N   0  0  0  0  0  2  0  0  0  0  0  0
  183.6680  179.1350  143.4400 C   0  0  0  0  0  3  0  0  0  0  0  0
  185.8370  178.1480  144.1900 C   0  0  0  0  0  2  0  0  0  0  0  0
  185.1220  178.9650  143.1110 C   0  0  1  0  0  3  0  0  0  0  0  0
  185.5520  178.7800  145.5510 C   0  0  1  0  0  3  0  0  0  0  0  0
  184.1420  178.8810  145.7600 O   0  0  0  0  0  0  0  0  0  0  0  0
  183.2450  179.1140  144.7070 C   0  0  0  0  0  3  0  0  0  0  0  0
  186.1730  177.9560  146.6650 C   0  0  0  0  0  2  0  0  0  0  0  0
  188.5680  178.2960  147.2790 O   0  0  0  0  0  1  0  0  0  0  0  0
  187.6280  177.7420  146.4200 C   0  0  0  0  0  0  0  0  0  0  0  0
  188.0040  177.0300  145.4530 O   0  0  0  0  0  0  0  0  0  0  0  0
  1 11  1  0  0  0  0
  2  4  1  0  0  0  0
  3  6  1  0  0  0  0
  4  7  1  0  0  0  0
  4 41  1  1  0  0  0
  5  7  2  0  0  0  0
  6  5  1  0  0  0  0
  8  2  2  0  0  0  0
  9 12  1  0  0  0  0
  9 15  1  0  0  0  0
 10  9  2  0  0  0  0
 11 15  2  0  0  0  0
 12  3  2  0  0  0  0
 13  6  2  0  0  0  0
 13  8  1  0  0  0  0
 14 10  1  0  0  0  0
 14  1  2  0  0  0  0
 15 13  1  0  0  0  0
 16  3  1  0  0  0  0
 16 21  1  0  0  0  0
 17 16  2  0  0  0  0
 18 17  1  0  0  0  0
 18 19  2  0  0  0  0
 19 20  1  0  0  0  0
 20 21  2  0  0  0  0
 20 22  1  0  0  0  0
 23 24  1  0  0  0  0
 23 22  1  0  0  0  0
 25 26  1  0  0  0  0
 25 24  1  0  0  0  0
 26 27  1  0  0  0  0
 28 27  1  1  0  0  0
 28 33  1  0  0  0  0
 29 31  2  0  0  0  0
 31 30  1  0  0  0  0
 31 28  1  0  0  0  0
 33 34  1  0  0  0  0
 33 32  1  1  0  0  0
 34 35  1  0  0  0  0
 35 36  1  1  0  0  0
 35 37  1  0  0  0  0
 37 40  1  0  0  0  0
 37 38  1  0  0  0  0
 39 37  1  0  0  0  0
 42 47  2  0  0  0  0
 43 45  1  0  0  0  0
 44 41  1  6  0  0  0
 44 42  1  0  0  0  0
 44 43  1  0  0  0  0
 45 46  1  0  0  0  0
 45 48  1  1  0  0  0
 47 46  1  0  0  0  0
 50 48  1  0  0  0  0
 50 49  1  0  0  0  0
 51 50  2  0  0  0  0
M  END
>  <MODEL>
2

>  <REMARK>
 VINA RESULT:      -7.6      3.260      9.694
  Name = 
  17 active torsions:
  status: ('A' for Active; 'I' for Inactive)
    1  A    between atoms: C_4  and  C_5
    2  A    between atoms: C_8  and  C_24
    3  A    between atoms: C_8  and  N_51
    4  A    between atoms: C_10  and  N_33
    5  A    between atoms: C_18  and  C_19
    6  A    between atoms: C_18  and  C_48
    7  A    between atoms: C_19  and  O_45
    8  A    between atoms: C_21  and  N_33
    9  A    between atoms: C_22  and  C_48
   10  A    between atoms: C_22  and  N_51
   11  A    between atoms: C_26  and  C_31
   12  A    between atoms: C_27  and  N_50
   13  A    between atoms: C_29  and  C_31
   14  A    between atoms: C_39  and  C_44
   15  A    between atoms: C_39  and  N_50
   16  A    between atoms: C_44  and  O_45
   17  A    between atoms: C_48  and  C_49
                            x       y       z     vdW  Elec       q    Type
                         _______ _______ _______ _____ _____    ______ ____

>  <TORSDO>
F 17

$$$$
=
 OpenBabel10222417103D

 51 55  0  0  1  0  0  0  0  0999 V2000
  192.0010  176.5910  147.0300 N   0  0  0  0  0  0  0  0  0  0  0  0
  190.7910  178.0360  141.6290 C   0  0  0  0  0  3  0  0  0  0  0  0
  187.6200  177.7790  144.7640 C   0  0  0  0  0  0  0  0  0  0  0  0
  189.7730  177.5830  140.8710 C   0  0  0  0  0  0  0  0  0  0  0  0
  188.2100  176.6990  142.6030 C   0  0  0  0  0  3  0  0  0  0  0  0
  188.5970  177.7440  143.6000 C   0  0  2  0  0  3  0  0  0  0  0  0
  188.7290  176.6670  141.3750 C   0  0  0  0  0  3  0  0  0  0  0  0
  191.0110  177.7830  143.0680 C   0  0  0  0  0  3  0  0  0  0  0  0
  189.4070  177.1440  146.3400 C   0  0  0  0  0  0  0  0  0  0  0  0
  189.7430  176.7930  147.6450 C   0  0  0  0  0  3  0  0  0  0  0  0
  191.7270  176.9340  145.7450 C   0  0  0  0  0  3  0  0  0  0  0  0
  188.0160  177.4730  146.0090 C   0  0  0  0  0  3  0  0  0  0  0  0
  190.0510  177.5870  143.9810 C   0  0  0  0  0  0  0  0  0  0  0  0
  191.0390  176.5220  147.9520 N   0  0  0  0  0  0  0  0  0  0  0  0
  190.4090  177.2230  145.3700 C   0  0  0  0  0  0  0  0  0  0  0  0
  186.2060  178.1840  144.5310 C   0  0  0  0  0  0  0  0  0  0  0  0
  185.3860  178.5570  145.6070 C   0  0  0  0  0  3  0  0  0  0  0  0
  184.0570  178.9320  145.3940 C   0  0  0  0  0  3  0  0  0  0  0  0
  183.5290  178.9340  144.1010 C   0  0  0  0  0  3  0  0  0  0  0  0
  184.3260  178.5590  143.0170 C   0  0  0  0  0  0  0  0  0  0  0  0
  185.6600  178.1860  143.2350 C   0  0  0  0  0  3  0  0  0  0  0  0
  183.7620  178.5600  141.7030 N   0  0  0  0  0  2  0  0  0  0  0  0
  184.4020  179.2120  140.5700 C   0  0  0  0  0  2  0  0  0  0  0  0
  184.9090  178.1660  139.5950 C   0  0  0  0  0  2  0  0  0  0  0  0
  184.8350  178.6570  138.2920 O   0  0  0  0  0  0  0  0  0  0  0  0
  184.8810  177.5200  137.4860 C   0  0  0  0  0  2  0  0  0  0  0  0
  183.6570  176.6570  137.7520 C   0  0  0  0  0  2  0  0  0  0  0  0
  182.4440  177.0530  136.9000 C   0  0  1  0  0  3  0  0  0  0  0  0
  182.7200  175.3320  135.1130 O   0  0  0  0  0  0  0  0  0  0  0  0
  180.7080  175.5580  136.1830 O   0  0  0  0  0  1  0  0  0  0  0  0
  181.9000  175.9410  136.0550 C   0  0  0  0  0  0  0  0  0  0  0  0
  181.2860  177.5910  139.1090 C   0  0  0  0  0  1  0  0  0  0  0  0
  181.3610  177.8750  137.6170 C   0  0  1  0  0  3  0  0  0  0  0  0
  181.5670  179.3000  137.4000 N   0  0  0  0  0  2  0  0  0  0  0  0
  180.3400  179.8450  136.8310 C   0  0  1  0  0  3  0  0  0  0  0  0
  179.2340  179.1850  137.3770 O   0  0  0  0  0  1  0  0  0  0  0  0
  180.2520  181.3560  137.0680 C   0  0  0  0  0  0  0  0  0  0  0  0
  180.7230  182.1320  135.8480 C   0  0  0  0  0  1  0  0  0  0  0  0
  178.9310  181.7080  137.3490 O   0  0  0  0  0  1  0  0  0  0  0  0
  181.1160  181.7380  138.2550 C   0  0  0  0  0  1  0  0  0  0  0  0
  189.7470  177.8880  139.4720 N   0  0  0  0  0  2  0  0  0  0  0  0
  189.0960  177.2850  137.2210 C   0  0  0  0  0  3  0  0  0  0  0  0
  191.3950  176.7630  138.0500 C   0  0  0  0  0  2  0  0  0  0  0  0
  189.9150  176.8950  138.4170 C   0  0  1  0  0  3  0  0  0  0  0  0
  191.5190  175.8260  136.8500 C   0  0  1  0  0  3  0  0  0  0  0  0
  190.7090  176.2990  135.7720 O   0  0  0  0  0  0  0  0  0  0  0  0
  189.4930  176.9630  135.9870 C   0  0  0  0  0  3  0  0  0  0  0  0
  192.9640  175.7250  136.3950 C   0  0  0  0  0  2  0  0  0  0  0  0
  193.5620  173.6390  137.6270 O   0  0  0  0  0  0  0  0  0  0  0  0
  193.7860  174.9900  137.3980 C   0  0  0  0  0  0  0  0  0  0  0  0
  194.7090  175.5860  138.0120 O   0  0  0  0  0  1  0  0  0  0  0  0
  1 14  1  0  0  0  0
  2  8  1  0  0  0  0
  3 12  2  0  0  0  0
  4  7  1  0  0  0  0
  4  2  2  0  0  0  0
  6  5  1  6  0  0  0
  6 13  1  0  0  0  0
  6  3  1  0  0  0  0
  7  5  2  0  0  0  0
  8 13  2  0  0  0  0
  9 10  1  0  0  0  0
 10 14  2  0  0  0  0
 11  1  2  0  0  0  0
 12  9  1  0  0  0  0
 13 15  1  0  0  0  0
 15 11  1  0  0  0  0
 15  9  2  0  0  0  0
 16  3  1  0  0  0  0
 16 17  1  0  0  0  0
 18 17  2  0  0  0  0
 19 18  1  0  0  0  0
 20 21  1  0  0  0  0
 20 19  2  0  0  0  0
 21 16  2  0  0  0  0
 22 20  1  0  0  0  0
 23 22  1  0  0  0  0
 24 23  1  0  0  0  0
 25 24  1  0  0  0  0
 26 27  1  0  0  0  0
 26 25  1  0  0  0  0
 28 33  1  0  0  0  0
 28 27  1  1  0  0  0
 29 31  2  0  0  0  0
 31 30  1  0  0  0  0
 31 28  1  0  0  0  0
 33 32  1  1  0  0  0
 34 33  1  0  0  0  0
 35 37  1  0  0  0  0
 35 36  1  1  0  0  0
 35 34  1  0  0  0  0
 37 39  1  0  0  0  0
 37 40  1  0  0  0  0
 38 37  1  0  0  0  0
 41  4  1  0  0  0  0
 42 44  1  0  0  0  0
 43 44  1  0  0  0  0
 44 41  1  1  0  0  0
 45 48  1  6  0  0  0
 45 43  1  0  0  0  0
 46 47  1  0  0  0  0
 46 45  1  0  0  0  0
 47 42  2  0  0  0  0
 48 50  1  0  0  0  0
 50 49  2  0  0  0  0
 50 51  1  0  0  0  0
M  END
>  <MODEL>
3

>  <REMARK>
 VINA RESULT:      -7.6      2.264      4.095
  Name = 
  17 active torsions:
  status: ('A' for Active; 'I' for Inactive)
    1  A    between atoms: C_4  and  C_5
    2  A    between atoms: C_8  and  C_24
    3  A    between atoms: C_8  and  N_51
    4  A    between atoms: C_10  and  N_33
    5  A    between atoms: C_18  and  C_19
    6  A    between atoms: C_18  and  C_48
    7  A    between atoms: C_19  and  O_45
    8  A    between atoms: C_21  and  N_33
    9  A    between atoms: C_22  and  C_48
   10  A    between atoms: C_22  and  N_51
   11  A    between atoms: C_26  and  C_31
   12  A    between atoms: C_27  and  N_50
   13  A    between atoms: C_29  and  C_31
   14  A    between atoms: C_39  and  C_44
   15  A    between atoms: C_39  and  N_50
   16  A    between atoms: C_44  and  O_45
   17  A    between atoms: C_48  and  C_49
                            x       y       z     vdW  Elec       q    Type
                         _______ _______ _______ _____ _____    ______ ____

>  <TORSDO>
F 17

$$$$
=
 OpenBabel10222417103D

 51 55  0  0  1  0  0  0  0  0999 V2000
  189.4500  177.8330  148.8300 N   0  0  0  0  0  0  0  0  0  0  0  0
  190.9340  177.8350  143.3050 C   0  0  0  0  0  3  0  0  0  0  0  0
  186.6660  178.0960  144.5970 C   0  0  0  0  0  0  0  0  0  0  0  0
  190.3620  177.1360  142.3060 C   0  0  0  0  0  0  0  0  0  0  0  0
  188.1400  176.5760  143.2900 C   0  0  0  0  0  3  0  0  0  0  0  0
  188.0680  177.8570  144.0580 C   0  0  2  0  0  3  0  0  0  0  0  0
  189.1640  176.2900  142.4870 C   0  0  0  0  0  3  0  0  0  0  0  0
  190.4540  177.9540  144.6970 C   0  0  0  0  0  3  0  0  0  0  0  0
  187.4940  177.9990  146.9170 C   0  0  0  0  0  0  0  0  0  0  0  0
  187.1750  178.0000  148.2730 C   0  0  0  0  0  3  0  0  0  0  0  0
  189.8150  177.8330  147.5220 C   0  0  0  0  0  3  0  0  0  0  0  0
  186.4290  178.1300  145.9170 C   0  0  0  0  0  3  0  0  0  0  0  0
  189.1730  177.9110  145.0870 C   0  0  0  0  0  0  0  0  0  0  0  0
  188.1690  177.9130  149.1950 N   0  0  0  0  0  0  0  0  0  0  0  0
  188.8340  177.9200  146.5270 C   0  0  0  0  0  0  0  0  0  0  0  0
  185.5390  178.3210  143.6500 C   0  0  0  0  0  0  0  0  0  0  0  0
  184.2360  178.5240  144.1310 C   0  0  0  0  0  3  0  0  0  0  0  0
  183.1730  178.7300  143.2470 C   0  0  0  0  0  3  0  0  0  0  0  0
  183.4000  178.7310  141.8700 C   0  0  0  0  0  3  0  0  0  0  0  0
  184.6880  178.5250  141.3690 C   0  0  0  0  0  0  0  0  0  0  0  0
  185.7520  178.3210  142.2600 C   0  0  0  0  0  3  0  0  0  0  0  0
  184.8950  178.5210  139.9550 N   0  0  0  0  0  2  0  0  0  0  0  0
  183.8030  178.4580  138.9970 C   0  0  0  0  0  2  0  0  0  0  0  0
  183.2610  177.0420  138.9280 C   0  0  0  0  0  2  0  0  0  0  0  0
  181.9840  177.0490  138.3660 O   0  0  0  0  0  0  0  0  0  0  0  0
  181.5600  175.7240  138.4430 C   0  0  0  0  0  2  0  0  0  0  0  0
  181.1200  175.2490  137.0660 C   0  0  0  0  0  2  0  0  0  0  0  0
  181.6690  173.8630  136.7030 C   0  0  1  0  0  3  0  0  0  0  0  0
  180.7710  171.6670  137.4750 O   0  0  0  0  0  1  0  0  0  0  0  0
  179.6380  172.8740  135.8930 O   0  0  0  0  0  0  0  0  0  0  0  0
  180.6300  172.7830  136.6610 C   0  0  0  0  0  0  0  0  0  0  0  0
  183.0620  175.2030  135.0370 C   0  0  0  0  0  1  0  0  0  0  0  0
  182.6570  173.8210  135.5250 C   0  0  1  0  0  3  0  0  0  0  0  0
  183.8460  173.0580  135.8760 N   0  0  0  0  0  2  0  0  0  0  0  0
  184.7800  173.9650  136.5320 C   0  0  1  0  0  3  0  0  0  0  0  0
  184.6750  173.8270  137.9200 O   0  0  0  0  0  1  0  0  0  0  0  0
  186.2150  173.7070  136.0600 C   0  0  0  0  0  0  0  0  0  0  0  0
  186.2470  173.3070  134.5940 C   0  0  0  0  0  1  0  0  0  0  0  0
  186.9770  174.8630  136.2340 O   0  0  0  0  0  1  0  0  0  0  0  0
  186.8310  172.5940  136.8860 C   0  0  0  0  0  1  0  0  0  0  0  0
  190.9980  177.0910  141.0230 N   0  0  0  0  0  2  0  0  0  0  0  0
  189.5540  178.0520  139.3360 C   0  0  0  0  0  3  0  0  0  0  0  0
  191.2890  176.3700  138.7000 C   0  0  0  0  0  2  0  0  0  0  0  0
  190.2970  176.8230  139.7730 C   0  0  1  0  0  3  0  0  0  0  0  0
  190.5460  176.2370  137.3720 C   0  0  1  0  0  3  0  0  0  0  0  0
  189.8880  177.4650  137.0520 O   0  0  0  0  0  0  0  0  0  0  0  0
  189.3590  178.3080  138.0400 C   0  0  0  0  0  3  0  0  0  0  0  0
  191.5050  175.8680  136.2550 C   0  0  0  0  0  2  0  0  0  0  0  0
  193.7330  176.7160  136.9930 O   0  0  0  0  0  0  0  0  0  0  0  0
  192.8790  175.6400  136.7880 C   0  0  0  0  0  0  0  0  0  0  0  0
  193.2530  174.4770  137.0840 O   0  0  0  0  0  1  0  0  0  0  0  0
  1 14  1  0  0  0  0
  2  8  1  0  0  0  0
  3 12  2  0  0  0  0
  4  7  1  0  0  0  0
  4  2  2  0  0  0  0
  6  5  1  1  0  0  0
  6  3  1  0  0  0  0
  6 13  1  0  0  0  0
  7  5  2  0  0  0  0
  8 13  2  0  0  0  0
  9 10  1  0  0  0  0
 10 14  2  0  0  0  0
 11  1  2  0  0  0  0
 12  9  1  0  0  0  0
 13 15  1  0  0  0  0
 15  9  2  0  0  0  0
 15 11  1  0  0  0  0
 16 17  1  0  0  0  0
 16  3  1  0  0  0  0
 18 17  2  0  0  0  0
 19 18  1  0  0  0  0
 20 19  2  0  0  0  0
 20 21  1  0  0  0  0
 21 16  2  0  0  0  0
 22 20  1  0  0  0  0
 23 22  1  0  0  0  0
 24 23  1  0  0  0  0
 25 26  1  0  0  0  0
 25 24  1  0  0  0  0
 27 26  1  0  0  0  0
 28 27  1  6  0  0  0
 30 31  2  0  0  0  0
 31 28  1  0  0  0  0
 31 29  1  0  0  0  0
 33 32  1  1  0  0  0
 33 34  1  0  0  0  0
 33 28  1  0  0  0  0
 34 35  1  0  0  0  0
 35 36  1  1  0  0  0
 37 39  1  0  0  0  0
 37 35  1  0  0  0  0
 37 40  1  0  0  0  0
 38 37  1  0  0  0  0
 41  4  1  0  0  0  0
 42 44  1  0  0  0  0
 43 44  1  0  0  0  0
 44 41  1  1  0  0  0
 45 48  1  6  0  0  0
 45 43  1  0  0  0  0
 46 45  1  0  0  0  0
 46 47  1  0  0  0  0
 47 42  2  0  0  0  0
 48 50  1  0  0  0  0
 50 49  2  0  0  0  0
 50 51  1  0  0  0  0
M  END
>  <MODEL>
4

>  <REMARK>
 VINA RESULT:      -7.5      1.584      2.145
  Name = 
  17 active torsions:
  status: ('A' for Active; 'I' for Inactive)
    1  A    between atoms: C_4  and  C_5
    2  A    between atoms: C_8  and  C_24
    3  A    between atoms: C_8  and  N_51
    4  A    between atoms: C_10  and  N_33
    5  A    between atoms: C_18  and  C_19
    6  A    between atoms: C_18  and  C_48
    7  A    between atoms: C_19  and  O_45
    8  A    between atoms: C_21  and  N_33
    9  A    between atoms: C_22  and  C_48
   10  A    between atoms: C_22  and  N_51
   11  A    between atoms: C_26  and  C_31
   12  A    between atoms: C_27  and  N_50
   13  A    between atoms: C_29  and  C_31
   14  A    between atoms: C_39  and  C_44
   15  A    between atoms: C_39  and  N_50
   16  A    between atoms: C_44  and  O_45
   17  A    between atoms: C_48  and  C_49
                            x       y       z     vdW  Elec       q    Type
                         _______ _______ _______ _____ _____    ______ ____

>  <TORSDO>
F 17

$$$$
=
 OpenBabel10222417103D

 51 55  0  0  1  0  0  0  0  0999 V2000
  191.4620  177.4890  142.6970 N   0  0  0  0  0  0  0  0  0  0  0  0
  193.3950  176.3510  137.4340 C   0  0  0  0  0  3  0  0  0  0  0  0
  189.0710  177.1360  138.2350 C   0  0  0  0  0  0  0  0  0  0  0  0
  192.8520  175.5160  136.5280 C   0  0  0  0  0  0  0  0  0  0  0  0
  190.5160  175.3020  137.3760 C   0  0  0  0  0  3  0  0  0  0  0  0
  190.4890  176.7070  137.8880 C   0  0  2  0  0  3  0  0  0  0  0  0
  191.5760  174.8020  136.7420 C   0  0  0  0  0  3  0  0  0  0  0  0
  192.8120  176.7630  138.7270 C   0  0  0  0  0  3  0  0  0  0  0  0
  189.6930  177.4230  140.6040 C   0  0  0  0  0  0  0  0  0  0  0  0
  189.2630  177.7010  141.9000 C   0  0  0  0  0  3  0  0  0  0  0  0
  191.9330  177.2190  141.4520 C   0  0  0  0  0  3  0  0  0  0  0  0
  188.7300  177.4340  139.4980 C   0  0  0  0  0  3  0  0  0  0  0  0
  191.5040  176.8790  138.9930 C   0  0  0  0  0  0  0  0  0  0  0  0
  190.1670  177.7230  142.9140 N   0  0  0  0  0  0  0  0  0  0  0  0
  191.0490  177.1820  140.3670 C   0  0  0  0  0  0  0  0  0  0  0  0
  188.0500  177.2540  137.1590 C   0  0  0  0  0  0  0  0  0  0  0  0
  188.3830  177.8260  135.9220 C   0  0  0  0  0  3  0  0  0  0  0  0
  187.4270  177.9450  134.9090 C   0  0  0  0  0  3  0  0  0  0  0  0
  186.1230  177.4960  135.1240 C   0  0  0  0  0  3  0  0  0  0  0  0
  185.7670  176.9300  136.3500 C   0  0  0  0  0  0  0  0  0  0  0  0
  186.7310  176.8100  137.3630 C   0  0  0  0  0  3  0  0  0  0  0  0
  184.4240  176.4850  136.5510 N   0  0  0  0  0  2  0  0  0  0  0  0
  183.8000  176.4250  137.8640 C   0  0  0  0  0  2  0  0  0  0  0  0
  182.3020  176.2440  137.7140 C   0  0  0  0  0  2  0  0  0  0  0  0
  181.6700  176.4820  138.9350 O   0  0  0  0  0  0  0  0  0  0  0  0
  182.7130  176.6840  139.8360 C   0  0  0  0  0  2  0  0  0  0  0  0
  182.4900  177.9860  140.5900 C   0  0  0  0  0  2  0  0  0  0  0  0
  183.6680  178.3670  141.4960 C   0  0  1  0  0  3  0  0  0  0  0  0
  184.4840  179.9260  139.7270 O   0  0  0  0  0  0  0  0  0  0  0  0
  185.9770  178.9220  141.1430 O   0  0  0  0  0  1  0  0  0  0  0  0
  184.7800  179.0820  140.7900 C   0  0  0  0  0  0  0  0  0  0  0  0
  181.7980  179.0000  143.1130 C   0  0  0  0  0  1  0  0  0  0  0  0
  183.2960  178.9850  142.8550 C   0  0  1  0  0  3  0  0  0  0  0  0
  183.9740  178.2900  143.9400 N   0  0  0  0  0  2  0  0  0  0  0  0
  185.1260  179.0940  144.3310 C   0  0  1  0  0  3  0  0  0  0  0  0
  184.8250  180.4520  144.1860 O   0  0  0  0  0  1  0  0  0  0  0  0
  185.5520  178.7750  145.7680 C   0  0  0  0  0  0  0  0  0  0  0  0
  186.8330  177.9560  145.7930 C   0  0  0  0  0  1  0  0  0  0  0  0
  185.7580  179.9650  146.4680 O   0  0  0  0  0  1  0  0  0  0  0  0
  184.4550  177.9910  146.4640 C   0  0  0  0  0  1  0  0  0  0  0  0
  193.5860  175.1880  135.3420 N   0  0  0  0  0  2  0  0  0  0  0  0
  195.7420  176.2230  134.9760 C   0  0  0  0  0  3  0  0  0  0  0  0
  195.4930  174.3940  136.6590 C   0  0  0  0  0  2  0  0  0  0  0  0
  195.0240  174.9490  135.3130 C   0  0  1  0  0  3  0  0  0  0  0  0
  197.0170  174.2910  136.6410 C   0  0  1  0  0  3  0  0  0  0  0  0
  197.5910  175.5600  136.3220 O   0  0  0  0  0  0  0  0  0  0  0  0
  196.9660  176.4650  135.4530 C   0  0  0  0  0  3  0  0  0  0  0  0
  197.5390  173.8210  137.9870 C   0  0  0  0  0  2  0  0  0  0  0  0
  196.2930  175.0450  139.7700 O   0  0  0  0  0  1  0  0  0  0  0  0
  197.4430  174.9080  139.0030 C   0  0  0  0  0  0  0  0  0  0  0  0
  198.4180  175.6800  139.1910 O   0  0  0  0  0  0  0  0  0  0  0  0
  1 14  1  0  0  0  0
  2  8  1  0  0  0  0
  3 12  2  0  0  0  0
  4  7  1  0  0  0  0
  4  2  2  0  0  0  0
  6  5  1  1  0  0  0
  6  3  1  0  0  0  0
  6 13  1  0  0  0  0
  7  5  2  0  0  0  0
  8 13  2  0  0  0  0
  9 10  1  0  0  0  0
 10 14  2  0  0  0  0
 11  1  2  0  0  0  0
 12  9  1  0  0  0  0
 13 15  1  0  0  0  0
 15  9  2  0  0  0  0
 15 11  1  0  0  0  0
 16 21  1  0  0  0  0
 16  3  1  0  0  0  0
 17 16  2  0  0  0  0
 18 19  2  0  0  0  0
 18 17  1  0  0  0  0
 19 20  1  0  0  0  0
 20 22  1  0  0  0  0
 20 21  2  0  0  0  0
 22 23  1  0  0  0  0
 24 23  1  0  0  0  0
 24 25  1  0  0  0  0
 25 26  1  0  0  0  0
 26 27  1  0  0  0  0
 28 27  1  6  0  0  0
 28 33  1  0  0  0  0
 29 31  2  0  0  0  0
 31 30  1  0  0  0  0
 31 28  1  0  0  0  0
 33 32  1  1  0  0  0
 33 34  1  0  0  0  0
 34 35  1  0  0  0  0
 35 36  1  1  0  0  0
 35 37  1  0  0  0  0
 37 38  1  0  0  0  0
 37 40  1  0  0  0  0
 37 39  1  0  0  0  0
 41  4  1  0  0  0  0
 42 44  1  0  0  0  0
 42 47  2  0  0  0  0
 44 41  1  1  0  0  0
 44 43  1  0  0  0  0
 45 43  1  0  0  0  0
 45 48  1  1  0  0  0
 46 45  1  0  0  0  0
 47 46  1  0  0  0  0
 48 50  1  0  0  0  0
 50 51  2  0  0  0  0
 50 49  1  0  0  0  0
M  END
>  <MODEL>
5

>  <REMARK>
 VINA RESULT:      -7.3      3.091      7.229
  Name = 
  17 active torsions:
  status: ('A' for Active; 'I' for Inactive)
    1  A    between atoms: C_4  and  C_5
    2  A    between atoms: C_8  and  C_24
    3  A    between atoms: C_8  and  N_51
    4  A    between atoms: C_10  and  N_33
    5  A    between atoms: C_18  and  C_19
    6  A    between atoms: C_18  and  C_48
    7  A    between atoms: C_19  and  O_45
    8  A    between atoms: C_21  and  N_33
    9  A    between atoms: C_22  and  C_48
   10  A    between atoms: C_22  and  N_51
   11  A    between atoms: C_26  and  C_31
   12  A    between atoms: C_27  and  N_50
   13  A    between atoms: C_29  and  C_31
   14  A    between atoms: C_39  and  C_44
   15  A    between atoms: C_39  and  N_50
   16  A    between atoms: C_44  and  O_45
   17  A    between atoms: C_48  and  C_49
                            x       y       z     vdW  Elec       q    Type
                         _______ _______ _______ _____ _____    ______ ____

>  <TORSDO>
F 17

$$$$
=
 OpenBabel10222417103D

 51 55  0  0  1  0  0  0  0  0999 V2000
  192.2150  176.4450  137.8810 N   0  0  0  0  0  0  0  0  0  0  0  0
  191.4920  176.4360  143.5560 C   0  0  0  0  0  3  0  0  0  0  0  0
  188.2950  177.8560  140.7780 C   0  0  0  0  0  0  0  0  0  0  0  0
  190.9680  177.4180  144.3130 C   0  0  2  0  0  3  0  0  0  0  0  0
  189.7140  178.7490  142.6170 C   0  0  0  0  0  3  0  0  0  0  0  0
  189.3720  177.5400  141.8050 C   0  0  0  0  0  0  0  0  0  0  0  0
  190.4040  178.6640  143.7540 C   0  0  0  0  0  3  0  0  0  0  0  0
  191.5340  176.3760  142.0800 C   0  0  0  0  0  3  0  0  0  0  0  0
  189.8440  177.3340  138.9320 C   0  0  0  0  0  0  0  0  0  0  0  0
  190.0580  177.3160  137.5550 C   0  0  0  0  0  3  0  0  0  0  0  0
  192.0550  176.4380  139.2290 C   0  0  0  0  0  3  0  0  0  0  0  0
  188.5510  177.7770  139.4630 C   0  0  0  0  0  3  0  0  0  0  0  0
  190.6290  176.9110  141.2510 C   0  0  0  0  0  0  0  0  0  0  0  0
  191.2460  176.8720  137.0680 N   0  0  0  0  0  0  0  0  0  0  0  0
  190.8520  176.8850  139.7890 C   0  0  0  0  0  0  0  0  0  0  0  0
  186.9290  178.2340  141.2310 C   0  0  0  0  0  0  0  0  0  0  0  0
  186.5290  178.0000  142.5560 C   0  0  0  0  0  3  0  0  0  0  0  0
  185.2460  178.3480  142.9860 C   0  0  0  0  0  3  0  0  0  0  0  0
  184.3430  178.9300  142.0940 C   0  0  0  0  0  3  0  0  0  0  0  0
  184.7180  179.1660  140.7690 C   0  0  0  0  0  0  0  0  0  0  0  0
  186.0080  178.8180  140.3430 C   0  0  0  0  0  3  0  0  0  0  0  0
  183.7760  179.7560  139.8710 N   0  0  0  0  0  2  0  0  0  0  0  0
  183.3450  179.1080  138.6420 C   0  0  0  0  0  2  0  0  0  0  0  0
  181.8510  178.8490  138.6940 C   0  0  0  0  0  2  0  0  0  0  0  0
  181.4140  178.8570  140.0180 O   0  0  0  0  0  0  0  0  0  0  0  0
  181.1280  177.5230  140.3020 C   0  0  0  0  0  2  0  0  0  0  0  0
  180.7150  176.8070  139.0250 C   0  0  0  0  0  2  0  0  0  0  0  0
  181.1670  175.3420  138.9820 C   0  0  1  0  0  3  0  0  0  0  0  0
  179.7110  173.4890  138.1610 O   0  0  0  0  0  0  0  0  0  0  0  0
  179.4400  174.3000  140.2850 O   0  0  0  0  0  1  0  0  0  0  0  0
  180.0600  174.3520  139.1910 C   0  0  0  0  0  0  0  0  0  0  0  0
  181.8840  175.7730  136.5710 C   0  0  0  0  0  1  0  0  0  0  0  0
  182.1260  174.9690  137.8390 C   0  0  1  0  0  3  0  0  0  0  0  0
  183.5110  175.1210  138.2580 N   0  0  0  0  0  2  0  0  0  0  0  0
  184.3130  175.3620  137.0650 C   0  0  1  0  0  3  0  0  0  0  0  0
  185.0730  176.5240  137.2350 O   0  0  0  0  0  1  0  0  0  0  0  0
  185.2100  174.1580  136.7560 C   0  0  0  0  0  0  0  0  0  0  0  0
  184.8120  172.9490  137.5880 C   0  0  0  0  0  1  0  0  0  0  0  0
  185.1050  173.8340  135.4030 O   0  0  0  0  0  1  0  0  0  0  0  0
  186.6550  174.5070  137.0580 C   0  0  0  0  0  1  0  0  0  0  0  0
  191.0610  177.3340  145.7400 N   0  0  0  0  0  2  0  0  0  0  0  0
  189.9850  177.8860  147.8360 C   0  0  0  0  0  3  0  0  0  0  0  0
  188.6190  177.1920  145.8620 C   0  0  0  0  0  2  0  0  0  0  0  0
  189.9390  177.0140  146.6140 C   0  0  1  0  0  3  0  0  0  0  0  0
  187.4660  176.9900  146.8440 C   0  0  1  0  0  3  0  0  0  0  0  0
  187.6060  177.8760  147.9570 O   0  0  0  0  0  0  0  0  0  0  0  0
  188.8610  178.2520  148.4570 C   0  0  0  0  0  3  0  0  0  0  0  0
  186.1310  177.2360  146.1630 C   0  0  0  0  0  2  0  0  0  0  0  0
  186.0590  179.7310  146.1270 O   0  0  0  0  0  0  0  0  0  0  0  0
  185.5420  178.5330  146.6040 C   0  0  0  0  0  0  0  0  0  0  0  0
  184.5530  178.5410  147.3810 O   0  0  0  0  0  1  0  0  0  0  0  0
  1 11  1  0  0  0  0
  2  4  1  0  0  0  0
  3 16  1  0  0  0  0
  3  6  1  0  0  0  0
  4 41  1  1  0  0  0
  5  7  2  0  0  0  0
  6  5  1  0  0  0  0
  7  4  1  0  0  0  0
  8  2  2  0  0  0  0
  9 12  1  0  0  0  0
  9 15  1  0  0  0  0
 10  9  2  0  0  0  0
 11 15  2  0  0  0  0
 12  3  2  0  0  0  0
 13  6  2  0  0  0  0
 13  8  1  0  0  0  0
 14 10  1  0  0  0  0
 14  1  2  0  0  0  0
 15 13  1  0  0  0  0
 16 17  1  0  0  0  0
 17 18  2  0  0  0  0
 19 18  1  0  0  0  0
 20 19  2  0  0  0  0
 21 20  1  0  0  0  0
 21 16  2  0  0  0  0
 22 20  1  0  0  0  0
 23 24  1  0  0  0  0
 23 22  1  0  0  0  0
 24 25  1  0  0  0  0
 25 26  1  0  0  0  0
 27 26  1  0  0  0  0
 28 27  1  6  0  0  0
 28 31  1  0  0  0  0
 29 31  2  0  0  0  0
 31 30  1  0  0  0  0
 33 32  1  6  0  0  0
 33 34  1  0  0  0  0
 33 28  1  0  0  0  0
 35 36  1  1  0  0  0
 35 34  1  0  0  0  0
 37 40  1  0  0  0  0
 37 35  1  0  0  0  0
 37 38  1  0  0  0  0
 39 37  1  0  0  0  0
 42 47  2  0  0  0  0
 43 44  1  0  0  0  0
 43 45  1  0  0  0  0
 44 41  1  6  0  0  0
 44 42  1  0  0  0  0
 45 48  1  6  0  0  0
 45 46  1  0  0  0  0
 46 47  1  0  0  0  0
 48 50  1  0  0  0  0
 49 50  2  0  0  0  0
 50 51  1  0  0  0  0
M  END
>  <MODEL>
6

>  <REMARK>
 VINA RESULT:      -7.3      2.652      6.530
  Name = 
  17 active torsions:
  status: ('A' for Active; 'I' for Inactive)
    1  A    between atoms: C_4  and  C_5
    2  A    between atoms: C_8  and  C_24
    3  A    between atoms: C_8  and  N_51
    4  A    between atoms: C_10  and  N_33
    5  A    between atoms: C_18  and  C_19
    6  A    between atoms: C_18  and  C_48
    7  A    between atoms: C_19  and  O_45
    8  A    between atoms: C_21  and  N_33
    9  A    between atoms: C_22  and  C_48
   10  A    between atoms: C_22  and  N_51
   11  A    between atoms: C_26  and  C_31
   12  A    between atoms: C_27  and  N_50
   13  A    between atoms: C_29  and  C_31
   14  A    between atoms: C_39  and  C_44
   15  A    between atoms: C_39  and  N_50
   16  A    between atoms: C_44  and  O_45
   17  A    between atoms: C_48  and  C_49
                            x       y       z     vdW  Elec       q    Type
                         _______ _______ _______ _____ _____    ______ ____

>  <TORSDO>
F 17

$$$$
=
 OpenBabel10222417103D

 51 55  0  0  1  0  0  0  0  0999 V2000
  185.4950  176.4500  135.4610 N   0  0  0  0  0  0  0  0  0  0  0  0
  190.6240  173.9260  135.6750 C   0  0  0  0  0  3  0  0  0  0  0  0
  189.3250  176.8830  138.7600 C   0  0  0  0  0  0  0  0  0  0  0  0
  191.8110  174.5100  135.9290 C   0  0  0  0  0  0  0  0  0  0  0  0
  191.1040  176.6280  137.0400 C   0  0  0  0  0  3  0  0  0  0  0  0
  189.9150  175.9880  137.6820 C   0  0  0  0  0  0  0  0  0  0  0  0
  191.9570  175.9370  136.2840 C   0  0  0  0  0  3  0  0  0  0  0  0
  189.2870  174.5470  135.7740 C   0  0  0  0  0  3  0  0  0  0  0  0
  187.2080  177.0660  137.5110 C   0  0  0  0  0  0  0  0  0  0  0  0
  185.9480  177.6560  137.4250 C   0  0  0  0  0  3  0  0  0  0  0  0
  186.7090  175.8440  135.5010 C   0  0  0  0  0  3  0  0  0  0  0  0
  188.0860  177.3850  138.6410 C   0  0  0  0  0  3  0  0  0  0  0  0
  188.9400  175.5210  136.6260 C   0  0  1  0  0  3  0  0  0  0  0  0
  185.1260  177.3300  136.3940 N   0  0  0  0  0  0  0  0  0  0  0  0
  187.6000  176.1410  136.5400 C   0  0  0  0  0  0  0  0  0  0  0  0
  190.1190  177.1910  139.9810 C   0  0  0  0  0  0  0  0  0  0  0  0
  191.5220  177.1520  139.9460 C   0  0  0  0  0  3  0  0  0  0  0  0
  192.2720  177.4340  141.0910 C   0  0  0  0  0  3  0  0  0  0  0  0
  191.6280  177.7550  142.2880 C   0  0  0  0  0  3  0  0  0  0  0  0
  190.2330  177.7930  142.3470 C   0  0  0  0  0  0  0  0  0  0  0  0
  189.4840  177.5110  141.1950 C   0  0  0  0  0  3  0  0  0  0  0  0
  189.5950  178.1150  143.5840 N   0  0  0  0  0  2  0  0  0  0  0  0
  189.1020  177.1020  144.5050 C   0  0  0  0  0  2  0  0  0  0  0  0
  188.4060  177.7680  145.6770 C   0  0  0  0  0  2  0  0  0  0  0  0
  187.1960  177.1240  145.9390 O   0  0  0  0  0  0  0  0  0  0  0  0
  186.5320  177.1140  144.7140 C   0  0  0  0  0  2  0  0  0  0  0  0
  185.9360  178.4870  144.4460 C   0  0  0  0  0  2  0  0  0  0  0  0
  184.6450  178.4330  143.6190 C   0  0  1  0  0  3  0  0  0  0  0  0
  183.4280  179.0060  145.7210 O   0  0  0  0  0  1  0  0  0  0  0  0
  182.4280  179.3530  143.6900 O   0  0  0  0  0  0  0  0  0  0  0  0
  183.4360  178.9590  144.3330 C   0  0  0  0  0  0  0  0  0  0  0  0
  186.2010  179.0870  141.7060 C   0  0  0  0  0  1  0  0  0  0  0  0
  184.7620  178.9100  142.1610 C   0  0  1  0  0  3  0  0  0  0  0  0
  184.0730  177.9950  141.2630 N   0  0  0  0  0  2  0  0  0  0  0  0
  183.2060  178.7880  140.4000 C   0  0  1  0  0  3  0  0  0  0  0  0
  183.9730  179.7020  139.6710 O   0  0  0  0  0  1  0  0  0  0  0  0
  182.3900  177.8860  139.4670 C   0  0  0  0  0  0  0  0  0  0  0  0
  182.2030  178.5320  138.1040 C   0  0  0  0  0  1  0  0  0  0  0  0
  183.0490  176.6660  139.3060 O   0  0  0  0  0  1  0  0  0  0  0  0
  181.0270  177.6200  140.0760 C   0  0  0  0  0  1  0  0  0  0  0  0
  193.0190  173.7660  135.7300 N   0  0  0  0  0  2  0  0  0  0  0  0
  194.0000  171.7400  136.6190 C   0  0  0  0  0  3  0  0  0  0  0  0
  195.1850  173.9260  136.8640 C   0  0  0  0  0  2  0  0  0  0  0  0
  193.8290  173.2190  136.8120 C   0  0  1  0  0  3  0  0  0  0  0  0
  196.0570  173.2350  137.9100 C   0  0  1  0  0  3  0  0  0  0  0  0
  196.1580  171.8390  137.6210 O   0  0  0  0  0  0  0  0  0  0  0  0
  195.1060  171.1190  137.0370 C   0  0  0  0  0  3  0  0  0  0  0  0
  197.4450  173.8490  137.9430 C   0  0  0  0  0  2  0  0  0  0  0  0
  198.5090  175.8460  138.9960 O   0  0  0  0  0  0  0  0  0  0  0  0
  197.5670  174.8280  139.0610 C   0  0  0  0  0  0  0  0  0  0  0  0
  196.7910  174.7520  140.0490 O   0  0  0  0  0  1  0  0  0  0  0  0
  1 11  2  0  0  0  0
  1 14  1  0  0  0  0
  2  8  2  0  0  0  0
  2  4  1  0  0  0  0
  3 16  1  0  0  0  0
  4  7  2  0  0  0  0
  5  6  2  0  0  0  0
  6  3  1  0  0  0  0
  7  5  1  0  0  0  0
  9 12  1  0  0  0  0
 10  9  1  0  0  0  0
 11 15  1  0  0  0  0
 12  3  2  0  0  0  0
 13  8  1  1  0  0  0
 13  6  1  0  0  0  0
 14 10  2  0  0  0  0
 15 13  1  0  0  0  0
 15  9  2  0  0  0  0
 16 21  1  0  0  0  0
 17 16  2  0  0  0  0
 17 18  1  0  0  0  0
 18 19  2  0  0  0  0
 19 20  1  0  0  0  0
 20 22  1  0  0  0  0
 21 20  2  0  0  0  0
 22 23  1  0  0  0  0
 23 24  1  0  0  0  0
 24 25  1  0  0  0  0
 26 25  1  0  0  0  0
 27 26  1  0  0  0  0
 28 31  1  0  0  0  0
 28 27  1  1  0  0  0
 30 31  2  0  0  0  0
 31 29  1  0  0  0  0
 33 32  1  6  0  0  0
 33 28  1  0  0  0  0
 34 33  1  0  0  0  0
 35 36  1  6  0  0  0
 35 34  1  0  0  0  0
 37 40  1  0  0  0  0
 37 35  1  0  0  0  0
 38 37  1  0  0  0  0
 39 37  1  0  0  0  0
 41  4  1  0  0  0  0
 42 44  1  0  0  0  0
 42 47  2  0  0  0  0
 43 45  1  0  0  0  0
 44 41  1  6  0  0  0
 44 43  1  0  0  0  0
 45 48  1  6  0  0  0
 46 45  1  0  0  0  0
 47 46  1  0  0  0  0
 48 50  1  0  0  0  0
 49 50  2  0  0  0  0
 50 51  1  0  0  0  0
M  END
>  <MODEL>
7

>  <REMARK>
 VINA RESULT:      -7.2      2.943      7.813
  Name = 
  17 active torsions:
  status: ('A' for Active; 'I' for Inactive)
    1  A    between atoms: C_4  and  C_5
    2  A    between atoms: C_8  and  C_24
    3  A    between atoms: C_8  and  N_51
    4  A    between atoms: C_10  and  N_33
    5  A    between atoms: C_18  and  C_19
    6  A    between atoms: C_18  and  C_48
    7  A    between atoms: C_19  and  O_45
    8  A    between atoms: C_21  and  N_33
    9  A    between atoms: C_22  and  C_48
   10  A    between atoms: C_22  and  N_51
   11  A    between atoms: C_26  and  C_31
   12  A    between atoms: C_27  and  N_50
   13  A    between atoms: C_29  and  C_31
   14  A    between atoms: C_39  and  C_44
   15  A    between atoms: C_39  and  N_50
   16  A    between atoms: C_44  and  O_45
   17  A    between atoms: C_48  and  C_49
                            x       y       z     vdW  Elec       q    Type
                         _______ _______ _______ _____ _____    ______ ____

>  <TORSDO>
F 17

$$$$
=
 OpenBabel10222417103D

 51 55  0  0  1  0  0  0  0  0999 V2000
  186.8220  177.9980  136.8650 N   0  0  0  0  0  0  0  0  0  0  0  0
  191.8750  175.4280  137.6330 C   0  0  0  0  0  3  0  0  0  0  0  0
  189.6310  177.2700  141.0280 C   0  0  0  0  0  0  0  0  0  0  0  0
  192.9150  175.8740  138.3640 C   0  0  0  0  0  0  0  0  0  0  0  0
  191.8080  177.5400  139.8530 C   0  0  0  0  0  3  0  0  0  0  0  0
  190.5380  176.7540  139.9210 C   0  0  0  0  0  0  0  0  0  0  0  0
  192.8700  177.1090  139.1740 C   0  0  0  0  0  3  0  0  0  0  0  0
  190.5210  176.0130  137.5630 C   0  0  0  0  0  3  0  0  0  0  0  0
  187.9020  177.8890  139.3830 C   0  0  0  0  0  0  0  0  0  0  0  0
  186.6720  178.5020  139.1550 C   0  0  0  0  0  3  0  0  0  0  0  0
  188.0220  177.3840  137.0350 C   0  0  0  0  0  3  0  0  0  0  0  0
  188.4360  177.8100  140.7470 C   0  0  0  0  0  3  0  0  0  0  0  0
  189.9020  176.6710  138.5520 C   0  0  1  0  0  3  0  0  0  0  0  0
  186.1680  178.5410  137.8930 N   0  0  0  0  0  0  0  0  0  0  0  0
  188.5920  177.3140  138.3120 C   0  0  0  0  0  0  0  0  0  0  0  0
  190.0600  177.1540  142.4490 C   0  0  0  0  0  0  0  0  0  0  0  0
  191.2250  176.4450  142.7840 C   0  0  0  0  0  3  0  0  0  0  0  0
  191.6290  176.3280  144.1170 C   0  0  0  0  0  3  0  0  0  0  0  0
  190.8710  176.9140  145.1320 C   0  0  0  0  0  3  0  0  0  0  0  0
  189.7050  177.6180  144.8210 C   0  0  0  0  0  0  0  0  0  0  0  0
  189.3040  177.7350  143.4820 C   0  0  0  0  0  3  0  0  0  0  0  0
  188.9390  178.2020  145.8770 N   0  0  0  0  0  2  0  0  0  0  0  0
  187.9890  177.4430  146.6770 C   0  0  0  0  0  2  0  0  0  0  0  0
  186.6080  177.5340  146.0570 C   0  0  0  0  0  2  0  0  0  0  0  0
  185.8620  178.5220  146.7010 O   0  0  0  0  0  0  0  0  0  0  0  0
  185.4290  179.3600  145.6750 C   0  0  0  0  0  2  0  0  0  0  0  0
  184.1070  178.8480  145.1230 C   0  0  0  0  0  2  0  0  0  0  0  0
  183.9200  179.1500  143.6310 C   0  0  1  0  0  3  0  0  0  0  0  0
  185.6430  177.5620  142.7700 O   0  0  0  0  0  1  0  0  0  0  0  0
  185.6720  179.7530  142.1040 O   0  0  0  0  0  0  0  0  0  0  0  0
  185.1240  178.8500  142.7890 C   0  0  0  0  0  0  0  0  0  0  0  0
  181.4600  178.5960  144.0190 C   0  0  0  0  0  1  0  0  0  0  0  0
  182.5950  178.6740  143.0110 C   0  0  1  0  0  3  0  0  0  0  0  0
  182.2070  179.5320  141.9020 N   0  0  0  0  0  2  0  0  0  0  0  0
  182.0530  178.6900  140.7210 C   0  0  1  0  0  3  0  0  0  0  0  0
  182.5740  177.4180  140.9780 O   0  0  0  0  0  1  0  0  0  0  0  0
  180.5830  178.6070  140.2970 C   0  0  0  0  0  0  0  0  0  0  0  0
  180.4470  178.5940  138.7830 C   0  0  0  0  0  1  0  0  0  0  0  0
  180.0130  177.4430  140.8160 O   0  0  0  0  0  1  0  0  0  0  0  0
  179.8240  179.8000  140.8470 C   0  0  0  0  0  1  0  0  0  0  0  0
  194.1800  175.2070  138.2700 N   0  0  0  0  0  2  0  0  0  0  0  0
  195.0120  175.8410  136.0890 C   0  0  0  0  0  3  0  0  0  0  0  0
  196.0260  173.9120  137.3120 C   0  0  0  0  0  2  0  0  0  0  0  0
  194.7450  174.6990  137.0260 C   0  0  1  0  0  3  0  0  0  0  0  0
  196.6660  173.5200  135.9820 C   0  0  1  0  0  3  0  0  0  0  0  0
  196.8840  174.6820  135.1790 O   0  0  0  0  0  0  0  0  0  0  0  0
  196.0190  175.7860  135.2130 C   0  0  0  0  0  3  0  0  0  0  0  0
  197.9860  172.8060  136.2110 C   0  0  0  0  0  2  0  0  0  0  0  0
  198.4300  170.7760  137.5940 O   0  0  0  0  0  1  0  0  0  0  0  0
  197.7630  171.3660  136.5280 C   0  0  0  0  0  0  0  0  0  0  0  0
  196.9440  170.6940  135.8510 O   0  0  0  0  0  0  0  0  0  0  0  0
  1 11  2  0  0  0  0
  1 14  1  0  0  0  0
  2  4  1  0  0  0  0
  3 16  1  0  0  0  0
  4  7  2  0  0  0  0
  5  6  2  0  0  0  0
  6  3  1  0  0  0  0
  7  5  1  0  0  0  0
  8  2  2  0  0  0  0
  9 12  1  0  0  0  0
 10  9  1  0  0  0  0
 11 15  1  0  0  0  0
 12  3  2  0  0  0  0
 13  8  1  1  0  0  0
 13  6  1  0  0  0  0
 14 10  2  0  0  0  0
 15 13  1  0  0  0  0
 15  9  2  0  0  0  0
 16 17  2  0  0  0  0
 16 21  1  0  0  0  0
 17 18  1  0  0  0  0
 18 19  2  0  0  0  0
 20 19  1  0  0  0  0
 20 22  1  0  0  0  0
 21 20  2  0  0  0  0
 22 23  1  0  0  0  0
 24 23  1  0  0  0  0
 24 25  1  0  0  0  0
 26 25  1  0  0  0  0
 27 26  1  0  0  0  0
 28 27  1  1  0  0  0
 29 31  1  0  0  0  0
 30 31  2  0  0  0  0
 31 28  1  0  0  0  0
 33 28  1  0  0  0  0
 33 32  1  1  0  0  0
 34 33  1  0  0  0  0
 35 36  1  1  0  0  0
 35 34  1  0  0  0  0
 37 35  1  0  0  0  0
 37 39  1  0  0  0  0
 37 40  1  0  0  0  0
 38 37  1  0  0  0  0
 41  4  1  0  0  0  0
 42 44  1  0  0  0  0
 44 43  1  0  0  0  0
 44 41  1  1  0  0  0
 45 48  1  1  0  0  0
 45 43  1  0  0  0  0
 46 47  1  0  0  0  0
 46 45  1  0  0  0  0
 47 42  2  0  0  0  0
 48 50  1  0  0  0  0
 50 49  1  0  0  0  0
 51 50  2  0  0  0  0
M  END
>  <MODEL>
8

>  <REMARK>
 VINA RESULT:      -7.1      3.286      7.284
  Name = 
  17 active torsions:
  status: ('A' for Active; 'I' for Inactive)
    1  A    between atoms: C_4  and  C_5
    2  A    between atoms: C_8  and  C_24
    3  A    between atoms: C_8  and  N_51
    4  A    between atoms: C_10  and  N_33
    5  A    between atoms: C_18  and  C_19
    6  A    between atoms: C_18  and  C_48
    7  A    between atoms: C_19  and  O_45
    8  A    between atoms: C_21  and  N_33
    9  A    between atoms: C_22  and  C_48
   10  A    between atoms: C_22  and  N_51
   11  A    between atoms: C_26  and  C_31
   12  A    between atoms: C_27  and  N_50
   13  A    between atoms: C_29  and  C_31
   14  A    between atoms: C_39  and  C_44
   15  A    between atoms: C_39  and  N_50
   16  A    between atoms: C_44  and  O_45
   17  A    between atoms: C_48  and  C_49
                            x       y       z     vdW  Elec       q    Type
                         _______ _______ _______ _____ _____    ______ ____

>  <TORSDO>
F 17

$$$$
=
 OpenBabel10222417103D

 51 55  0  0  1  0  0  0  0  0999 V2000
  192.0650  176.5700  146.6030 N   0  0  0  0  0  0  0  0  0  0  0  0
  190.5980  178.2780  141.3440 C   0  0  0  0  0  3  0  0  0  0  0  0
  187.5800  177.8590  144.6110 C   0  0  0  0  0  0  0  0  0  0  0  0
  189.5460  177.8610  140.6140 C   0  0  0  0  0  0  0  0  0  0  0  0
  188.0670  176.8890  142.3720 C   0  0  0  0  0  3  0  0  0  0  0  0
  188.5010  177.8830  143.4000 C   0  0  2  0  0  3  0  0  0  0  0  0
  188.5260  176.9190  141.1210 C   0  0  0  0  0  3  0  0  0  0  0  0
  190.8860  177.9550  142.7570 C   0  0  0  0  0  3  0  0  0  0  0  0
  189.4400  177.1500  146.0650 C   0  0  0  0  0  0  0  0  0  0  0  0
  189.8390  176.7350  147.3340 C   0  0  0  0  0  3  0  0  0  0  0  0
  191.7290  176.9750  145.3510 C   0  0  0  0  0  3  0  0  0  0  0  0
  188.0360  177.4920  145.8180 C   0  0  0  0  0  3  0  0  0  0  0  0
  189.9710  177.7120  143.7040 C   0  0  0  0  0  0  0  0  0  0  0  0
  191.1480  176.4530  147.5650 N   0  0  0  0  0  0  0  0  0  0  0  0
  190.3950  177.2790  145.0540 C   0  0  0  0  0  0  0  0  0  0  0  0
  186.1570  178.2710  144.4650 C   0  0  0  0  0  0  0  0  0  0  0  0
  185.3930  178.6030  145.5950 C   0  0  0  0  0  3  0  0  0  0  0  0
  184.0560  178.9850  145.4640 C   0  0  0  0  0  3  0  0  0  0  0  0
  183.4630  179.0350  144.2020 C   0  0  0  0  0  3  0  0  0  0  0  0
  184.2020  178.7030  143.0640 C   0  0  0  0  0  0  0  0  0  0  0  0
  185.5460  178.3220  143.1990 C   0  0  0  0  0  3  0  0  0  0  0  0
  183.5730  178.7530  141.7820 N   0  0  0  0  0  2  0  0  0  0  0  0
  184.1770  179.4060  140.6310 C   0  0  0  0  0  2  0  0  0  0  0  0
  184.8370  178.3700  139.7410 C   0  0  0  0  0  2  0  0  0  0  0  0
  185.0660  178.9080  138.4740 O   0  0  0  0  0  0  0  0  0  0  0  0
  185.3020  177.8020  137.6600 C   0  0  0  0  0  2  0  0  0  0  0  0
  184.1010  176.8690  137.7090 C   0  0  0  0  0  2  0  0  0  0  0  0
  182.8970  177.3950  136.9170 C   0  0  1  0  0  3  0  0  0  0  0  0
  183.1740  175.7780  135.0360 O   0  0  0  0  0  1  0  0  0  0  0  0
  182.7810  177.9900  134.5940 O   0  0  0  0  0  0  0  0  0  0  0  0
  182.9430  177.0830  135.4510 C   0  0  0  0  0  0  0  0  0  0  0  0
  180.3690  177.6670  136.7030 C   0  0  0  0  0  1  0  0  0  0  0  0
  181.5190  177.1610  137.5580 C   0  0  1  0  0  3  0  0  0  0  0  0
  181.3230  175.7500  137.8590 N   0  0  0  0  0  2  0  0  0  0  0  0
  181.1000  175.6280  139.2950 C   0  0  1  0  0  3  0  0  0  0  0  0
  181.4200  176.8350  139.9260 O   0  0  0  0  0  1  0  0  0  0  0  0
  179.6540  175.2180  139.5910 C   0  0  0  0  0  0  0  0  0  0  0  0
  178.9310  176.2920  140.3880 C   0  0  0  0  0  1  0  0  0  0  0  0
  178.9740  175.0070  138.3900 O   0  0  0  0  0  1  0  0  0  0  0  0
  179.6410  173.9260  140.3850 C   0  0  0  0  0  1  0  0  0  0  0  0
  189.4530  178.2350  139.2350 N   0  0  0  0  0  2  0  0  0  0  0  0
  188.8440  178.1460  136.8940 C   0  0  0  0  0  3  0  0  0  0  0  0
  189.2900  176.0390  138.1600 C   0  0  0  0  0  2  0  0  0  0  0  0
  188.7350  177.4630  138.2270 C   0  0  1  0  0  3  0  0  0  0  0  0
  188.6170  175.3060  137.0020 C   0  0  1  0  0  3  0  0  0  0  0  0
  188.7940  176.0380  135.7870 O   0  0  0  0  0  0  0  0  0  0  0  0
  188.8440  177.4400  135.7610 C   0  0  0  0  0  3  0  0  0  0  0  0
  189.1940  173.9100  136.8420 C   0  0  0  0  0  2  0  0  0  0  0  0
  187.3940  173.4790  135.1680 O   0  0  0  0  0  0  0  0  0  0  0  0
  188.2120  173.0020  136.1840 C   0  0  0  0  0  0  0  0  0  0  0  0
  188.1490  171.7920  136.5250 O   0  0  0  0  0  1  0  0  0  0  0  0
  1 14  1  0  0  0  0
  2  8  1  0  0  0  0
  3 12  2  0  0  0  0
  4  7  1  0  0  0  0
  4  2  2  0  0  0  0
  6  5  1  6  0  0  0
  6 13  1  0  0  0  0
  6  3  1  0  0  0  0
  7  5  2  0  0  0  0
  8 13  2  0  0  0  0
  9 10  1  0  0  0  0
 10 14  2  0  0  0  0
 11  1  2  0  0  0  0
 12  9  1  0  0  0  0
 13 15  1  0  0  0  0
 15 11  1  0  0  0  0
 15  9  2  0  0  0  0
 16  3  1  0  0  0  0
 16 17  1  0  0  0  0
 18 17  2  0  0  0  0
 19 18  1  0  0  0  0
 20 21  1  0  0  0  0
 20 19  2  0  0  0  0
 21 16  2  0  0  0  0
 22 20  1  0  0  0  0
 23 22  1  0  0  0  0
 24 23  1  0  0  0  0
 25 24  1  0  0  0  0
 26 27  1  0  0  0  0
 26 25  1  0  0  0  0
 28 33  1  0  0  0  0
 28 27  1  1  0  0  0
 29 31  1  0  0  0  0
 30 31  2  0  0  0  0
 31 28  1  0  0  0  0
 33 32  1  6  0  0  0
 33 34  1  0  0  0  0
 34 35  1  0  0  0  0
 35 37  1  0  0  0  0
 35 36  1  1  0  0  0
 37 40  1  0  0  0  0
 37 38  1  0  0  0  0
 39 37  1  0  0  0  0
 41  4  1  0  0  0  0
 42 44  1  0  0  0  0
 43 44  1  0  0  0  0
 44 41  1  1  0  0  0
 45 48  1  6  0  0  0
 45 43  1  0  0  0  0
 46 45  1  0  0  0  0
 47 46  1  0  0  0  0
 47 42  2  0  0  0  0
 49 50  2  0  0  0  0
 50 51  1  0  0  0  0
 50 48  1  0  0  0  0
M  END
>  <MODEL>
9

>  <REMARK>
 VINA RESULT:      -7.0      1.829      3.564
  Name = 
  17 active torsions:
  status: ('A' for Active; 'I' for Inactive)
    1  A    between atoms: C_4  and  C_5
    2  A    between atoms: C_8  and  C_24
    3  A    between atoms: C_8  and  N_51
    4  A    between atoms: C_10  and  N_33
    5  A    between atoms: C_18  and  C_19
    6  A    between atoms: C_18  and  C_48
    7  A    between atoms: C_19  and  O_45
    8  A    between atoms: C_21  and  N_33
    9  A    between atoms: C_22  and  C_48
   10  A    between atoms: C_22  and  N_51
   11  A    between atoms: C_26  and  C_31
   12  A    between atoms: C_27  and  N_50
   13  A    between atoms: C_29  and  C_31
   14  A    between atoms: C_39  and  C_44
   15  A    between atoms: C_39  and  N_50
   16  A    between atoms: C_44  and  O_45
   17  A    between atoms: C_48  and  C_49
                            x       y       z     vdW  Elec       q    Type
                         _______ _______ _______ _____ _____    ______ ____

>  <TORSDO>
F 17

$$$$
