=
 OpenBabel10222419183D

 35 39  0  0  1  0  0  0  0  0999 V2000
  189.5160  176.9290  142.1750 N   0  0  0  0  0  0  0  0  0  0  0  0
  188.6670  177.6480  139.9960 C   0  0  0  0  0  2  0  0  0  0  0  0
  186.0940  177.7840  137.7750 C   0  0  0  0  0  0  0  0  0  0  0  0
  186.9790  176.7130  137.4240 N   0  0  0  0  0  2  0  0  0  0  0  0
  189.1450  175.7760  137.1520 N   0  0  0  0  0  0  0  0  0  0  0  0
  189.1190  177.6350  138.5720 C   0  0  2  0  0  3  0  0  0  0  0  0
  188.3860  176.6770  137.6900 C   0  0  0  0  0  0  0  0  0  0  0  0
  190.5310  175.9350  137.5750 C   0  0  0  0  0  2  0  0  0  0  0  0
  189.6150  177.1090  140.7520 C   0  0  0  0  0  0  0  0  0  0  0  0
  190.4120  176.9180  138.6770 C   0  0  2  0  0  3  0  0  0  0  0  0
  190.6900  176.5760  139.9240 C   0  0  0  0  0  3  0  0  0  0  0  0
  186.5460  178.9000  138.1490 O   0  0  0  0  0  0  0  0  0  0  0  0
  182.9430  176.1730  138.7330 C   0  0  0  0  0  2  0  0  0  0  0  0
  184.6200  177.5950  137.6260 C   0  0  1  0  0  3  0  0  0  0  0  0
  184.2420  176.1600  137.9520 C   0  0  1  0  0  3  0  0  0  0  0  0
  183.9910  177.2430  138.9640 C   0  0  2  0  0  3  0  0  0  0  0  0
  190.1910  175.8130  142.8400 C   0  0  0  0  0  2  0  0  0  0  0  0
  191.5160  176.2730  143.4230 C   0  0  0  0  0  2  0  0  0  0  0  0
  191.9570  175.3450  144.3660 O   0  0  0  0  0  0  0  0  0  0  0  0
  191.6800  175.9350  145.5990 C   0  0  0  0  0  3  0  0  0  0  0  0
  192.0690  177.2740  145.5710 O   0  0  0  0  0  1  0  0  0  0  0  0
  192.3820  175.2700  146.6030 O   0  0  0  0  0  1  0  0  0  0  0  0
  188.6340  177.8070  142.9430 C   0  0  2  0  0  3  0  0  0  0  0  0
  190.4150  179.3440  143.7750 O   0  0  0  0  0  0  0  0  0  0  0  0
  189.0740  178.2340  145.2640 O   0  0  0  0  0  1  0  0  0  0  0  0
  189.3720  178.4740  144.0640 C   0  0  0  0  0  0  0  0  0  0  0  0
  187.3910  177.0590  143.4230 C   0  0  0  0  0  2  0  0  0  0  0  0
  185.5980  178.1370  144.6490 C   0  0  0  0  0  3  0  0  0  0  0  0
  183.3480  178.8070  142.6750 C   0  0  0  0  0  0  0  0  0  0  0  0
  182.0750  178.6160  141.9340 C   0  0  0  0  0  1  0  0  0  0  0  0
  185.8180  178.6720  142.2370 C   0  0  0  0  0  3  0  0  0  0  0  0
  183.3060  178.8070  144.0080 C   0  0  0  0  0  3  0  0  0  0  0  0
  184.4870  179.1100  144.8690 C   0  0  0  0  0  2  0  0  0  0  0  0
  186.2070  177.9640  143.4750 C   0  0  0  0  0  0  0  0  0  0  0  0
  184.5770  179.0370  141.8900 C   0  0  0  0  0  3  0  0  0  0  0  0
  1 17  1  0  0  0  0
  1 23  1  0  0  0  0
  2  9  1  0  0  0  0
  3 12  2  0  0  0  0
  4  7  1  0  0  0  0
  4  3  1  0  0  0  0
  5  8  1  0  0  0  0
  5  7  2  0  0  0  0
  6 10  1  0  0  0  0
  6  2  1  1  0  0  0
  7  6  1  0  0  0  0
  9  1  1  0  0  0  0
 10  8  1  6  0  0  0
 10 11  1  0  0  0  0
 11  9  2  0  0  0  0
 14  3  1  1  0  0  0
 14 15  1  0  0  0  0
 14 16  1  0  0  0  0
 15 13  1  6  0  0  0
 15 16  1  0  0  0  0
 16 13  1  6  0  0  0
 17 18  1  0  0  0  0
 18 19  1  0  0  0  0
 19 20  1  0  0  0  0
 20 22  1  0  0  0  0
 21 20  1  0  0  0  0
 23 27  1  1  0  0  0
 23 26  1  0  0  0  0
 24 26  2  0  0  0  0
 26 25  1  0  0  0  0
 27 34  1  0  0  0  0
 28 33  1  0  0  0  0
 29 32  2  0  0  0  0
 30 29  1  0  0  0  0
 31 34  1  0  0  0  0
 32 33  1  0  0  0  0
 34 28  2  0  0  0  0
 35 31  2  0  0  0  0
 35 29  1  0  0  0  0
M  END
>  <MODEL>
1

>  <REMARK>
 VINA RESULT:      -8.1      0.000      0.000
  Name = 
  10 active torsions:
  status: ('A' for Active; 'I' for Inactive)
    1  A    between atoms: C_2  and  O_19
    2  A    between atoms: C_7  and  C_17
    3  A    between atoms: C_7  and  N_29
    4  A    between atoms: C_8  and  C_15
    5  A    between atoms: C_11  and  C_18
    6  A    between atoms: C_11  and  C_22
    7  A    between atoms: C_11  and  N_29
    8  A    between atoms: C_17  and  O_19
    9  A    between atoms: C_18  and  C_33
   10  A    between atoms: C_26  and  N_29
                            x       y       z     vdW  Elec       q    Type
                         _______ _______ _______ _____ _____    ______ ____

>  <TORSDO>
F 10

$$$$
=
 OpenBabel10222419183D

 35 39  0  0  1  0  0  0  0  0999 V2000
  187.3620  178.1260  139.0840 N   0  0  0  0  0  0  0  0  0  0  0  0
  188.8380  177.1320  140.7620 C   0  0  0  0  0  2  0  0  0  0  0  0
  190.2440  177.2780  143.8570 C   0  0  0  0  0  0  0  0  0  0  0  0
  191.1700  177.7690  142.8820 N   0  0  0  0  0  2  0  0  0  0  0  0
  192.2320  177.6890  140.7580 N   0  0  0  0  0  0  0  0  0  0  0  0
  190.2030  176.5240  140.8180 C   0  0  2  0  0  3  0  0  0  0  0  0
  191.2320  177.3570  141.5110 C   0  0  0  0  0  0  0  0  0  0  0  0
  192.0690  177.1640  139.4080 C   0  0  0  0  0  2  0  0  0  0  0  0
  188.5760  177.4840  139.5100 C   0  0  0  0  0  0  0  0  0  0  0  0
  190.6620  176.6980  139.4200 C   0  0  2  0  0  3  0  0  0  0  0  0
  189.7470  177.2850  138.6660 C   0  0  0  0  0  3  0  0  0  0  0  0
  189.5450  176.2530  143.6280 O   0  0  0  0  0  0  0  0  0  0  0  0
  189.9530  177.1520  147.5100 C   0  0  0  0  0  2  0  0  0  0  0  0
  190.1560  177.9480  145.1900 C   0  0  1  0  0  3  0  0  0  0  0  0
  189.3100  177.1150  146.1380 C   0  0  1  0  0  3  0  0  0  0  0  0
  190.8080  177.0890  146.2610 C   0  0  2  0  0  3  0  0  0  0  0  0
  187.2800  178.7870  137.7810 C   0  0  0  0  0  2  0  0  0  0  0  0
  187.4390  177.7690  136.6650 C   0  0  0  0  0  2  0  0  0  0  0  0
  186.4270  176.8140  136.7590 O   0  0  0  0  0  0  0  0  0  0  0  0
  187.0020  175.6400  136.2730 C   0  0  0  0  0  3  0  0  0  0  0  0
  187.1250  174.7180  137.3110 O   0  0  0  0  0  1  0  0  0  0  0  0
  188.2640  175.9200  135.7500 O   0  0  0  0  0  1  0  0  0  0  0  0
  186.2400  178.2160  140.0170 C   0  0  2  0  0  3  0  0  0  0  0  0
  184.6720  179.9850  139.2170 O   0  0  0  0  0  1  0  0  0  0  0  0
  184.1940  177.7760  138.8410 O   0  0  0  0  0  0  0  0  0  0  0  0
  184.9830  178.6350  139.3170 C   0  0  0  0  0  0  0  0  0  0  0  0
  186.5790  179.1180  141.2030 C   0  0  0  0  0  2  0  0  0  0  0  0
  184.6170  179.1810  142.6280 C   0  0  0  0  0  3  0  0  0  0  0  0
  185.4790  178.4720  145.4850 C   0  0  0  0  0  0  0  0  0  0  0  0
  185.9090  178.7160  146.8860 C   0  0  0  0  0  1  0  0  0  0  0  0
  186.4860  177.7010  143.3160 C   0  0  0  0  0  3  0  0  0  0  0  0
  184.3280  179.0080  145.0770 C   0  0  0  0  0  3  0  0  0  0  0  0
  183.7230  178.7410  143.7400 C   0  0  0  0  0  2  0  0  0  0  0  0
  185.8430  178.6930  142.4280 C   0  0  0  0  0  0  0  0  0  0  0  0
  186.3280  177.6050  144.6430 C   0  0  0  0  0  3  0  0  0  0  0  0
  1  9  1  0  0  0  0
  1 23  1  0  0  0  0
  4  3  1  0  0  0  0
  5  7  2  0  0  0  0
  6  2  1  6  0  0  0
  6  7  1  0  0  0  0
  7  4  1  0  0  0  0
  8 10  1  0  0  0  0
  8  5  1  0  0  0  0
  9  2  1  0  0  0  0
 10 11  1  1  0  0  0
 10  6  1  0  0  0  0
 11  9  2  0  0  0  0
 12  3  2  0  0  0  0
 14  3  1  6  0  0  0
 14 15  1  0  0  0  0
 14 16  1  0  0  0  0
 15 16  1  0  0  0  0
 15 13  1  1  0  0  0
 16 13  1  1  0  0  0
 17  1  1  0  0  0  0
 18 19  1  0  0  0  0
 18 17  1  0  0  0  0
 20 19  1  0  0  0  0
 20 21  1  0  0  0  0
 22 20  1  0  0  0  0
 23 27  1  1  0  0  0
 24 26  1  0  0  0  0
 25 26  2  0  0  0  0
 26 23  1  0  0  0  0
 27 34  1  0  0  0  0
 28 33  1  0  0  0  0
 29 30  1  0  0  0  0
 31 35  2  0  0  0  0
 32 29  2  0  0  0  0
 33 32  1  0  0  0  0
 34 28  2  0  0  0  0
 34 31  1  0  0  0  0
 35 29  1  0  0  0  0
M  END
>  <MODEL>
2

>  <REMARK>
 VINA RESULT:      -8.0      2.021      6.438
  Name = 
  10 active torsions:
  status: ('A' for Active; 'I' for Inactive)
    1  A    between atoms: C_2  and  O_19
    2  A    between atoms: C_7  and  C_17
    3  A    between atoms: C_7  and  N_29
    4  A    between atoms: C_8  and  C_15
    5  A    between atoms: C_11  and  C_18
    6  A    between atoms: C_11  and  C_22
    7  A    between atoms: C_11  and  N_29
    8  A    between atoms: C_17  and  O_19
    9  A    between atoms: C_18  and  C_33
   10  A    between atoms: C_26  and  N_29
                            x       y       z     vdW  Elec       q    Type
                         _______ _______ _______ _____ _____    ______ ____

>  <TORSDO>
F 10

$$$$
=
 OpenBabel10222419183D

 35 39  0  0  1  0  0  0  0  0999 V2000
  189.1850  177.4010  140.9000 N   0  0  0  0  0  0  0  0  0  0  0  0
  187.3530  178.3300  139.5720 C   0  0  0  0  0  2  0  0  0  0  0  0
  184.0290  178.9800  139.2500 C   0  0  0  0  0  0  0  0  0  0  0  0
  184.3610  177.7880  138.5280 N   0  0  0  0  0  2  0  0  0  0  0  0
  185.7800  176.5060  137.1180 N   0  0  0  0  0  0  0  0  0  0  0  0
  186.8810  178.2910  138.1550 C   0  0  2  0  0  3  0  0  0  0  0  0
  185.6310  177.5030  137.9310 C   0  0  0  0  0  0  0  0  0  0  0  0
  187.1560  176.4120  136.6470 C   0  0  0  0  0  2  0  0  0  0  0  0
  188.4640  177.6110  139.6750 C   0  0  0  0  0  0  0  0  0  0  0  0
  187.8590  177.3620  137.5420 C   0  0  2  0  0  3  0  0  0  0  0  0
  188.7530  176.9330  138.4180 C   0  0  0  0  0  3  0  0  0  0  0  0
  184.7840  179.9890  139.2130 O   0  0  0  0  0  0  0  0  0  0  0  0
  180.9030  177.4640  140.4220 C   0  0  0  0  0  2  0  0  0  0  0  0
  182.7370  179.0500  139.9970 C   0  0  1  0  0  3  0  0  0  0  0  0
  181.7030  178.1540  139.3350 C   0  0  1  0  0  3  0  0  0  0  0  0
  182.3920  177.6940  140.5900 C   0  0  2  0  0  3  0  0  0  0  0  0
  190.3810  176.5580  140.9320 C   0  0  0  0  0  2  0  0  0  0  0  0
  191.5770  177.3240  140.3940 C   0  0  0  0  0  2  0  0  0  0  0  0
  191.7760  176.9950  139.0530 O   0  0  0  0  0  0  0  0  0  0  0  0
  193.1200  176.6320  138.9730 C   0  0  0  0  0  3  0  0  0  0  0  0
  193.8630  177.4020  139.8670 O   0  0  0  0  0  1  0  0  0  0  0  0
  193.5860  176.8510  137.6770 O   0  0  0  0  0  1  0  0  0  0  0  0
  188.6440  177.9440  142.1460 C   0  0  2  0  0  3  0  0  0  0  0  0
  189.9130  177.1030  144.1230 O   0  0  0  0  0  1  0  0  0  0  0  0
  190.4250  179.1450  143.2190 O   0  0  0  0  0  0  0  0  0  0  0  0
  189.7170  178.1030  143.1800 C   0  0  0  0  0  0  0  0  0  0  0  0
  187.4670  177.1080  142.6470 C   0  0  0  0  0  2  0  0  0  0  0  0
  186.5210  177.8180  144.7640 C   0  0  0  0  0  3  0  0  0  0  0  0
  183.6850  178.8680  144.2480 C   0  0  0  0  0  0  0  0  0  0  0  0
  182.2030  178.8200  144.1530 C   0  0  0  0  0  1  0  0  0  0  0  0
  185.6680  178.9090  142.7050 C   0  0  0  0  0  3  0  0  0  0  0  0
  184.2510  178.5550  145.4140 C   0  0  0  0  0  3  0  0  0  0  0  0
  185.7150  178.6800  145.6780 C   0  0  0  0  0  2  0  0  0  0  0  0
  186.5150  177.9420  143.4360 C   0  0  0  0  0  0  0  0  0  0  0  0
  184.4390  179.3110  143.0580 C   0  0  0  0  0  3  0  0  0  0  0  0
  1 17  1  0  0  0  0
  1 23  1  0  0  0  0
  2  9  1  0  0  0  0
  4  3  1  0  0  0  0
  5  7  2  0  0  0  0
  6  2  1  1  0  0  0
  7  6  1  0  0  0  0
  7  4  1  0  0  0  0
  8  5  1  0  0  0  0
  9  1  1  0  0  0  0
 10  8  1  1  0  0  0
 10  6  1  0  0  0  0
 10 11  1  0  0  0  0
 11  9  2  0  0  0  0
 12  3  2  0  0  0  0
 14  3  1  6  0  0  0
 14 16  1  0  0  0  0
 15 14  1  0  0  0  0
 15 13  1  1  0  0  0
 15 16  1  0  0  0  0
 16 13  1  1  0  0  0
 18 17  1  0  0  0  0
 19 18  1  0  0  0  0
 20 19  1  0  0  0  0
 20 21  1  0  0  0  0
 22 20  1  0  0  0  0
 23 27  1  1  0  0  0
 23 26  1  0  0  0  0
 26 25  2  0  0  0  0
 26 24  1  0  0  0  0
 27 34  1  0  0  0  0
 28 33  1  0  0  0  0
 29 32  2  0  0  0  0
 30 29  1  0  0  0  0
 31 35  2  0  0  0  0
 31 34  1  0  0  0  0
 32 33  1  0  0  0  0
 34 28  2  0  0  0  0
 35 29  1  0  0  0  0
M  END
>  <MODEL>
3

>  <REMARK>
 VINA RESULT:      -7.9      2.243      3.213
  Name = 
  10 active torsions:
  status: ('A' for Active; 'I' for Inactive)
    1  A    between atoms: C_2  and  O_19
    2  A    between atoms: C_7  and  C_17
    3  A    between atoms: C_7  and  N_29
    4  A    between atoms: C_8  and  C_15
    5  A    between atoms: C_11  and  C_18
    6  A    between atoms: C_11  and  C_22
    7  A    between atoms: C_11  and  N_29
    8  A    between atoms: C_17  and  O_19
    9  A    between atoms: C_18  and  C_33
   10  A    between atoms: C_26  and  N_29
                            x       y       z     vdW  Elec       q    Type
                         _______ _______ _______ _____ _____    ______ ____

>  <TORSDO>
F 10

$$$$
=
 OpenBabel10222419183D

 35 39  0  0  1  0  0  0  0  0999 V2000
  189.2820  177.3540  144.4050 N   0  0  0  0  0  0  0  0  0  0  0  0
  186.9190  177.4930  143.7870 C   0  0  0  0  0  2  0  0  0  0  0  0
  184.5190  178.7220  141.7120 C   0  0  0  0  0  0  0  0  0  0  0  0
  184.5730  179.5080  142.9080 N   0  0  0  0  0  2  0  0  0  0  0  0
  184.7830  179.7480  145.2620 N   0  0  0  0  0  0  0  0  0  0  0  0
  185.6060  177.7070  144.4680 C   0  0  2  0  0  3  0  0  0  0  0  0
  184.9690  179.0320  144.2000 C   0  0  0  0  0  0  0  0  0  0  0  0
  185.2710  179.0610  146.4510 C   0  0  0  0  0  2  0  0  0  0  0  0
  187.8830  177.5030  144.6990 C   0  0  0  0  0  0  0  0  0  0  0  0
  186.0310  177.9290  145.8700 C   0  0  2  0  0  3  0  0  0  0  0  0
  187.3450  177.8530  146.0080 C   0  0  0  0  0  3  0  0  0  0  0  0
  184.6010  177.4640  141.7600 O   0  0  0  0  0  0  0  0  0  0  0  0
  183.0190  178.8380  138.3680 C   0  0  0  0  0  2  0  0  0  0  0  0
  184.2930  179.3980  140.3990 C   0  0  1  0  0  3  0  0  0  0  0  0
  184.1140  178.3610  139.3030 C   0  0  1  0  0  3  0  0  0  0  0  0
  182.9100  179.0670  139.8620 C   0  0  2  0  0  3  0  0  0  0  0  0
  190.3010  177.8390  145.3370 C   0  0  0  0  0  2  0  0  0  0  0  0
  190.4190  176.8950  146.5220 C   0  0  0  0  0  2  0  0  0  0  0  0
  191.6130  177.1450  147.1980 O   0  0  0  0  0  0  0  0  0  0  0  0
  192.0580  175.8880  147.6090 C   0  0  0  0  0  3  0  0  0  0  0  0
  193.1440  176.0380  148.4700 O   0  0  0  0  0  1  0  0  0  0  0  0
  192.4480  175.1450  146.4960 O   0  0  0  0  0  1  0  0  0  0  0  0
  189.6820  176.8170  143.1050 C   0  0  2  0  0  3  0  0  0  0  0  0
  192.1030  176.2630  143.3420 O   0  0  0  0  0  1  0  0  0  0  0  0
  190.5480  174.5830  143.2550 O   0  0  0  0  0  0  0  0  0  0  0  0
  190.7910  175.8200  143.2470 C   0  0  0  0  0  0  0  0  0  0  0  0
  190.0240  177.9400  142.1260 C   0  0  0  0  0  2  0  0  0  0  0  0
  190.5980  176.9890  139.9700 C   0  0  0  0  0  3  0  0  0  0  0  0
  188.7340  178.2010  137.8570 C   0  0  0  0  0  0  0  0  0  0  0  0
  188.3010  179.1370  136.7870 C   0  0  0  0  0  1  0  0  0  0  0  0
  188.2680  177.7800  140.2890 C   0  0  0  0  0  3  0  0  0  0  0  0
  189.8560  177.5060  137.6680 C   0  0  0  0  0  3  0  0  0  0  0  0
  190.3360  176.4470  138.6040 C   0  0  0  0  0  2  0  0  0  0  0  0
  189.6630  177.5620  140.7300 C   0  0  0  0  0  0  0  0  0  0  0  0
  187.8650  178.0570  139.0420 C   0  0  0  0  0  3  0  0  0  0  0  0
  1  9  1  0  0  0  0
  1 17  1  0  0  0  0
  2  9  1  0  0  0  0
  3 12  2  0  0  0  0
  3  4  1  0  0  0  0
  4  7  1  0  0  0  0
  5  8  1  0  0  0  0
  6  2  1  6  0  0  0
  6 10  1  0  0  0  0
  7  6  1  0  0  0  0
  7  5  2  0  0  0  0
  9 11  2  0  0  0  0
 10 11  1  6  0  0  0
 10  8  1  0  0  0  0
 14  3  1  1  0  0  0
 15 13  1  6  0  0  0
 15 16  1  0  0  0  0
 15 14  1  0  0  0  0
 16 13  1  6  0  0  0
 16 14  1  0  0  0  0
 17 18  1  0  0  0  0
 18 19  1  0  0  0  0
 19 20  1  0  0  0  0
 20 21  1  0  0  0  0
 22 20  1  0  0  0  0
 23 27  1  6  0  0  0
 23 26  1  0  0  0  0
 23  1  1  0  0  0  0
 26 25  2  0  0  0  0
 26 24  1  0  0  0  0
 28 34  2  0  0  0  0
 29 35  1  0  0  0  0
 30 29  1  0  0  0  0
 31 34  1  0  0  0  0
 32 29  2  0  0  0  0
 32 33  1  0  0  0  0
 33 28  1  0  0  0  0
 34 27  1  0  0  0  0
 35 31  2  0  0  0  0
M  END
>  <MODEL>
4

>  <REMARK>
 VINA RESULT:      -7.7      2.418      5.559
  Name = 
  10 active torsions:
  status: ('A' for Active; 'I' for Inactive)
    1  A    between atoms: C_2  and  O_19
    2  A    between atoms: C_7  and  C_17
    3  A    between atoms: C_7  and  N_29
    4  A    between atoms: C_8  and  C_15
    5  A    between atoms: C_11  and  C_18
    6  A    between atoms: C_11  and  C_22
    7  A    between atoms: C_11  and  N_29
    8  A    between atoms: C_17  and  O_19
    9  A    between atoms: C_18  and  C_33
   10  A    between atoms: C_26  and  N_29
                            x       y       z     vdW  Elec       q    Type
                         _______ _______ _______ _____ _____    ______ ____

>  <TORSDO>
F 10

$$$$
=
 OpenBabel10222419183D

 35 39  0  0  1  0  0  0  0  0999 V2000
  186.8060  177.7380  137.8320 N   0  0  0  0  0  0  0  0  0  0  0  0
  185.5590  178.6650  139.7210 C   0  0  0  0  0  2  0  0  0  0  0  0
  184.8280  178.5960  143.0430 C   0  0  0  0  0  0  0  0  0  0  0  0
  183.8100  177.9040  142.3100 N   0  0  0  0  0  2  0  0  0  0  0  0
  182.3520  177.6610  140.4500 N   0  0  0  0  0  0  0  0  0  0  0  0
  184.1570  179.0870  140.0240 C   0  0  2  0  0  3  0  0  0  0  0  0
  183.4200  178.1860  140.9600 C   0  0  0  0  0  0  0  0  0  0  0  0
  182.1660  178.0870  139.0680 C   0  0  0  0  0  2  0  0  0  0  0  0
  185.6190  178.2460  138.4640 C   0  0  0  0  0  0  0  0  0  0  0  0
  183.4630  178.7360  138.7630 C   0  0  2  0  0  3  0  0  0  0  0  0
  184.2880  178.2140  137.8700 C   0  0  0  0  0  3  0  0  0  0  0  0
  185.3080  179.6810  142.6170 O   0  0  0  0  0  0  0  0  0  0  0  0
  185.3090  178.9420  146.6610 C   0  0  0  0  0  2  0  0  0  0  0  0
  185.2740  178.0590  144.3640 C   0  0  1  0  0  3  0  0  0  0  0  0
  185.7810  179.1910  145.2420 C   0  0  1  0  0  3  0  0  0  0  0  0
  184.4120  178.6180  145.4840 C   0  0  2  0  0  3  0  0  0  0  0  0
  186.7180  176.7990  136.7130 C   0  0  0  0  0  2  0  0  0  0  0  0
  186.3520  175.4140  137.2170 C   0  0  0  0  0  2  0  0  0  0  0  0
  185.4160  174.8390  136.3570 O   0  0  0  0  0  0  0  0  0  0  0  0
  184.6920  173.9580  137.1610 C   0  0  0  0  0  3  0  0  0  0  0  0
  183.8160  174.6810  137.9700 O   0  0  0  0  0  1  0  0  0  0  0  0
  185.5680  173.2290  137.9630 O   0  0  0  0  0  1  0  0  0  0  0  0
  188.1120  178.0770  138.3960 C   0  0  2  0  0  3  0  0  0  0  0  0
  189.8110  177.8740  136.5800 O   0  0  0  0  0  0  0  0  0  0  0  0
  189.0570  179.9420  137.2160 O   0  0  0  0  0  1  0  0  0  0  0  0
  189.0070  178.6910  137.3640 C   0  0  0  0  0  0  0  0  0  0  0  0
  188.7490  176.8680  139.0800 C   0  0  0  0  0  2  0  0  0  0  0  0
  190.5480  176.7520  140.7030 C   0  0  0  0  0  3  0  0  0  0  0  0
  189.3830  177.3570  143.4760 C   0  0  0  0  0  0  0  0  0  0  0  0
  188.8070  177.0620  144.8130 C   0  0  0  0  0  1  0  0  0  0  0  0
  188.6110  178.2080  141.2410 C   0  0  0  0  0  3  0  0  0  0  0  0
  190.5720  176.8350  143.1740 C   0  0  0  0  0  3  0  0  0  0  0  0
  191.3160  177.1500  141.9190 C   0  0  0  0  0  2  0  0  0  0  0  0
  189.3490  177.2480  140.3910 C   0  0  0  0  0  0  0  0  0  0  0  0
  188.6260  178.2540  142.5800 C   0  0  0  0  0  3  0  0  0  0  0  0
  1 23  1  0  0  0  0
  1  9  1  0  0  0  0
  4  3  1  0  0  0  0
  5  7  2  0  0  0  0
  6  2  1  6  0  0  0
  6  7  1  0  0  0  0
  7  4  1  0  0  0  0
  8  5  1  0  0  0  0
  9  2  1  0  0  0  0
 10 11  1  1  0  0  0
 10  8  1  0  0  0  0
 10  6  1  0  0  0  0
 11  9  2  0  0  0  0
 12  3  2  0  0  0  0
 14  3  1  6  0  0  0
 14 15  1  0  0  0  0
 14 16  1  0  0  0  0
 15 16  1  0  0  0  0
 15 13  1  1  0  0  0
 16 13  1  1  0  0  0
 17 18  1  0  0  0  0
 17  1  1  0  0  0  0
 19 20  1  0  0  0  0
 19 18  1  0  0  0  0
 20 22  1  0  0  0  0
 20 21  1  0  0  0  0
 23 27  1  6  0  0  0
 24 26  2  0  0  0  0
 25 26  1  0  0  0  0
 26 23  1  0  0  0  0
 27 34  1  0  0  0  0
 28 33  1  0  0  0  0
 29 30  1  0  0  0  0
 31 35  2  0  0  0  0
 32 29  2  0  0  0  0
 33 32  1  0  0  0  0
 34 28  2  0  0  0  0
 34 31  1  0  0  0  0
 35 29  1  0  0  0  0
M  END
>  <MODEL>
5

>  <REMARK>
 VINA RESULT:      -7.5      3.231      7.165
  Name = 
  10 active torsions:
  status: ('A' for Active; 'I' for Inactive)
    1  A    between atoms: C_2  and  O_19
    2  A    between atoms: C_7  and  C_17
    3  A    between atoms: C_7  and  N_29
    4  A    between atoms: C_8  and  C_15
    5  A    between atoms: C_11  and  C_18
    6  A    between atoms: C_11  and  C_22
    7  A    between atoms: C_11  and  N_29
    8  A    between atoms: C_17  and  O_19
    9  A    between atoms: C_18  and  C_33
   10  A    between atoms: C_26  and  N_29
                            x       y       z     vdW  Elec       q    Type
                         _______ _______ _______ _____ _____    ______ ____

>  <TORSDO>
F 10

$$$$
=
 OpenBabel10222419183D

 35 39  0  0  1  0  0  0  0  0999 V2000
  189.9300  177.3520  140.4140 N   0  0  0  0  0  0  0  0  0  0  0  0
  189.7470  176.0670  138.3400 C   0  0  0  0  0  2  0  0  0  0  0  0
  188.6420  173.2830  136.7280 C   0  0  0  0  0  0  0  0  0  0  0  0
  190.0250  173.1280  137.0670 N   0  0  0  0  0  2  0  0  0  0  0  0
  192.2430  173.9500  137.2870 N   0  0  0  0  0  0  0  0  0  0  0  0
  190.6360  175.6480  137.2140 C   0  0  2  0  0  3  0  0  0  0  0  0
  190.9750  174.1930  137.1920 C   0  0  0  0  0  0  0  0  0  0  0  0
  193.0070  175.1850  137.4120 C   0  0  0  0  0  2  0  0  0  0  0  0
  190.4520  176.7980  139.1940 C   0  0  0  0  0  0  0  0  0  0  0  0
  191.9440  176.1890  137.6520 C   0  0  2  0  0  3  0  0  0  0  0  0
  191.8580  176.8210  138.8120 C   0  0  0  0  0  3  0  0  0  0  0  0
  188.2040  174.3770  136.2800 O   0  0  0  0  0  0  0  0  0  0  0  0
  186.2090  170.9500  135.2850 C   0  0  0  0  0  2  0  0  0  0  0  0
  187.7230  172.1100  136.8410 C   0  0  1  0  0  3  0  0  0  0  0  0
  186.5320  172.2910  135.9150 C   0  0  1  0  0  3  0  0  0  0  0  0
  187.6480  171.3650  135.5180 C   0  0  2  0  0  3  0  0  0  0  0  0
  190.7200  177.3340  141.6460 C   0  0  0  0  0  2  0  0  0  0  0  0
  190.4790  176.0410  142.4050 C   0  0  0  0  0  2  0  0  0  0  0  0
  190.3020  176.3230  143.7600 O   0  0  0  0  0  0  0  0  0  0  0  0
  191.5910  176.3120  144.2950 C   0  0  0  0  0  3  0  0  0  0  0  0
  192.1470  175.0430  144.1390 O   0  0  0  0  0  1  0  0  0  0  0  0
  191.5360  176.6300  145.6510 O   0  0  0  0  0  1  0  0  0  0  0  0
  188.5480  177.8300  140.4440 C   0  0  2  0  0  3  0  0  0  0  0  0
  189.0220  179.3900  138.5570 O   0  0  0  0  0  0  0  0  0  0  0  0
  187.0650  178.2010  138.5930 O   0  0  0  0  0  1  0  0  0  0  0  0
  188.1660  178.4700  139.1450 C   0  0  0  0  0  0  0  0  0  0  0  0
  188.3070  178.7460  141.6430 C   0  0  0  0  0  2  0  0  0  0  0  0
  185.9040  178.7230  141.9750 C   0  0  0  0  0  3  0  0  0  0  0  0
  185.3490  178.2080  144.9480 C   0  0  0  0  0  0  0  0  0  0  0  0
  185.0550  178.5450  146.3650 C   0  0  0  0  0  1  0  0  0  0  0  0
  187.2930  177.4200  143.5660 C   0  0  0  0  0  3  0  0  0  0  0  0
  184.5030  178.6370  144.0110 C   0  0  0  0  0  3  0  0  0  0  0  0
  184.6130  178.2660  142.5690 C   0  0  0  0  0  2  0  0  0  0  0  0
  187.1000  178.3200  142.4090 C   0  0  0  0  0  0  0  0  0  0  0  0
  186.5330  177.3720  144.6680 C   0  0  0  0  0  3  0  0  0  0  0  0
  1 23  1  0  0  0  0
  1 17  1  0  0  0  0
  2  9  1  0  0  0  0
  3  4  1  0  0  0  0
  4  7  1  0  0  0  0
  5  8  1  0  0  0  0
  6 10  1  0  0  0  0
  6  2  1  1  0  0  0
  7  6  1  0  0  0  0
  7  5  2  0  0  0  0
  9  1  1  0  0  0  0
 10  8  1  1  0  0  0
 10 11  1  0  0  0  0
 11  9  2  0  0  0  0
 12  3  2  0  0  0  0
 14  3  1  6  0  0  0
 15 13  1  1  0  0  0
 15 14  1  0  0  0  0
 16 13  1  1  0  0  0
 16 15  1  0  0  0  0
 16 14  1  0  0  0  0
 17 18  1  0  0  0  0
 18 19  1  0  0  0  0
 19 20  1  0  0  0  0
 20 22  1  0  0  0  0
 21 20  1  0  0  0  0
 23 27  1  1  0  0  0
 24 26  2  0  0  0  0
 25 26  1  0  0  0  0
 26 23  1  0  0  0  0
 27 34  1  0  0  0  0
 28 34  2  0  0  0  0
 28 33  1  0  0  0  0
 29 30  1  0  0  0  0
 31 35  2  0  0  0  0
 32 29  2  0  0  0  0
 33 32  1  0  0  0  0
 34 31  1  0  0  0  0
 35 29  1  0  0  0  0
M  END
>  <MODEL>
6

>  <REMARK>
 VINA RESULT:      -7.4      2.535      3.876
  Name = 
  10 active torsions:
  status: ('A' for Active; 'I' for Inactive)
    1  A    between atoms: C_2  and  O_19
    2  A    between atoms: C_7  and  C_17
    3  A    between atoms: C_7  and  N_29
    4  A    between atoms: C_8  and  C_15
    5  A    between atoms: C_11  and  C_18
    6  A    between atoms: C_11  and  C_22
    7  A    between atoms: C_11  and  N_29
    8  A    between atoms: C_17  and  O_19
    9  A    between atoms: C_18  and  C_33
   10  A    between atoms: C_26  and  N_29
                            x       y       z     vdW  Elec       q    Type
                         _______ _______ _______ _____ _____    ______ ____

>  <TORSDO>
F 10

$$$$
=
 OpenBabel10222419183D

 35 39  0  0  1  0  0  0  0  0999 V2000
  186.9360  178.3720  139.3630 N   0  0  0  0  0  0  0  0  0  0  0  0
  185.9030  176.9500  137.6610 C   0  0  0  0  0  2  0  0  0  0  0  0
  185.0800  173.8300  136.5820 C   0  0  0  0  0  0  0  0  0  0  0  0
  186.2820  174.2640  135.9360 N   0  0  0  0  0  2  0  0  0  0  0  0
  187.6250  175.9100  134.8730 N   0  0  0  0  0  0  0  0  0  0  0  0
  185.9070  176.8230  136.1720 C   0  0  2  0  0  3  0  0  0  0  0  0
  186.6280  175.6240  135.6470 C   0  0  0  0  0  0  0  0  0  0  0  0
  187.7860  177.3530  134.7350 C   0  0  0  0  0  2  0  0  0  0  0  0
  186.6790  177.9700  138.0070 C   0  0  0  0  0  0  0  0  0  0  0  0
  186.8810  177.8710  135.7870 C   0  0  2  0  0  3  0  0  0  0  0  0
  187.3620  178.5130  136.8400 C   0  0  0  0  0  3  0  0  0  0  0  0
  184.1110  174.6210  136.7430 O   0  0  0  0  0  0  0  0  0  0  0  0
  183.4390  170.5570  136.4030 C   0  0  0  0  0  2  0  0  0  0  0  0
  184.9490  172.4040  137.0080 C   0  0  1  0  0  3  0  0  0  0  0  0
  183.4930  171.9730  136.9420 C   0  0  1  0  0  3  0  0  0  0  0  0
  184.4440  171.5500  135.8560 C   0  0  2  0  0  3  0  0  0  0  0  0
  188.3050  178.5530  139.8470 C   0  0  0  0  0  2  0  0  0  0  0  0
  188.8080  177.2730  140.4900 C   0  0  0  0  0  2  0  0  0  0  0  0
  189.4230  177.5730  141.7050 O   0  0  0  0  0  0  0  0  0  0  0  0
  190.5580  176.7620  141.7370 C   0  0  0  0  0  3  0  0  0  0  0  0
  190.2960  175.6270  142.5040 O   0  0  0  0  0  1  0  0  0  0  0  0
  191.6200  177.4670  142.3020 O   0  0  0  0  0  1  0  0  0  0  0  0
  185.8140  178.4860  140.2950 C   0  0  2  0  0  3  0  0  0  0  0  0
  184.5060  180.2260  139.0760 O   0  0  0  0  0  0  0  0  0  0  0  0
  183.5720  178.1760  139.4960 O   0  0  0  0  0  1  0  0  0  0  0  0
  184.5700  178.9400  139.5960 C   0  0  0  0  0  0  0  0  0  0  0  0
  186.1740  179.3740  141.4860 C   0  0  0  0  0  2  0  0  0  0  0  0
  184.4690  179.2130  143.2030 C   0  0  0  0  0  3  0  0  0  0  0  0
  185.8000  178.2550  145.7950 C   0  0  0  0  0  0  0  0  0  0  0  0
  186.4460  178.3730  147.1280 C   0  0  0  0  0  1  0  0  0  0  0  0
  186.4590  177.7480  143.4240 C   0  0  0  0  0  3  0  0  0  0  0  0
  184.5860  178.7830  145.6350 C   0  0  0  0  0  3  0  0  0  0  0  0
  183.7780  178.6280  144.3900 C   0  0  0  0  0  2  0  0  0  0  0  0
  185.6570  178.7980  142.7600 C   0  0  0  0  0  0  0  0  0  0  0  0
  186.5210  177.5120  144.7420 C   0  0  0  0  0  3  0  0  0  0  0  0
  1 17  1  0  0  0  0
  1 23  1  0  0  0  0
  2  9  1  0  0  0  0
  3 12  2  0  0  0  0
  4  3  1  0  0  0  0
  5  7  2  0  0  0  0
  6  2  1  1  0  0  0
  7  4  1  0  0  0  0
  7  6  1  0  0  0  0
  8  5  1  0  0  0  0
  9  1  1  0  0  0  0
 10  8  1  1  0  0  0
 10  6  1  0  0  0  0
 10 11  1  0  0  0  0
 11  9  2  0  0  0  0
 14  3  1  6  0  0  0
 15 13  1  1  0  0  0
 15 14  1  0  0  0  0
 16 13  1  1  0  0  0
 16 15  1  0  0  0  0
 16 14  1  0  0  0  0
 17 18  1  0  0  0  0
 18 19  1  0  0  0  0
 19 20  1  0  0  0  0
 20 22  1  0  0  0  0
 20 21  1  0  0  0  0
 23 27  1  1  0  0  0
 24 26  2  0  0  0  0
 25 26  1  0  0  0  0
 26 23  1  0  0  0  0
 27 34  1  0  0  0  0
 28 33  1  0  0  0  0
 29 30  1  0  0  0  0
 31 35  2  0  0  0  0
 32 29  2  0  0  0  0
 33 32  1  0  0  0  0
 34 28  2  0  0  0  0
 34 31  1  0  0  0  0
 35 29  1  0  0  0  0
M  END
>  <MODEL>
7

>  <REMARK>
 VINA RESULT:      -7.3      2.654      4.520
  Name = 
  10 active torsions:
  status: ('A' for Active; 'I' for Inactive)
    1  A    between atoms: C_2  and  O_19
    2  A    between atoms: C_7  and  C_17
    3  A    between atoms: C_7  and  N_29
    4  A    between atoms: C_8  and  C_15
    5  A    between atoms: C_11  and  C_18
    6  A    between atoms: C_11  and  C_22
    7  A    between atoms: C_11  and  N_29
    8  A    between atoms: C_17  and  O_19
    9  A    between atoms: C_18  and  C_33
   10  A    between atoms: C_26  and  N_29
                            x       y       z     vdW  Elec       q    Type
                         _______ _______ _______ _____ _____    ______ ____

>  <TORSDO>
F 10

$$$$
=
 OpenBabel10222419183D

 35 39  0  0  1  0  0  0  0  0999 V2000
  183.0780  177.7850  140.1530 N   0  0  0  0  0  0  0  0  0  0  0  0
  184.9630  178.3190  141.6190 C   0  0  0  0  0  2  0  0  0  0  0  0
  187.8120  177.3120  143.1810 C   0  0  0  0  0  0  0  0  0  0  0  0
  186.7130  177.2560  144.0980 N   0  0  0  0  0  2  0  0  0  0  0  0
  184.7140  178.1250  145.0430 N   0  0  0  0  0  0  0  0  0  0  0  0
  185.1900  179.0040  142.9280 C   0  0  2  0  0  3  0  0  0  0  0  0
  185.5530  178.0950  144.0570 C   0  0  0  0  0  0  0  0  0  0  0  0
  183.6140  179.0420  144.7700 C   0  0  0  0  0  2  0  0  0  0  0  0
  183.6690  178.3680  141.3270 C   0  0  0  0  0  0  0  0  0  0  0  0
  183.8040  179.3400  143.3310 C   0  0  2  0  0  3  0  0  0  0  0  0
  182.9150  178.9430  142.4340 C   0  0  0  0  0  3  0  0  0  0  0  0
  187.9440  178.2820  142.3870 O   0  0  0  0  0  0  0  0  0  0  0  0
  191.2970  176.2180  143.5010 C   0  0  0  0  0  2  0  0  0  0  0  0
  188.8520  176.2400  143.2170 C   0  0  1  0  0  3  0  0  0  0  0  0
  190.1630  176.7670  142.6580 C   0  0  1  0  0  3  0  0  0  0  0  0
  189.9900  176.6330  144.1450 C   0  0  2  0  0  3  0  0  0  0  0  0
  182.4100  176.4850  140.2160 C   0  0  0  0  0  2  0  0  0  0  0  0
  181.0540  176.5570  139.5350 C   0  0  0  0  0  2  0  0  0  0  0  0
  180.2630  177.5110  140.1750 O   0  0  0  0  0  0  0  0  0  0  0  0
  179.8570  176.8970  141.3600 C   0  0  0  0  0  3  0  0  0  0  0  0
  178.9310  175.8950  141.0710 O   0  0  0  0  0  1  0  0  0  0  0  0
  179.2690  177.8420  142.1990 O   0  0  0  0  0  1  0  0  0  0  0  0
  183.2530  178.4510  138.8630 C   0  0  2  0  0  3  0  0  0  0  0  0
  185.6610  178.8870  138.3770 O   0  0  0  0  0  1  0  0  0  0  0  0
  184.6420  177.0180  137.5290 O   0  0  0  0  0  0  0  0  0  0  0  0
  184.5520  178.0660  138.2240 C   0  0  0  0  0  0  0  0  0  0  0  0
  183.0920  179.9650  138.9970 C   0  0  0  0  0  2  0  0  0  0  0  0
  181.3620  179.6080  137.3350 C   0  0  0  0  0  3  0  0  0  0  0  0
  180.6110  182.3270  136.1280 C   0  0  0  0  0  0  0  0  0  0  0  0
  180.6410  183.4480  135.1530 C   0  0  0  0  0  1  0  0  0  0  0  0
  181.4440  181.8260  138.4450 C   0  0  0  0  0  3  0  0  0  0  0  0
  180.3060  181.1090  135.6780 C   0  0  0  0  0  3  0  0  0  0  0  0
  180.1220  179.9250  136.5660 C   0  0  0  0  0  2  0  0  0  0  0  0
  181.9340  180.4540  138.1940 C   0  0  0  0  0  0  0  0  0  0  0  0
  180.8700  182.6390  137.5480 C   0  0  0  0  0  3  0  0  0  0  0  0
  1 17  1  0  0  0  0
  1  9  1  0  0  0  0
  3  4  1  0  0  0  0
  6  2  1  6  0  0  0
  6 10  1  0  0  0  0
  6  7  1  0  0  0  0
  7  4  1  0  0  0  0
  7  5  2  0  0  0  0
  8  5  1  0  0  0  0
  9  2  1  0  0  0  0
  9 11  2  0  0  0  0
 10 11  1  6  0  0  0
 10  8  1  0  0  0  0
 12  3  2  0  0  0  0
 14  3  1  1  0  0  0
 14 16  1  0  0  0  0
 15 14  1  0  0  0  0
 15 13  1  6  0  0  0
 15 16  1  0  0  0  0
 16 13  1  6  0  0  0
 18 19  1  0  0  0  0
 18 17  1  0  0  0  0
 19 20  1  0  0  0  0
 20 22  1  0  0  0  0
 21 20  1  0  0  0  0
 23 27  1  1  0  0  0
 23  1  1  0  0  0  0
 25 26  2  0  0  0  0
 26 24  1  0  0  0  0
 26 23  1  0  0  0  0
 28 34  2  0  0  0  0
 29 35  1  0  0  0  0
 30 29  1  0  0  0  0
 32 29  2  0  0  0  0
 32 33  1  0  0  0  0
 33 28  1  0  0  0  0
 34 31  1  0  0  0  0
 34 27  1  0  0  0  0
 35 31  2  0  0  0  0
M  END
>  <MODEL>
8

>  <REMARK>
 VINA RESULT:      -7.0      4.009      8.613
  Name = 
  10 active torsions:
  status: ('A' for Active; 'I' for Inactive)
    1  A    between atoms: C_2  and  O_19
    2  A    between atoms: C_7  and  C_17
    3  A    between atoms: C_7  and  N_29
    4  A    between atoms: C_8  and  C_15
    5  A    between atoms: C_11  and  C_18
    6  A    between atoms: C_11  and  C_22
    7  A    between atoms: C_11  and  N_29
    8  A    between atoms: C_17  and  O_19
    9  A    between atoms: C_18  and  C_33
   10  A    between atoms: C_26  and  N_29
                            x       y       z     vdW  Elec       q    Type
                         _______ _______ _______ _____ _____    ______ ____

>  <TORSDO>
F 10

$$$$
=
 OpenBabel10222419183D

 35 39  0  0  1  0  0  0  0  0999 V2000
  189.3200  177.9630  143.5680 N   0  0  0  0  0  0  0  0  0  0  0  0
  186.9530  177.7380  144.1420 C   0  0  0  0  0  2  0  0  0  0  0  0
  183.7530  178.8400  143.7880 C   0  0  0  0  0  0  0  0  0  0  0  0
  184.3160  179.3680  144.9950 N   0  0  0  0  0  2  0  0  0  0  0  0
  185.6240  179.1750  146.9690 N   0  0  0  0  0  0  0  0  0  0  0  0
  186.1240  177.5420  145.3700 C   0  0  2  0  0  3  0  0  0  0  0  0
  185.3290  178.7360  145.7870 C   0  0  0  0  0  0  0  0  0  0  0  0
  186.6840  178.3800  147.5750 C   0  0  0  0  0  2  0  0  0  0  0  0
  188.2330  177.7630  144.4880 C   0  0  0  0  0  0  0  0  0  0  0  0
  187.1570  177.5640  146.4320 C   0  0  2  0  0  3  0  0  0  0  0  0
  188.3740  177.7300  145.9380 C   0  0  0  0  0  3  0  0  0  0  0  0
  183.9530  177.6410  143.4520 O   0  0  0  0  0  0  0  0  0  0  0  0
  180.6660  179.3860  141.8880 C   0  0  0  0  0  2  0  0  0  0  0  0
  182.8610  179.7020  142.9560 C   0  0  1  0  0  3  0  0  0  0  0  0
  182.0800  178.8460  141.9720 C   0  0  1  0  0  3  0  0  0  0  0  0
  181.4020  179.3610  143.2120 C   0  0  2  0  0  3  0  0  0  0  0  0
  190.5260  178.6840  143.9750 C   0  0  0  0  0  2  0  0  0  0  0  0
  191.5940  177.7060  144.4330 C   0  0  0  0  0  2  0  0  0  0  0  0
  191.7010  177.7500  145.8230 O   0  0  0  0  0  0  0  0  0  0  0  0
  191.6240  176.4170  146.2260 C   0  0  0  0  0  3  0  0  0  0  0  0
  192.4320  176.2240  147.3460 O   0  0  0  0  0  1  0  0  0  0  0  0
  192.0590  175.5900  145.1920 O   0  0  0  0  0  1  0  0  0  0  0  0
  189.1610  177.5390  142.1770 C   0  0  2  0  0  3  0  0  0  0  0  0
  190.0230  175.2610  142.7180 O   0  0  0  0  0  1  0  0  0  0  0  0
  190.7810  176.3580  140.8550 O   0  0  0  0  0  0  0  0  0  0  0  0
  190.0280  176.3570  141.8660 C   0  0  0  0  0  0  0  0  0  0  0  0
  189.3900  178.7040  141.2150 C   0  0  0  0  0  2  0  0  0  0  0  0
  187.3430  178.2620  139.9920 C   0  0  0  0  0  3  0  0  0  0  0  0
  188.0840  176.9850  137.3030 C   0  0  0  0  0  0  0  0  0  0  0  0
  188.3320  175.8910  136.3280 C   0  0  0  0  0  1  0  0  0  0  0  0
  189.4120  178.6220  138.6700 C   0  0  0  0  0  3  0  0  0  0  0  0
  186.8870  177.0490  137.8860 C   0  0  0  0  0  3  0  0  0  0  0  0
  186.4670  178.1630  138.7860 C   0  0  0  0  0  2  0  0  0  0  0  0
  188.6560  178.4940  139.9340 C   0  0  0  0  0  0  0  0  0  0  0  0
  189.1640  177.9670  137.5280 C   0  0  0  0  0  3  0  0  0  0  0  0
  1 17  1  0  0  0  0
  1  9  1  0  0  0  0
  2  9  1  0  0  0  0
  3  4  1  0  0  0  0
  4  7  1  0  0  0  0
  5  8  1  0  0  0  0
  6  2  1  6  0  0  0
  6  7  1  0  0  0  0
  6 10  1  0  0  0  0
  7  5  2  0  0  0  0
  9 11  2  0  0  0  0
 10 11  1  6  0  0  0
 10  8  1  0  0  0  0
 12  3  2  0  0  0  0
 14 16  1  0  0  0  0
 14  3  1  1  0  0  0
 15 13  1  6  0  0  0
 15 14  1  0  0  0  0
 15 16  1  0  0  0  0
 16 13  1  6  0  0  0
 17 18  1  0  0  0  0
 18 19  1  0  0  0  0
 19 20  1  0  0  0  0
 20 21  1  0  0  0  0
 22 20  1  0  0  0  0
 23 27  1  6  0  0  0
 23  1  1  0  0  0  0
 25 26  2  0  0  0  0
 26 23  1  0  0  0  0
 26 24  1  0  0  0  0
 29 35  1  0  0  0  0
 29 32  2  0  0  0  0
 30 29  1  0  0  0  0
 31 34  1  0  0  0  0
 32 33  1  0  0  0  0
 33 28  1  0  0  0  0
 34 28  2  0  0  0  0
 34 27  1  0  0  0  0
 35 31  2  0  0  0  0
M  END
>  <MODEL>
9

>  <REMARK>
 VINA RESULT:      -7.0      2.528      5.929
  Name = 
  10 active torsions:
  status: ('A' for Active; 'I' for Inactive)
    1  A    between atoms: C_2  and  O_19
    2  A    between atoms: C_7  and  C_17
    3  A    between atoms: C_7  and  N_29
    4  A    between atoms: C_8  and  C_15
    5  A    between atoms: C_11  and  C_18
    6  A    between atoms: C_11  and  C_22
    7  A    between atoms: C_11  and  N_29
    8  A    between atoms: C_17  and  O_19
    9  A    between atoms: C_18  and  C_33
   10  A    between atoms: C_26  and  N_29
                            x       y       z     vdW  Elec       q    Type
                         _______ _______ _______ _____ _____    ______ ____

>  <TORSDO>
F 10

$$$$
