=
 OpenBabel10222418093D

 25 28  0  0  1  0  0  0  0  0999 V2000
  185.6700  179.0220  146.3410 C   0  0  0  0  0  3  0  0  0  0  0  0
  184.8500  178.8790  145.2020 C   0  0  0  0  0  0  0  0  0  0  0  0
  188.5470  177.2270  145.1180 C   0  0  1  0  0  3  0  0  0  0  0  0
  185.3310  178.1690  144.0820 C   0  0  0  0  0  0  0  0  0  0  0  0
  187.3720  177.7960  145.2840 C   0  0  0  0  0  0  0  0  0  0  0  0
  189.6200  177.1790  146.1050 C   0  0  0  0  0  3  0  0  0  0  0  0
  189.6390  177.1360  142.9510 N   0  0  0  0  0  0  0  0  0  0  0  0
  184.4950  178.0010  142.8570 C   0  0  0  0  0  1  0  0  0  0  0  0
  190.8940  176.9070  145.8250 C   0  0  0  0  0  3  0  0  0  0  0  0
  186.6170  177.6300  144.1600 C   0  0  0  0  0  0  0  0  0  0  0  0
  183.5790  179.4400  145.1960 O   0  0  0  0  0  1  0  0  0  0  0  0
  188.5490  176.5860  143.7670 C   0  0  2  0  0  3  0  0  0  0  0  0
  186.9230  178.4790  146.3680 N   0  0  0  0  0  0  0  0  0  0  0  0
  191.5200  176.6920  144.5040 C   0  0  0  0  0  3  0  0  0  0  0  0
  187.2250  176.9570  143.2420 N   0  0  0  0  0  2  0  0  0  0  0  0
  191.0000  176.8170  143.2750 C   0  0  0  0  0  3  0  0  0  0  0  0
  189.4070  177.6110  141.6140 C   0  0  0  0  0  0  0  0  0  0  0  0
  188.9020  178.5190  139.0350 C   0  0  0  0  0  3  0  0  0  0  0  0
  189.8460  177.5100  139.2310 C   0  0  0  0  0  0  0  0  0  0  0  0
  188.2360  179.0470  140.0960 N   0  0  0  0  0  0  0  0  0  0  0  0
  190.0970  177.0490  140.5290 C   0  0  0  0  0  0  0  0  0  0  0  0
  188.4640  178.6170  141.3650 C   0  0  0  0  0  3  0  0  0  0  0  0
  191.0170  176.0720  140.7420 F   0  0  0  0  0  0  0  0  0  0  0  0
  191.1050  176.5160  137.1910 N   0  0  0  0  0  0  0  0  0  0  0  0
  190.5430  176.9590  138.1010 C   0  0  0  0  0  0  0  0  0  0  0  0
  1 13  1  0  0  0  0
  2  1  2  0  0  0  0
  3  5  1  0  0  0  0
  3  6  1  1  0  0  0
  4 10  2  0  0  0  0
  4  2  1  0  0  0  0
  5 13  2  0  0  0  0
  7 16  1  0  0  0  0
  7 12  1  0  0  0  0
  8  4  1  0  0  0  0
  9  6  2  0  0  0  0
 10  5  1  0  0  0  0
 11  2  1  0  0  0  0
 12 15  1  6  0  0  0
 12  3  1  0  0  0  0
 14  9  1  0  0  0  0
 15 10  1  0  0  0  0
 16 14  2  0  0  0  0
 17  7  1  0  0  0  0
 18 19  2  0  0  0  0
 18 20  1  0  0  0  0
 19 21  1  0  0  0  0
 20 22  2  0  0  0  0
 21 23  1  0  0  0  0
 21 17  2  0  0  0  0
 22 17  1  0  0  0  0
 24 25  3  0  0  0  0
 25 19  1  0  0  0  0
M  END
>  <MODEL>
1

>  <REMARK>
 VINA RESULT:      -9.3      0.000      0.000
  Name = 
  2 active torsions:
  status: ('A' for Active; 'I' for Inactive)
    1  A    between atoms: C_4  and  N_10
    2  A    between atoms: C_13  and  C_20
                            x       y       z     vdW  Elec       q    Type
                         _______ _______ _______ _____ _____    ______ ____

>  <TORSDO>
F 2

$$$$
=
 OpenBabel10222418093D

 25 28  0  0  1  0  0  0  0  0999 V2000
  185.9590  179.1290  140.4520 C   0  0  0  0  0  3  0  0  0  0  0  0
  187.1050  178.4260  140.0240 C   0  0  0  0  0  0  0  0  0  0  0  0
  185.9640  178.0520  143.8920 C   0  0  1  0  0  3  0  0  0  0  0  0
  187.8090  177.6170  140.9400 C   0  0  0  0  0  0  0  0  0  0  0  0
  186.2130  178.2490  142.6150 C   0  0  0  0  0  0  0  0  0  0  0  0
  184.8480  178.6180  144.6420 C   0  0  0  0  0  3  0  0  0  0  0  0
  187.7390  177.7030  145.5110 N   0  0  0  0  0  0  0  0  0  0  0  0
  189.0280  176.8620  140.5270 C   0  0  0  0  0  1  0  0  0  0  0  0
  184.7890  178.6900  145.9710 C   0  0  0  0  0  3  0  0  0  0  0  0
  187.3260  177.5500  142.2490 C   0  0  0  0  0  0  0  0  0  0  0  0
  187.5270  178.5380  138.7050 O   0  0  0  0  0  1  0  0  0  0  0  0
  186.9890  177.0930  144.4070 C   0  0  2  0  0  3  0  0  0  0  0  0
  185.5280  179.0330  141.7440 N   0  0  0  0  0  0  0  0  0  0  0  0
  185.8240  178.3200  146.9600 C   0  0  0  0  0  3  0  0  0  0  0  0
  187.8330  176.8710  143.2220 N   0  0  0  0  0  2  0  0  0  0  0  0
  187.0920  177.9270  146.7720 C   0  0  0  0  0  3  0  0  0  0  0  0
  189.1770  177.6880  145.5390 C   0  0  0  0  0  0  0  0  0  0  0  0
  191.9570  177.6440  145.5350 C   0  0  0  0  0  3  0  0  0  0  0  0
  191.2630  176.9010  146.4920 C   0  0  0  0  0  0  0  0  0  0  0  0
  191.2770  178.3770  144.6150 N   0  0  0  0  0  0  0  0  0  0  0  0
  189.8630  176.9190  146.4910 C   0  0  0  0  0  0  0  0  0  0  0  0
  189.9180  178.4120  144.5950 C   0  0  0  0  0  3  0  0  0  0  0  0
  189.1690  176.2080  147.4180 F   0  0  0  0  0  0  0  0  0  0  0  0
  192.5820  175.5070  148.2390 N   0  0  0  0  0  0  0  0  0  0  0  0
  191.9940  176.1290  147.4600 C   0  0  0  0  0  0  0  0  0  0  0  0
  1 13  1  0  0  0  0
  2  1  2  0  0  0  0
  2  4  1  0  0  0  0
  3 12  1  0  0  0  0
  3  6  1  6  0  0  0
  4 10  2  0  0  0  0
  5  3  1  0  0  0  0
  6  9  2  0  0  0  0
  7 17  1  0  0  0  0
  7 16  1  0  0  0  0
  8  4  1  0  0  0  0
  9 14  1  0  0  0  0
 10  5  1  0  0  0  0
 10 15  1  0  0  0  0
 11  2  1  0  0  0  0
 12 15  1  6  0  0  0
 12  7  1  0  0  0  0
 13  5  2  0  0  0  0
 16 14  2  0  0  0  0
 17 21  1  0  0  0  0
 18 19  1  0  0  0  0
 19 25  1  0  0  0  0
 20 18  2  0  0  0  0
 21 19  2  0  0  0  0
 21 23  1  0  0  0  0
 22 20  1  0  0  0  0
 22 17  2  0  0  0  0
 25 24  3  0  0  0  0
M  END
>  <MODEL>
2

>  <REMARK>
 VINA RESULT:      -8.7      2.888      5.764
  Name = 
  2 active torsions:
  status: ('A' for Active; 'I' for Inactive)
    1  A    between atoms: C_4  and  N_10
    2  A    between atoms: C_13  and  C_20
                            x       y       z     vdW  Elec       q    Type
                         _______ _______ _______ _____ _____    ______ ____

>  <TORSDO>
F 2

$$$$
=
 OpenBabel10222418093D

 25 28  0  0  1  0  0  0  0  0999 V2000
  191.6750  177.6500  145.3040 C   0  0  0  0  0  3  0  0  0  0  0  0
  190.9080  177.2280  146.4110 C   0  0  0  0  0  0  0  0  0  0  0  0
  189.0990  177.4320  142.7930 C   0  0  1  0  0  3  0  0  0  0  0  0
  189.5520  176.8870  146.2280 C   0  0  0  0  0  0  0  0  0  0  0  0
  189.8100  177.3970  143.8990 C   0  0  0  0  0  0  0  0  0  0  0  0
  189.5920  177.8080  141.4720 C   0  0  0  0  0  3  0  0  0  0  0  0
  186.7350  177.9870  142.7990 N   0  0  0  0  0  0  0  0  0  0  0  0
  188.7060  176.4420  147.3750 C   0  0  0  0  0  1  0  0  0  0  0  0
  188.8160  178.1600  140.4480 C   0  0  0  0  0  3  0  0  0  0  0  0
  189.0270  176.9830  144.9380 C   0  0  0  0  0  0  0  0  0  0  0  0
  191.4970  177.1540  147.6670 O   0  0  0  0  0  1  0  0  0  0  0  0
  187.7230  176.9520  143.1270 C   0  0  2  0  0  3  0  0  0  0  0  0
  191.1160  177.7300  144.0610 N   0  0  0  0  0  0  0  0  0  0  0  0
  187.3490  178.3380  140.4220 C   0  0  0  0  0  3  0  0  0  0  0  0
  187.8170  176.7190  144.5780 N   0  0  0  0  0  2  0  0  0  0  0  0
  186.4600  178.2960  141.4250 C   0  0  0  0  0  3  0  0  0  0  0  0
  185.7320  178.3940  143.7450 C   0  0  0  0  0  0  0  0  0  0  0  0
  183.8140  179.1410  145.6150 C   0  0  0  0  0  3  0  0  0  0  0  0
  183.4080  178.7560  144.3360 C   0  0  0  0  0  0  0  0  0  0  0  0
  185.1340  179.1440  145.9400 N   0  0  0  0  0  0  0  0  0  0  0  0
  184.3730  178.3750  143.3960 C   0  0  0  0  0  0  0  0  0  0  0  0
  186.0890  178.7810  145.0440 C   0  0  0  0  0  3  0  0  0  0  0  0
  184.0000  178.0040  142.1430 F   0  0  0  0  0  0  0  0  0  0  0  0
  180.8830  178.7550  143.7370 N   0  0  0  0  0  0  0  0  0  0  0  0
  182.0090  178.7550  144.0040 C   0  0  0  0  0  0  0  0  0  0  0  0
  1  2  1  0  0  0  0
  2 11  1  0  0  0  0
  3  6  1  6  0  0  0
  3 12  1  0  0  0  0
  3  5  1  0  0  0  0
  4  2  2  0  0  0  0
  4  8  1  0  0  0  0
  5 13  1  0  0  0  0
  5 10  2  0  0  0  0
  7 12  1  0  0  0  0
  7 17  1  0  0  0  0
  9  6  2  0  0  0  0
 10  4  1  0  0  0  0
 12 15  1  1  0  0  0
 13  1  2  0  0  0  0
 14  9  1  0  0  0  0
 14 16  2  0  0  0  0
 15 10  1  0  0  0  0
 16  7  1  0  0  0  0
 17 22  1  0  0  0  0
 18 20  1  0  0  0  0
 19 18  2  0  0  0  0
 21 17  2  0  0  0  0
 21 19  1  0  0  0  0
 22 20  2  0  0  0  0
 23 21  1  0  0  0  0
 24 25  3  0  0  0  0
 25 19  1  0  0  0  0
M  END
>  <MODEL>
3

>  <REMARK>
 VINA RESULT:      -8.1      3.030      6.248
  Name = 
  2 active torsions:
  status: ('A' for Active; 'I' for Inactive)
    1  A    between atoms: C_4  and  N_10
    2  A    between atoms: C_13  and  C_20
                            x       y       z     vdW  Elec       q    Type
                         _______ _______ _______ _____ _____    ______ ____

>  <TORSDO>
F 2

$$$$
=
 OpenBabel10222418093D

 25 28  0  0  1  0  0  0  0  0999 V2000
  188.7630  176.7140  142.8990 C   0  0  0  0  0  3  0  0  0  0  0  0
  189.0590  177.0750  141.5680 C   0  0  0  0  0  0  0  0  0  0  0  0
  185.6490  178.5000  143.2240 C   0  0  1  0  0  3  0  0  0  0  0  0
  188.1750  177.9170  140.8620 C   0  0  0  0  0  0  0  0  0  0  0  0
  186.7880  177.9830  142.8170 C   0  0  0  0  0  0  0  0  0  0  0  0
  185.0620  178.3350  144.5500 C   0  0  0  0  0  3  0  0  0  0  0  0
  183.7810  178.8540  141.7130 N   0  0  0  0  0  0  0  0  0  0  0  0
  188.4510  178.3180  139.4500 C   0  0  0  0  0  1  0  0  0  0  0  0
  183.7830  178.5700  144.8450 C   0  0  0  0  0  3  0  0  0  0  0  0
  187.0310  178.3610  141.5280 C   0  0  0  0  0  0  0  0  0  0  0  0
  190.2170  176.5980  140.9680 O   0  0  0  0  0  1  0  0  0  0  0  0
  185.1100  179.3370  142.1090 C   0  0  2  0  0  3  0  0  0  0  0  0
  187.6290  177.1710  143.5070 N   0  0  0  0  0  0  0  0  0  0  0  0
  182.6820  178.9460  143.9340 C   0  0  0  0  0  3  0  0  0  0  0  0
  186.1110  179.1290  141.0500 N   0  0  0  0  0  2  0  0  0  0  0  0
  182.6660  179.0400  142.5970 C   0  0  0  0  0  3  0  0  0  0  0  0
  183.4550  178.6020  140.3360 C   0  0  0  0  0  0  0  0  0  0  0  0
  182.7820  178.1570  137.6750 C   0  0  0  0  0  3  0  0  0  0  0  0
  182.7890  177.0830  138.5660 C   0  0  0  0  0  0  0  0  0  0  0  0
  183.0970  179.4060  138.1080 N   0  0  0  0  0  0  0  0  0  0  0  0
  183.1230  177.3070  139.9080 C   0  0  0  0  0  0  0  0  0  0  0  0
  183.4270  179.6480  139.4040 C   0  0  0  0  0  3  0  0  0  0  0  0
  183.1430  176.2740  140.7900 F   0  0  0  0  0  0  0  0  0  0  0  0
  182.1840  174.7060  137.7190 N   0  0  0  0  0  0  0  0  0  0  0  0
  182.4540  175.7660  138.0970 C   0  0  0  0  0  0  0  0  0  0  0  0
  1 13  1  0  0  0  0
  2  1  2  0  0  0  0
  3  6  1  1  0  0  0
  4 10  2  0  0  0  0
  4  2  1  0  0  0  0
  5  3  1  0  0  0  0
  5 13  2  0  0  0  0
  6  9  2  0  0  0  0
  7 12  1  0  0  0  0
  7 16  1  0  0  0  0
  8  4  1  0  0  0  0
 10  5  1  0  0  0  0
 11  2  1  0  0  0  0
 12 15  1  6  0  0  0
 12  3  1  0  0  0  0
 14  9  1  0  0  0  0
 15 10  1  0  0  0  0
 16 14  2  0  0  0  0
 17  7  1  0  0  0  0
 18 20  2  0  0  0  0
 18 19  1  0  0  0  0
 19 21  2  0  0  0  0
 20 22  1  0  0  0  0
 21 17  1  0  0  0  0
 21 23  1  0  0  0  0
 22 17  2  0  0  0  0
 24 25  3  0  0  0  0
 25 19  1  0  0  0  0
M  END
>  <MODEL>
4

>  <REMARK>
 VINA RESULT:      -7.9      3.936      6.240
  Name = 
  2 active torsions:
  status: ('A' for Active; 'I' for Inactive)
    1  A    between atoms: C_4  and  N_10
    2  A    between atoms: C_13  and  C_20
                            x       y       z     vdW  Elec       q    Type
                         _______ _______ _______ _____ _____    ______ ____

>  <TORSDO>
F 2

$$$$
=
 OpenBabel10222418093D

 25 28  0  0  1  0  0  0  0  0999 V2000
  188.7100  177.3780  142.2210 C   0  0  0  0  0  3  0  0  0  0  0  0
  188.7970  177.5430  140.8220 C   0  0  0  0  0  0  0  0  0  0  0  0
  185.4200  178.7720  142.6890 C   0  0  1  0  0  3  0  0  0  0  0  0
  187.7230  178.1300  140.1220 C   0  0  0  0  0  0  0  0  0  0  0  0
  186.5700  178.3460  142.2140 C   0  0  0  0  0  0  0  0  0  0  0  0
  185.0160  178.7590  144.0910 C   0  0  0  0  0  3  0  0  0  0  0  0
  183.3620  178.6160  141.4080 N   0  0  0  0  0  0  0  0  0  0  0  0
  187.7750  178.3170  138.6420 C   0  0  0  0  0  1  0  0  0  0  0  0
  183.7590  178.8720  144.5170 C   0  0  0  0  0  3  0  0  0  0  0  0
  186.6070  178.5280  140.8620 C   0  0  0  0  0  0  0  0  0  0  0  0
  189.9400  177.1260  140.1510 O   0  0  0  0  0  1  0  0  0  0  0  0
  184.6390  179.3290  141.5420 C   0  0  2  0  0  3  0  0  0  0  0  0
  187.5960  177.7800  142.9000 N   0  0  0  0  0  0  0  0  0  0  0  0
  182.5180  178.9400  143.7170 C   0  0  0  0  0  3  0  0  0  0  0  0
  185.5340  179.0760  140.4010 N   0  0  0  0  0  2  0  0  0  0  0  0
  182.3380  178.8020  142.3960 C   0  0  0  0  0  3  0  0  0  0  0  0
  182.9250  178.0930  140.1420 C   0  0  0  0  0  0  0  0  0  0  0  0
  182.1320  177.0560  137.6870 C   0  0  0  0  0  3  0  0  0  0  0  0
  181.9680  178.4200  137.9380 C   0  0  0  0  0  0  0  0  0  0  0  0
  182.6780  176.2490  138.6340 N   0  0  0  0  0  0  0  0  0  0  0  0
  182.3720  178.9430  139.1730 C   0  0  0  0  0  0  0  0  0  0  0  0
  183.0750  176.7320  139.8400 C   0  0  0  0  0  3  0  0  0  0  0  0
  182.2140  180.2660  139.4400 F   0  0  0  0  0  0  0  0  0  0  0  0
  180.9260  179.9450  136.1150 N   0  0  0  0  0  0  0  0  0  0  0  0
  181.3900  179.2650  136.9280 C   0  0  0  0  0  0  0  0  0  0  0  0
  1 13  1  0  0  0  0
  2  1  2  0  0  0  0
  3  6  1  1  0  0  0
  4  2  1  0  0  0  0
  4 10  2  0  0  0  0
  5  3  1  0  0  0  0
  5 13  2  0  0  0  0
  6  9  2  0  0  0  0
  7 12  1  0  0  0  0
  7 16  1  0  0  0  0
  8  4  1  0  0  0  0
 10  5  1  0  0  0  0
 11  2  1  0  0  0  0
 12 15  1  6  0  0  0
 12  3  1  0  0  0  0
 14  9  1  0  0  0  0
 15 10  1  0  0  0  0
 16 14  2  0  0  0  0
 17  7  1  0  0  0  0
 18 19  2  0  0  0  0
 18 20  1  0  0  0  0
 19 21  1  0  0  0  0
 20 22  2  0  0  0  0
 21 23  1  0  0  0  0
 21 17  2  0  0  0  0
 22 17  1  0  0  0  0
 24 25  3  0  0  0  0
 25 19  1  0  0  0  0
M  END
>  <MODEL>
5

>  <REMARK>
 VINA RESULT:      -7.8      4.437      6.873
  Name = 
  2 active torsions:
  status: ('A' for Active; 'I' for Inactive)
    1  A    between atoms: C_4  and  N_10
    2  A    between atoms: C_13  and  C_20
                            x       y       z     vdW  Elec       q    Type
                         _______ _______ _______ _____ _____    ______ ____

>  <TORSDO>
F 2

$$$$
=
 OpenBabel10222418093D

 25 28  0  0  1  0  0  0  0  0999 V2000
  189.5090  178.1420  146.4570 C   0  0  0  0  0  3  0  0  0  0  0  0
  188.1220  177.8840  146.4450 C   0  0  0  0  0  0  0  0  0  0  0  0
  190.2190  177.2250  143.0440 C   0  0  1  0  0  3  0  0  0  0  0  0
  187.5120  177.4040  145.2680 C   0  0  0  0  0  0  0  0  0  0  0  0
  189.6650  177.4660  144.2120 C   0  0  0  0  0  0  0  0  0  0  0  0
  191.6350  177.3740  142.7230 C   0  0  0  0  0  3  0  0  0  0  0  0
  189.0280  177.5750  140.9570 N   0  0  0  0  0  0  0  0  0  0  0  0
  186.0470  177.1240  145.2140 C   0  0  0  0  0  1  0  0  0  0  0  0
  192.1250  177.4540  141.4870 C   0  0  0  0  0  3  0  0  0  0  0  0
  188.3280  177.2010  144.1520 C   0  0  0  0  0  0  0  0  0  0  0  0
  187.3720  178.1060  147.5940 O   0  0  0  0  0  1  0  0  0  0  0  0
  189.1490  176.7090  142.1370 C   0  0  2  0  0  3  0  0  0  0  0  0
  190.2640  177.9310  145.3390 N   0  0  0  0  0  0  0  0  0  0  0  0
  191.3900  177.5030  140.2060 C   0  0  0  0  0  3  0  0  0  0  0  0
  187.9540  176.7730  142.9940 N   0  0  0  0  0  2  0  0  0  0  0  0
  190.0720  177.5840  139.9730 C   0  0  0  0  0  3  0  0  0  0  0  0
  187.7520  178.0750  140.5220 C   0  0  0  0  0  0  0  0  0  0  0  0
  185.2610  179.0240  139.7320 C   0  0  0  0  0  3  0  0  0  0  0  0
  185.9690  178.1740  138.8810 C   0  0  0  0  0  0  0  0  0  0  0  0
  185.7850  179.3780  140.9350 N   0  0  0  0  0  0  0  0  0  0  0  0
  187.2220  177.6920  139.2810 C   0  0  0  0  0  0  0  0  0  0  0  0
  186.9990  178.9250  141.3440 C   0  0  0  0  0  3  0  0  0  0  0  0
  187.9310  176.8690  138.4650 F   0  0  0  0  0  0  0  0  0  0  0  0
  184.9500  177.5080  136.5900 N   0  0  0  0  0  0  0  0  0  0  0  0
  185.4040  177.8050  137.6120 C   0  0  0  0  0  0  0  0  0  0  0  0
  2  1  1  0  0  0  0
  2 11  1  0  0  0  0
  3  6  1  1  0  0  0
  3  5  1  0  0  0  0
  4  2  2  0  0  0  0
  5 13  1  0  0  0  0
  7 12  1  0  0  0  0
  8  4  1  0  0  0  0
  9  6  2  0  0  0  0
 10  5  2  0  0  0  0
 10  4  1  0  0  0  0
 12 15  1  1  0  0  0
 12  3  1  0  0  0  0
 13  1  2  0  0  0  0
 14  9  1  0  0  0  0
 15 10  1  0  0  0  0
 16 14  2  0  0  0  0
 16  7  1  0  0  0  0
 17  7  1  0  0  0  0
 17 22  1  0  0  0  0
 18 20  1  0  0  0  0
 19 21  1  0  0  0  0
 19 18  2  0  0  0  0
 20 22  2  0  0  0  0
 21 17  2  0  0  0  0
 23 21  1  0  0  0  0
 24 25  3  0  0  0  0
 25 19  1  0  0  0  0
M  END
>  <MODEL>
6

>  <REMARK>
 VINA RESULT:      -7.4      2.372      3.500
  Name = 
  2 active torsions:
  status: ('A' for Active; 'I' for Inactive)
    1  A    between atoms: C_4  and  N_10
    2  A    between atoms: C_13  and  C_20
                            x       y       z     vdW  Elec       q    Type
                         _______ _______ _______ _____ _____    ______ ____

>  <TORSDO>
F 2

$$$$
=
 OpenBabel10222418093D

 25 28  0  0  1  0  0  0  0  0999 V2000
  186.1920  177.6300  137.9450 C   0  0  0  0  0  3  0  0  0  0  0  0
  185.2180  178.1840  138.8030 C   0  0  0  0  0  0  0  0  0  0  0  0
  189.0580  178.0690  140.0860 C   0  0  1  0  0  3  0  0  0  0  0  0
  185.6040  178.6810  140.0640 C   0  0  0  0  0  0  0  0  0  0  0  0
  187.8600  178.0570  139.5420 C   0  0  0  0  0  0  0  0  0  0  0  0
  190.2840  177.5870  139.4610 C   0  0  0  0  0  3  0  0  0  0  0  0
  189.3880  177.8080  142.4780 N   0  0  0  0  0  0  0  0  0  0  0  0
  184.6020  179.2700  141.0020 C   0  0  0  0  0  1  0  0  0  0  0  0
  191.4050  177.2940  140.1210 C   0  0  0  0  0  3  0  0  0  0  0  0
  186.9550  178.6030  140.4070 C   0  0  0  0  0  0  0  0  0  0  0  0
  183.8910  178.2320  138.3950 O   0  0  0  0  0  1  0  0  0  0  0  0
  188.9380  178.7260  141.4240 C   0  0  2  0  0  3  0  0  0  0  0  0
  187.5020  177.5720  138.3260 N   0  0  0  0  0  0  0  0  0  0  0  0
  191.6420  177.2960  141.5800 C   0  0  0  0  0  3  0  0  0  0  0  0
  187.4940  178.9990  141.5100 N   0  0  0  0  0  2  0  0  0  0  0  0
  190.7820  177.4850  142.5900 C   0  0  0  0  0  3  0  0  0  0  0  0
  188.5910  177.5640  143.6490 C   0  0  0  0  0  0  0  0  0  0  0  0
  187.0050  177.1200  145.8900 C   0  0  0  0  0  3  0  0  0  0  0  0
  188.2720  177.6840  146.0500 C   0  0  0  0  0  0  0  0  0  0  0  0
  186.5540  176.7970  144.6490 N   0  0  0  0  0  0  0  0  0  0  0  0
  189.0690  177.9120  144.9220 C   0  0  0  0  0  0  0  0  0  0  0  0
  187.3100  177.0060  143.5390 C   0  0  0  0  0  3  0  0  0  0  0  0
  190.3080  178.4530  145.0570 F   0  0  0  0  0  0  0  0  0  0  0  0
  189.1140  178.2940  148.4280 N   0  0  0  0  0  0  0  0  0  0  0  0
  188.7390  178.0220  147.3680 C   0  0  0  0  0  0  0  0  0  0  0  0
  1 13  2  0  0  0  0
  1  2  1  0  0  0  0
  2  4  2  0  0  0  0
  3  6  1  6  0  0  0
  3 12  1  0  0  0  0
  4 10  1  0  0  0  0
  4  8  1  0  0  0  0
  5  3  1  0  0  0  0
  5 10  2  0  0  0  0
  6  9  2  0  0  0  0
  7 16  1  0  0  0  0
  7 17  1  0  0  0  0
  9 14  1  0  0  0  0
 10 15  1  0  0  0  0
 11  2  1  0  0  0  0
 12 15  1  1  0  0  0
 12  7  1  0  0  0  0
 13  5  1  0  0  0  0
 14 16  2  0  0  0  0
 17 21  1  0  0  0  0
 18 19  1  0  0  0  0
 19 25  1  0  0  0  0
 20 18  2  0  0  0  0
 21 23  1  0  0  0  0
 21 19  2  0  0  0  0
 22 17  2  0  0  0  0
 22 20  1  0  0  0  0
 25 24  3  0  0  0  0
M  END
>  <MODEL>
7

>  <REMARK>
 VINA RESULT:      -7.4      2.466      5.807
  Name = 
  2 active torsions:
  status: ('A' for Active; 'I' for Inactive)
    1  A    between atoms: C_4  and  N_10
    2  A    between atoms: C_13  and  C_20
                            x       y       z     vdW  Elec       q    Type
                         _______ _______ _______ _____ _____    ______ ____

>  <TORSDO>
F 2

$$$$
=
 OpenBabel10222418093D

 25 28  0  0  1  0  0  0  0  0999 V2000
  181.8010  178.1750  140.8750 C   0  0  0  0  0  3  0  0  0  0  0  0
  181.8220  178.5600  142.2320 C   0  0  0  0  0  0  0  0  0  0  0  0
  185.2990  178.6660  140.1600 C   0  0  1  0  0  3  0  0  0  0  0  0
  183.0350  178.9720  142.8210 C   0  0  0  0  0  0  0  0  0  0  0  0
  184.1050  178.5990  140.7080 C   0  0  0  0  0  0  0  0  0  0  0  0
  185.6210  178.3530  138.7720 C   0  0  0  0  0  3  0  0  0  0  0  0
  187.3230  178.2180  141.4250 N   0  0  0  0  0  0  0  0  0  0  0  0
  183.0980  179.3820  144.2550 C   0  0  0  0  0  1  0  0  0  0  0  0
  186.8490  178.1010  138.3190 C   0  0  0  0  0  3  0  0  0  0  0  0
  184.1750  178.9820  142.0160 C   0  0  0  0  0  0  0  0  0  0  0  0
  180.6460  178.5280  142.9730 O   0  0  0  0  0  1  0  0  0  0  0  0
  186.2420  179.1850  141.1980 C   0  0  2  0  0  3  0  0  0  0  0  0
  182.9440  178.1980  140.1290 N   0  0  0  0  0  0  0  0  0  0  0  0
  188.1090  177.9910  139.0850 C   0  0  0  0  0  3  0  0  0  0  0  0
  185.3670  179.3220  142.3740 N   0  0  0  0  0  2  0  0  0  0  0  0
  188.3140  178.0100  140.4090 C   0  0  0  0  0  3  0  0  0  0  0  0
  187.6870  177.7980  142.7520 C   0  0  0  0  0  0  0  0  0  0  0  0
  188.3480  177.0210  145.3380 C   0  0  0  0  0  3  0  0  0  0  0  0
  189.3480  177.5070  144.4940 C   0  0  0  0  0  0  0  0  0  0  0  0
  187.0650  176.9350  144.8980 N   0  0  0  0  0  0  0  0  0  0  0  0
  189.0150  177.9030  143.1930 C   0  0  0  0  0  0  0  0  0  0  0  0
  186.7170  177.3110  143.6390 C   0  0  0  0  0  3  0  0  0  0  0  0
  189.9740  178.3720  142.3530 F   0  0  0  0  0  0  0  0  0  0  0  0
  191.7910  177.6650  145.3550 N   0  0  0  0  0  0  0  0  0  0  0  0
  190.7010  177.5950  144.9710 C   0  0  0  0  0  0  0  0  0  0  0  0
  1  2  1  0  0  0  0
  2  4  2  0  0  0  0
  2 11  1  0  0  0  0
  3  6  1  6  0  0  0
  3  5  1  0  0  0  0
  3 12  1  0  0  0  0
  4  8  1  0  0  0  0
  5 10  2  0  0  0  0
  7 17  1  0  0  0  0
  9  6  2  0  0  0  0
  9 14  1  0  0  0  0
 10 15  1  0  0  0  0
 10  4  1  0  0  0  0
 12  7  1  0  0  0  0
 12 15  1  1  0  0  0
 13  5  1  0  0  0  0
 13  1  2  0  0  0  0
 14 16  2  0  0  0  0
 16  7  1  0  0  0  0
 17 21  2  0  0  0  0
 17 22  1  0  0  0  0
 19 25  1  0  0  0  0
 19 18  2  0  0  0  0
 20 18  1  0  0  0  0
 21 19  1  0  0  0  0
 22 20  2  0  0  0  0
 23 21  1  0  0  0  0
 25 24  3  0  0  0  0
M  END
>  <MODEL>
8

>  <REMARK>
 VINA RESULT:      -7.3      2.464      5.357
  Name = 
  2 active torsions:
  status: ('A' for Active; 'I' for Inactive)
    1  A    between atoms: C_4  and  N_10
    2  A    between atoms: C_13  and  C_20
                            x       y       z     vdW  Elec       q    Type
                         _______ _______ _______ _____ _____    ______ ____

>  <TORSDO>
F 2

$$$$
=
 OpenBabel10222418093D

 25 28  0  0  1  0  0  0  0  0999 V2000
  190.6070  175.9990  137.9050 C   0  0  0  0  0  3  0  0  0  0  0  0
  189.8960  176.9800  137.1820 C   0  0  0  0  0  0  0  0  0  0  0  0
  189.7490  177.1010  141.2270 C   0  0  1  0  0  3  0  0  0  0  0  0
  189.1680  177.9660  137.8780 C   0  0  0  0  0  0  0  0  0  0  0  0
  189.8930  176.9550  139.9280 C   0  0  0  0  0  0  0  0  0  0  0  0
  190.3630  176.2670  142.2540 C   0  0  0  0  0  3  0  0  0  0  0  0
  187.6960  177.9520  142.2070 N   0  0  0  0  0  0  0  0  0  0  0  0
  188.3980  179.0180  137.1490 C   0  0  0  0  0  1  0  0  0  0  0  0
  189.9570  176.2070  143.5220 C   0  0  0  0  0  3  0  0  0  0  0  0
  189.1910  177.9250  139.2730 C   0  0  0  0  0  0  0  0  0  0  0  0
  189.9200  176.9620  135.7930 O   0  0  0  0  0  1  0  0  0  0  0  0
  188.9020  178.3130  141.4520 C   0  0  2  0  0  3  0  0  0  0  0  0
  190.5960  175.9980  139.2700 N   0  0  0  0  0  0  0  0  0  0  0  0
  188.7900  176.8640  144.1480 C   0  0  0  0  0  3  0  0  0  0  0  0
  188.5880  178.7340  140.0770 N   0  0  0  0  0  2  0  0  0  0  0  0
  187.8070  177.5840  143.5890 C   0  0  0  0  0  3  0  0  0  0  0  0
  186.3880  178.3590  141.7690 C   0  0  0  0  0  0  0  0  0  0  0  0
  183.8820  179.1960  140.9030 C   0  0  0  0  0  3  0  0  0  0  0  0
  184.0460  178.7890  142.2280 C   0  0  0  0  0  0  0  0  0  0  0  0
  184.9400  179.1850  140.0500 N   0  0  0  0  0  0  0  0  0  0  0  0
  185.3090  178.3720  142.6660 C   0  0  0  0  0  0  0  0  0  0  0  0
  186.1750  178.7830  140.4510 C   0  0  0  0  0  3  0  0  0  0  0  0
  185.4880  177.9650  143.9500 F   0  0  0  0  0  0  0  0  0  0  0  0
  182.0140  178.8170  143.8420 N   0  0  0  0  0  0  0  0  0  0  0  0
  182.9200  178.8050  143.1220 C   0  0  0  0  0  0  0  0  0  0  0  0
  1 13  1  0  0  0  0
  2  4  1  0  0  0  0
  2  1  2  0  0  0  0
  3 12  1  0  0  0  0
  3  6  1  1  0  0  0
  4 10  2  0  0  0  0
  5  3  1  0  0  0  0
  6  9  2  0  0  0  0
  7 16  1  0  0  0  0
  8  4  1  0  0  0  0
  9 14  1  0  0  0  0
 10  5  1  0  0  0  0
 10 15  1  0  0  0  0
 11  2  1  0  0  0  0
 12 15  1  6  0  0  0
 12  7  1  0  0  0  0
 13  5  2  0  0  0  0
 16 14  2  0  0  0  0
 17  7  1  0  0  0  0
 17 21  1  0  0  0  0
 18 19  1  0  0  0  0
 19 21  2  0  0  0  0
 19 25  1  0  0  0  0
 20 22  1  0  0  0  0
 20 18  2  0  0  0  0
 21 23  1  0  0  0  0
 22 17  2  0  0  0  0
 25 24  3  0  0  0  0
M  END
>  <MODEL>
9

>  <REMARK>
 VINA RESULT:      -7.1      3.252      6.482
  Name = 
  2 active torsions:
  status: ('A' for Active; 'I' for Inactive)
    1  A    between atoms: C_4  and  N_10
    2  A    between atoms: C_13  and  C_20
                            x       y       z     vdW  Elec       q    Type
                         _______ _______ _______ _____ _____    ______ ____

>  <TORSDO>
F 2

$$$$
