=
 OpenBabel10222415143D

 34 36  0  0  1  0  0  0  0  0999 V2000
  190.2180  176.7660  139.0330 N   0  0  0  0  0  0  0  0  0  0  0  0
  189.9390  177.3430  141.4730 C   0  0  0  0  0  0  0  0  0  0  0  0
  190.1780  177.0590  143.7000 C   0  0  1  0  0  3  0  0  0  0  0  0
  193.2340  177.3310  139.9270 C   0  0  0  0  0  1  0  0  0  0  0  0
  192.0150  177.5860  142.0980 N   0  0  0  0  0  0  0  0  0  0  0  0
  190.6820  177.2200  140.3250 C   0  0  0  0  0  0  0  0  0  0  0  0
  188.8980  176.4910  143.2430 N   0  0  0  0  0  0  0  0  0  0  0  0
  190.7510  177.6030  142.4850 N   0  0  0  0  0  0  0  0  0  0  0  0
  188.7750  176.6360  141.9520 C   0  0  0  0  0  3  0  0  0  0  0  0
  191.9970  177.4200  140.7550 C   0  0  0  0  0  0  0  0  0  0  0  0
  189.9200  178.1740  144.6950 C   0  0  0  0  0  1  0  0  0  0  0  0
  190.2700  175.4340  138.7340 O   0  0  0  0  0  0  0  0  0  0  0  0
  192.4640  174.1110  135.4030 C   0  0  0  0  0  3  0  0  0  0  0  0
  192.3840  174.8970  137.7470 C   0  0  0  0  0  2  0  0  0  0  0  0
  190.2600  174.2630  136.6580 C   0  0  1  0  0  3  0  0  0  0  0  0
  193.1070  174.5430  136.4840 C   0  0  0  0  0  3  0  0  0  0  0  0
  190.9640  174.0450  135.3150 C   0  0  0  0  0  2  0  0  0  0  0  0
  190.9410  175.3310  137.5020 C   0  0  1  0  0  3  0  0  0  0  0  0
  188.7450  174.5020  136.5410 C   0  0  1  0  0  3  0  0  0  0  0  0
  188.2540  174.9850  135.1730 C   0  0  0  0  0  2  0  0  0  0  0  0
  188.1360  176.4990  135.1380 C   0  0  0  0  0  1  0  0  0  0  0  0
  187.9980  173.2480  136.9650 C   0  0  0  0  0  2  0  0  0  0  0  0
  186.6790  173.3010  136.5060 O   0  0  0  0  0  0  0  0  0  0  0  0
  185.9220  172.9260  137.6120 C   0  0  0  0  0  2  0  0  0  0  0  0
  184.7960  174.9610  136.8070 C   0  0  0  0  0  1  0  0  0  0  0  0
  184.6190  173.6950  137.6060 C   0  0  0  0  0  2  0  0  0  0  0  0
  189.9160  177.7650  137.9980 C   0  0  0  0  0  2  0  0  0  0  0  0
  188.6740  178.6050  138.2950 C   0  0  1  0  0  3  0  0  0  0  0  0
  188.4190  179.4330  137.2010 O   0  0  0  0  0  1  0  0  0  0  0  0
  187.4550  177.7240  138.5590 C   0  0  0  0  0  2  0  0  0  0  0  0
  186.2290  178.2530  137.8140 C   0  0  0  0  0  2  0  0  0  0  0  0
  185.1070  178.5610  138.7500 C   0  0  0  0  0  0  0  0  0  0  0  0
  185.2590  179.4240  139.6530 O   0  0  0  0  0  1  0  0  0  0  0  0
  183.9080  177.8750  138.6450 O   0  0  0  0  0  0  0  0  0  0  0  0
  1  6  1  0  0  0  0
  2  9  1  0  0  0  0
  2  8  1  0  0  0  0
  3 11  1  1  0  0  0
  4 10  1  0  0  0  0
  5  8  1  0  0  0  0
  6 10  1  0  0  0  0
  6  2  2  0  0  0  0
  7  3  1  0  0  0  0
  8  3  1  0  0  0  0
  9  7  2  0  0  0  0
 10  5  2  0  0  0  0
 12  1  1  0  0  0  0
 13 16  2  0  0  0  0
 15 19  1  6  0  0  0
 15 18  1  0  0  0  0
 16 14  1  0  0  0  0
 17 13  1  0  0  0  0
 17 15  1  0  0  0  0
 18 14  1  0  0  0  0
 18 12  1  1  0  0  0
 19 20  1  6  0  0  0
 19 22  1  0  0  0  0
 21 20  1  0  0  0  0
 23 22  1  0  0  0  0
 23 24  1  0  0  0  0
 25 26  1  0  0  0  0
 26 24  1  0  0  0  0
 27 28  1  0  0  0  0
 27  1  1  0  0  0  0
 28 29  1  6  0  0  0
 28 30  1  0  0  0  0
 31 30  1  0  0  0  0
 31 32  1  0  0  0  0
 32 33  1  0  0  0  0
 34 32  2  0  0  0  0
M  END
>  <MODEL>
1

>  <REMARK>
 VINA RESULT:      -5.4      0.000      0.000
  Name = 
  14 active torsions:
  status: ('A' for Active; 'I' for Inactive)
    1  A    between atoms: C_3  and  C_14
    2  A    between atoms: C_3  and  C_31
    3  A    between atoms: C_5  and  C_9
    4  A    between atoms: C_5  and  C_19
    5  A    between atoms: C_5  and  C_34
    6  A    between atoms: N_7  and  O_13
    7  A    between atoms: N_7  and  C_14
    8  A    between atoms: N_7  and  C_21
    9  A    between atoms: O_10  and  C_16
   10  A    between atoms: O_10  and  C_34
   11  A    between atoms: O_13  and  C_29
   12  A    between atoms: C_15  and  C_18
   13  A    between atoms: C_16  and  C_24
   14  A    between atoms: C_18  and  C_31
                            x       y       z     vdW  Elec       q    Type
                         _______ _______ _______ _____ _____    ______ ____

>  <TORSDO>
F 14

$$$$
=
 OpenBabel10222415143D

 34 36  0  0  1  0  0  0  0  0999 V2000
  183.6950  178.2010  141.2520 N   0  0  0  0  0  0  0  0  0  0  0  0
  181.7330  177.1980  140.0220 C   0  0  0  0  0  0  0  0  0  0  0  0
  179.9090  175.8920  139.7650 C   0  0  1  0  0  3  0  0  0  0  0  0
  181.2150  179.3920  142.8790 C   0  0  0  0  0  1  0  0  0  0  0  0
  180.0590  177.9050  141.2300 N   0  0  0  0  0  0  0  0  0  0  0  0
  182.2880  178.0330  140.9590 C   0  0  0  0  0  0  0  0  0  0  0  0
  181.1150  175.1890  139.2980 N   0  0  0  0  0  0  0  0  0  0  0  0
  180.4200  177.1830  140.1820 N   0  0  0  0  0  0  0  0  0  0  0  0
  182.1700  175.9370  139.4710 C   0  0  0  0  0  3  0  0  0  0  0  0
  181.1880  178.4970  141.6860 C   0  0  0  0  0  0  0  0  0  0  0  0
  178.9380  176.0680  138.6140 C   0  0  0  0  0  1  0  0  0  0  0  0
  184.2780  177.4140  142.2030 O   0  0  0  0  0  0  0  0  0  0  0  0
  185.5930  179.1460  145.7990 C   0  0  0  0  0  3  0  0  0  0  0  0
  183.7560  178.3690  144.3360 C   0  0  0  0  0  2  0  0  0  0  0  0
  186.0670  177.7240  143.7480 C   0  0  1  0  0  3  0  0  0  0  0  0
  184.2910  179.0930  145.5330 C   0  0  0  0  0  3  0  0  0  0  0  0
  186.6410  178.5860  144.8760 C   0  0  0  0  0  2  0  0  0  0  0  0
  184.7650  178.2860  143.1940 C   0  0  1  0  0  3  0  0  0  0  0  0
  187.0740  177.3990  142.6320 C   0  0  1  0  0  3  0  0  0  0  0  0
  187.6640  178.6070  141.8990 C   0  0  0  0  0  2  0  0  0  0  0  0
  188.5350  178.1690  140.7350 C   0  0  0  0  0  1  0  0  0  0  0  0
  188.1820  176.5170  143.1870 C   0  0  0  0  0  2  0  0  0  0  0  0
  189.0900  177.2940  143.9110 O   0  0  0  0  0  0  0  0  0  0  0  0
  190.2710  176.5590  143.8680 C   0  0  0  0  0  2  0  0  0  0  0  0
  190.9780  178.9160  143.9220 C   0  0  0  0  0  1  0  0  0  0  0  0
  191.4370  177.5030  143.6680 C   0  0  0  0  0  2  0  0  0  0  0  0
  184.4030  179.3580  140.6840 C   0  0  0  0  0  2  0  0  0  0  0  0
  184.3800  179.4070  139.1560 C   0  0  1  0  0  3  0  0  0  0  0  0
  184.3750  180.7410  138.7490 O   0  0  0  0  0  1  0  0  0  0  0  0
  185.5930  178.6980  138.5580 C   0  0  0  0  0  2  0  0  0  0  0  0
  185.1620  177.4930  137.7220 C   0  0  0  0  0  2  0  0  0  0  0  0
  186.2440  177.0540  136.7910 C   0  0  0  0  0  0  0  0  0  0  0  0
  186.8600  177.9030  136.0950 O   0  0  0  0  0  0  0  0  0  0  0  0
  186.5510  175.7080  136.6700 O   0  0  0  0  0  1  0  0  0  0  0  0
  1 12  1  0  0  0  0
  2  8  1  0  0  0  0
  2  6  2  0  0  0  0
  3 11  1  6  0  0  0
  3  8  1  0  0  0  0
  5 10  2  0  0  0  0
  6  1  1  0  0  0  0
  6 10  1  0  0  0  0
  7  9  2  0  0  0  0
  7  3  1  0  0  0  0
  8  5  1  0  0  0  0
  9  2  1  0  0  0  0
 10  4  1  0  0  0  0
 14 16  1  0  0  0  0
 15 19  1  6  0  0  0
 15 17  1  0  0  0  0
 16 13  2  0  0  0  0
 17 13  1  0  0  0  0
 18 12  1  6  0  0  0
 18 15  1  0  0  0  0
 18 14  1  0  0  0  0
 19 20  1  1  0  0  0
 19 22  1  0  0  0  0
 21 20  1  0  0  0  0
 22 23  1  0  0  0  0
 24 23  1  0  0  0  0
 26 24  1  0  0  0  0
 26 25  1  0  0  0  0
 27  1  1  0  0  0  0
 28 29  1  1  0  0  0
 28 27  1  0  0  0  0
 30 28  1  0  0  0  0
 31 30  1  0  0  0  0
 32 31  1  0  0  0  0
 33 32  2  0  0  0  0
 34 32  1  0  0  0  0
M  END
>  <MODEL>
2

>  <REMARK>
 VINA RESULT:      -5.1      4.422      8.805
  Name = 
  14 active torsions:
  status: ('A' for Active; 'I' for Inactive)
    1  A    between atoms: C_3  and  C_14
    2  A    between atoms: C_3  and  C_31
    3  A    between atoms: C_5  and  C_9
    4  A    between atoms: C_5  and  C_19
    5  A    between atoms: C_5  and  C_34
    6  A    between atoms: N_7  and  O_13
    7  A    between atoms: N_7  and  C_14
    8  A    between atoms: N_7  and  C_21
    9  A    between atoms: O_10  and  C_16
   10  A    between atoms: O_10  and  C_34
   11  A    between atoms: O_13  and  C_29
   12  A    between atoms: C_15  and  C_18
   13  A    between atoms: C_16  and  C_24
   14  A    between atoms: C_18  and  C_31
                            x       y       z     vdW  Elec       q    Type
                         _______ _______ _______ _____ _____    ______ ____

>  <TORSDO>
F 14

$$$$
=
 OpenBabel10222415143D

 34 36  0  0  1  0  0  0  0  0999 V2000
  187.5200  178.2790  141.3380 N   0  0  0  0  0  0  0  0  0  0  0  0
  188.1040  177.5450  138.9950 C   0  0  0  0  0  0  0  0  0  0  0  0
  189.1420  177.6670  136.9940 C   0  0  1  0  0  3  0  0  0  0  0  0
  190.6180  177.5480  141.6270 C   0  0  0  0  0  1  0  0  0  0  0  0
  190.2480  177.1870  139.1780 N   0  0  0  0  0  0  0  0  0  0  0  0
  188.3900  177.7210  140.3260 C   0  0  0  0  0  0  0  0  0  0  0  0
  187.8180  178.3090  136.9270 N   0  0  0  0  0  0  0  0  0  0  0  0
  189.2080  177.1880  138.3610 N   0  0  0  0  0  0  0  0  0  0  0  0
  187.2320  178.2580  138.0920 C   0  0  0  0  0  3  0  0  0  0  0  0
  189.7590  177.4450  140.4120 C   0  0  0  0  0  0  0  0  0  0  0  0
  189.1960  176.4960  136.0320 C   0  0  0  0  0  1  0  0  0  0  0  0
  186.4240  178.9990  140.9540 O   0  0  0  0  0  0  0  0  0  0  0  0
  183.0670  179.0880  143.4800 C   0  0  0  0  0  3  0  0  0  0  0  0
  185.4150  179.7060  143.0070 C   0  0  0  0  0  2  0  0  0  0  0  0
  184.0600  178.7780  141.1620 C   0  0  1  0  0  3  0  0  0  0  0  0
  184.2240  179.5860  143.9070 C   0  0  0  0  0  3  0  0  0  0  0  0
  182.8840  178.5060  142.1050 C   0  0  0  0  0  2  0  0  0  0  0  0
  185.4050  178.6860  141.8710 C   0  0  1  0  0  3  0  0  0  0  0  0
  184.0340  177.9440  139.8700 C   0  0  1  0  0  3  0  0  0  0  0  0
  183.0260  176.7920  139.8440 C   0  0  0  0  0  2  0  0  0  0  0  0
  183.0040  176.1150  138.4860 C   0  0  0  0  0  1  0  0  0  0  0  0
  183.8270  178.8630  138.6760 C   0  0  0  0  0  2  0  0  0  0  0  0
  183.2040  180.0450  139.0880 O   0  0  0  0  0  0  0  0  0  0  0  0
  182.0180  180.0720  138.3610 C   0  0  0  0  0  2  0  0  0  0  0  0
  180.2170  181.1620  139.6370 C   0  0  0  0  0  1  0  0  0  0  0  0
  180.8550  179.8380  139.3000 C   0  0  0  0  0  2  0  0  0  0  0  0
  187.9560  178.2510  142.7410 C   0  0  0  0  0  2  0  0  0  0  0  0
  187.4020  177.0680  143.5360 C   0  0  1  0  0  3  0  0  0  0  0  0
  188.0380  175.9020  143.1090 O   0  0  0  0  0  1  0  0  0  0  0  0
  187.6290  177.2480  145.0360 C   0  0  0  0  0  2  0  0  0  0  0  0
  186.3010  177.4330  145.7690 C   0  0  0  0  0  2  0  0  0  0  0  0
  186.4390  178.3570  146.9330 C   0  0  0  0  0  0  0  0  0  0  0  0
  185.6540  179.3330  147.0590 O   0  0  0  0  0  0  0  0  0  0  0  0
  187.4510  178.1610  147.8590 O   0  0  0  0  0  1  0  0  0  0  0  0
  1 27  1  0  0  0  0
  2  6  2  0  0  0  0
  3 11  1  6  0  0  0
  3  8  1  0  0  0  0
  5 10  2  0  0  0  0
  6 10  1  0  0  0  0
  6  1  1  0  0  0  0
  7  3  1  0  0  0  0
  7  9  2  0  0  0  0
  8  2  1  0  0  0  0
  8  5  1  0  0  0  0
  9  2  1  0  0  0  0
 10  4  1  0  0  0  0
 12  1  1  0  0  0  0
 13 16  2  0  0  0  0
 14 16  1  0  0  0  0
 15 19  1  6  0  0  0
 15 18  1  0  0  0  0
 15 17  1  0  0  0  0
 17 13  1  0  0  0  0
 18 12  1  6  0  0  0
 18 14  1  0  0  0  0
 19 22  1  6  0  0  0
 20 19  1  0  0  0  0
 21 20  1  0  0  0  0
 22 23  1  0  0  0  0
 24 23  1  0  0  0  0
 24 26  1  0  0  0  0
 26 25  1  0  0  0  0
 27 28  1  0  0  0  0
 28 29  1  6  0  0  0
 28 30  1  0  0  0  0
 30 31  1  0  0  0  0
 31 32  1  0  0  0  0
 32 33  2  0  0  0  0
 32 34  1  0  0  0  0
M  END
>  <MODEL>
3

>  <REMARK>
 VINA RESULT:      -5.0      3.568      7.435
  Name = 
  14 active torsions:
  status: ('A' for Active; 'I' for Inactive)
    1  A    between atoms: C_3  and  C_14
    2  A    between atoms: C_3  and  C_31
    3  A    between atoms: C_5  and  C_9
    4  A    between atoms: C_5  and  C_19
    5  A    between atoms: C_5  and  C_34
    6  A    between atoms: N_7  and  O_13
    7  A    between atoms: N_7  and  C_14
    8  A    between atoms: N_7  and  C_21
    9  A    between atoms: O_10  and  C_16
   10  A    between atoms: O_10  and  C_34
   11  A    between atoms: O_13  and  C_29
   12  A    between atoms: C_15  and  C_18
   13  A    between atoms: C_16  and  C_24
   14  A    between atoms: C_18  and  C_31
                            x       y       z     vdW  Elec       q    Type
                         _______ _______ _______ _____ _____    ______ ____

>  <TORSDO>
F 14

$$$$
=
 OpenBabel10222415143D

 34 36  0  0  1  0  0  0  0  0999 V2000
  183.7900  178.1160  139.9600 N   0  0  0  0  0  0  0  0  0  0  0  0
  181.8380  179.6070  139.3800 C   0  0  0  0  0  0  0  0  0  0  0  0
  180.2080  180.4530  138.0670 C   0  0  1  0  0  3  0  0  0  0  0  0
  181.4280  175.9970  139.5850 C   0  0  0  0  0  1  0  0  0  0  0  0
  180.2740  178.1370  138.9900 N   0  0  0  0  0  0  0  0  0  0  0  0
  182.3960  178.3910  139.6900 C   0  0  0  0  0  0  0  0  0  0  0  0
  181.4230  181.2800  137.9760 N   0  0  0  0  0  0  0  0  0  0  0  0
  180.5790  179.4230  139.0170 N   0  0  0  0  0  0  0  0  0  0  0  0
  182.3700  180.7730  138.7170 C   0  0  0  0  0  3  0  0  0  0  0  0
  181.3570  177.4810  139.4680 C   0  0  0  0  0  0  0  0  0  0  0  0
  179.0640  181.2790  138.6210 C   0  0  0  0  0  1  0  0  0  0  0  0
  184.1320  177.4580  141.1060 O   0  0  0  0  0  0  0  0  0  0  0  0
  184.0490  179.5520  144.7480 C   0  0  0  0  0  3  0  0  0  0  0  0
  182.8670  178.5490  142.8210 C   0  0  0  0  0  2  0  0  0  0  0  0
  185.2540  177.9990  143.1390 C   0  0  1  0  0  3  0  0  0  0  0  0
  182.9260  179.4000  144.0530 C   0  0  0  0  0  3  0  0  0  0  0  0
  185.3700  178.9820  144.3070 C   0  0  0  0  0  2  0  0  0  0  0  0
  184.2150  178.4350  142.1140 C   0  0  1  0  0  3  0  0  0  0  0  0
  186.5980  177.6450  142.4800 C   0  0  1  0  0  3  0  0  0  0  0  0
  187.3600  178.8190  141.8590 C   0  0  0  0  0  2  0  0  0  0  0  0
  188.1160  178.3830  140.6160 C   0  0  0  0  0  1  0  0  0  0  0  0
  187.4740  176.9050  143.4780 C   0  0  0  0  0  2  0  0  0  0  0  0
  188.7410  177.4940  143.5260 O   0  0  0  0  0  0  0  0  0  0  0  0
  188.9980  177.6280  144.8870 C   0  0  0  0  0  2  0  0  0  0  0  0
  190.8540  178.9620  143.9720 C   0  0  0  0  0  1  0  0  0  0  0  0
  190.4450  178.0270  145.0820 C   0  0  0  0  0  2  0  0  0  0  0  0
  184.8130  178.7480  139.1130 C   0  0  0  0  0  2  0  0  0  0  0  0
  185.4010  177.8130  138.0560 C   0  0  1  0  0  3  0  0  0  0  0  0
  184.3730  177.3710  137.2240 O   0  0  0  0  0  1  0  0  0  0  0  0
  186.4640  178.5190  137.2170 C   0  0  0  0  0  2  0  0  0  0  0  0
  187.6480  177.5920  136.9450 C   0  0  0  0  0  2  0  0  0  0  0  0
  188.9520  178.2750  137.1960 C   0  0  0  0  0  0  0  0  0  0  0  0
  190.0130  177.6010  137.2630 O   0  0  0  0  0  0  0  0  0  0  0  0
  188.9910  179.6470  137.3850 O   0  0  0  0  0  1  0  0  0  0  0  0
  1 12  1  0  0  0  0
  2  6  2  0  0  0  0
  3 11  1  1  0  0  0
  3  8  1  0  0  0  0
  5  8  1  0  0  0  0
  5 10  2  0  0  0  0
  6  1  1  0  0  0  0
  7  3  1  0  0  0  0
  7  9  2  0  0  0  0
  8  2  1  0  0  0  0
  9  2  1  0  0  0  0
 10  4  1  0  0  0  0
 10  6  1  0  0  0  0
 14 16  1  0  0  0  0
 15 19  1  6  0  0  0
 15 17  1  0  0  0  0
 16 13  2  0  0  0  0
 17 13  1  0  0  0  0
 18 12  1  6  0  0  0
 18 14  1  0  0  0  0
 18 15  1  0  0  0  0
 19 20  1  1  0  0  0
 19 22  1  0  0  0  0
 21 20  1  0  0  0  0
 22 23  1  0  0  0  0
 23 24  1  0  0  0  0
 24 26  1  0  0  0  0
 25 26  1  0  0  0  0
 27  1  1  0  0  0  0
 28 29  1  6  0  0  0
 28 27  1  0  0  0  0
 30 28  1  0  0  0  0
 31 32  1  0  0  0  0
 31 30  1  0  0  0  0
 32 33  2  0  0  0  0
 32 34  1  0  0  0  0
M  END
>  <MODEL>
4

>  <REMARK>
 VINA RESULT:      -5.0      4.492      8.996
  Name = 
  14 active torsions:
  status: ('A' for Active; 'I' for Inactive)
    1  A    between atoms: C_3  and  C_14
    2  A    between atoms: C_3  and  C_31
    3  A    between atoms: C_5  and  C_9
    4  A    between atoms: C_5  and  C_19
    5  A    between atoms: C_5  and  C_34
    6  A    between atoms: N_7  and  O_13
    7  A    between atoms: N_7  and  C_14
    8  A    between atoms: N_7  and  C_21
    9  A    between atoms: O_10  and  C_16
   10  A    between atoms: O_10  and  C_34
   11  A    between atoms: O_13  and  C_29
   12  A    between atoms: C_15  and  C_18
   13  A    between atoms: C_16  and  C_24
   14  A    between atoms: C_18  and  C_31
                            x       y       z     vdW  Elec       q    Type
                         _______ _______ _______ _____ _____    ______ ____

>  <TORSDO>
F 14

$$$$
=
 OpenBabel10222415143D

 34 36  0  0  1  0  0  0  0  0999 V2000
  183.0660  178.1830  138.6000 N   0  0  0  0  0  0  0  0  0  0  0  0
  185.5750  178.3740  138.4020 C   0  0  0  0  0  0  0  0  0  0  0  0
  187.7150  177.6680  138.5430 C   0  0  1  0  0  3  0  0  0  0  0  0
  183.7120  176.0670  136.2930 C   0  0  0  0  0  1  0  0  0  0  0  0
  186.0110  176.8260  136.9280 N   0  0  0  0  0  0  0  0  0  0  0  0
  184.3510  177.9040  137.9950 C   0  0  0  0  0  0  0  0  0  0  0  0
  187.3240  178.3760  139.7740 N   0  0  0  0  0  0  0  0  0  0  0  0
  186.5230  177.7510  137.7220 N   0  0  0  0  0  0  0  0  0  0  0  0
  186.0800  178.7610  139.6980 C   0  0  0  0  0  3  0  0  0  0  0  0
  184.6660  176.9460  137.0270 C   0  0  0  0  0  0  0  0  0  0  0  0
  188.8590  178.4000  137.8700 C   0  0  0  0  0  1  0  0  0  0  0  0
  182.7300  177.5650  139.7700 O   0  0  0  0  0  0  0  0  0  0  0  0
  179.1410  175.4000  140.0620 C   0  0  0  0  0  3  0  0  0  0  0  0
  181.5070  175.5480  139.3590 C   0  0  0  0  0  2  0  0  0  0  0  0
  180.6250  177.3030  140.8560 C   0  0  1  0  0  3  0  0  0  0  0  0
  180.1630  174.8880  139.3830 C   0  0  0  0  0  3  0  0  0  0  0  0
  179.2080  176.7270  140.7670 C   0  0  0  0  0  2  0  0  0  0  0  0
  181.4320  177.0550  139.5890 C   0  0  1  0  0  3  0  0  0  0  0  0
  180.6760  178.7770  141.2920 C   0  0  1  0  0  3  0  0  0  0  0  0
  179.3550  179.5440  141.1930 C   0  0  0  0  0  2  0  0  0  0  0  0
  179.3330  180.7200  142.1520 C   0  0  0  0  0  1  0  0  0  0  0  0
  181.2460  178.8710  142.6990 C   0  0  0  0  0  2  0  0  0  0  0  0
  182.6350  179.0110  142.6410 O   0  0  0  0  0  0  0  0  0  0  0  0
  183.0070  179.2270  143.9650 C   0  0  0  0  0  2  0  0  0  0  0  0
  184.7530  178.8090  145.6490 C   0  0  0  0  0  1  0  0  0  0  0  0
  184.3440  178.5640  144.2190 C   0  0  0  0  0  2  0  0  0  0  0  0
  182.0720  178.9430  137.8290 C   0  0  0  0  0  2  0  0  0  0  0  0
  181.7650  180.3240  138.4100 C   0  0  1  0  0  3  0  0  0  0  0  0
  182.9660  180.9430  138.7580 O   0  0  0  0  0  1  0  0  0  0  0  0
  181.0170  181.1980  137.4050 C   0  0  0  0  0  2  0  0  0  0  0  0
  181.0300  182.6620  137.8420 C   0  0  0  0  0  2  0  0  0  0  0  0
  181.1790  183.5830  136.6760 C   0  0  0  0  0  0  0  0  0  0  0  0
  180.8600  183.1950  135.5220 O   0  0  0  0  0  0  0  0  0  0  0  0
  181.6980  184.8550  136.8580 O   0  0  0  0  0  1  0  0  0  0  0  0
  1 12  1  0  0  0  0
  2  9  1  0  0  0  0
  3 11  1  6  0  0  0
  3  7  1  0  0  0  0
  4 10  1  0  0  0  0
  5 10  2  0  0  0  0
  5  8  1  0  0  0  0
  6  2  2  0  0  0  0
  6  1  1  0  0  0  0
  8  2  1  0  0  0  0
  8  3  1  0  0  0  0
  9  7  2  0  0  0  0
 10  6  1  0  0  0  0
 13 17  1  0  0  0  0
 14 16  1  0  0  0  0
 14 18  1  0  0  0  0
 15 19  1  6  0  0  0
 16 13  2  0  0  0  0
 17 15  1  0  0  0  0
 18 12  1  1  0  0  0
 18 15  1  0  0  0  0
 19 20  1  1  0  0  0
 19 22  1  0  0  0  0
 20 21  1  0  0  0  0
 23 22  1  0  0  0  0
 23 24  1  0  0  0  0
 24 26  1  0  0  0  0
 26 25  1  0  0  0  0
 27 28  1  0  0  0  0
 27  1  1  0  0  0  0
 28 29  1  6  0  0  0
 30 31  1  0  0  0  0
 30 28  1  0  0  0  0
 32 34  1  0  0  0  0
 32 31  1  0  0  0  0
 33 32  2  0  0  0  0
M  END
>  <MODEL>
5

>  <REMARK>
 VINA RESULT:      -4.9      4.750      8.927
  Name = 
  14 active torsions:
  status: ('A' for Active; 'I' for Inactive)
    1  A    between atoms: C_3  and  C_14
    2  A    between atoms: C_3  and  C_31
    3  A    between atoms: C_5  and  C_9
    4  A    between atoms: C_5  and  C_19
    5  A    between atoms: C_5  and  C_34
    6  A    between atoms: N_7  and  O_13
    7  A    between atoms: N_7  and  C_14
    8  A    between atoms: N_7  and  C_21
    9  A    between atoms: O_10  and  C_16
   10  A    between atoms: O_10  and  C_34
   11  A    between atoms: O_13  and  C_29
   12  A    between atoms: C_15  and  C_18
   13  A    between atoms: C_16  and  C_24
   14  A    between atoms: C_18  and  C_31
                            x       y       z     vdW  Elec       q    Type
                         _______ _______ _______ _____ _____    ______ ____

>  <TORSDO>
F 14

$$$$
=
 OpenBabel10222415143D

 34 36  0  0  1  0  0  0  0  0999 V2000
  187.8650  177.5680  142.7880 N   0  0  0  0  0  0  0  0  0  0  0  0
  189.5020  176.9560  140.9670 C   0  0  0  0  0  0  0  0  0  0  0  0
  190.8990  177.3380  139.2350 C   0  0  1  0  0  3  0  0  0  0  0  0
  190.5370  179.0100  143.7880 C   0  0  0  0  0  1  0  0  0  0  0  0
  191.2760  178.0620  141.5920 N   0  0  0  0  0  0  0  0  0  0  0  0
  189.1770  177.5090  142.1810 C   0  0  0  0  0  0  0  0  0  0  0  0
  189.5570  176.9820  138.7450 N   0  0  0  0  0  0  0  0  0  0  0  0
  190.7550  177.2630  140.6760 N   0  0  0  0  0  0  0  0  0  0  0  0
  188.7470  176.7860  139.7490 C   0  0  0  0  0  3  0  0  0  0  0  0
  190.3450  178.1740  142.5680 C   0  0  0  0  0  0  0  0  0  0  0  0
  191.9090  176.3110  138.7620 C   0  0  0  0  0  1  0  0  0  0  0  0
  186.9790  178.5210  142.3720 O   0  0  0  0  0  0  0  0  0  0  0  0
  183.3920  179.0240  144.5020 C   0  0  0  0  0  3  0  0  0  0  0  0
  185.8540  179.2160  144.3680 C   0  0  0  0  0  2  0  0  0  0  0  0
  184.6080  178.7450  142.2890 C   0  0  1  0  0  3  0  0  0  0  0  0
  184.5540  179.2460  145.1100 C   0  0  0  0  0  3  0  0  0  0  0  0
  183.2880  178.6200  143.0570 C   0  0  0  0  0  2  0  0  0  0  0  0
  185.8080  178.3280  143.1270 C   0  0  1  0  0  3  0  0  0  0  0  0
  184.6010  178.0570  140.9130 C   0  0  1  0  0  3  0  0  0  0  0  0
  183.3230  177.2890  140.5630 C   0  0  0  0  0  2  0  0  0  0  0  0
  182.3780  178.1460  139.7410 C   0  0  0  0  0  1  0  0  0  0  0  0
  184.9250  179.0760  139.8330 C   0  0  0  0  0  2  0  0  0  0  0  0
  186.0120  178.6350  139.0740 O   0  0  0  0  0  0  0  0  0  0  0  0
  185.4270  178.0460  137.9570 C   0  0  0  0  0  2  0  0  0  0  0  0
  187.4100  178.9860  136.8420 C   0  0  0  0  0  1  0  0  0  0  0  0
  186.4930  177.7920  136.9140 C   0  0  0  0  0  2  0  0  0  0  0  0
  187.6000  176.7540  143.9830 C   0  0  0  0  0  2  0  0  0  0  0  0
  188.2220  177.3160  145.2620 C   0  0  1  0  0  3  0  0  0  0  0  0
  187.3120  177.1660  146.3080 O   0  0  0  0  0  1  0  0  0  0  0  0
  189.5220  176.5950  145.6130 C   0  0  0  0  0  2  0  0  0  0  0  0
  189.9590  176.9260  147.0400 C   0  0  0  0  0  2  0  0  0  0  0  0
  191.4130  176.6530  147.2470 C   0  0  0  0  0  0  0  0  0  0  0  0
  192.0510  175.9680  146.4050 O   0  0  0  0  0  0  0  0  0  0  0  0
  192.0530  177.1270  148.3810 O   0  0  0  0  0  1  0  0  0  0  0  0
  1 27  1  0  0  0  0
  2  6  2  0  0  0  0
  3 11  1  6  0  0  0
  3  8  1  0  0  0  0
  5 10  2  0  0  0  0
  6 10  1  0  0  0  0
  6  1  1  0  0  0  0
  7  3  1  0  0  0  0
  7  9  2  0  0  0  0
  8  2  1  0  0  0  0
  8  5  1  0  0  0  0
  9  2  1  0  0  0  0
 10  4  1  0  0  0  0
 12  1  1  0  0  0  0
 13 16  2  0  0  0  0
 14 16  1  0  0  0  0
 15 19  1  6  0  0  0
 15 17  1  0  0  0  0
 15 18  1  0  0  0  0
 17 13  1  0  0  0  0
 18 12  1  6  0  0  0
 18 14  1  0  0  0  0
 19 22  1  6  0  0  0
 20 19  1  0  0  0  0
 21 20  1  0  0  0  0
 23 22  1  0  0  0  0
 24 23  1  0  0  0  0
 25 26  1  0  0  0  0
 26 24  1  0  0  0  0
 27 28  1  0  0  0  0
 28 30  1  0  0  0  0
 28 29  1  1  0  0  0
 30 31  1  0  0  0  0
 31 32  1  0  0  0  0
 32 34  1  0  0  0  0
 33 32  2  0  0  0  0
M  END
>  <MODEL>
6

>  <REMARK>
 VINA RESULT:      -4.8      3.597      7.633
  Name = 
  14 active torsions:
  status: ('A' for Active; 'I' for Inactive)
    1  A    between atoms: C_3  and  C_14
    2  A    between atoms: C_3  and  C_31
    3  A    between atoms: C_5  and  C_9
    4  A    between atoms: C_5  and  C_19
    5  A    between atoms: C_5  and  C_34
    6  A    between atoms: N_7  and  O_13
    7  A    between atoms: N_7  and  C_14
    8  A    between atoms: N_7  and  C_21
    9  A    between atoms: O_10  and  C_16
   10  A    between atoms: O_10  and  C_34
   11  A    between atoms: O_13  and  C_29
   12  A    between atoms: C_15  and  C_18
   13  A    between atoms: C_16  and  C_24
   14  A    between atoms: C_18  and  C_31
                            x       y       z     vdW  Elec       q    Type
                         _______ _______ _______ _____ _____    ______ ____

>  <TORSDO>
F 14

$$$$
=
 OpenBabel10222415143D

 34 36  0  0  1  0  0  0  0  0999 V2000
  184.2450  178.3150  139.5910 N   0  0  0  0  0  0  0  0  0  0  0  0
  186.2770  178.1960  138.0990 C   0  0  0  0  0  0  0  0  0  0  0  0
  187.9730  177.1890  137.0010 C   0  0  1  0  0  3  0  0  0  0  0  0
  183.1430  176.6380  137.1040 C   0  0  0  0  0  1  0  0  0  0  0  0
  185.5480  176.9310  136.4780 N   0  0  0  0  0  0  0  0  0  0  0  0
  184.9470  177.9900  138.3690 C   0  0  0  0  0  0  0  0  0  0  0  0
  188.4300  177.6820  138.3120 N   0  0  0  0  0  0  0  0  0  0  0  0
  186.5830  177.5990  136.9590 N   0  0  0  0  0  0  0  0  0  0  0  0
  187.4400  178.2410  138.9530 C   0  0  0  0  0  3  0  0  0  0  0  0
  184.5050  177.2130  137.2930 C   0  0  0  0  0  0  0  0  0  0  0  0
  188.7480  177.8770  135.8940 C   0  0  0  0  0  1  0  0  0  0  0  0
  182.9000  178.0930  139.6690 O   0  0  0  0  0  0  0  0  0  0  0  0
  180.4200  181.4550  139.2180 C   0  0  0  0  0  3  0  0  0  0  0  0
  182.2430  180.0040  138.3860 C   0  0  0  0  0  2  0  0  0  0  0  0
  180.8670  179.1850  140.2670 C   0  0  1  0  0  3  0  0  0  0  0  0
  181.4140  181.2510  138.3580 C   0  0  0  0  0  3  0  0  0  0  0  0
  180.1130  180.5150  140.3520 C   0  0  0  0  0  2  0  0  0  0  0  0
  182.2950  179.3590  139.7680 C   0  0  1  0  0  3  0  0  0  0  0  0
  180.8060  178.3450  141.5550 C   0  0  1  0  0  3  0  0  0  0  0  0
  180.6270  179.1370  142.8530 C   0  0  0  0  0  2  0  0  0  0  0  0
  180.0680  178.2560  143.9570 C   0  0  0  0  0  1  0  0  0  0  0  0
  179.7250  177.2850  141.4200 C   0  0  0  0  0  2  0  0  0  0  0  0
  179.6690  176.8280  140.1000 O   0  0  0  0  0  0  0  0  0  0  0  0
  180.4030  175.6470  140.1210 C   0  0  0  0  0  2  0  0  0  0  0  0
  179.2750  173.7400  139.0470 C   0  0  0  0  0  1  0  0  0  0  0  0
  179.4630  174.4820  140.3450 C   0  0  0  0  0  2  0  0  0  0  0  0
  184.9500  179.0800  140.6290 C   0  0  0  0  0  2  0  0  0  0  0  0
  185.3210  178.2540  141.8610 C   0  0  1  0  0  3  0  0  0  0  0  0
  186.6650  178.4750  142.1630 O   0  0  0  0  0  1  0  0  0  0  0  0
  184.4620  178.6320  143.0660 C   0  0  0  0  0  2  0  0  0  0  0  0
  185.2060  178.3590  144.3720 C   0  0  0  0  0  2  0  0  0  0  0  0
  184.3900  178.7440  145.5620 C   0  0  0  0  0  0  0  0  0  0  0  0
  183.2130  179.1640  145.4080 O   0  0  0  0  0  0  0  0  0  0  0  0
  184.9360  178.6680  146.8330 O   0  0  0  0  0  1  0  0  0  0  0  0
  1 12  1  0  0  0  0
  1 27  1  0  0  0  0
  2  6  2  0  0  0  0
  2  9  1  0  0  0  0
  3 11  1  6  0  0  0
  3  7  1  0  0  0  0
  4 10  1  0  0  0  0
  5  8  1  0  0  0  0
  5 10  2  0  0  0  0
  6  1  1  0  0  0  0
  7  9  2  0  0  0  0
  8  3  1  0  0  0  0
  8  2  1  0  0  0  0
 10  6  1  0  0  0  0
 13 17  1  0  0  0  0
 14 18  1  0  0  0  0
 15 17  1  0  0  0  0
 15 19  1  1  0  0  0
 16 14  1  0  0  0  0
 16 13  2  0  0  0  0
 18 12  1  6  0  0  0
 18 15  1  0  0  0  0
 19 22  1  6  0  0  0
 19 20  1  0  0  0  0
 20 21  1  0  0  0  0
 23 24  1  0  0  0  0
 23 22  1  0  0  0  0
 24 26  1  0  0  0  0
 25 26  1  0  0  0  0
 27 28  1  0  0  0  0
 28 29  1  1  0  0  0
 28 30  1  0  0  0  0
 30 31  1  0  0  0  0
 31 32  1  0  0  0  0
 32 34  1  0  0  0  0
 33 32  2  0  0  0  0
M  END
>  <MODEL>
7

>  <REMARK>
 VINA RESULT:      -4.8      4.488      8.673
  Name = 
  14 active torsions:
  status: ('A' for Active; 'I' for Inactive)
    1  A    between atoms: C_3  and  C_14
    2  A    between atoms: C_3  and  C_31
    3  A    between atoms: C_5  and  C_9
    4  A    between atoms: C_5  and  C_19
    5  A    between atoms: C_5  and  C_34
    6  A    between atoms: N_7  and  O_13
    7  A    between atoms: N_7  and  C_14
    8  A    between atoms: N_7  and  C_21
    9  A    between atoms: O_10  and  C_16
   10  A    between atoms: O_10  and  C_34
   11  A    between atoms: O_13  and  C_29
   12  A    between atoms: C_15  and  C_18
   13  A    between atoms: C_16  and  C_24
   14  A    between atoms: C_18  and  C_31
                            x       y       z     vdW  Elec       q    Type
                         _______ _______ _______ _____ _____    ______ ____

>  <TORSDO>
F 14

$$$$
=
 OpenBabel10222415143D

 34 36  0  0  1  0  0  0  0  0999 V2000
  180.9320  178.3030  140.4450 N   0  0  0  0  0  0  0  0  0  0  0  0
  181.0540  180.3750  139.0090 C   0  0  0  0  0  0  0  0  0  0  0  0
  180.2580  181.9910  137.6490 C   0  0  1  0  0  3  0  0  0  0  0  0
  179.0940  180.3470  142.0760 C   0  0  0  0  0  1  0  0  0  0  0  0
  179.6840  181.7090  140.0600 N   0  0  0  0  0  0  0  0  0  0  0  0
  180.6830  179.6960  140.1430 C   0  0  0  0  0  0  0  0  0  0  0  0
  180.8220  180.8850  136.8580 N   0  0  0  0  0  0  0  0  0  0  0  0
  180.4850  181.5690  139.0170 N   0  0  0  0  0  0  0  0  0  0  0  0
  181.2590  179.9420  137.6480 C   0  0  0  0  0  3  0  0  0  0  0  0
  179.8410  180.5920  140.8090 C   0  0  0  0  0  0  0  0  0  0  0  0
  181.0240  183.2680  137.3680 C   0  0  0  0  0  1  0  0  0  0  0  0
  182.1970  177.9070  140.7750 O   0  0  0  0  0  0  0  0  0  0  0  0
  183.5140  179.3190  144.5070 C   0  0  0  0  0  3  0  0  0  0  0  0
  181.7380  178.3540  143.0820 C   0  0  0  0  0  2  0  0  0  0  0  0
  184.0440  178.4000  142.1980 C   0  0  1  0  0  3  0  0  0  0  0  0
  182.2360  178.9890  144.3430 C   0  0  0  0  0  3  0  0  0  0  0  0
  184.5400  179.1880  143.4150 C   0  0  0  0  0  2  0  0  0  0  0  0
  182.5900  178.7040  141.8650 C   0  0  1  0  0  3  0  0  0  0  0  0
  184.9530  178.5140  140.9630 C   0  0  1  0  0  3  0  0  0  0  0  0
  184.4080  179.3690  139.8160 C   0  0  0  0  0  2  0  0  0  0  0  0
  184.7110  178.7350  138.4700 C   0  0  0  0  0  1  0  0  0  0  0  0
  186.3290  179.0030  141.3880 C   0  0  0  0  0  2  0  0  0  0  0  0
  187.2710  177.9870  141.2070 O   0  0  0  0  0  0  0  0  0  0  0  0
  188.0190  178.0070  142.3800 C   0  0  0  0  0  2  0  0  0  0  0  0
  187.4640  177.2760  144.6640 C   0  0  0  0  0  1  0  0  0  0  0  0
  187.6310  176.8220  143.2370 C   0  0  0  0  0  2  0  0  0  0  0  0
  179.8750  177.3190  140.1710 C   0  0  0  0  0  2  0  0  0  0  0  0
  180.2380  175.8920  140.5840 C   0  0  1  0  0  3  0  0  0  0  0  0
  179.2500  175.4070  141.4410 O   0  0  0  0  0  1  0  0  0  0  0  0
  180.3520  174.9720  139.3700 C   0  0  0  0  0  2  0  0  0  0  0  0
  181.6220  175.2750  138.5750 C   0  0  0  0  0  2  0  0  0  0  0  0
  181.3420  175.3880  137.1130 C   0  0  0  0  0  0  0  0  0  0  0  0
  181.6580  174.4480  136.3370 O   0  0  0  0  0  0  0  0  0  0  0  0
  180.7620  176.5380  136.6030 O   0  0  0  0  0  1  0  0  0  0  0  0
  1 12  1  0  0  0  0
  2  8  1  0  0  0  0
  2  6  2  0  0  0  0
  3 11  1  6  0  0  0
  3  8  1  0  0  0  0
  5 10  2  0  0  0  0
  6  1  1  0  0  0  0
  6 10  1  0  0  0  0
  7  9  2  0  0  0  0
  7  3  1  0  0  0  0
  8  5  1  0  0  0  0
  9  2  1  0  0  0  0
 10  4  1  0  0  0  0
 14 16  1  0  0  0  0
 15 19  1  6  0  0  0
 15 17  1  0  0  0  0
 16 13  2  0  0  0  0
 17 13  1  0  0  0  0
 18 12  1  6  0  0  0
 18 15  1  0  0  0  0
 18 14  1  0  0  0  0
 19 20  1  6  0  0  0
 19 22  1  0  0  0  0
 21 20  1  0  0  0  0
 23 22  1  0  0  0  0
 23 24  1  0  0  0  0
 24 26  1  0  0  0  0
 26 25  1  0  0  0  0
 27  1  1  0  0  0  0
 27 28  1  0  0  0  0
 28 29  1  1  0  0  0
 30 28  1  0  0  0  0
 31 30  1  0  0  0  0
 32 31  1  0  0  0  0
 33 32  2  0  0  0  0
 34 32  1  0  0  0  0
M  END
>  <MODEL>
8

>  <REMARK>
 VINA RESULT:      -4.7      5.882      9.906
  Name = 
  14 active torsions:
  status: ('A' for Active; 'I' for Inactive)
    1  A    between atoms: C_3  and  C_14
    2  A    between atoms: C_3  and  C_31
    3  A    between atoms: C_5  and  C_9
    4  A    between atoms: C_5  and  C_19
    5  A    between atoms: C_5  and  C_34
    6  A    between atoms: N_7  and  O_13
    7  A    between atoms: N_7  and  C_14
    8  A    between atoms: N_7  and  C_21
    9  A    between atoms: O_10  and  C_16
   10  A    between atoms: O_10  and  C_34
   11  A    between atoms: O_13  and  C_29
   12  A    between atoms: C_15  and  C_18
   13  A    between atoms: C_16  and  C_24
   14  A    between atoms: C_18  and  C_31
                            x       y       z     vdW  Elec       q    Type
                         _______ _______ _______ _____ _____    ______ ____

>  <TORSDO>
F 14

$$$$
=
 OpenBabel10222415143D

 34 36  0  0  1  0  0  0  0  0999 V2000
  183.3090  178.1890  140.6290 N   0  0  0  0  0  0  0  0  0  0  0  0
  184.2660  177.8450  138.3200 C   0  0  0  0  0  0  0  0  0  0  0  0
  185.3980  176.7570  136.6980 C   0  0  1  0  0  3  0  0  0  0  0  0
  181.6500  175.6600  139.5960 C   0  0  0  0  0  1  0  0  0  0  0  0
  183.2260  176.0340  137.6880 N   0  0  0  0  0  0  0  0  0  0  0  0
  183.3690  177.5710  139.3230 C   0  0  0  0  0  0  0  0  0  0  0  0
  186.2820  177.7080  137.3920 N   0  0  0  0  0  0  0  0  0  0  0  0
  184.1210  176.9490  137.3570 N   0  0  0  0  0  0  0  0  0  0  0  0
  185.6300  178.3160  138.3450 C   0  0  0  0  0  3  0  0  0  0  0  0
  182.6960  176.4340  138.8670 C   0  0  0  0  0  0  0  0  0  0  0  0
  185.2850  177.1340  135.2330 C   0  0  0  0  0  1  0  0  0  0  0  0
  182.5960  179.3430  140.7910 O   0  0  0  0  0  0  0  0  0  0  0  0
  179.0010  179.2000  142.9610 C   0  0  0  0  0  3  0  0  0  0  0  0
  181.4660  179.0150  142.8760 C   0  0  0  0  0  2  0  0  0  0  0  0
  180.3010  179.9720  140.9190 C   0  0  1  0  0  3  0  0  0  0  0  0
  180.1410  178.8550  143.5540 C   0  0  0  0  0  3  0  0  0  0  0  0
  178.9310  179.6730  141.5350 C   0  0  0  0  0  2  0  0  0  0  0  0
  181.3630  178.9710  141.3540 C   0  0  1  0  0  3  0  0  0  0  0  0
  180.2760  180.1580  139.3930 C   0  0  1  0  0  3  0  0  0  0  0  0
  179.0690  179.5530  138.6710 C   0  0  0  0  0  2  0  0  0  0  0  0
  179.3500  178.1250  138.2380 C   0  0  0  0  0  1  0  0  0  0  0  0
  180.4140  181.6350  139.0580 C   0  0  0  0  0  2  0  0  0  0  0  0
  181.4250  181.8150  138.1110 O   0  0  0  0  0  0  0  0  0  0  0  0
  180.8410  182.6290  137.1450 C   0  0  0  0  0  2  0  0  0  0  0  0
  180.4070  185.0280  136.8050 C   0  0  0  0  0  1  0  0  0  0  0  0
  181.4370  184.0170  137.2390 C   0  0  0  0  0  2  0  0  0  0  0  0
  184.1950  177.6890  141.6900 C   0  0  0  0  0  2  0  0  0  0  0  0
  185.2790  178.6820  142.1080 C   0  0  1  0  0  3  0  0  0  0  0  0
  185.2780  179.7530  141.2140 O   0  0  0  0  0  1  0  0  0  0  0  0
  185.0420  179.2050  143.5240 C   0  0  0  0  0  2  0  0  0  0  0  0
  185.7540  178.3280  144.5540 C   0  0  0  0  0  2  0  0  0  0  0  0
  185.3050  178.6380  145.9440 C   0  0  0  0  0  0  0  0  0  0  0  0
  184.1190  179.0010  146.1560 O   0  0  0  0  0  0  0  0  0  0  0  0
  186.2020  178.5560  146.9970 O   0  0  0  0  0  1  0  0  0  0  0  0
  1 12  1  0  0  0  0
  1 27  1  0  0  0  0
  2  9  1  0  0  0  0
  2  6  2  0  0  0  0
  3 11  1  6  0  0  0
  3  8  1  0  0  0  0
  3  7  1  0  0  0  0
  5 10  2  0  0  0  0
  6  1  1  0  0  0  0
  7  9  2  0  0  0  0
  8  5  1  0  0  0  0
  8  2  1  0  0  0  0
 10  6  1  0  0  0  0
 10  4  1  0  0  0  0
 13 16  2  0  0  0  0
 14 16  1  0  0  0  0
 15 19  1  6  0  0  0
 15 18  1  0  0  0  0
 15 17  1  0  0  0  0
 17 13  1  0  0  0  0
 18 12  1  6  0  0  0
 18 14  1  0  0  0  0
 19 20  1  1  0  0  0
 21 20  1  0  0  0  0
 22 19  1  0  0  0  0
 23 22  1  0  0  0  0
 24 26  1  0  0  0  0
 24 23  1  0  0  0  0
 25 26  1  0  0  0  0
 27 28  1  0  0  0  0
 28 29  1  6  0  0  0
 28 30  1  0  0  0  0
 30 31  1  0  0  0  0
 31 32  1  0  0  0  0
 32 33  2  0  0  0  0
 32 34  1  0  0  0  0
M  END
>  <MODEL>
9

>  <REMARK>
 VINA RESULT:      -4.7      5.238      9.830
  Name = 
  14 active torsions:
  status: ('A' for Active; 'I' for Inactive)
    1  A    between atoms: C_3  and  C_14
    2  A    between atoms: C_3  and  C_31
    3  A    between atoms: C_5  and  C_9
    4  A    between atoms: C_5  and  C_19
    5  A    between atoms: C_5  and  C_34
    6  A    between atoms: N_7  and  O_13
    7  A    between atoms: N_7  and  C_14
    8  A    between atoms: N_7  and  C_21
    9  A    between atoms: O_10  and  C_16
   10  A    between atoms: O_10  and  C_34
   11  A    between atoms: O_13  and  C_29
   12  A    between atoms: C_15  and  C_18
   13  A    between atoms: C_16  and  C_24
   14  A    between atoms: C_18  and  C_31
                            x       y       z     vdW  Elec       q    Type
                         _______ _______ _______ _____ _____    ______ ____

>  <TORSDO>
F 14

$$$$
