=
 OpenBabel10222421153D

 37 41  0  0  1  0  0  0  0  0999 V2000
  182.2060  180.1690  138.7290 C   0  0  0  0  0  2  0  0  0  0  0  0
  181.1680  178.8060  141.6330 C   0  0  0  0  0  2  0  0  0  0  0  0
  188.9470  178.2370  136.7180 C   0  0  0  0  0  2  0  0  0  0  0  0
  179.7950  179.7450  139.3650 C   0  0  0  0  0  2  0  0  0  0  0  0
  188.7160  177.6440  138.1060 C   0  0  2  0  0  3  0  0  0  0  0  0
  186.5450  177.9450  135.9600 C   0  0  0  0  0  2  0  0  0  0  0  0
  183.3460  177.1240  140.6020 C   0  0  0  0  0  1  0  0  0  0  0  0
  179.9500  180.6360  140.6060 C   0  0  0  0  0  2  0  0  0  0  0  0
  185.6150  178.6110  141.0570 O   0  0  0  0  0  1  0  0  0  0  0  0
  186.1850  177.7910  138.4900 C   0  0  1  0  0  3  0  0  0  0  0  0
  186.0740  177.0850  137.1260 C   0  0  1  0  0  3  0  0  0  0  0  0
  184.7270  179.1610  140.1250 C   0  0  1  0  0  3  0  0  0  0  0  0
  182.5720  179.3660  141.4020 C   0  0  0  0  0  2  0  0  0  0  0  0
  183.6260  177.2530  137.3220 C   0  0  0  0  0  3  0  0  0  0  0  0
  187.5690  178.3930  138.7720 C   0  0  0  0  0  2  0  0  0  0  0  0
  182.6740  178.7930  138.9400 N   0  0  1  0  0  0  0  0  0  0  0  0
  188.0090  177.6380  135.6730 C   0  0  0  0  0  2  0  0  0  0  0  0
  184.6860  176.5500  136.9130 C   0  0  0  0  0  0  0  0  0  0  0  0
  185.1050  178.8830  138.6730 C   0  0  2  0  0  3  0  0  0  0  0  0
  180.1950  179.8780  141.8450 N   0  0  0  0  0  0  0  0  0  0  0  0
  180.7510  180.1870  138.2640 C   0  0  0  0  0  2  0  0  0  0  0  0
  183.7550  178.6090  137.9670 C   0  0  1  0  0  3  0  0  0  0  0  0
  183.3080  178.6220  140.2670 C   0  0  2  0  0  0  0  0  0  0  0  0
  183.7480  174.2530  137.2300 C   0  0  0  0  0  0  0  0  0  0  0  0
  184.5360  173.1150  137.7710 C   0  0  0  0  0  2  0  0  0  0  0  0
  185.8990  173.3100  137.2260 C   0  0  0  0  0  0  0  0  0  0  0  0
  181.3390  174.6200  137.9620 O   0  0  0  0  0  0  0  0  0  0  0  0
  186.8740  172.7670  137.7250 O   0  0  0  0  0  0  0  0  0  0  0  0
  182.5090  174.4440  137.5960 C   0  0  0  0  0  0  0  0  0  0  0  0
  184.4590  175.1950  136.3000 C   0  0  2  0  0  3  0  0  0  0  0  0
  186.0600  174.4400  135.8500 S   0  0  0  0  0  0  0  0  0  0  0  0
  178.9440  179.2550  142.2510 C   0  0  0  0  0  2  0  0  0  0  0  0
  178.9310  179.0590  143.7480 C   0  0  0  0  0  1  0  0  0  0  0  0
  189.9680  177.8140  138.9490 C   0  0  0  0  0  2  0  0  0  0  0  0
  190.3970  176.5060  139.5170 C   0  0  0  0  0  0  0  0  0  0  0  0
  190.7290  175.5660  138.7490 O   0  0  0  0  0  0  0  0  0  0  0  0
  190.4650  176.3290  140.9280 N   0  0  0  0  0  1  0  0  0  0  0  0
  2 20  1  0  0  0  0
  3  5  1  0  0  0  0
  4  8  1  0  0  0  0
  5 15  1  0  0  0  0
  5 34  1  1  0  0  0
  8 20  1  0  0  0  0
 10 19  1  0  0  0  0
 10 15  1  6  0  0  0
 11  6  1  6  0  0  0
 11 10  1  0  0  0  0
 12 23  1  0  0  0  0
 12  9  1  1  0  0  0
 13  2  1  0  0  0  0
 14 22  1  0  0  0  0
 16  1  1  1  0  0  0
 16 23  1  0  0  0  0
 17  6  1  0  0  0  0
 17  3  1  0  0  0  0
 18 11  1  0  0  0  0
 18 14  2  0  0  0  0
 19 12  1  0  0  0  0
 20 32  1  0  0  0  0
 21  1  1  0  0  0  0
 21  4  1  0  0  0  0
 22 19  1  0  0  0  0
 22 16  1  0  0  0  0
 23  7  1  0  0  0  0
 23 13  1  0  0  0  0
 24 29  2  0  0  0  0
 24 25  1  0  0  0  0
 26 28  2  0  0  0  0
 26 25  1  0  0  0  0
 29 27  2  0  0  0  0
 30 18  1  0  0  0  0
 30 24  1  0  0  0  0
 31 30  1  0  0  0  0
 31 26  1  0  0  0  0
 32 33  1  0  0  0  0
 34 35  1  0  0  0  0
 35 37  1  0  0  0  0
 36 35  2  0  0  0  0
M  END
>  <MODEL>
1

>  <REMARK>
 VINA RESULT:      -6.6      0.000      0.000
  Name = 
  4 active torsions:
  status: ('A' for Active; 'I' for Inactive)
    1  A    between atoms: C_6  and  C_16
    2  A    between atoms: C_7  and  C_16
    3  A    between atoms: C_8  and  N_32
    4  A    between atoms: C_30  and  C_33
                            x       y       z     vdW  Elec       q    Type
                         _______ _______ _______ _____ _____    ______ ____

>  <TORSDO>
F 4

$$$$
=
 OpenBabel10222421153D

 37 41  0  0  1  0  0  0  0  0999 V2000
  183.0450  180.4900  139.0290 C   0  0  0  0  0  2  0  0  0  0  0  0
  181.2210  178.7370  141.2580 C   0  0  0  0  0  2  0  0  0  0  0  0
  190.0050  178.3710  138.4820 C   0  0  0  0  0  2  0  0  0  0  0  0
  180.5380  180.1680  138.9350 C   0  0  0  0  0  2  0  0  0  0  0  0
  189.3900  177.5690  139.6270 C   0  0  2  0  0  3  0  0  0  0  0  0
  187.8840  178.4200  137.0940 C   0  0  0  0  0  2  0  0  0  0  0  0
  183.5330  177.0810  140.5190 C   0  0  0  0  0  1  0  0  0  0  0  0
  180.3890  180.8140  140.3190 C   0  0  0  0  0  2  0  0  0  0  0  0
  185.6510  178.2680  141.8140 O   0  0  0  0  0  1  0  0  0  0  0  0
  186.8560  177.8610  139.3710 C   0  0  1  0  0  3  0  0  0  0  0  0
  187.0880  177.4140  137.9160 C   0  0  1  0  0  3  0  0  0  0  0  0
  185.0640  179.0450  140.8070 C   0  0  1  0  0  3  0  0  0  0  0  0
  182.6550  179.2070  141.5050 C   0  0  0  0  0  2  0  0  0  0  0  0
  184.6840  177.7520  137.5060 C   0  0  0  0  0  3  0  0  0  0  0  0
  188.1350  178.2850  140.1070 C   0  0  0  0  0  2  0  0  0  0  0  0
  183.3910  179.0640  139.0880 N   0  0  1  0  0  0  0  0  0  0  0  0
  189.3600  178.0440  137.1390 C   0  0  0  0  0  2  0  0  0  0  0  0
  185.7890  177.0440  137.2570 C   0  0  0  0  0  0  0  0  0  0  0  0
  185.8060  178.9920  139.4750 C   0  0  2  0  0  3  0  0  0  0  0  0
  180.2660  179.8340  141.4130 N   0  0  0  0  0  0  0  0  0  0  0  0
  181.7690  180.7120  138.2200 C   0  0  0  0  0  2  0  0  0  0  0  0
  184.6850  178.9600  138.4080 C   0  0  1  0  0  3  0  0  0  0  0  0
  183.6400  178.6110  140.4760 C   0  0  2  0  0  0  0  0  0  0  0  0
  185.1710  174.6270  137.0820 C   0  0  0  0  0  0  0  0  0  0  0  0
  186.1330  173.5170  137.3090 C   0  0  0  0  0  2  0  0  0  0  0  0
  187.4150  174.0140  136.7610 C   0  0  0  0  0  0  0  0  0  0  0  0
  182.7980  174.4860  137.9910 O   0  0  0  0  0  0  0  0  0  0  0  0
  188.4860  173.5150  137.0760 O   0  0  0  0  0  0  0  0  0  0  0  0
  183.9500  174.5590  137.5400 C   0  0  0  0  0  0  0  0  0  0  0  0
  185.6850  175.8400  136.3610 C   0  0  2  0  0  3  0  0  0  0  0  0
  187.3280  175.4320  135.6740 S   0  0  0  0  0  0  0  0  0  0  0  0
  178.9310  179.2590  141.3600 C   0  0  0  0  0  2  0  0  0  0  0  0
  179.0220  177.7520  141.3290 C   0  0  0  0  0  1  0  0  0  0  0  0
  190.3760  177.4830  140.7790 C   0  0  0  0  0  2  0  0  0  0  0  0
  189.6980  176.9970  142.0130 C   0  0  0  0  0  0  0  0  0  0  0  0
  189.0180  177.7940  142.7110 O   0  0  0  0  0  0  0  0  0  0  0  0
  189.7910  175.6260  142.3850 N   0  0  0  0  0  1  0  0  0  0  0  0
  2 20  1  0  0  0  0
  2 13  1  0  0  0  0
  3  5  1  0  0  0  0
  4  8  1  0  0  0  0
  5 15  1  0  0  0  0
  5 34  1  1  0  0  0
  6 17  1  0  0  0  0
  8 20  1  0  0  0  0
 10 19  1  0  0  0  0
 10 15  1  6  0  0  0
 11  6  1  6  0  0  0
 11 10  1  0  0  0  0
 12  9  1  1  0  0  0
 14 22  1  0  0  0  0
 16  1  1  1  0  0  0
 16 23  1  0  0  0  0
 17  3  1  0  0  0  0
 18 14  2  0  0  0  0
 18 11  1  0  0  0  0
 19 12  1  0  0  0  0
 21  4  1  0  0  0  0
 21  1  1  0  0  0  0
 22 16  1  0  0  0  0
 22 19  1  0  0  0  0
 23  7  1  0  0  0  0
 23 12  1  0  0  0  0
 23 13  1  0  0  0  0
 24 25  1  0  0  0  0
 24 29  2  0  0  0  0
 26 28  2  0  0  0  0
 26 25  1  0  0  0  0
 29 27  2  0  0  0  0
 30 24  1  0  0  0  0
 30 18  1  0  0  0  0
 31 30  1  0  0  0  0
 31 26  1  0  0  0  0
 32 20  1  0  0  0  0
 33 32  1  0  0  0  0
 34 35  1  0  0  0  0
 35 37  1  0  0  0  0
 35 36  2  0  0  0  0
M  END
>  <MODEL>
2

>  <REMARK>
 VINA RESULT:      -5.6      1.293      1.618
  Name = 
  4 active torsions:
  status: ('A' for Active; 'I' for Inactive)
    1  A    between atoms: C_6  and  C_16
    2  A    between atoms: C_7  and  C_16
    3  A    between atoms: C_8  and  N_32
    4  A    between atoms: C_30  and  C_33
                            x       y       z     vdW  Elec       q    Type
                         _______ _______ _______ _____ _____    ______ ____

>  <TORSDO>
F 4

$$$$
=
 OpenBabel10222421153D

 37 41  0  0  1  0  0  0  0  0999 V2000
  188.7650  174.8130  137.5910 C   0  0  0  0  0  2  0  0  0  0  0  0
  190.5300  176.6170  135.3550 C   0  0  0  0  0  2  0  0  0  0  0  0
  182.3380  177.7340  139.4340 C   0  0  0  0  0  2  0  0  0  0  0  0
  190.4790  173.8760  135.9850 C   0  0  0  0  0  2  0  0  0  0  0  0
  183.0430  178.7510  138.5390 C   0  0  2  0  0  3  0  0  0  0  0  0
  183.2660  175.7070  138.2230 C   0  0  0  0  0  2  0  0  0  0  0  0
  187.7170  177.4280  135.1120 C   0  0  0  0  0  1  0  0  0  0  0  0
  191.5580  174.7910  136.5800 C   0  0  0  0  0  2  0  0  0  0  0  0
  187.2630  178.9560  137.3550 O   0  0  0  0  0  1  0  0  0  0  0  0
  184.9530  177.4570  137.4210 C   0  0  1  0  0  3  0  0  0  0  0  0
  183.8590  176.4460  137.0310 C   0  0  1  0  0  3  0  0  0  0  0  0
  187.5260  177.6040  137.6050 C   0  0  1  0  0  3  0  0  0  0  0  0
  189.7670  177.2230  136.5340 C   0  0  0  0  0  2  0  0  0  0  0  0
  185.6130  175.0550  136.0070 C   0  0  0  0  0  3  0  0  0  0  0  0
  184.5330  178.4390  138.5230 C   0  0  0  0  0  2  0  0  0  0  0  0
  187.9360  175.4760  136.5770 N   0  0  1  0  0  0  0  0  0  0  0  0
  182.0150  176.4410  138.6920 C   0  0  0  0  0  2  0  0  0  0  0  0
  184.3560  175.5040  135.9700 C   0  0  0  0  0  0  0  0  0  0  0  0
  186.2730  176.7620  137.8300 C   0  0  2  0  0  3  0  0  0  0  0  0
  191.7910  176.0140  135.7900 N   0  0  0  0  0  0  0  0  0  0  0  0
  189.4170  173.5520  137.0280 C   0  0  0  0  0  2  0  0  0  0  0  0
  186.5720  175.4250  137.1110 C   0  0  1  0  0  3  0  0  0  0  0  0
  188.2560  176.9180  136.4560 C   0  0  2  0  0  0  0  0  0  0  0  0
  182.0940  175.6680  134.9160 C   0  0  0  0  0  0  0  0  0  0  0  0
  180.9900  174.7130  135.1950 C   0  0  0  0  0  2  0  0  0  0  0  0
  181.6590  173.4020  135.3550 C   0  0  0  0  0  0  0  0  0  0  0  0
  181.6290  178.1630  134.7380 O   0  0  0  0  0  0  0  0  0  0  0  0
  181.1120  172.4660  135.9190 O   0  0  0  0  0  0  0  0  0  0  0  0
  181.8620  176.9490  134.8170 C   0  0  0  0  0  0  0  0  0  0  0  0
  183.4800  175.0990  134.8160 C   0  0  2  0  0  3  0  0  0  0  0  0
  183.3380  173.2790  134.7530 S   0  0  0  0  0  0  0  0  0  0  0  0
  192.5330  175.6470  134.5940 C   0  0  0  0  0  2  0  0  0  0  0  0
  193.9880  176.0160  134.7600 C   0  0  0  0  0  1  0  0  0  0  0  0
  182.8390  180.1490  139.0950 C   0  0  0  0  0  2  0  0  0  0  0  0
  181.7750  180.8640  138.3370 C   0  0  0  0  0  0  0  0  0  0  0  0
  181.6890  182.1180  138.4060 O   0  0  0  0  0  0  0  0  0  0  0  0
  180.8760  180.1340  137.5090 N   0  0  0  0  0  1  0  0  0  0  0  0
  2 20  1  0  0  0  0
  2 13  1  0  0  0  0
  4  8  1  0  0  0  0
  4 21  1  0  0  0  0
  5 34  1  1  0  0  0
  5  3  1  0  0  0  0
  6 17  1  0  0  0  0
  7 23  1  0  0  0  0
 10 19  1  0  0  0  0
 10 15  1  1  0  0  0
 11 10  1  0  0  0  0
 11  6  1  1  0  0  0
 12  9  1  6  0  0  0
 12 19  1  0  0  0  0
 14 22  1  0  0  0  0
 15  5  1  0  0  0  0
 16 22  1  0  0  0  0
 16  1  1  1  0  0  0
 17  3  1  0  0  0  0
 18 14  2  0  0  0  0
 18 11  1  0  0  0  0
 20  8  1  0  0  0  0
 21  1  1  0  0  0  0
 22 19  1  0  0  0  0
 23 13  1  0  0  0  0
 23 16  1  0  0  0  0
 23 12  1  0  0  0  0
 24 25  1  0  0  0  0
 25 26  1  0  0  0  0
 26 28  2  0  0  0  0
 27 29  2  0  0  0  0
 29 24  2  0  0  0  0
 30 24  1  0  0  0  0
 30 18  1  0  0  0  0
 31 30  1  0  0  0  0
 31 26  1  0  0  0  0
 32 33  1  0  0  0  0
 32 20  1  0  0  0  0
 35 36  2  0  0  0  0
 35 34  1  0  0  0  0
 37 35  1  0  0  0  0
M  END
>  <MODEL>
3

>  <REMARK>
 VINA RESULT:      -5.1      3.001      8.088
  Name = 
  4 active torsions:
  status: ('A' for Active; 'I' for Inactive)
    1  A    between atoms: C_6  and  C_16
    2  A    between atoms: C_7  and  C_16
    3  A    between atoms: C_8  and  N_32
    4  A    between atoms: C_30  and  C_33
                            x       y       z     vdW  Elec       q    Type
                         _______ _______ _______ _____ _____    ______ ____

>  <TORSDO>
F 4

$$$$
=
 OpenBabel10222421153D

 37 41  0  0  1  0  0  0  0  0999 V2000
  186.4860  177.5630  135.4300 C   0  0  0  0  0  2  0  0  0  0  0  0
  188.5940  175.0370  136.1700 C   0  0  0  0  0  2  0  0  0  0  0  0
  179.4310  175.7070  135.4090 C   0  0  0  0  0  2  0  0  0  0  0  0
  188.7820  177.8290  136.4570 C   0  0  0  0  0  2  0  0  0  0  0  0
  180.2230  174.4180  135.6190 C   0  0  2  0  0  3  0  0  0  0  0  0
  181.0440  177.1630  136.7170 C   0  0  0  0  0  2  0  0  0  0  0  0
  185.9480  174.3090  137.2190 C   0  0  0  0  0  1  0  0  0  0  0  0
  189.4200  177.1260  135.2510 C   0  0  0  0  0  2  0  0  0  0  0  0
  184.4960  173.6500  134.9760 O   0  0  0  0  0  1  0  0  0  0  0  0
  182.5900  175.1770  136.2500 C   0  0  1  0  0  3  0  0  0  0  0  0
  181.8830  176.0400  137.3120 C   0  0  1  0  0  3  0  0  0  0  0  0
  184.8760  174.9950  135.0590 C   0  0  1  0  0  3  0  0  0  0  0  0
  187.3790  174.8980  135.2520 C   0  0  0  0  0  2  0  0  0  0  0  0
  184.0890  176.9290  137.9500 C   0  0  0  0  0  3  0  0  0  0  0  0
  181.6560  174.6440  135.1540 C   0  0  0  0  0  2  0  0  0  0  0  0
  185.9640  176.6300  136.4370 N   0  0  1  0  0  0  0  0  0  0  0  0
  179.6050  176.6840  136.5680 C   0  0  0  0  0  2  0  0  0  0  0  0
  182.8670  176.5460  138.3300 C   0  0  0  0  0  0  0  0  0  0  0  0
  183.7810  175.9140  135.5940 C   0  0  2  0  0  3  0  0  0  0  0  0
  189.7060  175.7000  135.4870 N   0  0  0  0  0  0  0  0  0  0  0  0
  187.4930  178.5300  136.0490 C   0  0  0  0  0  2  0  0  0  0  0  0
  184.5280  176.9150  136.5080 C   0  0  1  0  0  3  0  0  0  0  0  0
  186.0620  175.2210  135.9900 C   0  0  2  0  0  0  0  0  0  0  0  0
  181.0700  176.3130  140.0540 C   0  0  0  0  0  0  0  0  0  0  0  0
  180.2590  177.4550  140.5500 C   0  0  0  0  0  2  0  0  0  0  0  0
  181.2000  178.5980  140.5840 C   0  0  0  0  0  0  0  0  0  0  0  0
  179.9790  174.0660  139.5700 O   0  0  0  0  0  0  0  0  0  0  0  0
  180.8050  179.7540  140.6140 O   0  0  0  0  0  0  0  0  0  0  0  0
  180.5180  175.1550  139.8090 C   0  0  0  0  0  0  0  0  0  0  0  0
  182.5270  176.5720  139.7950 C   0  0  2  0  0  3  0  0  0  0  0  0
  182.9430  178.2050  140.5000 S   0  0  0  0  0  0  0  0  0  0  0  0
  190.8680  175.6080  136.3590 C   0  0  0  0  0  2  0  0  0  0  0  0
  190.7680  174.3710  137.2190 C   0  0  0  0  0  1  0  0  0  0  0  0
  179.6110  173.3010  134.7930 C   0  0  0  0  0  2  0  0  0  0  0  0
  179.8550  171.9800  135.4370 C   0  0  0  0  0  0  0  0  0  0  0  0
  180.2630  171.0100  134.7460 O   0  0  0  0  0  0  0  0  0  0  0  0
  179.6600  171.8230  136.8380 N   0  0  0  0  0  1  0  0  0  0  0  0
  1 21  1  0  0  0  0
  3  5  1  0  0  0  0
  3 17  1  0  0  0  0
  5 34  1  6  0  0  0
  8 20  1  0  0  0  0
  8  4  1  0  0  0  0
 10 15  1  6  0  0  0
 10 11  1  0  0  0  0
 11  6  1  6  0  0  0
 11 18  1  0  0  0  0
 12  9  1  1  0  0  0
 12 19  1  0  0  0  0
 12 23  1  0  0  0  0
 13 23  1  0  0  0  0
 13  2  1  0  0  0  0
 14 18  2  0  0  0  0
 15  5  1  0  0  0  0
 16  1  1  6  0  0  0
 16 22  1  0  0  0  0
 17  6  1  0  0  0  0
 18 30  1  0  0  0  0
 19 10  1  0  0  0  0
 19 22  1  0  0  0  0
 20  2  1  0  0  0  0
 20 32  1  0  0  0  0
 21  4  1  0  0  0  0
 22 14  1  0  0  0  0
 23 16  1  0  0  0  0
 23  7  1  0  0  0  0
 24 25  1  0  0  0  0
 25 26  1  0  0  0  0
 26 28  2  0  0  0  0
 27 29  2  0  0  0  0
 29 24  2  0  0  0  0
 30 24  1  0  0  0  0
 30 31  1  0  0  0  0
 31 26  1  0  0  0  0
 32 33  1  0  0  0  0
 34 35  1  0  0  0  0
 35 37  1  0  0  0  0
 36 35  2  0  0  0  0
M  END
>  <MODEL>
4

>  <REMARK>
 VINA RESULT:      -5.1      3.281      8.295
  Name = 
  4 active torsions:
  status: ('A' for Active; 'I' for Inactive)
    1  A    between atoms: C_6  and  C_16
    2  A    between atoms: C_7  and  C_16
    3  A    between atoms: C_8  and  N_32
    4  A    between atoms: C_30  and  C_33
                            x       y       z     vdW  Elec       q    Type
                         _______ _______ _______ _____ _____    ______ ____

>  <TORSDO>
F 4

$$$$
=
 OpenBabel10222421153D

 37 41  0  0  1  0  0  0  0  0999 V2000
  186.7540  176.8590  134.5940 C   0  0  0  0  0  2  0  0  0  0  0  0
  188.7240  175.0400  136.6380 C   0  0  0  0  0  2  0  0  0  0  0  0
  179.7300  174.8850  134.6190 C   0  0  0  0  0  2  0  0  0  0  0  0
  188.9110  177.6640  135.6400 C   0  0  0  0  0  2  0  0  0  0  0  0
  180.4750  173.8690  135.4810 C   0  0  2  0  0  3  0  0  0  0  0  0
  181.1900  176.8460  135.2930 C   0  0  0  0  0  2  0  0  0  0  0  0
  185.9620  174.7510  137.5950 C   0  0  0  0  0  1  0  0  0  0  0  0
  189.6810  176.5190  134.9680 C   0  0  0  0  0  2  0  0  0  0  0  0
  184.7840  173.0830  135.7500 O   0  0  0  0  0  1  0  0  0  0  0  0
  182.7570  174.9360  135.9620 C   0  0  1  0  0  3  0  0  0  0  0  0
  181.9380  176.1540  136.4260 C   0  0  1  0  0  3  0  0  0  0  0  0
  185.1680  174.3340  135.2530 C   0  0  1  0  0  3  0  0  0  0  0  0
  187.6280  174.4470  135.7520 C   0  0  0  0  0  2  0  0  0  0  0  0
  184.0610  177.3320  136.8350 C   0  0  0  0  0  3  0  0  0  0  0  0
  181.9570  173.9230  135.1310 C   0  0  0  0  0  2  0  0  0  0  0  0
  186.1020  176.4630  135.8480 N   0  0  1  0  0  0  0  0  0  0  0  0
  179.7740  176.2890  135.2170 C   0  0  0  0  0  2  0  0  0  0  0  0
  182.7970  177.1100  137.2060 C   0  0  0  0  0  0  0  0  0  0  0  0
  184.0280  175.3470  135.1830 C   0  0  2  0  0  3  0  0  0  0  0  0
  189.9190  175.3700  135.8590 N   0  0  0  0  0  0  0  0  0  0  0  0
  187.6890  178.0460  134.8140 C   0  0  0  0  0  2  0  0  0  0  0  0
  184.6720  176.6850  135.6180 C   0  0  1  0  0  3  0  0  0  0  0  0
  186.2360  175.0100  136.1070 C   0  0  2  0  0  0  0  0  0  0  0  0
  182.1970  179.2750  138.3040 C   0  0  0  0  0  0  0  0  0  0  0  0
  183.1590  180.0870  139.0930 C   0  0  0  0  0  2  0  0  0  0  0  0
  184.0070  179.0920  139.7900 C   0  0  0  0  0  0  0  0  0  0  0  0
  180.5690  180.3980  136.7030 O   0  0  0  0  0  0  0  0  0  0  0  0
  185.1000  179.3880  140.2490 O   0  0  0  0  0  0  0  0  0  0  0  0
  181.3540  179.8450  137.4850 C   0  0  0  0  0  0  0  0  0  0  0  0
  182.2820  177.7830  138.4490 C   0  0  2  0  0  3  0  0  0  0  0  0
  183.3870  177.4160  139.8570 S   0  0  0  0  0  0  0  0  0  0  0  0
  190.9650  175.7350  136.8020 C   0  0  0  0  0  2  0  0  0  0  0  0
  190.4470  175.6170  138.2150 C   0  0  0  0  0  1  0  0  0  0  0  0
  179.9540  172.4720  135.1920 C   0  0  0  0  0  2  0  0  0  0  0  0
  180.5140  171.4930  136.1640 C   0  0  0  0  0  0  0  0  0  0  0  0
  180.1660  171.5370  137.3730 O   0  0  0  0  0  0  0  0  0  0  0  0
  181.4170  170.4850  135.7200 N   0  0  0  0  0  1  0  0  0  0  0  0
  1 21  1  0  0  0  0
  3 17  1  0  0  0  0
  3  5  1  0  0  0  0
  5 34  1  6  0  0  0
  8  4  1  0  0  0  0
  8 20  1  0  0  0  0
 10 15  1  6  0  0  0
 10 11  1  0  0  0  0
 11  6  1  6  0  0  0
 11 18  1  0  0  0  0
 12  9  1  1  0  0  0
 12 23  1  0  0  0  0
 13 23  1  0  0  0  0
 13  2  1  0  0  0  0
 14 18  2  0  0  0  0
 15  5  1  0  0  0  0
 16  1  1  6  0  0  0
 16 23  1  0  0  0  0
 17  6  1  0  0  0  0
 18 30  1  0  0  0  0
 19 12  1  0  0  0  0
 19 22  1  0  0  0  0
 19 10  1  0  0  0  0
 20  2  1  0  0  0  0
 20 32  1  0  0  0  0
 21  4  1  0  0  0  0
 22 16  1  0  0  0  0
 22 14  1  0  0  0  0
 23  7  1  0  0  0  0
 24 30  1  0  0  0  0
 24 25  1  0  0  0  0
 25 26  1  0  0  0  0
 26 31  1  0  0  0  0
 26 28  2  0  0  0  0
 27 29  2  0  0  0  0
 29 24  2  0  0  0  0
 30 31  1  0  0  0  0
 32 33  1  0  0  0  0
 34 35  1  0  0  0  0
 35 36  2  0  0  0  0
 37 35  1  0  0  0  0
M  END
>  <MODEL>
5

>  <REMARK>
 VINA RESULT:      -5.0      3.336      8.259
  Name = 
  4 active torsions:
  status: ('A' for Active; 'I' for Inactive)
    1  A    between atoms: C_6  and  C_16
    2  A    between atoms: C_7  and  C_16
    3  A    between atoms: C_8  and  N_32
    4  A    between atoms: C_30  and  C_33
                            x       y       z     vdW  Elec       q    Type
                         _______ _______ _______ _____ _____    ______ ____

>  <TORSDO>
F 4

$$$$
=
 OpenBabel10222421153D

 37 41  0  0  1  0  0  0  0  0999 V2000
  192.7380  175.6560  134.8690 C   0  0  0  0  0  2  0  0  0  0  0  0
  194.0100  172.9740  136.4680 C   0  0  0  0  0  2  0  0  0  0  0  0
  185.7720  177.1120  136.4760 C   0  0  0  0  0  2  0  0  0  0  0  0
  195.1840  175.2960  135.3990 C   0  0  0  0  0  2  0  0  0  0  0  0
  186.1180  175.7990  137.1740 C   0  0  2  0  0  3  0  0  0  0  0  0
  188.0770  178.1260  136.7730 C   0  0  0  0  0  2  0  0  0  0  0  0
  191.6880  173.8980  138.0140 C   0  0  0  0  0  1  0  0  0  0  0  0
  195.1810  173.9870  134.5990 C   0  0  0  0  0  2  0  0  0  0  0  0
  189.5240  173.1130  136.5070 O   0  0  0  0  0  1  0  0  0  0  0  0
  188.6780  175.6620  137.1200 C   0  0  1  0  0  3  0  0  0  0  0  0
  188.6320  177.0760  137.7280 C   0  0  1  0  0  3  0  0  0  0  0  0
  190.3340  174.0880  135.9130 C   0  0  1  0  0  3  0  0  0  0  0  0
  192.6090  173.0230  135.8570 C   0  0  0  0  0  2  0  0  0  0  0  0
  191.0910  177.1160  137.6360 C   0  0  0  0  0  3  0  0  0  0  0  0
  187.3490  175.2000  136.5060 C   0  0  0  0  0  2  0  0  0  0  0  0
  192.2470  175.4970  136.2440 N   0  0  1  0  0  0  0  0  0  0  0  0
  186.5820  178.2850  137.0200 C   0  0  0  0  0  2  0  0  0  0  0  0
  189.9740  177.4650  138.2800 C   0  0  0  0  0  0  0  0  0  0  0  0
  189.8060  175.5120  136.0730 C   0  0  2  0  0  3  0  0  0  0  0  0
  195.0340  172.7860  135.4390 N   0  0  0  0  0  0  0  0  0  0  0  0
  194.1400  176.2620  134.8540 C   0  0  0  0  0  2  0  0  0  0  0  0
  191.0700  176.3670  136.3280 C   0  0  1  0  0  3  0  0  0  0  0  0
  191.7420  174.1280  136.4970 C   0  0  2  0  0  0  0  0  0  0  0  0
  191.0740  177.5370  140.5250 C   0  0  0  0  0  0  0  0  0  0  0  0
  190.5160  176.8730  141.7310 C   0  0  0  0  0  2  0  0  0  0  0  0
  189.0500  177.0260  141.6000 C   0  0  0  0  0  0  0  0  0  0  0  0
  193.5710  177.4490  140.0390 O   0  0  0  0  0  0  0  0  0  0  0  0
  188.2710  176.3180  142.2230 O   0  0  0  0  0  0  0  0  0  0  0  0
  192.3550  177.5010  140.2730 C   0  0  0  0  0  0  0  0  0  0  0  0
  190.0960  178.1920  139.5920 C   0  0  2  0  0  3  0  0  0  0  0  0
  188.4710  178.2450  140.4260 S   0  0  0  0  0  0  0  0  0  0  0  0
  196.2980  172.5520  136.1220 C   0  0  0  0  0  2  0  0  0  0  0  0
  196.0740  171.6740  137.3300 C   0  0  0  0  0  1  0  0  0  0  0  0
  184.9620  174.8250  137.0360 C   0  0  0  0  0  2  0  0  0  0  0  0
  185.4380  173.4220  137.1920 C   0  0  0  0  0  0  0  0  0  0  0  0
  185.6370  172.9510  138.3430 O   0  0  0  0  0  0  0  0  0  0  0  0
  185.6360  172.6040  136.0450 N   0  0  0  0  0  1  0  0  0  0  0  0
  3 17  1  0  0  0  0
  3  5  1  0  0  0  0
  5 34  1  6  0  0  0
  6 17  1  0  0  0  0
  8  4  1  0  0  0  0
  8 20  1  0  0  0  0
 10 15  1  6  0  0  0
 10 11  1  0  0  0  0
 11  6  1  6  0  0  0
 11 18  1  0  0  0  0
 12 19  1  0  0  0  0
 12 23  1  0  0  0  0
 12  9  1  1  0  0  0
 13  2  1  0  0  0  0
 13 23  1  0  0  0  0
 14 18  2  0  0  0  0
 15  5  1  0  0  0  0
 16  1  1  6  0  0  0
 16 22  1  0  0  0  0
 16 23  1  0  0  0  0
 18 30  1  0  0  0  0
 19 22  1  0  0  0  0
 19 10  1  0  0  0  0
 20 32  1  0  0  0  0
 20  2  1  0  0  0  0
 21  1  1  0  0  0  0
 21  4  1  0  0  0  0
 22 14  1  0  0  0  0
 23  7  1  0  0  0  0
 24 25  1  0  0  0  0
 26 25  1  0  0  0  0
 26 28  2  0  0  0  0
 27 29  2  0  0  0  0
 29 24  2  0  0  0  0
 30 31  1  0  0  0  0
 30 24  1  0  0  0  0
 31 26  1  0  0  0  0
 32 33  1  0  0  0  0
 34 35  1  0  0  0  0
 35 36  2  0  0  0  0
 37 35  1  0  0  0  0
M  END
>  <MODEL>
6

>  <REMARK>
 VINA RESULT:      -4.9      4.753     10.231
  Name = 
  4 active torsions:
  status: ('A' for Active; 'I' for Inactive)
    1  A    between atoms: C_6  and  C_16
    2  A    between atoms: C_7  and  C_16
    3  A    between atoms: C_8  and  N_32
    4  A    between atoms: C_30  and  C_33
                            x       y       z     vdW  Elec       q    Type
                         _______ _______ _______ _____ _____    ______ ____

>  <TORSDO>
F 4

$$$$
=
 OpenBabel10222421153D

 37 41  0  0  1  0  0  0  0  0999 V2000
  193.6190  175.6990  134.6010 C   0  0  0  0  0  2  0  0  0  0  0  0
  195.1850  174.1660  137.1640 C   0  0  0  0  0  2  0  0  0  0  0  0
  186.3640  174.9280  134.5940 C   0  0  0  0  0  2  0  0  0  0  0  0
  195.8490  176.3900  135.5740 C   0  0  0  0  0  2  0  0  0  0  0  0
  186.8970  174.0560  135.7290 C   0  0  2  0  0  3  0  0  0  0  0  0
  188.1160  176.7390  134.8760 C   0  0  0  0  0  2  0  0  0  0  0  0
  192.3850  174.5650  137.9580 C   0  0  0  0  0  1  0  0  0  0  0  0
  196.4320  175.0070  135.2590 C   0  0  0  0  0  2  0  0  0  0  0  0
  190.9980  172.6940  136.4930 O   0  0  0  0  0  1  0  0  0  0  0  0
  189.3110  174.8360  136.1010 C   0  0  1  0  0  3  0  0  0  0  0  0
  188.6980  176.2460  136.1940 C   0  0  1  0  0  3  0  0  0  0  0  0
  191.6060  173.7040  135.7370 C   0  0  1  0  0  3  0  0  0  0  0  0
  194.0320  173.5490  136.3710 C   0  0  0  0  0  2  0  0  0  0  0  0
  190.9770  177.1390  136.4580 C   0  0  0  0  0  3  0  0  0  0  0  0
  188.3760  173.7860  135.4850 C   0  0  0  0  0  2  0  0  0  0  0  0
  192.8700  175.7390  135.8640 N   0  0  1  0  0  0  0  0  0  0  0  0
  186.6290  176.4110  134.8340 C   0  0  0  0  0  2  0  0  0  0  0  0
  189.6830  177.2190  136.7790 C   0  0  0  0  0  0  0  0  0  0  0  0
  190.6580  174.8330  135.3400 C   0  0  2  0  0  3  0  0  0  0  0  0
  196.4420  174.0960  136.4170 N   0  0  0  0  0  0  0  0  0  0  0  0
  194.7360  176.7400  134.5930 C   0  0  0  0  0  2  0  0  0  0  0  0
  191.5070  176.1190  135.4820 C   0  0  1  0  0  3  0  0  0  0  0  0
  192.7460  174.3960  136.4760 C   0  0  2  0  0  0  0  0  0  0  0  0
  188.8800  177.6570  139.1070 C   0  0  0  0  0  0  0  0  0  0  0  0
  187.4430  177.6910  139.4830 C   0  0  0  0  0  2  0  0  0  0  0  0
  186.7640  178.3040  138.3190 C   0  0  0  0  0  0  0  0  0  0  0  0
  190.5840  176.5210  140.6170 O   0  0  0  0  0  0  0  0  0  0  0  0
  185.5610  178.1800  138.1370 O   0  0  0  0  0  0  0  0  0  0  0  0
  189.7610  177.0810  139.8800 C   0  0  0  0  0  0  0  0  0  0  0  0
  189.2530  178.2560  137.7810 C   0  0  2  0  0  3  0  0  0  0  0  0
  187.8020  179.1680  137.1470 S   0  0  0  0  0  0  0  0  0  0  0  0
  197.5060  174.5170  137.3170 C   0  0  0  0  0  2  0  0  0  0  0  0
  198.7380  173.6760  137.0840 C   0  0  0  0  0  1  0  0  0  0  0  0
  186.1540  172.7330  135.7510 C   0  0  0  0  0  2  0  0  0  0  0  0
  185.0380  172.7750  136.7360 C   0  0  0  0  0  0  0  0  0  0  0  0
  185.2880  172.8830  137.9650 O   0  0  0  0  0  0  0  0  0  0  0  0
  183.6880  172.7280  136.2870 N   0  0  0  0  0  1  0  0  0  0  0  0
  3 17  1  0  0  0  0
  3  5  1  0  0  0  0
  5 34  1  6  0  0  0
  8  4  1  0  0  0  0
  8 20  1  0  0  0  0
 10 15  1  6  0  0  0
 10 11  1  0  0  0  0
 11  6  1  6  0  0  0
 11 18  1  0  0  0  0
 12 23  1  0  0  0  0
 12  9  1  1  0  0  0
 13 23  1  0  0  0  0
 13  2  1  0  0  0  0
 14 18  2  0  0  0  0
 15  5  1  0  0  0  0
 16  1  1  6  0  0  0
 16 23  1  0  0  0  0
 17  6  1  0  0  0  0
 18 30  1  0  0  0  0
 19 22  1  0  0  0  0
 19 12  1  0  0  0  0
 19 10  1  0  0  0  0
 20  2  1  0  0  0  0
 20 32  1  0  0  0  0
 21  1  1  0  0  0  0
 21  4  1  0  0  0  0
 22 16  1  0  0  0  0
 22 14  1  0  0  0  0
 23  7  1  0  0  0  0
 24 25  1  0  0  0  0
 24 29  2  0  0  0  0
 26 25  1  0  0  0  0
 28 26  2  0  0  0  0
 29 27  2  0  0  0  0
 30 24  1  0  0  0  0
 31 30  1  0  0  0  0
 31 26  1  0  0  0  0
 33 32  1  0  0  0  0
 34 35  1  0  0  0  0
 35 36  2  0  0  0  0
 37 35  1  0  0  0  0
M  END
>  <MODEL>
7

>  <REMARK>
 VINA RESULT:      -4.8      4.523     10.448
  Name = 
  4 active torsions:
  status: ('A' for Active; 'I' for Inactive)
    1  A    between atoms: C_6  and  C_16
    2  A    between atoms: C_7  and  C_16
    3  A    between atoms: C_8  and  N_32
    4  A    between atoms: C_30  and  C_33
                            x       y       z     vdW  Elec       q    Type
                         _______ _______ _______ _____ _____    ______ ____

>  <TORSDO>
F 4

$$$$
=
 OpenBabel10222421153D

 37 41  0  0  1  0  0  0  0  0999 V2000
  186.5720  174.7160  136.9670 C   0  0  0  0  0  2  0  0  0  0  0  0
  184.9970  177.4320  135.7370 C   0  0  0  0  0  2  0  0  0  0  0  0
  193.8540  175.1680  136.9300 C   0  0  0  0  0  2  0  0  0  0  0  0
  184.2340  175.4540  137.5870 C   0  0  0  0  0  2  0  0  0  0  0  0
  193.3330  176.4120  136.2130 C   0  0  2  0  0  3  0  0  0  0  0  0
  191.9320  175.0540  138.5800 C   0  0  0  0  0  2  0  0  0  0  0  0
  187.6960  178.2710  136.5410 C   0  0  0  0  0  1  0  0  0  0  0  0
  183.7980  175.3570  136.1180 C   0  0  0  0  0  2  0  0  0  0  0  0
  189.3330  177.2150  134.5970 O   0  0  0  0  0  1  0  0  0  0  0  0
  190.8400  176.5340  136.8000 C   0  0  1  0  0  3  0  0  0  0  0  0
  191.3170  176.4100  138.2590 C   0  0  1  0  0  3  0  0  0  0  0  0
  188.6840  176.2690  135.4000 C   0  0  1  0  0  3  0  0  0  0  0  0
  186.2470  176.8110  135.1140 C   0  0  0  0  0  2  0  0  0  0  0  0
  188.9540  176.4130  138.9530 C   0  0  0  0  0  3  0  0  0  0  0  0
  191.9020  176.1520  135.7600 C   0  0  0  0  0  2  0  0  0  0  0  0
  187.2360  175.9850  137.2920 N   0  0  1  0  0  0  0  0  0  0  0  0
  193.4420  175.1370  138.3990 C   0  0  0  0  0  2  0  0  0  0  0  0
  190.2140  176.7730  139.2140 C   0  0  0  0  0  0  0  0  0  0  0  0
  189.5490  175.7260  136.5350 C   0  0  2  0  0  3  0  0  0  0  0  0
  183.7990  176.6530  135.4190 N   0  0  0  0  0  0  0  0  0  0  0  0
  185.3680  174.4790  137.8750 C   0  0  0  0  0  2  0  0  0  0  0  0
  188.5800  175.6050  137.7360 C   0  0  1  0  0  3  0  0  0  0  0  0
  187.4430  176.8260  136.0900 C   0  0  2  0  0  0  0  0  0  0  0  0
  191.8000  177.2570  141.0870 C   0  0  0  0  0  0  0  0  0  0  0  0
  191.7460  176.5680  142.4020 C   0  0  0  0  0  2  0  0  0  0  0  0
  190.3030  176.3680  142.6630 C   0  0  0  0  0  0  0  0  0  0  0  0
  194.0340  177.7140  139.9580 O   0  0  0  0  0  0  0  0  0  0  0  0
  189.9040  175.5450  143.4750 O   0  0  0  0  0  0  0  0  0  0  0  0
  192.9430  177.5000  140.5040 C   0  0  0  0  0  0  0  0  0  0  0  0
  190.4870  177.5990  140.4410 C   0  0  2  0  0  3  0  0  0  0  0  0
  189.1670  177.3330  141.6750 S   0  0  0  0  0  0  0  0  0  0  0  0
  182.6490  177.4180  135.8770 C   0  0  0  0  0  2  0  0  0  0  0  0
  181.9020  177.9800  134.6910 C   0  0  0  0  0  1  0  0  0  0  0  0
  194.1900  176.6950  134.9920 C   0  0  0  0  0  2  0  0  0  0  0  0
  195.4620  177.3610  135.3880 C   0  0  0  0  0  0  0  0  0  0  0  0
  195.4560  178.5710  135.7340 O   0  0  0  0  0  0  0  0  0  0  0  0
  196.6780  176.6210  135.4090 N   0  0  0  0  0  1  0  0  0  0  0  0
  1 21  1  0  0  0  0
  3 17  1  0  0  0  0
  4 21  1  0  0  0  0
  5 34  1  6  0  0  0
  5  3  1  0  0  0  0
  8  4  1  0  0  0  0
 10 15  1  6  0  0  0
 10 11  1  0  0  0  0
 11  6  1  1  0  0  0
 11 18  1  0  0  0  0
 12  9  1  1  0  0  0
 12 23  1  0  0  0  0
 12 19  1  0  0  0  0
 13  2  1  0  0  0  0
 13 23  1  0  0  0  0
 14 18  2  0  0  0  0
 15  5  1  0  0  0  0
 16  1  1  6  0  0  0
 16 22  1  0  0  0  0
 17  6  1  0  0  0  0
 18 30  1  0  0  0  0
 19 10  1  0  0  0  0
 19 22  1  0  0  0  0
 20  2  1  0  0  0  0
 20 32  1  0  0  0  0
 20  8  1  0  0  0  0
 22 14  1  0  0  0  0
 23  7  1  0  0  0  0
 23 16  1  0  0  0  0
 24 25  1  0  0  0  0
 25 26  1  0  0  0  0
 26 28  2  0  0  0  0
 27 29  2  0  0  0  0
 29 24  2  0  0  0  0
 30 24  1  0  0  0  0
 30 31  1  0  0  0  0
 31 26  1  0  0  0  0
 33 32  1  0  0  0  0
 34 35  1  0  0  0  0
 35 37  1  0  0  0  0
 35 36  2  0  0  0  0
M  END
>  <MODEL>
8

>  <REMARK>
 VINA RESULT:      -4.1      4.468      7.348
  Name = 
  4 active torsions:
  status: ('A' for Active; 'I' for Inactive)
    1  A    between atoms: C_6  and  C_16
    2  A    between atoms: C_7  and  C_16
    3  A    between atoms: C_8  and  N_32
    4  A    between atoms: C_30  and  C_33
                            x       y       z     vdW  Elec       q    Type
                         _______ _______ _______ _____ _____    ______ ____

>  <TORSDO>
F 4

$$$$
