=
 OpenBabel10222415273D

 31 34  0  0  1  0  0  0  0  0999 V2000
  184.2420  178.0010  140.4150 C   0  0  0  0  0  2  0  0  0  0  0  0
  184.0560  178.5040  142.8590 C   0  0  0  0  0  0  0  0  0  0  0  0
  185.6800  178.9170  146.7820 C   0  0  0  0  0  1  0  0  0  0  0  0
  181.4840  178.0330  139.0150 N   0  0  0  0  0  2  0  0  0  0  0  0
  181.9600  178.2520  141.5470 C   0  0  0  0  0  0  0  0  0  0  0  0
  182.3080  179.2470  137.2200 O   0  0  0  0  0  0  0  0  0  0  0  0
  180.3860  176.7720  140.6110 O   0  0  0  0  0  0  0  0  0  0  0  0
  183.7320  179.0030  145.2370 C   0  0  0  0  0  2  0  0  0  0  0  0
  186.0060  178.5320  144.3450 C   0  0  0  0  0  3  0  0  0  0  0  0
  183.4530  178.2550  141.6640 C   0  0  1  0  0  3  0  0  0  0  0  0
  183.3480  181.2100  138.7190 O   0  0  0  0  0  1  0  0  0  0  0  0
  183.2000  178.8620  144.0240 C   0  0  0  0  0  0  0  0  0  0  0  0
  185.5380  178.4000  143.0960 C   0  0  0  0  0  0  0  0  0  0  0  0
  182.2770  179.0970  138.4710 C   0  0  0  0  0  0  0  0  0  0  0  0
  181.7610  179.2190  143.8360 C   0  0  0  0  0  2  0  0  0  0  0  0
  181.2570  177.6520  140.3840 C   0  0  0  0  0  0  0  0  0  0  0  0
  183.1200  179.9800  139.3370 C   0  0  1  0  0  3  0  0  0  0  0  0
  185.1300  178.7920  145.4450 N   0  0  0  0  0  0  0  0  0  0  0  0
  184.4500  179.3050  139.6480 C   0  0  0  0  0  2  0  0  0  0  0  0
  181.2010  178.6310  142.5810 C   0  0  0  0  0  3  0  0  0  0  0  0
  188.4510  177.8710  143.2040 O   0  0  0  0  0  0  0  0  0  0  0  0
  186.4490  178.1460  142.0130 N   0  0  0  0  0  2  0  0  0  0  0  0
  187.8620  177.8940  142.0860 C   0  0  0  0  0  0  0  0  0  0  0  0
  190.6340  176.8880  138.4660 C   0  0  0  0  0  0  0  0  0  0  0  0
  191.7040  176.3780  137.6800 N   0  0  0  0  0  1  0  0  0  0  0  0
  189.7460  176.9440  140.9220 C   0  0  0  0  0  3  0  0  0  0  0  0
  188.0850  178.2530  139.6100 C   0  0  0  0  0  3  0  0  0  0  0  0
  189.7170  177.5840  137.8690 N   0  0  0  0  0  0  0  0  0  0  0  0
  188.5370  178.2220  138.3620 C   0  0  0  0  0  3  0  0  0  0  0  0
  190.6390  176.5980  139.8650 N   0  0  0  0  0  2  0  0  0  0  0  0
  188.6270  177.6640  140.8410 C   0  0  0  0  0  0  0  0  0  0  0  0
  2 13  1  0  0  0  0
  2 12  2  0  0  0  0
  4 16  1  0  0  0  0
  5 10  1  0  0  0  0
  5 20  2  0  0  0  0
  6 14  2  0  0  0  0
  8 18  1  0  0  0  0
  9 18  1  0  0  0  0
 10  1  1  6  0  0  0
 10  2  1  0  0  0  0
 12  8  1  0  0  0  0
 13  9  2  0  0  0  0
 14  4  1  0  0  0  0
 14 17  1  0  0  0  0
 15 12  1  0  0  0  0
 16  7  2  0  0  0  0
 16  5  1  0  0  0  0
 17 11  1  6  0  0  0
 17 19  1  0  0  0  0
 18  3  1  0  0  0  0
 19  1  1  0  0  0  0
 20 15  1  0  0  0  0
 22 23  1  0  0  0  0
 22 13  1  0  0  0  0
 23 21  2  0  0  0  0
 24 30  1  0  0  0  0
 25 24  1  0  0  0  0
 27 31  1  0  0  0  0
 28 29  1  0  0  0  0
 28 24  2  0  0  0  0
 29 27  2  0  0  0  0
 30 26  1  0  0  0  0
 31 26  2  0  0  0  0
 31 23  1  0  0  0  0
M  END
>  <MODEL>
1

>  <REMARK>
 VINA RESULT:      -8.7      0.000      0.000
  Name = 
  2 active torsions:
  status: ('A' for Active; 'I' for Inactive)
    1  A    between atoms: C_19  and  N_26
    2  A    between atoms: C_27  and  C_31
                            x       y       z     vdW  Elec       q    Type
                         _______ _______ _______ _____ _____    ______ ____

>  <TORSDO>
F 2

$$$$
=
 OpenBabel10222415273D

 31 34  0  0  1  0  0  0  0  0999 V2000
  183.3430  178.2810  139.7410 C   0  0  0  0  0  2  0  0  0  0  0  0
  183.5110  178.6240  142.2150 C   0  0  0  0  0  0  0  0  0  0  0  0
  185.6830  178.7980  145.8820 C   0  0  0  0  0  1  0  0  0  0  0  0
  180.4130  178.3780  138.7570 N   0  0  0  0  0  2  0  0  0  0  0  0
  181.2480  178.4380  141.2030 C   0  0  0  0  0  0  0  0  0  0  0  0
  180.9700  179.7130  136.9450 O   0  0  0  0  0  0  0  0  0  0  0  0
  179.5550  177.0070  140.4090 O   0  0  0  0  0  0  0  0  0  0  0  0
  183.5330  178.9660  144.6420 C   0  0  0  0  0  2  0  0  0  0  0  0
  185.6540  178.5740  143.4040 C   0  0  0  0  0  3  0  0  0  0  0  0
  182.7420  178.4470  141.1050 C   0  0  1  0  0  3  0  0  0  0  0  0
  182.2160  181.5850  138.4030 O   0  0  0  0  0  1  0  0  0  0  0  0
  182.8310  178.8980  143.5110 C   0  0  0  0  0  0  0  0  0  0  0  0
  185.0120  178.5180  142.2290 C   0  0  0  0  0  0  0  0  0  0  0  0
  181.1200  179.4820  138.1750 C   0  0  0  0  0  0  0  0  0  0  0  0
  181.3810  179.2540  143.5560 C   0  0  0  0  0  2  0  0  0  0  0  0
  180.3850  177.9080  140.1170 C   0  0  0  0  0  0  0  0  0  0  0  0
  182.0780  180.3150  138.9670 C   0  0  1  0  0  3  0  0  0  0  0  0
  184.9460  178.7540  144.6330 N   0  0  0  0  0  0  0  0  0  0  0  0
  183.4390  179.6330  139.0390 C   0  0  0  0  0  2  0  0  0  0  0  0
  180.6450  178.7430  142.3590 C   0  0  0  0  0  3  0  0  0  0  0  0
  187.9400  178.6570  141.8090 O   0  0  0  0  0  0  0  0  0  0  0  0
  185.7570  178.3420  141.0120 N   0  0  0  0  0  2  0  0  0  0  0  0
  187.1800  178.4170  140.8290 C   0  0  0  0  0  0  0  0  0  0  0  0
  188.4770  177.8260  136.3820 C   0  0  0  0  0  0  0  0  0  0  0  0
  188.4410  177.7020  134.9660 N   0  0  0  0  0  1  0  0  0  0  0  0
  186.9220  178.2420  138.4390 C   0  0  0  0  0  3  0  0  0  0  0  0
  189.2040  177.9960  139.4010 C   0  0  0  0  0  3  0  0  0  0  0  0
  189.6250  177.7120  136.9760 N   0  0  0  0  0  0  0  0  0  0  0  0
  189.9930  177.7850  138.3540 C   0  0  0  0  0  3  0  0  0  0  0  0
  187.2430  178.0700  137.0600 N   0  0  0  0  0  2  0  0  0  0  0  0
  187.7530  178.2140  139.4800 C   0  0  0  0  0  0  0  0  0  0  0  0
  2 13  1  0  0  0  0
  2 12  2  0  0  0  0
  4 16  1  0  0  0  0
  5 20  2  0  0  0  0
  6 14  2  0  0  0  0
  9 18  1  0  0  0  0
 10  1  1  6  0  0  0
 10  5  1  0  0  0  0
 10  2  1  0  0  0  0
 12 15  1  0  0  0  0
 12  8  1  0  0  0  0
 13  9  2  0  0  0  0
 14  4  1  0  0  0  0
 14 17  1  0  0  0  0
 16  7  2  0  0  0  0
 16  5  1  0  0  0  0
 17 11  1  6  0  0  0
 17 19  1  0  0  0  0
 18  8  1  0  0  0  0
 18  3  1  0  0  0  0
 19  1  1  0  0  0  0
 20 15  1  0  0  0  0
 22 13  1  0  0  0  0
 23 22  1  0  0  0  0
 23 21  2  0  0  0  0
 24 28  2  0  0  0  0
 24 30  1  0  0  0  0
 25 24  1  0  0  0  0
 26 31  2  0  0  0  0
 27 31  1  0  0  0  0
 28 29  1  0  0  0  0
 29 27  2  0  0  0  0
 30 26  1  0  0  0  0
 31 23  1  0  0  0  0
M  END
>  <MODEL>
2

>  <REMARK>
 VINA RESULT:      -8.0      1.285      1.802
  Name = 
  2 active torsions:
  status: ('A' for Active; 'I' for Inactive)
    1  A    between atoms: C_19  and  N_26
    2  A    between atoms: C_27  and  C_31
                            x       y       z     vdW  Elec       q    Type
                         _______ _______ _______ _____ _____    ______ ____

>  <TORSDO>
F 2

$$$$
=
 OpenBabel10222415273D

 31 34  0  0  1  0  0  0  0  0999 V2000
  183.7000  177.5050  140.7700 C   0  0  0  0  0  2  0  0  0  0  0  0
  181.5220  178.3970  141.6200 C   0  0  0  0  0  0  0  0  0  0  0  0
  178.9310  179.7570  144.7230 C   0  0  0  0  0  1  0  0  0  0  0  0
  183.5790  176.8430  137.7510 N   0  0  0  0  0  2  0  0  0  0  0  0
  181.6250  177.5830  139.2730 C   0  0  0  0  0  0  0  0  0  0  0  0
  185.6380  177.8370  137.3580 O   0  0  0  0  0  0  0  0  0  0  0  0
  181.5580  175.7260  137.8260 O   0  0  0  0  0  0  0  0  0  0  0  0
  179.3340  179.2520  142.3210 C   0  0  0  0  0  2  0  0  0  0  0  0
  181.1790  179.0030  143.9700 C   0  0  0  0  0  3  0  0  0  0  0  0
  182.2490  177.8470  140.6090 C   0  0  1  0  0  3  0  0  0  0  0  0
  184.9940  180.1760  138.4960 O   0  0  0  0  0  1  0  0  0  0  0  0
  180.1190  178.8140  141.3380 C   0  0  0  0  0  0  0  0  0  0  0  0
  182.0280  178.5770  143.0250 C   0  0  0  0  0  0  0  0  0  0  0  0
  184.5220  177.9080  137.9410 C   0  0  0  0  0  0  0  0  0  0  0  0
  179.6120  178.8960  139.9360 C   0  0  0  0  0  2  0  0  0  0  0  0
  182.2480  176.6810  138.2710 C   0  0  0  0  0  0  0  0  0  0  0  0
  184.2470  179.0540  138.8630 C   0  0  1  0  0  3  0  0  0  0  0  0
  179.8160  179.3090  143.6650 N   0  0  0  0  0  0  0  0  0  0  0  0
  184.5710  178.6680  140.3010 C   0  0  0  0  0  2  0  0  0  0  0  0
  180.3850  178.0120  139.0110 C   0  0  0  0  0  3  0  0  0  0  0  0
  183.5290  179.3150  145.4690 O   0  0  0  0  0  0  0  0  0  0  0  0
  183.3940  178.2840  143.3670 N   0  0  0  0  0  2  0  0  0  0  0  0
  184.1050  178.6560  144.5590 C   0  0  0  0  0  0  0  0  0  0  0  0
  188.5140  177.5090  145.5850 C   0  0  0  0  0  0  0  0  0  0  0  0
  189.7160  177.2570  146.3020 N   0  0  0  0  0  1  0  0  0  0  0  0
  186.0420  178.2750  145.9410 C   0  0  0  0  0  3  0  0  0  0  0  0
  186.2450  177.8840  143.4920 C   0  0  0  0  0  3  0  0  0  0  0  0
  188.5210  177.3320  144.3000 N   0  0  0  0  0  0  0  0  0  0  0  0
  187.5020  177.4930  143.3130 C   0  0  0  0  0  3  0  0  0  0  0  0
  187.3730  177.9400  146.3290 N   0  0  0  0  0  2  0  0  0  0  0  0
  185.5230  178.2610  144.7140 C   0  0  0  0  0  0  0  0  0  0  0  0
  2 13  1  0  0  0  0
  4 14  1  0  0  0  0
  4 16  1  0  0  0  0
  5 10  1  0  0  0  0
  6 14  2  0  0  0  0
  7 16  2  0  0  0  0
  8 18  1  0  0  0  0
 10  1  1  6  0  0  0
 10  2  1  0  0  0  0
 12  2  2  0  0  0  0
 12  8  1  0  0  0  0
 13 22  1  0  0  0  0
 13  9  2  0  0  0  0
 14 17  1  0  0  0  0
 15 12  1  0  0  0  0
 16  5  1  0  0  0  0
 17 11  1  6  0  0  0
 17 19  1  0  0  0  0
 18  9  1  0  0  0  0
 18  3  1  0  0  0  0
 19  1  1  0  0  0  0
 20  5  2  0  0  0  0
 20 15  1  0  0  0  0
 22 23  1  0  0  0  0
 23 31  1  0  0  0  0
 23 21  2  0  0  0  0
 24 25  1  0  0  0  0
 24 30  1  0  0  0  0
 26 30  1  0  0  0  0
 27 31  1  0  0  0  0
 28 24  2  0  0  0  0
 29 27  2  0  0  0  0
 29 28  1  0  0  0  0
 31 26  2  0  0  0  0
M  END
>  <MODEL>
3

>  <REMARK>
 VINA RESULT:      -7.8      3.105      4.649
  Name = 
  2 active torsions:
  status: ('A' for Active; 'I' for Inactive)
    1  A    between atoms: C_19  and  N_26
    2  A    between atoms: C_27  and  C_31
                            x       y       z     vdW  Elec       q    Type
                         _______ _______ _______ _____ _____    ______ ____

>  <TORSDO>
F 2

$$$$
=
 OpenBabel10222415273D

 31 34  0  0  1  0  0  0  0  0999 V2000
  186.7800  177.8710  137.6820 C   0  0  0  0  0  2  0  0  0  0  0  0
  188.5660  177.6610  139.4220 C   0  0  0  0  0  0  0  0  0  0  0  0
  190.1440  178.2940  143.3340 C   0  0  0  0  0  1  0  0  0  0  0  0
  187.7110  176.7970  134.9350 N   0  0  0  0  0  2  0  0  0  0  0  0
  189.1350  177.0710  137.0750 C   0  0  0  0  0  0  0  0  0  0  0  0
  185.7100  175.6750  134.5940 O   0  0  0  0  0  0  0  0  0  0  0  0
  189.7690  177.8500  134.9450 O   0  0  0  0  0  0  0  0  0  0  0  0
  190.4020  177.4020  141.0260 C   0  0  0  0  0  2  0  0  0  0  0  0
  188.2510  178.4380  141.7250 C   0  0  0  0  0  3  0  0  0  0  0  0
  188.1770  177.5500  138.1220 C   0  0  1  0  0  3  0  0  0  0  0  0
  185.7800  174.3500  136.9220 O   0  0  0  0  0  1  0  0  0  0  0  0
  189.9360  177.2100  139.7920 C   0  0  0  0  0  0  0  0  0  0  0  0
  187.7140  178.2530  140.5120 C   0  0  0  0  0  0  0  0  0  0  0  0
  186.6330  175.9710  135.4000 C   0  0  0  0  0  0  0  0  0  0  0  0
  190.7580  176.4000  138.8440 C   0  0  0  0  0  2  0  0  0  0  0  0
  188.8850  177.2630  135.6240 C   0  0  0  0  0  0  0  0  0  0  0  0
  186.5400  175.5180  136.8220 C   0  0  1  0  0  3  0  0  0  0  0  0
  189.6030  178.0650  142.0080 N   0  0  0  0  0  0  0  0  0  0  0  0
  185.9210  176.6090  137.6870 C   0  0  0  0  0  2  0  0  0  0  0  0
  190.3430  176.6130  137.4240 C   0  0  0  0  0  3  0  0  0  0  0  0
  185.3410  177.8850  142.2460 O   0  0  0  0  0  0  0  0  0  0  0  0
  186.3500  178.6340  140.2660 N   0  0  0  0  0  2  0  0  0  0  0  0
  185.2110  178.4430  141.1200 C   0  0  0  0  0  0  0  0  0  0  0  0
  180.8080  179.6720  140.1690 C   0  0  0  0  0  0  0  0  0  0  0  0
  179.4000  179.8490  140.2640 N   0  0  0  0  0  1  0  0  0  0  0  0
  182.8340  178.6500  141.4620 C   0  0  0  0  0  3  0  0  0  0  0  0
  183.8170  179.6070  139.3850 C   0  0  0  0  0  3  0  0  0  0  0  0
  181.4110  180.1390  139.1190 N   0  0  0  0  0  0  0  0  0  0  0  0
  182.7850  180.1280  138.7300 C   0  0  0  0  0  3  0  0  0  0  0  0
  181.4680  178.9930  141.2380 N   0  0  0  0  0  2  0  0  0  0  0  0
  183.8780  178.9030  140.6730 C   0  0  0  0  0  0  0  0  0  0  0  0
  1 19  1  0  0  0  0
  2 12  2  0  0  0  0
  2 13  1  0  0  0  0
  4 14  1  0  0  0  0
  4 16  1  0  0  0  0
  5 20  2  0  0  0  0
  5 10  1  0  0  0  0
  6 14  2  0  0  0  0
  7 16  2  0  0  0  0
  8 18  1  0  0  0  0
  9 18  1  0  0  0  0
 10  1  1  1  0  0  0
 10  2  1  0  0  0  0
 12  8  1  0  0  0  0
 13  9  2  0  0  0  0
 14 17  1  0  0  0  0
 15 12  1  0  0  0  0
 16  5  1  0  0  0  0
 17 11  1  6  0  0  0
 17 19  1  0  0  0  0
 18  3  1  0  0  0  0
 20 15  1  0  0  0  0
 22 13  1  0  0  0  0
 22 23  1  0  0  0  0
 23 21  2  0  0  0  0
 24 25  1  0  0  0  0
 24 30  1  0  0  0  0
 27 31  1  0  0  0  0
 28 24  2  0  0  0  0
 29 28  1  0  0  0  0
 29 27  2  0  0  0  0
 30 26  1  0  0  0  0
 31 23  1  0  0  0  0
 31 26  2  0  0  0  0
M  END
>  <MODEL>
4

>  <REMARK>
 VINA RESULT:      -7.4      2.982      7.269
  Name = 
  2 active torsions:
  status: ('A' for Active; 'I' for Inactive)
    1  A    between atoms: C_19  and  N_26
    2  A    between atoms: C_27  and  C_31
                            x       y       z     vdW  Elec       q    Type
                         _______ _______ _______ _____ _____    ______ ____

>  <TORSDO>
F 2

$$$$
=
 OpenBabel10222415273D

 31 34  0  0  1  0  0  0  0  0999 V2000
  190.8150  176.2790  140.3800 C   0  0  0  0  0  2  0  0  0  0  0  0
  188.8340  177.3000  139.2400 C   0  0  0  0  0  0  0  0  0  0  0  0
  185.0230  179.2140  139.2480 C   0  0  0  0  0  1  0  0  0  0  0  0
  192.8010  175.0420  138.3580 N   0  0  0  0  0  2  0  0  0  0  0  0
  190.4730  176.0460  137.8530 C   0  0  0  0  0  0  0  0  0  0  0  0
  194.6280  175.9570  139.4540 O   0  0  0  0  0  0  0  0  0  0  0  0
  191.2100  173.9430  137.0920 O   0  0  0  0  0  0  0  0  0  0  0  0
  186.9490  178.2560  137.9990 C   0  0  0  0  0  2  0  0  0  0  0  0
  187.0010  178.3470  140.4840 C   0  0  0  0  0  3  0  0  0  0  0  0
  189.9810  176.5700  139.1680 C   0  0  1  0  0  3  0  0  0  0  0  0
  193.6900  178.4670  139.4240 O   0  0  0  0  0  1  0  0  0  0  0  0
  188.1310  177.6420  137.9720 C   0  0  0  0  0  0  0  0  0  0  0  0
  188.2010  177.7530  140.5270 C   0  0  0  0  0  0  0  0  0  0  0  0
  193.4560  176.1310  139.0230 C   0  0  0  0  0  0  0  0  0  0  0  0
  188.7970  177.4460  136.6500 C   0  0  0  0  0  2  0  0  0  0  0  0
  191.4940  174.9720  137.7600 C   0  0  0  0  0  0  0  0  0  0  0  0
  192.7640  177.4320  139.2820 C   0  0  1  0  0  3  0  0  0  0  0  0
  186.3260  178.5770  139.2440 N   0  0  0  0  0  0  0  0  0  0  0  0
  191.9050  177.3350  140.5370 C   0  0  0  0  0  2  0  0  0  0  0  0
  189.8690  176.4050  136.7150 C   0  0  0  0  0  3  0  0  0  0  0  0
  186.9990  177.0580  143.1430 O   0  0  0  0  0  0  0  0  0  0  0  0
  188.8530  177.5440  141.7910 N   0  0  0  0  0  2  0  0  0  0  0  0
  188.2500  177.2100  143.0520 C   0  0  0  0  0  0  0  0  0  0  0  0
  191.3450  176.5430  146.4840 C   0  0  0  0  0  0  0  0  0  0  0  0
  192.5430  176.2370  147.1870 N   0  0  0  0  0  1  0  0  0  0  0  0
  190.3650  176.6580  144.0650 C   0  0  0  0  0  3  0  0  0  0  0  0
  188.4850  177.3310  145.5500 C   0  0  0  0  0  3  0  0  0  0  0  0
  190.3080  176.9050  147.1740 N   0  0  0  0  0  0  0  0  0  0  0  0
  188.9860  177.2730  146.7800 C   0  0  0  0  0  3  0  0  0  0  0  0
  191.3630  176.4340  145.0600 N   0  0  0  0  0  2  0  0  0  0  0  0
  189.1040  177.0470  144.2490 C   0  0  0  0  0  0  0  0  0  0  0  0
  1 19  1  0  0  0  0
  2 13  1  0  0  0  0
  4 14  1  0  0  0  0
  5 10  1  0  0  0  0
  7 16  2  0  0  0  0
  8 18  1  0  0  0  0
  9 13  2  0  0  0  0
 10  2  1  0  0  0  0
 10  1  1  6  0  0  0
 12  8  1  0  0  0  0
 12  2  2  0  0  0  0
 13 22  1  0  0  0  0
 14 17  1  0  0  0  0
 14  6  2  0  0  0  0
 15 20  1  0  0  0  0
 15 12  1  0  0  0  0
 16  5  1  0  0  0  0
 16  4  1  0  0  0  0
 17 11  1  1  0  0  0
 17 19  1  0  0  0  0
 18  3  1  0  0  0  0
 18  9  1  0  0  0  0
 20  5  2  0  0  0  0
 22 23  1  0  0  0  0
 23 21  2  0  0  0  0
 23 31  1  0  0  0  0
 24 28  2  0  0  0  0
 24 25  1  0  0  0  0
 26 31  2  0  0  0  0
 26 30  1  0  0  0  0
 27 29  2  0  0  0  0
 29 28  1  0  0  0  0
 30 24  1  0  0  0  0
 31 27  1  0  0  0  0
M  END
>  <MODEL>
5

>  <REMARK>
 VINA RESULT:      -7.2      3.885      8.192
  Name = 
  2 active torsions:
  status: ('A' for Active; 'I' for Inactive)
    1  A    between atoms: C_19  and  N_26
    2  A    between atoms: C_27  and  C_31
                            x       y       z     vdW  Elec       q    Type
                         _______ _______ _______ _____ _____    ______ ____

>  <TORSDO>
F 2

$$$$
=
 OpenBabel10222415273D

 31 34  0  0  1  0  0  0  0  0999 V2000
  182.1880  179.2900  142.9160 C   0  0  0  0  0  2  0  0  0  0  0  0
  182.7470  178.7120  140.5460 C   0  0  0  0  0  0  0  0  0  0  0  0
  185.4480  177.5200  137.4680 C   0  0  0  0  0  1  0  0  0  0  0  0
  179.2680  180.2660  143.2100 N   0  0  0  0  0  2  0  0  0  0  0  0
  180.5280  179.7300  141.0180 C   0  0  0  0  0  0  0  0  0  0  0  0
  178.9310  178.9730  145.1050 O   0  0  0  0  0  0  0  0  0  0  0  0
  179.3080  181.7070  141.4040 O   0  0  0  0  0  0  0  0  0  0  0  0
  183.1620  178.1870  138.1880 C   0  0  0  0  0  2  0  0  0  0  0  0
  184.9740  177.9410  139.8740 C   0  0  0  0  0  3  0  0  0  0  0  0
  181.8700  179.2270  141.4520 C   0  0  1  0  0  3  0  0  0  0  0  0
  179.7300  176.6790  143.9730 O   0  0  0  0  0  1  0  0  0  0  0  0
  182.3050  178.5790  139.1300 C   0  0  0  0  0  0  0  0  0  0  0  0
  184.1580  178.3050  140.8720 C   0  0  0  0  0  0  0  0  0  0  0  0
  179.4080  179.0390  143.9400 C   0  0  0  0  0  0  0  0  0  0  0  0
  180.8660  178.7290  138.7590 C   0  0  0  0  0  2  0  0  0  0  0  0
  179.6930  180.6060  141.8780 C   0  0  0  0  0  0  0  0  0  0  0  0
  180.1640  177.8710  143.3890 C   0  0  1  0  0  3  0  0  0  0  0  0
  184.5250  177.9110  138.5170 N   0  0  0  0  0  0  0  0  0  0  0  0
  181.6580  178.0470  143.6260 C   0  0  0  0  0  2  0  0  0  0  0  0
  180.1170  179.5540  139.7570 C   0  0  0  0  0  3  0  0  0  0  0  0
  186.9520  178.1800  141.8460 O   0  0  0  0  0  0  0  0  0  0  0  0
  184.6420  178.3170  142.2260 N   0  0  0  0  0  2  0  0  0  0  0  0
  186.0040  178.2520  142.6780 C   0  0  0  0  0  0  0  0  0  0  0  0
  187.4010  178.0860  147.1310 C   0  0  0  0  0  0  0  0  0  0  0  0
  188.1860  177.8690  148.2970 N   0  0  0  0  0  1  0  0  0  0  0  0
  187.4800  177.8200  144.5330 C   0  0  0  0  0  3  0  0  0  0  0  0
  185.2360  178.7840  145.0100 C   0  0  0  0  0  3  0  0  0  0  0  0
  186.2140  178.5870  147.2790 N   0  0  0  0  0  0  0  0  0  0  0  0
  185.1980  178.9190  146.3310 C   0  0  0  0  0  3  0  0  0  0  0  0
  187.9740  177.7390  145.8690 N   0  0  0  0  0  2  0  0  0  0  0  0
  186.2930  178.2690  144.1300 C   0  0  0  0  0  0  0  0  0  0  0  0
  1 19  1  0  0  0  0
  2 13  1  0  0  0  0
  2 10  1  0  0  0  0
  3 18  1  0  0  0  0
  4 14  1  0  0  0  0
  5 10  1  0  0  0  0
  5 16  1  0  0  0  0
  7 16  2  0  0  0  0
  8 18  1  0  0  0  0
  8 12  1  0  0  0  0
  9 13  2  0  0  0  0
 10  1  1  1  0  0  0
 12  2  2  0  0  0  0
 13 22  1  0  0  0  0
 14  6  2  0  0  0  0
 15 12  1  0  0  0  0
 15 20  1  0  0  0  0
 16  4  1  0  0  0  0
 17 19  1  0  0  0  0
 17 14  1  0  0  0  0
 17 11  1  1  0  0  0
 18  9  1  0  0  0  0
 20  5  2  0  0  0  0
 21 23  2  0  0  0  0
 22 23  1  0  0  0  0
 23 31  1  0  0  0  0
 24 28  2  0  0  0  0
 24 25  1  0  0  0  0
 26 30  1  0  0  0  0
 27 29  2  0  0  0  0
 29 28  1  0  0  0  0
 30 24  1  0  0  0  0
 31 26  2  0  0  0  0
 31 27  1  0  0  0  0
M  END
>  <MODEL>
6

>  <REMARK>
 VINA RESULT:      -6.9      3.206      6.013
  Name = 
  2 active torsions:
  status: ('A' for Active; 'I' for Inactive)
    1  A    between atoms: C_19  and  N_26
    2  A    between atoms: C_27  and  C_31
                            x       y       z     vdW  Elec       q    Type
                         _______ _______ _______ _____ _____    ______ ____

>  <TORSDO>
F 2

$$$$
=
 OpenBabel10222415273D

 31 34  0  0  1  0  0  0  0  0999 V2000
  191.0210  175.3640  138.6780 C   0  0  0  0  0  2  0  0  0  0  0  0
  189.1640  176.0680  137.1540 C   0  0  0  0  0  0  0  0  0  0  0  0
  185.3340  177.7770  136.3780 C   0  0  0  0  0  1  0  0  0  0  0  0
  193.2590  173.8670  137.1580 N   0  0  0  0  0  2  0  0  0  0  0  0
  190.9840  174.6550  136.2180 C   0  0  0  0  0  0  0  0  0  0  0  0
  194.9230  175.0500  138.2580 O   0  0  0  0  0  0  0  0  0  0  0  0
  191.8540  172.4830  135.9530 O   0  0  0  0  0  0  0  0  0  0  0  0
  187.4160  176.6930  135.5540 C   0  0  0  0  0  2  0  0  0  0  0  0
  187.1730  177.2430  137.9670 C   0  0  0  0  0  3  0  0  0  0  0  0
  190.3290  175.3890  137.3480 C   0  0  1  0  0  3  0  0  0  0  0  0
  193.9360  177.4660  137.6520 O   0  0  0  0  0  1  0  0  0  0  0  0
  188.6070  176.1380  135.7740 C   0  0  0  0  0  0  0  0  0  0  0  0
  188.3740  176.7220  138.2540 C   0  0  0  0  0  0  0  0  0  0  0  0
  193.8060  175.0880  137.6750 C   0  0  0  0  0  0  0  0  0  0  0  0
  189.4280  175.7320  134.5940 C   0  0  0  0  0  2  0  0  0  0  0  0
  192.0340  173.6290  136.4430 C   0  0  0  0  0  0  0  0  0  0  0  0
  193.0570  176.3820  137.6060 C   0  0  1  0  0  3  0  0  0  0  0  0
  186.6430  177.2090  136.6390 N   0  0  0  0  0  0  0  0  0  0  0  0
  192.0600  176.4800  138.7530 C   0  0  0  0  0  2  0  0  0  0  0  0
  190.5090  174.7710  134.9730 C   0  0  0  0  0  3  0  0  0  0  0  0
  188.3330  178.9910  140.1570 O   0  0  0  0  0  0  0  0  0  0  0  0
  188.8770  176.7790  139.5990 N   0  0  0  0  0  2  0  0  0  0  0  0
  188.8510  177.8930  140.5070 C   0  0  0  0  0  0  0  0  0  0  0  0
  190.1860  177.4420  144.9580 C   0  0  0  0  0  0  0  0  0  0  0  0
  190.1590  177.3160  146.3750 N   0  0  0  0  0  1  0  0  0  0  0  0
  188.6030  177.6830  142.8950 C   0  0  0  0  0  3  0  0  0  0  0  0
  190.9020  177.6860  141.9420 C   0  0  0  0  0  3  0  0  0  0  0  0
  191.3420  177.4530  144.3690 N   0  0  0  0  0  0  0  0  0  0  0  0
  191.7050  177.5620  142.9920 C   0  0  0  0  0  3  0  0  0  0  0  0
  188.9360  177.5470  144.2740 N   0  0  0  0  0  2  0  0  0  0  0  0
  189.4370  177.7480  141.8570 C   0  0  0  0  0  0  0  0  0  0  0  0
  1 19  1  0  0  0  0
  2 10  1  0  0  0  0
  2 13  1  0  0  0  0
  3 18  1  0  0  0  0
  4 14  1  0  0  0  0
  5 16  1  0  0  0  0
  5 10  1  0  0  0  0
  7 16  2  0  0  0  0
  8 12  1  0  0  0  0
  8 18  1  0  0  0  0
  9 13  2  0  0  0  0
 10  1  1  6  0  0  0
 12  2  2  0  0  0  0
 13 22  1  0  0  0  0
 14  6  2  0  0  0  0
 15 20  1  0  0  0  0
 15 12  1  0  0  0  0
 16  4  1  0  0  0  0
 17 11  1  1  0  0  0
 17 14  1  0  0  0  0
 17 19  1  0  0  0  0
 18  9  1  0  0  0  0
 20  5  2  0  0  0  0
 21 23  2  0  0  0  0
 22 23  1  0  0  0  0
 23 31  1  0  0  0  0
 24 25  1  0  0  0  0
 26 30  1  0  0  0  0
 27 29  2  0  0  0  0
 28 24  2  0  0  0  0
 29 28  1  0  0  0  0
 30 24  1  0  0  0  0
 31 27  1  0  0  0  0
 31 26  2  0  0  0  0
M  END
>  <MODEL>
7

>  <REMARK>
 VINA RESULT:      -6.9      4.545      8.991
  Name = 
  2 active torsions:
  status: ('A' for Active; 'I' for Inactive)
    1  A    between atoms: C_19  and  N_26
    2  A    between atoms: C_27  and  C_31
                            x       y       z     vdW  Elec       q    Type
                         _______ _______ _______ _____ _____    ______ ____

>  <TORSDO>
F 2

$$$$
=
 OpenBabel10222415273D

 31 34  0  0  1  0  0  0  0  0999 V2000
  186.0370  178.6040  139.2120 C   0  0  0  0  0  2  0  0  0  0  0  0
  187.6320  177.9380  141.0210 C   0  0  0  0  0  0  0  0  0  0  0  0
  188.6740  177.2590  145.1010 C   0  0  0  0  0  1  0  0  0  0  0  0
  187.3980  178.6710  136.4360 N   0  0  0  0  0  2  0  0  0  0  0  0
  188.5290  178.2800  138.7280 C   0  0  0  0  0  0  0  0  0  0  0  0
  185.6150  177.5790  135.4340 O   0  0  0  0  0  0  0  0  0  0  0  0
  189.2830  179.8220  137.1160 O   0  0  0  0  0  0  0  0  0  0  0  0
  189.2990  177.2800  142.6940 C   0  0  0  0  0  2  0  0  0  0  0  0
  186.9660  177.8070  143.3760 C   0  0  0  0  0  3  0  0  0  0  0  0
  187.4070  178.2670  139.7200 C   0  0  1  0  0  3  0  0  0  0  0  0
  185.6050  175.5180  137.1480 O   0  0  0  0  0  1  0  0  0  0  0  0
  189.0020  177.5030  141.4140 C   0  0  0  0  0  0  0  0  0  0  0  0
  186.5950  178.0240  142.1070 C   0  0  0  0  0  0  0  0  0  0  0  0
  186.3960  177.6440  136.4220 C   0  0  0  0  0  0  0  0  0  0  0  0
  190.0240  177.1610  140.3800 C   0  0  0  0  0  2  0  0  0  0  0  0
  188.4160  178.9580  137.4120 C   0  0  0  0  0  0  0  0  0  0  0  0
  186.2080  176.7040  137.5710 C   0  0  1  0  0  3  0  0  0  0  0  0
  188.3160  177.4750  143.7120 N   0  0  0  0  0  0  0  0  0  0  0  0
  185.3590  177.3550  138.6550 C   0  0  0  0  0  2  0  0  0  0  0  0
  189.7420  177.8340  139.0750 C   0  0  0  0  0  3  0  0  0  0  0  0
  184.2940  178.2700  143.9560 O   0  0  0  0  0  0  0  0  0  0  0  0
  185.2280  178.3490  141.8060 N   0  0  0  0  0  2  0  0  0  0  0  0
  184.1230  178.4610  142.7190 C   0  0  0  0  0  0  0  0  0  0  0  0
  180.0940  179.4580  140.5810 C   0  0  0  0  0  0  0  0  0  0  0  0
  179.1130  179.6830  139.5760 N   0  0  0  0  0  1  0  0  0  0  0  0
  182.6020  178.7930  140.8790 C   0  0  0  0  0  3  0  0  0  0  0  0
  181.7450  179.1150  143.1940 C   0  0  0  0  0  3  0  0  0  0  0  0
  179.7400  179.6010  141.8210 N   0  0  0  0  0  0  0  0  0  0  0  0
  180.4690  179.4520  143.0400 C   0  0  0  0  0  3  0  0  0  0  0  0
  181.4070  179.0860  140.1590 N   0  0  0  0  0  2  0  0  0  0  0  0
  182.7800  178.7990  142.2000 C   0  0  0  0  0  0  0  0  0  0  0  0
  2 12  2  0  0  0  0
  2 13  1  0  0  0  0
  4 16  1  0  0  0  0
  5 20  2  0  0  0  0
  5 10  1  0  0  0  0
  6 14  2  0  0  0  0
  7 16  2  0  0  0  0
  8 18  1  0  0  0  0
  9 18  1  0  0  0  0
 10  1  1  6  0  0  0
 10  2  1  0  0  0  0
 12  8  1  0  0  0  0
 13  9  2  0  0  0  0
 14  4  1  0  0  0  0
 14 17  1  0  0  0  0
 15 12  1  0  0  0  0
 16  5  1  0  0  0  0
 17 11  1  6  0  0  0
 17 19  1  0  0  0  0
 18  3  1  0  0  0  0
 19  1  1  0  0  0  0
 20 15  1  0  0  0  0
 22 13  1  0  0  0  0
 22 23  1  0  0  0  0
 23 21  2  0  0  0  0
 24 28  2  0  0  0  0
 25 24  1  0  0  0  0
 26 31  2  0  0  0  0
 28 29  1  0  0  0  0
 29 27  2  0  0  0  0
 30 24  1  0  0  0  0
 30 26  1  0  0  0  0
 31 23  1  0  0  0  0
 31 27  1  0  0  0  0
M  END
>  <MODEL>
8

>  <REMARK>
 VINA RESULT:      -6.9      2.677      6.879
  Name = 
  2 active torsions:
  status: ('A' for Active; 'I' for Inactive)
    1  A    between atoms: C_19  and  N_26
    2  A    between atoms: C_27  and  C_31
                            x       y       z     vdW  Elec       q    Type
                         _______ _______ _______ _____ _____    ______ ____

>  <TORSDO>
F 2

$$$$
=
 OpenBabel10222415273D

 31 34  0  0  1  0  0  0  0  0999 V2000
  188.8570  177.9320  142.1840 C   0  0  0  0  0  2  0  0  0  0  0  0
  186.8710  178.1740  143.6870 C   0  0  0  0  0  0  0  0  0  0  0  0
  182.6960  178.6730  144.4070 C   0  0  0  0  0  1  0  0  0  0  0  0
  191.5090  177.8800  143.7730 N   0  0  0  0  0  2  0  0  0  0  0  0
  189.1370  178.3250  144.6980 C   0  0  0  0  0  0  0  0  0  0  0  0
  192.3280  176.1060  142.5250 O   0  0  0  0  0  0  0  0  0  0  0  0
  191.0130  179.6780  145.1380 O   0  0  0  0  0  0  0  0  0  0  0  0
  185.0150  178.4180  145.2700 C   0  0  0  0  0  2  0  0  0  0  0  0
  184.5800  178.3030  142.8240 C   0  0  0  0  0  3  0  0  0  0  0  0
  188.2220  178.1530  143.5250 C   0  0  1  0  0  3  0  0  0  0  0  0
  190.2030  174.5260  142.9340 O   0  0  0  0  0  1  0  0  0  0  0  0
  186.3250  178.2800  145.0690 C   0  0  0  0  0  0  0  0  0  0  0  0
  185.8820  178.1380  142.5540 C   0  0  0  0  0  0  0  0  0  0  0  0
  191.3440  176.6070  143.1320 C   0  0  0  0  0  0  0  0  0  0  0  0
  187.2070  178.0830  146.2580 C   0  0  0  0  0  2  0  0  0  0  0  0
  190.5750  178.6600  144.5400 C   0  0  0  0  0  0  0  0  0  0  0  0
  190.0250  175.9010  143.1020 C   0  0  1  0  0  3  0  0  0  0  0  0
  184.1140  178.4880  144.1640 N   0  0  0  0  0  0  0  0  0  0  0  0
  189.1550  176.4490  141.9790 C   0  0  0  0  0  2  0  0  0  0  0  0
  188.6410  178.3620  145.9410 C   0  0  0  0  0  3  0  0  0  0  0  0
  185.0150  179.5740  140.1120 O   0  0  0  0  0  0  0  0  0  0  0  0
  186.3140  177.9490  141.1960 N   0  0  0  0  0  2  0  0  0  0  0  0
  185.8770  178.6550  140.0220 C   0  0  0  0  0  0  0  0  0  0  0  0
  188.1560  177.6410  136.0750 C   0  0  0  0  0  0  0  0  0  0  0  0
  189.1930  177.4380  135.1240 N   0  0  0  0  0  1  0  0  0  0  0  0
  187.7670  178.3610  138.5560 C   0  0  0  0  0  3  0  0  0  0  0  0
  185.4920  177.9000  137.6580 C   0  0  0  0  0  3  0  0  0  0  0  0
  186.9330  177.4250  135.6990 N   0  0  0  0  0  0  0  0  0  0  0  0
  185.6920  177.5320  136.3970 C   0  0  0  0  0  3  0  0  0  0  0  0
  188.5290  178.0680  137.3860 N   0  0  0  0  0  2  0  0  0  0  0  0
  186.4440  178.2980  138.7030 C   0  0  0  0  0  0  0  0  0  0  0  0
  2 12  2  0  0  0  0
  4 16  1  0  0  0  0
  5 20  2  0  0  0  0
  6 14  2  0  0  0  0
  9 18  1  0  0  0  0
 10  1  1  1  0  0  0
 10  2  1  0  0  0  0
 10  5  1  0  0  0  0
 12  8  1  0  0  0  0
 12 15  1  0  0  0  0
 13  9  2  0  0  0  0
 13  2  1  0  0  0  0
 14  4  1  0  0  0  0
 16  5  1  0  0  0  0
 16  7  2  0  0  0  0
 17 11  1  6  0  0  0
 17 14  1  0  0  0  0
 18  3  1  0  0  0  0
 18  8  1  0  0  0  0
 19  1  1  0  0  0  0
 19 17  1  0  0  0  0
 20 15  1  0  0  0  0
 22 13  1  0  0  0  0
 23 21  2  0  0  0  0
 23 22  1  0  0  0  0
 24 30  1  0  0  0  0
 25 24  1  0  0  0  0
 26 31  2  0  0  0  0
 27 31  1  0  0  0  0
 28 24  2  0  0  0  0
 28 29  1  0  0  0  0
 29 27  2  0  0  0  0
 30 26  1  0  0  0  0
 31 23  1  0  0  0  0
M  END
>  <MODEL>
9

>  <REMARK>
 VINA RESULT:      -6.8      2.621      6.304
  Name = 
  2 active torsions:
  status: ('A' for Active; 'I' for Inactive)
    1  A    between atoms: C_19  and  N_26
    2  A    between atoms: C_27  and  C_31
                            x       y       z     vdW  Elec       q    Type
                         _______ _______ _______ _____ _____    ______ ____

>  <TORSDO>
F 2

$$$$
