=
 OpenBabel10222416333D

 32 35  0  0  1  0  0  0  0  0999 V2000
  181.6700  178.2700  140.3600 C   0  0  1  0  0  3  0  0  0  0  0  0
  181.5600  176.8160  138.4610 O   0  0  0  0  0  0  0  0  0  0  0  0
  179.8060  177.8050  142.0060 C   0  0  0  0  0  0  0  0  0  0  0  0
  181.1260  178.2370  141.7720 C   0  0  0  0  0  0  0  0  0  0  0  0
  179.6990  176.8070  139.8120 O   0  0  0  0  0  0  0  0  0  0  0  0
  178.9310  177.4090  140.8550 C   0  0  0  0  0  2  0  0  0  0  0  0
  181.3560  178.6290  144.1530 C   0  0  0  0  0  3  0  0  0  0  0  0
  180.9790  177.2640  139.4840 C   0  0  0  0  0  0  0  0  0  0  0  0
  181.9100  178.6500  142.8660 C   0  0  0  0  0  0  0  0  0  0  0  0
  179.2990  177.8020  143.2670 N   0  0  0  0  0  0  0  0  0  0  0  0
  180.0420  178.1970  144.3350 C   0  0  0  0  0  3  0  0  0  0  0  0
  183.3160  179.1380  142.6630 C   0  0  2  0  0  3  0  0  0  0  0  0
  184.2190  178.0270  142.1170 C   0  0  0  0  0  2  0  0  0  0  0  0
  184.6110  178.9540  144.8270 C   0  0  0  0  0  0  0  0  0  0  0  0
  186.4240  178.6040  143.1200 C   0  0  0  0  0  3  0  0  0  0  0  0
  188.0190  177.6740  145.2550 N   0  0  0  0  0  0  0  0  0  0  0  0
  184.0970  178.6190  145.9280 O   0  0  0  0  0  0  0  0  0  0  0  0
  183.8440  179.8560  143.9110 C   0  0  0  0  0  2  0  0  0  0  0  0
  185.9280  178.4970  144.4680 N   0  0  0  0  0  0  0  0  0  0  0  0
  186.8080  178.0550  145.5100 C   0  0  0  0  0  3  0  0  0  0  0  0
  185.6590  178.4310  142.0370 C   0  0  0  0  0  3  0  0  0  0  0  0
  188.9040  177.2310  146.3190 C   0  0  0  0  0  2  0  0  0  0  0  0
  190.6080  177.6680  144.7100 O   0  0  0  0  0  0  0  0  0  0  0  0
  191.3610  176.8330  146.7430 N   0  0  0  0  0  1  0  0  0  0  0  0
  190.3230  177.2500  145.8620 C   0  0  0  0  0  0  0  0  0  0  0  0
  179.9530  181.4650  139.4010 C   0  0  0  0  0  3  0  0  0  0  0  0
  180.4770  180.4920  140.1460 C   0  0  0  0  0  3  0  0  0  0  0  0
  182.8520  181.4320  138.4540 C   0  0  0  0  0  3  0  0  0  0  0  0
  181.6340  179.6510  139.7700 C   0  0  0  0  0  0  0  0  0  0  0  0
  180.4290  181.7800  138.0230 C   0  0  0  0  0  2  0  0  0  0  0  0
  181.8580  182.2080  138.0230 C   0  0  0  0  0  3  0  0  0  0  0  0
  182.6890  180.0970  139.0630 C   0  0  0  0  0  3  0  0  0  0  0  0
  1 29  1  6  0  0  0
  1  4  1  0  0  0  0
  2  8  2  0  0  0  0
  3 10  1  0  0  0  0
  4  3  2  0  0  0  0
  4  9  1  0  0  0  0
  5  6  1  0  0  0  0
  6  3  1  0  0  0  0
  7 11  1  0  0  0  0
  8  5  1  0  0  0  0
  8  1  1  0  0  0  0
  9  7  2  0  0  0  0
 10 11  2  0  0  0  0
 12  9  1  1  0  0  0
 12 18  1  0  0  0  0
 13 12  1  0  0  0  0
 14 17  2  0  0  0  0
 15 19  1  0  0  0  0
 16 20  2  0  0  0  0
 16 22  1  0  0  0  0
 18 14  1  0  0  0  0
 19 14  1  0  0  0  0
 19 20  1  0  0  0  0
 21 13  1  0  0  0  0
 21 15  2  0  0  0  0
 23 25  2  0  0  0  0
 25 22  1  0  0  0  0
 25 24  1  0  0  0  0
 26 27  2  0  0  0  0
 28 32  1  0  0  0  0
 29 27  1  0  0  0  0
 30 26  1  0  0  0  0
 31 30  1  0  0  0  0
 31 28  2  0  0  0  0
 32 29  2  0  0  0  0
M  END
>  <MODEL>
1

>  <REMARK>
 VINA RESULT:      -7.3      0.000      0.000
  Name = 
  4 active torsions:
  status: ('A' for Active; 'I' for Inactive)
    1  A    between atoms: C_1  and  C_21
    2  A    between atoms: C_2  and  C_19
    3  A    between atoms: N_14  and  C_18
    4  A    between atoms: C_18  and  C_23
                            x       y       z     vdW  Elec       q    Type
                         _______ _______ _______ _____ _____    ______ ____

>  <TORSDO>
F 4

$$$$
=
 OpenBabel10222416333D

 32 35  0  0  1  0  0  0  0  0999 V2000
  180.9520  178.2290  140.5200 C   0  0  1  0  0  3  0  0  0  0  0  0
  178.9310  176.9830  140.8290 O   0  0  0  0  0  0  0  0  0  0  0  0
  182.0750  178.7530  142.7260 C   0  0  0  0  0  0  0  0  0  0  0  0
  182.1930  178.4860  141.3470 C   0  0  0  0  0  0  0  0  0  0  0  0
  179.8190  177.8990  142.7420 O   0  0  0  0  0  0  0  0  0  0  0  0
  180.7200  178.8140  143.3660 C   0  0  0  0  0  2  0  0  0  0  0  0
  184.5920  178.7520  141.5620 C   0  0  0  0  0  3  0  0  0  0  0  0
  179.8390  177.6720  141.3630 C   0  0  0  0  0  0  0  0  0  0  0  0
  183.4730  178.4830  140.7630 C   0  0  0  0  0  0  0  0  0  0  0  0
  183.1820  179.0150  143.4690 N   0  0  0  0  0  0  0  0  0  0  0  0
  184.4250  179.0160  142.9210 C   0  0  0  0  0  3  0  0  0  0  0  0
  183.6460  178.2240  139.2930 C   0  0  2  0  0  3  0  0  0  0  0  0
  183.6830  176.7210  138.9920 C   0  0  0  0  0  2  0  0  0  0  0  0
  186.1020  178.2770  138.6930 C   0  0  0  0  0  0  0  0  0  0  0  0
  185.2080  176.6200  137.0260 C   0  0  0  0  0  3  0  0  0  0  0  0
  187.8980  175.9130  136.5450 N   0  0  0  0  0  0  0  0  0  0  0  0
  187.0160  178.6000  139.4990 O   0  0  0  0  0  0  0  0  0  0  0  0
  184.8110  179.0360  138.7160 C   0  0  0  0  0  2  0  0  0  0  0  0
  186.3060  177.2120  137.7470 N   0  0  0  0  0  0  0  0  0  0  0  0
  187.6500  176.8330  137.4200 C   0  0  0  0  0  3  0  0  0  0  0  0
  183.9990  176.4210  137.5590 C   0  0  0  0  0  3  0  0  0  0  0  0
  189.2650  175.5390  136.2190 C   0  0  0  0  0  2  0  0  0  0  0  0
  189.5470  173.4230  137.2820 O   0  0  0  0  0  0  0  0  0  0  0  0
  190.7200  175.1780  138.2510 N   0  0  0  0  0  1  0  0  0  0  0  0
  189.8300  174.6490  137.2750 C   0  0  0  0  0  0  0  0  0  0  0  0
  180.9030  180.4320  137.4840 C   0  0  0  0  0  3  0  0  0  0  0  0
  180.7000  179.3850  138.2820 C   0  0  0  0  0  3  0  0  0  0  0  0
  179.3490  181.6820  139.7910 C   0  0  0  0  0  3  0  0  0  0  0  0
  180.5210  179.4450  139.7490 C   0  0  0  0  0  0  0  0  0  0  0  0
  181.0600  181.8260  137.9940 C   0  0  0  0  0  2  0  0  0  0  0  0
  179.8340  182.2870  138.7070 C   0  0  0  0  0  3  0  0  0  0  0  0
  179.8840  180.4430  140.3880 C   0  0  0  0  0  3  0  0  0  0  0  0
  1 29  1  1  0  0  0
  1  4  1  0  0  0  0
  1  8  1  0  0  0  0
  2  8  2  0  0  0  0
  3  6  1  0  0  0  0
  3 10  1  0  0  0  0
  4  3  2  0  0  0  0
  5  6  1  0  0  0  0
  7 11  1  0  0  0  0
  8  5  1  0  0  0  0
  9  4  1  0  0  0  0
  9  7  2  0  0  0  0
 11 10  2  0  0  0  0
 12  9  1  1  0  0  0
 13 12  1  0  0  0  0
 14 18  1  0  0  0  0
 14 17  2  0  0  0  0
 15 21  2  0  0  0  0
 15 19  1  0  0  0  0
 16 20  2  0  0  0  0
 18 12  1  0  0  0  0
 19 14  1  0  0  0  0
 20 19  1  0  0  0  0
 21 13  1  0  0  0  0
 22 16  1  0  0  0  0
 22 25  1  0  0  0  0
 25 23  2  0  0  0  0
 25 24  1  0  0  0  0
 26 30  1  0  0  0  0
 26 27  2  0  0  0  0
 27 29  1  0  0  0  0
 28 32  1  0  0  0  0
 29 32  2  0  0  0  0
 30 31  1  0  0  0  0
 31 28  2  0  0  0  0
M  END
>  <MODEL>
2

>  <REMARK>
 VINA RESULT:      -7.1      4.077      5.278
  Name = 
  4 active torsions:
  status: ('A' for Active; 'I' for Inactive)
    1  A    between atoms: C_1  and  C_21
    2  A    between atoms: C_2  and  C_19
    3  A    between atoms: N_14  and  C_18
    4  A    between atoms: C_18  and  C_23
                            x       y       z     vdW  Elec       q    Type
                         _______ _______ _______ _____ _____    ______ ____

>  <TORSDO>
F 4

$$$$
=
 OpenBabel10222416333D

 32 35  0  0  1  0  0  0  0  0999 V2000
  181.9420  177.8850  138.0710 C   0  0  1  0  0  3  0  0  0  0  0  0
  183.0770  176.9120  136.2010 O   0  0  0  0  0  0  0  0  0  0  0  0
  179.9290  176.5180  138.7600 C   0  0  0  0  0  0  0  0  0  0  0  0
  180.9800  177.3820  139.1240 C   0  0  0  0  0  0  0  0  0  0  0  0
  181.0030  176.0300  136.6550 O   0  0  0  0  0  0  0  0  0  0  0  0
  179.7450  176.1220  137.3250 C   0  0  0  0  0  2  0  0  0  0  0  0
  180.1690  177.3070  141.4070 C   0  0  0  0  0  3  0  0  0  0  0  0
  182.0440  176.9250  136.9200 C   0  0  0  0  0  0  0  0  0  0  0  0
  181.0990  177.7760  140.4710 C   0  0  0  0  0  0  0  0  0  0  0  0
  179.0410  176.0860  139.6950 N   0  0  0  0  0  0  0  0  0  0  0  0
  179.1420  176.4560  140.9980 C   0  0  0  0  0  3  0  0  0  0  0  0
  182.1910  178.7130  140.9020 C   0  0  2  0  0  3  0  0  0  0  0  0
  183.5370  177.9870  141.0130 C   0  0  0  0  0  2  0  0  0  0  0  0
  182.2240  178.8910  143.4250 C   0  0  0  0  0  0  0  0  0  0  0  0
  184.6510  179.2300  142.8610 C   0  0  0  0  0  3  0  0  0  0  0  0
  185.1700  178.8080  145.6030 N   0  0  0  0  0  0  0  0  0  0  0  0
  181.3620  178.3640  144.1780 O   0  0  0  0  0  0  0  0  0  0  0  0
  181.7790  179.5190  142.1400 C   0  0  0  0  0  2  0  0  0  0  0  0
  183.6110  178.9140  143.8070 N   0  0  0  0  0  0  0  0  0  0  0  0
  183.9440  178.7530  145.1920 C   0  0  0  0  0  3  0  0  0  0  0  0
  184.6220  178.8520  141.5790 C   0  0  0  0  0  3  0  0  0  0  0  0
  185.4950  178.6460  147.0110 C   0  0  0  0  0  2  0  0  0  0  0  0
  187.5330  178.4790  148.2370 O   0  0  0  0  0  0  0  0  0  0  0  0
  187.5550  177.4710  146.1440 N   0  0  0  0  0  1  0  0  0  0  0  0
  186.9140  178.2150  147.1740 C   0  0  0  0  0  0  0  0  0  0  0  0
  181.8090  181.6110  138.4920 C   0  0  0  0  0  3  0  0  0  0  0  0
  182.2900  180.3790  138.3300 C   0  0  0  0  0  3  0  0  0  0  0  0
  180.4530  180.7350  135.9060 C   0  0  0  0  0  3  0  0  0  0  0  0
  181.6090  179.2780  137.6160 C   0  0  0  0  0  0  0  0  0  0  0  0
  180.4500  182.0210  138.0330 C   0  0  0  0  0  2  0  0  0  0  0  0
  180.3130  181.8910  136.5530 C   0  0  0  0  0  3  0  0  0  0  0  0
  180.8410  179.4530  136.5240 C   0  0  0  0  0  3  0  0  0  0  0  0
  1 29  1  6  0  0  0
  1  4  1  0  0  0  0
  2  8  2  0  0  0  0
  3  4  2  0  0  0  0
  3 10  1  0  0  0  0
  4  9  1  0  0  0  0
  5  8  1  0  0  0  0
  5  6  1  0  0  0  0
  6  3  1  0  0  0  0
  8  1  1  0  0  0  0
  9  7  2  0  0  0  0
 10 11  2  0  0  0  0
 11  7  1  0  0  0  0
 12  9  1  1  0  0  0
 12 13  1  0  0  0  0
 12 18  1  0  0  0  0
 13 21  1  0  0  0  0
 14 19  1  0  0  0  0
 14 17  2  0  0  0  0
 15 19  1  0  0  0  0
 16 22  1  0  0  0  0
 18 14  1  0  0  0  0
 19 20  1  0  0  0  0
 20 16  2  0  0  0  0
 21 15  2  0  0  0  0
 22 25  1  0  0  0  0
 24 25  1  0  0  0  0
 25 23  2  0  0  0  0
 27 26  2  0  0  0  0
 28 32  1  0  0  0  0
 28 31  2  0  0  0  0
 29 27  1  0  0  0  0
 30 26  1  0  0  0  0
 31 30  1  0  0  0  0
 32 29  2  0  0  0  0
M  END
>  <MODEL>
3

>  <REMARK>
 VINA RESULT:      -6.7      2.111      2.996
  Name = 
  4 active torsions:
  status: ('A' for Active; 'I' for Inactive)
    1  A    between atoms: C_1  and  C_21
    2  A    between atoms: C_2  and  C_19
    3  A    between atoms: N_14  and  C_18
    4  A    between atoms: C_18  and  C_23
                            x       y       z     vdW  Elec       q    Type
                         _______ _______ _______ _____ _____    ______ ____

>  <TORSDO>
F 4

$$$$
=
 OpenBabel10222416333D

 32 35  0  0  1  0  0  0  0  0999 V2000
  184.2320  179.2480  138.8810 C   0  0  1  0  0  3  0  0  0  0  0  0
  183.0830  181.3440  139.0110 O   0  0  0  0  0  0  0  0  0  0  0  0
  182.9220  177.5420  137.5490 C   0  0  0  0  0  0  0  0  0  0  0  0
  184.1710  178.0430  137.9670 C   0  0  0  0  0  0  0  0  0  0  0  0
  181.8300  179.5870  138.2160 O   0  0  0  0  0  0  0  0  0  0  0  0
  181.6560  178.1820  138.0340 C   0  0  0  0  0  2  0  0  0  0  0  0
  185.2370  176.2650  136.7120 C   0  0  0  0  0  3  0  0  0  0  0  0
  183.0210  180.1220  138.7160 C   0  0  0  0  0  0  0  0  0  0  0  0
  185.3420  177.3930  137.5360 C   0  0  0  0  0  0  0  0  0  0  0  0
  182.8570  176.4420  136.7530 N   0  0  0  0  0  0  0  0  0  0  0  0
  183.9780  175.8030  136.3270 C   0  0  0  0  0  3  0  0  0  0  0  0
  186.6950  177.8800  137.9730 C   0  0  2  0  0  3  0  0  0  0  0  0
  187.4100  178.6300  136.8440 C   0  0  0  0  0  2  0  0  0  0  0  0
  188.4080  176.0440  137.6690 C   0  0  0  0  0  0  0  0  0  0  0  0
  189.8010  178.1050  137.3010 C   0  0  0  0  0  3  0  0  0  0  0  0
  191.7670  176.3780  136.2400 N   0  0  0  0  0  0  0  0  0  0  0  0
  188.1230  174.8670  137.3200 O   0  0  0  0  0  0  0  0  0  0  0  0
  187.5070  176.7560  138.6290 C   0  0  0  0  0  2  0  0  0  0  0  0
  189.5970  176.6840  137.1710 N   0  0  0  0  0  0  0  0  0  0  0  0
  190.6560  175.8640  136.6610 C   0  0  0  0  0  3  0  0  0  0  0  0
  188.8190  179.0040  137.1920 C   0  0  0  0  0  3  0  0  0  0  0  0
  192.8350  175.5350  135.7280 C   0  0  0  0  0  2  0  0  0  0  0  0
  194.7940  176.8920  135.8170 O   0  0  0  0  0  0  0  0  0  0  0  0
  194.6440  175.2650  137.4680 N   0  0  0  0  0  1  0  0  0  0  0  0
  194.1450  175.9360  136.3170 C   0  0  0  0  0  0  0  0  0  0  0  0
  183.0750  178.2520  142.3080 C   0  0  0  0  0  3  0  0  0  0  0  0
  183.3230  178.2030  141.0000 C   0  0  0  0  0  3  0  0  0  0  0  0
  186.1000  178.6280  142.2210 C   0  0  0  0  0  3  0  0  0  0  0  0
  184.4570  178.8610  140.3160 C   0  0  0  0  0  0  0  0  0  0  0  0
  183.8850  179.0660  143.2600 C   0  0  0  0  0  2  0  0  0  0  0  0
  185.3070  178.6150  143.2920 C   0  0  0  0  0  3  0  0  0  0  0  0
  185.6820  178.9970  140.8540 C   0  0  0  0  0  3  0  0  0  0  0  0
  1 29  1  1  0  0  0
  3  4  1  0  0  0  0
  3  6  1  0  0  0  0
  4  1  1  0  0  0  0
  5  8  1  0  0  0  0
  6  5  1  0  0  0  0
  7  9  1  0  0  0  0
  8  1  1  0  0  0  0
  8  2  2  0  0  0  0
  9  4  2  0  0  0  0
 10  3  2  0  0  0  0
 11  7  2  0  0  0  0
 11 10  1  0  0  0  0
 12  9  1  6  0  0  0
 12 18  1  0  0  0  0
 13 21  1  0  0  0  0
 13 12  1  0  0  0  0
 14 18  1  0  0  0  0
 16 20  2  0  0  0  0
 17 14  2  0  0  0  0
 19 15  1  0  0  0  0
 19 14  1  0  0  0  0
 20 19  1  0  0  0  0
 21 15  2  0  0  0  0
 22 16  1  0  0  0  0
 22 25  1  0  0  0  0
 23 25  2  0  0  0  0
 25 24  1  0  0  0  0
 26 30  1  0  0  0  0
 27 26  2  0  0  0  0
 28 31  2  0  0  0  0
 29 32  2  0  0  0  0
 29 27  1  0  0  0  0
 30 31  1  0  0  0  0
 32 28  1  0  0  0  0
M  END
>  <MODEL>
4

>  <REMARK>
 VINA RESULT:      -6.6      5.685      7.220
  Name = 
  4 active torsions:
  status: ('A' for Active; 'I' for Inactive)
    1  A    between atoms: C_1  and  C_21
    2  A    between atoms: C_2  and  C_19
    3  A    between atoms: N_14  and  C_18
    4  A    between atoms: C_18  and  C_23
                            x       y       z     vdW  Elec       q    Type
                         _______ _______ _______ _____ _____    ______ ____

>  <TORSDO>
F 4

$$$$
=
 OpenBabel10222416333D

 32 35  0  0  1  0  0  0  0  0999 V2000
  189.6080  175.0450  136.9650 C   0  0  1  0  0  3  0  0  0  0  0  0
  189.3560  172.6830  137.2640 O   0  0  0  0  0  0  0  0  0  0  0  0
  187.9110  175.9690  135.3320 C   0  0  0  0  0  0  0  0  0  0  0  0
  188.7220  176.1660  136.4670 C   0  0  0  0  0  0  0  0  0  0  0  0
  188.1850  173.5780  135.4980 O   0  0  0  0  0  0  0  0  0  0  0  0
  187.9510  174.6620  134.5990 C   0  0  0  0  0  2  0  0  0  0  0  0
  187.8850  178.4370  136.5960 C   0  0  0  0  0  3  0  0  0  0  0  0
  189.0530  173.7010  136.5870 C   0  0  0  0  0  0  0  0  0  0  0  0
  188.7020  177.4200  137.1070 C   0  0  0  0  0  0  0  0  0  0  0  0
  187.1360  176.9810  134.8600 N   0  0  0  0  0  0  0  0  0  0  0  0
  187.1040  178.1970  135.4650 C   0  0  0  0  0  3  0  0  0  0  0  0
  189.5640  177.6820  138.3080 C   0  0  2  0  0  3  0  0  0  0  0  0
  189.8200  176.3970  139.1040 C   0  0  0  0  0  2  0  0  0  0  0  0
  188.1290  178.4460  140.2460 C   0  0  0  0  0  0  0  0  0  0  0  0
  189.9950  177.2520  141.4360 C   0  0  0  0  0  3  0  0  0  0  0  0
  188.3490  177.3250  143.7290 N   0  0  0  0  0  0  0  0  0  0  0  0
  186.8950  178.6840  140.1560 O   0  0  0  0  0  0  0  0  0  0  0  0
  189.0330  178.8650  139.1290 C   0  0  0  0  0  2  0  0  0  0  0  0
  188.6640  177.8050  141.4180 N   0  0  0  0  0  0  0  0  0  0  0  0
  187.9010  177.8450  142.6310 C   0  0  0  0  0  3  0  0  0  0  0  0
  190.5540  176.6410  140.3870 C   0  0  0  0  0  3  0  0  0  0  0  0
  187.5680  177.3750  144.9530 C   0  0  0  0  0  2  0  0  0  0  0  0
  189.7110  177.4610  145.9950 O   0  0  0  0  0  0  0  0  0  0  0  0
  187.9050  177.7340  147.4300 N   0  0  0  0  0  1  0  0  0  0  0  0
  188.4620  177.5100  146.1400 C   0  0  0  0  0  0  0  0  0  0  0  0
  193.3130  175.1310  137.5510 C   0  0  0  0  0  3  0  0  0  0  0  0
  192.0670  174.6720  137.4350 C   0  0  0  0  0  3  0  0  0  0  0  0
  192.6230  175.8830  134.6770 C   0  0  0  0  0  3  0  0  0  0  0  0
  191.0350  175.2110  136.5230 C   0  0  0  0  0  0  0  0  0  0  0  0
  193.8100  176.3290  136.8150 C   0  0  0  0  0  2  0  0  0  0  0  0
  193.7550  176.1250  135.3380 C   0  0  0  0  0  3  0  0  0  0  0  0
  191.2970  175.6970  135.2970 C   0  0  0  0  0  3  0  0  0  0  0  0
  1 29  1  6  0  0  0
  3  4  1  0  0  0  0
  4  1  1  0  0  0  0
  4  9  2  0  0  0  0
  5  8  1  0  0  0  0
  6  3  1  0  0  0  0
  6  5  1  0  0  0  0
  7  9  1  0  0  0  0
  8  1  1  0  0  0  0
  8  2  2  0  0  0  0
 10  3  2  0  0  0  0
 10 11  1  0  0  0  0
 11  7  2  0  0  0  0
 12  9  1  6  0  0  0
 12 13  1  0  0  0  0
 12 18  1  0  0  0  0
 13 21  1  0  0  0  0
 14 19  1  0  0  0  0
 16 22  1  0  0  0  0
 17 14  2  0  0  0  0
 18 14  1  0  0  0  0
 19 15  1  0  0  0  0
 19 20  1  0  0  0  0
 20 16  2  0  0  0  0
 21 15  2  0  0  0  0
 22 25  1  0  0  0  0
 23 25  2  0  0  0  0
 25 24  1  0  0  0  0
 27 26  2  0  0  0  0
 28 32  1  0  0  0  0
 28 31  2  0  0  0  0
 29 27  1  0  0  0  0
 30 26  1  0  0  0  0
 31 30  1  0  0  0  0
 32 29  2  0  0  0  0
M  END
>  <MODEL>
5

>  <REMARK>
 VINA RESULT:      -6.4      6.775      9.038
  Name = 
  4 active torsions:
  status: ('A' for Active; 'I' for Inactive)
    1  A    between atoms: C_1  and  C_21
    2  A    between atoms: C_2  and  C_19
    3  A    between atoms: N_14  and  C_18
    4  A    between atoms: C_18  and  C_23
                            x       y       z     vdW  Elec       q    Type
                         _______ _______ _______ _____ _____    ______ ____

>  <TORSDO>
F 4

$$$$
=
 OpenBabel10222416333D

 32 35  0  0  1  0  0  0  0  0999 V2000
  189.1000  176.6760  136.7130 C   0  0  1  0  0  3  0  0  0  0  0  0
  188.2410  177.4710  134.6250 O   0  0  0  0  0  0  0  0  0  0  0  0
  191.6200  176.4660  136.6720 C   0  0  0  0  0  0  0  0  0  0  0  0
  190.4440  176.7130  137.4070 C   0  0  0  0  0  0  0  0  0  0  0  0
  190.4470  176.8190  134.5940 O   0  0  0  0  0  0  0  0  0  0  0  0
  191.5380  176.1360  135.2110 C   0  0  0  0  0  2  0  0  0  0  0  0
  191.8110  176.9700  139.3920 C   0  0  0  0  0  3  0  0  0  0  0  0
  189.2290  177.0070  135.2530 C   0  0  0  0  0  0  0  0  0  0  0  0
  190.5480  176.9720  138.7870 C   0  0  0  0  0  0  0  0  0  0  0  0
  192.8300  176.4660  137.2930 N   0  0  0  0  0  0  0  0  0  0  0  0
  192.9470  176.7150  138.6230 C   0  0  0  0  0  3  0  0  0  0  0  0
  189.3200  177.2210  139.6150 C   0  0  2  0  0  3  0  0  0  0  0  0
  189.3360  178.6250  140.2290 C   0  0  0  0  0  2  0  0  0  0  0  0
  189.6660  176.3290  141.9560 C   0  0  0  0  0  0  0  0  0  0  0  0
  188.1240  178.2700  142.3760 C   0  0  0  0  0  3  0  0  0  0  0  0
  188.8040  178.0000  145.1020 N   0  0  0  0  0  0  0  0  0  0  0  0
  190.6770  175.6670  142.3140 O   0  0  0  0  0  0  0  0  0  0  0  0
  189.0730  176.0760  140.6050 C   0  0  0  0  0  2  0  0  0  0  0  0
  189.0760  177.2950  142.8440 N   0  0  0  0  0  0  0  0  0  0  0  0
  189.3410  177.1880  144.2490 C   0  0  0  0  0  3  0  0  0  0  0  0
  188.2010  178.8600  141.1790 C   0  0  0  0  0  3  0  0  0  0  0  0
  189.0790  177.8800  146.5240 C   0  0  0  0  0  2  0  0  0  0  0  0
  186.7040  177.7540  146.6980 O   0  0  0  0  0  0  0  0  0  0  0  0
  187.8390  177.8220  148.7230 N   0  0  0  0  0  1  0  0  0  0  0  0
  187.8060  177.8280  147.3000 C   0  0  0  0  0  0  0  0  0  0  0  0
  188.9000  172.9320  136.8330 C   0  0  0  0  0  3  0  0  0  0  0  0
  189.2340  174.1850  137.1390 C   0  0  0  0  0  3  0  0  0  0  0  0
  186.1790  174.2090  137.3490 C   0  0  0  0  0  3  0  0  0  0  0  0
  188.3810  175.3760  136.9360 C   0  0  0  0  0  0  0  0  0  0  0  0
  187.6210  172.5740  136.1540 C   0  0  0  0  0  2  0  0  0  0  0  0
  186.4390  172.9540  136.9810 C   0  0  0  0  0  3  0  0  0  0  0  0
  187.0430  175.3740  137.0780 C   0  0  0  0  0  3  0  0  0  0  0  0
  1 29  1  6  0  0  0
  1  4  1  0  0  0  0
  2  8  2  0  0  0  0
  3 10  2  0  0  0  0
  3  4  1  0  0  0  0
  4  9  2  0  0  0  0
  5  6  1  0  0  0  0
  5  8  1  0  0  0  0
  6  3  1  0  0  0  0
  8  1  1  0  0  0  0
  9  7  1  0  0  0  0
 10 11  1  0  0  0  0
 11  7  2  0  0  0  0
 12  9  1  1  0  0  0
 12 13  1  0  0  0  0
 12 18  1  0  0  0  0
 13 21  1  0  0  0  0
 14 17  2  0  0  0  0
 14 19  1  0  0  0  0
 15 19  1  0  0  0  0
 16 22  1  0  0  0  0
 18 14  1  0  0  0  0
 19 20  1  0  0  0  0
 20 16  2  0  0  0  0
 21 15  2  0  0  0  0
 22 25  1  0  0  0  0
 23 25  2  0  0  0  0
 25 24  1  0  0  0  0
 26 27  2  0  0  0  0
 29 32  2  0  0  0  0
 29 27  1  0  0  0  0
 30 26  1  0  0  0  0
 30 31  1  0  0  0  0
 31 28  2  0  0  0  0
 32 28  1  0  0  0  0
M  END
>  <MODEL>
6

>  <REMARK>
 VINA RESULT:      -5.9      6.195      8.861
  Name = 
  4 active torsions:
  status: ('A' for Active; 'I' for Inactive)
    1  A    between atoms: C_1  and  C_21
    2  A    between atoms: C_2  and  C_19
    3  A    between atoms: N_14  and  C_18
    4  A    between atoms: C_18  and  C_23
                            x       y       z     vdW  Elec       q    Type
                         _______ _______ _______ _____ _____    ______ ____

>  <TORSDO>
F 4

$$$$
=
 OpenBabel10222416333D

 32 35  0  0  1  0  0  0  0  0999 V2000
  189.1880  177.8740  138.1200 C   0  0  1  0  0  3  0  0  0  0  0  0
  189.0780  180.2120  137.6170 O   0  0  0  0  0  0  0  0  0  0  0  0
  187.3920  176.5690  136.9080 C   0  0  0  0  0  0  0  0  0  0  0  0
  188.6870  176.6080  137.4600 C   0  0  0  0  0  0  0  0  0  0  0  0
  187.2590  178.9780  136.9420 O   0  0  0  0  0  0  0  0  0  0  0  0
  186.4990  177.7700  137.0030 C   0  0  0  0  0  2  0  0  0  0  0  0
  188.9710  174.2920  136.8040 C   0  0  0  0  0  3  0  0  0  0  0  0
  188.5100  179.0900  137.5550 C   0  0  0  0  0  0  0  0  0  0  0  0
  189.4860  175.4500  137.4010 C   0  0  0  0  0  0  0  0  0  0  0  0
  186.9230  175.4260  136.3420 N   0  0  0  0  0  0  0  0  0  0  0  0
  187.6800  174.3000  136.2760 C   0  0  0  0  0  3  0  0  0  0  0  0
  190.8660  175.4390  137.9940 C   0  0  2  0  0  3  0  0  0  0  0  0
  191.7000  176.6220  137.4910 C   0  0  0  0  0  2  0  0  0  0  0  0
  192.3800  173.9510  136.6190 C   0  0  0  0  0  0  0  0  0  0  0  0
  194.0010  175.6710  137.4760 C   0  0  0  0  0  3  0  0  0  0  0  0
  195.8060  174.6840  135.5420 N   0  0  0  0  0  0  0  0  0  0  0  0
  191.9820  173.2370  135.6590 O   0  0  0  0  0  0  0  0  0  0  0  0
  191.5260  174.0630  137.8440 C   0  0  0  0  0  2  0  0  0  0  0  0
  193.6490  174.6260  136.5490 N   0  0  0  0  0  0  0  0  0  0  0  0
  194.6310  174.1460  135.6210 C   0  0  0  0  0  3  0  0  0  0  0  0
  193.1270  176.5660  137.9450 C   0  0  0  0  0  3  0  0  0  0  0  0
  196.7940  174.1870  134.6000 C   0  0  0  0  0  2  0  0  0  0  0  0
  199.1330  173.7230  134.6330 O   0  0  0  0  0  0  0  0  0  0  0  0
  198.4030  175.2310  136.2420 N   0  0  0  0  0  1  0  0  0  0  0  0
  198.1710  174.3460  135.1520 C   0  0  0  0  0  0  0  0  0  0  0  0
  190.3430  176.8010  141.5240 C   0  0  0  0  0  3  0  0  0  0  0  0
  190.3090  177.4170  140.3430 C   0  0  0  0  0  3  0  0  0  0  0  0
  187.6970  178.3080  141.6720 C   0  0  0  0  0  3  0  0  0  0  0  0
  189.0830  177.8140  139.6180 C   0  0  0  0  0  0  0  0  0  0  0  0
  189.1160  176.3500  142.2430 C   0  0  0  0  0  2  0  0  0  0  0  0
  188.2310  177.5000  142.5870 C   0  0  0  0  0  3  0  0  0  0  0  0
  187.9600  178.2460  140.2210 C   0  0  0  0  0  3  0  0  0  0  0  0
  1 29  1  1  0  0  0
  3  6  1  0  0  0  0
  3  4  1  0  0  0  0
  4  1  1  0  0  0  0
  5  6  1  0  0  0  0
  5  8  1  0  0  0  0
  7  9  1  0  0  0  0
  8  2  2  0  0  0  0
  8  1  1  0  0  0  0
  9  4  2  0  0  0  0
 10  3  2  0  0  0  0
 11 10  1  0  0  0  0
 11  7  2  0  0  0  0
 12  9  1  6  0  0  0
 13 21  1  0  0  0  0
 13 12  1  0  0  0  0
 14 18  1  0  0  0  0
 15 21  2  0  0  0  0
 16 20  2  0  0  0  0
 17 14  2  0  0  0  0
 18 12  1  0  0  0  0
 19 14  1  0  0  0  0
 19 15  1  0  0  0  0
 20 19  1  0  0  0  0
 22 25  1  0  0  0  0
 22 16  1  0  0  0  0
 23 25  2  0  0  0  0
 25 24  1  0  0  0  0
 26 30  1  0  0  0  0
 27 26  2  0  0  0  0
 28 31  2  0  0  0  0
 29 32  2  0  0  0  0
 29 27  1  0  0  0  0
 30 31  1  0  0  0  0
 32 28  1  0  0  0  0
M  END
>  <MODEL>
7

>  <REMARK>
 VINA RESULT:      -5.9      8.329     10.616
  Name = 
  4 active torsions:
  status: ('A' for Active; 'I' for Inactive)
    1  A    between atoms: C_1  and  C_21
    2  A    between atoms: C_2  and  C_19
    3  A    between atoms: N_14  and  C_18
    4  A    between atoms: C_18  and  C_23
                            x       y       z     vdW  Elec       q    Type
                         _______ _______ _______ _____ _____    ______ ____

>  <TORSDO>
F 4

$$$$
=
 OpenBabel10222416333D

 32 35  0  0  1  0  0  0  0  0999 V2000
  180.5720  177.8370  136.8460 C   0  0  1  0  0  3  0  0  0  0  0  0
  178.9350  176.6220  135.5900 O   0  0  0  0  0  0  0  0  0  0  0  0
  180.6760  180.2660  136.1470 C   0  0  0  0  0  0  0  0  0  0  0  0
  180.8210  179.2960  137.1580 C   0  0  0  0  0  0  0  0  0  0  0  0
  179.4450  178.7100  134.7740 O   0  0  0  0  0  0  0  0  0  0  0  0
  180.3060  179.8490  134.7550 C   0  0  0  0  0  2  0  0  0  0  0  0
  181.4620  181.0690  138.6820 C   0  0  0  0  0  3  0  0  0  0  0  0
  179.6100  177.6790  135.7030 C   0  0  0  0  0  0  0  0  0  0  0  0
  181.2170  179.7100  138.4440 C   0  0  0  0  0  0  0  0  0  0  0  0
  180.9280  181.5750  136.4120 N   0  0  0  0  0  0  0  0  0  0  0  0
  181.3100  181.9920  137.6470 C   0  0  0  0  0  3  0  0  0  0  0  0
  181.4050  178.7100  139.5490 C   0  0  2  0  0  3  0  0  0  0  0  0
  180.8560  179.2370  140.8790 C   0  0  0  0  0  2  0  0  0  0  0  0
  183.7150  178.9560  140.5490 C   0  0  0  0  0  0  0  0  0  0  0  0
  182.3840  178.1740  142.5330 C   0  0  0  0  0  3  0  0  0  0  0  0
  184.5860  178.9720  144.1090 N   0  0  0  0  0  0  0  0  0  0  0  0
  184.6020  179.7250  140.0890 O   0  0  0  0  0  0  0  0  0  0  0  0
  182.8480  178.1940  139.5950 C   0  0  0  0  0  2  0  0  0  0  0  0
  183.5550  178.7950  141.9700 N   0  0  0  0  0  0  0  0  0  0  0  0
  184.6530  179.1360  142.8260 C   0  0  0  0  0  3  0  0  0  0  0  0
  181.1540  178.3310  142.0340 C   0  0  0  0  0  3  0  0  0  0  0  0
  185.7070  179.3190  144.9670 C   0  0  0  0  0  2  0  0  0  0  0  0
  184.4650  178.5960  146.8700 O   0  0  0  0  0  0  0  0  0  0  0  0
  186.7140  178.0170  146.8810 N   0  0  0  0  0  1  0  0  0  0  0  0
  185.5810  178.6430  146.2910 C   0  0  0  0  0  0  0  0  0  0  0  0
  182.9850  175.0440  137.5210 C   0  0  0  0  0  3  0  0  0  0  0  0
  181.8890  175.6930  137.1300 C   0  0  0  0  0  3  0  0  0  0  0  0
  184.1070  177.0150  135.4830 C   0  0  0  0  0  3  0  0  0  0  0  0
  181.8500  177.0800  136.6160 C   0  0  0  0  0  0  0  0  0  0  0  0
  184.3340  175.6780  137.5660 C   0  0  0  0  0  2  0  0  0  0  0  0
  184.7750  176.1200  136.2110 C   0  0  0  0  0  3  0  0  0  0  0  0
  182.8160  177.6250  135.8550 C   0  0  0  0  0  3  0  0  0  0  0  0
  1 29  1  6  0  0  0
  1  4  1  0  0  0  0
  2  8  2  0  0  0  0
  3 10  2  0  0  0  0
  3  4  1  0  0  0  0
  4  9  2  0  0  0  0
  5  8  1  0  0  0  0
  6  5  1  0  0  0  0
  6  3  1  0  0  0  0
  8  1  1  0  0  0  0
  9  7  1  0  0  0  0
 10 11  1  0  0  0  0
 11  7  2  0  0  0  0
 12  9  1  6  0  0  0
 12 18  1  0  0  0  0
 12 13  1  0  0  0  0
 13 21  1  0  0  0  0
 14 19  1  0  0  0  0
 16 22  1  0  0  0  0
 17 14  2  0  0  0  0
 18 14  1  0  0  0  0
 19 15  1  0  0  0  0
 19 20  1  0  0  0  0
 20 16  2  0  0  0  0
 21 15  2  0  0  0  0
 22 25  1  0  0  0  0
 25 23  2  0  0  0  0
 25 24  1  0  0  0  0
 26 30  1  0  0  0  0
 27 26  2  0  0  0  0
 28 32  1  0  0  0  0
 28 31  2  0  0  0  0
 29 27  1  0  0  0  0
 31 30  1  0  0  0  0
 32 29  2  0  0  0  0
M  END
>  <MODEL>
8

>  <REMARK>
 VINA RESULT:      -5.9      3.192      5.322
  Name = 
  4 active torsions:
  status: ('A' for Active; 'I' for Inactive)
    1  A    between atoms: C_1  and  C_21
    2  A    between atoms: C_2  and  C_19
    3  A    between atoms: N_14  and  C_18
    4  A    between atoms: C_18  and  C_23
                            x       y       z     vdW  Elec       q    Type
                         _______ _______ _______ _____ _____    ______ ____

>  <TORSDO>
F 4

$$$$
=
 OpenBabel10222416333D

 32 35  0  0  1  0  0  0  0  0999 V2000
  181.9930  178.0560  138.8750 C   0  0  1  0  0  3  0  0  0  0  0  0
  179.9630  176.7860  138.8940 O   0  0  0  0  0  0  0  0  0  0  0  0
  182.7700  178.6160  141.2160 C   0  0  0  0  0  0  0  0  0  0  0  0
  183.0940  178.3380  139.8730 C   0  0  0  0  0  0  0  0  0  0  0  0
  180.5460  177.7320  140.9070 O   0  0  0  0  0  0  0  0  0  0  0  0
  181.3350  178.6650  141.6470 C   0  0  0  0  0  2  0  0  0  0  0  0
  185.4320  178.6390  140.4390 C   0  0  0  0  0  3  0  0  0  0  0  0
  180.7740  177.4920  139.5490 C   0  0  0  0  0  0  0  0  0  0  0  0
  184.4470  178.3470  139.4860 C   0  0  0  0  0  0  0  0  0  0  0  0
  183.7510  178.9000  142.1130 N   0  0  0  0  0  0  0  0  0  0  0  0
  185.0620  178.9130  141.7550 C   0  0  0  0  0  3  0  0  0  0  0  0
  184.8390  178.0760  138.0610 C   0  0  2  0  0  3  0  0  0  0  0  0
  184.9920  176.5740  137.8000 C   0  0  0  0  0  2  0  0  0  0  0  0
  187.3500  178.2470  137.8130 C   0  0  0  0  0  0  0  0  0  0  0  0
  186.7840  176.5230  136.0710 C   0  0  0  0  0  3  0  0  0  0  0  0
  189.5460  175.9480  135.9890 N   0  0  0  0  0  0  0  0  0  0  0  0
  188.1230  178.6270  138.7320 O   0  0  0  0  0  0  0  0  0  0  0  0
  186.0340  178.9390  137.6370 C   0  0  0  0  0  2  0  0  0  0  0  0
  187.7380  177.1800  136.9280 N   0  0  0  0  0  0  0  0  0  0  0  0
  189.1310  176.8670  136.8020 C   0  0  0  0  0  3  0  0  0  0  0  0
  185.5220  176.2700  136.4320 C   0  0  0  0  0  3  0  0  0  0  0  0
  190.9620  175.6400  135.8680 C   0  0  0  0  0  2  0  0  0  0  0  0
  190.4920  173.8200  137.3340 O   0  0  0  0  0  0  0  0  0  0  0  0
  192.7220  174.4630  137.2420 N   0  0  0  0  0  1  0  0  0  0  0  0
  191.3580  174.6000  136.8600 C   0  0  0  0  0  0  0  0  0  0  0  0
  181.4490  181.7300  138.3440 C   0  0  0  0  0  3  0  0  0  0  0  0
  182.0570  180.5710  138.5940 C   0  0  0  0  0  3  0  0  0  0  0  0
  180.8520  180.1400  135.8120 C   0  0  0  0  0  3  0  0  0  0  0  0
  181.6670  179.2590  138.0350 C   0  0  0  0  0  0  0  0  0  0  0  0
  180.2170  181.8400  137.5110 C   0  0  0  0  0  2  0  0  0  0  0  0
  180.4600  181.3780  136.1130 C   0  0  0  0  0  3  0  0  0  0  0  0
  181.1810  179.0870  136.7920 C   0  0  0  0  0  3  0  0  0  0  0  0
  1 29  1  1  0  0  0
  1  8  1  0  0  0  0
  1  4  1  0  0  0  0
  2  8  2  0  0  0  0
  3  6  1  0  0  0  0
  3 10  1  0  0  0  0
  4  3  2  0  0  0  0
  5  6  1  0  0  0  0
  7 11  1  0  0  0  0
  8  5  1  0  0  0  0
  9  4  1  0  0  0  0
  9  7  2  0  0  0  0
 11 10  2  0  0  0  0
 12  9  1  1  0  0  0
 13 12  1  0  0  0  0
 14 17  2  0  0  0  0
 15 21  2  0  0  0  0
 15 19  1  0  0  0  0
 16 20  2  0  0  0  0
 18 14  1  0  0  0  0
 18 12  1  0  0  0  0
 19 14  1  0  0  0  0
 20 19  1  0  0  0  0
 21 13  1  0  0  0  0
 22 16  1  0  0  0  0
 22 25  1  0  0  0  0
 25 24  1  0  0  0  0
 25 23  2  0  0  0  0
 26 27  2  0  0  0  0
 28 31  2  0  0  0  0
 28 32  1  0  0  0  0
 29 27  1  0  0  0  0
 30 26  1  0  0  0  0
 31 30  1  0  0  0  0
 32 29  2  0  0  0  0
M  END
>  <MODEL>
9

>  <REMARK>
 VINA RESULT:      -5.8      4.805      5.836
  Name = 
  4 active torsions:
  status: ('A' for Active; 'I' for Inactive)
    1  A    between atoms: C_1  and  C_21
    2  A    between atoms: C_2  and  C_19
    3  A    between atoms: N_14  and  C_18
    4  A    between atoms: C_18  and  C_23
                            x       y       z     vdW  Elec       q    Type
                         _______ _______ _______ _____ _____    ______ ____

>  <TORSDO>
F 4

$$$$
