=
 OpenBabel10222421183D

 37 44  0  0  1  0  0  0  0  0999 V2000
  188.0170  174.3780  135.9890 N   0  0  2  0  0  0  0  0  0  0  0  0
  188.7580  176.3620  136.4890 C   0  0  2  0  0  3  0  0  0  0  0  0
  190.2150  174.6650  137.1910 C   0  0  2  0  0  3  0  0  0  0  0  0
  191.6220  174.6570  136.5390 C   0  0  1  0  0  0  0  0  0  0  0  0
  191.6090  174.0260  135.1540 C   0  0  0  0  0  1  0  0  0  0  0  0
  190.3430  177.0870  140.8680 C   0  0  0  0  0  0  0  0  0  0  0  0
  186.8310  177.4570  137.5590 S   0  0  0  0  0  0  0  0  0  0  0  0
  188.5120  176.5480  142.9150 C   0  0  0  0  0  0  0  0  0  0  0  0
  185.8620  174.7830  135.1440 C   0  0  0  0  0  2  0  0  0  0  0  0
  186.3720  173.4350  134.5940 C   0  0  1  0  0  3  0  0  0  0  0  0
  189.1400  175.0830  136.2270 C   0  0  1  0  0  3  0  0  0  0  0  0
  192.4310  176.5970  137.8510 C   0  0  2  0  0  3  0  0  0  0  0  0
  187.6310  176.2960  143.9120 F   0  0  0  0  0  0  0  0  0  0  0  0
  188.6640  178.8860  139.5860 S   0  0  0  0  0  0  0  0  0  0  0  0
  191.2110  177.2550  139.7440 N   0  0  0  0  0  2  0  0  0  0  0  0
  189.7520  175.9030  142.8980 C   0  0  0  0  0  3  0  0  0  0  0  0
  189.0900  177.7190  140.8750 C   0  0  0  0  0  0  0  0  0  0  0  0
  190.1040  175.7870  138.2770 C   0  0  1  0  0  3  0  0  0  0  0  0
  194.7340  174.4640  136.6380 O   0  0  0  0  0  1  0  0  0  0  0  0
  190.6620  176.1620  141.8690 C   0  0  0  0  0  3  0  0  0  0  0  0
  193.9080  174.4890  137.7620 C   0  0  2  0  0  3  0  0  0  0  0  0
  191.4080  176.1970  138.8410 N   0  0  1  0  0  0  0  0  0  0  0  0
  189.2890  176.8970  137.6410 C   0  0  2  0  0  3  0  0  0  0  0  0
  187.8170  173.2610  135.0980 C   0  0  0  0  0  2  0  0  0  0  0  0
  192.1040  176.1110  136.4310 C   0  0  0  0  0  2  0  0  0  0  0  0
  188.1790  177.4510  141.9000 C   0  0  0  0  0  3  0  0  0  0  0  0
  192.5620  173.8130  137.4330 C   0  0  0  0  0  2  0  0  0  0  0  0
  187.4030  176.5020  136.2940 C   0  0  2  0  0  3  0  0  0  0  0  0
  186.9810  175.2150  136.0040 C   0  0  2  0  0  3  0  0  0  0  0  0
  188.3290  177.6420  138.3330 C   0  0  2  0  0  3  0  0  0  0  0  0
  193.7550  175.9410  138.2630 C   0  0  0  0  0  2  0  0  0  0  0  0
  185.5150  172.3000  135.1220 C   0  0  0  0  0  2  0  0  0  0  0  0
  184.1850  172.7140  135.2220 O   0  0  0  0  0  0  0  0  0  0  0  0
  183.6910  172.2840  136.7850 P   0  0  0  0  0  0  0  0  0  0  0  0
  183.4450  170.7920  136.8550 O   0  0  0  0  0  0  0  0  0  0  0  0
  184.8810  172.7160  137.9090 O   0  0  0  0  0  1  0  0  0  0  0  0
  182.2580  173.1000  137.1540 O   0  0  0  0  0  1  0  0  0  0  0  0
  1 24  1  6  0  0  0
  1 29  1  0  0  0  0
  1 11  1  0  0  0  0
  2 23  1  0  0  0  0
  3 18  1  0  0  0  0
  4  3  1  0  0  0  0
  4 27  1  0  0  0  0
  5  4  1  0  0  0  0
  6 17  2  0  0  0  0
  6 20  1  0  0  0  0
  7 30  1  0  0  0  0
  8 13  1  0  0  0  0
  9 29  1  0  0  0  0
 10 24  1  0  0  0  0
 10 32  1  0  0  0  0
 10  9  1  0  0  0  0
 11  2  1  0  0  0  0
 11  3  1  0  0  0  0
 12 31  1  0  0  0  0
 12 22  1  0  0  0  0
 14 17  1  0  0  0  0
 15  6  1  0  0  0  0
 16  8  1  0  0  0  0
 17 26  1  0  0  0  0
 18 22  1  0  0  0  0
 19 21  1  0  0  0  0
 20 16  2  0  0  0  0
 21 31  1  0  0  0  0
 22 15  1  0  0  0  0
 23 18  1  0  0  0  0
 23 30  1  0  0  0  0
 25  4  1  0  0  0  0
 25 12  1  0  0  0  0
 26  8  2  0  0  0  0
 27 21  1  0  0  0  0
 28  2  1  0  0  0  0
 28  7  1  0  0  0  0
 29 28  1  0  0  0  0
 30 14  1  0  0  0  0
 32 33  1  0  0  0  0
 33 34  1  0  0  0  0
 34 35  2  0  0  0  0
 34 37  1  0  0  0  0
 34 36  1  0  0  0  0
M  END
>  <MODEL>
1

>  <REMARK>
 VINA RESULT:      -7.2      0.000      0.000
  Name = 
  3 active torsions:
  status: ('A' for Active; 'I' for Inactive)
    1  A    between atoms: P_3  and  O_19
    2  A    between atoms: C_11  and  C_33
    3  A    between atoms: O_19  and  C_33
                            x       y       z     vdW  Elec       q    Type
                         _______ _______ _______ _____ _____    ______ ____

>  <TORSDO>
F 3

$$$$
=
 OpenBabel10222421183D

 37 44  0  0  1  0  0  0  0  0999 V2000
  189.9110  176.8230  140.5110 N   0  0  2  0  0  0  0  0  0  0  0  0
  190.8770  177.4570  138.6670 C   0  0  2  0  0  3  0  0  0  0  0  0
  188.8790  176.2980  138.2710 C   0  0  2  0  0  3  0  0  0  0  0  0
  187.7490  177.0980  137.5730 C   0  0  1  0  0  0  0  0  0  0  0  0
  186.9960  177.9940  138.5480 C   0  0  0  0  0  1  0  0  0  0  0  0
  191.3240  174.2880  135.2070 C   0  0  0  0  0  0  0  0  0  0  0  0
  193.2090  176.7200  138.9420 S   0  0  0  0  0  0  0  0  0  0  0  0
  192.7040  171.9500  135.8870 C   0  0  0  0  0  0  0  0  0  0  0  0
  191.4720  177.3750  142.1780 C   0  0  0  0  0  2  0  0  0  0  0  0
  190.0670  177.3000  142.8110 C   0  0  1  0  0  3  0  0  0  0  0  0
  189.6760  177.1440  139.2230 C   0  0  1  0  0  3  0  0  0  0  0  0
  188.8310  177.0210  135.3460 C   0  0  2  0  0  3  0  0  0  0  0  0
  193.3760  170.8180  136.2050 F   0  0  0  0  0  0  0  0  0  0  0  0
  193.4070  175.9600  135.9600 S   0  0  0  0  0  0  0  0  0  0  0  0
  190.5730  175.4880  135.0010 N   0  0  0  0  0  2  0  0  0  0  0  0
  191.4040  171.8720  135.3800 C   0  0  0  0  0  3  0  0  0  0  0  0
  192.6210  174.3660  135.7360 C   0  0  0  0  0  0  0  0  0  0  0  0
  189.9820  175.8710  137.2460 C   0  0  1  0  0  3  0  0  0  0  0  0
  185.4960  177.4560  135.4460 O   0  0  0  0  0  1  0  0  0  0  0  0
  190.7090  173.0400  135.0510 C   0  0  0  0  0  3  0  0  0  0  0  0
  186.3500  176.3540  135.5150 C   0  0  2  0  0  3  0  0  0  0  0  0
  189.4980  175.8010  135.8490 N   0  0  1  0  0  0  0  0  0  0  0  0
  191.1510  176.8060  137.4860 C   0  0  2  0  0  3  0  0  0  0  0  0
  189.0720  177.0300  141.6670 C   0  0  0  0  0  2  0  0  0  0  0  0
  188.3860  177.9620  136.4760 C   0  0  0  0  0  2  0  0  0  0  0  0
  193.3100  173.1970  136.0710 C   0  0  0  0  0  3  0  0  0  0  0  0
  186.7370  176.0880  136.9840 C   0  0  0  0  0  2  0  0  0  0  0  0
  191.8600  177.4590  139.6300 C   0  0  2  0  0  3  0  0  0  0  0  0
  191.2010  177.0280  140.7690 C   0  0  2  0  0  3  0  0  0  0  0  0
  192.4870  176.3950  137.4420 C   0  0  2  0  0  3  0  0  0  0  0  0
  187.5680  176.5820  134.5950 C   0  0  0  0  0  2  0  0  0  0  0  0
  190.0060  176.1590  143.8100 C   0  0  0  0  0  2  0  0  0  0  0  0
  191.2850  175.8890  144.3020 O   0  0  0  0  0  0  0  0  0  0  0  0
  191.3530  176.6360  145.8220 P   0  0  0  0  0  0  0  0  0  0  0  0
  191.9100  178.0360  145.6830 O   0  0  0  0  0  0  0  0  0  0  0  0
  189.8050  176.7060  146.5040 O   0  0  0  0  0  1  0  0  0  0  0  0
  192.3640  175.7340  146.8330 O   0  0  0  0  0  1  0  0  0  0  0  0
  1 29  1  0  0  0  0
  1 24  1  1  0  0  0
  2 11  1  0  0  0  0
  2 28  1  0  0  0  0
  3 11  1  0  0  0  0
  4  3  1  0  0  0  0
  4  5  1  0  0  0  0
  6 17  1  0  0  0  0
  7 28  1  0  0  0  0
  8 26  1  0  0  0  0
  8 13  1  0  0  0  0
  9 10  1  0  0  0  0
 10 32  1  0  0  0  0
 11  1  1  0  0  0  0
 12 22  1  0  0  0  0
 12 25  1  0  0  0  0
 14 30  1  0  0  0  0
 15  6  1  0  0  0  0
 15 22  1  0  0  0  0
 16  8  2  0  0  0  0
 17 14  1  0  0  0  0
 17 26  2  0  0  0  0
 18 23  1  0  0  0  0
 18  3  1  0  0  0  0
 19 21  1  0  0  0  0
 20  6  2  0  0  0  0
 20 16  1  0  0  0  0
 21 27  1  0  0  0  0
 22 18  1  0  0  0  0
 23  2  1  0  0  0  0
 24 10  1  0  0  0  0
 25  4  1  0  0  0  0
 27  4  1  0  0  0  0
 28 29  1  0  0  0  0
 29  9  1  0  0  0  0
 30 23  1  0  0  0  0
 30  7  1  0  0  0  0
 31 12  1  0  0  0  0
 31 21  1  0  0  0  0
 32 33  1  0  0  0  0
 33 34  1  0  0  0  0
 34 36  1  0  0  0  0
 34 37  1  0  0  0  0
 35 34  2  0  0  0  0
M  END
>  <MODEL>
2

>  <REMARK>
 VINA RESULT:      -6.9      4.774      7.938
  Name = 
  3 active torsions:
  status: ('A' for Active; 'I' for Inactive)
    1  A    between atoms: P_3  and  O_19
    2  A    between atoms: C_11  and  C_33
    3  A    between atoms: O_19  and  C_33
                            x       y       z     vdW  Elec       q    Type
                         _______ _______ _______ _____ _____    ______ ____

>  <TORSDO>
F 3

$$$$
=
 OpenBabel10222421183D

 37 44  0  0  1  0  0  0  0  0999 V2000
  184.1420  178.2620  141.0370 N   0  0  2  0  0  0  0  0  0  0  0  0
  184.6720  178.5720  138.9490 C   0  0  2  0  0  3  0  0  0  0  0  0
  182.8740  177.0900  139.2000 C   0  0  2  0  0  3  0  0  0  0  0  0
  181.5220  177.5410  138.5870 C   0  0  1  0  0  0  0  0  0  0  0  0
  180.7890  178.5290  139.4850 C   0  0  0  0  0  1  0  0  0  0  0  0
  185.1130  174.7730  136.1960 C   0  0  0  0  0  0  0  0  0  0  0  0
  187.1110  178.2470  138.9080 S   0  0  0  0  0  0  0  0  0  0  0  0
  186.9770  172.8710  137.0590 C   0  0  0  0  0  0  0  0  0  0  0  0
  185.8270  179.3980  142.2160 C   0  0  0  0  0  2  0  0  0  0  0  0
  184.5770  179.2820  143.1130 C   0  0  1  0  0  3  0  0  0  0  0  0
  183.6510  178.2360  139.7820 C   0  0  1  0  0  3  0  0  0  0  0  0
  182.2310  177.0930  136.2560 C   0  0  2  0  0  3  0  0  0  0  0  0
  187.8810  171.9480  137.4650 F   0  0  0  0  0  0  0  0  0  0  0  0
  186.9600  176.8430  136.1660 S   0  0  0  0  0  0  0  0  0  0  0  0
  184.1380  175.7760  135.8990 N   0  0  0  0  0  2  0  0  0  0  0  0
  185.6470  172.4990  136.8430 C   0  0  0  0  0  3  0  0  0  0  0  0
  186.4440  175.1500  136.4330 C   0  0  0  0  0  0  0  0  0  0  0  0
  183.8560  176.5890  138.0880 C   0  0  1  0  0  3  0  0  0  0  0  0
  178.9310  177.0780  136.9150 O   0  0  0  0  0  1  0  0  0  0  0  0
  184.7130  173.4510  136.4240 C   0  0  0  0  0  3  0  0  0  0  0  0
  179.9660  176.1510  137.0410 C   0  0  2  0  0  3  0  0  0  0  0  0
  183.1750  176.1280  136.8580 N   0  0  1  0  0  0  0  0  0  0  0  0
  184.8640  177.7060  137.8970 C   0  0  2  0  0  3  0  0  0  0  0  0
  183.4760  178.6160  142.2670 C   0  0  0  0  0  2  0  0  0  0  0  0
  181.8130  178.2030  137.2320 C   0  0  0  0  0  2  0  0  0  0  0  0
  187.3740  174.1970  136.8600 C   0  0  0  0  0  3  0  0  0  0  0  0
  180.6250  176.2920  138.4280 C   0  0  0  0  0  2  0  0  0  0  0  0
  185.7810  178.9350  139.6800 C   0  0  2  0  0  3  0  0  0  0  0  0
  185.4000  178.6970  140.9900 C   0  0  2  0  0  3  0  0  0  0  0  0
  186.2270  177.4840  137.6770 C   0  0  2  0  0  3  0  0  0  0  0  0
  180.9610  176.3210  135.8730 C   0  0  0  0  0  2  0  0  0  0  0  0
  184.8810  178.4090  144.3180 C   0  0  0  0  0  2  0  0  0  0  0  0
  186.0460  178.8540  144.9460 O   0  0  0  0  0  0  0  0  0  0  0  0
  185.7710  178.6540  146.6070 P   0  0  0  0  0  0  0  0  0  0  0  0
  184.3370  178.2320  146.8430 O   0  0  0  0  0  0  0  0  0  0  0  0
  186.8190  177.4790  147.2300 O   0  0  0  0  0  1  0  0  0  0  0  0
  186.0550  180.1230  147.3930 O   0  0  0  0  0  1  0  0  0  0  0  0
  1 24  1  1  0  0  0
  2 28  1  0  0  0  0
  2 11  1  0  0  0  0
  3 11  1  0  0  0  0
  4  3  1  0  0  0  0
  4  5  1  0  0  0  0
  6 20  2  0  0  0  0
  6 17  1  0  0  0  0
  7 28  1  0  0  0  0
  8 13  1  0  0  0  0
  9 10  1  0  0  0  0
 10 32  1  0  0  0  0
 11  1  1  0  0  0  0
 12 22  1  0  0  0  0
 12 25  1  0  0  0  0
 14 17  1  0  0  0  0
 14 30  1  0  0  0  0
 15  6  1  0  0  0  0
 15 22  1  0  0  0  0
 16  8  2  0  0  0  0
 17 26  2  0  0  0  0
 18  3  1  0  0  0  0
 19 21  1  0  0  0  0
 20 16  1  0  0  0  0
 21 27  1  0  0  0  0
 22 18  1  0  0  0  0
 23 18  1  0  0  0  0
 23  2  1  0  0  0  0
 24 10  1  0  0  0  0
 25  4  1  0  0  0  0
 26  8  1  0  0  0  0
 27  4  1  0  0  0  0
 28 29  1  0  0  0  0
 29  1  1  0  0  0  0
 29  9  1  0  0  0  0
 30 23  1  0  0  0  0
 30  7  1  0  0  0  0
 31 12  1  0  0  0  0
 31 21  1  0  0  0  0
 32 33  1  0  0  0  0
 33 34  1  0  0  0  0
 34 35  2  0  0  0  0
 34 36  1  0  0  0  0
 34 37  1  0  0  0  0
M  END
>  <MODEL>
3

>  <REMARK>
 VINA RESULT:      -6.9      5.808      9.352
  Name = 
  3 active torsions:
  status: ('A' for Active; 'I' for Inactive)
    1  A    between atoms: P_3  and  O_19
    2  A    between atoms: C_11  and  C_33
    3  A    between atoms: O_19  and  C_33
                            x       y       z     vdW  Elec       q    Type
                         _______ _______ _______ _____ _____    ______ ____

>  <TORSDO>
F 3

$$$$
=
 OpenBabel10222421183D

 37 44  0  0  1  0  0  0  0  0999 V2000
  184.6980  178.2500  142.6110 N   0  0  2  0  0  0  0  0  0  0  0  0
  185.0320  178.9740  140.5860 C   0  0  2  0  0  3  0  0  0  0  0  0
  183.0560  177.7280  140.7710 C   0  0  2  0  0  3  0  0  0  0  0  0
  181.7360  178.4890  140.4780 C   0  0  1  0  0  0  0  0  0  0  0  0
  181.2810  179.3230  141.6680 C   0  0  0  0  0  1  0  0  0  0  0  0
  184.5300  175.9140  137.0370 C   0  0  0  0  0  0  0  0  0  0  0  0
  187.3650  178.3450  140.1140 S   0  0  0  0  0  0  0  0  0  0  0  0
  186.1420  173.6310  137.1790 C   0  0  0  0  0  0  0  0  0  0  0  0
  186.6700  178.8370  143.7470 C   0  0  0  0  0  2  0  0  0  0  0  0
  185.5280  178.6790  144.7720 C   0  0  1  0  0  3  0  0  0  0  0  0
  184.0710  178.5890  141.4680 C   0  0  1  0  0  3  0  0  0  0  0  0
  182.0920  178.5170  138.0270 C   0  0  2  0  0  3  0  0  0  0  0  0
  186.9230  172.5260  137.2360 F   0  0  0  0  0  0  0  0  0  0  0  0
  186.6760  177.6670  137.1860 S   0  0  0  0  0  0  0  0  0  0  0  0
  183.7050  177.0800  137.1130 N   0  0  0  0  0  2  0  0  0  0  0  0
  184.7540  173.5020  137.0860 C   0  0  0  0  0  3  0  0  0  0  0  0
  185.9220  176.0430  137.1510 C   0  0  0  0  0  0  0  0  0  0  0  0
  183.8100  177.3800  139.4440 C   0  0  1  0  0  3  0  0  0  0  0  0
  178.9310  178.7860  139.1480 O   0  0  0  0  0  1  0  0  0  0  0  0
  183.9470  174.6420  137.0280 C   0  0  0  0  0  3  0  0  0  0  0  0
  179.8080  177.7260  138.9140 C   0  0  2  0  0  3  0  0  0  0  0  0
  182.9280  177.3200  138.2580 N   0  0  1  0  0  0  0  0  0  0  0  0
  184.9590  178.3650  139.3540 C   0  0  2  0  0  3  0  0  0  0  0  0
  184.2430  178.3870  143.9730 C   0  0  0  0  0  2  0  0  0  0  0  0
  181.9750  179.4080  139.2720 C   0  0  0  0  0  2  0  0  0  0  0  0
  186.7260  174.9010  137.2170 C   0  0  0  0  0  3  0  0  0  0  0  0
  180.6330  177.4440  140.1850 C   0  0  0  0  0  2  0  0  0  0  0  0
  186.2610  179.0010  141.2060 C   0  0  2  0  0  3  0  0  0  0  0  0
  185.9970  178.5120  142.4740 C   0  0  2  0  0  3  0  0  0  0  0  0
  186.2340  178.0220  138.8910 C   0  0  2  0  0  3  0  0  0  0  0  0
  180.6780  178.0350  137.6770 C   0  0  0  0  0  2  0  0  0  0  0  0
  185.8180  177.5130  145.6980 C   0  0  0  0  0  2  0  0  0  0  0  0
  187.1160  177.0440  145.4800 O   0  0  0  0  0  0  0  0  0  0  0  0
  188.0080  177.5290  146.8370 P   0  0  0  0  0  0  0  0  0  0  0  0
  188.3060  176.3300  147.7120 O   0  0  0  0  0  1  0  0  0  0  0  0
  189.4600  178.2500  146.3490 O   0  0  0  0  0  0  0  0  0  0  0  0
  187.1020  178.6490  147.7210 O   0  0  0  0  0  1  0  0  0  0  0  0
  1 24  1  1  0  0  0
  2 28  1  0  0  0  0
  2 11  1  0  0  0  0
  3 11  1  0  0  0  0
  4  3  1  0  0  0  0
  4  5  1  0  0  0  0
  6 15  1  0  0  0  0
  6 17  1  0  0  0  0
  7 28  1  0  0  0  0
  8 26  1  0  0  0  0
  8 13  1  0  0  0  0
  9 10  1  0  0  0  0
 10 32  1  0  0  0  0
 11  1  1  0  0  0  0
 12 22  1  0  0  0  0
 12 25  1  0  0  0  0
 14 30  1  0  0  0  0
 15 22  1  0  0  0  0
 16  8  2  0  0  0  0
 17 14  1  0  0  0  0
 17 26  2  0  0  0  0
 18  3  1  0  0  0  0
 20  6  2  0  0  0  0
 20 16  1  0  0  0  0
 21 19  1  0  0  0  0
 21 27  1  0  0  0  0
 22 18  1  0  0  0  0
 23 18  1  0  0  0  0
 23  2  1  0  0  0  0
 24 10  1  0  0  0  0
 25  4  1  0  0  0  0
 27  4  1  0  0  0  0
 28 29  1  0  0  0  0
 29  1  1  0  0  0  0
 29  9  1  0  0  0  0
 30 23  1  0  0  0  0
 30  7  1  0  0  0  0
 31 12  1  0  0  0  0
 31 21  1  0  0  0  0
 33 32  1  0  0  0  0
 33 34  1  0  0  0  0
 34 35  1  0  0  0  0
 34 37  1  0  0  0  0
 36 34  2  0  0  0  0
M  END
>  <MODEL>
4

>  <REMARK>
 VINA RESULT:      -6.8      6.100      9.712
  Name = 
  3 active torsions:
  status: ('A' for Active; 'I' for Inactive)
    1  A    between atoms: P_3  and  O_19
    2  A    between atoms: C_11  and  C_33
    3  A    between atoms: O_19  and  C_33
                            x       y       z     vdW  Elec       q    Type
                         _______ _______ _______ _____ _____    ______ ____

>  <TORSDO>
F 3

$$$$
=
 OpenBabel10222421183D

 37 44  0  0  1  0  0  0  0  0999 V2000
  189.1080  176.9630  140.0960 N   0  0  2  0  0  0  0  0  0  0  0  0
  189.6590  177.5470  138.0730 C   0  0  2  0  0  3  0  0  0  0  0  0
  187.5600  176.5090  138.1590 C   0  0  2  0  0  3  0  0  0  0  0  0
  186.3470  177.3770  137.7330 C   0  0  1  0  0  0  0  0  0  0  0  0
  185.8930  178.3120  138.8450 C   0  0  0  0  0  1  0  0  0  0  0  0
  189.1110  174.3710  134.6340 C   0  0  0  0  0  0  0  0  0  0  0  0
  191.9450  176.6720  137.8110 S   0  0  0  0  0  0  0  0  0  0  0  0
  190.4730  171.9530  135.0010 C   0  0  0  0  0  0  0  0  0  0  0  0
  191.0410  177.4150  141.3540 C   0  0  0  0  0  2  0  0  0  0  0  0
  189.8170  177.4210  142.2930 C   0  0  1  0  0  3  0  0  0  0  0  0
  188.6030  177.3020  138.8940 C   0  0  1  0  0  3  0  0  0  0  0  0
  186.8810  177.2450  135.3170 C   0  0  2  0  0  3  0  0  0  0  0  0
  191.1320  170.7820  135.1660 F   0  0  0  0  0  0  0  0  0  0  0  0
  191.4050  175.9140  134.8710 S   0  0  0  0  0  0  0  0  0  0  0  0
  188.4050  175.6140  134.5950 N   0  0  0  0  0  2  0  0  0  0  0  0
  189.0880  171.9540  134.8070 C   0  0  0  0  0  3  0  0  0  0  0  0
  190.4980  174.3710  134.8490 C   0  0  0  0  0  0  0  0  0  0  0  0
  188.3700  176.0220  136.9110 C   0  0  1  0  0  3  0  0  0  0  0  0
  183.6900  177.8750  136.1770 O   0  0  0  0  0  1  0  0  0  0  0  0
  188.4060  173.1620  134.6360 C   0  0  0  0  0  3  0  0  0  0  0  0
  184.4710  176.7250  136.0590 C   0  0  2  0  0  3  0  0  0  0  0  0
  187.5740  175.9860  135.6640 N   0  0  1  0  0  0  0  0  0  0  0  0
  189.6150  176.8850  136.8670 C   0  0  2  0  0  3  0  0  0  0  0  0
  188.5720  177.2140  141.4120 C   0  0  0  0  0  2  0  0  0  0  0  0
  186.7640  178.2060  136.5090 C   0  0  0  0  0  2  0  0  0  0  0  0
  191.1760  173.1610  135.0280 C   0  0  0  0  0  3  0  0  0  0  0  0
  185.1700  176.4300  137.4010 C   0  0  0  0  0  2  0  0  0  0  0  0
  190.8360  177.4870  138.7840 C   0  0  2  0  0  3  0  0  0  0  0  0
  190.4330  177.0910  140.0480 C   0  0  2  0  0  3  0  0  0  0  0  0
  190.8790  176.3970  136.5200 C   0  0  2  0  0  3  0  0  0  0  0  0
  185.4560  176.8840  134.8810 C   0  0  0  0  0  2  0  0  0  0  0  0
  189.9220  176.2820  143.2900 C   0  0  0  0  0  2  0  0  0  0  0  0
  191.2250  176.2020  143.7870 O   0  0  0  0  0  0  0  0  0  0  0  0
  191.2220  177.1140  145.2160 P   0  0  0  0  0  0  0  0  0  0  0  0
  191.9150  178.4390  144.9820 O   0  0  0  0  0  0  0  0  0  0  0  0
  189.6310  177.3880  145.7260 O   0  0  0  0  0  1  0  0  0  0  0  0
  192.0500  176.2590  146.4160 O   0  0  0  0  0  1  0  0  0  0  0  0
  1 24  1  1  0  0  0
  2 28  1  0  0  0  0
  2 11  1  0  0  0  0
  3 11  1  0  0  0  0
  4  3  1  0  0  0  0
  4  5  1  0  0  0  0
  6 20  2  0  0  0  0
  6 17  1  0  0  0  0
  7 28  1  0  0  0  0
  8 26  1  0  0  0  0
  8 13  1  0  0  0  0
  9 10  1  0  0  0  0
 10 32  1  0  0  0  0
 11  1  1  0  0  0  0
 12 22  1  0  0  0  0
 12 25  1  0  0  0  0
 14 30  1  0  0  0  0
 15  6  1  0  0  0  0
 15 22  1  0  0  0  0
 16  8  2  0  0  0  0
 17 14  1  0  0  0  0
 17 26  2  0  0  0  0
 18  3  1  0  0  0  0
 20 16  1  0  0  0  0
 21 19  1  0  0  0  0
 21 27  1  0  0  0  0
 22 18  1  0  0  0  0
 23 18  1  0  0  0  0
 23  2  1  0  0  0  0
 24 10  1  0  0  0  0
 25  4  1  0  0  0  0
 27  4  1  0  0  0  0
 28 29  1  0  0  0  0
 29  1  1  0  0  0  0
 29  9  1  0  0  0  0
 30 23  1  0  0  0  0
 30  7  1  0  0  0  0
 31 12  1  0  0  0  0
 31 21  1  0  0  0  0
 32 33  1  0  0  0  0
 33 34  1  0  0  0  0
 34 36  1  0  0  0  0
 34 37  1  0  0  0  0
 35 34  2  0  0  0  0
M  END
>  <MODEL>
5

>  <REMARK>
 VINA RESULT:      -6.7      4.622      8.083
  Name = 
  3 active torsions:
  status: ('A' for Active; 'I' for Inactive)
    1  A    between atoms: P_3  and  O_19
    2  A    between atoms: C_11  and  C_33
    3  A    between atoms: O_19  and  C_33
                            x       y       z     vdW  Elec       q    Type
                         _______ _______ _______ _____ _____    ______ ____

>  <TORSDO>
F 3

$$$$
=
 OpenBabel10222421183D

 37 44  0  0  1  0  0  0  0  0999 V2000
  185.2660  178.0220  142.3480 N   0  0  2  0  0  0  0  0  0  0  0  0
  184.0810  179.1400  140.9050 C   0  0  2  0  0  3  0  0  0  0  0  0
  182.7460  177.9610  142.4300 C   0  0  2  0  0  3  0  0  0  0  0  0
  181.8390  178.8180  143.3520 C   0  0  1  0  0  0  0  0  0  0  0  0
  182.6080  179.4020  144.5290 C   0  0  0  0  0  1  0  0  0  0  0  0
  180.5110  176.9130  138.7820 C   0  0  0  0  0  0  0  0  0  0  0  0
  185.0710  178.5330  138.7350 S   0  0  0  0  0  0  0  0  0  0  0  0
  181.2040  174.5880  137.3840 C   0  0  0  0  0  0  0  0  0  0  0  0
  187.4710  178.2810  141.5800 C   0  0  0  0  0  2  0  0  0  0  0  0
  187.4990  177.9570  143.0880 C   0  0  1  0  0  3  0  0  0  0  0  0
  184.0710  178.6170  142.1610 C   0  0  1  0  0  3  0  0  0  0  0  0
  180.2160  179.3450  141.5560 C   0  0  2  0  0  3  0  0  0  0  0  0
  181.5300  173.4660  136.7000 F   0  0  0  0  0  0  0  0  0  0  0  0
  182.2990  178.5100  137.3850 S   0  0  0  0  0  0  0  0  0  0  0  0
  180.2690  178.0690  139.5890 N   0  0  0  0  0  2  0  0  0  0  0  0
  180.2380  174.5360  138.3930 C   0  0  0  0  0  3  0  0  0  0  0  0
  181.4950  176.9600  137.7830 C   0  0  0  0  0  0  0  0  0  0  0  0
  182.1520  177.8690  140.9840 C   0  0  1  0  0  3  0  0  0  0  0  0
  179.1290  179.4970  144.7370 O   0  0  0  0  0  1  0  0  0  0  0  0
  179.9000  175.6940  139.1000 C   0  0  0  0  0  3  0  0  0  0  0  0
  179.3040  178.4750  143.8030 C   0  0  2  0  0  3  0  0  0  0  0  0
  180.6910  178.0930  140.9280 N   0  0  1  0  0  0  0  0  0  0  0  0
  182.9900  178.8060  140.1350 C   0  0  2  0  0  3  0  0  0  0  0  0
  186.0350  177.8890  143.5610 C   0  0  0  0  0  2  0  0  0  0  0  0
  181.2500  179.9590  142.5110 C   0  0  0  0  0  2  0  0  0  0  0  0
  181.8360  175.7990  137.0840 C   0  0  0  0  0  3  0  0  0  0  0  0
  180.7300  177.9010  143.9210 C   0  0  0  0  0  2  0  0  0  0  0  0
  185.3250  178.9890  140.3380 C   0  0  2  0  0  3  0  0  0  0  0  0
  186.0260  178.2550  141.2800 C   0  0  2  0  0  3  0  0  0  0  0  0
  183.3760  178.5170  138.8230 C   0  0  2  0  0  3  0  0  0  0  0  0
  178.9740  179.0020  142.3890 C   0  0  0  0  0  2  0  0  0  0  0  0
  188.1640  176.6120  143.3180 C   0  0  0  0  0  2  0  0  0  0  0  0
  189.2250  176.7530  144.2160 O   0  0  0  0  0  0  0  0  0  0  0  0
  190.6320  176.6510  143.2750 P   0  0  0  0  0  0  0  0  0  0  0  0
  191.6520  175.7740  143.9680 O   0  0  0  0  0  1  0  0  0  0  0  0
  190.2660  176.0030  141.7540 O   0  0  0  0  0  0  0  0  0  0  0  0
  191.2750  178.2020  143.0770 O   0  0  0  0  0  1  0  0  0  0  0  0
  1 24  1  1  0  0  0
  2 11  1  0  0  0  0
  3  4  1  0  0  0  0
  4 27  1  0  0  0  0
  4  5  1  0  0  0  0
  6 20  1  0  0  0  0
  6 15  1  0  0  0  0
  7 30  1  0  0  0  0
  7 28  1  0  0  0  0
  8 16  1  0  0  0  0
  9 10  1  0  0  0  0
 10 32  1  0  0  0  0
 10 24  1  0  0  0  0
 11  1  1  0  0  0  0
 11  3  1  0  0  0  0
 12 31  1  0  0  0  0
 12 25  1  0  0  0  0
 13  8  1  0  0  0  0
 14 17  1  0  0  0  0
 14 30  1  0  0  0  0
 15 22  1  0  0  0  0
 16 20  2  0  0  0  0
 17  6  2  0  0  0  0
 18  3  1  0  0  0  0
 21 27  1  0  0  0  0
 21 19  1  0  0  0  0
 22 18  1  0  0  0  0
 22 12  1  0  0  0  0
 23  2  1  0  0  0  0
 23 18  1  0  0  0  0
 25  4  1  0  0  0  0
 26  8  2  0  0  0  0
 26 17  1  0  0  0  0
 28  2  1  0  0  0  0
 28 29  1  0  0  0  0
 29  9  1  0  0  0  0
 29  1  1  0  0  0  0
 30 23  1  0  0  0  0
 31 21  1  0  0  0  0
 32 33  1  0  0  0  0
 34 35  1  0  0  0  0
 34 33  1  0  0  0  0
 36 34  2  0  0  0  0
 37 34  1  0  0  0  0
M  END
>  <MODEL>
6

>  <REMARK>
 VINA RESULT:      -6.7      6.719     10.521
  Name = 
  3 active torsions:
  status: ('A' for Active; 'I' for Inactive)
    1  A    between atoms: P_3  and  O_19
    2  A    between atoms: C_11  and  C_33
    3  A    between atoms: O_19  and  C_33
                            x       y       z     vdW  Elec       q    Type
                         _______ _______ _______ _____ _____    ______ ____

>  <TORSDO>
F 3

$$$$
=
 OpenBabel10222421183D

 37 44  0  0  1  0  0  0  0  0999 V2000
  186.1770  178.0800  139.8130 N   0  0  2  0  0  0  0  0  0  0  0  0
  185.5450  178.1910  137.7330 C   0  0  2  0  0  3  0  0  0  0  0  0
  183.8020  177.5410  139.1590 C   0  0  2  0  0  3  0  0  0  0  0  0
  182.5890  178.5040  139.2410 C   0  0  1  0  0  0  0  0  0  0  0  0
  182.8570  179.6850  140.1640 C   0  0  0  0  0  1  0  0  0  0  0  0
  183.0770  174.5800  135.9800 C   0  0  0  0  0  0  0  0  0  0  0  0
  187.2750  176.9240  136.5250 S   0  0  0  0  0  0  0  0  0  0  0  0
  184.3240  172.0780  136.1420 C   0  0  0  0  0  0  0  0  0  0  0  0
  188.4980  178.4310  139.7110 C   0  0  0  0  0  2  0  0  0  0  0  0
  187.9950  178.8050  141.1210 C   0  0  1  0  0  3  0  0  0  0  0  0
  185.1060  178.2740  139.0180 C   0  0  1  0  0  3  0  0  0  0  0  0
  181.7000  177.8530  137.0220 C   0  0  2  0  0  3  0  0  0  0  0  0
  184.9210  170.8650  136.2100 F   0  0  0  0  0  0  0  0  0  0  0  0
  185.1790  175.7460  134.5940 S   0  0  0  0  0  0  0  0  0  0  0  0
  182.5130  175.8930  136.0220 N   0  0  0  0  0  2  0  0  0  0  0  0
  183.0620  172.2700  136.7130 C   0  0  0  0  0  3  0  0  0  0  0  0
  184.3520  174.3920  135.4250 C   0  0  0  0  0  0  0  0  0  0  0  0
  183.7730  176.7120  137.8310 C   0  0  1  0  0  3  0  0  0  0  0  0
  179.5350  179.1390  139.2550 O   0  0  0  0  0  1  0  0  0  0  0  0
  182.4440  173.5220  136.6430 C   0  0  0  0  0  3  0  0  0  0  0  0
  180.0780  177.8740  139.0220 C   0  0  2  0  0  3  0  0  0  0  0  0
  182.4220  176.5820  137.2430 N   0  0  1  0  0  0  0  0  0  0  0  0
  184.8200  177.3390  136.9310 C   0  0  2  0  0  3  0  0  0  0  0  0
  186.4630  178.6480  141.1080 C   0  0  0  0  0  2  0  0  0  0  0  0
  182.2950  179.0200  137.8250 C   0  0  0  0  0  2  0  0  0  0  0  0
  184.9710  173.1410  135.5040 C   0  0  0  0  0  3  0  0  0  0  0  0
  181.3890  177.7170  139.8190 C   0  0  0  0  0  2  0  0  0  0  0  0
  186.9160  178.0700  137.7070 C   0  0  2  0  0  3  0  0  0  0  0  0
  187.2610  177.9800  139.0450 C   0  0  2  0  0  3  0  0  0  0  0  0
  185.6650  176.5980  136.1000 C   0  0  2  0  0  3  0  0  0  0  0  0
  180.2580  177.6560  137.5050 C   0  0  0  0  0  2  0  0  0  0  0  0
  188.5880  177.8630  142.1520 C   0  0  0  0  0  2  0  0  0  0  0  0
  189.7370  178.4280  142.7080 O   0  0  0  0  0  0  0  0  0  0  0  0
  190.9400  177.2420  142.5690 P   0  0  0  0  0  0  0  0  0  0  0  0
  191.8420  177.2800  143.7830 O   0  0  0  0  0  1  0  0  0  0  0  0
  190.2310  175.7110  142.4360 O   0  0  0  0  0  1  0  0  0  0  0  0
  191.8590  177.5500  141.1840 O   0  0  0  0  0  0  0  0  0  0  0  0
  1 24  1  1  0  0  0
  2 11  1  0  0  0  0
  3  4  1  0  0  0  0
  4 27  1  0  0  0  0
  4  5  1  0  0  0  0
  6 15  1  0  0  0  0
  6 20  1  0  0  0  0
  7 28  1  0  0  0  0
  8 13  1  0  0  0  0
  8 16  1  0  0  0  0
  9 10  1  0  0  0  0
 10 32  1  0  0  0  0
 11  3  1  0  0  0  0
 11  1  1  0  0  0  0
 12 22  1  0  0  0  0
 12 31  1  0  0  0  0
 12 25  1  0  0  0  0
 14 17  1  0  0  0  0
 14 30  1  0  0  0  0
 15 22  1  0  0  0  0
 17 26  1  0  0  0  0
 17  6  2  0  0  0  0
 18  3  1  0  0  0  0
 20 16  2  0  0  0  0
 21 19  1  0  0  0  0
 21 27  1  0  0  0  0
 22 18  1  0  0  0  0
 23  2  1  0  0  0  0
 23 18  1  0  0  0  0
 24 10  1  0  0  0  0
 25  4  1  0  0  0  0
 26  8  2  0  0  0  0
 28  2  1  0  0  0  0
 28 29  1  0  0  0  0
 29  9  1  0  0  0  0
 29  1  1  0  0  0  0
 30  7  1  0  0  0  0
 30 23  1  0  0  0  0
 31 21  1  0  0  0  0
 32 33  1  0  0  0  0
 34 33  1  0  0  0  0
 34 35  1  0  0  0  0
 36 34  1  0  0  0  0
 37 34  2  0  0  0  0
M  END
>  <MODEL>
7

>  <REMARK>
 VINA RESULT:      -6.4      5.233      9.233
  Name = 
  3 active torsions:
  status: ('A' for Active; 'I' for Inactive)
    1  A    between atoms: P_3  and  O_19
    2  A    between atoms: C_11  and  C_33
    3  A    between atoms: O_19  and  C_33
                            x       y       z     vdW  Elec       q    Type
                         _______ _______ _______ _____ _____    ______ ____

>  <TORSDO>
F 3

$$$$
=
 OpenBabel10222421183D

 37 44  0  0  1  0  0  0  0  0999 V2000
  185.4310  177.9620  141.7930 N   0  0  2  0  0  0  0  0  0  0  0  0
  185.1740  178.6960  139.7600 C   0  0  2  0  0  3  0  0  0  0  0  0
  183.2560  177.6150  140.5650 C   0  0  2  0  0  3  0  0  0  0  0  0
  181.9810  178.4880  140.6960 C   0  0  1  0  0  0  0  0  0  0  0  0
  181.9930  179.3330  141.9620 C   0  0  0  0  0  1  0  0  0  0  0  0
  183.3270  175.7600  136.5700 C   0  0  0  0  0  0  0  0  0  0  0  0
  187.1790  177.8860  138.5850 S   0  0  0  0  0  0  0  0  0  0  0  0
  184.7030  173.3490  136.2150 C   0  0  0  0  0  0  0  0  0  0  0  0
  187.7010  178.3610  142.2490 C   0  0  0  0  0  2  0  0  0  0  0  0
  186.9280  178.2780  143.5820 C   0  0  1  0  0  3  0  0  0  0  0  0
  184.5080  178.3750  140.9020 C   0  0  1  0  0  3  0  0  0  0  0  0
  181.5520  178.5360  138.2560 C   0  0  2  0  0  3  0  0  0  0  0  0
  185.3650  172.1820  136.0320 F   0  0  0  0  0  0  0  0  0  0  0  0
  185.5520  177.3260  136.0260 S   0  0  0  0  0  0  0  0  0  0  0  0
  182.6700  176.9890  136.8930 N   0  0  0  0  0  2  0  0  0  0  0  0
  183.3490  173.3370  136.5630 C   0  0  0  0  0  3  0  0  0  0  0  0
  184.6910  175.7710  136.2400 C   0  0  0  0  0  0  0  0  0  0  0  0
  183.5250  177.2320  139.0710 C   0  0  1  0  0  3  0  0  0  0  0  0
  178.9360  179.0430  140.3110 O   0  0  0  0  0  1  0  0  0  0  0  0
  182.6640  174.5410  136.7530 C   0  0  0  0  0  3  0  0  0  0  0  0
  179.6020  177.9190  139.8210 C   0  0  2  0  0  3  0  0  0  0  0  0
  182.3140  177.2690  138.2220 N   0  0  1  0  0  0  0  0  0  0  0  0
  184.6670  178.1200  138.6180 C   0  0  2  0  0  3  0  0  0  0  0  0
  185.4380  178.1090  143.2280 C   0  0  0  0  0  2  0  0  0  0  0  0
  181.9080  179.4090  139.4690 C   0  0  0  0  0  2  0  0  0  0  0  0
  185.3750  174.5650  136.0590 C   0  0  0  0  0  3  0  0  0  0  0  0
  180.7570  177.5440  140.7710 C   0  0  0  0  0  2  0  0  0  0  0  0
  186.5320  178.6090  139.9640 C   0  0  2  0  0  3  0  0  0  0  0  0
  186.6390  178.1180  141.2540 C   0  0  2  0  0  3  0  0  0  0  0  0
  185.6990  177.6820  137.7810 C   0  0  2  0  0  3  0  0  0  0  0  0
  180.0650  178.1800  138.3710 C   0  0  0  0  0  2  0  0  0  0  0  0
  187.3940  177.0730  144.3780 C   0  0  0  0  0  2  0  0  0  0  0  0
  188.7120  176.7580  144.0380 O   0  0  0  0  0  0  0  0  0  0  0  0
  189.6750  177.4910  145.2240 P   0  0  0  0  0  0  0  0  0  0  0  0
  190.2020  178.8140  144.7130 O   0  0  0  0  0  0  0  0  0  0  0  0
  188.7690  177.7460  146.6310 O   0  0  0  0  0  1  0  0  0  0  0  0
  190.9780  176.4750  145.5810 O   0  0  0  0  0  1  0  0  0  0  0  0
  1 24  1  1  0  0  0
  2 28  1  0  0  0  0
  2 11  1  0  0  0  0
  3  4  1  0  0  0  0
  3 11  1  0  0  0  0
  4 27  1  0  0  0  0
  4  5  1  0  0  0  0
  6 20  1  0  0  0  0
  6 15  1  0  0  0  0
  7 28  1  0  0  0  0
  8 16  1  0  0  0  0
  9 10  1  0  0  0  0
 10 32  1  0  0  0  0
 11  1  1  0  0  0  0
 12 31  1  0  0  0  0
 12 25  1  0  0  0  0
 13  8  1  0  0  0  0
 14 17  1  0  0  0  0
 14 30  1  0  0  0  0
 15 22  1  0  0  0  0
 16 20  2  0  0  0  0
 17  6  2  0  0  0  0
 18  3  1  0  0  0  0
 21 19  1  0  0  0  0
 21 27  1  0  0  0  0
 22 12  1  0  0  0  0
 22 18  1  0  0  0  0
 23 18  1  0  0  0  0
 23  2  1  0  0  0  0
 24 10  1  0  0  0  0
 25  4  1  0  0  0  0
 26  8  2  0  0  0  0
 26 17  1  0  0  0  0
 28 29  1  0  0  0  0
 29  1  1  0  0  0  0
 29  9  1  0  0  0  0
 30  7  1  0  0  0  0
 30 23  1  0  0  0  0
 31 21  1  0  0  0  0
 33 32  1  0  0  0  0
 33 34  1  0  0  0  0
 34 37  1  0  0  0  0
 34 36  1  0  0  0  0
 35 34  2  0  0  0  0
M  END
>  <MODEL>
8

>  <REMARK>
 VINA RESULT:      -6.3      5.943      9.727
  Name = 
  3 active torsions:
  status: ('A' for Active; 'I' for Inactive)
    1  A    between atoms: P_3  and  O_19
    2  A    between atoms: C_11  and  C_33
    3  A    between atoms: O_19  and  C_33
                            x       y       z     vdW  Elec       q    Type
                         _______ _______ _______ _____ _____    ______ ____

>  <TORSDO>
F 3

$$$$
=
 OpenBabel10222421183D

 37 44  0  0  1  0  0  0  0  0999 V2000
  185.6100  177.4470  137.6470 N   0  0  2  0  0  0  0  0  0  0  0  0
  183.7480  177.6880  136.5460 C   0  0  2  0  0  3  0  0  0  0  0  0
  183.3870  177.2640  138.8230 C   0  0  2  0  0  3  0  0  0  0  0  0
  182.6810  178.3880  139.6260 C   0  0  1  0  0  0  0  0  0  0  0  0
  183.6420  179.5000  140.0210 C   0  0  0  0  0  1  0  0  0  0  0  0
  180.3470  174.4990  137.2350 C   0  0  0  0  0  0  0  0  0  0  0  0
  184.0240  176.2120  134.5960 S   0  0  0  0  0  0  0  0  0  0  0  0
  181.0640  171.8440  136.7160 C   0  0  0  0  0  0  0  0  0  0  0  0
  187.2570  177.4660  135.9720 C   0  0  0  0  0  2  0  0  0  0  0  0
  187.8990  177.8800  137.3120 C   0  0  1  0  0  3  0  0  0  0  0  0
  184.3180  177.8070  137.7760 C   0  0  1  0  0  3  0  0  0  0  0  0
  180.4490  177.9140  138.6590 C   0  0  2  0  0  3  0  0  0  0  0  0
  181.3990  170.5570  136.4610 F   0  0  0  0  0  0  0  0  0  0  0  0
  181.0560  175.3820  134.7020 S   0  0  0  0  0  0  0  0  0  0  0  0
  180.1230  175.8790  137.5400 N   0  0  0  0  0  2  0  0  0  0  0  0
  180.5660  172.2010  137.9720 C   0  0  0  0  0  3  0  0  0  0  0  0
  180.8670  174.1440  135.9810 C   0  0  0  0  0  0  0  0  0  0  0  0
  182.3630  176.4740  137.9410 C   0  0  1  0  0  3  0  0  0  0  0  0
  180.5600  179.4490  141.6520 O   0  0  0  0  0  1  0  0  0  0  0  0
  180.2190  173.5290  138.2360 C   0  0  0  0  0  3  0  0  0  0  0  0
  180.6450  178.1260  141.2180 C   0  0  2  0  0  3  0  0  0  0  0  0
  180.9710  176.5490  138.4360 N   0  0  1  0  0  0  0  0  0  0  0  0
  182.5780  176.9640  136.5220 C   0  0  2  0  0  3  0  0  0  0  0  0
  186.7660  177.9420  138.3540 C   0  0  0  0  0  2  0  0  0  0  0  0
  181.5630  178.9680  138.7470 C   0  0  0  0  0  2  0  0  0  0  0  0
  181.2200  172.8160  135.7230 C   0  0  0  0  0  3  0  0  0  0  0  0
  182.1160  177.7680  140.9260 C   0  0  0  0  0  2  0  0  0  0  0  0
  184.7060  177.3740  135.6080 C   0  0  2  0  0  3  0  0  0  0  0  0
  185.8570  177.2090  136.3600 C   0  0  2  0  0  3  0  0  0  0  0  0
  182.5340  176.1260  135.4030 C   0  0  2  0  0  3  0  0  0  0  0  0
  179.7140  177.9140  140.0060 C   0  0  0  0  0  2  0  0  0  0  0  0
  188.9200  176.8420  137.7420 C   0  0  0  0  0  2  0  0  0  0  0  0
  190.1660  177.4470  137.9230 O   0  0  0  0  0  0  0  0  0  0  0  0
  191.0600  176.3680  138.8770 P   0  0  0  0  0  0  0  0  0  0  0  0
  190.5560  176.4050  140.3030 O   0  0  0  0  0  1  0  0  0  0  0  0
  190.9160  174.7970  138.2650 O   0  0  0  0  0  0  0  0  0  0  0  0
  192.6860  176.8270  138.8510 O   0  0  0  0  0  1  0  0  0  0  0  0
  1 11  1  0  0  0  0
  1 24  1  6  0  0  0
  2 11  1  0  0  0  0
  3  4  1  0  0  0  0
  4  5  1  0  0  0  0
  4 27  1  0  0  0  0
  6 15  1  0  0  0  0
  6 20  1  0  0  0  0
  7 30  1  0  0  0  0
  7 28  1  0  0  0  0
  8 16  1  0  0  0  0
  9 29  1  0  0  0  0
  9 10  1  0  0  0  0
 10 32  1  0  0  0  0
 10 24  1  0  0  0  0
 11  3  1  0  0  0  0
 12 25  1  0  0  0  0
 12 31  1  0  0  0  0
 13  8  1  0  0  0  0
 14 30  1  0  0  0  0
 14 17  1  0  0  0  0
 15 22  1  0  0  0  0
 16 20  2  0  0  0  0
 17  6  2  0  0  0  0
 18 22  1  0  0  0  0
 18  3  1  0  0  0  0
 21 19  1  0  0  0  0
 22 12  1  0  0  0  0
 23  2  1  0  0  0  0
 23 18  1  0  0  0  0
 25  4  1  0  0  0  0
 26 17  1  0  0  0  0
 26  8  2  0  0  0  0
 27 21  1  0  0  0  0
 28 29  1  0  0  0  0
 28  2  1  0  0  0  0
 29  1  1  0  0  0  0
 30 23  1  0  0  0  0
 31 21  1  0  0  0  0
 32 33  1  0  0  0  0
 33 34  1  0  0  0  0
 34 35  1  0  0  0  0
 36 34  2  0  0  0  0
 37 34  1  0  0  0  0
M  END
>  <MODEL>
9

>  <REMARK>
 VINA RESULT:      -5.7      5.684      9.408
  Name = 
  3 active torsions:
  status: ('A' for Active; 'I' for Inactive)
    1  A    between atoms: P_3  and  O_19
    2  A    between atoms: C_11  and  C_33
    3  A    between atoms: O_19  and  C_33
                            x       y       z     vdW  Elec       q    Type
                         _______ _______ _______ _____ _____    ______ ____

>  <TORSDO>
F 3

$$$$
