=
 OpenBabel10222416003D

 25 29  0  0  1  0  0  0  0  0999 V2000
  186.0950  177.9720  144.9400 C   0  0  0  0  0  0  0  0  0  0  0  0
  181.7330  179.3390  141.9160 O   0  0  0  0  0  0  0  0  0  0  0  0
  186.3540  177.7140  142.2160 C   0  0  0  0  0  3  0  0  0  0  0  0
  183.8300  178.8330  146.1630 N   0  0  0  0  0  0  0  0  0  0  0  0
  183.8570  178.7510  144.7930 C   0  0  0  0  0  0  0  0  0  0  0  0
  187.2750  177.5280  144.4470 C   0  0  0  0  0  0  0  0  0  0  0  0
  188.2270  177.2540  145.5770 C   0  0  2  0  0  3  0  0  0  0  0  0
  187.4380  177.3790  143.0630 C   0  0  0  0  0  3  0  0  0  0  0  0
  182.7520  179.0150  142.5800 C   0  0  0  0  0  0  0  0  0  0  0  0
  183.9840  178.5370  141.8460 C   0  0  0  0  0  2  0  0  0  0  0  0
  186.0780  178.0470  146.2900 C   0  0  0  0  0  0  0  0  0  0  0  0
  185.0150  178.3080  144.1490 C   0  0  0  0  0  0  0  0  0  0  0  0
  184.9160  178.4900  146.9300 C   0  0  0  0  0  3  0  0  0  0  0  0
  185.1320  178.1840  142.7560 C   0  0  0  0  0  0  0  0  0  0  0  0
  187.3920  177.6040  146.8450 C   0  0  0  0  0  2  0  0  0  0  0  0
  182.7180  179.1080  144.0110 N   0  0  0  0  0  2  0  0  0  0  0  0
  189.4290  178.1800  145.5020 C   0  0  0  0  0  2  0  0  0  0  0  0
  190.6050  177.5150  146.0390 N   0  0  0  0  0  2  0  0  0  0  0  0
  191.3290  178.8150  143.8070 S   0  0  0  0  0  0  0  0  0  0  0  0
  191.5890  177.4540  144.9720 C   0  0  2  0  0  3  0  0  0  0  0  0
  191.9790  176.3730  142.8690 N   0  0  0  0  0  2  0  0  0  0  0  0
  191.5450  177.6820  142.3940 C   0  0  1  0  0  3  0  0  0  0  0  0
  191.4080  176.1780  144.1900 C   0  0  0  0  0  2  0  0  0  0  0  0
  190.4930  176.8320  140.2990 C   0  0  0  0  0  1  0  0  0  0  0  0
  190.2470  177.5470  141.6130 C   0  0  0  0  0  2  0  0  0  0  0  0
  1 11  1  0  0  0  0
  2  9  2  0  0  0  0
  3 14  2  0  0  0  0
  3  8  1  0  0  0  0
  4 13  1  0  0  0  0
  5  4  2  0  0  0  0
  6  1  1  0  0  0  0
  6  7  1  0  0  0  0
  7 17  1  6  0  0  0
  7 15  1  0  0  0  0
  8  6  2  0  0  0  0
  9 16  1  0  0  0  0
 10  9  1  0  0  0  0
 10 14  1  0  0  0  0
 11 15  1  0  0  0  0
 11 13  2  0  0  0  0
 12  5  1  0  0  0  0
 12  1  2  0  0  0  0
 14 12  1  0  0  0  0
 16  5  1  0  0  0  0
 17 18  1  0  0  0  0
 19 20  1  0  0  0  0
 20 18  1  1  0  0  0
 21 23  1  0  0  0  0
 22 25  1  1  0  0  0
 22 21  1  0  0  0  0
 22 19  1  0  0  0  0
 23 20  1  0  0  0  0
 24 25  1  0  0  0  0
M  END
>  <MODEL>
1

>  <REMARK>
 VINA RESULT:      -9.0      0.000      0.000
  Name = 
  4 active torsions:
  status: ('A' for Active; 'I' for Inactive)
    1  A    between atoms: N_7  and  C_11
    2  A    between atoms: N_7  and  C_20
    3  A    between atoms: C_8  and  C_20
    4  A    between atoms: C_16  and  C_24
                            x       y       z     vdW  Elec       q    Type
                         _______ _______ _______ _____ _____    ______ ____

>  <TORSDO>
F 4

$$$$
=
 OpenBabel10222416003D

 25 29  0  0  1  0  0  0  0  0999 V2000
  188.9340  177.3050  143.7600 C   0  0  0  0  0  0  0  0  0  0  0  0
  188.1810  177.9600  149.1500 O   0  0  0  0  0  0  0  0  0  0  0  0
  186.3790  177.8950  144.5860 C   0  0  0  0  0  3  0  0  0  0  0  0
  191.0360  177.0220  145.4540 N   0  0  0  0  0  0  0  0  0  0  0  0
  189.8010  177.3300  145.9710 C   0  0  0  0  0  0  0  0  0  0  0  0
  187.9650  177.4170  142.8200 C   0  0  0  0  0  0  0  0  0  0  0  0
  188.5490  177.1680  141.4580 C   0  0  2  0  0  3  0  0  0  0  0  0
  186.6510  177.7100  143.2080 C   0  0  0  0  0  3  0  0  0  0  0  0
  188.3170  177.8140  147.9070 C   0  0  0  0  0  0  0  0  0  0  0  0
  187.1110  177.9780  147.0120 C   0  0  0  0  0  2  0  0  0  0  0  0
  190.1450  177.0010  143.2430 C   0  0  0  0  0  0  0  0  0  0  0  0
  188.7090  177.4760  145.1120 C   0  0  0  0  0  0  0  0  0  0  0  0
  191.2350  176.8530  144.1060 C   0  0  0  0  0  3  0  0  0  0  0  0
  187.4110  177.7810  145.5490 C   0  0  0  0  0  0  0  0  0  0  0  0
  190.0490  176.8710  141.7570 C   0  0  0  0  0  2  0  0  0  0  0  0
  189.6120  177.4980  147.3750 N   0  0  0  0  0  2  0  0  0  0  0  0
  188.4510  178.4160  140.5970 C   0  0  0  0  0  2  0  0  0  0  0  0
  187.2760  178.3420  139.7440 N   0  0  0  0  0  2  0  0  0  0  0  0
  187.6990  176.4960  137.8450 S   0  0  0  0  0  0  0  0  0  0  0  0
  187.7440  178.2270  138.3750 C   0  0  2  0  0  3  0  0  0  0  0  0
  189.7780  178.0510  137.1200 N   0  0  0  0  0  2  0  0  0  0  0  0
  189.3520  176.6560  137.0910 C   0  0  1  0  0  3  0  0  0  0  0  0
  189.1840  178.6630  138.2960 C   0  0  0  0  0  2  0  0  0  0  0  0
  191.7760  176.1970  137.4590 C   0  0  0  0  0  1  0  0  0  0  0  0
  190.3630  175.7900  137.8280 C   0  0  0  0  0  2  0  0  0  0  0  0
  1 12  1  0  0  0  0
  3 14  1  0  0  0  0
  4  5  2  0  0  0  0
  5 16  1  0  0  0  0
  6  8  1  0  0  0  0
  6  1  2  0  0  0  0
  7 17  1  6  0  0  0
  7 15  1  0  0  0  0
  7  6  1  0  0  0  0
  8  3  2  0  0  0  0
  9  2  2  0  0  0  0
 10  9  1  0  0  0  0
 11  1  1  0  0  0  0
 11 13  2  0  0  0  0
 12 14  2  0  0  0  0
 12  5  1  0  0  0  0
 13  4  1  0  0  0  0
 14 10  1  0  0  0  0
 15 11  1  0  0  0  0
 16  9  1  0  0  0  0
 18 17  1  0  0  0  0
 19 20  1  0  0  0  0
 20 18  1  1  0  0  0
 21 23  1  0  0  0  0
 22 21  1  0  0  0  0
 22 25  1  1  0  0  0
 22 19  1  0  0  0  0
 23 20  1  0  0  0  0
 24 25  1  0  0  0  0
M  END
>  <MODEL>
2

>  <REMARK>
 VINA RESULT:      -8.7      3.476      5.875
  Name = 
  4 active torsions:
  status: ('A' for Active; 'I' for Inactive)
    1  A    between atoms: N_7  and  C_11
    2  A    between atoms: N_7  and  C_20
    3  A    between atoms: C_8  and  C_20
    4  A    between atoms: C_16  and  C_24
                            x       y       z     vdW  Elec       q    Type
                         _______ _______ _______ _____ _____    ______ ____

>  <TORSDO>
F 4

$$$$
=
 OpenBabel10222416003D

 25 29  0  0  1  0  0  0  0  0999 V2000
  189.0440  177.2560  144.0170 C   0  0  0  0  0  0  0  0  0  0  0  0
  188.1140  177.9990  149.3670 O   0  0  0  0  0  0  0  0  0  0  0  0
  186.4630  177.8540  144.7490 C   0  0  0  0  0  3  0  0  0  0  0  0
  191.0900  177.0060  145.7840 N   0  0  0  0  0  0  0  0  0  0  0  0
  189.8390  177.3190  146.2540 C   0  0  0  0  0  0  0  0  0  0  0  0
  188.1070  177.3500  143.0450 C   0  0  0  0  0  0  0  0  0  0  0  0
  188.7360  177.0800  141.7060 C   0  0  2  0  0  3  0  0  0  0  0  0
  186.7800  177.6470  143.3840 C   0  0  0  0  0  3  0  0  0  0  0  0
  188.2920  177.8330  148.1330 C   0  0  0  0  0  0  0  0  0  0  0  0
  187.1150  177.9790  147.1960 C   0  0  0  0  0  2  0  0  0  0  0  0
  190.2720  176.9460  143.5450 C   0  0  0  0  0  0  0  0  0  0  0  0
  188.7760  177.4490  145.3580 C   0  0  0  0  0  0  0  0  0  0  0  0
  191.3340  176.8150  144.4460 C   0  0  0  0  0  3  0  0  0  0  0  0
  187.4630  177.7580  145.7470 C   0  0  0  0  0  0  0  0  0  0  0  0
  190.2260  176.7910  142.0590 C   0  0  0  0  0  2  0  0  0  0  0  0
  189.6030  177.5110  147.6490 N   0  0  0  0  0  2  0  0  0  0  0  0
  188.6640  178.3130  140.8220 C   0  0  0  0  0  2  0  0  0  0  0  0
  188.0550  177.9750  139.5450 N   0  0  0  0  0  2  0  0  0  0  0  0
  188.9320  178.8780  137.1770 S   0  0  0  0  0  0  0  0  0  0  0  0
  189.1340  177.7710  138.5950 C   0  0  2  0  0  3  0  0  0  0  0  0
  189.7550  176.3440  136.7730 N   0  0  0  0  0  2  0  0  0  0  0  0
  189.3180  177.5180  136.0260 C   0  0  1  0  0  3  0  0  0  0  0  0
  189.0730  176.3660  138.0550 C   0  0  0  0  0  2  0  0  0  0  0  0
  186.9390  178.0770  135.5310 C   0  0  0  0  0  1  0  0  0  0  0  0
  188.1030  177.1710  135.1790 C   0  0  0  0  0  2  0  0  0  0  0  0
  1 12  1  0  0  0  0
  3 14  1  0  0  0  0
  4  5  2  0  0  0  0
  5 16  1  0  0  0  0
  6  8  1  0  0  0  0
  6  1  2  0  0  0  0
  7 17  1  6  0  0  0
  7 15  1  0  0  0  0
  7  6  1  0  0  0  0
  8  3  2  0  0  0  0
  9  2  2  0  0  0  0
 10  9  1  0  0  0  0
 11  1  1  0  0  0  0
 11 13  2  0  0  0  0
 12 14  2  0  0  0  0
 12  5  1  0  0  0  0
 13  4  1  0  0  0  0
 14 10  1  0  0  0  0
 15 11  1  0  0  0  0
 16  9  1  0  0  0  0
 18 17  1  0  0  0  0
 19 20  1  0  0  0  0
 20 18  1  1  0  0  0
 21 23  1  0  0  0  0
 22 25  1  1  0  0  0
 22 21  1  0  0  0  0
 22 19  1  0  0  0  0
 23 20  1  0  0  0  0
 25 24  1  0  0  0  0
M  END
>  <MODEL>
3

>  <REMARK>
 VINA RESULT:      -8.6      3.713      6.049
  Name = 
  4 active torsions:
  status: ('A' for Active; 'I' for Inactive)
    1  A    between atoms: N_7  and  C_11
    2  A    between atoms: N_7  and  C_20
    3  A    between atoms: C_8  and  C_20
    4  A    between atoms: C_16  and  C_24
                            x       y       z     vdW  Elec       q    Type
                         _______ _______ _______ _____ _____    ______ ____

>  <TORSDO>
F 4

$$$$
=
 OpenBabel10222416003D

 25 29  0  0  1  0  0  0  0  0999 V2000
  188.5380  177.5910  143.8040 C   0  0  0  0  0  0  0  0  0  0  0  0
  192.0570  176.7420  147.9200 O   0  0  0  0  0  0  0  0  0  0  0  0
  187.4730  177.4860  146.3350 C   0  0  0  0  0  3  0  0  0  0  0  0
  191.1810  177.2820  143.2690 N   0  0  0  0  0  0  0  0  0  0  0  0
  190.7550  177.2230  144.5730 C   0  0  0  0  0  0  0  0  0  0  0  0
  187.2020  177.7560  143.9450 C   0  0  0  0  0  0  0  0  0  0  0  0
  186.5710  177.9630  142.5960 C   0  0  2  0  0  3  0  0  0  0  0  0
  186.6250  177.7020  145.2210 C   0  0  0  0  0  3  0  0  0  0  0  0
  191.2210  176.9360  146.9990 C   0  0  0  0  0  0  0  0  0  0  0  0
  189.7610  177.0960  147.3550 C   0  0  0  0  0  2  0  0  0  0  0  0
  188.9490  177.6490  142.5180 C   0  0  0  0  0  0  0  0  0  0  0  0
  189.3980  177.3780  144.8640 C   0  0  0  0  0  0  0  0  0  0  0  0
  190.3090  177.4910  142.2300 C   0  0  0  0  0  3  0  0  0  0  0  0
  188.8690  177.3250  146.1630 C   0  0  0  0  0  0  0  0  0  0  0  0
  187.7790  177.8770  141.6160 C   0  0  0  0  0  2  0  0  0  0  0  0
  191.6760  177.0010  145.6400 N   0  0  0  0  0  2  0  0  0  0  0  0
  185.9510  179.3460  142.5020 C   0  0  0  0  0  2  0  0  0  0  0  0
  184.8280  179.3260  141.5780 N   0  0  0  0  0  2  0  0  0  0  0  0
  182.4140  178.3000  141.0190 S   0  0  0  0  0  0  0  0  0  0  0  0
  183.7950  178.4970  142.1730 C   0  0  2  0  0  3  0  0  0  0  0  0
  181.9090  178.6550  143.6430 N   0  0  0  0  0  2  0  0  0  0  0  0
  181.2160  178.5990  142.3620 C   0  0  1  0  0  3  0  0  0  0  0  0
  183.2400  179.1820  143.3950 C   0  0  0  0  0  2  0  0  0  0  0  0
  179.4260  180.1130  143.2120 C   0  0  0  0  0  1  0  0  0  0  0  0
  180.4590  179.8980  142.1240 C   0  0  0  0  0  2  0  0  0  0  0  0
  1  6  2  0  0  0  0
  1 12  1  0  0  0  0
  4  5  2  0  0  0  0
  5 12  1  0  0  0  0
  5 16  1  0  0  0  0
  6  8  1  0  0  0  0
  7 17  1  1  0  0  0
  7  6  1  0  0  0  0
  8  3  2  0  0  0  0
  9 10  1  0  0  0  0
  9  2  2  0  0  0  0
 11  1  1  0  0  0  0
 12 14  2  0  0  0  0
 13 11  2  0  0  0  0
 13  4  1  0  0  0  0
 14  3  1  0  0  0  0
 14 10  1  0  0  0  0
 15 11  1  0  0  0  0
 15  7  1  0  0  0  0
 16  9  1  0  0  0  0
 18 17  1  0  0  0  0
 19 20  1  0  0  0  0
 19 22  1  0  0  0  0
 20 18  1  6  0  0  0
 20 23  1  0  0  0  0
 22 25  1  6  0  0  0
 22 21  1  0  0  0  0
 23 21  1  0  0  0  0
 25 24  1  0  0  0  0
M  END
>  <MODEL>
4

>  <REMARK>
 VINA RESULT:      -8.6      3.444      7.685
  Name = 
  4 active torsions:
  status: ('A' for Active; 'I' for Inactive)
    1  A    between atoms: N_7  and  C_11
    2  A    between atoms: N_7  and  C_20
    3  A    between atoms: C_8  and  C_20
    4  A    between atoms: C_16  and  C_24
                            x       y       z     vdW  Elec       q    Type
                         _______ _______ _______ _____ _____    ______ ____

>  <TORSDO>
F 4

$$$$
=
 OpenBabel10222416003D

 25 29  0  0  1  0  0  0  0  0999 V2000
  185.7980  178.3660  144.2400 C   0  0  0  0  0  0  0  0  0  0  0  0
  189.8930  176.6610  147.4590 O   0  0  0  0  0  0  0  0  0  0  0  0
  188.1420  177.6660  142.9870 C   0  0  0  0  0  3  0  0  0  0  0  0
  185.4420  178.2700  146.9290 N   0  0  0  0  0  0  0  0  0  0  0  0
  186.6510  177.8860  146.4040 C   0  0  0  0  0  0  0  0  0  0  0  0
  185.8570  178.4600  142.8900 C   0  0  0  0  0  0  0  0  0  0  0  0
  184.5460  178.9660  142.3590 C   0  0  2  0  0  3  0  0  0  0  0  0
  187.0400  178.1170  142.2210 C   0  0  0  0  0  3  0  0  0  0  0  0
  188.9760  177.0490  146.6910 C   0  0  0  0  0  0  0  0  0  0  0  0
  189.2320  177.0880  145.2020 C   0  0  0  0  0  2  0  0  0  0  0  0
  184.6050  178.7470  144.7480 C   0  0  0  0  0  0  0  0  0  0  0  0
  186.8500  177.9320  145.0220 C   0  0  0  0  0  0  0  0  0  0  0  0
  184.4100  178.7010  146.1320 C   0  0  0  0  0  3  0  0  0  0  0  0
  188.0530  177.5690  144.3970 C   0  0  0  0  0  0  0  0  0  0  0  0
  183.6900  179.1720  143.6450 C   0  0  0  0  0  2  0  0  0  0  0  0
  187.7130  177.4440  147.2470 N   0  0  0  0  0  2  0  0  0  0  0  0
  183.8820  177.9170  141.4830 C   0  0  0  0  0  2  0  0  0  0  0  0
  184.1190  178.2170  140.0800 N   0  0  0  0  0  2  0  0  0  0  0  0
  181.5960  179.1020  139.8750 S   0  0  0  0  0  0  0  0  0  0  0  0
  182.8860  177.9380  139.3660 C   0  0  2  0  0  3  0  0  0  0  0  0
  180.9620  176.5130  139.4750 N   0  0  0  0  0  2  0  0  0  0  0  0
  180.3820  177.7460  139.9960 C   0  0  1  0  0  3  0  0  0  0  0  0
  182.3910  176.5620  139.7310 C   0  0  0  0  0  2  0  0  0  0  0  0
  180.2420  178.7860  142.2580 C   0  0  0  0  0  1  0  0  0  0  0  0
  179.9460  177.5450  141.4390 C   0  0  0  0  0  2  0  0  0  0  0  0
  1 11  1  0  0  0  0
  1 12  1  0  0  0  0
  3 14  1  0  0  0  0
  5  4  2  0  0  0  0
  5 16  1  0  0  0  0
  6  1  2  0  0  0  0
  7 17  1  6  0  0  0
  7  6  1  0  0  0  0
  7 15  1  0  0  0  0
  8  6  1  0  0  0  0
  8  3  2  0  0  0  0
  9 16  1  0  0  0  0
  9  2  2  0  0  0  0
 10  9  1  0  0  0  0
 11 13  2  0  0  0  0
 12  5  1  0  0  0  0
 13  4  1  0  0  0  0
 14 12  2  0  0  0  0
 14 10  1  0  0  0  0
 15 11  1  0  0  0  0
 18 17  1  0  0  0  0
 19 22  1  0  0  0  0
 20 23  1  0  0  0  0
 20 19  1  0  0  0  0
 20 18  1  1  0  0  0
 21 23  1  0  0  0  0
 21 22  1  0  0  0  0
 22 25  1  1  0  0  0
 25 24  1  0  0  0  0
M  END
>  <MODEL>
5

>  <REMARK>
 VINA RESULT:      -8.4      3.681      7.128
  Name = 
  4 active torsions:
  status: ('A' for Active; 'I' for Inactive)
    1  A    between atoms: N_7  and  C_11
    2  A    between atoms: N_7  and  C_20
    3  A    between atoms: C_8  and  C_20
    4  A    between atoms: C_16  and  C_24
                            x       y       z     vdW  Elec       q    Type
                         _______ _______ _______ _____ _____    ______ ____

>  <TORSDO>
F 4

$$$$
=
 OpenBabel10222416003D

 25 29  0  0  1  0  0  0  0  0999 V2000
  188.5330  177.5760  143.9760 C   0  0  0  0  0  0  0  0  0  0  0  0
  192.0610  176.7790  148.0940 O   0  0  0  0  0  0  0  0  0  0  0  0
  187.4540  177.3070  146.4890 C   0  0  0  0  0  3  0  0  0  0  0  0
  191.1950  177.4470  143.4580 N   0  0  0  0  0  0  0  0  0  0  0  0
  190.7610  177.3120  144.7540 C   0  0  0  0  0  0  0  0  0  0  0  0
  187.1880  177.6540  144.1080 C   0  0  0  0  0  0  0  0  0  0  0  0
  186.5580  177.8740  142.7620 C   0  0  2  0  0  3  0  0  0  0  0  0
  186.6050  177.5150  145.3750 C   0  0  0  0  0  3  0  0  0  0  0  0
  191.2240  176.9580  147.1730 C   0  0  0  0  0  0  0  0  0  0  0  0
  189.7540  177.0150  147.5180 C   0  0  0  0  0  2  0  0  0  0  0  0
  188.9500  177.7080  142.6970 C   0  0  0  0  0  0  0  0  0  0  0  0
  189.3950  177.3730  145.0360 C   0  0  0  0  0  0  0  0  0  0  0  0
  190.3200  177.6440  142.4190 C   0  0  0  0  0  3  0  0  0  0  0  0
  188.8590  177.2370  146.3260 C   0  0  0  0  0  0  0  0  0  0  0  0
  187.7760  177.9000  141.7920 C   0  0  0  0  0  2  0  0  0  0  0  0
  191.6850  177.1040  145.8220 N   0  0  0  0  0  2  0  0  0  0  0  0
  185.8550  179.2210  142.7140 C   0  0  0  0  0  2  0  0  0  0  0  0
  185.4170  179.5060  141.3570 N   0  0  0  0  0  2  0  0  0  0  0  0
  184.1250  178.5090  139.2290 S   0  0  0  0  0  0  0  0  0  0  0  0
  184.4010  178.5250  141.0180 C   0  0  2  0  0  3  0  0  0  0  0  0
  182.0200  178.2870  140.8970 N   0  0  0  0  0  2  0  0  0  0  0  0
  182.3190  178.4670  139.4820 C   0  0  1  0  0  3  0  0  0  0  0  0
  183.0910  178.9140  141.6520 C   0  0  0  0  0  2  0  0  0  0  0  0
  180.8330  179.4700  137.7480 C   0  0  0  0  0  1  0  0  0  0  0  0
  181.6780  179.7500  138.9750 C   0  0  0  0  0  2  0  0  0  0  0  0
  1  6  2  0  0  0  0
  1 12  1  0  0  0  0
  4  5  2  0  0  0  0
  5 12  1  0  0  0  0
  5 16  1  0  0  0  0
  6  8  1  0  0  0  0
  7 17  1  1  0  0  0
  7  6  1  0  0  0  0
  8  3  2  0  0  0  0
  9 10  1  0  0  0  0
  9  2  2  0  0  0  0
 11  1  1  0  0  0  0
 12 14  2  0  0  0  0
 13 11  2  0  0  0  0
 13  4  1  0  0  0  0
 14  3  1  0  0  0  0
 14 10  1  0  0  0  0
 15 11  1  0  0  0  0
 15  7  1  0  0  0  0
 16  9  1  0  0  0  0
 18 17  1  0  0  0  0
 19 22  1  0  0  0  0
 19 20  1  0  0  0  0
 20 18  1  6  0  0  0
 20 23  1  0  0  0  0
 21 23  1  0  0  0  0
 22 25  1  1  0  0  0
 22 21  1  0  0  0  0
 24 25  1  0  0  0  0
M  END
>  <MODEL>
6

>  <REMARK>
 VINA RESULT:      -8.3      3.626      7.480
  Name = 
  4 active torsions:
  status: ('A' for Active; 'I' for Inactive)
    1  A    between atoms: N_7  and  C_11
    2  A    between atoms: N_7  and  C_20
    3  A    between atoms: C_8  and  C_20
    4  A    between atoms: C_16  and  C_24
                            x       y       z     vdW  Elec       q    Type
                         _______ _______ _______ _____ _____    ______ ____

>  <TORSDO>
F 4

$$$$
=
 OpenBabel10222416003D

 25 29  0  0  1  0  0  0  0  0999 V2000
  189.1480  177.1860  144.6690 C   0  0  0  0  0  0  0  0  0  0  0  0
  184.5650  178.6250  147.3070 O   0  0  0  0  0  0  0  0  0  0  0  0
  186.9000  177.5440  143.1290 C   0  0  0  0  0  3  0  0  0  0  0  0
  189.1900  177.4880  147.3660 N   0  0  0  0  0  0  0  0  0  0  0  0
  188.0140  177.7020  146.6900 C   0  0  0  0  0  0  0  0  0  0  0  0
  189.2510  177.0030  143.3310 C   0  0  0  0  0  0  0  0  0  0  0  0
  190.6590  176.6120  142.9790 C   0  0  2  0  0  3  0  0  0  0  0  0
  188.1220  177.1710  142.5180 C   0  0  0  0  0  3  0  0  0  0  0  0
  185.5980  178.2930  146.6700 C   0  0  0  0  0  0  0  0  0  0  0  0
  185.5150  178.1340  145.1700 C   0  0  0  0  0  2  0  0  0  0  0  0
  190.3100  176.9710  145.3260 C   0  0  0  0  0  0  0  0  0  0  0  0
  187.9760  177.5490  145.3020 C   0  0  0  0  0  0  0  0  0  0  0  0
  190.3430  177.1240  146.7160 C   0  0  0  0  0  3  0  0  0  0  0  0
  186.8210  177.7380  144.5290 C   0  0  0  0  0  0  0  0  0  0  0  0
  191.3820  176.5820  144.3590 C   0  0  0  0  0  2  0  0  0  0  0  0
  186.8240  178.0760  147.3830 N   0  0  0  0  0  2  0  0  0  0  0  0
  191.3050  177.6720  142.1020 C   0  0  0  0  0  2  0  0  0  0  0  0
  192.3880  177.0870  141.3290 N   0  0  0  0  0  2  0  0  0  0  0  0
  190.5510  176.9990  139.3770 S   0  0  0  0  0  0  0  0  0  0  0  0
  192.1970  177.4910  139.9470 C   0  0  2  0  0  3  0  0  0  0  0  0
  192.6590  176.7470  137.7170 N   0  0  0  0  0  2  0  0  0  0  0  0
  191.2490  176.3880  137.8060 C   0  0  1  0  0  3  0  0  0  0  0  0
  193.1890  176.7730  139.0690 C   0  0  0  0  0  2  0  0  0  0  0  0
  191.7240  174.3680  136.4220 C   0  0  0  0  0  1  0  0  0  0  0  0
  191.0910  174.8780  137.7020 C   0  0  0  0  0  2  0  0  0  0  0  0
  1 12  1  0  0  0  0
  1 11  1  0  0  0  0
  3 14  1  0  0  0  0
  5  4  2  0  0  0  0
  5 16  1  0  0  0  0
  6  1  2  0  0  0  0
  7 17  1  6  0  0  0
  7  6  1  0  0  0  0
  7 15  1  0  0  0  0
  8  3  2  0  0  0  0
  8  6  1  0  0  0  0
  9  2  2  0  0  0  0
  9 16  1  0  0  0  0
 10  9  1  0  0  0  0
 11 13  2  0  0  0  0
 12  5  1  0  0  0  0
 13  4  1  0  0  0  0
 14 10  1  0  0  0  0
 14 12  2  0  0  0  0
 15 11  1  0  0  0  0
 18 17  1  0  0  0  0
 19 20  1  0  0  0  0
 20 18  1  1  0  0  0
 21 22  1  0  0  0  0
 21 23  1  0  0  0  0
 22 25  1  1  0  0  0
 22 19  1  0  0  0  0
 23 20  1  0  0  0  0
 24 25  1  0  0  0  0
M  END
>  <MODEL>
7

>  <REMARK>
 VINA RESULT:      -8.3      2.645      4.459
  Name = 
  4 active torsions:
  status: ('A' for Active; 'I' for Inactive)
    1  A    between atoms: N_7  and  C_11
    2  A    between atoms: N_7  and  C_20
    3  A    between atoms: C_8  and  C_20
    4  A    between atoms: C_16  and  C_24
                            x       y       z     vdW  Elec       q    Type
                         _______ _______ _______ _____ _____    ______ ____

>  <TORSDO>
F 4

$$$$
=
 OpenBabel10222416003D

 25 29  0  0  1  0  0  0  0  0999 V2000
  188.0780  178.0190  143.1870 C   0  0  0  0  0  0  0  0  0  0  0  0
  187.9710  177.2030  148.6060 O   0  0  0  0  0  0  0  0  0  0  0  0
  190.5090  177.7460  144.4410 C   0  0  0  0  0  3  0  0  0  0  0  0
  185.6960  177.9240  144.4840 N   0  0  0  0  0  0  0  0  0  0  0  0
  186.8530  177.7640  145.2050 C   0  0  0  0  0  0  0  0  0  0  0  0
  189.2010  178.0890  142.4330 C   0  0  0  0  0  0  0  0  0  0  0  0
  188.8320  178.3240  140.9950 C   0  0  2  0  0  3  0  0  0  0  0  0
  190.4560  177.9610  143.0430 C   0  0  0  0  0  3  0  0  0  0  0  0
  188.0320  177.3910  147.3630 C   0  0  0  0  0  0  0  0  0  0  0  0
  189.3860  177.4410  146.6950 C   0  0  0  0  0  2  0  0  0  0  0  0
  186.9440  178.1800  142.4690 C   0  0  0  0  0  0  0  0  0  0  0  0
  188.0870  177.8130  144.5520 C   0  0  0  0  0  0  0  0  0  0  0  0
  185.7110  178.1320  143.1270 C   0  0  0  0  0  3  0  0  0  0  0  0
  189.3200  177.6680  145.2070 C   0  0  0  0  0  0  0  0  0  0  0  0
  187.2770  178.3960  141.0280 C   0  0  0  0  0  2  0  0  0  0  0  0
  186.8180  177.5520  146.6160 N   0  0  0  0  0  2  0  0  0  0  0  0
  189.2580  177.1460  140.1350 C   0  0  0  0  0  2  0  0  0  0  0  0
  190.2980  177.5590  139.2050 N   0  0  0  0  0  2  0  0  0  0  0  0
  188.9480  178.8680  137.2930 S   0  0  0  0  0  0  0  0  0  0  0  0
  189.7770  177.3630  137.8630 C   0  0  2  0  0  3  0  0  0  0  0  0
  187.8680  176.4640  136.7280 N   0  0  0  0  0  2  0  0  0  0  0  0
  187.5560  177.8850  136.6420 C   0  0  1  0  0  3  0  0  0  0  0  0
  188.7330  176.2770  137.8800 C   0  0  0  0  0  2  0  0  0  0  0  0
  185.1790  177.2260  137.0110 C   0  0  0  0  0  1  0  0  0  0  0  0
  186.2820  178.1840  137.4180 C   0  0  0  0  0  2  0  0  0  0  0  0
  1 12  1  0  0  0  0
  3 14  1  0  0  0  0
  4  5  2  0  0  0  0
  5 16  1  0  0  0  0
  6  8  1  0  0  0  0
  6  1  2  0  0  0  0
  7 17  1  6  0  0  0
  7 15  1  0  0  0  0
  7  6  1  0  0  0  0
  8  3  2  0  0  0  0
  9  2  2  0  0  0  0
 10  9  1  0  0  0  0
 11 13  2  0  0  0  0
 11  1  1  0  0  0  0
 12  5  1  0  0  0  0
 12 14  2  0  0  0  0
 13  4  1  0  0  0  0
 14 10  1  0  0  0  0
 15 11  1  0  0  0  0
 16  9  1  0  0  0  0
 18 17  1  0  0  0  0
 19 20  1  0  0  0  0
 20 23  1  0  0  0  0
 20 18  1  1  0  0  0
 21 23  1  0  0  0  0
 22 21  1  0  0  0  0
 22 19  1  0  0  0  0
 22 25  1  1  0  0  0
 24 25  1  0  0  0  0
M  END
>  <MODEL>
8

>  <REMARK>
 VINA RESULT:      -8.2      3.658      5.689
  Name = 
  4 active torsions:
  status: ('A' for Active; 'I' for Inactive)
    1  A    between atoms: N_7  and  C_11
    2  A    between atoms: N_7  and  C_20
    3  A    between atoms: C_8  and  C_20
    4  A    between atoms: C_16  and  C_24
                            x       y       z     vdW  Elec       q    Type
                         _______ _______ _______ _____ _____    ______ ____

>  <TORSDO>
F 4

$$$$
=
 OpenBabel10222416003D

 25 29  0  0  1  0  0  0  0  0999 V2000
  186.2910  178.2870  144.6080 C   0  0  0  0  0  0  0  0  0  0  0  0
  190.6900  176.4900  147.3410 O   0  0  0  0  0  0  0  0  0  0  0  0
  188.4580  177.5280  143.0960 C   0  0  0  0  0  3  0  0  0  0  0  0
  186.2460  178.2040  147.3200 N   0  0  0  0  0  0  0  0  0  0  0  0
  187.3770  177.7910  146.6610 C   0  0  0  0  0  0  0  0  0  0  0  0
  186.1960  178.3770  143.2600 C   0  0  0  0  0  0  0  0  0  0  0  0
  184.8440  178.9130  142.8820 C   0  0  2  0  0  3  0  0  0  0  0  0
  187.2850  178.0040  142.4600 C   0  0  0  0  0  3  0  0  0  0  0  0
  189.6990  176.8990  146.6820 C   0  0  0  0  0  0  0  0  0  0  0  0
  189.7820  176.9290  145.1730 C   0  0  0  0  0  2  0  0  0  0  0  0
  185.1740  178.6980  145.2480 C   0  0  0  0  0  0  0  0  0  0  0  0
  187.4160  177.8290  145.2650 C   0  0  0  0  0  0  0  0  0  0  0  0
  185.1390  178.6590  146.6460 C   0  0  0  0  0  3  0  0  0  0  0  0
  188.5290  177.4360  144.5070 C   0  0  0  0  0  0  0  0  0  0  0  0
  184.1480  179.1430  144.2560 C   0  0  0  0  0  2  0  0  0  0  0  0
  188.5190  177.3250  147.3780 N   0  0  0  0  0  2  0  0  0  0  0  0
  184.0590  177.8780  142.0930 C   0  0  0  0  0  2  0  0  0  0  0  0
  183.8730  178.3320  140.7240 N   0  0  0  0  0  2  0  0  0  0  0  0
  182.1240  178.7420  138.7330 S   0  0  0  0  0  0  0  0  0  0  0  0
  182.5020  178.0280  140.3530 C   0  0  2  0  0  3  0  0  0  0  0  0
  180.2700  178.8330  140.6860 N   0  0  0  0  0  2  0  0  0  0  0  0
  180.5180  179.3510  139.3460 C   0  0  1  0  0  3  0  0  0  0  0  0
  181.5590  178.6710  141.3360 C   0  0  0  0  0  2  0  0  0  0  0  0
  181.6360  181.4280  138.5360 C   0  0  0  0  0  1  0  0  0  0  0  0
  180.4950  180.8720  139.3650 C   0  0  0  0  0  2  0  0  0  0  0  0
  1 11  1  0  0  0  0
  1 12  1  0  0  0  0
  3 14  1  0  0  0  0
  5  4  2  0  0  0  0
  5 16  1  0  0  0  0
  6  1  2  0  0  0  0
  7 17  1  6  0  0  0
  7  6  1  0  0  0  0
  7 15  1  0  0  0  0
  8  3  2  0  0  0  0
  8  6  1  0  0  0  0
  9  2  2  0  0  0  0
  9 16  1  0  0  0  0
 10  9  1  0  0  0  0
 11 13  2  0  0  0  0
 12  5  1  0  0  0  0
 13  4  1  0  0  0  0
 14 10  1  0  0  0  0
 14 12  2  0  0  0  0
 15 11  1  0  0  0  0
 18 17  1  0  0  0  0
 19 22  1  0  0  0  0
 19 20  1  0  0  0  0
 20 18  1  1  0  0  0
 20 23  1  0  0  0  0
 21 23  1  0  0  0  0
 22 25  1  1  0  0  0
 22 21  1  0  0  0  0
 24 25  1  0  0  0  0
M  END
>  <MODEL>
9

>  <REMARK>
 VINA RESULT:      -8.1      3.748      7.264
  Name = 
  4 active torsions:
  status: ('A' for Active; 'I' for Inactive)
    1  A    between atoms: N_7  and  C_11
    2  A    between atoms: N_7  and  C_20
    3  A    between atoms: C_8  and  C_20
    4  A    between atoms: C_16  and  C_24
                            x       y       z     vdW  Elec       q    Type
                         _______ _______ _______ _____ _____    ______ ____

>  <TORSDO>
F 4

$$$$
