=
 OpenBabel10222420003D

 36 38  0  0  1  0  0  0  0  0999 V2000
  189.1790  176.9030  138.9720 C   0  0  2  0  0  3  0  0  0  0  0  0
  189.1200  175.8900  137.8360 C   0  0  0  0  0  0  0  0  0  0  0  0
  186.7120  176.4620  137.7660 C   0  0  0  0  0  2  0  0  0  0  0  0
  188.3070  178.1610  138.7500 C   0  0  2  0  0  3  0  0  0  0  0  0
  187.0830  177.9360  137.8270 C   0  0  2  0  0  3  0  0  0  0  0  0
  187.9010  175.6710  137.2870 C   0  0  0  0  0  0  0  0  0  0  0  0
  187.7160  174.7920  136.2790 F   0  0  0  0  0  0  0  0  0  0  0  0
  190.3510  175.1110  137.4130 C   0  0  0  0  0  0  0  0  0  0  0  0
  191.2810  175.0370  138.4240 F   0  0  0  0  0  0  0  0  0  0  0  0
  189.9840  173.8250  137.0920 F   0  0  0  0  0  0  0  0  0  0  0  0
  190.9810  175.7490  136.1900 C   0  0  0  0  0  3  0  0  0  0  0  0
  192.2930  176.0900  136.4270 F   0  0  0  0  0  0  0  0  0  0  0  0
  190.2780  176.8770  135.8190 F   0  0  0  0  0  0  0  0  0  0  0  0
  189.0290  179.3260  138.4160 O   0  0  0  0  0  0  0  0  0  0  0  0
  189.0730  179.4500  137.0230 C   0  0  0  0  0  1  0  0  0  0  0  0
  190.4860  177.1110  139.6790 C   0  0  0  0  0  0  0  0  0  0  0  0
  191.4970  177.5250  139.0450 O   0  0  0  0  0  0  0  0  0  0  0  0
  190.6150  176.8170  141.1030 C   0  0  0  0  0  0  0  0  0  0  0  0
  191.4430  176.7130  143.2760 N   0  0  0  0  0  0  0  0  0  0  0  0
  190.3450  175.8770  143.0260 N   0  0  0  0  0  0  0  0  0  0  0  0
  189.9120  175.9350  141.7080 N   0  0  0  0  0  0  0  0  0  0  0  0
  191.6210  177.4370  142.0070 C   0  0  0  0  0  2  0  0  0  0  0  0
  185.9980  178.6940  138.2710 O   0  0  0  0  0  0  0  0  0  0  0  0
  184.8970  177.8220  138.2420 C   0  0  0  0  0  2  0  0  0  0  0  0
  184.0320  178.0600  139.4670 C   0  0  0  0  0  2  0  0  0  0  0  0
  184.6720  179.0970  140.3820 C   0  0  0  0  0  2  0  0  0  0  0  0
  184.2930  178.8980  141.7450 O   0  0  0  0  0  0  0  0  0  0  0  0
  187.3130  177.6770  143.5300 C   0  0  0  0  0  3  0  0  0  0  0  0
  186.8940  177.7870  144.8670 C   0  0  0  0  0  0  0  0  0  0  0  0
  185.1790  178.5280  142.7620 C   0  0  0  0  0  0  0  0  0  0  0  0
  185.1180  178.4220  146.5480 C   0  0  0  0  0  1  0  0  0  0  0  0
  184.7650  178.6520  144.0910 C   0  0  0  0  0  3  0  0  0  0  0  0
  185.6090  178.2840  145.1420 C   0  0  0  0  0  0  0  0  0  0  0  0
  186.4590  178.0410  142.4890 C   0  0  0  0  0  3  0  0  0  0  0  0
  187.7010  177.3740  145.9280 O   0  0  0  0  0  0  0  0  0  0  0  0
  189.0840  177.6920  146.0050 C   0  0  0  0  0  1  0  0  0  0  0  0
  1 16  1  6  0  0  0
  2  1  1  0  0  0  0
  3  5  1  0  0  0  0
  4 14  1  6  0  0  0
  4  1  1  0  0  0  0
  5 23  1  1  0  0  0
  5  4  1  0  0  0  0
  6  3  1  0  0  0  0
  6  2  2  0  0  0  0
  7  6  1  0  0  0  0
  8  2  1  0  0  0  0
  8  9  1  0  0  0  0
 10  8  1  0  0  0  0
 11 12  1  0  0  0  0
 11  8  1  0  0  0  0
 13 11  1  0  0  0  0
 15 14  1  0  0  0  0
 16 18  1  0  0  0  0
 17 16  2  0  0  0  0
 18 21  2  0  0  0  0
 18 22  1  0  0  0  0
 20 19  2  0  0  0  0
 21 20  1  0  0  0  0
 22 19  1  0  0  0  0
 24 23  1  0  0  0  0
 24 25  1  0  0  0  0
 25 26  1  0  0  0  0
 26 27  1  0  0  0  0
 27 30  1  0  0  0  0
 28 29  1  0  0  0  0
 29 33  2  0  0  0  0
 29 35  1  0  0  0  0
 30 32  2  0  0  0  0
 32 33  1  0  0  0  0
 33 31  1  0  0  0  0
 34 30  1  0  0  0  0
 34 28  2  0  0  0  0
 35 36  1  0  0  0  0
M  END
>  <MODEL>
1

>  <REMARK>
 VINA RESULT:      -7.2      0.000      0.000
  Name = 
  12 active torsions:
  status: ('A' for Active; 'I' for Inactive)
    1  A    between atoms: C_2  and  O_22
    2  A    between atoms: C_3  and  C_18
    3  A    between atoms: C_4  and  C_6
    4  A    between atoms: C_5  and  C_18
    5  A    between atoms: C_6  and  C_8
    6  A    between atoms: O_7  and  C_9
    7  A    between atoms: O_7  and  C_14
    8  A    between atoms: C_9  and  C_16
    9  A    between atoms: O_10  and  C_19
   10  A    between atoms: C_16  and  C_30
   11  A    between atoms: C_23  and  O_36
   12  A    between atoms: C_30  and  O_36
                            x       y       z     vdW  Elec       q    Type
                         _______ _______ _______ _____ _____    ______ ____

>  <TORSDO>
F 12

$$$$
=
 OpenBabel10222420003D

 36 38  0  0  1  0  0  0  0  0999 V2000
  189.6830  176.3080  138.3100 C   0  0  2  0  0  3  0  0  0  0  0  0
  188.5900  177.3200  138.6220 C   0  0  0  0  0  0  0  0  0  0  0  0
  189.4730  177.2070  140.9320 C   0  0  0  0  0  2  0  0  0  0  0  0
  191.0230  176.5700  139.0370 C   0  0  2  0  0  3  0  0  0  0  0  0
  190.8840  177.3370  140.3760 C   0  0  2  0  0  3  0  0  0  0  0  0
  188.4890  177.7180  139.9130 C   0  0  0  0  0  0  0  0  0  0  0  0
  187.5570  178.6060  140.3190 F   0  0  0  0  0  0  0  0  0  0  0  0
  187.6170  177.7830  137.5540 C   0  0  0  0  0  0  0  0  0  0  0  0
  187.2280  176.7470  136.7360 F   0  0  0  0  0  0  0  0  0  0  0  0
  186.4860  178.2810  138.1570 F   0  0  0  0  0  0  0  0  0  0  0  0
  188.2390  178.8840  136.7180 C   0  0  0  0  0  3  0  0  0  0  0  0
  189.1980  179.5680  137.4300 F   0  0  0  0  0  0  0  0  0  0  0  0
  187.2720  179.7690  136.2900 F   0  0  0  0  0  0  0  0  0  0  0  0
  192.0450  177.0940  138.2180 O   0  0  0  0  0  0  0  0  0  0  0  0
  193.1300  176.2120  138.2230 C   0  0  0  0  0  1  0  0  0  0  0  0
  189.7760  175.7610  136.9150 C   0  0  0  0  0  0  0  0  0  0  0  0
  190.2330  176.4740  135.9780 O   0  0  0  0  0  0  0  0  0  0  0  0
  189.3190  174.4080  136.6160 C   0  0  0  0  0  0  0  0  0  0  0  0
  189.1050  172.3100  135.6290 N   0  0  0  0  0  0  0  0  0  0  0  0
  188.0730  172.6490  136.5160 N   0  0  0  0  0  0  0  0  0  0  0  0
  188.2140  173.9240  137.0460 N   0  0  0  0  0  2  0  0  0  0  0  0
  190.0270  173.4540  135.7190 C   0  0  0  0  0  3  0  0  0  0  0  0
  191.8170  176.8670  141.3010 O   0  0  0  0  0  0  0  0  0  0  0  0
  191.5710  177.5890  142.4810 C   0  0  0  0  0  2  0  0  0  0  0  0
  191.5580  176.6350  143.6630 C   0  0  0  0  0  2  0  0  0  0  0  0
  190.9760  177.3160  144.8950 C   0  0  0  0  0  2  0  0  0  0  0  0
  189.7650  176.6860  145.3180 O   0  0  0  0  0  0  0  0  0  0  0  0
  186.6380  177.6820  143.5780 C   0  0  0  0  0  3  0  0  0  0  0  0
  185.9120  178.2480  144.6410 C   0  0  0  0  0  0  0  0  0  0  0  0
  188.4850  177.1920  145.0670 C   0  0  0  0  0  0  0  0  0  0  0  0
  185.7500  178.8590  147.0870 C   0  0  0  0  0  1  0  0  0  0  0  0
  187.7600  177.7420  146.1270 C   0  0  0  0  0  3  0  0  0  0  0  0
  186.4830  178.2700  145.9240 C   0  0  0  0  0  0  0  0  0  0  0  0
  187.9150  177.1630  143.7930 C   0  0  0  0  0  3  0  0  0  0  0  0
  184.6580  178.8310  144.4490 O   0  0  0  0  0  0  0  0  0  0  0  0
  183.8680  178.5780  143.2950 C   0  0  0  0  0  1  0  0  0  0  0  0
  1 16  1  6  0  0  0
  1  2  1  0  0  0  0
  1  4  1  0  0  0  0
  2  6  2  0  0  0  0
  4 14  1  6  0  0  0
  4  5  1  0  0  0  0
  5  3  1  0  0  0  0
  5 23  1  1  0  0  0
  6  7  1  0  0  0  0
  6  3  1  0  0  0  0
  8 10  1  0  0  0  0
  8  2  1  0  0  0  0
  9  8  1  0  0  0  0
 11 12  1  0  0  0  0
 11  8  1  0  0  0  0
 13 11  1  0  0  0  0
 14 15  1  0  0  0  0
 17 16  2  0  0  0  0
 18 16  1  0  0  0  0
 18 21  1  0  0  0  0
 19 22  1  0  0  0  0
 19 20  2  0  0  0  0
 20 21  1  0  0  0  0
 22 18  2  0  0  0  0
 23 24  1  0  0  0  0
 24 25  1  0  0  0  0
 25 26  1  0  0  0  0
 26 27  1  0  0  0  0
 28 34  2  0  0  0  0
 28 29  1  0  0  0  0
 29 33  2  0  0  0  0
 30 27  1  0  0  0  0
 30 32  2  0  0  0  0
 33 32  1  0  0  0  0
 33 31  1  0  0  0  0
 34 30  1  0  0  0  0
 35 29  1  0  0  0  0
 36 35  1  0  0  0  0
M  END
>  <MODEL>
2

>  <REMARK>
 VINA RESULT:      -7.1      2.970      5.081
  Name = 
  12 active torsions:
  status: ('A' for Active; 'I' for Inactive)
    1  A    between atoms: C_2  and  O_22
    2  A    between atoms: C_3  and  C_18
    3  A    between atoms: C_4  and  C_6
    4  A    between atoms: C_5  and  C_18
    5  A    between atoms: C_6  and  C_8
    6  A    between atoms: O_7  and  C_9
    7  A    between atoms: O_7  and  C_14
    8  A    between atoms: C_9  and  C_16
    9  A    between atoms: O_10  and  C_19
   10  A    between atoms: C_16  and  C_30
   11  A    between atoms: C_23  and  O_36
   12  A    between atoms: C_30  and  O_36
                            x       y       z     vdW  Elec       q    Type
                         _______ _______ _______ _____ _____    ______ ____

>  <TORSDO>
F 12

$$$$
=
 OpenBabel10222420003D

 36 38  0  0  1  0  0  0  0  0999 V2000
  183.1250  178.3670  141.0250 C   0  0  2  0  0  3  0  0  0  0  0  0
  181.8410  179.0700  141.4440 C   0  0  0  0  0  0  0  0  0  0  0  0
  182.5720  178.5270  143.7460 C   0  0  0  0  0  2  0  0  0  0  0  0
  184.3390  178.6580  141.9400 C   0  0  2  0  0  3  0  0  0  0  0  0
  183.9670  179.0280  143.3970 C   0  0  2  0  0  3  0  0  0  0  0  0
  181.5800  179.1070  142.7720 C   0  0  0  0  0  0  0  0  0  0  0  0
  180.4710  179.6940  143.2700 F   0  0  0  0  0  0  0  0  0  0  0  0
  180.8720  179.6170  140.4130 C   0  0  0  0  0  0  0  0  0  0  0  0
  180.1800  180.7060  140.8910 F   0  0  0  0  0  0  0  0  0  0  0  0
  181.5750  180.0270  139.3040 F   0  0  0  0  0  0  0  0  0  0  0  0
  179.8930  178.5400  139.9890 C   0  0  0  0  0  3  0  0  0  0  0  0
  180.0250  177.4130  140.7670 F   0  0  0  0  0  0  0  0  0  0  0  0
  180.0890  178.2050  138.6650 F   0  0  0  0  0  0  0  0  0  0  0  0
  185.2960  179.5360  141.3870 O   0  0  0  0  0  0  0  0  0  0  0  0
  186.5240  178.8740  141.3020 C   0  0  0  0  0  1  0  0  0  0  0  0
  183.4130  178.2140  139.5600 C   0  0  0  0  0  0  0  0  0  0  0  0
  183.9580  179.1520  138.9140 O   0  0  0  0  0  0  0  0  0  0  0  0
  183.0490  176.9880  138.8570 C   0  0  0  0  0  0  0  0  0  0  0  0
  182.5160  175.4820  137.1630 N   0  0  0  0  0  0  0  0  0  0  0  0
  182.2680  175.0160  138.4630 N   0  0  0  0  0  0  0  0  0  0  0  0
  182.5550  175.9600  139.4380 N   0  0  0  0  0  2  0  0  0  0  0  0
  183.1240  176.8050  137.3820 C   0  0  0  0  0  3  0  0  0  0  0  0
  184.9090  178.5020  144.2840 O   0  0  0  0  0  0  0  0  0  0  0  0
  184.5690  179.0260  145.5430 C   0  0  0  0  0  2  0  0  0  0  0  0
  185.2320  178.1970  146.6290 C   0  0  0  0  0  2  0  0  0  0  0  0
  186.7460  178.3600  146.5790 C   0  0  0  0  0  2  0  0  0  0  0  0
  187.3800  177.2080  146.0180 O   0  0  0  0  0  0  0  0  0  0  0  0
  188.9070  176.5120  142.7040 C   0  0  0  0  0  3  0  0  0  0  0  0
  190.0300  177.3570  142.7470 C   0  0  0  0  0  0  0  0  0  0  0  0
  188.2400  177.2420  144.9160 C   0  0  0  0  0  0  0  0  0  0  0  0
  191.4210  179.0710  143.9750 C   0  0  0  0  0  1  0  0  0  0  0  0
  189.3480  178.0940  144.9550 C   0  0  0  0  0  3  0  0  0  0  0  0
  190.2420  178.1550  143.8840 C   0  0  0  0  0  0  0  0  0  0  0  0
  188.0240  176.4550  143.7830 C   0  0  0  0  0  3  0  0  0  0  0  0
  190.9650  177.3920  141.7120 O   0  0  0  0  0  0  0  0  0  0  0  0
  190.6010  177.2240  140.3480 C   0  0  0  0  0  1  0  0  0  0  0  0
  1 16  1  6  0  0  0
  1  2  1  0  0  0  0
  1  4  1  0  0  0  0
  2  6  2  0  0  0  0
  4 14  1  6  0  0  0
  4  5  1  0  0  0  0
  5  3  1  0  0  0  0
  5 23  1  1  0  0  0
  6  7  1  0  0  0  0
  6  3  1  0  0  0  0
  8  9  1  0  0  0  0
  8  2  1  0  0  0  0
 10  8  1  0  0  0  0
 11  8  1  0  0  0  0
 11 12  1  0  0  0  0
 13 11  1  0  0  0  0
 15 14  1  0  0  0  0
 17 16  2  0  0  0  0
 18 21  1  0  0  0  0
 18 16  1  0  0  0  0
 19 22  1  0  0  0  0
 19 20  2  0  0  0  0
 20 21  1  0  0  0  0
 22 18  2  0  0  0  0
 23 24  1  0  0  0  0
 24 25  1  0  0  0  0
 26 25  1  0  0  0  0
 27 26  1  0  0  0  0
 28 29  2  0  0  0  0
 28 34  1  0  0  0  0
 29 33  1  0  0  0  0
 30 32  1  0  0  0  0
 30 27  1  0  0  0  0
 33 31  1  0  0  0  0
 33 32  2  0  0  0  0
 34 30  2  0  0  0  0
 35 29  1  0  0  0  0
 36 35  1  0  0  0  0
M  END
>  <MODEL>
3

>  <REMARK>
 VINA RESULT:      -7.1      5.130      7.942
  Name = 
  12 active torsions:
  status: ('A' for Active; 'I' for Inactive)
    1  A    between atoms: C_2  and  O_22
    2  A    between atoms: C_3  and  C_18
    3  A    between atoms: C_4  and  C_6
    4  A    between atoms: C_5  and  C_18
    5  A    between atoms: C_6  and  C_8
    6  A    between atoms: O_7  and  C_9
    7  A    between atoms: O_7  and  C_14
    8  A    between atoms: C_9  and  C_16
    9  A    between atoms: O_10  and  C_19
   10  A    between atoms: C_16  and  C_30
   11  A    between atoms: C_23  and  O_36
   12  A    between atoms: C_30  and  O_36
                            x       y       z     vdW  Elec       q    Type
                         _______ _______ _______ _____ _____    ______ ____

>  <TORSDO>
F 12

$$$$
=
 OpenBabel10222420003D

 36 38  0  0  1  0  0  0  0  0999 V2000
  185.0080  177.8170  138.9880 C   0  0  2  0  0  3  0  0  0  0  0  0
  184.1300  176.8120  138.2550 C   0  0  0  0  0  0  0  0  0  0  0  0
  182.6990  176.9490  140.2710 C   0  0  0  0  0  2  0  0  0  0  0  0
  184.2260  178.9020  139.7650 C   0  0  2  0  0  3  0  0  0  0  0  0
  182.8110  178.4660  140.2200 C   0  0  2  0  0  3  0  0  0  0  0  0
  183.0280  176.3820  138.9150 C   0  0  0  0  0  0  0  0  0  0  0  0
  182.1730  175.4870  138.3760 F   0  0  0  0  0  0  0  0  0  0  0  0
  184.5260  176.2640  136.8970 C   0  0  0  0  0  0  0  0  0  0  0  0
  185.8890  176.2940  136.7130 F   0  0  0  0  0  0  0  0  0  0  0  0
  184.1240  174.9520  136.8040 F   0  0  0  0  0  0  0  0  0  0  0  0
  183.8470  177.0520  135.7950 C   0  0  0  0  0  3  0  0  0  0  0  0
  184.7700  177.5950  134.9300 F   0  0  0  0  0  0  0  0  0  0  0  0
  183.0770  178.0640  136.3300 F   0  0  0  0  0  0  0  0  0  0  0  0
  184.2300  180.1770  139.1610 O   0  0  0  0  0  0  0  0  0  0  0  0
  182.9490  180.4550  138.6760 C   0  0  0  0  0  1  0  0  0  0  0  0
  186.2910  178.2510  138.3420 C   0  0  0  0  0  0  0  0  0  0  0  0
  186.2730  178.9630  137.2980 O   0  0  0  0  0  0  0  0  0  0  0  0
  187.5770  177.8410  138.8960 C   0  0  0  0  0  0  0  0  0  0  0  0
  189.4900  177.7500  140.2210 N   0  0  0  0  0  0  0  0  0  0  0  0
  189.5340  176.9480  139.0710 N   0  0  0  0  0  0  0  0  0  0  0  0
  188.3960  177.0680  138.2860 N   0  0  0  0  0  0  0  0  0  0  0  0
  188.1360  178.3260  140.1870 C   0  0  0  0  0  2  0  0  0  0  0  0
  182.5130  179.0180  141.4680 O   0  0  0  0  0  0  0  0  0  0  0  0
  183.5560  178.6100  142.3160 C   0  0  0  0  0  2  0  0  0  0  0  0
  183.1810  178.9100  143.7560 C   0  0  0  0  0  2  0  0  0  0  0  0
  184.3850  178.7330  144.6730 C   0  0  0  0  0  2  0  0  0  0  0  0
  185.4190  177.9770  144.0390 O   0  0  0  0  0  0  0  0  0  0  0  0
  189.0610  177.3250  144.3680 C   0  0  0  0  0  3  0  0  0  0  0  0
  189.2080  177.3400  145.7660 C   0  0  0  0  0  0  0  0  0  0  0  0
  186.6890  177.7680  144.5850 C   0  0  0  0  0  0  0  0  0  0  0  0
  188.1880  177.6130  148.0610 C   0  0  0  0  0  1  0  0  0  0  0  0
  186.8360  177.7980  145.9750 C   0  0  0  0  0  3  0  0  0  0  0  0
  188.0820  177.5850  146.5690 C   0  0  0  0  0  0  0  0  0  0  0  0
  187.8100  177.5340  143.7870 C   0  0  0  0  0  3  0  0  0  0  0  0
  190.4330  177.0750  146.3810 O   0  0  0  0  0  0  0  0  0  0  0  0
  191.5480  176.5580  145.6680 C   0  0  0  0  0  1  0  0  0  0  0  0
  1 16  1  6  0  0  0
  1  4  1  0  0  0  0
  2  6  2  0  0  0  0
  2  1  1  0  0  0  0
  4 14  1  6  0  0  0
  4  5  1  0  0  0  0
  5  3  1  0  0  0  0
  5 23  1  1  0  0  0
  6  3  1  0  0  0  0
  7  6  1  0  0  0  0
  8  2  1  0  0  0  0
  9  8  1  0  0  0  0
 10  8  1  0  0  0  0
 11 13  1  0  0  0  0
 11  8  1  0  0  0  0
 12 11  1  0  0  0  0
 15 14  1  0  0  0  0
 16 18  1  0  0  0  0
 17 16  2  0  0  0  0
 18 22  1  0  0  0  0
 20 19  2  0  0  0  0
 21 18  2  0  0  0  0
 21 20  1  0  0  0  0
 22 19  1  0  0  0  0
 23 24  1  0  0  0  0
 24 25  1  0  0  0  0
 25 26  1  0  0  0  0
 27 30  1  0  0  0  0
 27 26  1  0  0  0  0
 28 29  1  0  0  0  0
 29 35  1  0  0  0  0
 29 33  2  0  0  0  0
 30 32  2  0  0  0  0
 32 33  1  0  0  0  0
 33 31  1  0  0  0  0
 34 28  2  0  0  0  0
 34 30  1  0  0  0  0
 36 35  1  0  0  0  0
M  END
>  <MODEL>
4

>  <REMARK>
 VINA RESULT:      -7.0      3.008      4.694
  Name = 
  12 active torsions:
  status: ('A' for Active; 'I' for Inactive)
    1  A    between atoms: C_2  and  O_22
    2  A    between atoms: C_3  and  C_18
    3  A    between atoms: C_4  and  C_6
    4  A    between atoms: C_5  and  C_18
    5  A    between atoms: C_6  and  C_8
    6  A    between atoms: O_7  and  C_9
    7  A    between atoms: O_7  and  C_14
    8  A    between atoms: C_9  and  C_16
    9  A    between atoms: O_10  and  C_19
   10  A    between atoms: C_16  and  C_30
   11  A    between atoms: C_23  and  O_36
   12  A    between atoms: C_30  and  O_36
                            x       y       z     vdW  Elec       q    Type
                         _______ _______ _______ _____ _____    ______ ____

>  <TORSDO>
F 12

$$$$
=
 OpenBabel10222420003D

 36 38  0  0  1  0  0  0  0  0999 V2000
  181.8160  177.8200  140.2430 C   0  0  2  0  0  3  0  0  0  0  0  0
  181.5570  178.4610  141.5990 C   0  0  0  0  0  0  0  0  0  0  0  0
  184.0230  178.6390  141.7230 C   0  0  0  0  0  2  0  0  0  0  0  0
  182.9590  178.4790  139.4340 C   0  0  2  0  0  3  0  0  0  0  0  0
  184.0330  179.1800  140.3010 C   0  0  2  0  0  3  0  0  0  0  0  0
  182.6500  178.8220  142.3130 C   0  0  0  0  0  0  0  0  0  0  0  0
  182.5530  179.3940  143.5330 F   0  0  0  0  0  0  0  0  0  0  0  0
  180.1490  178.6010  142.1470 C   0  0  0  0  0  0  0  0  0  0  0  0
  179.4730  179.6440  141.5560 F   0  0  0  0  0  0  0  0  0  0  0  0
  179.4450  177.4500  141.8830 F   0  0  0  0  0  0  0  0  0  0  0  0
  180.1870  178.8060  143.6480 C   0  0  0  0  0  3  0  0  0  0  0  0
  180.0530  177.6120  144.3180 F   0  0  0  0  0  0  0  0  0  0  0  0
  179.1810  179.6640  144.0430 F   0  0  0  0  0  0  0  0  0  0  0  0
  182.5300  179.2780  138.3530 O   0  0  0  0  0  0  0  0  0  0  0  0
  182.4210  180.6040  138.7830 C   0  0  0  0  0  1  0  0  0  0  0  0
  180.6440  177.3140  139.4540 C   0  0  0  0  0  0  0  0  0  0  0  0
  179.7730  178.1160  139.0160 O   0  0  0  0  0  0  0  0  0  0  0  0
  180.4820  175.8860  139.1990 C   0  0  0  0  0  0  0  0  0  0  0  0
  180.4890  173.8100  138.1460 N   0  0  0  0  0  0  0  0  0  0  0  0
  179.7870  173.8490  139.3590 N   0  0  0  0  0  0  0  0  0  0  0  0
  179.7680  175.1140  139.9300 N   0  0  0  0  0  2  0  0  0  0  0  0
  181.0500  175.1660  138.0280 C   0  0  0  0  0  3  0  0  0  0  0  0
  185.2970  179.0200  139.7280 O   0  0  0  0  0  0  0  0  0  0  0  0
  186.1510  178.6900  140.7930 C   0  0  0  0  0  2  0  0  0  0  0  0
  187.5130  178.3030  140.2460 C   0  0  0  0  0  2  0  0  0  0  0  0
  188.5420  178.2300  141.3670 C   0  0  0  0  0  2  0  0  0  0  0  0
  188.2620  177.1560  142.2670 O   0  0  0  0  0  0  0  0  0  0  0  0
  188.9150  177.1560  145.9230 C   0  0  0  0  0  3  0  0  0  0  0  0
  187.6840  177.6240  146.4130 C   0  0  0  0  0  0  0  0  0  0  0  0
  188.0990  177.3080  143.6480 C   0  0  0  0  0  0  0  0  0  0  0  0
  185.3370  178.4490  145.9740 C   0  0  0  0  0  1  0  0  0  0  0  0
  186.8790  177.7870  144.1310 C   0  0  0  0  0  3  0  0  0  0  0  0
  186.6630  177.9450  145.5020 C   0  0  0  0  0  0  0  0  0  0  0  0
  189.1160  176.9960  144.5520 C   0  0  0  0  0  3  0  0  0  0  0  0
  187.4300  177.7370  147.7810 O   0  0  0  0  0  0  0  0  0  0  0  0
  188.4270  178.1320  148.7130 C   0  0  0  0  0  1  0  0  0  0  0  0
  1 16  1  6  0  0  0
  1  2  1  0  0  0  0
  2  8  1  0  0  0  0
  2  6  2  0  0  0  0
  3  6  1  0  0  0  0
  4 14  1  6  0  0  0
  4  1  1  0  0  0  0
  4  5  1  0  0  0  0
  5 23  1  6  0  0  0
  5  3  1  0  0  0  0
  6  7  1  0  0  0  0
  8 11  1  0  0  0  0
  9  8  1  0  0  0  0
 10  8  1  0  0  0  0
 11 13  1  0  0  0  0
 11 12  1  0  0  0  0
 14 15  1  0  0  0  0
 17 16  2  0  0  0  0
 18 16  1  0  0  0  0
 18 21  1  0  0  0  0
 19 20  2  0  0  0  0
 20 21  1  0  0  0  0
 22 19  1  0  0  0  0
 22 18  2  0  0  0  0
 23 24  1  0  0  0  0
 25 24  1  0  0  0  0
 25 26  1  0  0  0  0
 26 27  1  0  0  0  0
 27 30  1  0  0  0  0
 28 29  1  0  0  0  0
 29 35  1  0  0  0  0
 30 32  2  0  0  0  0
 30 34  1  0  0  0  0
 32 33  1  0  0  0  0
 33 31  1  0  0  0  0
 33 29  2  0  0  0  0
 34 28  2  0  0  0  0
 35 36  1  0  0  0  0
M  END
>  <MODEL>
5

>  <REMARK>
 VINA RESULT:      -7.0      5.851      8.320
  Name = 
  12 active torsions:
  status: ('A' for Active; 'I' for Inactive)
    1  A    between atoms: C_2  and  O_22
    2  A    between atoms: C_3  and  C_18
    3  A    between atoms: C_4  and  C_6
    4  A    between atoms: C_5  and  C_18
    5  A    between atoms: C_6  and  C_8
    6  A    between atoms: O_7  and  C_9
    7  A    between atoms: O_7  and  C_14
    8  A    between atoms: C_9  and  C_16
    9  A    between atoms: O_10  and  C_19
   10  A    between atoms: C_16  and  C_30
   11  A    between atoms: C_23  and  O_36
   12  A    between atoms: C_30  and  O_36
                            x       y       z     vdW  Elec       q    Type
                         _______ _______ _______ _____ _____    ______ ____

>  <TORSDO>
F 12

$$$$
=
 OpenBabel10222420003D

 36 38  0  0  1  0  0  0  0  0999 V2000
  183.1320  178.9430  138.3420 C   0  0  2  0  0  3  0  0  0  0  0  0
  182.8510  177.4690  138.0830 C   0  0  0  0  0  0  0  0  0  0  0  0
  185.2400  177.3690  137.4420 C   0  0  0  0  0  2  0  0  0  0  0  0
  184.5060  179.2250  138.9950 C   0  0  2  0  0  3  0  0  0  0  0  0
  185.5870  178.1580  138.6970 C   0  0  2  0  0  3  0  0  0  0  0  0
  183.8870  176.7320  137.6150 C   0  0  0  0  0  0  0  0  0  0  0  0
  183.7630  175.4160  137.3400 F   0  0  0  0  0  0  0  0  0  0  0  0
  181.4590  176.8910  138.2590 C   0  0  0  0  0  0  0  0  0  0  0  0
  180.4870  177.8560  138.1370 F   0  0  0  0  0  0  0  0  0  0  0  0
  181.2340  175.9500  137.2820 F   0  0  0  0  0  0  0  0  0  0  0  0
  181.3380  176.2160  139.6110 C   0  0  0  0  0  3  0  0  0  0  0  0
  180.6970  177.0300  140.5180 F   0  0  0  0  0  0  0  0  0  0  0  0
  182.5870  175.8880  140.0990 F   0  0  0  0  0  0  0  0  0  0  0  0
  184.4480  179.5680  140.3630 O   0  0  0  0  0  0  0  0  0  0  0  0
  184.4970  178.3980  141.1270 C   0  0  0  0  0  1  0  0  0  0  0  0
  181.9950  179.8250  138.7690 C   0  0  0  0  0  0  0  0  0  0  0  0
  181.4720  179.6870  139.9100 O   0  0  0  0  0  0  0  0  0  0  0  0
  181.4620  180.8380  137.8630 C   0  0  0  0  0  0  0  0  0  0  0  0
  180.6670  182.8590  137.0240 N   0  0  0  0  0  0  0  0  0  0  0  0
  180.4640  181.7540  136.1840 N   0  0  0  0  0  0  0  0  0  0  0  0
  180.9100  180.5640  136.7420 N   0  0  0  0  0  0  0  0  0  0  0  0
  181.4170  182.2960  138.1580 C   0  0  0  0  0  2  0  0  0  0  0  0
  186.8380  178.7620  138.5610 O   0  0  0  0  0  0  0  0  0  0  0  0
  187.7380  177.9110  139.2240 C   0  0  0  0  0  2  0  0  0  0  0  0
  188.2290  178.5860  140.4930 C   0  0  0  0  0  2  0  0  0  0  0  0
  188.6520  177.5470  141.5240 C   0  0  0  0  0  2  0  0  0  0  0  0
  187.5670  177.1870  142.3810 O   0  0  0  0  0  0  0  0  0  0  0  0
  188.6400  177.3730  145.9320 C   0  0  0  0  0  3  0  0  0  0  0  0
  187.4490  177.7960  146.5470 C   0  0  0  0  0  0  0  0  0  0  0  0
  187.5570  177.3870  143.7650 C   0  0  0  0  0  0  0  0  0  0  0  0
  185.0240  178.4780  146.3610 C   0  0  0  0  0  1  0  0  0  0  0  0
  186.3760  177.8220  144.3730 C   0  0  0  0  0  3  0  0  0  0  0  0
  186.3130  178.0250  145.7530 C   0  0  0  0  0  0  0  0  0  0  0  0
  188.6890  177.1670  144.5530 C   0  0  0  0  0  3  0  0  0  0  0  0
  187.3500  177.9520  147.9310 O   0  0  0  0  0  0  0  0  0  0  0  0
  188.4910  178.0850  148.7680 C   0  0  0  0  0  1  0  0  0  0  0  0
  1 16  1  1  0  0  0
  1  4  1  0  0  0  0
  2  8  1  0  0  0  0
  2  1  1  0  0  0  0
  3  6  1  0  0  0  0
  3  5  1  0  0  0  0
  4 14  1  1  0  0  0
  5 23  1  6  0  0  0
  5  4  1  0  0  0  0
  6  2  2  0  0  0  0
  7  6  1  0  0  0  0
  8 11  1  0  0  0  0
  9  8  1  0  0  0  0
 10  8  1  0  0  0  0
 11 13  1  0  0  0  0
 11 12  1  0  0  0  0
 14 15  1  0  0  0  0
 16 17  2  0  0  0  0
 18 22  1  0  0  0  0
 18 16  1  0  0  0  0
 19 22  1  0  0  0  0
 20 21  1  0  0  0  0
 20 19  2  0  0  0  0
 21 18  2  0  0  0  0
 23 24  1  0  0  0  0
 24 25  1  0  0  0  0
 25 26  1  0  0  0  0
 26 27  1  0  0  0  0
 27 30  1  0  0  0  0
 28 29  1  0  0  0  0
 29 35  1  0  0  0  0
 30 32  2  0  0  0  0
 30 34  1  0  0  0  0
 32 33  1  0  0  0  0
 33 31  1  0  0  0  0
 33 29  2  0  0  0  0
 34 28  2  0  0  0  0
 35 36  1  0  0  0  0
M  END
>  <MODEL>
6

>  <REMARK>
 VINA RESULT:      -6.8      4.810      7.214
  Name = 
  12 active torsions:
  status: ('A' for Active; 'I' for Inactive)
    1  A    between atoms: C_2  and  O_22
    2  A    between atoms: C_3  and  C_18
    3  A    between atoms: C_4  and  C_6
    4  A    between atoms: C_5  and  C_18
    5  A    between atoms: C_6  and  C_8
    6  A    between atoms: O_7  and  C_9
    7  A    between atoms: O_7  and  C_14
    8  A    between atoms: C_9  and  C_16
    9  A    between atoms: O_10  and  C_19
   10  A    between atoms: C_16  and  C_30
   11  A    between atoms: C_23  and  O_36
   12  A    between atoms: C_30  and  O_36
                            x       y       z     vdW  Elec       q    Type
                         _______ _______ _______ _____ _____    ______ ____

>  <TORSDO>
F 12

$$$$
=
 OpenBabel10222420003D

 36 38  0  0  1  0  0  0  0  0999 V2000
  182.6860  179.1460  139.4090 C   0  0  2  0  0  3  0  0  0  0  0  0
  183.6720  178.3110  138.6020 C   0  0  0  0  0  0  0  0  0  0  0  0
  185.3110  179.0170  140.3180 C   0  0  0  0  0  2  0  0  0  0  0  0
  182.8600  179.0330  140.9420 C   0  0  2  0  0  3  0  0  0  0  0  0
  184.2950  178.6740  141.3980 C   0  0  2  0  0  3  0  0  0  0  0  0
  184.9500  178.2910  139.0490 C   0  0  0  0  0  0  0  0  0  0  0  0
  185.9190  177.5940  138.4180 F   0  0  0  0  0  0  0  0  0  0  0  0
  183.2500  177.6170  137.3210 C   0  0  0  0  0  0  0  0  0  0  0  0
  182.2890  178.3330  136.6460 F   0  0  0  0  0  0  0  0  0  0  0  0
  184.3400  177.5010  136.4900 F   0  0  0  0  0  0  0  0  0  0  0  0
  182.7280  176.2270  137.6240 C   0  0  0  0  0  3  0  0  0  0  0  0
  181.3610  176.1640  137.4740 F   0  0  0  0  0  0  0  0  0  0  0  0
  183.0610  175.8570  138.9110 F   0  0  0  0  0  0  0  0  0  0  0  0
  181.8760  178.2560  141.5900 O   0  0  0  0  0  0  0  0  0  0  0  0
  181.2000  179.0570  142.5150 C   0  0  0  0  0  1  0  0  0  0  0  0
  181.2790  179.2810  138.9030 C   0  0  0  0  0  0  0  0  0  0  0  0
  180.4440  178.3510  139.0810 O   0  0  0  0  0  0  0  0  0  0  0  0
  180.8630  180.4770  138.1790 C   0  0  0  0  0  0  0  0  0  0  0  0
  180.6180  182.7000  137.5320 N   0  0  0  0  0  0  0  0  0  0  0  0
  179.7250  181.8090  136.9180 N   0  0  0  0  0  0  0  0  0  0  0  0
  179.8740  180.5040  137.3670 N   0  0  0  0  0  0  0  0  0  0  0  0
  181.4710  181.8240  138.3510 C   0  0  0  0  0  2  0  0  0  0  0  0
  184.6060  179.3370  142.5870 O   0  0  0  0  0  0  0  0  0  0  0  0
  184.6730  178.3350  143.5680 C   0  0  0  0  0  2  0  0  0  0  0  0
  184.3220  178.9290  144.9210 C   0  0  0  0  0  2  0  0  0  0  0  0
  185.5620  179.0330  145.8000 C   0  0  0  0  0  2  0  0  0  0  0  0
  186.1510  177.7510  146.0280 O   0  0  0  0  0  0  0  0  0  0  0  0
  189.4460  177.3280  147.6910 C   0  0  0  0  0  3  0  0  0  0  0  0
  190.2800  177.1230  146.5770 C   0  0  0  0  0  0  0  0  0  0  0  0
  187.5170  177.5390  146.2400 C   0  0  0  0  0  0  0  0  0  0  0  0
  190.5600  176.9010  144.0770 C   0  0  0  0  0  1  0  0  0  0  0  0
  188.3420  177.3220  145.1330 C   0  0  0  0  0  3  0  0  0  0  0  0
  189.7140  177.1160  145.2910 C   0  0  0  0  0  0  0  0  0  0  0  0
  188.0770  177.5380  147.5190 C   0  0  0  0  0  3  0  0  0  0  0  0
  191.6610  176.9710  146.7100 O   0  0  0  0  0  0  0  0  0  0  0  0
  192.2500  175.8050  147.2680 C   0  0  0  0  0  1  0  0  0  0  0  0
  1 16  1  1  0  0  0
  1  4  1  0  0  0  0
  2  6  2  0  0  0  0
  2  1  1  0  0  0  0
  3  5  1  0  0  0  0
  4  5  1  0  0  0  0
  4 14  1  6  0  0  0
  5 23  1  1  0  0  0
  6  3  1  0  0  0  0
  7  6  1  0  0  0  0
  8 11  1  0  0  0  0
  8  2  1  0  0  0  0
  9  8  1  0  0  0  0
 10  8  1  0  0  0  0
 11 13  1  0  0  0  0
 12 11  1  0  0  0  0
 14 15  1  0  0  0  0
 16 17  2  0  0  0  0
 18 22  1  0  0  0  0
 18 16  1  0  0  0  0
 19 22  1  0  0  0  0
 20 21  1  0  0  0  0
 20 19  2  0  0  0  0
 21 18  2  0  0  0  0
 23 24  1  0  0  0  0
 24 25  1  0  0  0  0
 25 26  1  0  0  0  0
 26 27  1  0  0  0  0
 27 30  1  0  0  0  0
 29 35  1  0  0  0  0
 29 28  2  0  0  0  0
 30 34  2  0  0  0  0
 31 33  1  0  0  0  0
 32 33  2  0  0  0  0
 32 30  1  0  0  0  0
 33 29  1  0  0  0  0
 34 28  1  0  0  0  0
 35 36  1  0  0  0  0
M  END
>  <MODEL>
7

>  <REMARK>
 VINA RESULT:      -6.8      5.321      7.625
  Name = 
  12 active torsions:
  status: ('A' for Active; 'I' for Inactive)
    1  A    between atoms: C_2  and  O_22
    2  A    between atoms: C_3  and  C_18
    3  A    between atoms: C_4  and  C_6
    4  A    between atoms: C_5  and  C_18
    5  A    between atoms: C_6  and  C_8
    6  A    between atoms: O_7  and  C_9
    7  A    between atoms: O_7  and  C_14
    8  A    between atoms: C_9  and  C_16
    9  A    between atoms: O_10  and  C_19
   10  A    between atoms: C_16  and  C_30
   11  A    between atoms: C_23  and  O_36
   12  A    between atoms: C_30  and  O_36
                            x       y       z     vdW  Elec       q    Type
                         _______ _______ _______ _____ _____    ______ ____

>  <TORSDO>
F 12

$$$$
=
 OpenBabel10222420003D

 36 38  0  0  1  0  0  0  0  0999 V2000
  183.1250  178.0850  140.0360 C   0  0  2  0  0  3  0  0  0  0  0  0
  181.8590  178.9190  140.1790 C   0  0  0  0  0  0  0  0  0  0  0  0
  182.1970  178.5890  142.6090 C   0  0  0  0  0  2  0  0  0  0  0  0
  184.2130  178.3910  141.0930 C   0  0  2  0  0  3  0  0  0  0  0  0
  183.6650  178.9480  142.4310 C   0  0  2  0  0  3  0  0  0  0  0  0
  181.4110  179.1230  141.4400 C   0  0  0  0  0  0  0  0  0  0  0  0
  180.2960  179.8390  141.6980 F   0  0  0  0  0  0  0  0  0  0  0  0
  181.1010  179.4130  138.9600 C   0  0  0  0  0  0  0  0  0  0  0  0
  181.3040  178.5990  137.8690 F   0  0  0  0  0  0  0  0  0  0  0  0
  179.7540  179.4110  139.2340 F   0  0  0  0  0  0  0  0  0  0  0  0
  181.5200  180.8300  138.6210 C   0  0  0  0  0  3  0  0  0  0  0  0
  181.3550  181.0900  137.2800 F   0  0  0  0  0  0  0  0  0  0  0  0
  182.8400  181.0380  138.9650 F   0  0  0  0  0  0  0  0  0  0  0  0
  185.3120  179.1320  140.6090 O   0  0  0  0  0  0  0  0  0  0  0  0
  186.4740  178.6950  141.2520 C   0  0  0  0  0  1  0  0  0  0  0  0
  183.6100  177.7480  138.6560 C   0  0  0  0  0  0  0  0  0  0  0  0
  184.2640  178.5930  137.9840 O   0  0  0  0  0  0  0  0  0  0  0  0
  183.3140  176.4480  138.0630 C   0  0  0  0  0  0  0  0  0  0  0  0
  183.2110  174.6700  136.5640 N   0  0  0  0  0  0  0  0  0  0  0  0
  182.3660  174.5480  137.6770 N   0  0  0  0  0  0  0  0  0  0  0  0
  182.4240  175.6490  138.5200 N   0  0  0  0  0  2  0  0  0  0  0  0
  183.9400  175.9230  136.8200 C   0  0  0  0  0  3  0  0  0  0  0  0
  184.4180  178.4610  143.5010 O   0  0  0  0  0  0  0  0  0  0  0  0
  184.1980  179.3640  144.5540 C   0  0  0  0  0  2  0  0  0  0  0  0
  184.3480  178.6380  145.8800 C   0  0  0  0  0  2  0  0  0  0  0  0
  185.7900  178.7030  146.3670 C   0  0  0  0  0  2  0  0  0  0  0  0
  186.6480  177.8760  145.5790 O   0  0  0  0  0  0  0  0  0  0  0  0
  189.6490  176.7950  147.4810 C   0  0  0  0  0  3  0  0  0  0  0  0
  190.6560  176.9830  146.5180 C   0  0  0  0  0  0  0  0  0  0  0  0
  187.9690  177.5660  145.9150 C   0  0  0  0  0  0  0  0  0  0  0  0
  191.3360  177.6700  144.1840 C   0  0  0  0  0  1  0  0  0  0  0  0
  188.9660  177.7400  144.9510 C   0  0  0  0  0  3  0  0  0  0  0  0
  190.3020  177.4550  145.2430 C   0  0  0  0  0  0  0  0  0  0  0  0
  188.3190  177.0880  147.1800 C   0  0  0  0  0  3  0  0  0  0  0  0
  192.0030  176.7570  146.8060 O   0  0  0  0  0  0  0  0  0  0  0  0
  192.4340  175.7120  147.6670 C   0  0  0  0  0  1  0  0  0  0  0  0
  1 16  1  6  0  0  0
  1  2  1  0  0  0  0
  1  4  1  0  0  0  0
  2  6  2  0  0  0  0
  4 14  1  6  0  0  0
  4  5  1  0  0  0  0
  5  3  1  0  0  0  0
  5 23  1  1  0  0  0
  6  7  1  0  0  0  0
  6  3  1  0  0  0  0
  8 10  1  0  0  0  0
  8  2  1  0  0  0  0
  9  8  1  0  0  0  0
 11  8  1  0  0  0  0
 11 13  1  0  0  0  0
 12 11  1  0  0  0  0
 14 15  1  0  0  0  0
 17 16  2  0  0  0  0
 18 21  1  0  0  0  0
 18 16  1  0  0  0  0
 19 22  1  0  0  0  0
 19 20  2  0  0  0  0
 20 21  1  0  0  0  0
 22 18  2  0  0  0  0
 23 24  1  0  0  0  0
 24 25  1  0  0  0  0
 25 26  1  0  0  0  0
 27 30  1  0  0  0  0
 27 26  1  0  0  0  0
 29 35  1  0  0  0  0
 29 28  2  0  0  0  0
 30 34  2  0  0  0  0
 31 33  1  0  0  0  0
 32 33  2  0  0  0  0
 32 30  1  0  0  0  0
 33 29  1  0  0  0  0
 34 28  1  0  0  0  0
 35 36  1  0  0  0  0
M  END
>  <MODEL>
8

>  <REMARK>
 VINA RESULT:      -6.7      5.412      7.560
  Name = 
  12 active torsions:
  status: ('A' for Active; 'I' for Inactive)
    1  A    between atoms: C_2  and  O_22
    2  A    between atoms: C_3  and  C_18
    3  A    between atoms: C_4  and  C_6
    4  A    between atoms: C_5  and  C_18
    5  A    between atoms: C_6  and  C_8
    6  A    between atoms: O_7  and  C_9
    7  A    between atoms: O_7  and  C_14
    8  A    between atoms: C_9  and  C_16
    9  A    between atoms: O_10  and  C_19
   10  A    between atoms: C_16  and  C_30
   11  A    between atoms: C_23  and  O_36
   12  A    between atoms: C_30  and  O_36
                            x       y       z     vdW  Elec       q    Type
                         _______ _______ _______ _____ _____    ______ ____

>  <TORSDO>
F 12

$$$$
=
 OpenBabel10222420003D

 36 38  0  0  1  0  0  0  0  0999 V2000
  190.7130  176.5780  139.0920 C   0  0  2  0  0  3  0  0  0  0  0  0
  189.4990  177.4810  138.9170 C   0  0  0  0  0  0  0  0  0  0  0  0
  189.3080  177.3050  141.3790 C   0  0  0  0  0  2  0  0  0  0  0  0
  191.5760  176.9030  140.3340 C   0  0  2  0  0  3  0  0  0  0  0  0
  190.8010  177.5780  141.4930 C   0  0  2  0  0  3  0  0  0  0  0  0
  188.8150  177.7940  140.0430 C   0  0  0  0  0  0  0  0  0  0  0  0
  187.7170  178.5810  140.0200 F   0  0  0  0  0  0  0  0  0  0  0  0
  189.0420  177.9260  137.5410 C   0  0  0  0  0  0  0  0  0  0  0  0
  188.7400  179.2680  137.5130 F   0  0  0  0  0  0  0  0  0  0  0  0
  190.0540  177.7090  136.6360 F   0  0  0  0  0  0  0  0  0  0  0  0
  187.8300  177.1250  137.1060 C   0  0  0  0  0  3  0  0  0  0  0  0
  186.6660  177.8270  137.3200 F   0  0  0  0  0  0  0  0  0  0  0  0
  187.7720  175.9290  137.7920 F   0  0  0  0  0  0  0  0  0  0  0  0
  192.7960  177.5530  140.0490 O   0  0  0  0  0  0  0  0  0  0  0  0
  193.8540  176.7270  140.4380 C   0  0  0  0  0  1  0  0  0  0  0  0
  191.4490  176.1220  137.8660 C   0  0  0  0  0  0  0  0  0  0  0  0
  192.4670  176.7500  137.4610 O   0  0  0  0  0  0  0  0  0  0  0  0
  190.9870  174.9610  137.1130 C   0  0  0  0  0  0  0  0  0  0  0  0
  190.4930  173.5150  135.3560 N   0  0  0  0  0  0  0  0  0  0  0  0
  189.9200  173.1610  136.5870 N   0  0  0  0  0  0  0  0  0  0  0  0
  190.2000  174.0730  137.5940 N   0  0  0  0  0  2  0  0  0  0  0  0
  191.2990  174.7030  135.6810 C   0  0  0  0  0  3  0  0  0  0  0  0
  191.2860  177.1310  142.7230 O   0  0  0  0  0  0  0  0  0  0  0  0
  191.6930  178.2880  143.4080 C   0  0  0  0  0  2  0  0  0  0  0  0
  190.9850  178.3550  144.7500 C   0  0  0  0  0  2  0  0  0  0  0  0
  190.4260  176.9890  145.1300 C   0  0  0  0  0  2  0  0  0  0  0  0
  189.4210  177.0970  146.1400 O   0  0  0  0  0  0  0  0  0  0  0  0
  185.9290  178.2560  146.6520 C   0  0  0  0  0  3  0  0  0  0  0  0
  185.4550  178.2600  145.3290 C   0  0  0  0  0  0  0  0  0  0  0  0
  188.1020  177.4930  145.8990 C   0  0  0  0  0  0  0  0  0  0  0  0
  185.8660  177.8770  142.8660 C   0  0  0  0  0  1  0  0  0  0  0  0
  187.6360  177.5100  144.5810 C   0  0  0  0  0  3  0  0  0  0  0  0
  186.3240  177.8870  144.2900 C   0  0  0  0  0  0  0  0  0  0  0  0
  187.2410  177.8720  146.9310 C   0  0  0  0  0  3  0  0  0  0  0  0
  184.1310  178.5800  145.0220 O   0  0  0  0  0  0  0  0  0  0  0  0
  183.7780  179.7440  144.2870 C   0  0  0  0  0  1  0  0  0  0  0  0
  1 16  1  6  0  0  0
  1  4  1  0  0  0  0
  2  1  1  0  0  0  0
  2  6  2  0  0  0  0
  3  5  1  0  0  0  0
  4 14  1  6  0  0  0
  4  5  1  0  0  0  0
  5 23  1  1  0  0  0
  6  3  1  0  0  0  0
  7  6  1  0  0  0  0
  8  2  1  0  0  0  0
  9  8  1  0  0  0  0
 10  8  1  0  0  0  0
 11 12  1  0  0  0  0
 11  8  1  0  0  0  0
 11 13  1  0  0  0  0
 14 15  1  0  0  0  0
 17 16  2  0  0  0  0
 18 21  1  0  0  0  0
 18 16  1  0  0  0  0
 19 22  1  0  0  0  0
 19 20  2  0  0  0  0
 20 21  1  0  0  0  0
 22 18  2  0  0  0  0
 23 24  1  0  0  0  0
 24 25  1  0  0  0  0
 25 26  1  0  0  0  0
 26 27  1  0  0  0  0
 28 34  1  0  0  0  0
 29 28  2  0  0  0  0
 30 27  1  0  0  0  0
 30 34  2  0  0  0  0
 31 33  1  0  0  0  0
 32 30  1  0  0  0  0
 33 32  2  0  0  0  0
 33 29  1  0  0  0  0
 35 29  1  0  0  0  0
 36 35  1  0  0  0  0
M  END
>  <MODEL>
9

>  <REMARK>
 VINA RESULT:      -6.6      2.746      5.110
  Name = 
  12 active torsions:
  status: ('A' for Active; 'I' for Inactive)
    1  A    between atoms: C_2  and  O_22
    2  A    between atoms: C_3  and  C_18
    3  A    between atoms: C_4  and  C_6
    4  A    between atoms: C_5  and  C_18
    5  A    between atoms: C_6  and  C_8
    6  A    between atoms: O_7  and  C_9
    7  A    between atoms: O_7  and  C_14
    8  A    between atoms: C_9  and  C_16
    9  A    between atoms: O_10  and  C_19
   10  A    between atoms: C_16  and  C_30
   11  A    between atoms: C_23  and  O_36
   12  A    between atoms: C_30  and  O_36
                            x       y       z     vdW  Elec       q    Type
                         _______ _______ _______ _____ _____    ______ ____

>  <TORSDO>
F 12

$$$$
