=
 OpenBabel10222417543D

 33 35  0  0  1  0  0  0  0  0999 V2000
  190.5380  177.0260  139.3740 N   0  0  0  0  0  0  0  0  0  0  0  0
  190.5820  177.0800  137.1740 C   0  0  0  0  0  2  0  0  0  0  0  0
  191.5060  176.7640  138.2970 C   0  0  0  0  0  2  0  0  0  0  0  0
  189.6090  177.3300  138.2710 C   0  0  2  0  0  3  0  0  0  0  0  0
  190.4570  176.6790  145.0800 C   0  0  0  0  0  2  0  0  0  0  0  0
  187.3950  177.5790  144.3590 C   0  0  0  0  0  2  0  0  0  0  0  0
  191.6720  176.9910  142.9260 C   0  0  0  0  0  3  0  0  0  0  0  0
  190.5120  176.9400  140.8000 C   0  0  0  0  0  0  0  0  0  0  0  0
  187.5790  177.8320  145.7980 C   0  0  0  0  0  0  0  0  0  0  0  0
  190.0030  177.9490  145.6250 N   0  0  0  0  0  2  0  0  0  0  0  0
  190.4680  176.7450  143.5950 C   0  0  0  0  0  0  0  0  0  0  0  0
  189.3090  176.6980  141.4690 C   0  0  0  0  0  3  0  0  0  0  0  0
  187.8870  176.3440  143.5930 C   0  0  0  0  0  2  0  0  0  0  0  0
  189.2800  176.6000  142.8640 C   0  0  0  0  0  0  0  0  0  0  0  0
  191.6950  177.0850  141.5320 C   0  0  0  0  0  3  0  0  0  0  0  0
  187.1330  176.3720  143.9630 N   0  0  0  0  0  2  0  0  0  0  0  0
  188.7820  178.0640  146.3610 C   0  0  0  0  0  0  0  0  0  0  0  0
  188.8600  178.5020  147.7180 N   0  0  0  0  0  1  0  0  0  0  0  0
  186.3300  178.0260  146.6000 C   0  0  0  0  0  2  0  0  0  0  0  0
  185.0820  178.9110  145.6180 S   0  0  0  0  0  1  0  0  0  0  0  0
  189.2180  178.8020  138.2860 C   0  0  0  0  0  2  0  0  0  0  0  0
  187.8510  178.9580  137.8290 N   0  0  0  0  0  2  0  0  0  0  0  0
  187.0400  178.0420  138.6100 C   0  0  0  0  0  2  0  0  0  0  0  0
  184.5460  178.1300  138.2830 C   0  0  0  0  0  0  0  0  0  0  0  0
  185.8450  177.6830  137.8590 N   0  0  0  0  0  0  0  0  0  0  0  0
  183.5240  177.8360  137.6080 O   0  0  0  0  0  0  0  0  0  0  0  0
  186.0150  176.9730  136.5950 C   0  0  0  0  0  2  0  0  0  0  0  0
  186.5870  175.5880  136.8380 C   0  0  0  0  0  1  0  0  0  0  0  0
  184.3830  178.9200  139.5610 C   0  0  0  0  0  2  0  0  0  0  0  0
  182.5440  178.6120  141.0630 C   0  0  0  0  0  1  0  0  0  0  0  0
  183.8710  178.1420  140.6990 N   0  0  0  0  0  0  0  0  0  0  0  0
  184.7400  178.2880  141.8600 C   0  0  0  0  0  2  0  0  0  0  0  0
  185.5330  179.4990  141.7290 N   0  0  0  0  0  1  0  0  0  0  0  0
  1  8  1  0  0  0  0
  2  4  1  0  0  0  0
  2  3  1  0  0  0  0
  3  1  1  0  0  0  0
  4 21  1  1  0  0  0
  4  1  1  0  0  0  0
  5 10  1  0  0  0  0
  6  9  1  0  0  0  0
  7 11  1  0  0  0  0
  8 12  2  0  0  0  0
  8 15  1  0  0  0  0
  9 17  2  0  0  0  0
  9 19  1  0  0  0  0
 10 17  1  0  0  0  0
 11  5  1  0  0  0  0
 12 14  1  0  0  0  0
 13 16  1  0  0  0  0
 14 13  1  0  0  0  0
 14 11  2  0  0  0  0
 15  7  2  0  0  0  0
 16  6  1  0  0  0  0
 17 18  1  0  0  0  0
 20 19  1  0  0  0  0
 22 21  1  0  0  0  0
 22 23  1  0  0  0  0
 24 29  1  0  0  0  0
 25 24  1  0  0  0  0
 25 23  1  0  0  0  0
 26 24  2  0  0  0  0
 27 28  1  0  0  0  0
 27 25  1  0  0  0  0
 29 31  1  0  0  0  0
 31 30  1  0  0  0  0
 31 32  1  0  0  0  0
 33 32  1  0  0  0  0
M  END
>  <MODEL>
1

>  <REMARK>
 VINA RESULT:      -7.0      0.000      0.000
  Name = 
  10 active torsions:
  status: ('A' for Active; 'I' for Inactive)
    1  A    between atoms: N_1  and  C_7
    2  A    between atoms: C_5  and  N_15
    3  A    between atoms: C_5  and  C_28
    4  A    between atoms: C_8  and  C_9
    5  A    between atoms: C_13  and  N_32
    6  A    between atoms: N_15  and  C_27
    7  A    between atoms: C_17  and  C_26
    8  A    between atoms: C_18  and  N_22
    9  A    between atoms: N_22  and  C_27
   10  A    between atoms: C_26  and  N_32
                            x       y       z     vdW  Elec       q    Type
                         _______ _______ _______ _____ _____    ______ ____

>  <TORSDO>
F 10

$$$$
=
 OpenBabel10222417543D

 33 35  0  0  1  0  0  0  0  0999 V2000
  189.9950  177.5360  140.9840 N   0  0  0  0  0  0  0  0  0  0  0  0
  191.8580  177.3330  142.1380 C   0  0  0  0  0  2  0  0  0  0  0  0
  191.4380  177.4300  140.7140 C   0  0  0  0  0  2  0  0  0  0  0  0
  190.3990  177.4520  142.3990 C   0  0  2  0  0  3  0  0  0  0  0  0
  185.2220  178.2480  137.9190 C   0  0  0  0  0  2  0  0  0  0  0  0
  184.1010  178.0670  140.9870 C   0  0  0  0  0  2  0  0  0  0  0  0
  187.5970  177.5190  138.1290 C   0  0  0  0  0  3  0  0  0  0  0  0
  188.8000  177.7140  140.2220 C   0  0  0  0  0  0  0  0  0  0  0  0
  182.9390  177.8680  140.1030 C   0  0  0  0  0  0  0  0  0  0  0  0
  184.3020  177.1620  138.2160 N   0  0  0  0  0  2  0  0  0  0  0  0
  186.4640  178.0890  138.7200 C   0  0  0  0  0  0  0  0  0  0  0  0
  187.6660  178.2790  140.8140 C   0  0  0  0  0  3  0  0  0  0  0  0
  185.2190  179.0980  140.7840 C   0  0  0  0  0  2  0  0  0  0  0  0
  186.4970  178.4690  140.0710 C   0  0  0  0  0  0  0  0  0  0  0  0
  188.7630  177.3350  138.8770 C   0  0  0  0  0  3  0  0  0  0  0  0
  184.5180  179.2750  141.2110 N   0  0  0  0  0  2  0  0  0  0  0  0
  183.0390  177.3900  138.8460 C   0  0  0  0  0  0  0  0  0  0  0  0
  181.8590  177.0320  138.1260 N   0  0  0  0  0  1  0  0  0  0  0  0
  181.5920  178.0300  140.7350 C   0  0  0  0  0  2  0  0  0  0  0  0
  180.9030  179.6650  140.3380 S   0  0  0  0  0  1  0  0  0  0  0  0
  189.8830  176.1660  143.0310 C   0  0  0  0  0  2  0  0  0  0  0  0
  188.8900  176.4740  144.0430 N   0  0  0  0  0  2  0  0  0  0  0  0
  189.4090  177.5860  144.8170 C   0  0  0  0  0  2  0  0  0  0  0  0
  188.1480  177.7410  146.9890 C   0  0  0  0  0  0  0  0  0  0  0  0
  189.2890  177.2910  146.2380 N   0  0  0  0  0  0  0  0  0  0  0  0
  188.0430  177.4550  148.2120 O   0  0  0  0  0  0  0  0  0  0  0  0
  190.2860  176.4170  146.8450 C   0  0  0  0  0  2  0  0  0  0  0  0
  191.6640  176.7120  146.2800 C   0  0  0  0  0  1  0  0  0  0  0  0
  187.0850  178.5950  146.3380 C   0  0  0  0  0  2  0  0  0  0  0  0
  185.7310  178.0920  144.4290 C   0  0  0  0  0  1  0  0  0  0  0  0
  185.9150  177.8490  145.8500 N   0  0  0  0  0  0  0  0  0  0  0  0
  184.7050  178.2690  146.5460 C   0  0  0  0  0  2  0  0  0  0  0  0
  183.8750  179.0560  145.6500 N   0  0  0  0  0  1  0  0  0  0  0  0
  1  4  1  0  0  0  0
  2  4  1  0  0  0  0
  3  1  1  0  0  0  0
  3  2  1  0  0  0  0
  4 21  1  6  0  0  0
  5 10  1  0  0  0  0
  5 11  1  0  0  0  0
  6 16  1  0  0  0  0
  7 11  2  0  0  0  0
  7 15  1  0  0  0  0
  8 12  1  0  0  0  0
  8  1  1  0  0  0  0
  9 19  1  0  0  0  0
  9  6  1  0  0  0  0
 10 17  1  0  0  0  0
 11 14  1  0  0  0  0
 13 16  1  0  0  0  0
 14 13  1  0  0  0  0
 14 12  2  0  0  0  0
 15  8  2  0  0  0  0
 17  9  2  0  0  0  0
 18 17  1  0  0  0  0
 20 19  1  0  0  0  0
 21 22  1  0  0  0  0
 22 23  1  0  0  0  0
 23 25  1  0  0  0  0
 24 26  2  0  0  0  0
 25 27  1  0  0  0  0
 25 24  1  0  0  0  0
 28 27  1  0  0  0  0
 29 24  1  0  0  0  0
 30 31  1  0  0  0  0
 31 29  1  0  0  0  0
 31 32  1  0  0  0  0
 33 32  1  0  0  0  0
M  END
>  <MODEL>
2

>  <REMARK>
 VINA RESULT:      -6.9      2.864      6.999
  Name = 
  10 active torsions:
  status: ('A' for Active; 'I' for Inactive)
    1  A    between atoms: N_1  and  C_7
    2  A    between atoms: C_5  and  N_15
    3  A    between atoms: C_5  and  C_28
    4  A    between atoms: C_8  and  C_9
    5  A    between atoms: C_13  and  N_32
    6  A    between atoms: N_15  and  C_27
    7  A    between atoms: C_17  and  C_26
    8  A    between atoms: C_18  and  N_22
    9  A    between atoms: N_22  and  C_27
   10  A    between atoms: C_26  and  N_32
                            x       y       z     vdW  Elec       q    Type
                         _______ _______ _______ _____ _____    ______ ____

>  <TORSDO>
F 10

$$$$
=
 OpenBabel10222417543D

 33 35  0  0  1  0  0  0  0  0999 V2000
  185.7310  178.2700  144.5300 N   0  0  0  0  0  0  0  0  0  0  0  0
  186.1950  177.9310  146.6540 C   0  0  0  0  0  2  0  0  0  0  0  0
  185.2360  178.7240  145.8400 C   0  0  0  0  0  2  0  0  0  0  0  0
  186.6800  177.4700  145.3250 C   0  0  2  0  0  3  0  0  0  0  0  0
  184.3700  179.0600  139.0330 C   0  0  0  0  0  2  0  0  0  0  0  0
  181.7780  177.4420  140.2040 C   0  0  0  0  0  2  0  0  0  0  0  0
  186.0530  178.8510  140.8600 C   0  0  0  0  0  3  0  0  0  0  0  0
  185.3860  178.4660  143.1570 C   0  0  0  0  0  0  0  0  0  0  0  0
  181.6980  177.3560  138.7360 C   0  0  0  0  0  0  0  0  0  0  0  0
  184.0760  177.7710  138.4290 N   0  0  0  0  0  2  0  0  0  0  0  0
  184.7100  178.8760  140.4690 C   0  0  0  0  0  0  0  0  0  0  0  0
  184.0450  178.4870  142.7650 C   0  0  0  0  0  3  0  0  0  0  0  0
  182.1610  178.6890  141.0120 C   0  0  0  0  0  2  0  0  0  0  0  0
  183.7000  178.6900  141.4250 C   0  0  0  0  0  0  0  0  0  0  0  0
  186.3910  178.6500  142.2020 C   0  0  0  0  0  3  0  0  0  0  0  0
  181.3670  178.5230  140.7920 N   0  0  0  0  0  2  0  0  0  0  0  0
  182.7760  177.4470  137.9290 C   0  0  0  0  0  0  0  0  0  0  0  0
  182.6490  177.1510  136.5380 N   0  0  0  0  0  1  0  0  0  0  0  0
  180.3730  176.9550  138.1670 C   0  0  0  0  0  2  0  0  0  0  0  0
  180.0470  175.1990  138.5100 S   0  0  0  0  0  1  0  0  0  0  0  0
  188.1080  177.9510  145.1040 C   0  0  0  0  0  2  0  0  0  0  0  0
  188.9430  176.8450  144.6770 N   0  0  0  0  0  2  0  0  0  0  0  0
  189.0160  176.9080  143.2290 C   0  0  0  0  0  2  0  0  0  0  0  0
  190.7340  177.2680  141.4260 C   0  0  0  0  0  0  0  0  0  0  0  0
  190.3900  177.1570  142.8180 N   0  0  0  0  0  0  0  0  0  0  0  0
  191.9220  177.5130  141.0860 O   0  0  0  0  0  0  0  0  0  0  0  0
  191.3800  177.4250  143.8560 C   0  0  0  0  0  2  0  0  0  0  0  0
  191.5860  178.9200  144.0200 C   0  0  0  0  0  1  0  0  0  0  0  0
  189.6900  177.0520  140.3550 C   0  0  0  0  0  2  0  0  0  0  0  0
  189.2120  178.5760  138.5720 C   0  0  0  0  0  1  0  0  0  0  0  0
  190.0880  177.5030  139.0130 N   0  0  0  0  0  0  0  0  0  0  0  0
  189.9940  176.4130  138.0510 C   0  0  0  0  0  2  0  0  0  0  0  0
  190.8940  175.3400  138.4390 N   0  0  0  0  0  1  0  0  0  0  0  0
  1  4  1  0  0  0  0
  1  3  1  0  0  0  0
  3  2  1  0  0  0  0
  4 21  1  6  0  0  0
  4  2  1  0  0  0  0
  5 11  1  0  0  0  0
  6 16  1  0  0  0  0
  7 15  1  0  0  0  0
  8  1  1  0  0  0  0
  9  6  1  0  0  0  0
 10  5  1  0  0  0  0
 11  7  2  0  0  0  0
 11 14  1  0  0  0  0
 12  8  1  0  0  0  0
 13 14  1  0  0  0  0
 14 12  2  0  0  0  0
 15  8  2  0  0  0  0
 16 13  1  0  0  0  0
 17 10  1  0  0  0  0
 17  9  2  0  0  0  0
 18 17  1  0  0  0  0
 19 20  1  0  0  0  0
 19  9  1  0  0  0  0
 22 21  1  0  0  0  0
 23 22  1  0  0  0  0
 24 25  1  0  0  0  0
 25 23  1  0  0  0  0
 25 27  1  0  0  0  0
 26 24  2  0  0  0  0
 27 28  1  0  0  0  0
 29 24  1  0  0  0  0
 30 31  1  0  0  0  0
 31 29  1  0  0  0  0
 32 33  1  0  0  0  0
 32 31  1  0  0  0  0
M  END
>  <MODEL>
3

>  <REMARK>
 VINA RESULT:      -6.7      2.877      7.989
  Name = 
  10 active torsions:
  status: ('A' for Active; 'I' for Inactive)
    1  A    between atoms: N_1  and  C_7
    2  A    between atoms: C_5  and  N_15
    3  A    between atoms: C_5  and  C_28
    4  A    between atoms: C_8  and  C_9
    5  A    between atoms: C_13  and  N_32
    6  A    between atoms: N_15  and  C_27
    7  A    between atoms: C_17  and  C_26
    8  A    between atoms: C_18  and  N_22
    9  A    between atoms: N_22  and  C_27
   10  A    between atoms: C_26  and  N_32
                            x       y       z     vdW  Elec       q    Type
                         _______ _______ _______ _____ _____    ______ ____

>  <TORSDO>
F 10

$$$$
=
 OpenBabel10222417543D

 33 35  0  0  1  0  0  0  0  0999 V2000
  181.7470  178.1020  140.8610 N   0  0  0  0  0  0  0  0  0  0  0  0
  180.3430  177.7140  139.2120 C   0  0  0  0  0  2  0  0  0  0  0  0
  180.2970  178.1810  140.6240 C   0  0  0  0  0  2  0  0  0  0  0  0
  181.8080  177.6490  139.4600 C   0  0  2  0  0  3  0  0  0  0  0  0
  185.3440  179.3180  145.1360 C   0  0  0  0  0  2  0  0  0  0  0  0
  187.0980  177.2930  143.2580 C   0  0  0  0  0  2  0  0  0  0  0  0
  183.0380  179.1100  144.2110 C   0  0  0  0  0  3  0  0  0  0  0  0
  182.6500  178.4040  141.9270 C   0  0  0  0  0  0  0  0  0  0  0  0
  187.7830  177.3580  144.5600 C   0  0  0  0  0  0  0  0  0  0  0  0
  185.7860  178.0770  145.7500 N   0  0  0  0  0  2  0  0  0  0  0  0
  184.4190  179.0210  144.0100 C   0  0  0  0  0  0  0  0  0  0  0  0
  184.0300  178.3110  141.7270 C   0  0  0  0  0  3  0  0  0  0  0  0
  186.4850  178.4810  142.5040 C   0  0  0  0  0  2  0  0  0  0  0  0
  184.9190  178.6170  142.7630 C   0  0  0  0  0  0  0  0  0  0  0  0
  182.1550  178.8060  143.1710 C   0  0  0  0  0  3  0  0  0  0  0  0
  187.2870  178.2490  142.4020 N   0  0  0  0  0  2  0  0  0  0  0  0
  187.1540  177.6600  145.7140 C   0  0  0  0  0  0  0  0  0  0  0  0
  187.8370  177.5040  146.9590 N   0  0  0  0  0  1  0  0  0  0  0  0
  189.1980  176.8690  144.5880 C   0  0  0  0  0  2  0  0  0  0  0  0
  190.3480  178.2560  144.3450 S   0  0  0  0  0  1  0  0  0  0  0  0
  182.2790  176.2030  139.3810 C   0  0  0  0  0  2  0  0  0  0  0  0
  183.5170  176.1250  138.6290 N   0  0  0  0  0  2  0  0  0  0  0  0
  183.7490  177.4400  138.0630 C   0  0  0  0  0  2  0  0  0  0  0  0
  185.6040  177.4800  136.3620 C   0  0  0  0  0  0  0  0  0  0  0  0
  184.2130  177.3080  136.6900 N   0  0  0  0  0  0  0  0  0  0  0  0
  185.9960  177.3340  135.1740 O   0  0  0  0  0  0  0  0  0  0  0  0
  183.2570  176.8660  135.6810 C   0  0  0  0  0  2  0  0  0  0  0  0
  182.0240  177.7520  135.6950 C   0  0  0  0  0  1  0  0  0  0  0  0
  186.6020  177.8770  137.4240 C   0  0  0  0  0  2  0  0  0  0  0  0
  188.5340  176.5440  137.8950 C   0  0  0  0  0  1  0  0  0  0  0  0
  188.0060  177.6190  137.0720 N   0  0  0  0  0  0  0  0  0  0  0  0
  188.8230  178.8060  137.2920 C   0  0  0  0  0  2  0  0  0  0  0  0
  189.0240  179.0030  138.7180 N   0  0  0  0  0  1  0  0  0  0  0  0
  1  8  1  0  0  0  0
  2  4  1  0  0  0  0
  2  3  1  0  0  0  0
  3  1  1  0  0  0  0
  4 21  1  1  0  0  0
  4  1  1  0  0  0  0
  5 10  1  0  0  0  0
  6  9  1  0  0  0  0
  8 15  1  0  0  0  0
  9 19  1  0  0  0  0
  9 17  2  0  0  0  0
 11  7  1  0  0  0  0
 11  5  1  0  0  0  0
 12  8  2  0  0  0  0
 12 14  1  0  0  0  0
 13 14  1  0  0  0  0
 14 11  2  0  0  0  0
 15  7  2  0  0  0  0
 16 13  1  0  0  0  0
 16  6  1  0  0  0  0
 17 10  1  0  0  0  0
 17 18  1  0  0  0  0
 20 19  1  0  0  0  0
 22 21  1  0  0  0  0
 23 22  1  0  0  0  0
 24 25  1  0  0  0  0
 24 29  1  0  0  0  0
 25 23  1  0  0  0  0
 26 24  2  0  0  0  0
 27 28  1  0  0  0  0
 27 25  1  0  0  0  0
 31 32  1  0  0  0  0
 31 29  1  0  0  0  0
 31 30  1  0  0  0  0
 32 33  1  0  0  0  0
M  END
>  <MODEL>
4

>  <REMARK>
 VINA RESULT:      -6.7      2.278      5.886
  Name = 
  10 active torsions:
  status: ('A' for Active; 'I' for Inactive)
    1  A    between atoms: N_1  and  C_7
    2  A    between atoms: C_5  and  N_15
    3  A    between atoms: C_5  and  C_28
    4  A    between atoms: C_8  and  C_9
    5  A    between atoms: C_13  and  N_32
    6  A    between atoms: N_15  and  C_27
    7  A    between atoms: C_17  and  C_26
    8  A    between atoms: C_18  and  N_22
    9  A    between atoms: N_22  and  C_27
   10  A    between atoms: C_26  and  N_32
                            x       y       z     vdW  Elec       q    Type
                         _______ _______ _______ _____ _____    ______ ____

>  <TORSDO>
F 10

$$$$
=
 OpenBabel10222417543D

 33 35  0  0  1  0  0  0  0  0999 V2000
  190.0670  177.4600  141.2820 N   0  0  0  0  0  0  0  0  0  0  0  0
  191.4600  177.4500  142.9860 C   0  0  0  0  0  2  0  0  0  0  0  0
  191.5210  177.3930  141.5000 C   0  0  0  0  0  2  0  0  0  0  0  0
  189.9930  177.5280  142.7530 C   0  0  2  0  0  3  0  0  0  0  0  0
  186.5290  177.6630  136.7960 C   0  0  0  0  0  2  0  0  0  0  0  0
  184.5070  178.0460  139.3390 C   0  0  0  0  0  2  0  0  0  0  0  0
  188.6690  176.9580  137.8610 C   0  0  0  0  0  3  0  0  0  0  0  0
  189.1790  177.5120  140.1640 C   0  0  0  0  0  0  0  0  0  0  0  0
  183.6640  177.7050  138.1810 C   0  0  0  0  0  0  0  0  0  0  0  0
  185.4920  176.6580  136.9640 N   0  0  0  0  0  2  0  0  0  0  0  0
  187.4500  177.6370  137.9620 C   0  0  0  0  0  0  0  0  0  0  0  0
  187.9580  178.1860  140.2660 C   0  0  0  0  0  3  0  0  0  0  0  0
  185.7000  179.0120  139.3300 C   0  0  0  0  0  2  0  0  0  0  0  0
  187.0910  178.2520  139.1710 C   0  0  0  0  0  0  0  0  0  0  0  0
  189.5330  176.8990  138.9590 C   0  0  0  0  0  3  0  0  0  0  0  0
  184.9140  179.2700  139.4800 N   0  0  0  0  0  2  0  0  0  0  0  0
  184.1140  177.0090  137.1170 C   0  0  0  0  0  0  0  0  0  0  0  0
  183.1930  176.5400  136.1320 N   0  0  0  0  0  1  0  0  0  0  0  0
  182.2010  177.9920  138.3190 C   0  0  0  0  0  2  0  0  0  0  0  0
  181.6130  177.4850  139.9630 S   0  0  0  0  0  1  0  0  0  0  0  0
  189.3170  176.2860  143.3170 C   0  0  0  0  0  2  0  0  0  0  0  0
  188.0310  176.6370  143.8900 N   0  0  0  0  0  2  0  0  0  0  0  0
  188.2140  177.8940  144.5920 C   0  0  0  0  0  2  0  0  0  0  0  0
  186.3100  178.3660  146.1690 C   0  0  0  0  0  0  0  0  0  0  0  0
  187.6120  177.8080  145.9150 N   0  0  0  0  0  0  0  0  0  0  0  0
  185.7890  178.2590  147.3120 O   0  0  0  0  0  0  0  0  0  0  0  0
  188.3030  177.0270  146.9350 C   0  0  0  0  0  2  0  0  0  0  0  0
  189.0650  177.9420  147.8770 C   0  0  0  0  0  1  0  0  0  0  0  0
  185.5710  179.1200  145.0890 C   0  0  0  0  0  2  0  0  0  0  0  0
  184.7650  178.2580  143.0070 C   0  0  0  0  0  1  0  0  0  0  0  0
  184.5010  178.3560  144.4320 N   0  0  0  0  0  0  0  0  0  0  0  0
  183.2100  179.0090  144.6130 C   0  0  0  0  0  2  0  0  0  0  0  0
  182.4840  179.0130  143.3550 N   0  0  0  0  0  1  0  0  0  0  0  0
  1  3  1  0  0  0  0
  1  4  1  0  0  0  0
  3  2  1  0  0  0  0
  4  2  1  0  0  0  0
  4 21  1  1  0  0  0
  5 10  1  0  0  0  0
  5 11  1  0  0  0  0
  6 16  1  0  0  0  0
  7 11  2  0  0  0  0
  7 15  1  0  0  0  0
  8 12  1  0  0  0  0
  8  1  1  0  0  0  0
  9 19  1  0  0  0  0
  9  6  1  0  0  0  0
 10 17  1  0  0  0  0
 11 14  1  0  0  0  0
 13 16  1  0  0  0  0
 14 13  1  0  0  0  0
 14 12  2  0  0  0  0
 15  8  2  0  0  0  0
 17  9  2  0  0  0  0
 18 17  1  0  0  0  0
 19 20  1  0  0  0  0
 21 22  1  0  0  0  0
 22 23  1  0  0  0  0
 23 25  1  0  0  0  0
 24 26  2  0  0  0  0
 25 24  1  0  0  0  0
 25 27  1  0  0  0  0
 27 28  1  0  0  0  0
 29 24  1  0  0  0  0
 30 31  1  0  0  0  0
 31 32  1  0  0  0  0
 31 29  1  0  0  0  0
 33 32  1  0  0  0  0
M  END
>  <MODEL>
5

>  <REMARK>
 VINA RESULT:      -6.6      2.680      6.999
  Name = 
  10 active torsions:
  status: ('A' for Active; 'I' for Inactive)
    1  A    between atoms: N_1  and  C_7
    2  A    between atoms: C_5  and  N_15
    3  A    between atoms: C_5  and  C_28
    4  A    between atoms: C_8  and  C_9
    5  A    between atoms: C_13  and  N_32
    6  A    between atoms: N_15  and  C_27
    7  A    between atoms: C_17  and  C_26
    8  A    between atoms: C_18  and  N_22
    9  A    between atoms: N_22  and  C_27
   10  A    between atoms: C_26  and  N_32
                            x       y       z     vdW  Elec       q    Type
                         _______ _______ _______ _____ _____    ______ ____

>  <TORSDO>
F 10

$$$$
=
 OpenBabel10222417543D

 33 35  0  0  1  0  0  0  0  0999 V2000
  184.9890  178.4830  144.4140 N   0  0  0  0  0  0  0  0  0  0  0  0
  185.1380  178.3250  146.6040 C   0  0  0  0  0  2  0  0  0  0  0  0
  184.3200  179.0520  145.5950 C   0  0  0  0  0  2  0  0  0  0  0  0
  185.7990  177.7480  145.4020 C   0  0  2  0  0  3  0  0  0  0  0  0
  184.4420  178.8110  138.7320 C   0  0  0  0  0  2  0  0  0  0  0  0
  182.0530  176.7410  139.5790 C   0  0  0  0  0  2  0  0  0  0  0  0
  185.8040  179.0020  140.8120 C   0  0  0  0  0  3  0  0  0  0  0  0
  184.8480  178.5620  142.9940 C   0  0  0  0  0  0  0  0  0  0  0  0
  182.2390  176.5950  138.1250 C   0  0  0  0  0  0  0  0  0  0  0  0
  184.5090  177.4700  138.1720 N   0  0  0  0  0  2  0  0  0  0  0  0
  184.5660  178.7440  140.2120 C   0  0  0  0  0  0  0  0  0  0  0  0
  183.6130  178.3000  142.3940 C   0  0  0  0  0  3  0  0  0  0  0  0
  182.0470  178.0640  140.3570 C   0  0  0  0  0  2  0  0  0  0  0  0
  183.4650  178.3890  141.0070 C   0  0  0  0  0  0  0  0  0  0  0  0
  185.9440  178.9150  142.2000 C   0  0  0  0  0  3  0  0  0  0  0  0
  181.3490  177.7360  140.0240 N   0  0  0  0  0  2  0  0  0  0  0  0
  183.3980  176.8760  137.4950 C   0  0  0  0  0  0  0  0  0  0  0  0
  183.5670  176.5170  136.1230 N   0  0  0  0  0  1  0  0  0  0  0  0
  181.1310  175.9180  137.3810 C   0  0  0  0  0  2  0  0  0  0  0  0
  179.9800  177.1520  136.7050 S   0  0  0  0  0  1  0  0  0  0  0  0
  187.2530  178.1980  145.3490 C   0  0  0  0  0  2  0  0  0  0  0  0
  188.0560  177.2030  144.6650 N   0  0  0  0  0  2  0  0  0  0  0  0
  189.1370  177.9140  144.0090 C   0  0  0  0  0  2  0  0  0  0  0  0
  191.2180  176.5080  144.1780 C   0  0  0  0  0  0  0  0  0  0  0  0
  190.0730  176.9590  143.4330 N   0  0  0  0  0  0  0  0  0  0  0  0
  192.0040  175.6590  143.6780 O   0  0  0  0  0  0  0  0  0  0  0  0
  189.7460  176.3720  142.1380 C   0  0  0  0  0  2  0  0  0  0  0  0
  189.2780  177.4460  141.1720 C   0  0  0  0  0  1  0  0  0  0  0  0
  191.5170  177.0730  145.5470 C   0  0  0  0  0  2  0  0  0  0  0  0
  190.1900  176.9800  147.5370 C   0  0  0  0  0  1  0  0  0  0  0  0
  191.0800  176.2280  146.6670 N   0  0  0  0  0  0  0  0  0  0  0  0
  192.2200  175.7810  147.4570 C   0  0  0  0  0  2  0  0  0  0  0  0
  192.5240  176.7680  148.4790 N   0  0  0  0  0  1  0  0  0  0  0  0
  1  4  1  0  0  0  0
  1  3  1  0  0  0  0
  3  2  1  0  0  0  0
  4 21  1  1  0  0  0
  4  2  1  0  0  0  0
  5 11  1  0  0  0  0
  6 16  1  0  0  0  0
  7 15  1  0  0  0  0
  8  1  1  0  0  0  0
  9  6  1  0  0  0  0
 10  5  1  0  0  0  0
 11  7  2  0  0  0  0
 11 14  1  0  0  0  0
 12  8  1  0  0  0  0
 13 14  1  0  0  0  0
 14 12  2  0  0  0  0
 15  8  2  0  0  0  0
 16 13  1  0  0  0  0
 17  9  2  0  0  0  0
 17 10  1  0  0  0  0
 18 17  1  0  0  0  0
 19  9  1  0  0  0  0
 20 19  1  0  0  0  0
 22 21  1  0  0  0  0
 23 22  1  0  0  0  0
 24 29  1  0  0  0  0
 25 23  1  0  0  0  0
 25 24  1  0  0  0  0
 26 24  2  0  0  0  0
 27 25  1  0  0  0  0
 28 27  1  0  0  0  0
 29 31  1  0  0  0  0
 31 32  1  0  0  0  0
 31 30  1  0  0  0  0
 32 33  1  0  0  0  0
M  END
>  <MODEL>
6

>  <REMARK>
 VINA RESULT:      -6.6      3.448      8.605
  Name = 
  10 active torsions:
  status: ('A' for Active; 'I' for Inactive)
    1  A    between atoms: N_1  and  C_7
    2  A    between atoms: C_5  and  N_15
    3  A    between atoms: C_5  and  C_28
    4  A    between atoms: C_8  and  C_9
    5  A    between atoms: C_13  and  N_32
    6  A    between atoms: N_15  and  C_27
    7  A    between atoms: C_17  and  C_26
    8  A    between atoms: C_18  and  N_22
    9  A    between atoms: N_22  and  C_27
   10  A    between atoms: C_26  and  N_32
                            x       y       z     vdW  Elec       q    Type
                         _______ _______ _______ _____ _____    ______ ____

>  <TORSDO>
F 10

$$$$
=
 OpenBabel10222417543D

 33 35  0  0  1  0  0  0  0  0999 V2000
  186.9730  178.2320  145.4200 N   0  0  0  0  0  0  0  0  0  0  0  0
  185.5240  178.5580  147.0440 C   0  0  0  0  0  2  0  0  0  0  0  0
  186.8350  177.8840  146.8440 C   0  0  0  0  0  2  0  0  0  0  0  0
  185.6800  178.9130  145.6080 C   0  0  2  0  0  3  0  0  0  0  0  0
  190.8820  177.5050  141.3110 C   0  0  0  0  0  2  0  0  0  0  0  0
  188.0560  177.3390  139.6700 C   0  0  0  0  0  2  0  0  0  0  0  0
  190.1710  177.3860  143.6980 C   0  0  0  0  0  3  0  0  0  0  0  0
  187.9460  178.0500  144.3900 C   0  0  0  0  0  0  0  0  0  0  0  0
  189.0920  176.7900  138.7790 C   0  0  0  0  0  0  0  0  0  0  0  0
  190.6050  176.2620  140.6090 N   0  0  0  0  0  2  0  0  0  0  0  0
  189.8650  177.7200  142.3740 C   0  0  0  0  0  0  0  0  0  0  0  0
  187.6390  178.3800  143.0660 C   0  0  0  0  0  3  0  0  0  0  0  0
  188.1990  178.5840  140.5560 C   0  0  0  0  0  2  0  0  0  0  0  0
  188.5910  178.2170  142.0550 C   0  0  0  0  0  0  0  0  0  0  0  0
  189.2150  177.5540  144.7040 C   0  0  0  0  0  3  0  0  0  0  0  0
  187.9260  178.6270  139.7620 N   0  0  0  0  0  2  0  0  0  0  0  0
  190.2380  176.2380  139.2280 C   0  0  0  0  0  0  0  0  0  0  0  0
  191.0960  175.5460  138.3210 N   0  0  0  0  0  1  0  0  0  0  0  0
  188.7290  176.6820  137.3310 C   0  0  0  0  0  2  0  0  0  0  0  0
  189.0550  178.2560  136.4810 S   0  0  0  0  0  1  0  0  0  0  0  0
  184.5900  178.2340  144.7900 C   0  0  0  0  0  2  0  0  0  0  0  0
  183.9640  179.1960  143.9020 N   0  0  0  0  0  2  0  0  0  0  0  0
  183.7370  178.5170  142.6400 C   0  0  0  0  0  2  0  0  0  0  0  0
  181.9030  178.2270  140.9410 C   0  0  0  0  0  0  0  0  0  0  0  0
  182.3680  178.7430  142.2010 N   0  0  0  0  0  0  0  0  0  0  0  0
  180.7070  178.4060  140.5870 O   0  0  0  0  0  0  0  0  0  0  0  0
  181.4460  179.3880  143.1300 C   0  0  0  0  0  2  0  0  0  0  0  0
  180.5480  178.3560  143.7880 C   0  0  0  0  0  1  0  0  0  0  0  0
  182.8470  177.5040  140.0090 C   0  0  0  0  0  2  0  0  0  0  0  0
  182.7960  177.2250  137.6320 C   0  0  0  0  0  1  0  0  0  0  0  0
  183.0510  178.1650  138.7120 N   0  0  0  0  0  0  0  0  0  0  0  0
  184.4220  178.6450  138.5840 C   0  0  0  0  0  2  0  0  0  0  0  0
  184.5410  179.9520  139.2070 N   0  0  0  0  0  1  0  0  0  0  0  0
  1  4  1  0  0  0  0
  1  3  1  0  0  0  0
  3  2  1  0  0  0  0
  4 21  1  6  0  0  0
  4  2  1  0  0  0  0
  5 11  1  0  0  0  0
  6 16  1  0  0  0  0
  7 15  1  0  0  0  0
  8 15  2  0  0  0  0
  8  1  1  0  0  0  0
  9 17  2  0  0  0  0
  9  6  1  0  0  0  0
 10  5  1  0  0  0  0
 11  7  2  0  0  0  0
 12  8  1  0  0  0  0
 13 14  1  0  0  0  0
 14 11  1  0  0  0  0
 14 12  2  0  0  0  0
 16 13  1  0  0  0  0
 17 10  1  0  0  0  0
 18 17  1  0  0  0  0
 19  9  1  0  0  0  0
 20 19  1  0  0  0  0
 22 21  1  0  0  0  0
 23 22  1  0  0  0  0
 24 25  1  0  0  0  0
 25 23  1  0  0  0  0
 25 27  1  0  0  0  0
 26 24  2  0  0  0  0
 27 28  1  0  0  0  0
 29 24  1  0  0  0  0
 30 31  1  0  0  0  0
 31 29  1  0  0  0  0
 32 31  1  0  0  0  0
 32 33  1  0  0  0  0
M  END
>  <MODEL>
7

>  <REMARK>
 VINA RESULT:      -6.5      2.581      6.316
  Name = 
  10 active torsions:
  status: ('A' for Active; 'I' for Inactive)
    1  A    between atoms: N_1  and  C_7
    2  A    between atoms: C_5  and  N_15
    3  A    between atoms: C_5  and  C_28
    4  A    between atoms: C_8  and  C_9
    5  A    between atoms: C_13  and  N_32
    6  A    between atoms: N_15  and  C_27
    7  A    between atoms: C_17  and  C_26
    8  A    between atoms: C_18  and  N_22
    9  A    between atoms: N_22  and  C_27
   10  A    between atoms: C_26  and  N_32
                            x       y       z     vdW  Elec       q    Type
                         _______ _______ _______ _____ _____    ______ ____

>  <TORSDO>
F 10

$$$$
=
 OpenBabel10222417543D

 33 35  0  0  1  0  0  0  0  0999 V2000
  185.1450  178.7730  143.3760 N   0  0  0  0  0  0  0  0  0  0  0  0
  183.8010  179.0030  145.1040 C   0  0  0  0  0  2  0  0  0  0  0  0
  183.9260  179.5250  143.7160 C   0  0  0  0  0  2  0  0  0  0  0  0
  185.0260  178.2390  144.7450 C   0  0  2  0  0  3  0  0  0  0  0  0
  188.5050  178.0830  138.8020 C   0  0  0  0  0  2  0  0  0  0  0  0
  185.5580  177.2020  137.6850 C   0  0  0  0  0  2  0  0  0  0  0  0
  188.1700  178.2140  141.2690 C   0  0  0  0  0  3  0  0  0  0  0  0
  185.9800  178.6000  142.2310 C   0  0  0  0  0  0  0  0  0  0  0  0
  186.5430  176.7020  136.7110 C   0  0  0  0  0  0  0  0  0  0  0  0
  188.3700  176.7180  138.3180 N   0  0  0  0  0  2  0  0  0  0  0  0
  187.6240  178.2860  139.9830 C   0  0  0  0  0  0  0  0  0  0  0  0
  185.4350  178.6670  140.9450 C   0  0  0  0  0  3  0  0  0  0  0  0
  185.5890  178.5740  138.3710 C   0  0  0  0  0  2  0  0  0  0  0  0
  186.2490  178.5110  139.8190 C   0  0  0  0  0  0  0  0  0  0  0  0
  187.3510  178.3740  142.3910 C   0  0  0  0  0  3  0  0  0  0  0  0
  185.2040  178.4490  137.6340 N   0  0  0  0  0  2  0  0  0  0  0  0
  187.8230  176.4220  137.0300 C   0  0  0  0  0  0  0  0  0  0  0  0
  188.6600  175.7510  136.0880 N   0  0  0  0  0  1  0  0  0  0  0  0
  186.0070  176.3150  135.3680 C   0  0  0  0  0  2  0  0  0  0  0  0
  184.9090  174.8740  135.5190 S   0  0  0  0  0  1  0  0  0  0  0  0
  186.1910  178.7040  145.6080 C   0  0  0  0  0  2  0  0  0  0  0  0
  186.9420  177.5590  146.0860 N   0  0  0  0  0  2  0  0  0  0  0  0
  188.1550  177.4890  145.2920 C   0  0  0  0  0  2  0  0  0  0  0  0
  190.6360  177.5180  145.7150 C   0  0  0  0  0  0  0  0  0  0  0  0
  189.2960  177.2420  146.1610 N   0  0  0  0  0  0  0  0  0  0  0  0
  191.6120  177.3270  146.4880 O   0  0  0  0  0  0  0  0  0  0  0  0
  189.0360  176.8360  147.5380 C   0  0  0  0  0  2  0  0  0  0  0  0
  189.0440  178.0440  148.4580 C   0  0  0  0  0  1  0  0  0  0  0  0
  190.8940  178.0000  144.3060 C   0  0  0  0  0  2  0  0  0  0  0  0
  191.6750  177.4960  142.1000 C   0  0  0  0  0  1  0  0  0  0  0  0
  191.7360  177.1050  143.4980 N   0  0  0  0  0  0  0  0  0  0  0  0
  191.2780  175.7250  143.6060 C   0  0  0  0  0  2  0  0  0  0  0  0
  190.0600  175.5520  142.8330 N   0  0  0  0  0  1  0  0  0  0  0  0
  1  3  1  0  0  0  0
  1  4  1  0  0  0  0
  3  2  1  0  0  0  0
  4  2  1  0  0  0  0
  4 21  1  1  0  0  0
  5 11  1  0  0  0  0
  7 15  1  0  0  0  0
  8 15  2  0  0  0  0
  8  1  1  0  0  0  0
  9 17  2  0  0  0  0
  9  6  1  0  0  0  0
 10  5  1  0  0  0  0
 11  7  2  0  0  0  0
 12  8  1  0  0  0  0
 13 14  1  0  0  0  0
 14 11  1  0  0  0  0
 14 12  2  0  0  0  0
 16  6  1  0  0  0  0
 16 13  1  0  0  0  0
 17 10  1  0  0  0  0
 18 17  1  0  0  0  0
 19 20  1  0  0  0  0
 19  9  1  0  0  0  0
 21 22  1  0  0  0  0
 23 22  1  0  0  0  0
 23 25  1  0  0  0  0
 24 25  1  0  0  0  0
 24 26  2  0  0  0  0
 25 27  1  0  0  0  0
 27 28  1  0  0  0  0
 29 24  1  0  0  0  0
 30 31  1  0  0  0  0
 31 32  1  0  0  0  0
 31 29  1  0  0  0  0
 33 32  1  0  0  0  0
M  END
>  <MODEL>
8

>  <REMARK>
 VINA RESULT:      -6.5      3.362      8.412
  Name = 
  10 active torsions:
  status: ('A' for Active; 'I' for Inactive)
    1  A    between atoms: N_1  and  C_7
    2  A    between atoms: C_5  and  N_15
    3  A    between atoms: C_5  and  C_28
    4  A    between atoms: C_8  and  C_9
    5  A    between atoms: C_13  and  N_32
    6  A    between atoms: N_15  and  C_27
    7  A    between atoms: C_17  and  C_26
    8  A    between atoms: C_18  and  N_22
    9  A    between atoms: N_22  and  C_27
   10  A    between atoms: C_26  and  N_32
                            x       y       z     vdW  Elec       q    Type
                         _______ _______ _______ _____ _____    ______ ____

>  <TORSDO>
F 10

$$$$
=
 OpenBabel10222417543D

 33 35  0  0  1  0  0  0  0  0999 V2000
  190.5900  177.7230  142.1990 N   0  0  0  0  0  0  0  0  0  0  0  0
  190.8970  178.1800  144.3300 C   0  0  0  0  0  2  0  0  0  0  0  0
  191.6920  177.6850  143.1730 C   0  0  0  0  0  2  0  0  0  0  0  0
  189.7940  178.2260  143.3330 C   0  0  2  0  0  3  0  0  0  0  0  0
  189.9250  176.6900  136.6150 C   0  0  0  0  0  2  0  0  0  0  0  0
  186.8850  177.4040  137.5940 C   0  0  0  0  0  2  0  0  0  0  0  0
  191.1700  176.4100  138.7570 C   0  0  0  0  0  3  0  0  0  0  0  0
  190.4190  177.4670  140.8040 C   0  0  0  0  0  0  0  0  0  0  0  0
  186.7610  176.7590  136.2760 C   0  0  0  0  0  0  0  0  0  0  0  0
  188.9210  175.6520  136.4420 N   0  0  0  0  0  2  0  0  0  0  0  0
  190.1000  176.9850  138.0620 C   0  0  0  0  0  0  0  0  0  0  0  0
  189.3470  178.0360  140.1100 C   0  0  0  0  0  3  0  0  0  0  0  0
  187.9370  178.4490  137.9880 C   0  0  0  0  0  2  0  0  0  0  0  0
  189.1810  177.7990  138.7420 C   0  0  0  0  0  0  0  0  0  0  0  0
  191.3310  176.6540  140.1240 C   0  0  0  0  0  3  0  0  0  0  0  0
  187.1980  178.6620  137.6500 N   0  0  0  0  0  2  0  0  0  0  0  0
  187.6780  175.9030  135.7810 C   0  0  0  0  0  0  0  0  0  0  0  0
  187.3930  175.1630  134.5940 N   0  0  0  0  0  1  0  0  0  0  0  0
  185.4510  176.9370  135.5730 C   0  0  0  0  0  2  0  0  0  0  0  0
  184.1730  175.9050  136.3510 S   0  0  0  0  0  1  0  0  0  0  0  0
  188.7130  177.2250  143.7180 C   0  0  0  0  0  2  0  0  0  0  0  0
  187.4130  177.7140  143.2990 N   0  0  0  0  0  2  0  0  0  0  0  0
  186.4560  177.2710  144.2960 C   0  0  0  0  0  2  0  0  0  0  0  0
  184.4780  178.7830  143.9280 C   0  0  0  0  0  0  0  0  0  0  0  0
  185.6220  178.3920  144.7070 N   0  0  0  0  0  0  0  0  0  0  0  0
  183.7480  179.7360  144.3110 O   0  0  0  0  0  0  0  0  0  0  0  0
  185.9000  179.0180  145.9950 C   0  0  0  0  0  2  0  0  0  0  0  0
  186.8250  178.1440  146.8220 C   0  0  0  0  0  1  0  0  0  0  0  0
  184.1590  178.0880  142.6250 C   0  0  0  0  0  2  0  0  0  0  0  0
  182.6680  178.5180  140.8020 C   0  0  0  0  0  1  0  0  0  0  0  0
  183.8460  178.9930  141.5090 N   0  0  0  0  0  0  0  0  0  0  0  0
  184.9540  179.0510  140.5630 C   0  0  0  0  0  2  0  0  0  0  0  0
  184.5980  179.9110  139.4480 N   0  0  0  0  0  1  0  0  0  0  0  0
  1  3  1  0  0  0  0
  1  4  1  0  0  0  0
  3  2  1  0  0  0  0
  4 21  1  1  0  0  0
  4  2  1  0  0  0  0
  5 11  1  0  0  0  0
  6 16  1  0  0  0  0
  7 15  1  0  0  0  0
  8  1  1  0  0  0  0
  9  6  1  0  0  0  0
 10  5  1  0  0  0  0
 11 14  1  0  0  0  0
 11  7  2  0  0  0  0
 12  8  1  0  0  0  0
 13 14  1  0  0  0  0
 14 12  2  0  0  0  0
 15  8  2  0  0  0  0
 16 13  1  0  0  0  0
 17  9  2  0  0  0  0
 17 10  1  0  0  0  0
 18 17  1  0  0  0  0
 19  9  1  0  0  0  0
 19 20  1  0  0  0  0
 22 21  1  0  0  0  0
 22 23  1  0  0  0  0
 23 25  1  0  0  0  0
 24 26  2  0  0  0  0
 24 25  1  0  0  0  0
 25 27  1  0  0  0  0
 27 28  1  0  0  0  0
 29 24  1  0  0  0  0
 30 31  1  0  0  0  0
 31 29  1  0  0  0  0
 32 31  1  0  0  0  0
 33 32  1  0  0  0  0
M  END
>  <MODEL>
9

>  <REMARK>
 VINA RESULT:      -6.5      2.658      6.820
  Name = 
  10 active torsions:
  status: ('A' for Active; 'I' for Inactive)
    1  A    between atoms: N_1  and  C_7
    2  A    between atoms: C_5  and  N_15
    3  A    between atoms: C_5  and  C_28
    4  A    between atoms: C_8  and  C_9
    5  A    between atoms: C_13  and  N_32
    6  A    between atoms: N_15  and  C_27
    7  A    between atoms: C_17  and  C_26
    8  A    between atoms: C_18  and  N_22
    9  A    between atoms: N_22  and  C_27
   10  A    between atoms: C_26  and  N_32
                            x       y       z     vdW  Elec       q    Type
                         _______ _______ _______ _____ _____    ______ ____

>  <TORSDO>
F 10

$$$$
