=
 OpenBabel10222420163D

 27 30  0  0  1  0  0  0  0  0999 V2000
  190.4450  174.2030  136.0170 C   0  0  0  0  0  3  0  0  0  0  0  0
  190.5310  174.9960  134.8680 C   0  0  0  0  0  3  0  0  0  0  0  0
  190.1510  176.3410  134.9150 C   0  0  0  0  0  3  0  0  0  0  0  0
  189.6900  176.8980  136.1110 C   0  0  0  0  0  0  0  0  0  0  0  0
  189.6010  176.1000  137.2690 C   0  0  0  0  0  0  0  0  0  0  0  0
  189.1010  176.6820  138.5650 C   0  0  2  0  0  3  0  0  0  0  0  0
  189.2810  178.2350  136.1370 O   0  0  0  0  0  0  0  0  0  0  0  0
  188.9880  178.9160  137.3570 C   0  0  0  0  0  2  0  0  0  0  0  0
  189.9810  174.7540  137.2140 C   0  0  0  0  0  3  0  0  0  0  0  0
  188.3110  177.9850  138.3680 C   0  0  1  0  0  3  0  0  0  0  0  0
  190.3580  177.6450  145.2710 C   0  0  0  0  0  1  0  0  0  0  0  0
  189.7550  177.3350  142.0350 C   0  0  0  0  0  0  0  0  0  0  0  0
  190.0000  177.1270  140.7680 C   0  0  0  0  0  0  0  0  0  0  0  0
  187.4240  178.1310  141.8750 C   0  0  0  0  0  2  0  0  0  0  0  0
  189.6540  176.7600  144.3530 N   0  0  0  0  0  0  0  0  0  0  0  0
  188.5010  177.7820  142.5770 C   0  0  0  0  0  0  0  0  0  0  0  0
  190.4910  176.6530  143.1400 C   0  0  0  0  0  2  0  0  0  0  0  0
  190.2360  176.9150  139.5050 C   0  0  0  0  0  3  0  0  0  0  0  0
  188.4800  177.4210  143.9440 N   0  0  0  0  0  0  0  0  0  0  0  0
  187.2850  177.4500  144.7770 C   0  0  0  0  0  1  0  0  0  0  0  0
  184.5480  178.3440  138.3400 C   0  0  0  0  0  0  0  0  0  0  0  0
  185.1050  176.4980  136.9540 C   0  0  0  0  0  3  0  0  0  0  0  0
  186.4640  176.6880  137.2130 C   0  0  0  0  0  3  0  0  0  0  0  0
  183.3250  179.3710  139.0540 Cl  0  0  0  0  0  0  0  0  0  0  0  0
  186.8650  177.7350  138.0530 C   0  0  0  0  0  0  0  0  0  0  0  0
  184.1820  177.3210  137.5200 N   0  0  0  0  0  0  0  0  0  0  0  0
  185.8980  178.5670  138.6210 C   0  0  0  0  0  3  0  0  0  0  0  0
  1  9  1  0  0  0  0
  2  3  1  0  0  0  0
  2  1  2  0  0  0  0
  3  4  2  0  0  0  0
  4  7  1  0  0  0  0
  4  5  1  0  0  0  0
  5  6  1  0  0  0  0
  6 18  1  1  0  0  0
  7  8  1  0  0  0  0
  8 10  1  0  0  0  0
  9  5  2  0  0  0  0
 10 25  1  6  0  0  0
 10  6  1  0  0  0  0
 12 16  1  0  0  0  0
 12 17  1  0  0  0  0
 13 12  2  0  0  0  0
 14 16  2  0  0  0  0
 15 11  1  0  0  0  0
 16 19  1  0  0  0  0
 17 15  1  0  0  0  0
 18 13  2  0  0  0  0
 19 15  1  0  0  0  0
 19 20  1  0  0  0  0
 21 27  1  0  0  0  0
 21 24  1  0  0  0  0
 22 23  2  0  0  0  0
 22 26  1  0  0  0  0
 23 25  1  0  0  0  0
 25 27  2  0  0  0  0
 26 21  2  0  0  0  0
M  END
>  <MODEL>
1

>  <REMARK>
 VINA RESULT:      -7.0      0.000      0.000
  Name = 
  2 active torsions:
  status: ('A' for Active; 'I' for Inactive)
    1  A    between atoms: C_12  and  C_27
    2  A    between atoms: C_17  and  C_23
                            x       y       z     vdW  Elec       q    Type
                         _______ _______ _______ _____ _____    ______ ____

>  <TORSDO>
F 2

$$$$
=
 OpenBabel10222420163D

 27 30  0  0  1  0  0  0  0  0999 V2000
  185.9520  175.0020  136.5400 C   0  0  0  0  0  3  0  0  0  0  0  0
  185.1460  176.1430  136.4680 C   0  0  0  0  0  3  0  0  0  0  0  0
  185.6840  177.4010  136.7550 C   0  0  0  0  0  3  0  0  0  0  0  0
  187.0310  177.5230  137.1080 C   0  0  0  0  0  0  0  0  0  0  0  0
  187.8450  176.3750  137.1830 C   0  0  0  0  0  0  0  0  0  0  0  0
  189.2960  176.4880  137.5680 C   0  0  2  0  0  3  0  0  0  0  0  0
  187.5490  178.7830  137.4240 O   0  0  0  0  0  0  0  0  0  0  0  0
  188.9480  179.0060  137.6010 C   0  0  0  0  0  2  0  0  0  0  0  0
  187.2980  175.1180  136.8970 C   0  0  0  0  0  3  0  0  0  0  0  0
  189.6230  177.8090  138.2800 C   0  0  1  0  0  3  0  0  0  0  0  0
  195.7110  174.6550  135.8430 C   0  0  0  0  0  1  0  0  0  0  0  0
  192.6780  175.6800  136.6690 C   0  0  0  0  0  0  0  0  0  0  0  0
  191.4210  176.0070  136.5140 C   0  0  0  0  0  0  0  0  0  0  0  0
  193.0180  176.4530  138.9880 C   0  0  0  0  0  2  0  0  0  0  0  0
  194.5640  174.2130  136.6250 N   0  0  0  0  0  0  0  0  0  0  0  0
  193.4400  175.8580  137.8740 C   0  0  0  0  0  0  0  0  0  0  0  0
  193.3570  174.6160  135.8740 C   0  0  0  0  0  2  0  0  0  0  0  0
  190.1680  176.3290  136.3680 C   0  0  0  0  0  3  0  0  0  0  0  0
  194.5420  174.9730  137.8110 N   0  0  0  0  0  0  0  0  0  0  0  0
  195.3960  174.6510  138.9460 C   0  0  0  0  0  1  0  0  0  0  0  0
  189.8160  176.7530  141.9040 C   0  0  0  0  0  0  0  0  0  0  0  0
  188.1950  178.4810  141.7430 C   0  0  0  0  0  3  0  0  0  0  0  0
  188.4100  178.5810  140.3670 C   0  0  0  0  0  3  0  0  0  0  0  0
  190.6850  175.5950  142.8860 Cl  0  0  0  0  0  0  0  0  0  0  0  0
  189.3540  177.7470  139.7550 C   0  0  0  0  0  0  0  0  0  0  0  0
  188.8950  177.5750  142.4770 N   0  0  0  0  0  0  0  0  0  0  0  0
  190.0600  176.8250  140.5310 C   0  0  0  0  0  3  0  0  0  0  0  0
  1  9  1  0  0  0  0
  2  1  2  0  0  0  0
  2  3  1  0  0  0  0
  3  4  2  0  0  0  0
  4  5  1  0  0  0  0
  4  7  1  0  0  0  0
  5  6  1  0  0  0  0
  6 18  1  6  0  0  0
  6 10  1  0  0  0  0
  7  8  1  0  0  0  0
  8 10  1  0  0  0  0
  9  5  2  0  0  0  0
 10 25  1  1  0  0  0
 11 15  1  0  0  0  0
 12 16  1  0  0  0  0
 13 12  2  0  0  0  0
 15 19  1  0  0  0  0
 16 14  2  0  0  0  0
 17 15  1  0  0  0  0
 17 12  1  0  0  0  0
 18 13  2  0  0  0  0
 19 16  1  0  0  0  0
 19 20  1  0  0  0  0
 21 26  1  0  0  0  0
 21 24  1  0  0  0  0
 22 26  2  0  0  0  0
 23 22  1  0  0  0  0
 25 23  2  0  0  0  0
 25 27  1  0  0  0  0
 27 21  2  0  0  0  0
M  END
>  <MODEL>
2

>  <REMARK>
 VINA RESULT:      -6.9      3.714      6.084
  Name = 
  2 active torsions:
  status: ('A' for Active; 'I' for Inactive)
    1  A    between atoms: C_12  and  C_27
    2  A    between atoms: C_17  and  C_23
                            x       y       z     vdW  Elec       q    Type
                         _______ _______ _______ _____ _____    ______ ____

>  <TORSDO>
F 2

$$$$
=
 OpenBabel10222420163D

 27 30  0  0  1  0  0  0  0  0999 V2000
  184.9710  175.6840  136.0550 C   0  0  0  0  0  3  0  0  0  0  0  0
  184.7810  174.4920  136.7610 C   0  0  0  0  0  3  0  0  0  0  0  0
  183.8930  174.4510  137.8400 C   0  0  0  0  0  3  0  0  0  0  0  0
  183.1880  175.5990  138.2120 C   0  0  0  0  0  0  0  0  0  0  0  0
  183.3800  176.8020  137.5030 C   0  0  0  0  0  0  0  0  0  0  0  0
  182.6340  178.0500  137.8940 C   0  0  2  0  0  3  0  0  0  0  0  0
  182.3280  175.5540  139.3140 O   0  0  0  0  0  0  0  0  0  0  0  0
  181.4380  176.6250  139.6270 C   0  0  0  0  0  2  0  0  0  0  0  0
  184.2730  176.8360  136.4260 C   0  0  0  0  0  3  0  0  0  0  0  0
  182.0730  177.9860  139.3230 C   0  0  1  0  0  3  0  0  0  0  0  0
  179.2850  183.3160  134.9730 C   0  0  0  0  0  1  0  0  0  0  0  0
  180.7820  180.7820  136.4810 C   0  0  0  0  0  0  0  0  0  0  0  0
  181.1520  179.5480  136.7030 C   0  0  0  0  0  0  0  0  0  0  0  0
  181.5790  181.8320  138.5670 C   0  0  0  0  0  2  0  0  0  0  0  0
  180.6270  182.8140  135.2320 N   0  0  0  0  0  0  0  0  0  0  0  0
  181.0200  181.8940  137.3600 C   0  0  0  0  0  0  0  0  0  0  0  0
  180.5610  181.3430  135.1150 C   0  0  0  0  0  2  0  0  0  0  0  0
  181.5300  178.3230  136.9280 C   0  0  0  0  0  3  0  0  0  0  0  0
  180.9240  183.0730  136.5840 N   0  0  0  0  0  0  0  0  0  0  0  0
  181.3650  184.3850  137.0370 C   0  0  0  0  0  1  0  0  0  0  0  0
  183.6320  178.8040  142.6680 C   0  0  0  0  0  0  0  0  0  0  0  0
  185.2810  179.1640  140.9970 C   0  0  0  0  0  3  0  0  0  0  0  0
  184.3820  178.7830  139.9990 C   0  0  0  0  0  3  0  0  0  0  0  0
  183.1710  178.8360  144.3550 Cl  0  0  0  0  0  0  0  0  0  0  0  0
  183.0810  178.4020  140.3530 C   0  0  0  0  0  0  0  0  0  0  0  0
  184.8910  179.1690  142.3000 N   0  0  0  0  0  0  0  0  0  0  0  0
  182.7050  178.4150  141.6980 C   0  0  0  0  0  3  0  0  0  0  0  0
  1  9  2  0  0  0  0
  1  2  1  0  0  0  0
  2  3  2  0  0  0  0
  3  4  1  0  0  0  0
  4  7  1  0  0  0  0
  5  6  1  0  0  0  0
  5  4  2  0  0  0  0
  6 18  1  6  0  0  0
  6 10  1  0  0  0  0
  7  8  1  0  0  0  0
  9  5  1  0  0  0  0
 10  8  1  0  0  0  0
 10 25  1  1  0  0  0
 11 15  1  0  0  0  0
 12 13  2  0  0  0  0
 12 16  1  0  0  0  0
 13 18  2  0  0  0  0
 15 19  1  0  0  0  0
 16 14  2  0  0  0  0
 17 15  1  0  0  0  0
 17 12  1  0  0  0  0
 19 20  1  0  0  0  0
 19 16  1  0  0  0  0
 21 24  1  0  0  0  0
 22 26  2  0  0  0  0
 23 25  2  0  0  0  0
 23 22  1  0  0  0  0
 25 27  1  0  0  0  0
 26 21  1  0  0  0  0
 27 21  2  0  0  0  0
M  END
>  <MODEL>
3

>  <REMARK>
 VINA RESULT:      -6.7      4.867      8.645
  Name = 
  2 active torsions:
  status: ('A' for Active; 'I' for Inactive)
    1  A    between atoms: C_12  and  C_27
    2  A    between atoms: C_17  and  C_23
                            x       y       z     vdW  Elec       q    Type
                         _______ _______ _______ _____ _____    ______ ____

>  <TORSDO>
F 2

$$$$
=
 OpenBabel10222420163D

 27 30  0  0  1  0  0  0  0  0999 V2000
  191.6790  179.3490  144.3370 C   0  0  0  0  0  3  0  0  0  0  0  0
  191.5000  178.6020  145.5060 C   0  0  0  0  0  3  0  0  0  0  0  0
  190.5190  177.6080  145.5580 C   0  0  0  0  0  3  0  0  0  0  0  0
  189.7190  177.3530  144.4400 C   0  0  0  0  0  0  0  0  0  0  0  0
  189.8970  178.1050  143.2620 C   0  0  0  0  0  0  0  0  0  0  0  0
  189.0400  177.8470  142.0510 C   0  0  2  0  0  3  0  0  0  0  0  0
  188.7190  176.3780  144.5160 O   0  0  0  0  0  0  0  0  0  0  0  0
  188.0040  175.9330  143.3640 C   0  0  0  0  0  2  0  0  0  0  0  0
  190.8790  179.1010  143.2190 C   0  0  0  0  0  3  0  0  0  0  0  0
  187.7490  177.0850  142.3850 C   0  0  1  0  0  3  0  0  0  0  0  0
  189.2970  176.9430  135.2250 C   0  0  0  0  0  1  0  0  0  0  0  0
  189.0890  177.2500  138.5110 C   0  0  0  0  0  0  0  0  0  0  0  0
  189.4540  177.1730  139.7630 C   0  0  0  0  0  0  0  0  0  0  0  0
  186.7220  177.8780  138.8120 C   0  0  0  0  0  2  0  0  0  0  0  0
  189.2460  177.9850  136.2410 N   0  0  0  0  0  0  0  0  0  0  0  0
  187.7820  177.6280  138.0470 C   0  0  0  0  0  0  0  0  0  0  0  0
  190.0410  177.4990  137.3880 C   0  0  0  0  0  2  0  0  0  0  0  0
  189.8130  177.1050  141.0130 C   0  0  0  0  0  3  0  0  0  0  0  0
  187.9180  178.0580  136.7060 N   0  0  0  0  0  0  0  0  0  0  0  0
  186.8850  178.7740  135.9700 C   0  0  0  0  0  1  0  0  0  0  0  0
  185.1540  178.7430  144.5770 C   0  0  0  0  0  0  0  0  0  0  0  0
  185.0360  179.7530  142.4310 C   0  0  0  0  0  3  0  0  0  0  0  0
  186.0620  178.9290  141.9650 C   0  0  0  0  0  3  0  0  0  0  0  0
  184.5600  178.6280  146.2180 Cl  0  0  0  0  0  0  0  0  0  0  0  0
  186.6450  177.9970  142.8330 C   0  0  0  0  0  0  0  0  0  0  0  0
  184.6040  179.6420  143.7160 N   0  0  0  0  0  0  0  0  0  0  0  0
  186.1840  177.9030  144.1480 C   0  0  0  0  0  3  0  0  0  0  0  0
  1  2  1  0  0  0  0
  2  3  2  0  0  0  0
  4  7  1  0  0  0  0
  4  3  1  0  0  0  0
  5  4  2  0  0  0  0
  6 18  1  6  0  0  0
  6 10  1  0  0  0  0
  6  5  1  0  0  0  0
  8  7  1  0  0  0  0
  9  5  1  0  0  0  0
  9  1  2  0  0  0  0
 10 25  1  1  0  0  0
 10  8  1  0  0  0  0
 11 15  1  0  0  0  0
 12 13  2  0  0  0  0
 13 18  2  0  0  0  0
 15 19  1  0  0  0  0
 15 17  1  0  0  0  0
 16 12  1  0  0  0  0
 16 14  2  0  0  0  0
 17 12  1  0  0  0  0
 19 16  1  0  0  0  0
 20 19  1  0  0  0  0
 21 24  1  0  0  0  0
 22 26  1  0  0  0  0
 23 22  2  0  0  0  0
 23 25  1  0  0  0  0
 25 27  2  0  0  0  0
 26 21  2  0  0  0  0
 27 21  1  0  0  0  0
M  END
>  <MODEL>
4

>  <REMARK>
 VINA RESULT:      -6.7      3.066      6.936
  Name = 
  2 active torsions:
  status: ('A' for Active; 'I' for Inactive)
    1  A    between atoms: C_12  and  C_27
    2  A    between atoms: C_17  and  C_23
                            x       y       z     vdW  Elec       q    Type
                         _______ _______ _______ _____ _____    ______ ____

>  <TORSDO>
F 2

$$$$
=
 OpenBabel10222420163D

 27 30  0  0  1  0  0  0  0  0999 V2000
  185.9690  177.2210  146.0990 C   0  0  0  0  0  3  0  0  0  0  0  0
  186.4230  178.0700  147.1140 C   0  0  0  0  0  3  0  0  0  0  0  0
  187.6770  178.6790  147.0090 C   0  0  0  0  0  3  0  0  0  0  0  0
  188.4770  178.4480  145.8870 C   0  0  0  0  0  0  0  0  0  0  0  0
  188.0220  177.5920  144.8640 C   0  0  0  0  0  0  0  0  0  0  0  0
  188.8730  177.3270  143.6500 C   0  0  2  0  0  3  0  0  0  0  0  0
  189.7430  179.0370  145.8090 O   0  0  0  0  0  0  0  0  0  0  0  0
  190.5250  179.0020  144.6150 C   0  0  0  0  0  2  0  0  0  0  0  0
  186.7670  176.9830  144.9780 C   0  0  0  0  0  3  0  0  0  0  0  0
  190.3540  177.6720  143.8740 C   0  0  1  0  0  3  0  0  0  0  0  0
  189.6010  177.6860  136.8080 C   0  0  0  0  0  1  0  0  0  0  0  0
  189.3520  177.6280  140.1040 C   0  0  0  0  0  0  0  0  0  0  0  0
  188.8490  177.8580  141.2890 C   0  0  0  0  0  0  0  0  0  0  0  0
  191.5490  176.7160  140.7620 C   0  0  0  0  0  2  0  0  0  0  0  0
  189.3750  176.7350  137.8870 N   0  0  0  0  0  0  0  0  0  0  0  0
  190.6390  177.0410  139.8460 C   0  0  0  0  0  0  0  0  0  0  0  0
  188.5220  177.4170  138.8820 C   0  0  0  0  0  2  0  0  0  0  0  0
  188.3510  178.0780  142.4720 C   0  0  0  0  0  3  0  0  0  0  0  0
  190.6100  176.5230  138.5310 N   0  0  0  0  0  0  0  0  0  0  0  0
  191.6130  175.6170  137.9890 C   0  0  0  0  0  1  0  0  0  0  0  0
  192.2100  175.6300  146.4570 C   0  0  0  0  0  0  0  0  0  0  0  0
  192.1610  174.3710  144.4440 C   0  0  0  0  0  3  0  0  0  0  0  0
  191.4510  175.3880  143.8020 C   0  0  0  0  0  3  0  0  0  0  0  0
  192.7080  175.7730  148.1280 Cl  0  0  0  0  0  0  0  0  0  0  0  0
  191.1130  176.5470  144.5130 C   0  0  0  0  0  0  0  0  0  0  0  0
  192.5250  174.5120  145.7470 N   0  0  0  0  0  0  0  0  0  0  0  0
  191.4990  176.6680  145.8500 C   0  0  0  0  0  3  0  0  0  0  0  0
  1  2  1  0  0  0  0
  3  2  2  0  0  0  0
  4  3  1  0  0  0  0
  5  9  1  0  0  0  0
  5  4  2  0  0  0  0
  6 18  1  6  0  0  0
  6 10  1  0  0  0  0
  6  5  1  0  0  0  0
  7  4  1  0  0  0  0
  8  7  1  0  0  0  0
  9  1  2  0  0  0  0
 10 25  1  1  0  0  0
 10  8  1  0  0  0  0
 11 15  1  0  0  0  0
 12 13  2  0  0  0  0
 13 18  2  0  0  0  0
 15 19  1  0  0  0  0
 15 17  1  0  0  0  0
 16 12  1  0  0  0  0
 16 14  2  0  0  0  0
 17 12  1  0  0  0  0
 19 16  1  0  0  0  0
 20 19  1  0  0  0  0
 21 24  1  0  0  0  0
 22 26  1  0  0  0  0
 23 22  2  0  0  0  0
 23 25  1  0  0  0  0
 25 27  2  0  0  0  0
 26 21  2  0  0  0  0
 27 21  1  0  0  0  0
M  END
>  <MODEL>
5

>  <REMARK>
 VINA RESULT:      -6.6      4.061      8.594
  Name = 
  2 active torsions:
  status: ('A' for Active; 'I' for Inactive)
    1  A    between atoms: C_12  and  C_27
    2  A    between atoms: C_17  and  C_23
                            x       y       z     vdW  Elec       q    Type
                         _______ _______ _______ _____ _____    ______ ____

>  <TORSDO>
F 2

$$$$
=
 OpenBabel10222420163D

 27 30  0  0  1  0  0  0  0  0999 V2000
  182.8540  176.4420  135.8660 C   0  0  0  0  0  3  0  0  0  0  0  0
  181.9090  177.2730  135.2580 C   0  0  0  0  0  3  0  0  0  0  0  0
  181.4520  178.4170  135.9200 C   0  0  0  0  0  3  0  0  0  0  0  0
  181.9440  178.7350  137.1890 C   0  0  0  0  0  0  0  0  0  0  0  0
  182.8950  177.8980  137.8040 C   0  0  0  0  0  0  0  0  0  0  0  0
  183.4310  178.2230  139.1730 C   0  0  2  0  0  3  0  0  0  0  0  0
  181.4540  179.8640  137.8550 O   0  0  0  0  0  0  0  0  0  0  0  0
  182.0490  180.3530  139.0570 C   0  0  0  0  0  2  0  0  0  0  0  0
  183.3460  176.7530  137.1360 C   0  0  0  0  0  3  0  0  0  0  0  0
  182.5370  179.2050  139.9460 C   0  0  1  0  0  3  0  0  0  0  0  0
  189.2870  178.5790  142.7870 C   0  0  0  0  0  1  0  0  0  0  0  0
  186.4400  178.5460  141.1070 C   0  0  0  0  0  0  0  0  0  0  0  0
  185.6290  178.6610  140.0870 C   0  0  0  0  0  0  0  0  0  0  0  0
  184.7850  178.2910  142.9190 C   0  0  0  0  0  2  0  0  0  0  0  0
  188.2790  177.6330  142.3300 N   0  0  0  0  0  0  0  0  0  0  0  0
  186.0370  178.3280  142.4690 C   0  0  0  0  0  0  0  0  0  0  0  0
  187.8530  178.0810  140.9880 C   0  0  0  0  0  2  0  0  0  0  0  0
  184.8170  178.7680  139.0760 C   0  0  0  0  0  3  0  0  0  0  0  0
  187.1490  177.7860  143.1560 N   0  0  0  0  0  0  0  0  0  0  0  0
  187.0730  177.1760  144.4760 C   0  0  0  0  0  1  0  0  0  0  0  0
  180.0220  178.3310  142.6290 C   0  0  0  0  0  0  0  0  0  0  0  0
  179.7120  176.8130  140.8290 C   0  0  0  0  0  3  0  0  0  0  0  0
  180.7430  177.4220  140.1110 C   0  0  0  0  0  3  0  0  0  0  0  0
  179.5650  178.8830  144.2250 Cl  0  0  0  0  0  0  0  0  0  0  0  0
  181.4200  178.5130  140.6710 C   0  0  0  0  0  0  0  0  0  0  0  0
  179.3760  177.2740  142.0640 N   0  0  0  0  0  0  0  0  0  0  0  0
  181.0570  178.9680  141.9410 C   0  0  0  0  0  3  0  0  0  0  0  0
  1  9  1  0  0  0  0
  2  1  2  0  0  0  0
  2  3  1  0  0  0  0
  3  4  2  0  0  0  0
  4  5  1  0  0  0  0
  4  7  1  0  0  0  0
  5  6  1  0  0  0  0
  6 18  1  6  0  0  0
  6 10  1  0  0  0  0
  7  8  1  0  0  0  0
  8 10  1  0  0  0  0
  9  5  2  0  0  0  0
 10 25  1  6  0  0  0
 12 16  1  0  0  0  0
 13 12  2  0  0  0  0
 15 11  1  0  0  0  0
 15 19  1  0  0  0  0
 16 14  2  0  0  0  0
 16 19  1  0  0  0  0
 17 12  1  0  0  0  0
 17 15  1  0  0  0  0
 18 13  2  0  0  0  0
 19 20  1  0  0  0  0
 21 24  1  0  0  0  0
 22 26  2  0  0  0  0
 23 25  2  0  0  0  0
 23 22  1  0  0  0  0
 25 27  1  0  0  0  0
 26 21  1  0  0  0  0
 27 21  2  0  0  0  0
M  END
>  <MODEL>
6

>  <REMARK>
 VINA RESULT:      -6.4      4.166      6.000
  Name = 
  2 active torsions:
  status: ('A' for Active; 'I' for Inactive)
    1  A    between atoms: C_12  and  C_27
    2  A    between atoms: C_17  and  C_23
                            x       y       z     vdW  Elec       q    Type
                         _______ _______ _______ _____ _____    ______ ____

>  <TORSDO>
F 2

$$$$
=
 OpenBabel10222420163D

 27 30  0  0  1  0  0  0  0  0999 V2000
  191.5360  179.0720  143.5720 C   0  0  0  0  0  3  0  0  0  0  0  0
  191.9120  177.8410  144.1180 C   0  0  0  0  0  3  0  0  0  0  0  0
  190.9630  176.8270  144.2800 C   0  0  0  0  0  3  0  0  0  0  0  0
  189.6380  177.0390  143.8910 C   0  0  0  0  0  0  0  0  0  0  0  0
  189.2560  178.2800  143.3420 C   0  0  0  0  0  0  0  0  0  0  0  0
  187.8310  178.5270  142.9230 C   0  0  2  0  0  3  0  0  0  0  0  0
  188.6910  176.0290  144.0880 O   0  0  0  0  0  0  0  0  0  0  0  0
  187.3750  176.1040  143.5400 C   0  0  0  0  0  2  0  0  0  0  0  0
  190.2110  179.2910  143.1860 C   0  0  0  0  0  3  0  0  0  0  0  0
  186.8420  177.5410  143.5620 C   0  0  1  0  0  3  0  0  0  0  0  0
  183.0820  178.9730  137.9500 C   0  0  0  0  0  1  0  0  0  0  0  0
  185.3480  178.6070  140.3300 C   0  0  0  0  0  0  0  0  0  0  0  0
  186.5320  178.5410  140.8810 C   0  0  0  0  0  0  0  0  0  0  0  0
  183.9710  177.8310  142.2260 C   0  0  0  0  0  2  0  0  0  0  0  0
  183.5570  179.6560  139.1450 N   0  0  0  0  0  0  0  0  0  0  0  0
  184.1060  178.3030  140.9880 C   0  0  0  0  0  0  0  0  0  0  0  0
  185.0250  179.4930  139.1740 C   0  0  0  0  0  2  0  0  0  0  0  0
  187.7070  178.4790  141.4370 C   0  0  0  0  0  3  0  0  0  0  0  0
  183.0760  178.9430  140.2600 N   0  0  0  0  0  0  0  0  0  0  0  0
  181.7140  179.1080  140.7490 C   0  0  0  0  0  1  0  0  0  0  0  0
  186.8760  178.2280  147.2790 C   0  0  0  0  0  0  0  0  0  0  0  0
  184.7610  178.9080  146.4400 C   0  0  0  0  0  3  0  0  0  0  0  0
  185.1250  178.5190  145.1490 C   0  0  0  0  0  3  0  0  0  0  0  0
  187.9640  178.0370  148.6350 Cl  0  0  0  0  0  0  0  0  0  0  0  0
  186.3980  177.9770  144.9270 C   0  0  0  0  0  0  0  0  0  0  0  0
  185.6360  178.7540  147.4710 N   0  0  0  0  0  0  0  0  0  0  0  0
  187.2780  177.8290  146.0010 C   0  0  0  0  0  3  0  0  0  0  0  0
  1  2  1  0  0  0  0
  2  3  2  0  0  0  0
  4  7  1  0  0  0  0
  4  3  1  0  0  0  0
  5  4  2  0  0  0  0
  6 18  1  6  0  0  0
  6  5  1  0  0  0  0
  6 10  1  0  0  0  0
  8 10  1  0  0  0  0
  8  7  1  0  0  0  0
  9  5  1  0  0  0  0
  9  1  2  0  0  0  0
 10 25  1  1  0  0  0
 11 15  1  0  0  0  0
 12 13  2  0  0  0  0
 12 16  1  0  0  0  0
 13 18  2  0  0  0  0
 15 17  1  0  0  0  0
 15 19  1  0  0  0  0
 16 14  2  0  0  0  0
 17 12  1  0  0  0  0
 19 20  1  0  0  0  0
 19 16  1  0  0  0  0
 21 26  1  0  0  0  0
 21 24  1  0  0  0  0
 22 26  2  0  0  0  0
 23 22  1  0  0  0  0
 25 23  2  0  0  0  0
 25 27  1  0  0  0  0
 27 21  2  0  0  0  0
M  END
>  <MODEL>
7

>  <REMARK>
 VINA RESULT:      -6.2      4.798      7.654
  Name = 
  2 active torsions:
  status: ('A' for Active; 'I' for Inactive)
    1  A    between atoms: C_12  and  C_27
    2  A    between atoms: C_17  and  C_23
                            x       y       z     vdW  Elec       q    Type
                         _______ _______ _______ _____ _____    ______ ____

>  <TORSDO>
F 2

$$$$
=
 OpenBabel10222420163D

 27 30  0  0  1  0  0  0  0  0999 V2000
  179.4090  178.6240  144.3440 C   0  0  0  0  0  3  0  0  0  0  0  0
  179.0970  179.9670  144.1090 C   0  0  0  0  0  3  0  0  0  0  0  0
  179.2410  180.5060  142.8270 C   0  0  0  0  0  3  0  0  0  0  0  0
  179.6920  179.7030  141.7760 C   0  0  0  0  0  0  0  0  0  0  0  0
  180.0090  178.3500  142.0100 C   0  0  0  0  0  0  0  0  0  0  0  0
  180.5020  177.4730  140.8900 C   0  0  2  0  0  3  0  0  0  0  0  0
  179.8640  180.2630  140.5050 O   0  0  0  0  0  0  0  0  0  0  0  0
  180.1300  179.4630  139.3530 C   0  0  0  0  0  2  0  0  0  0  0  0
  179.8650  177.8190  143.2970 C   0  0  0  0  0  3  0  0  0  0  0  0
  181.0370  178.2760  139.6950 C   0  0  1  0  0  3  0  0  0  0  0  0
  179.5480  171.9390  136.8970 C   0  0  0  0  0  1  0  0  0  0  0  0
  179.9630  174.6820  138.6960 C   0  0  0  0  0  0  0  0  0  0  0  0
  179.6870  175.6170  139.5670 C   0  0  0  0  0  0  0  0  0  0  0  0
  181.9680  175.6740  137.6520 C   0  0  0  0  0  2  0  0  0  0  0  0
  180.3940  172.4460  137.9680 N   0  0  0  0  0  0  0  0  0  0  0  0
  181.0850  174.6880  137.7970 C   0  0  0  0  0  0  0  0  0  0  0  0
  179.5280  173.2620  138.8440 C   0  0  0  0  0  2  0  0  0  0  0  0
  179.4220  176.5480  140.4380 C   0  0  0  0  0  3  0  0  0  0  0  0
  181.3090  173.3510  137.3930 N   0  0  0  0  0  0  0  0  0  0  0  0
  182.5100  172.8960  136.7070 C   0  0  0  0  0  1  0  0  0  0  0  0
  184.4710  178.6800  141.2220 C   0  0  0  0  0  0  0  0  0  0  0  0
  184.5010  179.7340  139.0940 C   0  0  0  0  0  3  0  0  0  0  0  0
  183.1640  179.3900  138.8820 C   0  0  0  0  0  3  0  0  0  0  0  0
  185.3060  178.2530  142.6980 Cl  0  0  0  0  0  0  0  0  0  0  0  0
  182.4740  178.6710  139.8670 C   0  0  0  0  0  0  0  0  0  0  0  0
  185.1210  179.3780  140.2500 N   0  0  0  0  0  0  0  0  0  0  0  0
  183.1340  178.3160  141.0460 C   0  0  0  0  0  3  0  0  0  0  0  0
  2  1  1  0  0  0  0
  3  2  2  0  0  0  0
  4  5  2  0  0  0  0
  4  3  1  0  0  0  0
  5  9  1  0  0  0  0
  6 18  1  6  0  0  0
  6  5  1  0  0  0  0
  7  4  1  0  0  0  0
  8 10  1  0  0  0  0
  8  7  1  0  0  0  0
  9  1  2  0  0  0  0
 10 25  1  1  0  0  0
 10  6  1  0  0  0  0
 11 15  1  0  0  0  0
 12 17  1  0  0  0  0
 12 13  2  0  0  0  0
 13 18  2  0  0  0  0
 14 16  2  0  0  0  0
 15 17  1  0  0  0  0
 16 12  1  0  0  0  0
 19 16  1  0  0  0  0
 19 15  1  0  0  0  0
 20 19  1  0  0  0  0
 21 24  1  0  0  0  0
 22 26  1  0  0  0  0
 23 22  2  0  0  0  0
 23 25  1  0  0  0  0
 25 27  2  0  0  0  0
 26 21  2  0  0  0  0
 27 21  1  0  0  0  0
M  END
>  <MODEL>
8

>  <REMARK>
 VINA RESULT:      -6.1      5.854     10.034
  Name = 
  2 active torsions:
  status: ('A' for Active; 'I' for Inactive)
    1  A    between atoms: C_12  and  C_27
    2  A    between atoms: C_17  and  C_23
                            x       y       z     vdW  Elec       q    Type
                         _______ _______ _______ _____ _____    ______ ____

>  <TORSDO>
F 2

$$$$
=
 OpenBabel10222420163D

 27 30  0  0  1  0  0  0  0  0999 V2000
  184.1670  172.4130  137.3990 C   0  0  0  0  0  3  0  0  0  0  0  0
  183.0640  172.4670  136.5410 C   0  0  0  0  0  3  0  0  0  0  0  0
  182.7510  173.6580  135.8770 C   0  0  0  0  0  3  0  0  0  0  0  0
  183.5430  174.7940  136.0650 C   0  0  0  0  0  0  0  0  0  0  0  0
  184.6540  174.7420  136.9300 C   0  0  0  0  0  0  0  0  0  0  0  0
  185.5140  175.9580  137.1490 C   0  0  2  0  0  3  0  0  0  0  0  0
  183.2000  175.9880  135.4220 O   0  0  0  0  0  0  0  0  0  0  0  0
  184.0670  177.1220  135.4130 C   0  0  0  0  0  2  0  0  0  0  0  0
  184.9590  173.5470  137.5930 C   0  0  0  0  0  3  0  0  0  0  0  0
  184.8140  177.2640  136.7430 C   0  0  1  0  0  3  0  0  0  0  0  0
  192.3140  176.3840  138.1800 C   0  0  0  0  0  1  0  0  0  0  0  0
  189.0520  176.3250  137.6370 C   0  0  0  0  0  0  0  0  0  0  0  0
  187.9280  176.0750  137.0180 C   0  0  0  0  0  0  0  0  0  0  0  0
  188.2120  177.7860  139.4400 C   0  0  0  0  0  2  0  0  0  0  0  0
  191.1100  175.7670  138.7190 N   0  0  0  0  0  0  0  0  0  0  0  0
  189.1880  177.1180  138.8280 C   0  0  0  0  0  0  0  0  0  0  0  0
  190.2490  175.4360  137.5650 C   0  0  0  0  0  2  0  0  0  0  0  0
  186.8040  175.8240  136.4110 C   0  0  0  0  0  3  0  0  0  0  0  0
  190.4120  176.7570  139.4380 N   0  0  0  0  0  0  0  0  0  0  0  0
  190.7880  177.1280  140.7960 C   0  0  0  0  0  1  0  0  0  0  0  0
  183.6760  178.3900  140.1680 C   0  0  0  0  0  0  0  0  0  0  0  0
  181.8830  178.7590  138.6560 C   0  0  0  0  0  3  0  0  0  0  0  0
  182.6440  178.2560  137.5990 C   0  0  0  0  0  3  0  0  0  0  0  0
  184.3080  178.4670  141.7980 Cl  0  0  0  0  0  0  0  0  0  0  0  0
  183.9520  177.8160  137.8400 C   0  0  0  0  0  0  0  0  0  0  0  0
  182.4090  178.8130  139.9090 N   0  0  0  0  0  0  0  0  0  0  0  0
  184.4690  177.8820  139.1360 C   0  0  0  0  0  3  0  0  0  0  0  0
  1  9  1  0  0  0  0
  2  1  2  0  0  0  0
  3  4  2  0  0  0  0
  3  2  1  0  0  0  0
  4  5  1  0  0  0  0
  5  6  1  0  0  0  0
  5  9  2  0  0  0  0
  6 18  1  6  0  0  0
  7  4  1  0  0  0  0
  8  7  1  0  0  0  0
  8 10  1  0  0  0  0
 10  6  1  0  0  0  0
 10 25  1  1  0  0  0
 11 15  1  0  0  0  0
 12 16  1  0  0  0  0
 13 12  2  0  0  0  0
 15 19  1  0  0  0  0
 16 19  1  0  0  0  0
 16 14  2  0  0  0  0
 17 12  1  0  0  0  0
 17 15  1  0  0  0  0
 18 13  2  0  0  0  0
 19 20  1  0  0  0  0
 21 24  1  0  0  0  0
 22 26  2  0  0  0  0
 23 25  2  0  0  0  0
 23 22  1  0  0  0  0
 25 27  1  0  0  0  0
 26 21  1  0  0  0  0
 27 21  2  0  0  0  0
M  END
>  <MODEL>
9

>  <REMARK>
 VINA RESULT:      -6.1      2.919      5.107
  Name = 
  2 active torsions:
  status: ('A' for Active; 'I' for Inactive)
    1  A    between atoms: C_12  and  C_27
    2  A    between atoms: C_17  and  C_23
                            x       y       z     vdW  Elec       q    Type
                         _______ _______ _______ _____ _____    ______ ____

>  <TORSDO>
F 2

$$$$
