=
 OpenBabel10222419203D

 49 54  0  0  1  0  0  0  0  0999 V2000
  186.1500  176.9040  136.5440 N   0  0  0  0  0  0  0  0  0  0  0  0
  185.3720  173.4190  135.7390 F   0  0  0  0  0  0  0  0  0  0  0  0
  186.0510  174.5500  136.0550 C   0  0  0  0  0  0  0  0  0  0  0  0
  185.4180  175.7280  136.1530 C   0  0  0  0  0  0  0  0  0  0  0  0
  191.3770  177.0220  137.7670 O   0  0  0  0  0  0  0  0  0  0  0  0
  187.3710  176.8590  136.9830 C   0  0  0  0  0  0  0  0  0  0  0  0
  188.0110  178.0640  137.3960 N   0  0  0  0  0  2  0  0  0  0  0  0
  187.5440  174.4900  136.1960 C   0  0  0  0  0  2  0  0  0  0  0  0
  189.2940  178.0570  138.0960 C   0  0  2  0  0  3  0  0  0  0  0  0
  189.5870  175.6370  137.0750 C   0  0  2  0  0  3  0  0  0  0  0  0
  190.1660  176.9060  137.6670 C   0  0  0  0  0  0  0  0  0  0  0  0
  188.0600  175.5320  137.1940 C   0  0  1  0  0  3  0  0  0  0  0  0
  183.6170  176.9230  135.1770 C   0  0  0  0  0  2  0  0  0  0  0  0
  183.0750  177.0260  139.3750 S   0  0  0  0  0  0  0  0  0  0  0  0
  181.7180  180.5950  139.3400 F   0  0  0  0  0  0  0  0  0  0  0  0
  182.4680  178.4250  140.0850 C   0  0  0  0  0  0  0  0  0  0  0  0
  183.9360  175.8110  135.9300 C   0  0  2  0  0  3  0  0  0  0  0  0
  182.9650  177.6750  137.8270 C   0  0  0  0  0  0  0  0  0  0  0  0
  182.2040  179.3550  139.0880 C   0  0  0  0  0  0  0  0  0  0  0  0
  182.2740  178.6320  141.5440 C   0  0  0  0  0  1  0  0  0  0  0  0
  182.4860  178.9370  137.8250 N   0  0  0  0  0  0  0  0  0  0  0  0
  183.3730  176.9950  136.6460 N   0  0  0  0  0  0  0  0  0  0  0  0
  189.1340  178.1580  139.6180 C   0  0  2  0  0  3  0  0  0  0  0  0
  190.7990  177.2520  141.2370 C   0  0  0  0  0  1  0  0  0  0  0  0
  189.6190  176.9120  140.3500 C   0  0  0  0  0  2  0  0  0  0  0  0
  187.6740  178.4240  139.9590 C   0  0  0  0  0  2  0  0  0  0  0  0
  187.4700  178.5370  141.4610 C   0  0  0  0  0  2  0  0  0  0  0  0
  186.0100  178.8050  141.7890 C   0  0  0  0  0  2  0  0  0  0  0  0
  185.5630  177.8960  142.8370 N   0  0  0  0  0  2  0  0  0  0  0  0
  188.9800  178.1070  147.5180 C   0  0  0  0  0  3  0  0  0  0  0  0
  187.8740  177.3980  145.7370 C   0  0  1  0  0  3  0  0  0  0  0  0
  187.7700  177.9560  147.9580 N   0  0  0  0  0  0  0  0  0  0  0  0
  189.0820  177.7850  146.0960 C   0  0  0  0  0  2  0  0  0  0  0  0
  185.3430  178.4560  145.2950 C   0  0  0  0  0  0  0  0  0  0  0  0
  186.9380  177.4320  146.8890 C   0  0  1  0  0  3  0  0  0  0  0  0
  185.7650  178.3190  146.5650 C   0  0  0  0  0  3  0  0  0  0  0  0
  187.3660  177.4020  144.3640 C   0  0  0  0  0  3  0  0  0  0  0  0
  184.1310  179.2790  145.0310 C   0  0  0  0  0  1  0  0  0  0  0  0
  186.1190  177.8660  144.1580 C   0  0  0  0  0  0  0  0  0  0  0  0
  190.1940  174.4710  137.7030 N   0  0  0  0  0  2  0  0  0  0  0  0
  190.9120  173.7900  136.7100 N   0  0  0  0  0  2  0  0  0  0  0  0
  192.2420  173.7090  137.1460 N   0  0  0  0  0  2  0  0  0  0  0  0
  193.0310  174.5460  136.2610 C   0  0  0  0  0  2  0  0  0  0  0  0
  194.0910  175.2750  137.0650 C   0  0  0  0  0  2  0  0  0  0  0  0
  195.3950  174.4960  137.0790 C   0  0  0  0  0  2  0  0  0  0  0  0
  195.5120  173.1040  139.0160 O   0  0  0  0  0  1  0  0  0  0  0  0
  195.9290  174.3300  138.4950 C   0  0  1  0  0  3  0  0  0  0  0  0
  197.4440  174.3780  138.4680 C   0  0  0  0  0  2  0  0  0  0  0  0
  197.8720  175.4060  137.6260 O   0  0  0  0  0  1  0  0  0  0  0  0
  1  6  2  0  0  0  0
  2  3  1  0  0  0  0
  3  4  2  0  0  0  0
  3  8  1  0  0  0  0
  4  1  1  0  0  0  0
  6 12  1  0  0  0  0
  6  7  1  0  0  0  0
  7  9  1  0  0  0  0
  9 23  1  1  0  0  0
 10 12  1  0  0  0  0
 10 11  1  0  0  0  0
 10 40  1  1  0  0  0
 11  5  2  0  0  0  0
 11  9  1  0  0  0  0
 12  8  1  6  0  0  0
 13 17  1  0  0  0  0
 13 22  1  0  0  0  0
 14 16  1  0  0  0  0
 16 20  1  0  0  0  0
 17  4  1  1  0  0  0
 17 22  1  0  0  0  0
 18 14  1  0  0  0  0
 19 15  1  0  0  0  0
 19 16  2  0  0  0  0
 21 18  2  0  0  0  0
 21 19  1  0  0  0  0
 22 18  1  0  0  0  0
 23 26  1  6  0  0  0
 23 25  1  0  0  0  0
 25 24  1  0  0  0  0
 26 27  1  0  0  0  0
 27 28  1  0  0  0  0
 28 29  1  0  0  0  0
 29 39  1  0  0  0  0
 30 32  2  0  0  0  0
 31 37  1  6  0  0  0
 31 33  1  0  0  0  0
 31 35  1  0  0  0  0
 33 30  1  0  0  0  0
 34 36  2  0  0  0  0
 35 36  1  6  0  0  0
 35 32  1  0  0  0  0
 38 34  1  0  0  0  0
 39 37  2  0  0  0  0
 39 34  1  0  0  0  0
 41 42  1  0  0  0  0
 41 40  1  0  0  0  0
 43 44  1  0  0  0  0
 43 42  1  0  0  0  0
 44 45  1  0  0  0  0
 45 47  1  0  0  0  0
 47 46  1  6  0  0  0
 48 47  1  0  0  0  0
 49 48  1  0  0  0  0
M  END
>  <MODEL>
1

>  <REMARK>
 VINA RESULT:      -8.0      0.000      0.000
  Name = 
  16 active torsions:
  status: ('A' for Active; 'I' for Inactive)
    1  A    between atoms: N_2  and  N_38
    2  A    between atoms: N_2  and  C_42
    3  A    between atoms: C_6  and  C_19
    4  A    between atoms: C_9  and  C_22
    5  A    between atoms: C_9  and  C_39
    6  A    between atoms: C_11  and  N_30
    7  A    between atoms: C_11  and  C_43
    8  A    between atoms: C_14  and  C_31
    9  A    between atoms: C_19  and  C_26
   10  A    between atoms: C_22  and  C_47
   11  A    between atoms: N_24  and  C_39
   12  A    between atoms: N_24  and  C_48
   13  A    between atoms: C_26  and  C_43
   14  A    between atoms: N_30  and  N_38
   15  A    between atoms: C_32  and  C_47
   16  A    between atoms: C_45  and  C_47
                            x       y       z     vdW  Elec       q    Type
                         _______ _______ _______ _____ _____    ______ ____

>  <TORSDO>
F 16

$$$$
=
 OpenBabel10222419203D

 49 54  0  0  1  0  0  0  0  0999 V2000
  186.2340  177.1250  137.1940 N   0  0  0  0  0  0  0  0  0  0  0  0
  185.8930  173.9700  135.3690 F   0  0  0  0  0  0  0  0  0  0  0  0
  186.4230  175.0130  136.0570 C   0  0  0  0  0  0  0  0  0  0  0  0
  185.6630  176.0570  136.4150 C   0  0  0  0  0  0  0  0  0  0  0  0
  191.3130  177.3030  138.9280 O   0  0  0  0  0  0  0  0  0  0  0  0
  187.4180  177.0530  137.7240 C   0  0  0  0  0  0  0  0  0  0  0  0
  187.8930  178.1350  138.5220 N   0  0  0  0  0  2  0  0  0  0  0  0
  187.8990  175.0340  136.3270 C   0  0  0  0  0  2  0  0  0  0  0  0
  189.1130  178.0290  139.3190 C   0  0  2  0  0  3  0  0  0  0  0  0
  189.7370  176.0390  137.6970 C   0  0  2  0  0  3  0  0  0  0  0  0
  190.1320  177.1250  138.6760 C   0  0  0  0  0  0  0  0  0  0  0  0
  188.2250  175.7810  137.6240 C   0  0  1  0  0  3  0  0  0  0  0  0
  183.8890  177.2130  135.3470 C   0  0  0  0  0  2  0  0  0  0  0  0
  183.0060  177.0880  139.4860 S   0  0  0  0  0  0  0  0  0  0  0  0
  181.4780  180.5880  139.4970 F   0  0  0  0  0  0  0  0  0  0  0  0
  182.2740  178.4220  140.2040 C   0  0  0  0  0  0  0  0  0  0  0  0
  184.2010  176.0820  136.0750 C   0  0  2  0  0  3  0  0  0  0  0  0
  182.9890  177.8060  137.9650 C   0  0  0  0  0  0  0  0  0  0  0  0
  182.0450  179.3860  139.2310 C   0  0  0  0  0  0  0  0  0  0  0  0
  181.9520  178.5490  141.6510 C   0  0  0  0  0  1  0  0  0  0  0  0
  182.4480  179.0430  137.9800 N   0  0  0  0  0  0  0  0  0  0  0  0
  183.5240  177.2030  136.7930 N   0  0  0  0  0  0  0  0  0  0  0  0
  188.8300  177.6730  140.7840 C   0  0  2  0  0  3  0  0  0  0  0  0
  186.9420  178.0250  142.3730 C   0  0  0  0  0  1  0  0  0  0  0  0
  187.9640  178.7100  141.4900 C   0  0  0  0  0  2  0  0  0  0  0  0
  190.1460  177.5010  141.5280 C   0  0  0  0  0  2  0  0  0  0  0  0
  190.1820  176.1860  142.2900 C   0  0  0  0  0  2  0  0  0  0  0  0
  191.4260  176.0990  143.1610 C   0  0  0  0  0  2  0  0  0  0  0  0
  191.4720  177.2330  144.0730 N   0  0  0  0  0  2  0  0  0  0  0  0
  186.9660  177.6110  147.7040 C   0  0  0  0  0  3  0  0  0  0  0  0
  188.5660  178.1120  146.2600 C   0  0  1  0  0  3  0  0  0  0  0  0
  188.0310  177.6550  148.4410 N   0  0  0  0  0  0  0  0  0  0  0  0
  187.2700  177.8720  146.2980 C   0  0  0  0  0  2  0  0  0  0  0  0
  190.9880  176.7750  146.5140 C   0  0  0  0  0  0  0  0  0  0  0  0
  189.1640  178.0370  147.6160 C   0  0  1  0  0  3  0  0  0  0  0  0
  190.2720  177.0160  147.6270 C   0  0  0  0  0  3  0  0  0  0  0  0
  189.4060  177.9880  145.0670 C   0  0  0  0  0  3  0  0  0  0  0  0
  192.1260  175.8160  146.5920 C   0  0  0  0  0  1  0  0  0  0  0  0
  190.6030  177.3860  145.2030 C   0  0  0  0  0  0  0  0  0  0  0  0
  190.4150  174.7930  138.0310 N   0  0  0  0  0  2  0  0  0  0  0  0
  191.3250  174.5240  136.9990 N   0  0  0  0  0  2  0  0  0  0  0  0
  192.5770  174.3250  137.5960 N   0  0  0  0  0  2  0  0  0  0  0  0
  193.5050  173.9840  136.5330 C   0  0  0  0  0  2  0  0  0  0  0  0
  194.9090  174.3930  136.9350 C   0  0  0  0  0  2  0  0  0  0  0  0
  195.1700  174.0800  138.3980 C   0  0  0  0  0  2  0  0  0  0  0  0
  197.2390  175.1150  137.8030 O   0  0  0  0  0  1  0  0  0  0  0  0
  196.6310  174.3030  138.7630 C   0  0  1  0  0  3  0  0  0  0  0  0
  196.7110  174.9780  140.1190 C   0  0  0  0  0  2  0  0  0  0  0  0
  197.8700  175.7510  140.1980 O   0  0  0  0  0  1  0  0  0  0  0  0
  1  6  2  0  0  0  0
  2  3  1  0  0  0  0
  3  8  1  0  0  0  0
  3  4  2  0  0  0  0
  4  1  1  0  0  0  0
  6  7  1  0  0  0  0
  7  9  1  0  0  0  0
  9 23  1  1  0  0  0
 10 40  1  1  0  0  0
 10 11  1  0  0  0  0
 11  5  2  0  0  0  0
 11  9  1  0  0  0  0
 12  8  1  6  0  0  0
 12 10  1  0  0  0  0
 12  6  1  0  0  0  0
 13 17  1  0  0  0  0
 13 22  1  0  0  0  0
 14 16  1  0  0  0  0
 16 20  1  0  0  0  0
 17  4  1  1  0  0  0
 17 22  1  0  0  0  0
 18 21  2  0  0  0  0
 18 14  1  0  0  0  0
 19 15  1  0  0  0  0
 19 16  2  0  0  0  0
 21 19  1  0  0  0  0
 22 18  1  0  0  0  0
 23 25  1  1  0  0  0
 23 26  1  0  0  0  0
 25 24  1  0  0  0  0
 26 27  1  0  0  0  0
 27 28  1  0  0  0  0
 28 29  1  0  0  0  0
 29 39  1  0  0  0  0
 30 32  2  0  0  0  0
 31 37  1  6  0  0  0
 31 33  1  0  0  0  0
 31 35  1  0  0  0  0
 33 30  1  0  0  0  0
 34 38  1  0  0  0  0
 34 36  2  0  0  0  0
 35 36  1  6  0  0  0
 35 32  1  0  0  0  0
 37 39  2  0  0  0  0
 39 34  1  0  0  0  0
 41 42  1  0  0  0  0
 41 40  1  0  0  0  0
 43 44  1  0  0  0  0
 43 42  1  0  0  0  0
 44 45  1  0  0  0  0
 45 47  1  0  0  0  0
 47 46  1  6  0  0  0
 47 48  1  0  0  0  0
 48 49  1  0  0  0  0
M  END
>  <MODEL>
2

>  <REMARK>
 VINA RESULT:      -7.9      1.369      2.628
  Name = 
  16 active torsions:
  status: ('A' for Active; 'I' for Inactive)
    1  A    between atoms: N_2  and  N_38
    2  A    between atoms: N_2  and  C_42
    3  A    between atoms: C_6  and  C_19
    4  A    between atoms: C_9  and  C_22
    5  A    between atoms: C_9  and  C_39
    6  A    between atoms: C_11  and  N_30
    7  A    between atoms: C_11  and  C_43
    8  A    between atoms: C_14  and  C_31
    9  A    between atoms: C_19  and  C_26
   10  A    between atoms: C_22  and  C_47
   11  A    between atoms: N_24  and  C_39
   12  A    between atoms: N_24  and  C_48
   13  A    between atoms: C_26  and  C_43
   14  A    between atoms: N_30  and  N_38
   15  A    between atoms: C_32  and  C_47
   16  A    between atoms: C_45  and  C_47
                            x       y       z     vdW  Elec       q    Type
                         _______ _______ _______ _____ _____    ______ ____

>  <TORSDO>
F 16

$$$$
=
 OpenBabel10222419203D

 49 54  0  0  1  0  0  0  0  0999 V2000
  188.6060  177.7880  138.0290 N   0  0  0  0  0  0  0  0  0  0  0  0
  188.6440  175.7510  134.9880 F   0  0  0  0  0  0  0  0  0  0  0  0
  189.0400  176.4010  136.1110 C   0  0  0  0  0  0  0  0  0  0  0  0
  188.1780  177.1530  136.8100 C   0  0  0  0  0  0  0  0  0  0  0  0
  193.5110  177.3600  140.1730 O   0  0  0  0  0  0  0  0  0  0  0  0
  189.7480  177.5300  138.5920 C   0  0  0  0  0  0  0  0  0  0  0  0
  190.0790  178.1660  139.8250 N   0  0  0  0  0  2  0  0  0  0  0  0
  190.4850  176.3530  136.5110 C   0  0  0  0  0  2  0  0  0  0  0  0
  191.2390  177.7610  140.6150 C   0  0  2  0  0  3  0  0  0  0  0  0
  192.1330  176.7140  138.3600 C   0  0  2  0  0  3  0  0  0  0  0  0
  192.3700  177.2700  139.7500 C   0  0  0  0  0  0  0  0  0  0  0  0
  190.6550  176.4620  138.0300 C   0  0  1  0  0  3  0  0  0  0  0  0
  185.9070  177.3680  137.4590 C   0  0  0  0  0  2  0  0  0  0  0  0
  186.3010  173.6640  135.4450 S   0  0  0  0  0  0  0  0  0  0  0  0
  183.8210  171.8920  137.7440 F   0  0  0  0  0  0  0  0  0  0  0  0
  185.4190  172.3410  135.9930 C   0  0  0  0  0  0  0  0  0  0  0  0
  186.7480  177.2740  136.3680 C   0  0  2  0  0  3  0  0  0  0  0  0
  185.6360  174.6820  136.6080 C   0  0  0  0  0  0  0  0  0  0  0  0
  184.6370  172.7370  137.0700 C   0  0  0  0  0  0  0  0  0  0  0  0
  185.4920  170.9670  135.4260 C   0  0  0  0  0  1  0  0  0  0  0  0
  184.7610  174.0460  137.4160 N   0  0  0  0  0  0  0  0  0  0  0  0
  185.9830  176.0530  136.7610 N   0  0  0  0  0  0  0  0  0  0  0  0
  190.8740  176.7860  141.7420 C   0  0  2  0  0  3  0  0  0  0  0  0
  189.0720  175.4520  142.8320 C   0  0  0  0  0  1  0  0  0  0  0  0
  189.3690  176.6300  141.9270 C   0  0  0  0  0  2  0  0  0  0  0  0
  191.5110  177.2520  143.0430 C   0  0  0  0  0  2  0  0  0  0  0  0
  190.7080  178.3750  143.6790 C   0  0  0  0  0  2  0  0  0  0  0  0
  190.5870  178.1690  145.1810 C   0  0  0  0  0  2  0  0  0  0  0  0
  189.4370  177.3240  145.4740 N   0  0  0  0  0  2  0  0  0  0  0  0
  183.7950  178.5400  144.9130 C   0  0  0  0  0  3  0  0  0  0  0  0
  185.9990  178.6020  144.7360 C   0  0  1  0  0  3  0  0  0  0  0  0
  184.1700  179.0680  146.0360 N   0  0  0  0  0  0  0  0  0  0  0  0
  184.9370  178.2040  144.0650 C   0  0  0  0  0  2  0  0  0  0  0  0
  187.4870  177.9090  146.9770 C   0  0  0  0  0  0  0  0  0  0  0  0
  185.6150  179.2220  146.0280 C   0  0  1  0  0  3  0  0  0  0  0  0
  186.2920  178.4970  147.1610 C   0  0  0  0  0  3  0  0  0  0  0  0
  187.3590  178.1030  144.5240 C   0  0  0  0  0  3  0  0  0  0  0  0
  188.1570  177.2720  148.1450 C   0  0  0  0  0  1  0  0  0  0  0  0
  188.0980  177.8160  145.6130 C   0  0  0  0  0  0  0  0  0  0  0  0
  192.8770  175.4730  138.1860 N   0  0  0  0  0  2  0  0  0  0  0  0
  193.9170  175.7350  137.2830 N   0  0  0  0  0  2  0  0  0  0  0  0
  193.9840  174.6450  136.4050 N   0  0  0  0  0  2  0  0  0  0  0  0
  194.5730  173.5420  137.1430 C   0  0  0  0  0  2  0  0  0  0  0  0
  196.0830  173.6900  137.1570 C   0  0  0  0  0  2  0  0  0  0  0  0
  196.6230  173.6230  138.5760 C   0  0  0  0  0  2  0  0  0  0  0  0
  195.9480  175.2630  140.1760 O   0  0  0  0  0  1  0  0  0  0  0  0
  196.8590  175.0140  139.1480 C   0  0  1  0  0  3  0  0  0  0  0  0
  198.2710  175.0990  139.6920 C   0  0  0  0  0  2  0  0  0  0  0  0
  198.2540  174.9760  141.0820 O   0  0  0  0  0  1  0  0  0  0  0  0
  1  6  2  0  0  0  0
  2  3  1  0  0  0  0
  3  8  1  0  0  0  0
  3  4  2  0  0  0  0
  4  1  1  0  0  0  0
  6  7  1  0  0  0  0
  7  9  1  0  0  0  0
  9 23  1  1  0  0  0
 10 40  1  1  0  0  0
 10 11  1  0  0  0  0
 11  5  2  0  0  0  0
 11  9  1  0  0  0  0
 12  8  1  6  0  0  0
 12 10  1  0  0  0  0
 12  6  1  0  0  0  0
 14 16  1  0  0  0  0
 14 18  1  0  0  0  0
 16 19  2  0  0  0  0
 17 22  1  0  0  0  0
 17  4  1  1  0  0  0
 17 13  1  0  0  0  0
 18 22  1  0  0  0  0
 18 21  2  0  0  0  0
 19 21  1  0  0  0  0
 19 15  1  0  0  0  0
 20 16  1  0  0  0  0
 22 13  1  0  0  0  0
 23 25  1  1  0  0  0
 23 26  1  0  0  0  0
 25 24  1  0  0  0  0
 26 27  1  0  0  0  0
 27 28  1  0  0  0  0
 28 29  1  0  0  0  0
 29 39  1  0  0  0  0
 30 32  2  0  0  0  0
 31 33  1  1  0  0  0
 31 35  1  0  0  0  0
 33 30  1  0  0  0  0
 34 36  2  0  0  0  0
 34 38  1  0  0  0  0
 35 32  1  0  0  0  0
 35 36  1  1  0  0  0
 37 31  1  0  0  0  0
 37 39  2  0  0  0  0
 39 34  1  0  0  0  0
 41 40  1  0  0  0  0
 42 43  1  0  0  0  0
 42 41  1  0  0  0  0
 43 44  1  0  0  0  0
 44 45  1  0  0  0  0
 45 47  1  0  0  0  0
 47 48  1  0  0  0  0
 47 46  1  1  0  0  0
 48 49  1  0  0  0  0
M  END
>  <MODEL>
3

>  <REMARK>
 VINA RESULT:      -7.9      2.731      4.179
  Name = 
  16 active torsions:
  status: ('A' for Active; 'I' for Inactive)
    1  A    between atoms: N_2  and  N_38
    2  A    between atoms: N_2  and  C_42
    3  A    between atoms: C_6  and  C_19
    4  A    between atoms: C_9  and  C_22
    5  A    between atoms: C_9  and  C_39
    6  A    between atoms: C_11  and  N_30
    7  A    between atoms: C_11  and  C_43
    8  A    between atoms: C_14  and  C_31
    9  A    between atoms: C_19  and  C_26
   10  A    between atoms: C_22  and  C_47
   11  A    between atoms: N_24  and  C_39
   12  A    between atoms: N_24  and  C_48
   13  A    between atoms: C_26  and  C_43
   14  A    between atoms: N_30  and  N_38
   15  A    between atoms: C_32  and  C_47
   16  A    between atoms: C_45  and  C_47
                            x       y       z     vdW  Elec       q    Type
                         _______ _______ _______ _____ _____    ______ ____

>  <TORSDO>
F 16

$$$$
=
 OpenBabel10222419203D

 49 54  0  0  1  0  0  0  0  0999 V2000
  185.3200  178.1350  137.3530 N   0  0  0  0  0  0  0  0  0  0  0  0
  187.5460  175.7800  135.6480 F   0  0  0  0  0  0  0  0  0  0  0  0
  187.0450  176.6600  136.5510 C   0  0  0  0  0  0  0  0  0  0  0  0
  185.8560  177.2470  136.3540 C   0  0  0  0  0  0  0  0  0  0  0  0
  187.6960  179.3200  142.0200 O   0  0  0  0  0  0  0  0  0  0  0  0
  185.8500  178.2690  138.5310 C   0  0  0  0  0  0  0  0  0  0  0  0
  185.2320  179.1330  139.4810 N   0  0  0  0  0  2  0  0  0  0  0  0
  187.8850  177.0520  137.7310 C   0  0  0  0  0  2  0  0  0  0  0  0
  185.6470  179.1630  140.8820 C   0  0  2  0  0  3  0  0  0  0  0  0
  187.8970  178.0880  140.0090 C   0  0  2  0  0  3  0  0  0  0  0  0
  187.1160  178.8740  141.0430 C   0  0  0  0  0  0  0  0  0  0  0  0
  187.0220  177.4120  138.9450 C   0  0  1  0  0  3  0  0  0  0  0  0
  183.7480  177.3710  135.2750 C   0  0  0  0  0  2  0  0  0  0  0  0
  184.6180  173.2720  135.8840 S   0  0  0  0  0  0  0  0  0  0  0  0
  180.9820  172.3780  136.6350 F   0  0  0  0  0  0  0  0  0  0  0  0
  183.3650  172.2240  136.2890 C   0  0  0  0  0  0  0  0  0  0  0  0
  185.0460  176.9230  135.1320 C   0  0  2  0  0  3  0  0  0  0  0  0
  183.5760  174.5880  135.7660 C   0  0  0  0  0  0  0  0  0  0  0  0
  182.1750  172.9400  136.3240 C   0  0  0  0  0  0  0  0  0  0  0  0
  183.5210  170.7750  136.5860 C   0  0  0  0  0  1  0  0  0  0  0  0
  182.2940  174.2620  136.0350 N   0  0  0  0  0  0  0  0  0  0  0  0
  183.9970  175.9130  135.4630 N   0  0  0  0  0  0  0  0  0  0  0  0
  184.7580  178.2920  141.7780 C   0  0  2  0  0  3  0  0  0  0  0  0
  182.3510  178.2800  141.1320 C   0  0  0  0  0  1  0  0  0  0  0  0
  183.6740  177.5540  141.0010 C   0  0  0  0  0  2  0  0  0  0  0  0
  184.1250  179.1560  142.8590 C   0  0  0  0  0  2  0  0  0  0  0  0
  185.0220  179.2540  144.0830 C   0  0  0  0  0  2  0  0  0  0  0  0
  185.3380  177.8720  144.6330 C   0  0  0  0  0  2  0  0  0  0  0  0
  186.1650  177.9920  145.8270 N   0  0  0  0  0  2  0  0  0  0  0  0
  191.8600  177.6830  144.7820 C   0  0  0  0  0  3  0  0  0  0  0  0
  189.6880  177.2620  144.8020 C   0  0  1  0  0  3  0  0  0  0  0  0
  191.6730  177.1320  145.9400 N   0  0  0  0  0  0  0  0  0  0  0  0
  190.6110  177.8070  144.0340 C   0  0  0  0  0  2  0  0  0  0  0  0
  188.3060  177.7690  147.1580 C   0  0  0  0  0  0  0  0  0  0  0  0
  190.2780  176.7480  146.0630 C   0  0  1  0  0  3  0  0  0  0  0  0
  189.5920  177.3850  147.2430 C   0  0  0  0  0  3  0  0  0  0  0  0
  188.2530  177.5300  144.7060 C   0  0  0  0  0  3  0  0  0  0  0  0
  187.6440  178.3220  148.3720 C   0  0  0  0  0  1  0  0  0  0  0  0
  187.5730  177.7250  145.8530 C   0  0  0  0  0  0  0  0  0  0  0  0
  188.7160  177.0770  140.6650 N   0  0  0  0  0  2  0  0  0  0  0  0
  190.0560  177.4620  140.5110 N   0  0  0  0  0  2  0  0  0  0  0  0
  190.7090  176.4190  139.8410 N   0  0  0  0  0  2  0  0  0  0  0  0
  192.0270  176.9070  139.4790 C   0  0  0  0  0  2  0  0  0  0  0  0
  192.3740  176.4390  138.0780 C   0  0  0  0  0  2  0  0  0  0  0  0
  191.1870  175.7520  137.4240 C   0  0  0  0  0  2  0  0  0  0  0  0
  190.1500  173.6010  137.4100 O   0  0  0  0  0  1  0  0  0  0  0  0
  191.3870  174.2450  137.3510 C   0  0  1  0  0  3  0  0  0  0  0  0
  192.0770  173.8940  136.0480 C   0  0  0  0  0  2  0  0  0  0  0  0
  191.8330  172.5580  135.7240 O   0  0  0  0  0  1  0  0  0  0  0  0
  1  6  2  0  0  0  0
  2  3  1  0  0  0  0
  3  8  1  0  0  0  0
  4  3  2  0  0  0  0
  4  1  1  0  0  0  0
  6 12  1  0  0  0  0
  6  7  1  0  0  0  0
  7  9  1  0  0  0  0
  9 11  1  0  0  0  0
  9 23  1  1  0  0  0
 10 40  1  1  0  0  0
 10 11  1  0  0  0  0
 11  5  2  0  0  0  0
 12  8  1  6  0  0  0
 12 10  1  0  0  0  0
 13 22  1  0  0  0  0
 14 16  1  0  0  0  0
 16 19  2  0  0  0  0
 16 20  1  0  0  0  0
 17 13  1  0  0  0  0
 17 22  1  0  0  0  0
 17  4  1  1  0  0  0
 18 14  1  0  0  0  0
 18 21  2  0  0  0  0
 19 15  1  0  0  0  0
 21 19  1  0  0  0  0
 22 18  1  0  0  0  0
 23 25  1  6  0  0  0
 23 26  1  0  0  0  0
 25 24  1  0  0  0  0
 26 27  1  0  0  0  0
 27 28  1  0  0  0  0
 28 29  1  0  0  0  0
 29 39  1  0  0  0  0
 30 32  2  0  0  0  0
 31 33  1  1  0  0  0
 31 35  1  0  0  0  0
 32 35  1  0  0  0  0
 33 30  1  0  0  0  0
 34 36  2  0  0  0  0
 34 38  1  0  0  0  0
 35 36  1  1  0  0  0
 37 31  1  0  0  0  0
 37 39  2  0  0  0  0
 39 34  1  0  0  0  0
 41 40  1  0  0  0  0
 42 41  1  0  0  0  0
 43 42  1  0  0  0  0
 44 43  1  0  0  0  0
 45 44  1  0  0  0  0
 47 46  1  6  0  0  0
 47 45  1  0  0  0  0
 48 47  1  0  0  0  0
 49 48  1  0  0  0  0
M  END
>  <MODEL>
4

>  <REMARK>
 VINA RESULT:      -7.6      2.888      4.618
  Name = 
  16 active torsions:
  status: ('A' for Active; 'I' for Inactive)
    1  A    between atoms: N_2  and  N_38
    2  A    between atoms: N_2  and  C_42
    3  A    between atoms: C_6  and  C_19
    4  A    between atoms: C_9  and  C_22
    5  A    between atoms: C_9  and  C_39
    6  A    between atoms: C_11  and  N_30
    7  A    between atoms: C_11  and  C_43
    8  A    between atoms: C_14  and  C_31
    9  A    between atoms: C_19  and  C_26
   10  A    between atoms: C_22  and  C_47
   11  A    between atoms: N_24  and  C_39
   12  A    between atoms: N_24  and  C_48
   13  A    between atoms: C_26  and  C_43
   14  A    between atoms: N_30  and  N_38
   15  A    between atoms: C_32  and  C_47
   16  A    between atoms: C_45  and  C_47
                            x       y       z     vdW  Elec       q    Type
                         _______ _______ _______ _____ _____    ______ ____

>  <TORSDO>
F 16

$$$$
=
 OpenBabel10222419203D

 49 54  0  0  1  0  0  0  0  0999 V2000
  183.1560  175.2150  138.0300 N   0  0  0  0  0  0  0  0  0  0  0  0
  181.4540  175.1400  134.7900 F   0  0  0  0  0  0  0  0  0  0  0  0
  181.7530  175.4120  136.0850 C   0  0  0  0  0  0  0  0  0  0  0  0
  182.8280  174.8670  136.6720 C   0  0  0  0  0  0  0  0  0  0  0  0
  180.4100  178.6810  141.0770 O   0  0  0  0  0  0  0  0  0  0  0  0
  182.5600  176.1730  138.6740 C   0  0  0  0  0  0  0  0  0  0  0  0
  182.9760  176.4870  140.0010 N   0  0  0  0  0  2  0  0  0  0  0  0
  180.8070  176.2530  136.8910 C   0  0  0  0  0  2  0  0  0  0  0  0
  182.5020  177.6820  140.6960 C   0  0  2  0  0  3  0  0  0  0  0  0
  180.5150  177.6380  138.9550 C   0  0  2  0  0  3  0  0  0  0  0  0
  181.1010  178.0560  140.2890 C   0  0  0  0  0  0  0  0  0  0  0  0
  181.5400  177.0430  137.9800 C   0  0  1  0  0  3  0  0  0  0  0  0
  184.2660  172.9830  136.7170 C   0  0  0  0  0  2  0  0  0  0  0  0
  186.6200  176.3450  135.6750 S   0  0  0  0  0  0  0  0  0  0  0  0
  189.6470  175.1240  137.6570 F   0  0  0  0  0  0  0  0  0  0  0  0
  188.1900  176.4570  136.2700 C   0  0  0  0  0  0  0  0  0  0  0  0
  183.7340  173.9560  135.8950 C   0  0  2  0  0  3  0  0  0  0  0  0
  186.3700  174.8530  136.4110 C   0  0  0  0  0  0  0  0  0  0  0  0
  188.4640  175.3260  137.0280 C   0  0  0  0  0  0  0  0  0  0  0  0
  189.1160  177.5970  136.0380 C   0  0  0  0  0  1  0  0  0  0  0  0
  187.4450  174.4310  137.1100 N   0  0  0  0  0  0  0  0  0  0  0  0
  185.1470  174.1280  136.3480 N   0  0  0  0  0  0  0  0  0  0  0  0
  183.4910  178.8510  140.5980 C   0  0  2  0  0  3  0  0  0  0  0  0
  185.1990  178.6790  138.7920 C   0  0  0  0  0  1  0  0  0  0  0  0
  183.8330  179.2200  139.1600 C   0  0  0  0  0  2  0  0  0  0  0  0
  184.7610  178.5060  141.3620 C   0  0  0  0  0  2  0  0  0  0  0  0
  184.9230  179.3870  142.5900 C   0  0  0  0  0  2  0  0  0  0  0  0
  185.2190  178.5480  143.8230 C   0  0  0  0  0  2  0  0  0  0  0  0
  186.2460  177.5620  143.5160 N   0  0  0  0  0  2  0  0  0  0  0  0
  191.2690  176.9240  146.3430 C   0  0  0  0  0  3  0  0  0  0  0  0
  189.2630  177.6250  145.7290 C   0  0  1  0  0  3  0  0  0  0  0  0
  191.5190  177.6900  145.3280 N   0  0  0  0  0  0  0  0  0  0  0  0
  189.8360  176.8360  146.6150 C   0  0  0  0  0  2  0  0  0  0  0  0
  188.7200  177.7310  143.0060 C   0  0  0  0  0  0  0  0  0  0  0  0
  190.2740  178.2720  144.8560 C   0  0  1  0  0  3  0  0  0  0  0  0
  189.9820  177.9490  143.4140 C   0  0  0  0  0  3  0  0  0  0  0  0
  187.8640  177.5370  145.3090 C   0  0  0  0  0  3  0  0  0  0  0  0
  188.4680  177.4940  141.5570 C   0  0  0  0  0  1  0  0  0  0  0  0
  187.5960  177.6410  143.9920 C   0  0  0  0  0  0  0  0  0  0  0  0
  179.8590  178.7740  138.3210 N   0  0  0  0  0  2  0  0  0  0  0  0
  180.8410  179.4750  137.6060 N   0  0  0  0  0  2  0  0  0  0  0  0
  180.1730  180.3800  136.7690 N   0  0  0  0  0  2  0  0  0  0  0  0
  180.8770  180.3840  135.5000 C   0  0  0  0  0  2  0  0  0  0  0  0
  180.2850  181.4470  134.5950 C   0  0  0  0  0  2  0  0  0  0  0  0
  179.8200  182.6500  135.4000 C   0  0  0  0  0  2  0  0  0  0  0  0
  180.5620  184.8980  135.0840 O   0  0  0  0  0  1  0  0  0  0  0  0
  180.9450  183.6570  135.5950 C   0  0  1  0  0  3  0  0  0  0  0  0
  181.2460  183.7900  137.0750 C   0  0  0  0  0  2  0  0  0  0  0  0
  182.1080  184.8670  137.2900 O   0  0  0  0  0  1  0  0  0  0  0  0
  1  6  2  0  0  0  0
  2  3  1  0  0  0  0
  3  4  2  0  0  0  0
  3  8  1  0  0  0  0
  4  1  1  0  0  0  0
  6  7  1  0  0  0  0
  7  9  1  0  0  0  0
  9 23  1  6  0  0  0
 10 40  1  6  0  0  0
 10 11  1  0  0  0  0
 11  9  1  0  0  0  0
 11  5  2  0  0  0  0
 12  8  1  6  0  0  0
 12  6  1  0  0  0  0
 12 10  1  0  0  0  0
 14 16  1  0  0  0  0
 14 18  1  0  0  0  0
 16 19  2  0  0  0  0
 17 22  1  0  0  0  0
 17  4  1  1  0  0  0
 17 13  1  0  0  0  0
 18 21  2  0  0  0  0
 19 21  1  0  0  0  0
 19 15  1  0  0  0  0
 20 16  1  0  0  0  0
 22 18  1  0  0  0  0
 22 13  1  0  0  0  0
 23 25  1  6  0  0  0
 23 26  1  0  0  0  0
 24 25  1  0  0  0  0
 26 27  1  0  0  0  0
 27 28  1  0  0  0  0
 29 28  1  0  0  0  0
 29 39  1  0  0  0  0
 30 33  1  0  0  0  0
 31 37  1  6  0  0  0
 31 33  1  0  0  0  0
 32 30  2  0  0  0  0
 34 36  2  0  0  0  0
 34 39  1  0  0  0  0
 35 36  1  6  0  0  0
 35 32  1  0  0  0  0
 35 31  1  0  0  0  0
 38 34  1  0  0  0  0
 39 37  2  0  0  0  0
 41 40  1  0  0  0  0
 42 41  1  0  0  0  0
 43 42  1  0  0  0  0
 44 45  1  0  0  0  0
 44 43  1  0  0  0  0
 45 47  1  0  0  0  0
 47 46  1  1  0  0  0
 47 48  1  0  0  0  0
 48 49  1  0  0  0  0
M  END
>  <MODEL>
5

>  <REMARK>
 VINA RESULT:      -7.1      5.022      8.843
  Name = 
  16 active torsions:
  status: ('A' for Active; 'I' for Inactive)
    1  A    between atoms: N_2  and  N_38
    2  A    between atoms: N_2  and  C_42
    3  A    between atoms: C_6  and  C_19
    4  A    between atoms: C_9  and  C_22
    5  A    between atoms: C_9  and  C_39
    6  A    between atoms: C_11  and  N_30
    7  A    between atoms: C_11  and  C_43
    8  A    between atoms: C_14  and  C_31
    9  A    between atoms: C_19  and  C_26
   10  A    between atoms: C_22  and  C_47
   11  A    between atoms: N_24  and  C_39
   12  A    between atoms: N_24  and  C_48
   13  A    between atoms: C_26  and  C_43
   14  A    between atoms: N_30  and  N_38
   15  A    between atoms: C_32  and  C_47
   16  A    between atoms: C_45  and  C_47
                            x       y       z     vdW  Elec       q    Type
                         _______ _______ _______ _____ _____    ______ ____

>  <TORSDO>
F 16

$$$$
=
 OpenBabel10222419203D

 49 54  0  0  1  0  0  0  0  0999 V2000
  188.7960  177.6420  138.0120 N   0  0  0  0  0  0  0  0  0  0  0  0
  190.6600  174.5660  137.3340 F   0  0  0  0  0  0  0  0  0  0  0  0
  190.1750  175.6720  137.9530 C   0  0  0  0  0  0  0  0  0  0  0  0
  189.3410  176.5060  137.3170 C   0  0  0  0  0  0  0  0  0  0  0  0
  189.7750  178.8800  143.1450 O   0  0  0  0  0  0  0  0  0  0  0  0
  188.9320  177.8150  139.2920 C   0  0  0  0  0  0  0  0  0  0  0  0
  188.3210  178.9440  139.9140 N   0  0  0  0  0  2  0  0  0  0  0  0
  190.6660  176.0110  139.3300 C   0  0  0  0  0  2  0  0  0  0  0  0
  188.2520  179.0800  141.3670 C   0  0  2  0  0  3  0  0  0  0  0  0
  190.2450  177.3460  141.4050 C   0  0  2  0  0  3  0  0  0  0  0  0
  189.4380  178.4530  142.0530 C   0  0  0  0  0  0  0  0  0  0  0  0
  189.6020  176.7610  140.1400 C   0  0  1  0  0  3  0  0  0  0  0  0
  188.0970  177.2240  135.4300 C   0  0  0  0  0  2  0  0  0  0  0  0
  186.3610  173.6080  136.7860 S   0  0  0  0  0  0  0  0  0  0  0  0
  182.8050  174.7520  135.9920 F   0  0  0  0  0  0  0  0  0  0  0  0
  184.6890  173.4320  136.7220 C   0  0  0  0  0  0  0  0  0  0  0  0
  188.9120  176.2170  135.9070 C   0  0  2  0  0  3  0  0  0  0  0  0
  186.3000  175.1390  136.0930 C   0  0  0  0  0  0  0  0  0  0  0  0
  184.1380  174.5790  136.1660 C   0  0  0  0  0  0  0  0  0  0  0  0
  183.9320  172.2480  137.2090 C   0  0  0  0  0  1  0  0  0  0  0  0
  185.0390  175.5350  135.8170 N   0  0  0  0  0  0  0  0  0  0  0  0
  187.4410  175.9560  135.8610 N   0  0  0  0  0  0  0  0  0  0  0  0
  186.9070  178.6120  141.9390 C   0  0  2  0  0  3  0  0  0  0  0  0
  186.1050  177.5430  144.0420 C   0  0  0  0  0  1  0  0  0  0  0  0
  187.0420  177.4050  142.8610 C   0  0  0  0  0  2  0  0  0  0  0  0
  185.9550  178.2890  140.7960 C   0  0  0  0  0  2  0  0  0  0  0  0
  184.6540  179.0640  140.9260 C   0  0  0  0  0  2  0  0  0  0  0  0
  183.9110  179.0990  139.6000 C   0  0  0  0  0  2  0  0  0  0  0  0
  182.4930  179.3390  139.8340 N   0  0  0  0  0  2  0  0  0  0  0  0
  179.6260  174.3380  140.4610 C   0  0  0  0  0  3  0  0  0  0  0  0
  180.4000  176.2440  139.6470 C   0  0  1  0  0  3  0  0  0  0  0  0
  178.9330  175.2350  141.0910 N   0  0  0  0  0  0  0  0  0  0  0  0
  180.5930  174.9440  139.5480 C   0  0  0  0  0  2  0  0  0  0  0  0
  180.8140  178.3290  141.4350 C   0  0  0  0  0  0  0  0  0  0  0  0
  179.3060  176.5510  140.6010 C   0  0  1  0  0  3  0  0  0  0  0  0
  179.8180  177.4610  141.6870 C   0  0  0  0  0  3  0  0  0  0  0  0
  181.3830  177.2670  139.2860 C   0  0  0  0  0  3  0  0  0  0  0  0
  181.2350  179.2640  142.5150 C   0  0  0  0  0  1  0  0  0  0  0  0
  181.5460  178.3050  140.1290 C   0  0  0  0  0  0  0  0  0  0  0  0
  190.4740  176.2710  142.3620 N   0  0  0  0  0  2  0  0  0  0  0  0
  191.6230  176.6040  143.0940 N   0  0  0  0  0  2  0  0  0  0  0  0
  191.4920  176.0090  144.3570 N   0  0  0  0  0  2  0  0  0  0  0  0
  191.5270  177.0800  145.3360 C   0  0  0  0  0  2  0  0  0  0  0  0
  190.5230  176.7930  146.4360 C   0  0  0  0  0  2  0  0  0  0  0  0
  189.1500  177.3350  146.0750 C   0  0  0  0  0  2  0  0  0  0  0  0
  189.0160  177.5200  148.4530 O   0  0  0  0  0  1  0  0  0  0  0  0
  188.2430  177.4090  147.2960 C   0  0  1  0  0  3  0  0  0  0  0  0
  187.3370  178.6190  147.1740 C   0  0  0  0  0  2  0  0  0  0  0  0
  186.0070  178.2380  147.3560 O   0  0  0  0  0  1  0  0  0  0  0  0
  1  6  2  0  0  0  0
  2  3  1  0  0  0  0
  3  8  1  0  0  0  0
  4  3  2  0  0  0  0
  4  1  1  0  0  0  0
  6  7  1  0  0  0  0
  6 12  1  0  0  0  0
  7  9  1  0  0  0  0
  9 23  1  1  0  0  0
  9 11  1  0  0  0  0
 10 11  1  0  0  0  0
 10 40  1  1  0  0  0
 11  5  2  0  0  0  0
 12  8  1  6  0  0  0
 12 10  1  0  0  0  0
 13 22  1  0  0  0  0
 13 17  1  0  0  0  0
 15 19  1  0  0  0  0
 16 14  1  0  0  0  0
 16 20  1  0  0  0  0
 17  4  1  1  0  0  0
 18 14  1  0  0  0  0
 19 16  2  0  0  0  0
 21 18  2  0  0  0  0
 21 19  1  0  0  0  0
 22 17  1  0  0  0  0
 22 18  1  0  0  0  0
 23 26  1  6  0  0  0
 23 25  1  0  0  0  0
 25 24  1  0  0  0  0
 26 27  1  0  0  0  0
 28 29  1  0  0  0  0
 28 27  1  0  0  0  0
 29 39  1  0  0  0  0
 30 32  2  0  0  0  0
 31 37  1  1  0  0  0
 31 35  1  0  0  0  0
 33 31  1  0  0  0  0
 33 30  1  0  0  0  0
 34 36  2  0  0  0  0
 34 38  1  0  0  0  0
 35 32  1  0  0  0  0
 35 36  1  1  0  0  0
 37 39  2  0  0  0  0
 39 34  1  0  0  0  0
 40 41  1  0  0  0  0
 41 42  1  0  0  0  0
 42 43  1  0  0  0  0
 43 44  1  0  0  0  0
 45 44  1  0  0  0  0
 45 47  1  0  0  0  0
 47 46  1  1  0  0  0
 48 47  1  0  0  0  0
 48 49  1  0  0  0  0
M  END
>  <MODEL>
6

>  <REMARK>
 VINA RESULT:      -7.1      3.584      7.338
  Name = 
  16 active torsions:
  status: ('A' for Active; 'I' for Inactive)
    1  A    between atoms: N_2  and  N_38
    2  A    between atoms: N_2  and  C_42
    3  A    between atoms: C_6  and  C_19
    4  A    between atoms: C_9  and  C_22
    5  A    between atoms: C_9  and  C_39
    6  A    between atoms: C_11  and  N_30
    7  A    between atoms: C_11  and  C_43
    8  A    between atoms: C_14  and  C_31
    9  A    between atoms: C_19  and  C_26
   10  A    between atoms: C_22  and  C_47
   11  A    between atoms: N_24  and  C_39
   12  A    between atoms: N_24  and  C_48
   13  A    between atoms: C_26  and  C_43
   14  A    between atoms: N_30  and  N_38
   15  A    between atoms: C_32  and  C_47
   16  A    between atoms: C_45  and  C_47
                            x       y       z     vdW  Elec       q    Type
                         _______ _______ _______ _____ _____    ______ ____

>  <TORSDO>
F 16

$$$$
=
 OpenBabel10222419203D

 49 54  0  0  1  0  0  0  0  0999 V2000
  185.2110  176.3000  137.2290 N   0  0  0  0  0  0  0  0  0  0  0  0
  184.4400  172.7370  136.9000 F   0  0  0  0  0  0  0  0  0  0  0  0
  185.0670  173.9360  136.8030 C   0  0  0  0  0  0  0  0  0  0  0  0
  184.5020  175.0480  137.2940 C   0  0  0  0  0  0  0  0  0  0  0  0
  190.1320  176.9570  135.1830 O   0  0  0  0  0  0  0  0  0  0  0  0
  186.4570  176.3840  136.8730 C   0  0  0  0  0  0  0  0  0  0  0  0
  187.1010  177.6570  136.8800 N   0  0  0  0  0  2  0  0  0  0  0  0
  186.3590  174.0250  136.0460 C   0  0  0  0  0  2  0  0  0  0  0  0
  188.5450  177.7910  136.7010 C   0  0  2  0  0  3  0  0  0  0  0  0
  188.4130  175.3880  135.6130 C   0  0  2  0  0  3  0  0  0  0  0  0
  189.1070  176.7210  135.8030 C   0  0  0  0  0  0  0  0  0  0  0  0
  187.2600  175.1370  136.5940 C   0  0  1  0  0  3  0  0  0  0  0  0
  182.1610  174.7510  137.0640 C   0  0  0  0  0  2  0  0  0  0  0  0
  182.7990  178.6760  138.5160 S   0  0  0  0  0  0  0  0  0  0  0  0
  179.9340  180.1460  136.4640 F   0  0  0  0  0  0  0  0  0  0  0  0
  181.8100  179.9210  137.9660 C   0  0  0  0  0  0  0  0  0  0  0  0
  183.1680  174.9810  137.9790 C   0  0  2  0  0  3  0  0  0  0  0  0
  181.9740  177.5220  137.6140 C   0  0  0  0  0  0  0  0  0  0  0  0
  180.8700  179.3920  137.0900 C   0  0  0  0  0  0  0  0  0  0  0  0
  181.9440  181.3540  138.3400 C   0  0  0  0  0  1  0  0  0  0  0  0
  180.9640  178.0510  136.8910 N   0  0  0  0  0  0  0  0  0  0  0  0
  182.3210  176.1430  137.5730 N   0  0  0  0  0  0  0  0  0  0  0  0
  189.2940  177.9140  138.0350 C   0  0  2  0  0  3  0  0  0  0  0  0
  191.4460  176.7840  138.5850 C   0  0  0  0  0  1  0  0  0  0  0  0
  189.9460  176.6070  138.4720 C   0  0  0  0  0  2  0  0  0  0  0  0
  188.3350  178.4010  139.1120 C   0  0  0  0  0  2  0  0  0  0  0  0
  188.7580  177.9130  140.4880 C   0  0  0  0  0  2  0  0  0  0  0  0
  187.7360  178.3120  141.5410 C   0  0  0  0  0  2  0  0  0  0  0  0
  187.6100  177.2540  142.5340 N   0  0  0  0  0  2  0  0  0  0  0  0
  188.3230  177.2620  148.2890 C   0  0  0  0  0  3  0  0  0  0  0  0
  187.8720  177.8810  146.2130 C   0  0  1  0  0  3  0  0  0  0  0  0
  189.4960  177.4690  147.7780 N   0  0  0  0  0  0  0  0  0  0  0  0
  187.2590  177.4900  147.3130 C   0  0  0  0  0  2  0  0  0  0  0  0
  189.4810  176.8580  144.1930 C   0  0  0  0  0  0  0  0  0  0  0  0
  189.3410  177.9440  146.4140 C   0  0  1  0  0  3  0  0  0  0  0  0
  190.0300  177.0650  145.4020 C   0  0  0  0  0  3  0  0  0  0  0  0
  187.3070  177.8020  144.8660 C   0  0  0  0  0  3  0  0  0  0  0  0
  190.2340  176.0480  143.1960 C   0  0  0  0  0  1  0  0  0  0  0  0
  188.1040  177.3550  143.8760 C   0  0  0  0  0  0  0  0  0  0  0  0
  189.3790  174.3020  135.7260 N   0  0  0  0  0  2  0  0  0  0  0  0
  189.6600  174.1370  137.0900 N   0  0  0  0  0  2  0  0  0  0  0  0
  190.8330  173.3750  137.1790 N   0  0  0  0  0  2  0  0  0  0  0  0
  191.7090  173.8190  136.1090 C   0  0  0  0  0  2  0  0  0  0  0  0
  193.1330  173.3920  136.4100 C   0  0  0  0  0  2  0  0  0  0  0  0
  194.1300  174.2390  135.6380 C   0  0  0  0  0  2  0  0  0  0  0  0
  195.2460  176.1980  136.4260 O   0  0  0  0  0  1  0  0  0  0  0  0
  195.2040  174.8090  136.5550 C   0  0  1  0  0  3  0  0  0  0  0  0
  194.8810  174.4430  137.9900 C   0  0  0  0  0  2  0  0  0  0  0  0
  194.6850  175.6020  138.7430 O   0  0  0  0  0  1  0  0  0  0  0  0
  1  4  1  0  0  0  0
  3  2  1  0  0  0  0
  3  4  2  0  0  0  0
  5 11  2  0  0  0  0
  6  7  1  0  0  0  0
  6  1  2  0  0  0  0
  8  3  1  0  0  0  0
  9  7  1  0  0  0  0
  9 23  1  1  0  0  0
 10 40  1  1  0  0  0
 10 11  1  0  0  0  0
 10 12  1  0  0  0  0
 11  9  1  0  0  0  0
 12  8  1  6  0  0  0
 12  6  1  0  0  0  0
 13 22  1  0  0  0  0
 13 17  1  0  0  0  0
 15 19  1  0  0  0  0
 16 20  1  0  0  0  0
 16 14  1  0  0  0  0
 17  4  1  6  0  0  0
 18 14  1  0  0  0  0
 19 16  2  0  0  0  0
 21 19  1  0  0  0  0
 21 18  2  0  0  0  0
 22 18  1  0  0  0  0
 22 17  1  0  0  0  0
 23 25  1  1  0  0  0
 23 26  1  0  0  0  0
 25 24  1  0  0  0  0
 26 27  1  0  0  0  0
 27 28  1  0  0  0  0
 28 29  1  0  0  0  0
 29 39  1  0  0  0  0
 31 37  1  6  0  0  0
 31 35  1  0  0  0  0
 31 33  1  0  0  0  0
 32 30  2  0  0  0  0
 33 30  1  0  0  0  0
 34 36  2  0  0  0  0
 35 36  1  6  0  0  0
 35 32  1  0  0  0  0
 38 34  1  0  0  0  0
 39 34  1  0  0  0  0
 39 37  2  0  0  0  0
 40 41  1  0  0  0  0
 41 42  1  0  0  0  0
 43 44  1  0  0  0  0
 43 42  1  0  0  0  0
 45 44  1  0  0  0  0
 45 47  1  0  0  0  0
 47 46  1  1  0  0  0
 47 48  1  0  0  0  0
 48 49  1  0  0  0  0
M  END
>  <MODEL>
7

>  <REMARK>
 VINA RESULT:      -7.1      1.790      2.481
  Name = 
  16 active torsions:
  status: ('A' for Active; 'I' for Inactive)
    1  A    between atoms: N_2  and  N_38
    2  A    between atoms: N_2  and  C_42
    3  A    between atoms: C_6  and  C_19
    4  A    between atoms: C_9  and  C_22
    5  A    between atoms: C_9  and  C_39
    6  A    between atoms: C_11  and  N_30
    7  A    between atoms: C_11  and  C_43
    8  A    between atoms: C_14  and  C_31
    9  A    between atoms: C_19  and  C_26
   10  A    between atoms: C_22  and  C_47
   11  A    between atoms: N_24  and  C_39
   12  A    between atoms: N_24  and  C_48
   13  A    between atoms: C_26  and  C_43
   14  A    between atoms: N_30  and  N_38
   15  A    between atoms: C_32  and  C_47
   16  A    between atoms: C_45  and  C_47
                            x       y       z     vdW  Elec       q    Type
                         _______ _______ _______ _____ _____    ______ ____

>  <TORSDO>
F 16

$$$$
=
 OpenBabel10222419203D

 49 54  0  0  1  0  0  0  0  0999 V2000
  188.8760  177.6880  138.0140 N   0  0  0  0  0  0  0  0  0  0  0  0
  190.6860  174.5670  137.3950 F   0  0  0  0  0  0  0  0  0  0  0  0
  190.2070  175.6830  138.0000 C   0  0  0  0  0  0  0  0  0  0  0  0
  189.4180  176.5400  137.3350 C   0  0  0  0  0  0  0  0  0  0  0  0
  189.6940  178.8870  143.1840 O   0  0  0  0  0  0  0  0  0  0  0  0
  188.9690  177.8540  139.2990 C   0  0  0  0  0  0  0  0  0  0  0  0
  188.3640  178.9960  139.9020 N   0  0  0  0  0  2  0  0  0  0  0  0
  190.6540  176.0070  139.3950 C   0  0  0  0  0  2  0  0  0  0  0  0
  188.2440  179.1310  141.3520 C   0  0  2  0  0  3  0  0  0  0  0  0
  190.1900  177.3460  141.4580 C   0  0  2  0  0  3  0  0  0  0  0  0
  189.3870  178.4710  142.0780 C   0  0  0  0  0  0  0  0  0  0  0  0
  189.5800  176.7810  140.1670 C   0  0  1  0  0  3  0  0  0  0  0  0
  188.2200  177.2690  135.4230 C   0  0  0  0  0  2  0  0  0  0  0  0
  186.4940  173.6110  136.6760 S   0  0  0  0  0  0  0  0  0  0  0  0
  182.9480  174.7210  135.7930 F   0  0  0  0  0  0  0  0  0  0  0  0
  184.8270  173.4150  136.5610 C   0  0  0  0  0  0  0  0  0  0  0  0
  189.0340  176.2650  135.9100 C   0  0  2  0  0  3  0  0  0  0  0  0
  186.4320  175.1520  136.0030 C   0  0  0  0  0  0  0  0  0  0  0  0
  184.2770  174.5630  136.0040 C   0  0  0  0  0  0  0  0  0  0  0  0
  184.0710  172.2150  137.0090 C   0  0  0  0  0  1  0  0  0  0  0  0
  185.1750  175.5350  135.6950 N   0  0  0  0  0  0  0  0  0  0  0  0
  187.5690  175.9870  135.8160 N   0  0  0  0  0  0  0  0  0  0  0  0
  186.8680  178.6950  141.8710 C   0  0  2  0  0  3  0  0  0  0  0  0
  186.1620  177.7990  144.0880 C   0  0  0  0  0  1  0  0  0  0  0  0
  186.9410  177.5060  142.8230 C   0  0  0  0  0  2  0  0  0  0  0  0
  185.9630  178.3620  140.6940 C   0  0  0  0  0  2  0  0  0  0  0  0
  184.5970  179.0120  140.8470 C   0  0  0  0  0  2  0  0  0  0  0  0
  183.5530  177.9870  141.2600 C   0  0  0  0  0  2  0  0  0  0  0  0
  182.5100  177.9060  140.2470 N   0  0  0  0  0  2  0  0  0  0  0  0
  179.6930  181.8290  137.0380 C   0  0  0  0  0  3  0  0  0  0  0  0
  181.2830  180.7040  138.0870 C   0  0  1  0  0  3  0  0  0  0  0  0
  179.5620  182.2070  138.2710 N   0  0  0  0  0  0  0  0  0  0  0  0
  180.7660  180.8480  136.8830 C   0  0  0  0  0  2  0  0  0  0  0  0
  180.6530  179.5980  140.5570 C   0  0  0  0  0  0  0  0  0  0  0  0
  180.5980  181.5780  139.0720 C   0  0  1  0  0  3  0  0  0  0  0  0
  180.0470  180.7430  140.1980 C   0  0  0  0  0  3  0  0  0  0  0  0
  182.0570  179.5450  138.5330 C   0  0  0  0  0  3  0  0  0  0  0  0
  180.1210  178.8450  141.7270 C   0  0  0  0  0  1  0  0  0  0  0  0
  181.7870  179.0410  139.7530 C   0  0  0  0  0  0  0  0  0  0  0  0
  190.3560  176.2630  142.4190 N   0  0  0  0  0  2  0  0  0  0  0  0
  191.6460  176.3790  142.9560 N   0  0  0  0  0  2  0  0  0  0  0  0
  191.6020  175.8390  144.2490 N   0  0  0  0  0  2  0  0  0  0  0  0
  191.6400  176.9560  145.1760 C   0  0  0  0  0  2  0  0  0  0  0  0
  190.2770  177.1260  145.8210 C   0  0  0  0  0  2  0  0  0  0  0  0
  190.3500  176.8830  147.3190 C   0  0  0  0  0  2  0  0  0  0  0  0
  189.4440  178.6100  148.6980 O   0  0  0  0  0  1  0  0  0  0  0  0
  189.1190  177.4280  148.0310 C   0  0  1  0  0  3  0  0  0  0  0  0
  188.0320  177.7050  147.0110 C   0  0  0  0  0  2  0  0  0  0  0  0
  186.9220  178.2690  147.6400 O   0  0  0  0  0  1  0  0  0  0  0  0
  1  6  2  0  0  0  0
  2  3  1  0  0  0  0
  3  8  1  0  0  0  0
  4  3  2  0  0  0  0
  4  1  1  0  0  0  0
  6  7  1  0  0  0  0
  6 12  1  0  0  0  0
  7  9  1  0  0  0  0
  9 23  1  1  0  0  0
  9 11  1  0  0  0  0
 10 11  1  0  0  0  0
 10 40  1  1  0  0  0
 11  5  2  0  0  0  0
 12  8  1  6  0  0  0
 12 10  1  0  0  0  0
 13 22  1  0  0  0  0
 13 17  1  0  0  0  0
 15 19  1  0  0  0  0
 16 14  1  0  0  0  0
 16 20  1  0  0  0  0
 17  4  1  1  0  0  0
 18 14  1  0  0  0  0
 19 16  2  0  0  0  0
 21 18  2  0  0  0  0
 21 19  1  0  0  0  0
 22 17  1  0  0  0  0
 22 18  1  0  0  0  0
 23 26  1  6  0  0  0
 23 25  1  0  0  0  0
 25 24  1  0  0  0  0
 26 27  1  0  0  0  0
 27 28  1  0  0  0  0
 29 28  1  0  0  0  0
 30 32  2  0  0  0  0
 31 33  1  6  0  0  0
 31 37  1  0  0  0  0
 31 35  1  0  0  0  0
 32 35  1  0  0  0  0
 33 30  1  0  0  0  0
 34 38  1  0  0  0  0
 35 36  1  1  0  0  0
 36 34  2  0  0  0  0
 37 39  2  0  0  0  0
 39 29  1  0  0  0  0
 39 34  1  0  0  0  0
 40 41  1  0  0  0  0
 41 42  1  0  0  0  0
 42 43  1  0  0  0  0
 43 44  1  0  0  0  0
 44 45  1  0  0  0  0
 45 47  1  0  0  0  0
 47 46  1  6  0  0  0
 48 49  1  0  0  0  0
 48 47  1  0  0  0  0
M  END
>  <MODEL>
8

>  <REMARK>
 VINA RESULT:      -7.0      3.604      7.625
  Name = 
  16 active torsions:
  status: ('A' for Active; 'I' for Inactive)
    1  A    between atoms: N_2  and  N_38
    2  A    between atoms: N_2  and  C_42
    3  A    between atoms: C_6  and  C_19
    4  A    between atoms: C_9  and  C_22
    5  A    between atoms: C_9  and  C_39
    6  A    between atoms: C_11  and  N_30
    7  A    between atoms: C_11  and  C_43
    8  A    between atoms: C_14  and  C_31
    9  A    between atoms: C_19  and  C_26
   10  A    between atoms: C_22  and  C_47
   11  A    between atoms: N_24  and  C_39
   12  A    between atoms: N_24  and  C_48
   13  A    between atoms: C_26  and  C_43
   14  A    between atoms: N_30  and  N_38
   15  A    between atoms: C_32  and  C_47
   16  A    between atoms: C_45  and  C_47
                            x       y       z     vdW  Elec       q    Type
                         _______ _______ _______ _____ _____    ______ ____

>  <TORSDO>
F 16

$$$$
=
 OpenBabel10222419203D

 49 54  0  0  1  0  0  0  0  0999 V2000
  185.8020  174.8610  137.0510 N   0  0  0  0  0  0  0  0  0  0  0  0
  186.4350  171.5010  135.7420 F   0  0  0  0  0  0  0  0  0  0  0  0
  186.5190  172.8370  135.9640 C   0  0  0  0  0  0  0  0  0  0  0  0
  185.6590  173.4530  136.7870 C   0  0  0  0  0  0  0  0  0  0  0  0
  189.6560  178.0020  135.0220 O   0  0  0  0  0  0  0  0  0  0  0  0
  186.8370  175.5450  136.6680 C   0  0  0  0  0  0  0  0  0  0  0  0
  186.9270  176.9270  137.0100 N   0  0  0  0  0  2  0  0  0  0  0  0
  187.5260  173.6420  135.1970 C   0  0  0  0  0  2  0  0  0  0  0  0
  188.1520  177.6960  136.8010 C   0  0  2  0  0  3  0  0  0  0  0  0
  188.7830  175.8030  135.0680 C   0  0  2  0  0  3  0  0  0  0  0  0
  188.9250  177.2150  135.6000 C   0  0  0  0  0  0  0  0  0  0  0  0
  188.0030  174.8600  135.9950 C   0  0  1  0  0  3  0  0  0  0  0  0
  183.7350  172.0810  136.5850 C   0  0  0  0  0  2  0  0  0  0  0  0
  182.5560  175.6250  138.5800 S   0  0  0  0  0  0  0  0  0  0  0  0
  179.1530  175.7350  136.8510 F   0  0  0  0  0  0  0  0  0  0  0  0
  181.0440  176.2830  138.2470 C   0  0  0  0  0  0  0  0  0  0  0  0
  184.5930  172.6660  137.4950 C   0  0  2  0  0  3  0  0  0  0  0  0
  182.3000  174.3260  137.5420 C   0  0  0  0  0  0  0  0  0  0  0  0
  180.3910  175.4670  137.3320 C   0  0  0  0  0  0  0  0  0  0  0  0
  180.5120  177.5460  138.8240 C   0  0  0  0  0  1  0  0  0  0  0  0
  181.0950  174.3740  136.9350 N   0  0  0  0  0  0  0  0  0  0  0  0
  183.2590  173.3060  137.2890 N   0  0  0  0  0  0  0  0  0  0  0  0
  189.0090  177.7950  138.0700 C   0  0  2  0  0  3  0  0  0  0  0  0
  191.2260  176.8350  138.6800 C   0  0  0  0  0  1  0  0  0  0  0  0
  189.7790  176.5140  138.3670 C   0  0  0  0  0  2  0  0  0  0  0  0
  188.1220  178.1540  139.2530 C   0  0  0  0  0  2  0  0  0  0  0  0
  188.7590  177.7330  140.5670 C   0  0  0  0  0  2  0  0  0  0  0  0
  188.0390  178.3680  141.7460 C   0  0  0  0  0  2  0  0  0  0  0  0
  187.5590  177.3330  142.6500 N   0  0  0  0  0  2  0  0  0  0  0  0
  188.8470  178.2470  148.2300 C   0  0  0  0  0  3  0  0  0  0  0  0
  188.5790  177.2970  146.2500 C   0  0  1  0  0  3  0  0  0  0  0  0
  187.5750  178.0010  148.1870 N   0  0  0  0  0  0  0  0  0  0  0  0
  189.5200  177.8350  147.0000 C   0  0  0  0  0  2  0  0  0  0  0  0
  186.3550  178.0430  144.7610 C   0  0  0  0  0  0  0  0  0  0  0  0
  187.2670  177.3140  146.9440 C   0  0  1  0  0  3  0  0  0  0  0  0
  186.2550  178.0450  146.1020 C   0  0  0  0  0  3  0  0  0  0  0  0
  188.6500  177.1460  144.7960 C   0  0  0  0  0  3  0  0  0  0  0  0
  185.2890  178.7110  143.9640 C   0  0  0  0  0  1  0  0  0  0  0  0
  187.5530  177.4580  144.0780 C   0  0  0  0  0  0  0  0  0  0  0  0
  190.0990  175.2330  134.8090 N   0  0  0  0  0  2  0  0  0  0  0  0
  190.5000  174.5670  135.9760 N   0  0  0  0  0  2  0  0  0  0  0  0
  191.8900  174.7180  136.0770 N   0  0  0  0  0  2  0  0  0  0  0  0
  192.3510  173.7520  137.0580 C   0  0  0  0  0  2  0  0  0  0  0  0
  193.7000  174.1860  137.6010 C   0  0  0  0  0  2  0  0  0  0  0  0
  194.8340  173.5480  136.8160 C   0  0  0  0  0  2  0  0  0  0  0  0
  195.2160  175.8730  136.4270 O   0  0  0  0  0  1  0  0  0  0  0  0
  195.7370  174.6000  136.1890 C   0  0  1  0  0  3  0  0  0  0  0  0
  197.1220  174.4990  136.7980 C   0  0  0  0  0  2  0  0  0  0  0  0
  197.7040  175.7650  136.8690 O   0  0  0  0  0  1  0  0  0  0  0  0
  2  3  1  0  0  0  0
  3  4  2  0  0  0  0
  4  1  1  0  0  0  0
  5 11  2  0  0  0  0
  6  7  1  0  0  0  0
  6  1  2  0  0  0  0
  8  3  1  0  0  0  0
  9  7  1  0  0  0  0
  9 23  1  1  0  0  0
 10 40  1  1  0  0  0
 10 11  1  0  0  0  0
 10 12  1  0  0  0  0
 11  9  1  0  0  0  0
 12  8  1  6  0  0  0
 12  6  1  0  0  0  0
 13 22  1  0  0  0  0
 13 17  1  0  0  0  0
 15 19  1  0  0  0  0
 16 14  1  0  0  0  0
 16 20  1  0  0  0  0
 17  4  1  6  0  0  0
 18 14  1  0  0  0  0
 19 16  2  0  0  0  0
 21 19  1  0  0  0  0
 21 18  2  0  0  0  0
 22 17  1  0  0  0  0
 22 18  1  0  0  0  0
 23 25  1  1  0  0  0
 23 26  1  0  0  0  0
 25 24  1  0  0  0  0
 26 27  1  0  0  0  0
 27 28  1  0  0  0  0
 28 29  1  0  0  0  0
 29 39  1  0  0  0  0
 31 37  1  6  0  0  0
 31 35  1  0  0  0  0
 31 33  1  0  0  0  0
 32 30  2  0  0  0  0
 33 30  1  0  0  0  0
 34 36  2  0  0  0  0
 35 36  1  6  0  0  0
 35 32  1  0  0  0  0
 38 34  1  0  0  0  0
 39 34  1  0  0  0  0
 39 37  2  0  0  0  0
 40 41  1  0  0  0  0
 41 42  1  0  0  0  0
 42 43  1  0  0  0  0
 43 44  1  0  0  0  0
 45 44  1  0  0  0  0
 47 46  1  1  0  0  0
 47 48  1  0  0  0  0
 47 45  1  0  0  0  0
 48 49  1  0  0  0  0
M  END
>  <MODEL>
9

>  <REMARK>
 VINA RESULT:      -7.0      2.089      2.474
  Name = 
  16 active torsions:
  status: ('A' for Active; 'I' for Inactive)
    1  A    between atoms: N_2  and  N_38
    2  A    between atoms: N_2  and  C_42
    3  A    between atoms: C_6  and  C_19
    4  A    between atoms: C_9  and  C_22
    5  A    between atoms: C_9  and  C_39
    6  A    between atoms: C_11  and  N_30
    7  A    between atoms: C_11  and  C_43
    8  A    between atoms: C_14  and  C_31
    9  A    between atoms: C_19  and  C_26
   10  A    between atoms: C_22  and  C_47
   11  A    between atoms: N_24  and  C_39
   12  A    between atoms: N_24  and  C_48
   13  A    between atoms: C_26  and  C_43
   14  A    between atoms: N_30  and  N_38
   15  A    between atoms: C_32  and  C_47
   16  A    between atoms: C_45  and  C_47
                            x       y       z     vdW  Elec       q    Type
                         _______ _______ _______ _____ _____    ______ ____

>  <TORSDO>
F 16

$$$$
