=
 OpenBabel10222420133D

 63 68  0  0  1  0  0  0  0  0999 V2000
  183.7170  180.5420  138.7150 C   0  0  0  0  0  1  0  0  0  0  0  0
  181.8630  175.5330  137.3210 O   0  0  0  0  0  0  0  0  0  0  0  0
  179.9590  174.2740  137.0970 O   0  0  0  0  0  1  0  0  0  0  0  0
  182.9000  174.5970  137.1860 C   0  0  1  0  0  3  0  0  0  0  0  0
  181.3030  179.0800  141.9930 O   0  0  0  0  0  1  0  0  0  0  0  0
  186.8050  174.8680  136.9440 C   0  0  0  0  0  2  0  0  0  0  0  0
  186.6810  176.1110  136.0870 C   0  0  1  0  0  3  0  0  0  0  0  0
  185.4450  174.2070  137.0740 C   0  0  2  0  0  3  0  0  0  0  0  0
  183.8080  172.8740  135.6130 N   0  0  0  0  0  0  0  0  0  0  0  0
  181.2450  178.5950  139.6810 C   0  0  0  0  0  2  0  0  0  0  0  0
  183.8450  177.6440  137.8170 C   0  0  0  0  0  2  0  0  0  0  0  0
  182.8470  173.9020  135.8620 C   0  0  0  0  0  0  0  0  0  0  0  0
  184.5240  176.6730  136.8140 C   0  0  2  0  0  0  0  0  0  0  0  0
  179.6200  176.9320  138.1430 O   0  0  0  0  0  0  0  0  0  0  0  0
  185.1630  173.2270  135.9460 C   0  0  0  0  0  0  0  0  0  0  0  0
  180.8350  174.8700  138.0090 C   0  0  2  0  0  3  0  0  0  0  0  0
  186.1250  172.6680  135.3490 O   0  0  0  0  0  0  0  0  0  0  0  0
  184.2400  179.4450  139.6450 C   0  0  2  0  0  3  0  0  0  0  0  0
  184.7810  178.2050  138.9090 C   0  0  1  0  0  3  0  0  0  0  0  0
  180.0820  175.8400  138.8900 C   0  0  0  0  0  2  0  0  0  0  0  0
  178.9310  177.7170  139.0750 C   0  0  0  0  0  2  0  0  0  0  0  0
  185.2470  177.1240  139.8730 C   0  0  0  0  0  1  0  0  0  0  0  0
  184.3090  175.2240  137.3720 C   0  0  1  0  0  3  0  0  0  0  0  0
  182.1500  174.3580  134.9190 O   0  0  0  0  0  0  0  0  0  0  0  0
  181.8840  179.4270  140.7800 C   0  0  2  0  0  3  0  0  0  0  0  0
  185.8930  177.0510  136.7720 O   0  0  0  0  0  0  0  0  0  0  0  0
  183.3750  179.1450  140.8900 C   0  0  0  0  0  2  0  0  0  0  0  0
  179.7540  178.9210  139.5480 C   0  0  2  0  0  3  0  0  0  0  0  0
  182.7670  169.9150  137.2740 C   0  0  0  0  0  2  0  0  0  0  0  0
  181.8760  171.1420  137.1750 C   0  0  2  0  0  3  0  0  0  0  0  0
  183.4710  171.7040  134.7690 C   0  0  1  0  0  3  0  0  0  0  0  0
  184.1300  170.3790  135.2030 C   0  0  0  0  0  2  0  0  0  0  0  0
  181.9530  171.5020  134.5940 C   0  0  0  0  0  3  0  0  0  0  0  0
  184.1520  170.1950  136.7130 C   0  0  0  0  0  2  0  0  0  0  0  0
  180.8900  171.1380  138.3240 C   0  0  0  0  0  1  0  0  0  0  0  0
  181.1240  171.1570  135.8460 C   0  0  0  0  0  3  0  0  0  0  0  0
  183.9270  176.8080  135.3840 C   0  0  0  0  0  2  0  0  0  0  0  0
  182.8770  177.9040  135.2030 C   0  0  0  0  0  1  0  0  0  0  0  0
  179.5230  180.1150  138.6710 C   0  0  0  0  0  3  0  0  0  0  0  0
  180.3290  180.3650  137.7020 N   0  0  0  0  0  0  0  0  0  0  0  0
  180.1100  181.7400  136.6990 S   0  0  0  0  0  0  0  0  0  0  0  0
  178.9410  182.5490  137.1940 O   0  0  0  0  0  0  0  0  0  0  0  0
  179.8470  181.2920  135.2900 O   0  0  0  0  0  0  0  0  0  0  0  0
  181.5390  182.7280  136.8020 N   0  0  0  0  0  2  0  0  0  0  0  0
  181.1790  184.1280  136.6170 C   0  0  0  0  0  2  0  0  0  0  0  0
  181.5990  184.9390  137.8340 C   0  0  0  0  0  2  0  0  0  0  0  0
  182.9740  184.8210  138.0290 O   0  0  0  0  0  1  0  0  0  0  0  0
  188.0690  176.6990  135.8960 C   0  0  0  0  0  2  0  0  0  0  0  0
  188.8770  176.4380  137.0090 O   0  0  0  0  0  0  0  0  0  0  0  0
  190.0190  177.2320  136.8480 C   0  0  2  0  0  3  0  0  0  0  0  0
  191.1410  176.3690  136.2980 C   0  0  0  0  0  1  0  0  0  0  0  0
  190.4240  177.8460  138.1840 C   0  0  0  0  0  2  0  0  0  0  0  0
  190.1350  176.9160  139.2720 N   0  0  0  0  0  2  0  0  0  0  0  0
  188.8270  177.0680  139.5860 O   0  0  0  0  0  0  0  0  0  0  0  0
  188.8320  177.7830  140.7900 C   0  0  0  0  0  2  0  0  0  0  0  0
  188.3610  176.8980  141.9370 C   0  0  0  0  0  2  0  0  0  0  0  0
  188.1040  176.7200  144.3220 O   0  0  0  0  0  0  0  0  0  0  0  0
  187.1160  177.7010  144.0920 C   0  0  0  0  0  2  0  0  0  0  0  0
  188.3570  177.6260  143.2800 C   0  0  2  0  0  0  0  0  0  0  0  0
  189.5090  178.5470  143.6530 C   0  0  0  0  0  2  0  0  0  0  0  0
  191.9480  178.5440  143.9120 C   0  0  0  0  0  2  0  0  0  0  0  0
  191.5770  177.5390  142.9980 O   0  0  0  0  0  0  0  0  0  0  0  0
  190.7220  177.7470  144.1010 C   0  0  2  0  0  3  0  0  0  0  0  0
  2 16  1  0  0  0  0
  4 12  1  6  0  0  0
  4  2  1  0  0  0  0
  4 23  1  0  0  0  0
  7 48  1  1  0  0  0
  7 26  1  0  0  0  0
  7  6  1  0  0  0  0
  8  6  1  6  0  0  0
  8 23  1  0  0  0  0
  9 12  1  0  0  0  0
  9 15  1  0  0  0  0
 10 25  1  0  0  0  0
 11 19  1  0  0  0  0
 13 37  1  6  0  0  0
 13 23  1  0  0  0  0
 13 11  1  0  0  0  0
 14 20  1  0  0  0  0
 14 21  1  0  0  0  0
 15  8  1  0  0  0  0
 16  3  1  6  0  0  0
 16 20  1  0  0  0  0
 17 15  2  0  0  0  0
 18  1  1  6  0  0  0
 18 27  1  0  0  0  0
 19 18  1  0  0  0  0
 19 22  1  1  0  0  0
 21 28  1  0  0  0  0
 24 12  2  0  0  0  0
 25 27  1  0  0  0  0
 25  5  1  0  0  0  0
 26 13  1  0  0  0  0
 28 10  1  0  0  0  0
 30 29  1  0  0  0  0
 30 35  1  0  0  0  0
 31 32  1  0  0  0  0
 31  9  1  0  0  0  0
 32 34  1  0  0  0  0
 33 31  1  0  0  0  0
 33 36  2  0  0  0  0
 34 29  1  0  0  0  0
 36 30  1  0  0  0  0
 38 37  1  0  0  0  0
 39 28  1  0  0  0  0
 40 39  2  0  0  0  0
 41 44  1  0  0  0  0
 41 42  2  0  0  0  0
 41 40  1  0  0  0  0
 43 41  2  0  0  0  0
 45 44  1  0  0  0  0
 45 46  1  0  0  0  0
 46 47  1  0  0  0  0
 48 49  1  0  0  0  0
 50 49  1  0  0  0  0
 50 52  1  0  0  0  0
 51 50  1  0  0  0  0
 52 53  1  0  0  0  0
 53 54  1  0  0  0  0
 54 55  1  0  0  0  0
 55 56  1  0  0  0  0
 56 59  1  0  0  0  0
 58 57  1  0  0  0  0
 59 60  1  0  0  0  0
 59 58  1  0  0  0  0
 59 57  1  0  0  0  0
 60 63  1  0  0  0  0
 61 63  1  0  0  0  0
 62 61  1  0  0  0  0
 62 63  1  0  0  0  0
M  END
>  <MODEL>
1

>  <REMARK>
 VINA RESULT:      -2.3      0.000      0.000
  Name = 
  18 active torsions:
  status: ('A' for Active; 'I' for Inactive)
    1  A    between atoms: C_3  and  C_20
    2  A    between atoms: S_4  and  N_14
    3  A    between atoms: S_4  and  N_55
    4  A    between atoms: C_12  and  C_48
    5  A    between atoms: N_14  and  C_20
    6  A    between atoms: N_15  and  C_22
    7  A    between atoms: C_17  and  C_44
    8  A    between atoms: C_17  and  N_61
    9  A    between atoms: C_23  and  C_59
   10  A    between atoms: C_24  and  C_27
   11  A    between atoms: O_35  and  C_44
   12  A    between atoms: O_35  and  C_48
   13  A    between atoms: O_39  and  C_56
   14  A    between atoms: O_39  and  N_61
   15  A    between atoms: C_49  and  C_56
   16  A    between atoms: C_49  and  C_58
   17  A    between atoms: C_58  and  C_62
   18  A    between atoms: C_62  and  C_63
                            x       y       z     vdW  Elec       q    Type
                         _______ _______ _______ _____ _____    ______ ____

>  <TORSDO>
F 18

$$$$
=
 OpenBabel10222420133D

 63 68  0  0  1  0  0  0  0  0999 V2000
  184.8770  180.2630  139.0360 C   0  0  0  0  0  1  0  0  0  0  0  0
  182.4490  175.5100  137.6280 O   0  0  0  0  0  0  0  0  0  0  0  0
  180.4420  174.4010  137.6240 O   0  0  0  0  0  1  0  0  0  0  0  0
  183.3780  174.5190  137.2710 C   0  0  1  0  0  3  0  0  0  0  0  0
  182.8820  178.7190  142.5500 O   0  0  0  0  0  1  0  0  0  0  0  0
  187.2100  174.5470  136.4370 C   0  0  0  0  0  2  0  0  0  0  0  0
  187.0540  175.8570  135.6930 C   0  0  1  0  0  3  0  0  0  0  0  0
  185.8390  173.9700  136.7350 C   0  0  2  0  0  3  0  0  0  0  0  0
  183.9000  172.8640  135.4660 N   0  0  0  0  0  0  0  0  0  0  0  0
  182.4370  178.4170  140.2490 C   0  0  0  0  0  2  0  0  0  0  0  0
  184.6420  177.4390  137.9420 C   0  0  0  0  0  2  0  0  0  0  0  0
  183.0710  173.9320  135.9290 C   0  0  0  0  0  0  0  0  0  0  0  0
  185.0830  176.5040  136.7840 C   0  0  2  0  0  0  0  0  0  0  0  0
  180.4730  176.9880  138.8800 O   0  0  0  0  0  0  0  0  0  0  0  0
  185.3130  173.1000  135.6040 C   0  0  0  0  0  0  0  0  0  0  0  0
  181.4890  174.8650  138.4230 C   0  0  2  0  0  3  0  0  0  0  0  0
  186.1270  172.5240  134.8290 O   0  0  0  0  0  0  0  0  0  0  0  0
  185.4480  179.0660  139.7980 C   0  0  2  0  0  3  0  0  0  0  0  0
  185.7740  177.8520  138.9080 C   0  0  1  0  0  3  0  0  0  0  0  0
  180.9560  175.8140  139.4730 C   0  0  0  0  0  2  0  0  0  0  0  0
  179.9960  177.7430  139.9580 C   0  0  0  0  0  2  0  0  0  0  0  0
  186.2950  176.6720  139.7150 C   0  0  0  0  0  1  0  0  0  0  0  0
  184.8440  175.0350  137.2740 C   0  0  1  0  0  3  0  0  0  0  0  0
  182.2760  174.5040  135.1390 O   0  0  0  0  0  0  0  0  0  0  0  0
  183.2980  179.1190  141.2860 C   0  0  2  0  0  3  0  0  0  0  0  0
  186.4550  176.7930  136.5530 O   0  0  0  0  0  0  0  0  0  0  0  0
  184.7620  178.7300  141.1420 C   0  0  0  0  0  2  0  0  0  0  0  0
  180.9720  178.8510  140.3730 C   0  0  2  0  0  3  0  0  0  0  0  0
  182.8440  169.8850  137.0810 C   0  0  0  0  0  2  0  0  0  0  0  0
  182.0580  171.1820  137.1840 C   0  0  2  0  0  3  0  0  0  0  0  0
  183.3490  171.7870  134.6110 C   0  0  1  0  0  3  0  0  0  0  0  0
  183.9440  170.3870  134.8680 C   0  0  0  0  0  2  0  0  0  0  0  0
  181.8100  171.7170  134.6440 C   0  0  0  0  0  3  0  0  0  0  0  0
  184.1570  170.0960  136.3450 C   0  0  0  0  0  2  0  0  0  0  0  0
  181.2430  171.1740  138.4600 C   0  0  0  0  0  1  0  0  0  0  0  0
  181.1340  171.3500  135.9800 C   0  0  0  0  0  3  0  0  0  0  0  0
  184.2890  176.7870  135.4780 C   0  0  0  0  0  2  0  0  0  0  0  0
  183.5380  178.1180  135.4320 C   0  0  0  0  0  1  0  0  0  0  0  0
  180.7040  180.1210  139.6230 C   0  0  0  0  0  3  0  0  0  0  0  0
  180.6530  180.1090  138.3380 N   0  0  0  0  0  0  0  0  0  0  0  0
  180.3790  181.5510  137.4490 S   0  0  0  0  0  0  0  0  0  0  0  0
  178.9320  181.6290  137.0400 O   0  0  0  0  0  0  0  0  0  0  0  0
  181.2460  181.5520  136.2240 O   0  0  0  0  0  0  0  0  0  0  0  0
  180.7270  182.9070  138.4830 N   0  0  0  0  0  2  0  0  0  0  0  0
  181.5350  183.8780  137.7560 C   0  0  0  0  0  2  0  0  0  0  0  0
  180.6700  185.0530  137.3210 C   0  0  0  0  0  2  0  0  0  0  0  0
  179.3280  184.7680  137.5650 O   0  0  0  0  0  1  0  0  0  0  0  0
  188.4390  176.3640  135.3250 C   0  0  0  0  0  2  0  0  0  0  0  0
  189.4090  175.8230  136.1760 O   0  0  0  0  0  0  0  0  0  0  0  0
  189.6770  176.8130  137.1300 C   0  0  2  0  0  3  0  0  0  0  0  0
  189.7490  178.1590  136.4310 C   0  0  0  0  0  1  0  0  0  0  0  0
  190.9900  176.5120  137.8440 C   0  0  0  0  0  2  0  0  0  0  0  0
  191.7760  175.5560  137.0680 N   0  0  0  0  0  2  0  0  0  0  0  0
  193.0220  176.0730  136.9480 O   0  0  0  0  0  0  0  0  0  0  0  0
  193.7690  175.0590  136.3370 C   0  0  0  0  0  2  0  0  0  0  0  0
  193.7990  173.8150  137.2160 C   0  0  0  0  0  2  0  0  0  0  0  0
  196.1510  173.9280  136.7240 O   0  0  0  0  0  0  0  0  0  0  0  0
  196.0330  172.5240  136.7940 C   0  0  0  0  0  2  0  0  0  0  0  0
  195.2140  173.4270  137.6410 C   0  0  2  0  0  0  0  0  0  0  0  0
  195.6820  173.6870  139.0640 C   0  0  0  0  0  2  0  0  0  0  0  0
  197.2320  175.0080  140.4330 C   0  0  0  0  0  2  0  0  0  0  0  0
  196.0670  175.7610  140.1910 O   0  0  0  0  0  0  0  0  0  0  0  0
  196.5310  174.9470  139.1370 C   0  0  2  0  0  3  0  0  0  0  0  0
  2 16  1  0  0  0  0
  4 12  1  6  0  0  0
  4 23  1  0  0  0  0
  4  2  1  0  0  0  0
  7 48  1  1  0  0  0
  7  6  1  0  0  0  0
  7 26  1  0  0  0  0
  8  6  1  6  0  0  0
  8 23  1  0  0  0  0
  9 15  1  0  0  0  0
  9 12  1  0  0  0  0
 10 28  1  0  0  0  0
 10 25  1  0  0  0  0
 11 19  1  0  0  0  0
 13 37  1  6  0  0  0
 13 23  1  0  0  0  0
 13 11  1  0  0  0  0
 14 20  1  0  0  0  0
 14 21  1  0  0  0  0
 15  8  1  0  0  0  0
 16  3  1  6  0  0  0
 16 20  1  0  0  0  0
 17 15  2  0  0  0  0
 18  1  1  6  0  0  0
 18 27  1  0  0  0  0
 19 22  1  1  0  0  0
 19 18  1  0  0  0  0
 21 28  1  0  0  0  0
 24 12  2  0  0  0  0
 25  5  1  0  0  0  0
 26 13  1  0  0  0  0
 27 25  1  0  0  0  0
 29 30  1  0  0  0  0
 30 35  1  0  0  0  0
 31 33  1  0  0  0  0
 31 32  1  0  0  0  0
 31  9  1  0  0  0  0
 32 34  1  0  0  0  0
 33 36  2  0  0  0  0
 34 29  1  0  0  0  0
 36 30  1  0  0  0  0
 38 37  1  0  0  0  0
 39 28  1  0  0  0  0
 40 39  2  0  0  0  0
 41 40  1  0  0  0  0
 41 44  1  0  0  0  0
 42 41  2  0  0  0  0
 43 41  2  0  0  0  0
 45 44  1  0  0  0  0
 46 47  1  0  0  0  0
 46 45  1  0  0  0  0
 48 49  1  0  0  0  0
 49 50  1  0  0  0  0
 50 52  1  0  0  0  0
 51 50  1  0  0  0  0
 53 52  1  0  0  0  0
 54 53  1  0  0  0  0
 55 54  1  0  0  0  0
 55 56  1  0  0  0  0
 56 59  1  0  0  0  0
 57 58  1  0  0  0  0
 57 59  1  0  0  0  0
 58 59  1  0  0  0  0
 59 60  1  0  0  0  0
 60 63  1  0  0  0  0
 62 61  1  0  0  0  0
 63 62  1  0  0  0  0
 63 61  1  0  0  0  0
M  END
>  <MODEL>
2

>  <REMARK>
 VINA RESULT:       0.2      2.459      3.633
  Name = 
  18 active torsions:
  status: ('A' for Active; 'I' for Inactive)
    1  A    between atoms: C_3  and  C_20
    2  A    between atoms: S_4  and  N_14
    3  A    between atoms: S_4  and  N_55
    4  A    between atoms: C_12  and  C_48
    5  A    between atoms: N_14  and  C_20
    6  A    between atoms: N_15  and  C_22
    7  A    between atoms: C_17  and  C_44
    8  A    between atoms: C_17  and  N_61
    9  A    between atoms: C_23  and  C_59
   10  A    between atoms: C_24  and  C_27
   11  A    between atoms: O_35  and  C_44
   12  A    between atoms: O_35  and  C_48
   13  A    between atoms: O_39  and  C_56
   14  A    between atoms: O_39  and  N_61
   15  A    between atoms: C_49  and  C_56
   16  A    between atoms: C_49  and  C_58
   17  A    between atoms: C_58  and  C_62
   18  A    between atoms: C_62  and  C_63
                            x       y       z     vdW  Elec       q    Type
                         _______ _______ _______ _____ _____    ______ ____

>  <TORSDO>
F 18

$$$$
