=
 OpenBabel10222416113D

 26 29  0  0  1  0  0  0  0  0999 V2000
  185.5420  178.0200  144.1470 N   0  0  0  0  0  0  0  0  0  0  0  0
  185.8770  178.5830  146.5260 C   0  0  0  0  0  3  0  0  0  0  0  0
  183.4530  178.9840  144.0100 C   0  0  0  0  0  0  0  0  0  0  0  0
  186.8590  177.4960  143.7700 C   0  0  0  0  0  2  0  0  0  0  0  0
  189.5320  177.2270  141.6080 C   0  0  0  0  0  3  0  0  0  0  0  0
  183.8720  179.1950  145.3530 N   0  0  0  0  0  2  0  0  0  0  0  0
  182.3320  179.3650  143.5820 O   0  0  0  0  0  0  0  0  0  0  0  0
  187.1880  177.9940  142.4040 C   0  0  0  0  0  0  0  0  0  0  0  0
  188.2920  177.8250  141.6070 C   0  0  0  0  0  0  0  0  0  0  0  0
  191.0540  177.2100  139.8080 O   0  0  0  0  0  0  0  0  0  0  0  0
  189.0220  178.2640  139.5890 N   0  0  0  0  0  2  0  0  0  0  0  0
  186.8690  178.9220  140.3990 O   0  0  0  0  0  0  0  0  0  0  0  0
  184.4570  178.2500  143.1850 C   0  0  1  0  0  3  0  0  0  0  0  0
  189.9450  177.5510  140.2930 C   0  0  0  0  0  0  0  0  0  0  0  0
  188.0510  178.3950  140.4610 N   0  0  0  0  0  0  0  0  0  0  0  0
  186.3010  178.6940  141.5760 C   0  0  0  0  0  0  0  0  0  0  0  0
  185.1560  178.5930  145.4020 C   0  0  0  0  0  0  0  0  0  0  0  0
  184.9390  179.1280  142.0140 C   0  0  0  0  0  2  0  0  0  0  0  0
  187.2220  177.9550  146.6550 C   0  0  0  0  0  2  0  0  0  0  0  0
  187.7400  178.1520  148.0650 C   0  0  0  0  0  2  0  0  0  0  0  0
  189.9410  178.4060  148.9320 O   0  0  0  0  0  0  0  0  0  0  0  0
  189.1840  177.8030  148.1240 C   0  0  0  0  0  0  0  0  0  0  0  0
  189.7070  176.8110  147.2390 N   0  0  0  0  0  2  0  0  0  0  0  0
  191.1070  176.4140  147.2470 C   0  0  0  0  0  2  0  0  0  0  0  0
  191.8160  177.1690  146.3120 O   0  0  0  0  0  0  0  0  0  0  0  0
  191.4080  176.6660  145.0770 C   0  0  0  0  0  1  0  0  0  0  0  0
  1 17  1  0  0  0  0
  2 19  1  0  0  0  0
  3  6  1  0  0  0  0
  4  1  1  0  0  0  0
  6 17  1  0  0  0  0
  7  3  2  0  0  0  0
  8  4  1  0  0  0  0
  9  5  2  0  0  0  0
  9  8  1  0  0  0  0
 10 14  2  0  0  0  0
 11 14  1  0  0  0  0
 11 15  1  0  0  0  0
 12 15  1  0  0  0  0
 12 16  1  0  0  0  0
 13 18  1  6  0  0  0
 13  3  1  0  0  0  0
 13  1  1  0  0  0  0
 14  5  1  0  0  0  0
 15  9  1  0  0  0  0
 16 18  1  0  0  0  0
 16  8  2  0  0  0  0
 17  2  2  0  0  0  0
 19 20  1  0  0  0  0
 20 22  1  0  0  0  0
 22 21  2  0  0  0  0
 23 24  1  0  0  0  0
 23 22  1  0  0  0  0
 25 24  1  0  0  0  0
 26 25  1  0  0  0  0
M  END
>  <MODEL>
1

>  <REMARK>
 VINA RESULT:      -9.3      0.000      0.000
  Name = 
  5 active torsions:
  status: ('A' for Active; 'I' for Inactive)
    1  A    between atoms: C_2  and  C_20
    2  A    between atoms: O_4  and  C_9
    3  A    between atoms: C_7  and  C_10
    4  A    between atoms: C_7  and  C_20
    5  A    between atoms: C_9  and  N_21
                            x       y       z     vdW  Elec       q    Type
                         _______ _______ _______ _____ _____    ______ ____

>  <TORSDO>
F 5

$$$$
=
 OpenBabel10222416113D

 26 29  0  0  1  0  0  0  0  0999 V2000
  189.7050  176.9780  145.2250 N   0  0  0  0  0  0  0  0  0  0  0  0
  191.3950  177.5480  143.5200 C   0  0  0  0  0  3  0  0  0  0  0  0
  191.2120  176.8670  146.9650 C   0  0  0  0  0  0  0  0  0  0  0  0
  188.4530  177.1380  144.4780 C   0  0  0  0  0  2  0  0  0  0  0  0
  185.1900  178.2150  144.1850 C   0  0  0  0  0  3  0  0  0  0  0  0
  191.9890  177.2010  145.8210 N   0  0  0  0  0  2  0  0  0  0  0  0
  191.7200  176.6990  148.1050 O   0  0  0  0  0  0  0  0  0  0  0  0
  187.4500  177.7790  145.3760 C   0  0  0  0  0  0  0  0  0  0  0  0
  186.1510  178.1690  145.1700 C   0  0  0  0  0  0  0  0  0  0  0  0
  182.9730  178.9690  144.4580 O   0  0  0  0  0  0  0  0  0  0  0  0
  184.4180  178.9670  146.2470 N   0  0  0  0  0  2  0  0  0  0  0  0
  186.5350  178.5220  147.2710 O   0  0  0  0  0  0  0  0  0  0  0  0
  189.7570  176.7120  146.6680 C   0  0  1  0  0  3  0  0  0  0  0  0
  184.1130  178.7390  144.9390 C   0  0  0  0  0  0  0  0  0  0  0  0
  185.6770  178.6020  146.3030 N   0  0  0  0  0  0  0  0  0  0  0  0
  187.6420  178.0160  146.7430 C   0  0  0  0  0  0  0  0  0  0  0  0
  191.0340  177.2620  144.7740 C   0  0  0  0  0  0  0  0  0  0  0  0
  188.9330  177.7530  147.4490 C   0  0  0  0  0  2  0  0  0  0  0  0
  190.4510  177.6120  142.3690 C   0  0  0  0  0  2  0  0  0  0  0  0
  191.2060  177.3630  141.0800 C   0  0  0  0  0  2  0  0  0  0  0  0
  190.4400  176.0000  139.2880 O   0  0  0  0  0  0  0  0  0  0  0  0
  190.2500  177.0270  139.9920 C   0  0  0  0  0  0  0  0  0  0  0  0
  189.1420  177.8920  139.7350 N   0  0  0  0  0  2  0  0  0  0  0  0
  188.1630  177.6200  138.6930 C   0  0  0  0  0  2  0  0  0  0  0  0
  187.8780  178.7950  137.9970 O   0  0  0  0  0  0  0  0  0  0  0  0
  188.9810  178.9840  137.1660 C   0  0  0  0  0  1  0  0  0  0  0  0
  1 13  1  0  0  0  0
  2 17  2  0  0  0  0
  3  7  2  0  0  0  0
  4  1  1  0  0  0  0
  4  8  1  0  0  0  0
  5 14  1  0  0  0  0
  5  9  2  0  0  0  0
  6  3  1  0  0  0  0
  8 16  2  0  0  0  0
  9  8  1  0  0  0  0
  9 15  1  0  0  0  0
 10 14  2  0  0  0  0
 11 15  1  0  0  0  0
 13  3  1  0  0  0  0
 13 18  1  1  0  0  0
 14 11  1  0  0  0  0
 15 12  1  0  0  0  0
 16 12  1  0  0  0  0
 16 18  1  0  0  0  0
 17  1  1  0  0  0  0
 17  6  1  0  0  0  0
 19  2  1  0  0  0  0
 20 19  1  0  0  0  0
 21 22  2  0  0  0  0
 22 20  1  0  0  0  0
 23 22  1  0  0  0  0
 24 23  1  0  0  0  0
 25 24  1  0  0  0  0
 26 25  1  0  0  0  0
M  END
>  <MODEL>
2

>  <REMARK>
 VINA RESULT:      -9.2      1.799      7.314
  Name = 
  5 active torsions:
  status: ('A' for Active; 'I' for Inactive)
    1  A    between atoms: C_2  and  C_20
    2  A    between atoms: O_4  and  C_9
    3  A    between atoms: C_7  and  C_10
    4  A    between atoms: C_7  and  C_20
    5  A    between atoms: C_9  and  N_21
                            x       y       z     vdW  Elec       q    Type
                         _______ _______ _______ _____ _____    ______ ____

>  <TORSDO>
F 5

$$$$
=
 OpenBabel10222416113D

 26 29  0  0  1  0  0  0  0  0999 V2000
  187.7200  177.4820  145.6360 N   0  0  0  0  0  0  0  0  0  0  0  0
  190.0440  177.8310  144.8830 C   0  0  0  0  0  3  0  0  0  0  0  0
  188.1860  177.8090  147.8690 C   0  0  0  0  0  0  0  0  0  0  0  0
  186.9950  177.4110  144.3630 C   0  0  0  0  0  2  0  0  0  0  0  0
  184.3250  178.1870  142.3230 C   0  0  0  0  0  3  0  0  0  0  0  0
  189.4320  177.9710  147.2020 N   0  0  0  0  0  2  0  0  0  0  0  0
  188.0700  177.8970  149.1200 O   0  0  0  0  0  0  0  0  0  0  0  0
  185.7050  178.1420  144.5160 C   0  0  0  0  0  0  0  0  0  0  0  0
  184.6840  178.3960  143.6350 C   0  0  0  0  0  0  0  0  0  0  0  0
  182.2820  178.8250  141.3350 O   0  0  0  0  0  0  0  0  0  0  0  0
  182.6740  179.2640  143.5580 N   0  0  0  0  0  2  0  0  0  0  0  0
  184.0090  179.1680  145.5410 O   0  0  0  0  0  0  0  0  0  0  0  0
  187.0550  177.5010  146.9440 C   0  0  1  0  0  3  0  0  0  0  0  0
  183.0360  178.7710  142.3410 C   0  0  0  0  0  0  0  0  0  0  0  0
  183.7340  179.0040  144.2860 N   0  0  0  0  0  0  0  0  0  0  0  0
  185.2150  178.6480  145.7260 C   0  0  0  0  0  0  0  0  0  0  0  0
  189.1090  177.7650  145.8350 C   0  0  0  0  0  0  0  0  0  0  0  0
  185.9910  178.6130  147.0040 C   0  0  0  0  0  2  0  0  0  0  0  0
  189.7810  177.6090  143.4340 C   0  0  0  0  0  2  0  0  0  0  0  0
  191.0180  177.0290  142.7780 C   0  0  0  0  0  2  0  0  0  0  0  0
  192.1280  177.5600  140.7420 O   0  0  0  0  0  0  0  0  0  0  0  0
  191.0300  177.3740  141.3320 C   0  0  0  0  0  0  0  0  0  0  0  0
  189.7930  177.5230  140.6320 N   0  0  0  0  0  2  0  0  0  0  0  0
  189.7300  177.8520  139.2160 C   0  0  0  0  0  2  0  0  0  0  0  0
  188.7180  178.7860  138.9930 O   0  0  0  0  0  0  0  0  0  0  0  0
  187.6350  178.3090  139.7290 C   0  0  0  0  0  1  0  0  0  0  0  0
  1 17  1  0  0  0  0
  1 13  1  0  0  0  0
  2 17  2  0  0  0  0
  3  7  2  0  0  0  0
  4  8  1  0  0  0  0
  4  1  1  0  0  0  0
  5 14  1  0  0  0  0
  5  9  2  0  0  0  0
  6  3  1  0  0  0  0
  8 16  2  0  0  0  0
  9 15  1  0  0  0  0
  9  8  1  0  0  0  0
 10 14  2  0  0  0  0
 11 15  1  0  0  0  0
 12 16  1  0  0  0  0
 13 18  1  6  0  0  0
 13  3  1  0  0  0  0
 14 11  1  0  0  0  0
 15 12  1  0  0  0  0
 16 18  1  0  0  0  0
 17  6  1  0  0  0  0
 19  2  1  0  0  0  0
 20 19  1  0  0  0  0
 21 22  2  0  0  0  0
 22 20  1  0  0  0  0
 23 22  1  0  0  0  0
 24 23  1  0  0  0  0
 25 24  1  0  0  0  0
 25 26  1  0  0  0  0
M  END
>  <MODEL>
3

>  <REMARK>
 VINA RESULT:      -9.0      1.819      6.101
  Name = 
  5 active torsions:
  status: ('A' for Active; 'I' for Inactive)
    1  A    between atoms: C_2  and  C_20
    2  A    between atoms: O_4  and  C_9
    3  A    between atoms: C_7  and  C_10
    4  A    between atoms: C_7  and  C_20
    5  A    between atoms: C_9  and  N_21
                            x       y       z     vdW  Elec       q    Type
                         _______ _______ _______ _____ _____    ______ ____

>  <TORSDO>
F 5

$$$$
=
 OpenBabel10222416113D

 26 29  0  0  1  0  0  0  0  0999 V2000
  190.1250  177.5440  145.6410 N   0  0  0  0  0  0  0  0  0  0  0  0
  188.4890  177.4610  147.4860 C   0  0  0  0  0  3  0  0  0  0  0  0
  191.6710  176.1940  146.6880 C   0  0  0  0  0  0  0  0  0  0  0  0
  189.3680  178.2370  144.5930 C   0  0  0  0  0  2  0  0  0  0  0  0
  188.3480  178.6400  141.3230 C   0  0  0  0  0  3  0  0  0  0  0  0
  190.5850  176.2930  147.6020 N   0  0  0  0  0  2  0  0  0  0  0  0
  192.7170  175.5410  146.9460 O   0  0  0  0  0  0  0  0  0  0  0  0
  189.6740  177.5880  143.2860 C   0  0  0  0  0  0  0  0  0  0  0  0
  189.2180  177.8270  142.0140 C   0  0  0  0  0  0  0  0  0  0  0  0
  188.0260  178.6440  138.9880 O   0  0  0  0  0  0  0  0  0  0  0  0
  189.5440  177.2030  139.9400 N   0  0  0  0  0  2  0  0  0  0  0  0
  190.7330  176.2950  141.8080 O   0  0  0  0  0  0  0  0  0  0  0  0
  191.4530  176.9550  145.4230 C   0  0  1  0  0  3  0  0  0  0  0  0
  188.6030  178.1850  140.0080 C   0  0  0  0  0  0  0  0  0  0  0  0
  189.8620  177.0380  141.2020 N   0  0  0  0  0  0  0  0  0  0  0  0
  190.6520  176.6050  143.0950 C   0  0  0  0  0  0  0  0  0  0  0  0
  189.6550  177.1270  146.9280 C   0  0  0  0  0  0  0  0  0  0  0  0
  191.4390  176.0010  144.2140 C   0  0  0  0  0  2  0  0  0  0  0  0
  187.4750  178.3440  146.8450 C   0  0  0  0  0  2  0  0  0  0  0  0
  186.4000  177.4950  146.1970 C   0  0  0  0  0  2  0  0  0  0  0  0
  184.5490  178.9840  146.0780 O   0  0  0  0  0  0  0  0  0  0  0  0
  185.4510  178.3650  145.4530 C   0  0  0  0  0  0  0  0  0  0  0  0
  185.5520  178.4630  144.0310 N   0  0  0  0  0  2  0  0  0  0  0  0
  184.6620  179.3010  143.2400 C   0  0  0  0  0  2  0  0  0  0  0  0
  185.2870  179.6540  142.0440 O   0  0  0  0  0  0  0  0  0  0  0  0
  184.6300  178.9020  141.0720 C   0  0  0  0  0  1  0  0  0  0  0  0
  1 17  1  0  0  0  0
  3  7  2  0  0  0  0
  3  6  1  0  0  0  0
  4  1  1  0  0  0  0
  5  9  2  0  0  0  0
  8  4  1  0  0  0  0
  9  8  1  0  0  0  0
 10 14  2  0  0  0  0
 11 14  1  0  0  0  0
 11 15  1  0  0  0  0
 12 16  1  0  0  0  0
 13 18  1  6  0  0  0
 13  1  1  0  0  0  0
 13  3  1  0  0  0  0
 14  5  1  0  0  0  0
 15 12  1  0  0  0  0
 15  9  1  0  0  0  0
 16  8  2  0  0  0  0
 16 18  1  0  0  0  0
 17  2  2  0  0  0  0
 17  6  1  0  0  0  0
 19  2  1  0  0  0  0
 20 19  1  0  0  0  0
 22 21  2  0  0  0  0
 22 20  1  0  0  0  0
 23 22  1  0  0  0  0
 24 23  1  0  0  0  0
 25 24  1  0  0  0  0
 26 25  1  0  0  0  0
M  END
>  <MODEL>
4

>  <REMARK>
 VINA RESULT:      -9.0      1.752      5.649
  Name = 
  5 active torsions:
  status: ('A' for Active; 'I' for Inactive)
    1  A    between atoms: C_2  and  C_20
    2  A    between atoms: O_4  and  C_9
    3  A    between atoms: C_7  and  C_10
    4  A    between atoms: C_7  and  C_20
    5  A    between atoms: C_9  and  N_21
                            x       y       z     vdW  Elec       q    Type
                         _______ _______ _______ _____ _____    ______ ____

>  <TORSDO>
F 5

$$$$
=
 OpenBabel10222416113D

 26 29  0  0  1  0  0  0  0  0999 V2000
  189.4650  177.0200  144.9040 N   0  0  0  0  0  0  0  0  0  0  0  0
  191.1840  177.6000  143.2330 C   0  0  0  0  0  3  0  0  0  0  0  0
  190.9400  176.9090  146.6720 C   0  0  0  0  0  0  0  0  0  0  0  0
  188.2260  177.1800  144.1350 C   0  0  0  0  0  2  0  0  0  0  0  0
  184.9670  178.2500  143.7850 C   0  0  0  0  0  3  0  0  0  0  0  0
  191.7370  177.2480  145.5440 N   0  0  0  0  0  2  0  0  0  0  0  0
  191.4280  176.7400  147.8210 O   0  0  0  0  0  0  0  0  0  0  0  0
  187.2060  177.8160  145.0160 C   0  0  0  0  0  0  0  0  0  0  0  0
  185.9100  178.2040  144.7870 C   0  0  0  0  0  0  0  0  0  0  0  0
  182.7430  178.9970  144.0190 O   0  0  0  0  0  0  0  0  0  0  0  0
  184.1550  178.9940  145.8340 N   0  0  0  0  0  2  0  0  0  0  0  0
  186.2540  178.5520  146.8950 O   0  0  0  0  0  0  0  0  0  0  0  0
  189.4910  176.7510  146.3480 C   0  0  1  0  0  3  0  0  0  0  0  0
  183.8750  178.7690  144.5200 C   0  0  0  0  0  0  0  0  0  0  0  0
  185.4140  178.6320  145.9130 N   0  0  0  0  0  0  0  0  0  0  0  0
  187.3710  178.0500  146.3870 C   0  0  0  0  0  0  0  0  0  0  0  0
  190.8020  177.3100  144.4790 C   0  0  0  0  0  0  0  0  0  0  0  0
  188.6510  177.7880  147.1160 C   0  0  0  0  0  2  0  0  0  0  0  0
  190.2620  177.6640  142.0650 C   0  0  0  0  0  2  0  0  0  0  0  0
  191.0400  177.4110  140.7900 C   0  0  0  0  0  2  0  0  0  0  0  0
  188.9110  177.1340  139.7660 O   0  0  0  0  0  0  0  0  0  0  0  0
  190.1380  176.8440  139.7530 C   0  0  0  0  0  0  0  0  0  0  0  0
  190.6650  175.9500  138.7720 N   0  0  0  0  0  2  0  0  0  0  0  0
  189.8420  175.3640  137.7240 C   0  0  0  0  0  2  0  0  0  0  0  0
  190.2420  174.0480  137.4910 O   0  0  0  0  0  0  0  0  0  0  0  0
  189.1540  173.4630  136.8440 C   0  0  0  0  0  1  0  0  0  0  0  0
  1 13  1  0  0  0  0
  2 17  2  0  0  0  0
  3  7  2  0  0  0  0
  4  1  1  0  0  0  0
  4  8  1  0  0  0  0
  5 14  1  0  0  0  0
  5  9  2  0  0  0  0
  6  3  1  0  0  0  0
  8 16  2  0  0  0  0
  9  8  1  0  0  0  0
  9 15  1  0  0  0  0
 10 14  2  0  0  0  0
 11 15  1  0  0  0  0
 13  3  1  0  0  0  0
 13 18  1  1  0  0  0
 14 11  1  0  0  0  0
 15 12  1  0  0  0  0
 16 12  1  0  0  0  0
 16 18  1  0  0  0  0
 17  1  1  0  0  0  0
 17  6  1  0  0  0  0
 19  2  1  0  0  0  0
 20 19  1  0  0  0  0
 22 21  2  0  0  0  0
 22 20  1  0  0  0  0
 23 22  1  0  0  0  0
 24 23  1  0  0  0  0
 25 24  1  0  0  0  0
 26 25  1  0  0  0  0
M  END
>  <MODEL>
5

>  <REMARK>
 VINA RESULT:      -8.7      2.212      7.258
  Name = 
  5 active torsions:
  status: ('A' for Active; 'I' for Inactive)
    1  A    between atoms: C_2  and  C_20
    2  A    between atoms: O_4  and  C_9
    3  A    between atoms: C_7  and  C_10
    4  A    between atoms: C_7  and  C_20
    5  A    between atoms: C_9  and  N_21
                            x       y       z     vdW  Elec       q    Type
                         _______ _______ _______ _____ _____    ______ ____

>  <TORSDO>
F 5

$$$$
=
 OpenBabel10222416113D

 26 29  0  0  1  0  0  0  0  0999 V2000
  188.7690  177.2470  142.0120 N   0  0  0  0  0  0  0  0  0  0  0  0
  187.3050  178.6290  140.5850 C   0  0  0  0  0  3  0  0  0  0  0  0
  190.4700  177.1010  140.4630 C   0  0  0  0  0  0  0  0  0  0  0  0
  188.0500  177.2610  143.2900 C   0  0  0  0  0  2  0  0  0  0  0  0
  187.9410  177.5110  146.7280 C   0  0  0  0  0  3  0  0  0  0  0  0
  189.4660  177.8910  139.8390 N   0  0  0  0  0  2  0  0  0  0  0  0
  191.5480  176.7950  139.8880 O   0  0  0  0  0  0  0  0  0  0  0  0
  189.0500  177.3860  144.3890 C   0  0  0  0  0  0  0  0  0  0  0  0
  188.9100  177.4710  145.7520 C   0  0  0  0  0  0  0  0  0  0  0  0
  188.3280  177.5840  149.0520 O   0  0  0  0  0  0  0  0  0  0  0  0
  190.1010  177.5130  147.5890 N   0  0  0  0  0  2  0  0  0  0  0  0
  191.0430  177.3840  145.3930 O   0  0  0  0  0  0  0  0  0  0  0  0
  190.1040  176.6580  141.8410 C   0  0  1  0  0  3  0  0  0  0  0  0
  188.7690  177.5420  147.8740 C   0  0  0  0  0  0  0  0  0  0  0  0
  190.1010  177.4780  146.2780 N   0  0  0  0  0  0  0  0  0  0  0  0
  190.4380  177.3220  144.2140 C   0  0  0  0  0  0  0  0  0  0  0  0
  188.4390  177.9620  140.8160 C   0  0  0  0  0  0  0  0  0  0  0  0
  191.0930  177.2320  142.8730 C   0  0  0  0  0  2  0  0  0  0  0  0
  186.1800  178.7300  141.5560 C   0  0  0  0  0  2  0  0  0  0  0  0
  184.8620  178.7220  140.8070 C   0  0  0  0  0  2  0  0  0  0  0  0
  182.5470  178.6570  141.3490 O   0  0  0  0  0  0  0  0  0  0  0  0
  183.7330  178.6920  141.7740 C   0  0  0  0  0  0  0  0  0  0  0  0
  184.0040  178.7380  143.1760 N   0  0  0  0  0  2  0  0  0  0  0  0
  182.9490  178.7040  144.1780 C   0  0  0  0  0  2  0  0  0  0  0  0
  183.4810  179.0060  145.4320 O   0  0  0  0  0  0  0  0  0  0  0  0
  184.8610  179.0000  145.2360 C   0  0  0  0  0  1  0  0  0  0  0  0
  1  4  1  0  0  0  0
  2 17  2  0  0  0  0
  2 19  1  0  0  0  0
  3 13  1  0  0  0  0
  4  8  1  0  0  0  0
  5 14  1  0  0  0  0
  6  3  1  0  0  0  0
  6 17  1  0  0  0  0
  7  3  2  0  0  0  0
  8  9  1  0  0  0  0
  9 15  1  0  0  0  0
  9  5  2  0  0  0  0
 11 14  1  0  0  0  0
 12 15  1  0  0  0  0
 13  1  1  0  0  0  0
 13 18  1  1  0  0  0
 14 10  2  0  0  0  0
 15 11  1  0  0  0  0
 16  8  2  0  0  0  0
 16 12  1  0  0  0  0
 17  1  1  0  0  0  0
 18 16  1  0  0  0  0
 20 19  1  0  0  0  0
 20 22  1  0  0  0  0
 21 22  2  0  0  0  0
 22 23  1  0  0  0  0
 23 24  1  0  0  0  0
 24 25  1  0  0  0  0
 26 25  1  0  0  0  0
M  END
>  <MODEL>
6

>  <REMARK>
 VINA RESULT:      -8.3      1.612      7.094
  Name = 
  5 active torsions:
  status: ('A' for Active; 'I' for Inactive)
    1  A    between atoms: C_2  and  C_20
    2  A    between atoms: O_4  and  C_9
    3  A    between atoms: C_7  and  C_10
    4  A    between atoms: C_7  and  C_20
    5  A    between atoms: C_9  and  N_21
                            x       y       z     vdW  Elec       q    Type
                         _______ _______ _______ _____ _____    ______ ____

>  <TORSDO>
F 5

$$$$
=
 OpenBabel10222416113D

 26 29  0  0  1  0  0  0  0  0999 V2000
  186.1320  177.7040  144.7080 N   0  0  0  0  0  0  0  0  0  0  0  0
  187.2610  177.7430  146.9010 C   0  0  0  0  0  3  0  0  0  0  0  0
  184.2580  178.8330  145.4310 C   0  0  0  0  0  0  0  0  0  0  0  0
  187.1820  177.1690  143.8340 C   0  0  0  0  0  2  0  0  0  0  0  0
  188.9920  177.1420  140.8990 C   0  0  0  0  0  3  0  0  0  0  0  0
  185.0970  178.7330  146.5760 N   0  0  0  0  0  2  0  0  0  0  0  0
  183.1230  179.3780  145.4670 O   0  0  0  0  0  0  0  0  0  0  0  0
  187.1390  177.9080  142.5410 C   0  0  0  0  0  0  0  0  0  0  0  0
  187.9080  177.8210  141.4080 C   0  0  0  0  0  0  0  0  0  0  0  0
  189.8650  177.3750  138.7210 O   0  0  0  0  0  0  0  0  0  0  0  0
  188.0310  178.6040  139.3660 N   0  0  0  0  0  2  0  0  0  0  0  0
  186.3470  179.2460  140.9400 O   0  0  0  0  0  0  0  0  0  0  0  0
  184.8460  178.2070  144.2100 C   0  0  1  0  0  3  0  0  0  0  0  0
  189.0190  177.6940  139.5960 C   0  0  0  0  0  0  0  0  0  0  0  0
  187.4050  178.6290  140.5180 N   0  0  0  0  0  0  0  0  0  0  0  0
  186.1450  178.8270  142.1820 C   0  0  0  0  0  0  0  0  0  0  0  0
  186.2370  178.0370  146.0970 C   0  0  0  0  0  0  0  0  0  0  0  0
  185.0580  179.2660  143.1110 C   0  0  0  0  0  2  0  0  0  0  0  0
  188.4790  177.0020  146.4720 C   0  0  0  0  0  2  0  0  0  0  0  0
  189.6990  177.8820  146.6520 C   0  0  0  0  0  2  0  0  0  0  0  0
  191.8640  176.9940  146.2280 O   0  0  0  0  0  0  0  0  0  0  0  0
  190.7860  177.4300  145.7440 C   0  0  0  0  0  0  0  0  0  0  0  0
  190.6090  177.5270  144.3290 N   0  0  0  0  0  2  0  0  0  0  0  0
  191.6260  177.0970  143.3820 C   0  0  0  0  0  2  0  0  0  0  0  0
  191.9220  178.1390  142.5030 O   0  0  0  0  0  0  0  0  0  0  0  0
  192.4030  177.5030  141.3590 C   0  0  0  0  0  1  0  0  0  0  0  0
  1 17  1  0  0  0  0
  3  7  2  0  0  0  0
  3  6  1  0  0  0  0
  4  1  1  0  0  0  0
  5  9  2  0  0  0  0
  8  4  1  0  0  0  0
  9  8  1  0  0  0  0
 10 14  2  0  0  0  0
 11 14  1  0  0  0  0
 11 15  1  0  0  0  0
 12 16  1  0  0  0  0
 13 18  1  6  0  0  0
 13  1  1  0  0  0  0
 13  3  1  0  0  0  0
 14  5  1  0  0  0  0
 15 12  1  0  0  0  0
 15  9  1  0  0  0  0
 16  8  2  0  0  0  0
 16 18  1  0  0  0  0
 17  6  1  0  0  0  0
 17  2  2  0  0  0  0
 19 20  1  0  0  0  0
 19  2  1  0  0  0  0
 22 21  2  0  0  0  0
 22 20  1  0  0  0  0
 23 22  1  0  0  0  0
 24 23  1  0  0  0  0
 25 24  1  0  0  0  0
 26 25  1  0  0  0  0
M  END
>  <MODEL>
7

>  <REMARK>
 VINA RESULT:      -8.2      1.461      2.077
  Name = 
  5 active torsions:
  status: ('A' for Active; 'I' for Inactive)
    1  A    between atoms: C_2  and  C_20
    2  A    between atoms: O_4  and  C_9
    3  A    between atoms: C_7  and  C_10
    4  A    between atoms: C_7  and  C_20
    5  A    between atoms: C_9  and  N_21
                            x       y       z     vdW  Elec       q    Type
                         _______ _______ _______ _____ _____    ______ ____

>  <TORSDO>
F 5

$$$$
=
 OpenBabel10222416113D

 26 29  0  0  1  0  0  0  0  0999 V2000
  189.3290  176.9870  144.1470 N   0  0  0  0  0  0  0  0  0  0  0  0
  190.8280  177.5140  142.2600 C   0  0  0  0  0  3  0  0  0  0  0  0
  191.0160  176.8750  145.7130 C   0  0  0  0  0  0  0  0  0  0  0  0
  188.0040  177.1570  143.5400 C   0  0  0  0  0  2  0  0  0  0  0  0
  184.7430  178.2770  143.5920 C   0  0  0  0  0  3  0  0  0  0  0  0
  191.6670  177.1850  144.4870 N   0  0  0  0  0  2  0  0  0  0  0  0
  191.6440  176.7130  146.7930 O   0  0  0  0  0  0  0  0  0  0  0  0
  187.1150  177.8230  144.5340 C   0  0  0  0  0  0  0  0  0  0  0  0
  185.8050  178.2290  144.4660 C   0  0  0  0  0  0  0  0  0  0  0  0
  182.5790  179.0650  144.0970 O   0  0  0  0  0  0  0  0  0  0  0  0
  184.2120  179.0630  145.7160 N   0  0  0  0  0  2  0  0  0  0  0  0
  186.4220  178.6000  146.5080 O   0  0  0  0  0  0  0  0  0  0  0  0
  189.5350  176.7370  145.5790 C   0  0  1  0  0  3  0  0  0  0  0  0
  183.7620  178.8250  144.4520 C   0  0  0  0  0  0  0  0  0  0  0  0
  185.4640  178.6810  145.6390 N   0  0  0  0  0  0  0  0  0  0  0  0
  187.4580  178.0720  145.8680 C   0  0  0  0  0  0  0  0  0  0  0  0
  190.6040  177.2480  143.5500 C   0  0  0  0  0  0  0  0  0  0  0  0
  188.8150  177.7990  146.4320 C   0  0  0  0  0  2  0  0  0  0  0  0
  189.7650  177.5780  141.2190 C   0  0  0  0  0  2  0  0  0  0  0  0
  190.3890  177.4270  139.8470 C   0  0  0  0  0  2  0  0  0  0  0  0
  188.7460  178.9660  139.0810 O   0  0  0  0  0  0  0  0  0  0  0  0
  189.4700  177.9710  138.8130 C   0  0  0  0  0  0  0  0  0  0  0  0
  189.3930  177.3370  137.5340 N   0  0  0  0  0  2  0  0  0  0  0  0
  188.5220  177.8190  136.4730 C   0  0  0  0  0  2  0  0  0  0  0  0
  188.0040  176.7380  135.7610 O   0  0  0  0  0  0  0  0  0  0  0  0
  188.3770  175.6190  136.5050 C   0  0  0  0  0  1  0  0  0  0  0  0
  1 13  1  0  0  0  0
  2 17  2  0  0  0  0
  3  7  2  0  0  0  0
  4  1  1  0  0  0  0
  4  8  1  0  0  0  0
  5 14  1  0  0  0  0
  5  9  2  0  0  0  0
  6  3  1  0  0  0  0
  8 16  2  0  0  0  0
  9  8  1  0  0  0  0
  9 15  1  0  0  0  0
 10 14  2  0  0  0  0
 13  3  1  0  0  0  0
 13 18  1  1  0  0  0
 14 11  1  0  0  0  0
 15 11  1  0  0  0  0
 15 12  1  0  0  0  0
 16 18  1  0  0  0  0
 16 12  1  0  0  0  0
 17  1  1  0  0  0  0
 17  6  1  0  0  0  0
 19  2  1  0  0  0  0
 20 19  1  0  0  0  0
 22 21  2  0  0  0  0
 22 20  1  0  0  0  0
 23 22  1  0  0  0  0
 24 23  1  0  0  0  0
 25 24  1  0  0  0  0
 25 26  1  0  0  0  0
M  END
>  <MODEL>
8

>  <REMARK>
 VINA RESULT:      -8.1      2.302      7.535
  Name = 
  5 active torsions:
  status: ('A' for Active; 'I' for Inactive)
    1  A    between atoms: C_2  and  C_20
    2  A    between atoms: O_4  and  C_9
    3  A    between atoms: C_7  and  C_10
    4  A    between atoms: C_7  and  C_20
    5  A    between atoms: C_9  and  N_21
                            x       y       z     vdW  Elec       q    Type
                         _______ _______ _______ _____ _____    ______ ____

>  <TORSDO>
F 5

$$$$
=
 OpenBabel10222416113D

 26 29  0  0  1  0  0  0  0  0999 V2000
  187.9050  177.4390  142.5270 N   0  0  0  0  0  0  0  0  0  0  0  0
  186.4550  178.9090  141.1760 C   0  0  0  0  0  3  0  0  0  0  0  0
  189.4910  177.1580  140.8780 C   0  0  0  0  0  0  0  0  0  0  0  0
  187.2710  177.5160  143.8480 C   0  0  0  0  0  2  0  0  0  0  0  0
  187.3950  177.8030  147.2820 C   0  0  0  0  0  3  0  0  0  0  0  0
  188.5080  178.0130  140.3070 N   0  0  0  0  0  2  0  0  0  0  0  0
  190.5060  176.7710  140.2420 O   0  0  0  0  0  0  0  0  0  0  0  0
  188.3440  177.5790  144.8800 C   0  0  0  0  0  0  0  0  0  0  0  0
  188.2960  177.6860  146.2480 C   0  0  0  0  0  0  0  0  0  0  0  0
  187.9320  177.8700  149.5760 O   0  0  0  0  0  0  0  0  0  0  0  0
  189.6000  177.6590  148.0070 N   0  0  0  0  0  2  0  0  0  0  0  0
  190.3910  177.4440  145.7590 O   0  0  0  0  0  0  0  0  0  0  0  0
  189.1810  176.7550  142.2820 C   0  0  1  0  0  3  0  0  0  0  0  0
  188.2950  177.7860  148.3740 C   0  0  0  0  0  0  0  0  0  0  0  0
  189.5160  177.6120  146.6990 N   0  0  0  0  0  0  0  0  0  0  0  0
  189.7100  177.4150  144.6210 C   0  0  0  0  0  0  0  0  0  0  0  0
  187.5520  178.1650  141.3440 C   0  0  0  0  0  0  0  0  0  0  0  0
  190.2720  177.2660  143.2430 C   0  0  0  0  0  2  0  0  0  0  0  0
  185.4030  179.0990  142.2130 C   0  0  0  0  0  2  0  0  0  0  0  0
  184.1380  178.3820  141.7880 C   0  0  0  0  0  2  0  0  0  0  0  0
  183.2730  178.7400  143.9750 O   0  0  0  0  0  0  0  0  0  0  0  0
  183.0370  178.6960  142.7370 C   0  0  0  0  0  0  0  0  0  0  0  0
  181.7160  178.9120  142.2390 N   0  0  0  0  0  2  0  0  0  0  0  0
  180.5940  179.2320  143.1090 C   0  0  0  0  0  2  0  0  0  0  0  0
  180.1530  180.5300  142.8520 O   0  0  0  0  0  0  0  0  0  0  0  0
  178.9360  180.3600  142.1920 C   0  0  0  0  0  1  0  0  0  0  0  0
  1  4  1  0  0  0  0
  2 17  2  0  0  0  0
  2 19  1  0  0  0  0
  3 13  1  0  0  0  0
  4  8  1  0  0  0  0
  5 14  1  0  0  0  0
  6  3  1  0  0  0  0
  6 17  1  0  0  0  0
  7  3  2  0  0  0  0
  8  9  1  0  0  0  0
  9 15  1  0  0  0  0
  9  5  2  0  0  0  0
 11 14  1  0  0  0  0
 12 15  1  0  0  0  0
 13  1  1  0  0  0  0
 13 18  1  1  0  0  0
 14 10  2  0  0  0  0
 15 11  1  0  0  0  0
 16  8  2  0  0  0  0
 16 12  1  0  0  0  0
 17  1  1  0  0  0  0
 18 16  1  0  0  0  0
 20 19  1  0  0  0  0
 20 22  1  0  0  0  0
 22 21  2  0  0  0  0
 23 22  1  0  0  0  0
 23 24  1  0  0  0  0
 25 24  1  0  0  0  0
 26 25  1  0  0  0  0
M  END
>  <MODEL>
9

>  <REMARK>
 VINA RESULT:      -8.0      1.875      7.595
  Name = 
  5 active torsions:
  status: ('A' for Active; 'I' for Inactive)
    1  A    between atoms: C_2  and  C_20
    2  A    between atoms: O_4  and  C_9
    3  A    between atoms: C_7  and  C_10
    4  A    between atoms: C_7  and  C_20
    5  A    between atoms: C_9  and  N_21
                            x       y       z     vdW  Elec       q    Type
                         _______ _______ _______ _____ _____    ______ ____

>  <TORSDO>
F 5

$$$$
