=
 OpenBabel10222415473D

 44 51  0  0  1  0  0  0  0  0999 V2000
  188.7220  174.9950  136.0600 C   0  0  0  0  0  0  0  0  0  0  0  0
  185.3760  178.2790  144.4650 C   0  0  0  0  0  0  0  0  0  0  0  0
  185.5880  178.4940  142.0630 C   0  0  0  0  0  3  0  0  0  0  0  0
  187.4980  175.6140  136.1440 C   0  0  0  0  0  3  0  0  0  0  0  0
  186.1760  178.2170  143.3010 C   0  0  0  0  0  0  0  0  0  0  0  0
  184.4560  179.8420  139.7450 N   0  0  0  0  0  2  0  0  0  0  0  0
  184.3470  178.3740  139.5330 C   0  0  2  0  0  0  0  0  0  0  0  0
  185.1940  177.1160  137.6270 C   0  0  1  0  0  3  0  0  0  0  0  0
  184.0260  178.6490  144.3470 C   0  0  0  0  0  3  0  0  0  0  0  0
  189.9830  176.6740  140.9590 N   0  0  0  0  0  2  0  0  0  0  0  0
  190.3390  176.5780  139.5950 C   0  0  0  0  0  0  0  0  0  0  0  0
  186.6040  177.4780  137.4400 N   0  0  0  0  0  2  0  0  0  0  0  0
  183.4560  178.9190  143.0990 C   0  0  0  0  0  3  0  0  0  0  0  0
  187.6000  176.5400  137.1150 N   0  0  0  0  0  0  0  0  0  0  0  0
  189.5190  177.3770  138.6250 C   0  0  2  0  0  3  0  0  0  0  0  0
  191.2990  175.8550  139.2220 O   0  0  0  0  0  0  0  0  0  0  0  0
  189.0680  173.9140  135.0980 C   0  0  0  0  0  1  0  0  0  0  0  0
  184.2330  178.8330  141.9410 C   0  0  0  0  0  0  0  0  0  0  0  0
  183.2520  177.9620  138.7240 O   0  0  0  0  0  0  0  0  0  0  0  0
  183.5930  179.0720  140.6020 C   0  0  1  0  0  3  0  0  0  0  0  0
  188.9770  177.6450  141.1370 C   0  0  0  0  0  0  0  0  0  0  0  0
  187.6100  177.8550  143.3510 C   0  0  0  0  0  3  0  0  0  0  0  0
  188.3230  177.7410  142.2610 C   0  0  0  0  0  0  0  0  0  0  0  0
  189.5860  175.5290  136.9410 N   0  0  0  0  0  0  0  0  0  0  0  0
  188.3620  178.3950  139.6320 S   0  0  0  0  0  0  0  0  0  0  0  0
  184.3830  178.3380  138.0350 C   0  0  1  0  0  3  0  0  0  0  0  0
  188.8690  176.4730  137.5910 C   0  0  0  0  0  0  0  0  0  0  0  0
  186.9660  176.9100  146.0230 C   0  0  0  0  0  1  0  0  0  0  0  0
  185.9320  178.0060  145.8320 C   0  0  0  0  0  0  0  0  0  0  0  0
  186.1040  179.2070  146.7210 C   0  0  0  0  0  2  0  0  0  0  0  0
  185.0010  178.2090  146.9920 C   0  0  0  0  0  2  0  0  0  0  0  0
  184.6010  176.3330  136.4490 C   0  0  2  0  0  3  0  0  0  0  0  0
  184.4660  174.1200  137.6140 C   0  0  0  0  0  2  0  0  0  0  0  0
  184.8680  172.6470  137.5880 C   0  0  0  0  0  2  0  0  0  0  0  0
  184.4060  172.0090  136.3110 C   0  0  0  0  0  0  0  0  0  0  0  0
  184.1090  170.7470  136.3020 N   0  0  0  0  0  2  0  0  0  0  0  0
  186.0790  172.5310  134.7060 O   0  0  0  0  0  1  0  0  0  0  0  0
  184.7260  172.6940  135.0140 C   0  0  2  0  0  3  0  0  0  0  0  0
  184.3840  174.1760  135.0880 C   0  0  0  0  0  2  0  0  0  0  0  0
  184.9520  174.8460  136.3520 C   0  0  1  0  0  3  0  0  0  0  0  0
  184.6160  177.1290  135.1640 C   0  0  0  0  0  0  0  0  0  0  0  0
  185.7100  177.4290  134.6190 O   0  0  0  0  0  0  0  0  0  0  0  0
  182.1660  177.3960  135.2020 C   0  0  0  0  0  1  0  0  0  0  0  0
  183.4290  177.5970  134.5940 O   0  0  0  0  0  0  0  0  0  0  0  0
  1  4  2  0  0  0  0
  1 24  1  0  0  0  0
  2 29  1  0  0  0  0
  3  5  1  0  0  0  0
  4 14  1  0  0  0  0
  5 22  1  0  0  0  0
  5  2  2  0  0  0  0
  7 19  1  6  0  0  0
  7  6  1  0  0  0  0
  7 20  1  0  0  0  0
  8 32  1  6  0  0  0
  8 26  1  0  0  0  0
  9  2  1  0  0  0  0
 10 21  1  0  0  0  0
 11 10  1  0  0  0  0
 12  8  1  0  0  0  0
 13  9  2  0  0  0  0
 14 12  1  0  0  0  0
 14 27  1  0  0  0  0
 15 27  1  6  0  0  0
 15 11  1  0  0  0  0
 15 25  1  0  0  0  0
 16 11  2  0  0  0  0
 17  1  1  0  0  0  0
 18  3  2  0  0  0  0
 18 13  1  0  0  0  0
 20  6  1  6  0  0  0
 20 18  1  0  0  0  0
 21 23  2  0  0  0  0
 23 22  2  0  0  0  0
 24 27  2  0  0  0  0
 25 21  1  0  0  0  0
 26 19  1  6  0  0  0
 26  7  1  0  0  0  0
 29 28  1  0  0  0  0
 29 30  1  0  0  0  0
 29 31  1  0  0  0  0
 30 31  1  0  0  0  0
 32 41  1  6  0  0  0
 34 33  1  0  0  0  0
 35 34  1  0  0  0  0
 36 35  2  0  0  0  0
 38 37  1  1  0  0  0
 38 39  1  0  0  0  0
 38 35  1  0  0  0  0
 39 40  1  0  0  0  0
 40 32  1  1  0  0  0
 40 33  1  0  0  0  0
 42 41  2  0  0  0  0
 44 41  1  0  0  0  0
 44 43  1  0  0  0  0
M  END
>  <MODEL>
1

>  <REMARK>
 VINA RESULT:     -10.1      0.000      0.000
  Name = 
  5 active torsions:
  status: ('A' for Active; 'I' for Inactive)
    1  A    between atoms: C_1  and  C_38
    2  A    between atoms: C_1  and  O_43
    3  A    between atoms: C_5  and  C_12
    4  A    between atoms: C_13  and  C_38
    5  A    between atoms: C_38  and  C_42
                            x       y       z     vdW  Elec       q    Type
                         _______ _______ _______ _____ _____    ______ ____

>  <TORSDO>
F 5

$$$$
=
 OpenBabel10222415473D

 44 51  0  0  1  0  0  0  0  0999 V2000
  187.1360  175.5940  135.8760 C   0  0  0  0  0  0  0  0  0  0  0  0
  187.7780  177.5980  145.2670 C   0  0  0  0  0  0  0  0  0  0  0  0
  187.0030  178.1730  143.0480 C   0  0  0  0  0  3  0  0  0  0  0  0
  186.1030  176.2060  136.5440 C   0  0  0  0  0  3  0  0  0  0  0  0
  188.0240  177.7050  143.8790 C   0  0  0  0  0  0  0  0  0  0  0  0
  185.1220  179.8710  141.6140 N   0  0  0  0  0  2  0  0  0  0  0  0
  184.8290  178.4530  141.2730 C   0  0  2  0  0  0  0  0  0  0  0  0
  184.7250  177.4900  139.0370 C   0  0  1  0  0  3  0  0  0  0  0  0
  186.5300  177.9970  145.7720 C   0  0  0  0  0  3  0  0  0  0  0  0
  190.4130  176.4940  139.9820 N   0  0  0  0  0  2  0  0  0  0  0  0
  190.1700  176.6030  138.5940 C   0  0  0  0  0  0  0  0  0  0  0  0
  185.9580  177.8610  138.3310 N   0  0  0  0  0  2  0  0  0  0  0  0
  185.5200  178.4590  144.9230 C   0  0  0  0  0  3  0  0  0  0  0  0
  186.6610  176.9720  137.4990 N   0  0  0  0  0  0  0  0  0  0  0  0
  189.0860  177.5490  138.1700 C   0  0  2  0  0  3  0  0  0  0  0  0
  190.8380  175.9340  137.7630 O   0  0  0  0  0  0  0  0  0  0  0  0
  186.9770  174.6680  134.7230 C   0  0  0  0  0  1  0  0  0  0  0  0
  185.7460  178.5420  143.5470 C   0  0  0  0  0  0  0  0  0  0  0  0
  183.4720  178.1810  140.9450 O   0  0  0  0  0  0  0  0  0  0  0  0
  184.6320  178.9880  142.6410 C   0  0  1  0  0  3  0  0  0  0  0  0
  189.6430  177.4370  140.6910 C   0  0  0  0  0  0  0  0  0  0  0  0
  189.3220  177.3230  143.2790 C   0  0  0  0  0  3  0  0  0  0  0  0
  189.5160  177.3680  141.9870 C   0  0  0  0  0  0  0  0  0  0  0  0
  188.3220  175.9770  136.3810 N   0  0  0  0  0  0  0  0  0  0  0  0
  188.5220  178.4140  139.6940 S   0  0  0  0  0  0  0  0  0  0  0  0
  184.2450  178.6460  139.9060 C   0  0  1  0  0  3  0  0  0  0  0  0
  188.0050  176.8200  137.3900 C   0  0  0  0  0  0  0  0  0  0  0  0
  190.0810  176.4410  145.7050 C   0  0  0  0  0  1  0  0  0  0  0  0
  188.8250  177.1140  146.2290 C   0  0  0  0  0  0  0  0  0  0  0  0
  189.0170  177.9520  147.4630 C   0  0  0  0  0  2  0  0  0  0  0  0
  188.3390  176.6040  147.5550 C   0  0  0  0  0  2  0  0  0  0  0  0
  183.6470  176.9020  138.1200 C   0  0  2  0  0  3  0  0  0  0  0  0
  182.4470  177.6240  136.0440 C   0  0  0  0  0  2  0  0  0  0  0  0
  181.4760  178.6270  135.4250 C   0  0  0  0  0  2  0  0  0  0  0  0
  180.1790  178.6230  136.1800 C   0  0  0  0  0  0  0  0  0  0  0  0
  179.0790  178.9070  135.5550 N   0  0  0  0  0  2  0  0  0  0  0  0
  180.5310  180.0570  138.0420 O   0  0  0  0  0  1  0  0  0  0  0  0
  180.2230  178.7450  137.6760 C   0  0  2  0  0  3  0  0  0  0  0  0
  181.2500  177.7870  138.2640 C   0  0  0  0  0  2  0  0  0  0  0  0
  182.6100  177.8730  137.5500 C   0  0  1  0  0  3  0  0  0  0  0  0
  183.1420  175.5640  138.6110 C   0  0  0  0  0  0  0  0  0  0  0  0
  182.4410  175.4980  139.6550 O   0  0  0  0  0  0  0  0  0  0  0  0
  183.0910  174.1050  136.6260 C   0  0  0  0  0  1  0  0  0  0  0  0
  183.4890  174.3790  137.9580 O   0  0  0  0  0  0  0  0  0  0  0  0
  1 24  1  0  0  0  0
  1  4  2  0  0  0  0
  2  9  1  0  0  0  0
  2 29  1  0  0  0  0
  3 18  2  0  0  0  0
  3  5  1  0  0  0  0
  4 14  1  0  0  0  0
  5  2  2  0  0  0  0
  7 19  1  1  0  0  0
  7  6  1  0  0  0  0
  7 20  1  0  0  0  0
  8 32  1  6  0  0  0
  8 26  1  0  0  0  0
 10 21  1  0  0  0  0
 11 10  1  0  0  0  0
 12  8  1  0  0  0  0
 13  9  2  0  0  0  0
 14 12  1  0  0  0  0
 15 27  1  1  0  0  0
 15 11  1  0  0  0  0
 15 25  1  0  0  0  0
 16 11  2  0  0  0  0
 17  1  1  0  0  0  0
 18 13  1  0  0  0  0
 20  6  1  6  0  0  0
 20 18  1  0  0  0  0
 21 23  2  0  0  0  0
 22  5  1  0  0  0  0
 23 22  2  0  0  0  0
 24 27  2  0  0  0  0
 25 21  1  0  0  0  0
 26 19  1  1  0  0  0
 26  7  1  0  0  0  0
 27 14  1  0  0  0  0
 28 29  1  0  0  0  0
 29 30  1  0  0  0  0
 29 31  1  0  0  0  0
 30 31  1  0  0  0  0
 32 41  1  1  0  0  0
 33 40  1  0  0  0  0
 34 33  1  0  0  0  0
 34 35  1  0  0  0  0
 35 38  1  0  0  0  0
 36 35  2  0  0  0  0
 38 37  1  6  0  0  0
 38 39  1  0  0  0  0
 40 32  1  1  0  0  0
 40 39  1  0  0  0  0
 41 42  2  0  0  0  0
 43 44  1  0  0  0  0
 44 41  1  0  0  0  0
M  END
>  <MODEL>
2

>  <REMARK>
 VINA RESULT:     -10.0      2.135      3.878
  Name = 
  5 active torsions:
  status: ('A' for Active; 'I' for Inactive)
    1  A    between atoms: C_1  and  C_38
    2  A    between atoms: C_1  and  O_43
    3  A    between atoms: C_5  and  C_12
    4  A    between atoms: C_13  and  C_38
    5  A    between atoms: C_38  and  C_42
                            x       y       z     vdW  Elec       q    Type
                         _______ _______ _______ _____ _____    ______ ____

>  <TORSDO>
F 5

$$$$
=
 OpenBabel10222415473D

 44 51  0  0  1  0  0  0  0  0999 V2000
  186.6550  176.3830  136.3890 C   0  0  0  0  0  0  0  0  0  0  0  0
  187.6570  177.5800  145.8860 C   0  0  0  0  0  0  0  0  0  0  0  0
  186.7760  178.3280  143.7590 C   0  0  0  0  0  3  0  0  0  0  0  0
  185.6390  176.9120  137.1490 C   0  0  0  0  0  3  0  0  0  0  0  0
  187.8410  177.8130  144.5030 C   0  0  0  0  0  0  0  0  0  0  0  0
  184.8040  180.0990  142.5570 N   0  0  0  0  0  2  0  0  0  0  0  0
  184.5240  178.7100  142.1040 C   0  0  2  0  0  0  0  0  0  0  0  0
  184.3440  177.9420  139.8000 C   0  0  1  0  0  3  0  0  0  0  0  0
  186.4240  177.9050  146.4740 C   0  0  0  0  0  3  0  0  0  0  0  0
  190.0860  177.0000  140.4220 N   0  0  0  0  0  2  0  0  0  0  0  0
  189.7820  177.2220  139.0600 C   0  0  0  0  0  0  0  0  0  0  0  0
  185.5380  178.4010  139.0790 N   0  0  0  0  0  2  0  0  0  0  0  0
  185.3690  178.4160  145.7100 C   0  0  0  0  0  3  0  0  0  0  0  0
  186.2230  177.6050  138.1440 N   0  0  0  0  0  0  0  0  0  0  0  0
  188.6630  178.1760  138.7640 C   0  0  2  0  0  3  0  0  0  0  0  0
  190.4260  176.6440  138.1460 O   0  0  0  0  0  0  0  0  0  0  0  0
  186.4650  175.5570  135.1670 C   0  0  0  0  0  1  0  0  0  0  0  0
  185.5350  178.6220  144.3390 C   0  0  0  0  0  0  0  0  0  0  0  0
  183.1600  178.4360  141.8100 O   0  0  0  0  0  0  0  0  0  0  0  0
  184.3760  179.1200  143.5210 C   0  0  1  0  0  3  0  0  0  0  0  0
  189.3280  177.8600  141.2410 C   0  0  0  0  0  0  0  0  0  0  0  0
  189.1200  177.5150  143.8200 C   0  0  0  0  0  3  0  0  0  0  0  0
  189.2570  177.6760  142.5300 C   0  0  0  0  0  0  0  0  0  0  0  0
  187.8540  176.7490  136.8770 N   0  0  0  0  0  0  0  0  0  0  0  0
  188.1470  178.8930  140.3800 S   0  0  0  0  0  0  0  0  0  0  0  0
  183.8790  179.0070  140.7850 C   0  0  1  0  0  3  0  0  0  0  0  0
  187.5640  177.4930  137.9680 C   0  0  0  0  0  0  0  0  0  0  0  0
  189.9810  176.4080  146.1260 C   0  0  0  0  0  1  0  0  0  0  0  0
  188.7520  177.0390  146.7580 C   0  0  0  0  0  0  0  0  0  0  0  0
  189.0070  177.7950  148.0330 C   0  0  0  0  0  2  0  0  0  0  0  0
  188.3360  176.4410  148.0710 C   0  0  0  0  0  2  0  0  0  0  0  0
  183.2400  177.4110  138.8790 C   0  0  2  0  0  3  0  0  0  0  0  0
  182.6930  179.7930  138.3340 C   0  0  0  0  0  2  0  0  0  0  0  0
  181.5880  180.8040  138.0360 C   0  0  0  0  0  2  0  0  0  0  0  0
  180.7680  180.3430  136.8660 C   0  0  0  0  0  0  0  0  0  0  0  0
  180.2060  181.2230  136.0980 N   0  0  0  0  0  2  0  0  0  0  0  0
  179.1830  178.8200  137.7700 O   0  0  0  0  0  1  0  0  0  0  0  0
  180.2460  178.9350  136.8710 C   0  0  2  0  0  3  0  0  0  0  0  0
  181.3480  177.9530  137.2410 C   0  0  0  0  0  2  0  0  0  0  0  0
  182.1160  178.3810  138.5050 C   0  0  1  0  0  3  0  0  0  0  0  0
  182.8410  175.9930  139.2190 C   0  0  0  0  0  0  0  0  0  0  0  0
  183.3830  175.0240  138.6230 O   0  0  0  0  0  0  0  0  0  0  0  0
  180.5720  175.2010  139.7670 C   0  0  0  0  0  1  0  0  0  0  0  0
  181.8300  175.7310  140.1470 O   0  0  0  0  0  0  0  0  0  0  0  0
  1 24  1  0  0  0  0
  1  4  2  0  0  0  0
  2  9  1  0  0  0  0
  2 29  1  0  0  0  0
  3 18  2  0  0  0  0
  3  5  1  0  0  0  0
  4 14  1  0  0  0  0
  5  2  2  0  0  0  0
  7 19  1  1  0  0  0
  7  6  1  0  0  0  0
  7 20  1  0  0  0  0
  8 32  1  6  0  0  0
  8 26  1  0  0  0  0
 10 21  1  0  0  0  0
 11 10  1  0  0  0  0
 12  8  1  0  0  0  0
 13  9  2  0  0  0  0
 14 12  1  0  0  0  0
 15 27  1  1  0  0  0
 15 11  1  0  0  0  0
 15 25  1  0  0  0  0
 16 11  2  0  0  0  0
 17  1  1  0  0  0  0
 18 13  1  0  0  0  0
 20  6  1  6  0  0  0
 20 18  1  0  0  0  0
 21 23  2  0  0  0  0
 22  5  1  0  0  0  0
 23 22  2  0  0  0  0
 24 27  2  0  0  0  0
 25 21  1  0  0  0  0
 26 19  1  1  0  0  0
 26  7  1  0  0  0  0
 27 14  1  0  0  0  0
 28 29  1  0  0  0  0
 29 30  1  0  0  0  0
 29 31  1  0  0  0  0
 30 31  1  0  0  0  0
 32 41  1  1  0  0  0
 33 40  1  0  0  0  0
 34 33  1  0  0  0  0
 35 38  1  0  0  0  0
 35 34  1  0  0  0  0
 36 35  2  0  0  0  0
 38 39  1  0  0  0  0
 38 37  1  1  0  0  0
 39 40  1  0  0  0  0
 40 32  1  6  0  0  0
 41 44  1  0  0  0  0
 42 41  2  0  0  0  0
 43 44  1  0  0  0  0
M  END
>  <MODEL>
3

>  <REMARK>
 VINA RESULT:      -9.5      2.453      4.380
  Name = 
  5 active torsions:
  status: ('A' for Active; 'I' for Inactive)
    1  A    between atoms: C_1  and  C_38
    2  A    between atoms: C_1  and  O_43
    3  A    between atoms: C_5  and  C_12
    4  A    between atoms: C_13  and  C_38
    5  A    between atoms: C_38  and  C_42
                            x       y       z     vdW  Elec       q    Type
                         _______ _______ _______ _____ _____    ______ ____

>  <TORSDO>
F 5

$$$$
=
 OpenBabel10222415473D

 44 51  0  0  1  0  0  0  0  0999 V2000
  188.5600  177.5020  146.2410 C   0  0  0  0  0  0  0  0  0  0  0  0
  181.4110  177.4800  139.7980 C   0  0  0  0  0  0  0  0  0  0  0  0
  183.5740  178.2840  140.5280 C   0  0  0  0  0  3  0  0  0  0  0  0
  188.8160  177.6300  144.8960 C   0  0  0  0  0  3  0  0  0  0  0  0
  182.2500  177.9570  140.8320 C   0  0  0  0  0  0  0  0  0  0  0  0
  185.9780  179.6440  139.6060 N   0  0  0  0  0  2  0  0  0  0  0  0
  186.3690  178.3140  140.1450 C   0  0  2  0  0  0  0  0  0  0  0  0
  188.0160  177.8800  141.8860 C   0  0  1  0  0  3  0  0  0  0  0  0
  181.9240  177.3830  138.4940 C   0  0  0  0  0  3  0  0  0  0  0  0
  183.3690  178.3750  145.4070 N   0  0  0  0  0  2  0  0  0  0  0  0
  184.5440  178.7130  146.1150 C   0  0  0  0  0  0  0  0  0  0  0  0
  187.6920  178.7350  143.0350 N   0  0  0  0  0  2  0  0  0  0  0  0
  183.2540  177.7120  138.2120 C   0  0  0  0  0  3  0  0  0  0  0  0
  187.7720  178.2930  144.3670 N   0  0  0  0  0  0  0  0  0  0  0  0
  185.6370  179.3780  145.3320 C   0  0  2  0  0  3  0  0  0  0  0  0
  184.6570  178.4650  147.3430 O   0  0  0  0  0  0  0  0  0  0  0  0
  189.4650  176.8480  147.2230 C   0  0  0  0  0  1  0  0  0  0  0  0
  184.0960  178.1570  139.2340 C   0  0  0  0  0  0  0  0  0  0  0  0
  187.5300  177.7430  139.5550 O   0  0  0  0  0  0  0  0  0  0  0  0
  185.5370  178.4540  138.9260 C   0  0  1  0  0  3  0  0  0  0  0  0
  183.4270  178.8770  144.0910 C   0  0  0  0  0  0  0  0  0  0  0  0
  181.7720  178.1070  142.2250 C   0  0  0  0  0  3  0  0  0  0  0  0
  182.5750  178.4900  143.1830 C   0  0  0  0  0  0  0  0  0  0  0  0
  187.3930  178.0890  146.5610 N   0  0  0  0  0  0  0  0  0  0  0  0
  184.9610  179.6860  143.6480 S   0  0  0  0  0  0  0  0  0  0  0  0
  187.7670  178.6280  140.5830 C   0  0  1  0  0  3  0  0  0  0  0  0
  186.9170  178.5600  145.3870 C   0  0  0  0  0  0  0  0  0  0  0  0
  178.9810  178.1910  140.4490 C   0  0  0  0  0  1  0  0  0  0  0  0
  179.9750  177.1180  140.0380 C   0  0  0  0  0  0  0  0  0  0  0  0
  179.4160  176.0360  139.1540 C   0  0  0  0  0  2  0  0  0  0  0  0
  179.7090  175.7550  140.6110 C   0  0  0  0  0  2  0  0  0  0  0  0
  189.3990  177.2250  141.9820 C   0  0  2  0  0  3  0  0  0  0  0  0
  191.7870  177.5070  141.2830 C   0  0  0  0  0  2  0  0  0  0  0  0
  192.7470  177.7610  140.1230 C   0  0  0  0  0  2  0  0  0  0  0  0
  192.5510  176.7240  139.0550 C   0  0  0  0  0  0  0  0  0  0  0  0
  193.5560  176.3800  138.3110 N   0  0  0  0  0  2  0  0  0  0  0  0
  190.7170  177.4980  137.7560 O   0  0  0  0  0  1  0  0  0  0  0  0
  191.1560  176.4520  138.5710 C   0  0  2  0  0  3  0  0  0  0  0  0
  190.2030  176.2750  139.7460 C   0  0  0  0  0  2  0  0  0  0  0  0
  190.3390  177.4010  140.7860 C   0  0  1  0  0  3  0  0  0  0  0  0
  189.3430  175.8550  142.6190 C   0  0  0  0  0  0  0  0  0  0  0  0
  188.2340  175.3490  142.9340 O   0  0  0  0  0  0  0  0  0  0  0  0
  191.3910  175.5650  143.9590 C   0  0  0  0  0  1  0  0  0  0  0  0
  190.5120  175.1550  142.9260 O   0  0  0  0  0  0  0  0  0  0  0  0
  1 24  1  0  0  0  0
  1 17  1  0  0  0  0
  2 29  1  0  0  0  0
  2  5  1  0  0  0  0
  3  5  2  0  0  0  0
  4  1  2  0  0  0  0
  5 22  1  0  0  0  0
  6  7  1  0  0  0  0
  7 19  1  6  0  0  0
  7 26  1  0  0  0  0
  8 32  1  1  0  0  0
  8 12  1  0  0  0  0
  9  2  2  0  0  0  0
 10 11  1  0  0  0  0
 11 16  2  0  0  0  0
 12 14  1  0  0  0  0
 13  9  1  0  0  0  0
 13 18  2  0  0  0  0
 14  4  1  0  0  0  0
 14 27  1  0  0  0  0
 15 25  1  6  0  0  0
 15 27  1  0  0  0  0
 15 11  1  0  0  0  0
 18  3  1  0  0  0  0
 20 18  1  1  0  0  0
 20  6  1  0  0  0  0
 20  7  1  0  0  0  0
 21 10  1  0  0  0  0
 22 23  2  0  0  0  0
 23 21  2  0  0  0  0
 25 21  1  0  0  0  0
 26 19  1  6  0  0  0
 26  8  1  0  0  0  0
 27 24  2  0  0  0  0
 29 28  1  0  0  0  0
 29 31  1  0  0  0  0
 30 29  1  0  0  0  0
 30 31  1  0  0  0  0
 32 41  1  6  0  0  0
 34 33  1  0  0  0  0
 35 34  1  0  0  0  0
 36 35  2  0  0  0  0
 38 37  1  6  0  0  0
 38 35  1  0  0  0  0
 38 39  1  0  0  0  0
 39 40  1  0  0  0  0
 40 33  1  0  0  0  0
 40 32  1  1  0  0  0
 41 44  1  0  0  0  0
 41 42  2  0  0  0  0
 44 43  1  0  0  0  0
M  END
>  <MODEL>
4

>  <REMARK>
 VINA RESULT:      -7.3      3.742      7.959
  Name = 
  5 active torsions:
  status: ('A' for Active; 'I' for Inactive)
    1  A    between atoms: C_1  and  C_38
    2  A    between atoms: C_1  and  O_43
    3  A    between atoms: C_5  and  C_12
    4  A    between atoms: C_13  and  C_38
    5  A    between atoms: C_38  and  C_42
                            x       y       z     vdW  Elec       q    Type
                         _______ _______ _______ _____ _____    ______ ____

>  <TORSDO>
F 5

$$$$
