=
 OpenBabel10222415543D

 29 32  0  0  1  0  0  0  0  0999 V2000
  188.6540  176.2850  138.7410 O   0  0  0  0  0  1  0  0  0  0  0  0
  190.6040  177.3660  139.6370 C   0  0  0  0  0  2  0  0  0  0  0  0
  188.3350  178.2130  140.0510 N   0  0  0  0  0  2  0  0  0  0  0  0
  188.2410  177.4230  141.2810 C   0  0  0  0  0  2  0  0  0  0  0  0
  189.1910  177.5430  139.0620 C   0  0  2  0  0  0  0  0  0  0  0  0
  190.5620  176.5930  140.9520 C   0  0  0  0  0  2  0  0  0  0  0  0
  189.6140  177.2810  141.9310 C   0  0  2  0  0  3  0  0  0  0  0  0
  188.1210  178.3970  137.0530 N   0  0  0  0  0  0  0  0  0  0  0  0
  189.2860  178.4540  137.8220 C   0  0  2  0  0  3  0  0  0  0  0  0
  189.4480  177.7560  136.6300 C   0  0  0  0  0  0  0  0  0  0  0  0
  190.1430  177.0850  135.8230 O   0  0  0  0  0  0  0  0  0  0  0  0
  186.7100  178.6710  136.8370 C   0  0  0  0  0  2  0  0  0  0  0  0
  185.8590  177.5720  137.4460 C   0  0  0  0  0  2  0  0  0  0  0  0
  185.1190  179.0700  139.2020 N   0  0  0  0  0  1  0  0  0  0  0  0
  184.6620  178.1660  138.1620 C   0  0  0  0  0  2  0  0  0  0  0  0
  189.4890  176.4840  143.1400 N   0  0  0  0  0  2  0  0  0  0  0  0
  190.3630  178.6630  143.7780 C   0  0  0  0  0  1  0  0  0  0  0  0
  189.8210  177.3340  144.2740 C   0  0  1  0  0  3  0  0  0  0  0  0
  187.2860  178.1750  148.1920 O   0  0  0  0  0  0  0  0  0  0  0  0
  188.6020  177.6360  146.4560 N   0  0  0  0  0  0  0  0  0  0  0  0
  188.5920  177.9850  148.7610 C   0  0  0  0  0  3  0  0  0  0  0  0
  189.5280  177.6400  147.5640 C   0  0  0  0  0  3  0  0  0  0  0  0
  186.5450  178.0610  145.7750 C   0  0  0  0  0  0  0  0  0  0  0  0
  187.4020  177.9540  146.8430 C   0  0  0  0  0  0  0  0  0  0  0  0
  187.3190  177.8110  144.6350 C   0  0  0  0  0  3  0  0  0  0  0  0
  188.6060  177.5430  145.1170 C   0  0  0  0  0  0  0  0  0  0  0  0
  185.1050  178.4510  145.8090 C   0  0  0  0  0  2  0  0  0  0  0  0
  183.2350  178.9510  144.5670 N   0  0  0  0  0  1  0  0  0  0  0  0
  184.6020  178.6630  144.4610 N   0  0  0  0  0  2  0  0  0  0  0  0
  2  6  1  0  0  0  0
  3  4  1  0  0  0  0
  4  7  1  0  0  0  0
  5  1  1  6  0  0  0
  5  2  1  0  0  0  0
  5  3  1  0  0  0  0
  6  7  1  0  0  0  0
  7 16  1  1  0  0  0
  8  9  1  0  0  0  0
  9 10  1  6  0  0  0
  9  5  1  0  0  0  0
 10  8  1  0  0  0  0
 11 10  2  0  0  0  0
 12  8  1  0  0  0  0
 12 13  1  0  0  0  0
 13 15  1  0  0  0  0
 15 14  1  0  0  0  0
 16 18  1  0  0  0  0
 18 17  1  6  0  0  0
 18 26  1  0  0  0  0
 19 21  1  0  0  0  0
 20 24  1  0  0  0  0
 20 22  1  0  0  0  0
 22 21  2  0  0  0  0
 23 27  1  0  0  0  0
 23 24  2  0  0  0  0
 24 19  1  0  0  0  0
 25 26  2  0  0  0  0
 25 23  1  0  0  0  0
 26 20  1  0  0  0  0
 29 28  1  0  0  0  0
 29 27  1  0  0  0  0
M  END
>  <MODEL>
1

>  <REMARK>
 VINA RESULT:      -7.1      0.000      0.000
  Name = 
  9 active torsions:
  status: ('A' for Active; 'I' for Inactive)
    1  A    between atoms: C_1  and  N_6
    2  A    between atoms: C_1  and  C_23
    3  A    between atoms: C_2  and  C_16
    4  A    between atoms: C_2  and  N_27
    5  A    between atoms: CA_8  and  C_15
    6  A    between atoms: C_10  and  C_23
    7  A    between atoms: N_17  and  C_28
    8  A    between atoms: N_17  and  C_29
    9  A    between atoms: C_24  and  C_28
                            x       y       z     vdW  Elec       q    Type
                         _______ _______ _______ _____ _____    ______ ____

>  <TORSDO>
F 9

$$$$
=
 OpenBabel10222415543D

 29 32  0  0  1  0  0  0  0  0999 V2000
  190.3200  177.8210  137.8330 O   0  0  0  0  0  1  0  0  0  0  0  0
  188.2460  177.0380  138.7600 C   0  0  0  0  0  2  0  0  0  0  0  0
  190.4090  176.0570  139.3870 N   0  0  0  0  0  2  0  0  0  0  0  0
  190.5300  176.9880  140.5130 C   0  0  0  0  0  2  0  0  0  0  0  0
  189.6570  176.6660  138.2820 C   0  0  2  0  0  0  0  0  0  0  0  0
  188.3090  177.9670  139.9690 C   0  0  0  0  0  2  0  0  0  0  0  0
  189.1510  177.3310  141.0710 C   0  0  2  0  0  3  0  0  0  0  0  0
  190.6530  175.6000  136.3370 N   0  0  0  0  0  0  0  0  0  0  0  0
  189.5250  175.6150  137.1610 C   0  0  2  0  0  3  0  0  0  0  0  0
  189.2950  176.1660  135.9060 C   0  0  0  0  0  0  0  0  0  0  0  0
  188.5500  176.7270  135.0600 O   0  0  0  0  0  0  0  0  0  0  0  0
  192.0580  175.3240  136.0880 C   0  0  0  0  0  2  0  0  0  0  0  0
  192.6600  174.5580  137.2520 C   0  0  0  0  0  2  0  0  0  0  0  0
  193.8190  176.6860  137.2970 N   0  0  0  0  0  1  0  0  0  0  0  0
  193.7730  175.3640  137.8940 C   0  0  0  0  0  2  0  0  0  0  0  0
  189.3040  178.2630  142.1760 N   0  0  0  0  0  2  0  0  0  0  0  0
  191.4680  178.6760  143.2090 C   0  0  0  0  0  1  0  0  0  0  0  0
  190.2980  177.7170  143.0880 C   0  0  1  0  0  3  0  0  0  0  0  0
  190.0800  176.6890  147.7120 O   0  0  0  0  0  0  0  0  0  0  0  0
  190.3180  177.0050  145.5040 N   0  0  0  0  0  0  0  0  0  0  0  0
  191.4530  176.3650  147.4370 C   0  0  0  0  0  3  0  0  0  0  0  0
  191.6460  176.6100  145.9110 C   0  0  0  0  0  3  0  0  0  0  0  0
  188.2770  177.5390  146.1540 C   0  0  0  0  0  0  0  0  0  0  0  0
  189.5080  177.0550  146.5200 C   0  0  0  0  0  0  0  0  0  0  0  0
  188.3710  177.8360  144.7880 C   0  0  0  0  0  3  0  0  0  0  0  0
  189.6740  177.4770  144.4240 C   0  0  0  0  0  0  0  0  0  0  0  0
  187.1030  177.7850  147.0420 C   0  0  0  0  0  2  0  0  0  0  0  0
  185.1280  178.9370  146.7980 N   0  0  0  0  0  1  0  0  0  0  0  0
  185.8820  177.8880  146.2570 N   0  0  0  0  0  2  0  0  0  0  0  0
  2  6  1  0  0  0  0
  3  4  1  0  0  0  0
  4  7  1  0  0  0  0
  5  1  1  6  0  0  0
  5  2  1  0  0  0  0
  5  3  1  0  0  0  0
  6  7  1  0  0  0  0
  7 16  1  1  0  0  0
  8  9  1  0  0  0  0
  9 10  1  6  0  0  0
  9  5  1  0  0  0  0
 10  8  1  0  0  0  0
 11 10  2  0  0  0  0
 12  8  1  0  0  0  0
 12 13  1  0  0  0  0
 13 15  1  0  0  0  0
 14 15  1  0  0  0  0
 16 18  1  0  0  0  0
 18 17  1  1  0  0  0
 18 26  1  0  0  0  0
 20 22  1  0  0  0  0
 20 24  1  0  0  0  0
 21 19  1  0  0  0  0
 22 21  2  0  0  0  0
 23 24  2  0  0  0  0
 23 27  1  0  0  0  0
 24 19  1  0  0  0  0
 25 23  1  0  0  0  0
 26 25  2  0  0  0  0
 26 20  1  0  0  0  0
 29 28  1  0  0  0  0
 29 27  1  0  0  0  0
M  END
>  <MODEL>
2

>  <REMARK>
 VINA RESULT:      -7.1      2.470      3.778
  Name = 
  9 active torsions:
  status: ('A' for Active; 'I' for Inactive)
    1  A    between atoms: C_1  and  N_6
    2  A    between atoms: C_1  and  C_23
    3  A    between atoms: C_2  and  C_16
    4  A    between atoms: C_2  and  N_27
    5  A    between atoms: CA_8  and  C_15
    6  A    between atoms: C_10  and  C_23
    7  A    between atoms: N_17  and  C_28
    8  A    between atoms: N_17  and  C_29
    9  A    between atoms: C_24  and  C_28
                            x       y       z     vdW  Elec       q    Type
                         _______ _______ _______ _____ _____    ______ ____

>  <TORSDO>
F 9

$$$$
=
 OpenBabel10222415543D

 29 32  0  0  1  0  0  0  0  0999 V2000
  190.1490  178.6200  144.2220 O   0  0  0  0  0  1  0  0  0  0  0  0
  191.4170  176.7110  143.4970 C   0  0  0  0  0  2  0  0  0  0  0  0
  189.0040  176.9100  143.0810 N   0  0  0  0  0  2  0  0  0  0  0  0
  189.2560  177.5380  141.7820 C   0  0  0  0  0  2  0  0  0  0  0  0
  190.0750  177.2290  144.0350 C   0  0  2  0  0  0  0  0  0  0  0  0
  191.7080  177.2930  142.1160 C   0  0  0  0  0  2  0  0  0  0  0  0
  190.5470  176.9990  141.1710 C   0  0  2  0  0  3  0  0  0  0  0  0
  189.0070  177.2850  146.2190 N   0  0  0  0  0  0  0  0  0  0  0  0
  189.7700  176.4940  145.3550 C   0  0  2  0  0  3  0  0  0  0  0  0
  190.4930  176.9760  146.4410 C   0  0  0  0  0  0  0  0  0  0  0  0
  191.5590  177.0940  147.0990 O   0  0  0  0  0  0  0  0  0  0  0  0
  187.7720  177.9520  146.5950 C   0  0  0  0  0  2  0  0  0  0  0  0
  186.6670  177.6100  145.6120 C   0  0  0  0  0  2  0  0  0  0  0  0
  185.6630  179.2720  147.0630 N   0  0  0  0  0  1  0  0  0  0  0  0
  185.4420  178.4640  145.8780 C   0  0  0  0  0  2  0  0  0  0  0  0
  190.7750  177.6490  139.8910 N   0  0  0  0  0  2  0  0  0  0  0  0
  189.6360  177.6550  137.7410 C   0  0  0  0  0  1  0  0  0  0  0  0
  190.2170  176.7980  138.8510 C   0  0  1  0  0  3  0  0  0  0  0  0
  192.1220  173.2810  136.3040 O   0  0  0  0  0  0  0  0  0  0  0  0
  191.0630  174.8050  137.5650 N   0  0  0  0  0  0  0  0  0  0  0  0
  190.7230  173.0170  136.1070 C   0  0  0  0  0  3  0  0  0  0  0  0
  189.9700  174.0880  136.9520 C   0  0  0  0  0  3  0  0  0  0  0  0
  193.2500  175.0970  137.6570 C   0  0  0  0  0  0  0  0  0  0  0  0
  192.2120  174.3450  137.1650 C   0  0  0  0  0  0  0  0  0  0  0  0
  192.6600  176.1270  138.4010 C   0  0  0  0  0  3  0  0  0  0  0  0
  191.2810  175.8950  138.3170 C   0  0  0  0  0  0  0  0  0  0  0  0
  194.7060  174.9130  137.3860 C   0  0  0  0  0  2  0  0  0  0  0  0
  195.4970  173.3960  138.9220 N   0  0  0  0  0  1  0  0  0  0  0  0
  195.4420  174.7650  138.6320 N   0  0  0  0  0  2  0  0  0  0  0  0
  2  5  1  0  0  0  0
  3  5  1  0  0  0  0
  4  3  1  0  0  0  0
  5  1  1  1  0  0  0
  5  9  1  0  0  0  0
  6  2  1  0  0  0  0
  7 16  1  6  0  0  0
  7  4  1  0  0  0  0
  7  6  1  0  0  0  0
  8 10  1  0  0  0  0
  8 12  1  0  0  0  0
  9  8  1  0  0  0  0
  9 10  1  1  0  0  0
 10 11  2  0  0  0  0
 13 15  1  0  0  0  0
 13 12  1  0  0  0  0
 15 14  1  0  0  0  0
 18 17  1  6  0  0  0
 18 16  1  0  0  0  0
 19 24  1  0  0  0  0
 20 26  1  0  0  0  0
 21 19  1  0  0  0  0
 21 22  2  0  0  0  0
 22 20  1  0  0  0  0
 23 25  1  0  0  0  0
 24 20  1  0  0  0  0
 24 23  2  0  0  0  0
 26 25  2  0  0  0  0
 26 18  1  0  0  0  0
 27 23  1  0  0  0  0
 27 29  1  0  0  0  0
 29 28  1  0  0  0  0
M  END
>  <MODEL>
3

>  <REMARK>
 VINA RESULT:      -7.0      3.467      9.033
  Name = 
  9 active torsions:
  status: ('A' for Active; 'I' for Inactive)
    1  A    between atoms: C_1  and  N_6
    2  A    between atoms: C_1  and  C_23
    3  A    between atoms: C_2  and  C_16
    4  A    between atoms: C_2  and  N_27
    5  A    between atoms: CA_8  and  C_15
    6  A    between atoms: C_10  and  C_23
    7  A    between atoms: N_17  and  C_28
    8  A    between atoms: N_17  and  C_29
    9  A    between atoms: C_24  and  C_28
                            x       y       z     vdW  Elec       q    Type
                         _______ _______ _______ _____ _____    ______ ____

>  <TORSDO>
F 9

$$$$
=
 OpenBabel10222415543D

 29 32  0  0  1  0  0  0  0  0999 V2000
  189.0020  179.4320  138.0540 O   0  0  0  0  0  1  0  0  0  0  0  0
  187.2110  178.1250  138.9810 C   0  0  0  0  0  2  0  0  0  0  0  0
  189.4250  177.1650  138.5190 N   0  0  0  0  0  2  0  0  0  0  0  0
  189.8670  177.4750  139.8810 C   0  0  0  0  0  2  0  0  0  0  0  0
  188.4340  178.1460  138.0540 C   0  0  2  0  0  0  0  0  0  0  0  0
  187.6200  178.3890  140.4270 C   0  0  0  0  0  2  0  0  0  0  0  0
  188.6950  177.3940  140.8550 C   0  0  2  0  0  3  0  0  0  0  0  0
  187.7680  176.3490  136.5580 N   0  0  0  0  0  0  0  0  0  0  0  0
  187.9780  177.7280  136.6420 C   0  0  2  0  0  3  0  0  0  0  0  0
  188.9600  177.0660  135.9130 C   0  0  0  0  0  0  0  0  0  0  0  0
  190.0290  177.0540  135.2480 O   0  0  0  0  0  0  0  0  0  0  0  0
  187.0300  175.1400  136.8840 C   0  0  0  0  0  2  0  0  0  0  0  0
  185.5440  175.4360  136.9690 C   0  0  0  0  0  2  0  0  0  0  0  0
  185.1130  173.2180  137.8460 N   0  0  0  0  0  1  0  0  0  0  0  0
  184.7410  174.1600  136.8060 C   0  0  0  0  0  2  0  0  0  0  0  0
  189.1630  177.7170  142.1920 N   0  0  0  0  0  2  0  0  0  0  0  0
  190.3910  175.8620  143.1780 C   0  0  0  0  0  1  0  0  0  0  0  0
  189.0340  176.5230  143.0130 C   0  0  1  0  0  3  0  0  0  0  0  0
  188.9970  177.6740  147.6130 O   0  0  0  0  0  0  0  0  0  0  0  0
  189.1570  176.9730  145.4880 N   0  0  0  0  0  0  0  0  0  0  0  0
  190.3770  177.3060  147.4460 C   0  0  0  0  0  3  0  0  0  0  0  0
  190.5140  176.8460  145.9640 C   0  0  0  0  0  3  0  0  0  0  0  0
  187.1100  177.6750  145.9270 C   0  0  0  0  0  0  0  0  0  0  0  0
  188.3750  177.4470  146.4110 C   0  0  0  0  0  0  0  0  0  0  0  0
  187.1510  177.3290  144.5700 C   0  0  0  0  0  3  0  0  0  0  0  0
  188.4600  176.8880  144.3430 C   0  0  0  0  0  0  0  0  0  0  0  0
  185.9510  178.2540  146.6660 C   0  0  0  0  0  2  0  0  0  0  0  0
  183.9600  178.9760  145.7700 N   0  0  0  0  0  1  0  0  0  0  0  0
  185.3180  179.3020  145.8800 N   0  0  0  0  0  2  0  0  0  0  0  0
  2  6  1  0  0  0  0
  3  4  1  0  0  0  0
  4  7  1  0  0  0  0
  5  1  1  6  0  0  0
  5  3  1  0  0  0  0
  5  2  1  0  0  0  0
  6  7  1  0  0  0  0
  7 16  1  1  0  0  0
  8  9  1  0  0  0  0
  8 12  1  0  0  0  0
  9 10  1  6  0  0  0
  9  5  1  0  0  0  0
 10  8  1  0  0  0  0
 11 10  2  0  0  0  0
 12 13  1  0  0  0  0
 15 13  1  0  0  0  0
 15 14  1  0  0  0  0
 16 18  1  0  0  0  0
 18 17  1  1  0  0  0
 18 26  1  0  0  0  0
 20 22  1  0  0  0  0
 20 24  1  0  0  0  0
 21 19  1  0  0  0  0
 22 21  2  0  0  0  0
 23 24  2  0  0  0  0
 23 27  1  0  0  0  0
 24 19  1  0  0  0  0
 25 23  1  0  0  0  0
 26 25  2  0  0  0  0
 26 20  1  0  0  0  0
 28 29  1  0  0  0  0
 29 27  1  0  0  0  0
M  END
>  <MODEL>
4

>  <REMARK>
 VINA RESULT:      -7.0      2.040      2.403
  Name = 
  9 active torsions:
  status: ('A' for Active; 'I' for Inactive)
    1  A    between atoms: C_1  and  N_6
    2  A    between atoms: C_1  and  C_23
    3  A    between atoms: C_2  and  C_16
    4  A    between atoms: C_2  and  N_27
    5  A    between atoms: CA_8  and  C_15
    6  A    between atoms: C_10  and  C_23
    7  A    between atoms: N_17  and  C_28
    8  A    between atoms: N_17  and  C_29
    9  A    between atoms: C_24  and  C_28
                            x       y       z     vdW  Elec       q    Type
                         _______ _______ _______ _____ _____    ______ ____

>  <TORSDO>
F 9

$$$$
=
 OpenBabel10222415543D

 29 32  0  0  1  0  0  0  0  0999 V2000
  189.0440  179.4570  137.4820 O   0  0  0  0  0  1  0  0  0  0  0  0
  187.3940  177.8990  138.2710 C   0  0  0  0  0  2  0  0  0  0  0  0
  189.7690  177.3020  138.0850 N   0  0  0  0  0  2  0  0  0  0  0  0
  190.0040  177.7140  139.4720 C   0  0  0  0  0  2  0  0  0  0  0  0
  188.6930  178.0970  137.4770 C   0  0  2  0  0  0  0  0  0  0  0  0
  187.5940  178.2630  139.7400 C   0  0  0  0  0  2  0  0  0  0  0  0
  188.7600  177.4680  140.3200 C   0  0  2  0  0  3  0  0  0  0  0  0
  188.2300  176.1970  136.0330 N   0  0  0  0  0  0  0  0  0  0  0  0
  188.4670  177.5730  136.0450 C   0  0  2  0  0  3  0  0  0  0  0  0
  189.5360  176.8360  135.5470 C   0  0  0  0  0  0  0  0  0  0  0  0
  190.7000  176.7500  135.0770 O   0  0  0  0  0  0  0  0  0  0  0  0
  187.4080  175.0320  136.3190 C   0  0  0  0  0  2  0  0  0  0  0  0
  185.9380  175.4090  136.3130 C   0  0  0  0  0  2  0  0  0  0  0  0
  184.9810  177.0650  134.8230 N   0  0  0  0  0  1  0  0  0  0  0  0
  185.4750  175.7020  134.8990 C   0  0  0  0  0  2  0  0  0  0  0  0
  189.0210  177.8970  141.6840 N   0  0  0  0  0  2  0  0  0  0  0  0
  189.8530  176.0340  143.0100 C   0  0  0  0  0  1  0  0  0  0  0  0
  188.6260  176.8170  142.5760 C   0  0  1  0  0  3  0  0  0  0  0  0
  185.0310  178.5970  145.1040 O   0  0  0  0  0  0  0  0  0  0  0  0
  186.6730  177.8910  143.7480 N   0  0  0  0  0  0  0  0  0  0  0  0
  184.4560  178.6100  143.7870 C   0  0  0  0  0  3  0  0  0  0  0  0
  185.5740  178.0920  142.8340 C   0  0  0  0  0  3  0  0  0  0  0  0
  187.3320  177.8590  145.8550 C   0  0  0  0  0  0  0  0  0  0  0  0
  186.3240  178.1570  144.9720 C   0  0  0  0  0  0  0  0  0  0  0  0
  188.3770  177.3340  145.0840 C   0  0  0  0  0  3  0  0  0  0  0  0
  187.9150  177.3810  143.7620 C   0  0  0  0  0  0  0  0  0  0  0  0
  187.2950  177.9830  147.3420 C   0  0  0  0  0  2  0  0  0  0  0  0
  189.1250  178.2570  148.7070 N   0  0  0  0  0  1  0  0  0  0  0  0
  188.4380  177.3090  147.9380 N   0  0  0  0  0  2  0  0  0  0  0  0
  2  6  1  0  0  0  0
  3  4  1  0  0  0  0
  4  7  1  0  0  0  0
  5  1  1  6  0  0  0
  5  3  1  0  0  0  0
  5  2  1  0  0  0  0
  6  7  1  0  0  0  0
  7 16  1  1  0  0  0
  8  9  1  0  0  0  0
  8 12  1  0  0  0  0
  9 10  1  6  0  0  0
  9  5  1  0  0  0  0
 10  8  1  0  0  0  0
 11 10  2  0  0  0  0
 13 12  1  0  0  0  0
 14 15  1  0  0  0  0
 15 13  1  0  0  0  0
 16 18  1  0  0  0  0
 18 17  1  1  0  0  0
 18 26  1  0  0  0  0
 20 26  1  0  0  0  0
 20 24  1  0  0  0  0
 21 19  1  0  0  0  0
 22 20  1  0  0  0  0
 22 21  2  0  0  0  0
 23 27  1  0  0  0  0
 24 19  1  0  0  0  0
 24 23  2  0  0  0  0
 25 23  1  0  0  0  0
 26 25  2  0  0  0  0
 27 29  1  0  0  0  0
 29 28  1  0  0  0  0
M  END
>  <MODEL>
5

>  <REMARK>
 VINA RESULT:      -6.8      2.129      3.482
  Name = 
  9 active torsions:
  status: ('A' for Active; 'I' for Inactive)
    1  A    between atoms: C_1  and  N_6
    2  A    between atoms: C_1  and  C_23
    3  A    between atoms: C_2  and  C_16
    4  A    between atoms: C_2  and  N_27
    5  A    between atoms: CA_8  and  C_15
    6  A    between atoms: C_10  and  C_23
    7  A    between atoms: N_17  and  C_28
    8  A    between atoms: N_17  and  C_29
    9  A    between atoms: C_24  and  C_28
                            x       y       z     vdW  Elec       q    Type
                         _______ _______ _______ _____ _____    ______ ____

>  <TORSDO>
F 9

$$$$
=
 OpenBabel10222415543D

 29 32  0  0  1  0  0  0  0  0999 V2000
  188.1190  176.4000  137.9820 O   0  0  0  0  0  1  0  0  0  0  0  0
  190.2600  177.0880  138.8290 C   0  0  0  0  0  2  0  0  0  0  0  0
  188.3410  178.6190  138.7310 N   0  0  0  0  0  2  0  0  0  0  0  0
  187.9490  178.2510  140.0940 C   0  0  0  0  0  2  0  0  0  0  0  0
  188.9990  177.4940  138.0530 C   0  0  2  0  0  0  0  0  0  0  0  0
  189.9190  176.7440  140.2760 C   0  0  0  0  0  2  0  0  0  0  0  0
  189.1800  177.9090  140.9290 C   0  0  2  0  0  3  0  0  0  0  0  0
  188.4450  177.7030  135.6940 N   0  0  0  0  0  0  0  0  0  0  0  0
  189.4290  177.9690  136.6510 C   0  0  2  0  0  3  0  0  0  0  0  0
  189.7670  176.9310  135.7900 C   0  0  0  0  0  0  0  0  0  0  0  0
  190.5480  176.0260  135.3970 O   0  0  0  0  0  0  0  0  0  0  0  0
  187.1400  177.9290  135.0970 C   0  0  0  0  0  2  0  0  0  0  0  0
  186.4730  176.6050  134.7710 C   0  0  0  0  0  2  0  0  0  0  0  0
  185.1600  177.4810  136.6120 N   0  0  0  0  0  1  0  0  0  0  0  0
  185.2480  176.4030  135.6430 C   0  0  0  0  0  2  0  0  0  0  0  0
  188.7580  177.5380  142.2690 N   0  0  0  0  0  2  0  0  0  0  0  0
  190.8380  178.6490  142.8700 C   0  0  0  0  0  1  0  0  0  0  0  0
  189.9470  177.4420  143.1030 C   0  0  1  0  0  3  0  0  0  0  0  0
  190.4550  176.7720  147.7690 O   0  0  0  0  0  0  0  0  0  0  0  0
  190.3320  176.9070  145.5340 N   0  0  0  0  0  0  0  0  0  0  0  0
  191.7340  176.3160  147.2990 C   0  0  0  0  0  3  0  0  0  0  0  0
  191.6790  176.4320  145.7470 C   0  0  0  0  0  3  0  0  0  0  0  0
  188.4750  177.6550  146.4650 C   0  0  0  0  0  0  0  0  0  0  0  0
  189.7140  177.0980  146.6620 C   0  0  0  0  0  0  0  0  0  0  0  0
  188.3530  177.8440  145.0820 C   0  0  0  0  0  3  0  0  0  0  0  0
  189.5470  177.3510  144.5390 C   0  0  0  0  0  0  0  0  0  0  0  0
  187.4920  178.0610  147.5110 C   0  0  0  0  0  2  0  0  0  0  0  0
  185.6800  179.3780  146.9850 N   0  0  0  0  0  1  0  0  0  0  0  0
  186.1410  178.0540  146.9710 N   0  0  0  0  0  2  0  0  0  0  0  0
  2  6  1  0  0  0  0
  3  4  1  0  0  0  0
  4  7  1  0  0  0  0
  5  1  1  6  0  0  0
  5  3  1  0  0  0  0
  5  2  1  0  0  0  0
  6  7  1  0  0  0  0
  7 16  1  1  0  0  0
  8 10  1  0  0  0  0
  8  9  1  0  0  0  0
  9 10  1  6  0  0  0
  9  5  1  0  0  0  0
 11 10  2  0  0  0  0
 12  8  1  0  0  0  0
 13 12  1  0  0  0  0
 13 15  1  0  0  0  0
 15 14  1  0  0  0  0
 16 18  1  0  0  0  0
 18 17  1  1  0  0  0
 18 26  1  0  0  0  0
 20 22  1  0  0  0  0
 20 24  1  0  0  0  0
 21 19  1  0  0  0  0
 22 21  2  0  0  0  0
 23 24  2  0  0  0  0
 23 27  1  0  0  0  0
 24 19  1  0  0  0  0
 25 23  1  0  0  0  0
 26 25  2  0  0  0  0
 26 20  1  0  0  0  0
 29 28  1  0  0  0  0
 29 27  1  0  0  0  0
M  END
>  <MODEL>
6

>  <REMARK>
 VINA RESULT:      -6.7      1.854      2.166
  Name = 
  9 active torsions:
  status: ('A' for Active; 'I' for Inactive)
    1  A    between atoms: C_1  and  N_6
    2  A    between atoms: C_1  and  C_23
    3  A    between atoms: C_2  and  C_16
    4  A    between atoms: C_2  and  N_27
    5  A    between atoms: CA_8  and  C_15
    6  A    between atoms: C_10  and  C_23
    7  A    between atoms: N_17  and  C_28
    8  A    between atoms: N_17  and  C_29
    9  A    between atoms: C_24  and  C_28
                            x       y       z     vdW  Elec       q    Type
                         _______ _______ _______ _____ _____    ______ ____

>  <TORSDO>
F 9

$$$$
=
 OpenBabel10222415543D

 29 32  0  0  1  0  0  0  0  0999 V2000
  189.8190  178.6120  138.7700 O   0  0  0  0  0  1  0  0  0  0  0  0
  187.9300  177.6400  139.8920 C   0  0  0  0  0  2  0  0  0  0  0  0
  190.1200  176.5290  139.8220 N   0  0  0  0  0  2  0  0  0  0  0  0
  190.5080  177.1660  141.0830 C   0  0  0  0  0  2  0  0  0  0  0  0
  189.1980  177.3860  139.0640 C   0  0  2  0  0  0  0  0  0  0  0  0
  188.2780  178.2550  141.2440 C   0  0  0  0  0  2  0  0  0  0  0  0
  189.2860  177.3720  141.9740 C   0  0  2  0  0  3  0  0  0  0  0  0
  189.8150  176.6580  136.8280 N   0  0  0  0  0  0  0  0  0  0  0  0
  188.7940  176.6320  137.7820 C   0  0  2  0  0  3  0  0  0  0  0  0
  188.5200  177.4700  136.7060 C   0  0  0  0  0  0  0  0  0  0  0  0
  187.7840  178.2910  136.0990 O   0  0  0  0  0  0  0  0  0  0  0  0
  191.1290  176.2700  136.3430 C   0  0  0  0  0  2  0  0  0  0  0  0
  191.6650  175.1010  137.1480 C   0  0  0  0  0  2  0  0  0  0  0  0
  193.2250  176.7500  137.9970 N   0  0  0  0  0  1  0  0  0  0  0  0
  193.0950  175.3670  137.5770 C   0  0  0  0  0  2  0  0  0  0  0  0
  189.7010  178.0140  143.2110 N   0  0  0  0  0  2  0  0  0  0  0  0
  190.9540  177.0330  145.0510 C   0  0  0  0  0  1  0  0  0  0  0  0
  189.6520  177.0190  144.2710 C   0  0  1  0  0  3  0  0  0  0  0  0
  187.3820  178.2350  148.2530 O   0  0  0  0  0  0  0  0  0  0  0  0
  188.5820  177.5320  146.4930 N   0  0  0  0  0  0  0  0  0  0  0  0
  188.7270  178.1130  148.7450 C   0  0  0  0  0  3  0  0  0  0  0  0
  189.5820  177.6550  147.5270 C   0  0  0  0  0  3  0  0  0  0  0  0
  186.4770  177.8720  145.9180 C   0  0  0  0  0  0  0  0  0  0  0  0
  187.4070  177.8790  146.9280 C   0  0  0  0  0  0  0  0  0  0  0  0
  187.1740  177.5120  144.7570 C   0  0  0  0  0  3  0  0  0  0  0  0
  188.4950  177.3040  145.1720 C   0  0  0  0  0  0  0  0  0  0  0  0
  185.0380  178.2530  146.0130 C   0  0  0  0  0  2  0  0  0  0  0  0
  184.2100  179.4230  144.2150 N   0  0  0  0  0  1  0  0  0  0  0  0
  184.8250  179.5830  145.4630 N   0  0  0  0  0  2  0  0  0  0  0  0
  2  6  1  0  0  0  0
  3  4  1  0  0  0  0
  4  7  1  0  0  0  0
  5  1  1  6  0  0  0
  5  3  1  0  0  0  0
  5  2  1  0  0  0  0
  6  7  1  0  0  0  0
  7 16  1  1  0  0  0
  8  9  1  0  0  0  0
  9 10  1  6  0  0  0
  9  5  1  0  0  0  0
 10  8  1  0  0  0  0
 11 10  2  0  0  0  0
 12  8  1  0  0  0  0
 12 13  1  0  0  0  0
 13 15  1  0  0  0  0
 15 14  1  0  0  0  0
 16 18  1  0  0  0  0
 18 17  1  1  0  0  0
 18 26  1  0  0  0  0
 19 21  1  0  0  0  0
 20 24  1  0  0  0  0
 20 22  1  0  0  0  0
 22 21  2  0  0  0  0
 23 27  1  0  0  0  0
 23 24  2  0  0  0  0
 24 19  1  0  0  0  0
 25 26  2  0  0  0  0
 25 23  1  0  0  0  0
 26 20  1  0  0  0  0
 28 29  1  0  0  0  0
 29 27  1  0  0  0  0
M  END
>  <MODEL>
7

>  <REMARK>
 VINA RESULT:      -6.6      1.873      3.103
  Name = 
  9 active torsions:
  status: ('A' for Active; 'I' for Inactive)
    1  A    between atoms: C_1  and  N_6
    2  A    between atoms: C_1  and  C_23
    3  A    between atoms: C_2  and  C_16
    4  A    between atoms: C_2  and  N_27
    5  A    between atoms: CA_8  and  C_15
    6  A    between atoms: C_10  and  C_23
    7  A    between atoms: N_17  and  C_28
    8  A    between atoms: N_17  and  C_29
    9  A    between atoms: C_24  and  C_28
                            x       y       z     vdW  Elec       q    Type
                         _______ _______ _______ _____ _____    ______ ____

>  <TORSDO>
F 9

$$$$
=
 OpenBabel10222415543D

 29 32  0  0  1  0  0  0  0  0999 V2000
  184.3990  180.3040  139.1420 O   0  0  0  0  0  1  0  0  0  0  0  0
  184.0340  178.6270  140.8240 C   0  0  0  0  0  2  0  0  0  0  0  0
  185.4010  178.1980  138.8280 N   0  0  0  0  0  2  0  0  0  0  0  0
  186.6120  178.6120  139.5420 C   0  0  0  0  0  2  0  0  0  0  0  0
  184.2240  178.9220  139.3300 C   0  0  2  0  0  0  0  0  0  0  0  0
  185.2880  178.9890  141.6130 C   0  0  0  0  0  2  0  0  0  0  0  0
  186.5000  178.2710  141.0250 C   0  0  2  0  0  3  0  0  0  0  0  0
  181.8190  178.5680  139.3200 N   0  0  0  0  0  0  0  0  0  0  0  0
  182.9870  178.3980  138.5730 C   0  0  2  0  0  3  0  0  0  0  0  0
  182.4850  177.2070  139.0850 C   0  0  0  0  0  0  0  0  0  0  0  0
  182.5400  175.9610  139.2530 O   0  0  0  0  0  0  0  0  0  0  0  0
  180.7890  179.3980  139.9220 C   0  0  0  0  0  2  0  0  0  0  0  0
  180.2290  178.7270  141.1630 C   0  0  0  0  0  2  0  0  0  0  0  0
  180.0760  180.5160  142.7910 N   0  0  0  0  0  1  0  0  0  0  0  0
  180.8340  179.3380  142.4120 C   0  0  0  0  0  2  0  0  0  0  0  0
  187.7090  178.7030  141.7060 N   0  0  0  0  0  2  0  0  0  0  0  0
  189.8600  177.5650  141.7520 C   0  0  0  0  0  1  0  0  0  0  0  0
  188.4040  177.5160  142.1820 C   0  0  1  0  0  3  0  0  0  0  0  0
  189.8710  177.2280  146.6820 O   0  0  0  0  0  0  0  0  0  0  0  0
  189.3210  177.2080  144.5070 N   0  0  0  0  0  0  0  0  0  0  0  0
  191.1090  176.9980  145.9880 C   0  0  0  0  0  3  0  0  0  0  0  0
  190.7510  177.0110  144.4720 C   0  0  0  0  0  3  0  0  0  0  0  0
  187.5530  177.6410  145.7560 C   0  0  0  0  0  0  0  0  0  0  0  0
  188.8930  177.3420  145.7270 C   0  0  0  0  0  0  0  0  0  0  0  0
  187.1480  177.7220  144.4180 C   0  0  0  0  0  3  0  0  0  0  0  0
  188.2970  177.4350  143.6700 C   0  0  0  0  0  0  0  0  0  0  0  0
  186.7150  177.9120  146.9600 C   0  0  0  0  0  2  0  0  0  0  0  0
  184.5570  178.6270  146.6090 N   0  0  0  0  0  1  0  0  0  0  0  0
  185.8760  179.0810  146.7450 N   0  0  0  0  0  2  0  0  0  0  0  0
  2  6  1  0  0  0  0
  3  5  1  0  0  0  0
  3  4  1  0  0  0  0
  4  7  1  0  0  0  0
  5  1  1  6  0  0  0
  5  2  1  0  0  0  0
  7  6  1  0  0  0  0
  7 16  1  1  0  0  0
  8 12  1  0  0  0  0
  9 10  1  1  0  0  0
  9  8  1  0  0  0  0
  9  5  1  0  0  0  0
 10 11  2  0  0  0  0
 10  8  1  0  0  0  0
 12 13  1  0  0  0  0
 13 15  1  0  0  0  0
 15 14  1  0  0  0  0
 16 18  1  0  0  0  0
 18 17  1  1  0  0  0
 18 26  1  0  0  0  0
 20 24  1  0  0  0  0
 21 19  1  0  0  0  0
 22 20  1  0  0  0  0
 22 21  2  0  0  0  0
 23 27  1  0  0  0  0
 24 23  2  0  0  0  0
 24 19  1  0  0  0  0
 25 23  1  0  0  0  0
 26 25  2  0  0  0  0
 26 20  1  0  0  0  0
 28 29  1  0  0  0  0
 29 27  1  0  0  0  0
M  END
>  <MODEL>
8

>  <REMARK>
 VINA RESULT:      -6.5      2.981      4.678
  Name = 
  9 active torsions:
  status: ('A' for Active; 'I' for Inactive)
    1  A    between atoms: C_1  and  N_6
    2  A    between atoms: C_1  and  C_23
    3  A    between atoms: C_2  and  C_16
    4  A    between atoms: C_2  and  N_27
    5  A    between atoms: CA_8  and  C_15
    6  A    between atoms: C_10  and  C_23
    7  A    between atoms: N_17  and  C_28
    8  A    between atoms: N_17  and  C_29
    9  A    between atoms: C_24  and  C_28
                            x       y       z     vdW  Elec       q    Type
                         _______ _______ _______ _____ _____    ______ ____

>  <TORSDO>
F 9

$$$$
=
 OpenBabel10222415543D

 29 32  0  0  1  0  0  0  0  0999 V2000
  190.3740  175.6310  142.7760 O   0  0  0  0  0  1  0  0  0  0  0  0
  189.4320  177.8310  142.5520 C   0  0  0  0  0  2  0  0  0  0  0  0
  191.5300  177.1910  141.4460 N   0  0  0  0  0  2  0  0  0  0  0  0
  190.7980  176.7840  140.2440 C   0  0  0  0  0  2  0  0  0  0  0  0
  190.7120  176.9900  142.6510 C   0  0  2  0  0  0  0  0  0  0  0  0
  188.6520  177.4870  141.2860 C   0  0  0  0  0  2  0  0  0  0  0  0
  189.5500  177.6440  140.0620 C   0  0  2  0  0  3  0  0  0  0  0  0
  190.7310  177.5740  145.0110 N   0  0  0  0  0  0  0  0  0  0  0  0
  191.5240  177.4870  143.8640 C   0  0  2  0  0  3  0  0  0  0  0  0
  191.2310  178.7960  144.2300 C   0  0  0  0  0  0  0  0  0  0  0  0
  191.2990  180.0400  144.0510 O   0  0  0  0  0  0  0  0  0  0  0  0
  189.9610  176.9760  146.0880 C   0  0  0  0  0  2  0  0  0  0  0  0
  188.5550  177.5480  146.1120 C   0  0  0  0  0  2  0  0  0  0  0  0
  189.0570  178.2270  148.3840 N   0  0  0  0  0  1  0  0  0  0  0  0
  188.0420  177.6270  147.5370 C   0  0  0  0  0  2  0  0  0  0  0  0
  188.8410  177.2090  138.8700 N   0  0  0  0  0  2  0  0  0  0  0  0
  188.8690  178.8930  137.1140 C   0  0  0  0  0  1  0  0  0  0  0  0
  188.1310  178.3570  138.3280 C   0  0  1  0  0  3  0  0  0  0  0  0
  183.3990  178.1930  138.5890 O   0  0  0  0  0  0  0  0  0  0  0  0
  185.6400  178.2430  138.6810 N   0  0  0  0  0  0  0  0  0  0  0  0
  183.7050  178.8820  139.8130 C   0  0  0  0  0  3  0  0  0  0  0  0
  185.2590  178.9540  139.8790 C   0  0  0  0  0  3  0  0  0  0  0  0
  184.9560  177.2940  136.8090 C   0  0  0  0  0  0  0  0  0  0  0  0
  184.5960  177.8690  138.0020 C   0  0  0  0  0  0  0  0  0  0  0  0
  186.3550  177.3580  136.7580 C   0  0  0  0  0  3  0  0  0  0  0  0
  186.7380  177.9590  137.9630 C   0  0  0  0  0  0  0  0  0  0  0  0
  184.0460  176.7840  135.7420 C   0  0  0  0  0  2  0  0  0  0  0  0
  181.8790  176.0820  136.0600 N   0  0  0  0  0  1  0  0  0  0  0  0
  183.2150  175.7050  136.2540 N   0  0  0  0  0  2  0  0  0  0  0  0
  2  5  1  0  0  0  0
  3  5  1  0  0  0  0
  4  3  1  0  0  0  0
  5  1  1  1  0  0  0
  5  9  1  0  0  0  0
  6  2  1  0  0  0  0
  7 16  1  6  0  0  0
  7  4  1  0  0  0  0
  7  6  1  0  0  0  0
  8 12  1  0  0  0  0
  9 10  1  6  0  0  0
  9  8  1  0  0  0  0
 10  8  1  0  0  0  0
 11 10  2  0  0  0  0
 12 13  1  0  0  0  0
 13 15  1  0  0  0  0
 15 14  1  0  0  0  0
 18 17  1  6  0  0  0
 18 16  1  0  0  0  0
 19 21  1  0  0  0  0
 20 22  1  0  0  0  0
 21 22  2  0  0  0  0
 23 24  2  0  0  0  0
 24 19  1  0  0  0  0
 24 20  1  0  0  0  0
 25 23  1  0  0  0  0
 25 26  2  0  0  0  0
 26 18  1  0  0  0  0
 26 20  1  0  0  0  0
 27 29  1  0  0  0  0
 27 23  1  0  0  0  0
 28 29  1  0  0  0  0
M  END
>  <MODEL>
9

>  <REMARK>
 VINA RESULT:      -6.5      2.886      7.720
  Name = 
  9 active torsions:
  status: ('A' for Active; 'I' for Inactive)
    1  A    between atoms: C_1  and  N_6
    2  A    between atoms: C_1  and  C_23
    3  A    between atoms: C_2  and  C_16
    4  A    between atoms: C_2  and  N_27
    5  A    between atoms: CA_8  and  C_15
    6  A    between atoms: C_10  and  C_23
    7  A    between atoms: N_17  and  C_28
    8  A    between atoms: N_17  and  C_29
    9  A    between atoms: C_24  and  C_28
                            x       y       z     vdW  Elec       q    Type
                         _______ _______ _______ _____ _____    ______ ____

>  <TORSDO>
F 9

$$$$
