=
 OpenBabel10222419113D

 64 67  0  0  1  0  0  0  0  0999 V2000
  189.8920  177.3950  137.9160 C   0  0  0  0  0  0  0  0  0  0  0  0
  189.5560  177.8220  139.1040 N   0  0  0  0  0  0  0  0  0  0  0  0
  185.3030  178.9040  140.3440 C   0  0  0  0  0  2  0  0  0  0  0  0
  187.3570  178.7400  141.8360 C   0  0  0  0  0  2  0  0  0  0  0  0
  185.7800  178.1850  139.0870 C   0  0  0  0  0  3  0  0  0  0  0  0
  185.9030  178.3920  141.6870 C   0  0  1  0  0  3  0  0  0  0  0  0
  188.2660  178.2910  139.5070 C   0  0  1  0  0  3  0  0  0  0  0  0
  187.0600  177.9560  138.7080 C   0  0  0  0  0  3  0  0  0  0  0  0
  188.0280  178.5380  140.7510 C   0  0  0  0  0  2  0  0  0  0  0  0
  185.1090  178.8710  142.9020 C   0  0  1  0  0  3  0  0  0  0  0  0
  183.0760  178.6900  143.8840 O   0  0  0  0  0  1  0  0  0  0  0  0
  183.6710  178.7760  142.6700 N   0  0  0  0  0  2  0  0  0  0  0  0
  185.4840  178.0880  144.0740 N   0  0  0  0  0  2  0  0  0  0  0  0
  186.4780  178.8390  144.8330 C   0  0  0  0  0  2  0  0  0  0  0  0
  186.3770  178.5270  146.3230 C   0  0  1  0  0  3  0  0  0  0  0  0
  184.9060  178.4480  146.7040 C   0  0  0  0  0  1  0  0  0  0  0  0
  188.6650  178.3030  148.4530 C   0  0  0  0  0  2  0  0  0  0  0  0
  189.5940  177.4440  146.2440 C   0  0  0  0  0  0  0  0  0  0  0  0
  189.8920  177.8590  147.6710 C   0  0  0  0  0  2  0  0  0  0  0  0
  187.4240  176.9780  148.4240 S   0  0  0  0  0  0  0  0  0  0  0  0
  188.3690  177.0830  145.8240 C   0  0  0  0  0  3  0  0  0  0  0  0
  187.1000  177.2070  146.6340 C   0  0  2  0  0  3  0  0  0  0  0  0
  191.9360  177.1620  146.0090 O   0  0  0  0  0  1  0  0  0  0  0  0
  190.7360  177.2400  145.2980 C   0  0  2  0  0  3  0  0  0  0  0  0
  190.8000  178.3690  144.2760 C   0  0  0  0  0  2  0  0  0  0  0  0
  190.9250  176.3660  142.8900 N   0  0  0  0  0  1  0  0  0  0  0  0
  190.9590  177.8190  142.8670 C   0  0  0  0  0  2  0  0  0  0  0  0
  188.8670  178.6170  136.1590 O   0  0  0  0  0  0  0  0  0  0  0  0
  188.2120  176.3890  136.3190 N   0  0  0  0  0  2  0  0  0  0  0  0
  189.0000  177.5050  136.7400 C   0  0  0  0  0  0  0  0  0  0  0  0
  187.3270  176.4580  135.1680 C   0  0  0  0  0  2  0  0  0  0  0  0
  185.9050  176.7270  135.6190 C   0  0  1  0  0  3  0  0  0  0  0  0
  185.2440  177.4630  134.6310 O   0  0  0  0  0  1  0  0  0  0  0  0
  185.2020  175.3980  135.8300 C   0  0  0  0  0  2  0  0  0  0  0  0
  184.3130  175.4460  137.0560 C   0  0  0  0  0  2  0  0  0  0  0  0
  182.8980  175.8020  136.6330 C   0  0  1  0  0  3  0  0  0  0  0  0
  182.6390  175.2470  135.3760 O   0  0  0  0  0  1  0  0  0  0  0  0
  181.8810  175.2980  137.6490 C   0  0  2  0  0  3  0  0  0  0  0  0
  181.2880  174.1260  137.1680 O   0  0  0  0  0  1  0  0  0  0  0  0
  180.8560  176.3140  137.8550 N   0  0  0  0  0  2  0  0  0  0  0  0
  181.2890  177.1780  138.9430 C   0  0  0  0  0  2  0  0  0  0  0  0
  181.3180  179.5470  139.7850 C   0  0  1  0  0  3  0  0  0  0  0  0
  180.7540  179.1340  140.9930 O   0  0  0  0  0  1  0  0  0  0  0  0
  181.0500  180.3310  137.1660 C   0  0  0  0  0  2  0  0  0  0  0  0
  180.8760  178.6090  138.6450 C   0  0  1  0  0  3  0  0  0  0  0  0
  181.5030  181.2600  138.2990 C   0  0  0  0  0  2  0  0  0  0  0  0
  180.8950  180.8620  139.5060 O   0  0  0  0  0  0  0  0  0  0  0  0
  181.4750  179.0160  137.4330 O   0  0  0  0  0  0  0  0  0  0  0  0
  191.2280  176.7320  137.7280 C   0  0  1  0  0  3  0  0  0  0  0  0
  192.8100  177.0220  139.8070 N   0  0  0  0  0  0  0  0  0  0  0  0
  192.1130  176.8940  138.8920 C   0  0  0  0  0  0  0  0  0  0  0  0
  191.0690  175.2880  137.3550 C   0  0  0  0  0  0  0  0  0  0  0  0
  190.4840  174.5130  138.0980 O   0  0  0  0  0  0  0  0  0  0  0  0
  191.5830  174.8250  136.0320 C   0  0  0  0  0  2  0  0  0  0  0  0
  191.9740  173.3570  136.1100 C   0  0  0  0  0  2  0  0  0  0  0  0
  195.5120  171.8250  136.4350 C   0  0  0  0  0  0  0  0  0  0  0  0
  194.2700  174.4790  136.4530 C   0  0  0  0  0  2  0  0  0  0  0  0
  195.7910  171.3150  137.8410 C   0  0  0  0  0  1  0  0  0  0  0  0
  196.4760  175.3050  136.8360 O   0  0  0  0  0  1  0  0  0  0  0  0
  193.4450  173.2250  136.3280 C   0  0  0  0  0  0  0  0  0  0  0  0
  195.6760  174.1700  136.9630 C   0  0  2  0  0  3  0  0  0  0  0  0
  195.9840  170.7740  135.4530 C   0  0  0  0  0  1  0  0  0  0  0  0
  196.2570  173.0690  136.1890 N   0  0  0  0  0  2  0  0  0  0  0  0
  194.0250  172.0160  136.2510 C   0  0  0  0  0  3  0  0  0  0  0  0
  1  2  2  0  0  0  0
  3  6  1  0  0  0  0
  5  3  1  0  0  0  0
  6  4  1  0  0  0  0
  6 10  1  1  0  0  0
  7  2  1  1  0  0  0
  7  9  1  0  0  0  0
  8  5  2  0  0  0  0
  8  7  1  0  0  0  0
  9  4  1  0  0  0  0
 10 12  1  6  0  0  0
 10 13  1  0  0  0  0
 12 11  1  0  0  0  0
 13 14  1  0  0  0  0
 14 15  1  0  0  0  0
 15 16  1  6  0  0  0
 18 19  1  0  0  0  0
 19 17  1  0  0  0  0
 20 17  1  0  0  0  0
 21 18  2  0  0  0  0
 21 22  1  0  0  0  0
 22 15  1  1  0  0  0
 22 20  1  0  0  0  0
 24 23  1  1  0  0  0
 24 18  1  0  0  0  0
 25 24  1  0  0  0  0
 27 26  1  0  0  0  0
 27 25  1  0  0  0  0
 28 30  2  0  0  0  0
 29 30  1  0  0  0  0
 30  1  1  0  0  0  0
 31 32  1  0  0  0  0
 31 29  1  0  0  0  0
 32 33  1  6  0  0  0
 32 34  1  0  0  0  0
 34 35  1  0  0  0  0
 36 37  1  6  0  0  0
 36 35  1  0  0  0  0
 36 38  1  0  0  0  0
 38 39  1  6  0  0  0
 38 40  1  0  0  0  0
 40 41  1  0  0  0  0
 42 43  1  1  0  0  0
 44 48  1  0  0  0  0
 44 46  1  0  0  0  0
 45 41  1  1  0  0  0
 45 42  1  0  0  0  0
 46 47  1  0  0  0  0
 47 42  1  0  0  0  0
 48 45  1  0  0  0  0
 49  1  1  0  0  0  0
 49 51  1  1  0  0  0
 51 50  3  0  0  0  0
 52 49  1  0  0  0  0
 52 53  2  0  0  0  0
 54 55  1  0  0  0  0
 54 52  1  0  0  0  0
 55 60  1  0  0  0  0
 56 58  1  0  0  0  0
 57 61  1  0  0  0  0
 60 57  1  0  0  0  0
 61 59  1  6  0  0  0
 62 56  1  0  0  0  0
 63 56  1  0  0  0  0
 63 61  1  0  0  0  0
 64 60  2  0  0  0  0
 64 56  1  0  0  0  0
M  END
>  <MODEL>
1

>  <REMARK>
 VINA RESULT:      -6.5      0.000      0.000
  Name = 
  26 active torsions:
  status: ('A' for Active; 'I' for Inactive)
    1  A    between atoms: C_3  and  C_16
    2  A    between atoms: C_3  and  C_62
    3  A    between atoms: C_4  and  C_43
    4  A    between atoms: C_4  and  C_63
    5  A    between atoms: C_5  and  C_18
    6  A    between atoms: C_6  and  C_7
    7  A    between atoms: C_6  and  C_54
    8  A    between atoms: C_7  and  C_36
    9  A    between atoms: C_8  and  N_33
   10  A    between atoms: C_8  and  C_34
   11  A    between atoms: C_16  and  N_29
   12  A    between atoms: C_18  and  C_55
   13  A    between atoms: C_19  and  C_36
   14  A    between atoms: C_19  and  C_58
   15  A    between atoms: C_25  and  C_27
   16  A    between atoms: C_27  and  N_33
   17  A    between atoms: C_28  and  C_41
   18  A    between atoms: N_29  and  C_41
   19  A    between atoms: C_32  and  N_46
   20  A    between atoms: C_34  and  C_42
   21  A    between atoms: C_36  and  C_53
   22  A    between atoms: C_37  and  C_54
   23  A    between atoms: N_38  and  C_63
   24  A    between atoms: C_40  and  C_55
   25  A    between atoms: C_41  and  N_57
   26  A    between atoms: C_42  and  C_43
                            x       y       z     vdW  Elec       q    Type
                         _______ _______ _______ _____ _____    ______ ____

>  <TORSDO>
F 26

$$$$
=
 OpenBabel10222419113D

 64 67  0  0  1  0  0  0  0  0999 V2000
  188.6100  177.5780  141.3550 C   0  0  0  0  0  0  0  0  0  0  0  0
  189.0290  177.1680  140.1880 N   0  0  0  0  0  0  0  0  0  0  0  0
  187.5070  178.0910  135.9890 C   0  0  0  0  0  2  0  0  0  0  0  0
  187.4820  175.8470  137.1860 C   0  0  0  0  0  2  0  0  0  0  0  0
  188.4810  178.8870  136.8500 C   0  0  0  0  0  3  0  0  0  0  0  0
  187.7770  176.5600  135.8970 C   0  0  1  0  0  3  0  0  0  0  0  0
  188.4240  177.4460  138.9210 C   0  0  1  0  0  3  0  0  0  0  0  0
  188.8460  178.6290  138.1290 C   0  0  0  0  0  3  0  0  0  0  0  0
  187.9260  176.4850  138.2180 C   0  0  0  0  0  2  0  0  0  0  0  0
  187.0290  175.9030  134.7370 C   0  0  1  0  0  3  0  0  0  0  0  0
  188.5540  174.3180  135.2770 O   0  0  0  0  0  1  0  0  0  0  0  0
  187.3980  174.4980  134.5940 N   0  0  0  0  0  2  0  0  0  0  0  0
  185.5910  176.0290  134.9450 N   0  0  0  0  0  2  0  0  0  0  0  0
  185.0600  174.7210  135.3100 C   0  0  0  0  0  2  0  0  0  0  0  0
  183.6900  174.8530  135.9700 C   0  0  1  0  0  3  0  0  0  0  0  0
  182.6220  174.4890  134.9490 C   0  0  0  0  0  1  0  0  0  0  0  0
  184.8670  171.9480  136.0120 C   0  0  0  0  0  2  0  0  0  0  0  0
  182.4050  171.7820  136.6350 C   0  0  0  0  0  0  0  0  0  0  0  0
  183.6720  171.0400  136.2590 C   0  0  0  0  0  2  0  0  0  0  0  0
  185.1480  172.9810  137.4790 S   0  0  0  0  0  0  0  0  0  0  0  0
  182.4030  173.0340  137.1260 C   0  0  0  0  0  3  0  0  0  0  0  0
  183.6100  173.9390  137.2030 C   0  0  2  0  0  3  0  0  0  0  0  0
  181.0670  170.1330  135.5790 O   0  0  0  0  0  1  0  0  0  0  0  0
  181.1080  171.0340  136.6460 C   0  0  2  0  0  3  0  0  0  0  0  0
  179.9290  171.9960  136.5710 C   0  0  0  0  0  2  0  0  0  0  0  0
  178.9490  173.6910  135.1170 N   0  0  0  0  0  1  0  0  0  0  0  0
  179.6690  172.4280  135.1360 C   0  0  0  0  0  2  0  0  0  0  0  0
  187.0360  179.2830  140.8620 O   0  0  0  0  0  0  0  0  0  0  0  0
  186.4170  177.8390  142.5800 N   0  0  0  0  0  2  0  0  0  0  0  0
  187.3130  178.2630  141.5500 C   0  0  0  0  0  0  0  0  0  0  0  0
  185.1330  178.4850  142.8000 C   0  0  0  0  0  2  0  0  0  0  0  0
  184.8450  178.5790  144.2860 C   0  0  1  0  0  3  0  0  0  0  0  0
  185.4670  179.7210  144.8000 O   0  0  0  0  0  1  0  0  0  0  0  0
  183.3430  178.6740  144.4860 C   0  0  0  0  0  2  0  0  0  0  0  0
  182.6960  179.4410  143.3490 C   0  0  0  0  0  2  0  0  0  0  0  0
  181.3560  178.8070  143.0200 C   0  0  1  0  0  3  0  0  0  0  0  0
  180.8290  178.2140  144.1710 O   0  0  0  0  0  1  0  0  0  0  0  0
  180.3820  179.8420  142.4700 C   0  0  2  0  0  3  0  0  0  0  0  0
  179.3470  180.0380  143.3890 O   0  0  0  0  0  1  0  0  0  0  0  0
  179.8310  179.3670  141.2070 N   0  0  0  0  0  2  0  0  0  0  0  0
  180.8200  178.5030  140.5790 C   0  0  0  0  0  2  0  0  0  0  0  0
  181.4400  177.9140  138.2150 C   0  0  1  0  0  3  0  0  0  0  0  0
  182.4750  177.1000  138.6800 O   0  0  0  0  0  1  0  0  0  0  0  0
  180.4820  180.3870  137.4970 C   0  0  0  0  0  2  0  0  0  0  0  0
  181.1780  179.0590  139.2120 C   0  0  1  0  0  3  0  0  0  0  0  0
  180.7310  179.2410  136.5090 C   0  0  0  0  0  2  0  0  0  0  0  0
  181.8040  178.4500  136.9630 O   0  0  0  0  0  0  0  0  0  0  0  0
  180.1110  179.8600  138.7490 O   0  0  0  0  0  0  0  0  0  0  0  0
  189.4900  177.3780  142.5580 C   0  0  1  0  0  3  0  0  0  0  0  0
  190.1280  174.8580  142.9460 N   0  0  0  0  0  0  0  0  0  0  0  0
  189.8460  175.9680  142.7750 C   0  0  0  0  0  0  0  0  0  0  0  0
  190.7090  178.2490  142.4880 C   0  0  0  0  0  0  0  0  0  0  0  0
  191.4450  178.2140  141.5130 O   0  0  0  0  0  0  0  0  0  0  0  0
  190.9760  179.2050  143.6030 C   0  0  0  0  0  2  0  0  0  0  0  0
  191.9570  178.5930  144.5910 C   0  0  0  0  0  2  0  0  0  0  0  0
  189.1500  177.4640  147.0040 C   0  0  0  0  0  0  0  0  0  0  0  0
  191.8560  176.6250  146.2530 C   0  0  0  0  0  2  0  0  0  0  0  0
  189.1400  178.2720  148.2930 C   0  0  0  0  0  1  0  0  0  0  0  0
  191.5800  174.9130  147.8940 O   0  0  0  0  0  1  0  0  0  0  0  0
  191.2200  177.8530  145.6580 C   0  0  0  0  0  0  0  0  0  0  0  0
  191.1200  176.1740  147.5130 C   0  0  2  0  0  3  0  0  0  0  0  0
  187.7230  177.3430  146.5150 C   0  0  0  0  0  1  0  0  0  0  0  0
  189.6790  176.1140  147.2560 N   0  0  0  0  0  2  0  0  0  0  0  0
  189.9550  178.1940  145.9540 C   0  0  0  0  0  3  0  0  0  0  0  0
  1 30  1  0  0  0  0
  1 49  1  0  0  0  0
  2  1  2  0  0  0  0
  3  5  1  0  0  0  0
  4  9  1  0  0  0  0
  5  8  2  0  0  0  0
  6 10  1  6  0  0  0
  6  3  1  0  0  0  0
  6  4  1  0  0  0  0
  7  2  1  6  0  0  0
  8  7  1  0  0  0  0
  9  7  1  0  0  0  0
 10 12  1  1  0  0  0
 10 13  1  0  0  0  0
 12 11  1  0  0  0  0
 13 14  1  0  0  0  0
 14 15  1  0  0  0  0
 15 16  1  6  0  0  0
 17 19  1  0  0  0  0
 17 20  1  0  0  0  0
 18 24  1  0  0  0  0
 18 21  2  0  0  0  0
 19 18  1  0  0  0  0
 21 22  1  0  0  0  0
 22 15  1  6  0  0  0
 22 20  1  0  0  0  0
 24 23  1  6  0  0  0
 25 24  1  0  0  0  0
 26 27  1  0  0  0  0
 27 25  1  0  0  0  0
 28 30  2  0  0  0  0
 29 31  1  0  0  0  0
 30 29  1  0  0  0  0
 31 32  1  0  0  0  0
 32 34  1  0  0  0  0
 32 33  1  6  0  0  0
 35 34  1  0  0  0  0
 36 35  1  0  0  0  0
 36 37  1  1  0  0  0
 38 36  1  0  0  0  0
 38 39  1  1  0  0  0
 40 38  1  0  0  0  0
 41 40  1  0  0  0  0
 42 43  1  1  0  0  0
 42 45  1  0  0  0  0
 44 48  1  0  0  0  0
 45 41  1  1  0  0  0
 46 47  1  0  0  0  0
 46 44  1  0  0  0  0
 47 42  1  0  0  0  0
 48 45  1  0  0  0  0
 49 51  1  6  0  0  0
 51 50  3  0  0  0  0
 52 49  1  0  0  0  0
 52 54  1  0  0  0  0
 53 52  2  0  0  0  0
 54 55  1  0  0  0  0
 55 60  1  0  0  0  0
 56 63  1  0  0  0  0
 56 58  1  0  0  0  0
 57 61  1  0  0  0  0
 60 64  2  0  0  0  0
 60 57  1  0  0  0  0
 61 59  1  6  0  0  0
 62 56  1  0  0  0  0
 63 61  1  0  0  0  0
 64 56  1  0  0  0  0
M  END
>  <MODEL>
2

>  <REMARK>
 VINA RESULT:      -5.7      4.059      9.371
  Name = 
  26 active torsions:
  status: ('A' for Active; 'I' for Inactive)
    1  A    between atoms: C_3  and  C_16
    2  A    between atoms: C_3  and  C_62
    3  A    between atoms: C_4  and  C_43
    4  A    between atoms: C_4  and  C_63
    5  A    between atoms: C_5  and  C_18
    6  A    between atoms: C_6  and  C_7
    7  A    between atoms: C_6  and  C_54
    8  A    between atoms: C_7  and  C_36
    9  A    between atoms: C_8  and  N_33
   10  A    between atoms: C_8  and  C_34
   11  A    between atoms: C_16  and  N_29
   12  A    between atoms: C_18  and  C_55
   13  A    between atoms: C_19  and  C_36
   14  A    between atoms: C_19  and  C_58
   15  A    between atoms: C_25  and  C_27
   16  A    between atoms: C_27  and  N_33
   17  A    between atoms: C_28  and  C_41
   18  A    between atoms: N_29  and  C_41
   19  A    between atoms: C_32  and  N_46
   20  A    between atoms: C_34  and  C_42
   21  A    between atoms: C_36  and  C_53
   22  A    between atoms: C_37  and  C_54
   23  A    between atoms: N_38  and  C_63
   24  A    between atoms: C_40  and  C_55
   25  A    between atoms: C_41  and  N_57
   26  A    between atoms: C_42  and  C_43
                            x       y       z     vdW  Elec       q    Type
                         _______ _______ _______ _____ _____    ______ ____

>  <TORSDO>
F 26

$$$$
=
 OpenBabel10222419113D

 64 67  0  0  1  0  0  0  0  0999 V2000
  190.5720  176.5860  139.6500 C   0  0  0  0  0  0  0  0  0  0  0  0
  190.9320  176.2830  140.8690 N   0  0  0  0  0  0  0  0  0  0  0  0
  188.8620  178.0050  144.5500 C   0  0  0  0  0  2  0  0  0  0  0  0
  187.8290  176.5660  142.7240 C   0  0  0  0  0  2  0  0  0  0  0  0
  190.1670  178.4410  143.8940 C   0  0  0  0  0  3  0  0  0  0  0  0
  187.6590  177.7850  143.5850 C   0  0  1  0  0  3  0  0  0  0  0  0
  190.2820  176.6960  142.0750 C   0  0  1  0  0  3  0  0  0  0  0  0
  190.7990  177.8510  142.8510 C   0  0  0  0  0  3  0  0  0  0  0  0
  189.0240  176.4610  142.2440 C   0  0  0  0  0  2  0  0  0  0  0  0
  186.3190  177.7390  144.3210 C   0  0  1  0  0  3  0  0  0  0  0  0
  185.7060  178.7800  146.2360 O   0  0  0  0  0  1  0  0  0  0  0  0
  186.5050  177.7920  145.7670 N   0  0  0  0  0  2  0  0  0  0  0  0
  185.4790  178.8460  143.8790 N   0  0  0  0  0  2  0  0  0  0  0  0
  184.4930  178.3290  142.9360 C   0  0  0  0  0  2  0  0  0  0  0  0
  183.0920  178.3540  143.5410 C   0  0  1  0  0  3  0  0  0  0  0  0
  183.1850  178.9050  144.9570 C   0  0  0  0  0  1  0  0  0  0  0  0
  180.1040  177.5880  142.9870 C   0  0  0  0  0  2  0  0  0  0  0  0
  181.2520  177.8580  140.7320 C   0  0  0  0  0  0  0  0  0  0  0  0
  180.0160  177.4020  141.4800 C   0  0  0  0  0  2  0  0  0  0  0  0
  180.4620  179.3300  143.3560 S   0  0  0  0  0  0  0  0  0  0  0  0
  182.1470  178.7210  141.2450 C   0  0  0  0  0  3  0  0  0  0  0  0
  182.1590  179.2120  142.6740 C   0  0  2  0  0  3  0  0  0  0  0  0
  182.3610  176.4890  139.1460 O   0  0  0  0  0  1  0  0  0  0  0  0
  181.3980  177.4910  139.2870 C   0  0  2  0  0  3  0  0  0  0  0  0
  181.7770  178.7100  138.4550 C   0  0  0  0  0  2  0  0  0  0  0  0
  180.8670  180.9710  138.5100 N   0  0  0  0  0  1  0  0  0  0  0  0
  180.5640  179.5860  138.1880 C   0  0  0  0  0  2  0  0  0  0  0  0
  189.7250  178.7990  139.5450 O   0  0  0  0  0  0  0  0  0  0  0  0
  188.2170  177.1390  138.9230 N   0  0  0  0  0  2  0  0  0  0  0  0
  189.5120  177.5730  139.3450 C   0  0  0  0  0  0  0  0  0  0  0  0
  187.1510  178.0780  138.6120 C   0  0  0  0  0  2  0  0  0  0  0  0
  186.5160  177.7220  137.2810 C   0  0  1  0  0  3  0  0  0  0  0  0
  187.2970  178.2500  136.2480 O   0  0  0  0  0  1  0  0  0  0  0  0
  186.4540  176.2100  137.1610 C   0  0  0  0  0  2  0  0  0  0  0  0
  185.0310  175.7450  136.9290 C   0  0  0  0  0  2  0  0  0  0  0  0
  184.5860  176.1750  135.5410 C   0  0  1  0  0  3  0  0  0  0  0  0
  185.5140  175.7240  134.5980 O   0  0  0  0  0  1  0  0  0  0  0  0
  183.2010  175.6280  135.2180 C   0  0  2  0  0  3  0  0  0  0  0  0
  182.2820  176.1120  136.1540 O   0  0  0  0  0  1  0  0  0  0  0  0
  183.2310  174.1710  135.2710 N   0  0  0  0  0  2  0  0  0  0  0  0
  182.2220  173.7340  136.2250 C   0  0  0  0  0  2  0  0  0  0  0  0
  181.7520  171.2670  136.1210 C   0  0  1  0  0  3  0  0  0  0  0  0
  183.0990  171.0120  135.8550 O   0  0  0  0  0  1  0  0  0  0  0  0
  179.2280  171.9270  135.2600 C   0  0  0  0  0  2  0  0  0  0  0  0
  181.3600  172.6580  135.5890 C   0  0  1  0  0  3  0  0  0  0  0  0
  179.6170  170.5470  135.8030 C   0  0  0  0  0  2  0  0  0  0  0  0
  180.9650  170.2800  135.4930 O   0  0  0  0  0  0  0  0  0  0  0  0
  180.0050  172.9190  135.8890 O   0  0  0  0  0  0  0  0  0  0  0  0
  191.2360  175.8850  138.4970 C   0  0  1  0  0  3  0  0  0  0  0  0
  189.8970  176.1310  136.2490 N   0  0  0  0  0  0  0  0  0  0  0  0
  190.4870  176.0240  137.2390 C   0  0  0  0  0  0  0  0  0  0  0  0
  192.6600  176.3300  138.3410 C   0  0  0  0  0  0  0  0  0  0  0  0
  193.1290  177.1880  139.0730 O   0  0  0  0  0  0  0  0  0  0  0  0
  193.5140  175.6610  137.3150 C   0  0  0  0  0  2  0  0  0  0  0  0
  193.5710  174.1650  137.5790 C   0  0  0  0  0  2  0  0  0  0  0  0
  197.4350  174.0020  137.4460 C   0  0  0  0  0  0  0  0  0  0  0  0
  195.1570  172.1920  137.0910 C   0  0  0  0  0  2  0  0  0  0  0  0
  197.9860  174.4940  136.1160 C   0  0  0  0  0  1  0  0  0  0  0  0
  196.7960  170.5260  136.6020 O   0  0  0  0  0  1  0  0  0  0  0  0
  194.9600  173.6570  137.3770 C   0  0  0  0  0  0  0  0  0  0  0  0
  196.5820  171.9050  136.6220 C   0  0  2  0  0  3  0  0  0  0  0  0
  198.2650  174.6150  138.5530 C   0  0  0  0  0  1  0  0  0  0  0  0
  197.5440  172.5370  137.5290 N   0  0  0  0  0  2  0  0  0  0  0  0
  196.0070  174.4680  137.6070 C   0  0  0  0  0  3  0  0  0  0  0  0
  1  2  2  0  0  0  0
  4  6  1  0  0  0  0
  5  3  1  0  0  0  0
  6 10  1  1  0  0  0
  6  3  1  0  0  0  0
  7  2  1  6  0  0  0
  7  9  1  0  0  0  0
  7  8  1  0  0  0  0
  8  5  2  0  0  0  0
  9  4  1  0  0  0  0
 10 13  1  6  0  0  0
 10 12  1  0  0  0  0
 12 11  1  0  0  0  0
 14 15  1  0  0  0  0
 14 13  1  0  0  0  0
 15 16  1  1  0  0  0
 17 20  1  0  0  0  0
 18 21  2  0  0  0  0
 18 19  1  0  0  0  0
 19 17  1  0  0  0  0
 21 22  1  0  0  0  0
 22 20  1  0  0  0  0
 22 15  1  1  0  0  0
 24 23  1  1  0  0  0
 24 18  1  0  0  0  0
 25 24  1  0  0  0  0
 27 25  1  0  0  0  0
 27 26  1  0  0  0  0
 29 30  1  0  0  0  0
 30 28  2  0  0  0  0
 30  1  1  0  0  0  0
 31 29  1  0  0  0  0
 32 33  1  6  0  0  0
 32 31  1  0  0  0  0
 34 32  1  0  0  0  0
 35 34  1  0  0  0  0
 36 37  1  6  0  0  0
 36 35  1  0  0  0  0
 38 40  1  0  0  0  0
 38 36  1  0  0  0  0
 38 39  1  1  0  0  0
 40 41  1  0  0  0  0
 42 43  1  6  0  0  0
 44 46  1  0  0  0  0
 44 48  1  0  0  0  0
 45 48  1  0  0  0  0
 45 42  1  0  0  0  0
 45 41  1  1  0  0  0
 47 46  1  0  0  0  0
 47 42  1  0  0  0  0
 49 51  1  6  0  0  0
 49  1  1  0  0  0  0
 50 51  3  0  0  0  0
 52 49  1  0  0  0  0
 52 53  2  0  0  0  0
 54 55  1  0  0  0  0
 54 52  1  0  0  0  0
 56 63  1  0  0  0  0
 56 64  1  0  0  0  0
 56 62  1  0  0  0  0
 57 60  1  0  0  0  0
 58 56  1  0  0  0  0
 60 55  1  0  0  0  0
 60 64  2  0  0  0  0
 61 59  1  1  0  0  0
 61 57  1  0  0  0  0
 61 63  1  0  0  0  0
M  END
>  <MODEL>
3

>  <REMARK>
 VINA RESULT:      -5.5      2.694      5.979
  Name = 
  26 active torsions:
  status: ('A' for Active; 'I' for Inactive)
    1  A    between atoms: C_3  and  C_16
    2  A    between atoms: C_3  and  C_62
    3  A    between atoms: C_4  and  C_43
    4  A    between atoms: C_4  and  C_63
    5  A    between atoms: C_5  and  C_18
    6  A    between atoms: C_6  and  C_7
    7  A    between atoms: C_6  and  C_54
    8  A    between atoms: C_7  and  C_36
    9  A    between atoms: C_8  and  N_33
   10  A    between atoms: C_8  and  C_34
   11  A    between atoms: C_16  and  N_29
   12  A    between atoms: C_18  and  C_55
   13  A    between atoms: C_19  and  C_36
   14  A    between atoms: C_19  and  C_58
   15  A    between atoms: C_25  and  C_27
   16  A    between atoms: C_27  and  N_33
   17  A    between atoms: C_28  and  C_41
   18  A    between atoms: N_29  and  C_41
   19  A    between atoms: C_32  and  N_46
   20  A    between atoms: C_34  and  C_42
   21  A    between atoms: C_36  and  C_53
   22  A    between atoms: C_37  and  C_54
   23  A    between atoms: N_38  and  C_63
   24  A    between atoms: C_40  and  C_55
   25  A    between atoms: C_41  and  N_57
   26  A    between atoms: C_42  and  C_43
                            x       y       z     vdW  Elec       q    Type
                         _______ _______ _______ _____ _____    ______ ____

>  <TORSDO>
F 26

$$$$
=
 OpenBabel10222419113D

 64 67  0  0  1  0  0  0  0  0999 V2000
  186.6380  177.9200  142.8930 C   0  0  0  0  0  0  0  0  0  0  0  0
  186.1730  178.6970  141.9520 N   0  0  0  0  0  0  0  0  0  0  0  0
  187.7070  178.3840  137.6690 C   0  0  0  0  0  2  0  0  0  0  0  0
  185.3560  177.8970  138.5110 C   0  0  0  0  0  2  0  0  0  0  0  0
  188.5000  178.4040  138.9700 C   0  0  0  0  0  3  0  0  0  0  0  0
  186.4820  177.4230  137.6360 C   0  0  1  0  0  3  0  0  0  0  0  0
  186.5820  178.7130  140.5810 C   0  0  1  0  0  3  0  0  0  0  0  0
  188.0170  178.5860  140.2230 C   0  0  0  0  0  3  0  0  0  0  0  0
  185.7680  178.3250  139.6580 C   0  0  0  0  0  2  0  0  0  0  0  0
  185.9830  177.1590  136.2150 C   0  0  1  0  0  3  0  0  0  0  0  0
  187.5650  177.4690  134.6260 O   0  0  0  0  0  1  0  0  0  0  0  0
  186.5560  178.1070  135.2650 N   0  0  0  0  0  2  0  0  0  0  0  0
  186.3100  175.7930  135.8260 N   0  0  0  0  0  2  0  0  0  0  0  0
  186.4220  174.9820  137.0330 C   0  0  0  0  0  2  0  0  0  0  0  0
  186.0490  173.5280  136.7510 C   0  0  1  0  0  3  0  0  0  0  0  0
  187.2580  172.6510  137.0420 C   0  0  0  0  0  1  0  0  0  0  0  0
  183.2250  172.9000  135.5460 C   0  0  0  0  0  2  0  0  0  0  0  0
  182.9200  174.7310  137.2870 C   0  0  0  0  0  0  0  0  0  0  0  0
  182.2930  173.9310  136.1630 C   0  0  0  0  0  2  0  0  0  0  0  0
  183.8400  171.7920  136.8470 S   0  0  0  0  0  0  0  0  0  0  0  0
  184.0020  174.3170  137.9700 C   0  0  0  0  0  3  0  0  0  0  0  0
  184.8480  173.1170  137.6150 C   0  0  2  0  0  3  0  0  0  0  0  0
  182.3670  176.0470  139.1800 O   0  0  0  0  0  1  0  0  0  0  0  0
  182.2050  175.9440  137.7960 C   0  0  2  0  0  3  0  0  0  0  0  0
  180.7240  175.8880  137.4400 C   0  0  0  0  0  2  0  0  0  0  0  0
  181.4530  177.9690  136.4000 N   0  0  0  0  0  1  0  0  0  0  0  0
  180.2940  177.1430  136.6970 C   0  0  0  0  0  2  0  0  0  0  0  0
  187.7250  175.8130  142.9730 O   0  0  0  0  0  0  0  0  0  0  0  0
  189.0740  177.5910  142.3130 N   0  0  0  0  0  2  0  0  0  0  0  0
  187.8140  177.0410  142.7030 C   0  0  0  0  0  0  0  0  0  0  0  0
  190.2510  176.7600  142.1140 C   0  0  0  0  0  2  0  0  0  0  0  0
  191.4860  177.6300  141.9790 C   0  0  1  0  0  3  0  0  0  0  0  0
  192.3430  177.3740  143.0550 O   0  0  0  0  0  1  0  0  0  0  0  0
  192.1810  177.2890  140.6730 C   0  0  0  0  0  2  0  0  0  0  0  0
  191.1780  176.8350  139.6320 C   0  0  0  0  0  2  0  0  0  0  0  0
  191.8370  175.8190  138.7140 C   0  0  1  0  0  3  0  0  0  0  0  0
  190.9150  175.4030  137.7490 O   0  0  0  0  0  1  0  0  0  0  0  0
  193.0700  176.4100  138.0420 C   0  0  2  0  0  3  0  0  0  0  0  0
  192.9110  176.3560  136.6540 O   0  0  0  0  0  1  0  0  0  0  0  0
  194.2480  175.6430  138.4290 N   0  0  0  0  0  2  0  0  0  0  0  0
  194.2250  174.3830  137.6990 C   0  0  0  0  0  2  0  0  0  0  0  0
  195.5640  174.2430  135.5760 C   0  0  1  0  0  3  0  0  0  0  0  0
  194.6400  173.3430  135.0420 O   0  0  0  0  0  1  0  0  0  0  0  0
  197.7840  174.7630  137.1080 C   0  0  0  0  0  2  0  0  0  0  0  0
  195.6000  174.1180  137.1110 C   0  0  1  0  0  3  0  0  0  0  0  0
  197.7430  174.9000  135.5820 C   0  0  0  0  0  2  0  0  0  0  0  0
  196.8400  173.9590  135.0480 O   0  0  0  0  0  0  0  0  0  0  0  0
  196.5150  175.0520  137.6440 O   0  0  0  0  0  0  0  0  0  0  0  0
  185.9390  177.8840  144.2240 C   0  0  1  0  0  3  0  0  0  0  0  0
  187.6020  178.0750  146.2500 N   0  0  0  0  0  0  0  0  0  0  0  0
  186.8690  177.9900  145.3580 C   0  0  0  0  0  0  0  0  0  0  0  0
  184.8600  178.9230  144.2970 C   0  0  0  0  0  0  0  0  0  0  0  0
  184.5960  179.4730  145.3560 O   0  0  0  0  0  0  0  0  0  0  0  0
  184.1570  179.3210  143.0420 C   0  0  0  0  0  2  0  0  0  0  0  0
  183.2310  178.2030  142.5870 C   0  0  0  0  0  2  0  0  0  0  0  0
  179.8200  179.3000  141.1280 C   0  0  0  0  0  0  0  0  0  0  0  0
  181.0390  178.8840  143.7600 C   0  0  0  0  0  2  0  0  0  0  0  0
  179.8100  180.7680  140.7290 C   0  0  0  0  0  1  0  0  0  0  0  0
  178.9420  179.6100  144.6400 O   0  0  0  0  0  1  0  0  0  0  0  0
  181.8280  178.7020  142.4910 C   0  0  0  0  0  0  0  0  0  0  0  0
  179.7540  179.6700  143.5080 C   0  0  2  0  0  3  0  0  0  0  0  0
  179.1730  178.5070  140.0130 C   0  0  0  0  0  1  0  0  0  0  0  0
  179.0400  179.1050  142.3600 N   0  0  0  0  0  2  0  0  0  0  0  0
  181.2460  178.8270  141.2860 C   0  0  0  0  0  3  0  0  0  0  0  0
  1 49  1  0  0  0  0
  2  1  2  0  0  0  0
  3  5  1  0  0  0  0
  4  9  1  0  0  0  0
  5  8  2  0  0  0  0
  6 10  1  6  0  0  0
  6  3  1  0  0  0  0
  6  4  1  0  0  0  0
  7  2  1  1  0  0  0
  8  7  1  0  0  0  0
  9  7  1  0  0  0  0
 10 12  1  6  0  0  0
 11 12  1  0  0  0  0
 13 10  1  0  0  0  0
 13 14  1  0  0  0  0
 15 14  1  0  0  0  0
 15 16  1  1  0  0  0
 17 19  1  0  0  0  0
 17 20  1  0  0  0  0
 18 24  1  0  0  0  0
 18 21  2  0  0  0  0
 19 18  1  0  0  0  0
 20 22  1  0  0  0  0
 22 15  1  6  0  0  0
 22 21  1  0  0  0  0
 24 23  1  1  0  0  0
 25 24  1  0  0  0  0
 26 27  1  0  0  0  0
 27 25  1  0  0  0  0
 29 30  1  0  0  0  0
 30  1  1  0  0  0  0
 30 28  2  0  0  0  0
 31 29  1  0  0  0  0
 32 31  1  0  0  0  0
 32 33  1  1  0  0  0
 34 32  1  0  0  0  0
 35 34  1  0  0  0  0
 36 37  1  6  0  0  0
 36 35  1  0  0  0  0
 38 39  1  6  0  0  0
 38 40  1  0  0  0  0
 38 36  1  0  0  0  0
 41 40  1  0  0  0  0
 42 43  1  6  0  0  0
 42 45  1  0  0  0  0
 44 48  1  0  0  0  0
 45 48  1  0  0  0  0
 45 41  1  1  0  0  0
 46 44  1  0  0  0  0
 47 42  1  0  0  0  0
 47 46  1  0  0  0  0
 49 52  1  0  0  0  0
 49 51  1  1  0  0  0
 51 50  3  0  0  0  0
 52 53  2  0  0  0  0
 54 52  1  0  0  0  0
 55 54  1  0  0  0  0
 56 64  1  0  0  0  0
 56 63  1  0  0  0  0
 58 56  1  0  0  0  0
 60 55  1  0  0  0  0
 60 57  1  0  0  0  0
 61 57  1  0  0  0  0
 61 59  1  1  0  0  0
 62 56  1  0  0  0  0
 63 61  1  0  0  0  0
 64 60  2  0  0  0  0
M  END
>  <MODEL>
4

>  <REMARK>
 VINA RESULT:      -5.4      2.867     11.934
  Name = 
  26 active torsions:
  status: ('A' for Active; 'I' for Inactive)
    1  A    between atoms: C_3  and  C_16
    2  A    between atoms: C_3  and  C_62
    3  A    between atoms: C_4  and  C_43
    4  A    between atoms: C_4  and  C_63
    5  A    between atoms: C_5  and  C_18
    6  A    between atoms: C_6  and  C_7
    7  A    between atoms: C_6  and  C_54
    8  A    between atoms: C_7  and  C_36
    9  A    between atoms: C_8  and  N_33
   10  A    between atoms: C_8  and  C_34
   11  A    between atoms: C_16  and  N_29
   12  A    between atoms: C_18  and  C_55
   13  A    between atoms: C_19  and  C_36
   14  A    between atoms: C_19  and  C_58
   15  A    between atoms: C_25  and  C_27
   16  A    between atoms: C_27  and  N_33
   17  A    between atoms: C_28  and  C_41
   18  A    between atoms: N_29  and  C_41
   19  A    between atoms: C_32  and  N_46
   20  A    between atoms: C_34  and  C_42
   21  A    between atoms: C_36  and  C_53
   22  A    between atoms: C_37  and  C_54
   23  A    between atoms: N_38  and  C_63
   24  A    between atoms: C_40  and  C_55
   25  A    between atoms: C_41  and  N_57
   26  A    between atoms: C_42  and  C_43
                            x       y       z     vdW  Elec       q    Type
                         _______ _______ _______ _____ _____    ______ ____

>  <TORSDO>
F 26

$$$$
=
 OpenBabel10222419113D

 64 67  0  0  1  0  0  0  0  0999 V2000
  180.5150  178.7430  138.5310 C   0  0  0  0  0  0  0  0  0  0  0  0
  180.1080  178.4520  139.7380 N   0  0  0  0  0  0  0  0  0  0  0  0
  182.1850  178.9590  143.7660 C   0  0  0  0  0  2  0  0  0  0  0  0
  183.2760  178.6240  141.4920 C   0  0  0  0  0  2  0  0  0  0  0  0
  180.7440  178.5540  143.4770 C   0  0  0  0  0  3  0  0  0  0  0  0
  183.2770  178.2180  142.9390 C   0  0  1  0  0  3  0  0  0  0  0  0
  180.7950  178.7370  140.9600 C   0  0  1  0  0  3  0  0  0  0  0  0
  180.1350  178.4970  142.2680 C   0  0  0  0  0  3  0  0  0  0  0  0
  182.0840  178.7010  141.0010 C   0  0  0  0  0  2  0  0  0  0  0  0
  184.6740  178.3760  143.5400 C   0  0  1  0  0  3  0  0  0  0  0  0
  185.7210  179.8900  142.2210 O   0  0  0  0  0  1  0  0  0  0  0  0
  185.1440  179.7530  143.4390 N   0  0  0  0  0  2  0  0  0  0  0  0
  184.6610  177.9470  144.9330 N   0  0  0  0  0  2  0  0  0  0  0  0
  185.0340  179.0820  145.7700 C   0  0  0  0  0  2  0  0  0  0  0  0
  186.4420  178.9070  146.3320 C   0  0  1  0  0  3  0  0  0  0  0  0
  186.4560  179.4030  147.7710 C   0  0  0  0  0  1  0  0  0  0  0  0
  189.3810  177.9430  146.8340 C   0  0  0  0  0  2  0  0  0  0  0  0
  188.6900  177.1130  144.5290 C   0  0  0  0  0  0  0  0  0  0  0  0
  189.8170  177.3030  145.5240 C   0  0  0  0  0  2  0  0  0  0  0  0
  188.0450  176.9550  147.5680 S   0  0  0  0  0  0  0  0  0  0  0  0
  187.3920  177.0920  144.8820 C   0  0  0  0  0  3  0  0  0  0  0  0
  186.8590  177.4300  146.2540 C   0  0  2  0  0  3  0  0  0  0  0  0
  190.3610  176.3290  143.0400 O   0  0  0  0  0  1  0  0  0  0  0  0
  189.0280  176.7410  143.1190 C   0  0  2  0  0  3  0  0  0  0  0  0
  188.7810  177.9120  142.1760 C   0  0  0  0  0  2  0  0  0  0  0  0
  189.9660  177.6000  140.0690 N   0  0  0  0  0  1  0  0  0  0  0  0
  188.6840  177.4410  140.7340 C   0  0  0  0  0  2  0  0  0  0  0  0
  182.0350  180.5100  138.0850 O   0  0  0  0  0  0  0  0  0  0  0  0
  182.9660  178.3770  138.0440 N   0  0  0  0  0  2  0  0  0  0  0  0
  181.8680  179.2700  138.2440 C   0  0  0  0  0  0  0  0  0  0  0  0
  184.3100  178.8560  137.7630 C   0  0  0  0  0  2  0  0  0  0  0  0
  185.3300  177.8050  138.1560 C   0  0  1  0  0  3  0  0  0  0  0  0
  184.9710  176.5830  137.5780 O   0  0  0  0  0  1  0  0  0  0  0  0
  186.6940  178.2370  137.6450 C   0  0  0  0  0  2  0  0  0  0  0  0
  187.1040  177.4140  136.4410 C   0  0  0  0  0  2  0  0  0  0  0  0
  188.5200  177.7890  136.0400 C   0  0  1  0  0  3  0  0  0  0  0  0
  189.0200  178.7360  136.9400 O   0  0  0  0  0  1  0  0  0  0  0  0
  189.4240  176.5620  136.0130 C   0  0  2  0  0  3  0  0  0  0  0  0
  188.7560  175.4830  136.5990 O   0  0  0  0  0  1  0  0  0  0  0  0
  190.6450  176.8430  136.7570 N   0  0  0  0  0  2  0  0  0  0  0  0
  191.1860  175.5770  137.2300 C   0  0  0  0  0  2  0  0  0  0  0  0
  193.6290  175.6170  137.8210 C   0  0  1  0  0  3  0  0  0  0  0  0
  193.4860  176.8940  138.3670 O   0  0  0  0  0  1  0  0  0  0  0  0
  194.0350  173.9750  135.6560 C   0  0  0  0  0  2  0  0  0  0  0  0
  192.5970  175.4020  136.6980 C   0  0  1  0  0  3  0  0  0  0  0  0
  195.0550  174.1800  136.7820 C   0  0  0  0  0  2  0  0  0  0  0  0
  194.9320  175.4850  137.2990 O   0  0  0  0  0  0  0  0  0  0  0  0
  192.7300  174.0980  136.1710 O   0  0  0  0  0  0  0  0  0  0  0  0
  179.5660  178.5700  137.3780 C   0  0  1  0  0  3  0  0  0  0  0  0
  178.9330  180.8480  136.2310 N   0  0  0  0  0  0  0  0  0  0  0  0
  179.2110  179.8450  136.7360 C   0  0  0  0  0  0  0  0  0  0  0  0
  180.0980  177.5820  136.3830 C   0  0  0  0  0  0  0  0  0  0  0  0
  180.0490  177.8180  135.1850 O   0  0  0  0  0  0  0  0  0  0  0  0
  180.7440  176.3330  136.8820 C   0  0  0  0  0  2  0  0  0  0  0  0
  181.4800  175.6370  135.7480 C   0  0  0  0  0  2  0  0  0  0  0  0
  183.4020  172.3910  136.6090 C   0  0  0  0  0  0  0  0  0  0  0  0
  180.6290  173.3360  136.5380 C   0  0  0  0  0  2  0  0  0  0  0  0
  183.7650  171.5910  135.3670 C   0  0  0  0  0  1  0  0  0  0  0  0
  180.0520  171.1180  137.2080 O   0  0  0  0  0  1  0  0  0  0  0  0
  181.7720  174.2200  136.1150 C   0  0  0  0  0  0  0  0  0  0  0  0
  181.0500  171.8690  136.5860 C   0  0  2  0  0  3  0  0  0  0  0  0
  184.6190  172.4380  137.5090 C   0  0  0  0  0  1  0  0  0  0  0  0
  182.3040  171.7330  137.3330 N   0  0  0  0  0  2  0  0  0  0  0  0
  183.0460  173.8050  136.2140 C   0  0  0  0  0  3  0  0  0  0  0  0
  1  2  2  0  0  0  0
  4  6  1  0  0  0  0
  5  3  1  0  0  0  0
  6 10  1  1  0  0  0
  6  3  1  0  0  0  0
  7  2  1  6  0  0  0
  7  9  1  0  0  0  0
  7  8  1  0  0  0  0
  8  5  2  0  0  0  0
  9  4  1  0  0  0  0
 10 12  1  1  0  0  0
 10 13  1  0  0  0  0
 11 12  1  0  0  0  0
 13 14  1  0  0  0  0
 14 15  1  0  0  0  0
 15 16  1  1  0  0  0
 17 20  1  0  0  0  0
 18 21  2  0  0  0  0
 18 19  1  0  0  0  0
 19 17  1  0  0  0  0
 21 22  1  0  0  0  0
 22 15  1  6  0  0  0
 22 20  1  0  0  0  0
 24 23  1  1  0  0  0
 24 18  1  0  0  0  0
 25 24  1  0  0  0  0
 26 27  1  0  0  0  0
 27 25  1  0  0  0  0
 28 30  2  0  0  0  0
 29 30  1  0  0  0  0
 30  1  1  0  0  0  0
 31 29  1  0  0  0  0
 31 32  1  0  0  0  0
 32 33  1  6  0  0  0
 34 32  1  0  0  0  0
 35 34  1  0  0  0  0
 36 35  1  0  0  0  0
 36 37  1  1  0  0  0
 38 36  1  0  0  0  0
 38 39  1  1  0  0  0
 38 40  1  0  0  0  0
 40 41  1  0  0  0  0
 42 43  1  6  0  0  0
 44 48  1  0  0  0  0
 44 46  1  0  0  0  0
 45 41  1  1  0  0  0
 45 42  1  0  0  0  0
 46 47  1  0  0  0  0
 47 42  1  0  0  0  0
 48 45  1  0  0  0  0
 49 51  1  6  0  0  0
 49  1  1  0  0  0  0
 50 51  3  0  0  0  0
 52 54  1  0  0  0  0
 52 49  1  0  0  0  0
 53 52  2  0  0  0  0
 55 60  1  0  0  0  0
 55 54  1  0  0  0  0
 56 63  1  0  0  0  0
 56 62  1  0  0  0  0
 57 61  1  0  0  0  0
 58 56  1  0  0  0  0
 60 64  2  0  0  0  0
 60 57  1  0  0  0  0
 61 59  1  1  0  0  0
 61 63  1  0  0  0  0
 64 56  1  0  0  0  0
M  END
>  <MODEL>
5

>  <REMARK>
 VINA RESULT:      -5.4      2.303      8.909
  Name = 
  26 active torsions:
  status: ('A' for Active; 'I' for Inactive)
    1  A    between atoms: C_3  and  C_16
    2  A    between atoms: C_3  and  C_62
    3  A    between atoms: C_4  and  C_43
    4  A    between atoms: C_4  and  C_63
    5  A    between atoms: C_5  and  C_18
    6  A    between atoms: C_6  and  C_7
    7  A    between atoms: C_6  and  C_54
    8  A    between atoms: C_7  and  C_36
    9  A    between atoms: C_8  and  N_33
   10  A    between atoms: C_8  and  C_34
   11  A    between atoms: C_16  and  N_29
   12  A    between atoms: C_18  and  C_55
   13  A    between atoms: C_19  and  C_36
   14  A    between atoms: C_19  and  C_58
   15  A    between atoms: C_25  and  C_27
   16  A    between atoms: C_27  and  N_33
   17  A    between atoms: C_28  and  C_41
   18  A    between atoms: N_29  and  C_41
   19  A    between atoms: C_32  and  N_46
   20  A    between atoms: C_34  and  C_42
   21  A    between atoms: C_36  and  C_53
   22  A    between atoms: C_37  and  C_54
   23  A    between atoms: N_38  and  C_63
   24  A    between atoms: C_40  and  C_55
   25  A    between atoms: C_41  and  N_57
   26  A    between atoms: C_42  and  C_43
                            x       y       z     vdW  Elec       q    Type
                         _______ _______ _______ _____ _____    ______ ____

>  <TORSDO>
F 26

$$$$
=
 OpenBabel10222419113D

 64 67  0  0  1  0  0  0  0  0999 V2000
  189.7590  177.4810  138.1670 C   0  0  2  0  0  3  0  0  0  0  0  0
  189.2880  178.0320  139.2540 N   0  0  0  0  0  0  0  0  0  0  0  0
  184.8700  178.9350  139.9300 C   0  0  0  0  0  2  0  0  0  0  0  0
  186.7270  178.9070  141.6670 C   0  0  0  0  0  2  0  0  0  0  0  0
  185.5310  178.2100  138.7630 C   0  0  0  0  0  3  0  0  0  0  0  0
  185.3200  178.4850  141.3510 C   0  0  1  0  0  3  0  0  0  0  0  0
  187.9380  178.4470  139.4820 C   0  0  0  0  0  0  0  0  0  0  0  0
  186.8570  178.0350  138.5510 C   0  0  0  0  0  3  0  0  0  0  0  0
  187.5370  178.7130  140.6790 C   0  0  0  0  0  2  0  0  0  0  0  0
  184.3610  178.9540  142.4450 C   0  0  1  0  0  3  0  0  0  0  0  0
  182.9110  177.4340  141.6010 O   0  0  0  0  0  1  0  0  0  0  0  0
  182.9720  178.7000  142.0790 N   0  0  0  0  0  2  0  0  0  0  0  0
  184.6830  178.2860  143.7000 N   0  0  0  0  0  2  0  0  0  0  0  0
  185.7870  178.9990  144.3340 C   0  0  0  0  0  2  0  0  0  0  0  0
  186.0110  178.5010  145.7590 C   0  0  1  0  0  3  0  0  0  0  0  0
  184.6570  178.2480  146.4050 C   0  0  0  0  0  1  0  0  0  0  0  0
  188.6720  178.2080  147.3890 C   0  0  0  0  0  2  0  0  0  0  0  0
  189.2170  177.7300  144.9490 C   0  0  0  0  0  0  0  0  0  0  0  0
  189.7530  177.9800  146.3440 C   0  0  0  0  0  2  0  0  0  0  0  0
  187.5340  176.7920  147.3920 S   0  0  0  0  0  0  0  0  0  0  0  0
  187.9590  177.3180  144.7080 C   0  0  0  0  0  3  0  0  0  0  0  0
  186.8620  177.2220  145.7420 C   0  0  2  0  0  3  0  0  0  0  0  0
  190.1170  178.9970  143.1590 O   0  0  0  0  0  1  0  0  0  0  0  0
  190.1690  177.7530  143.7940 C   0  0  2  0  0  3  0  0  0  0  0  0
  189.8460  176.6400  142.8050 C   0  0  0  0  0  2  0  0  0  0  0  0
  191.7760  175.4340  143.6810 N   0  0  0  0  0  1  0  0  0  0  0  0
  190.3810  175.3030  143.2950 C   0  0  0  0  0  2  0  0  0  0  0  0
  188.8930  178.3550  136.1390 O   0  0  0  0  0  0  0  0  0  0  0  0
  188.2260  176.1820  136.6370 N   0  0  0  0  0  2  0  0  0  0  0  0
  188.9740  177.3670  136.9180 C   0  0  0  0  0  0  0  0  0  0  0  0
  187.4460  176.0310  135.4190 C   0  0  0  0  0  2  0  0  0  0  0  0
  186.0010  175.7210  135.7620 C   0  0  1  0  0  3  0  0  0  0  0  0
  185.1650  176.5200  134.9750 O   0  0  0  0  0  1  0  0  0  0  0  0
  185.7370  174.2550  135.4720 C   0  0  0  0  0  2  0  0  0  0  0  0
  185.1570  173.5610  136.6890 C   0  0  0  0  0  2  0  0  0  0  0  0
  183.8760  172.8460  136.2920 C   0  0  1  0  0  3  0  0  0  0  0  0
  183.9600  171.5040  136.6730 O   0  0  0  0  0  1  0  0  0  0  0  0
  182.6620  173.5020  136.9390 C   0  0  2  0  0  3  0  0  0  0  0  0
  181.7920  172.5090  137.4010 O   0  0  0  0  0  1  0  0  0  0  0  0
  181.9780  174.3320  135.9550 N   0  0  0  0  0  2  0  0  0  0  0  0
  180.5750  174.4180  136.3360 C   0  0  0  0  0  2  0  0  0  0  0  0
  180.0200  175.6790  138.4390 C   0  0  1  0  0  3  0  0  0  0  0  0
  178.9310  174.8360  138.6680 O   0  0  0  0  0  1  0  0  0  0  0  0
  181.1210  177.8900  137.2360 C   0  0  0  0  0  2  0  0  0  0  0  0
  180.2980  175.7890  136.9280 C   0  0  1  0  0  3  0  0  0  0  0  0
  180.8570  177.7730  138.7420 C   0  0  0  0  0  2  0  0  0  0  0  0
  179.7310  176.9560  138.9620 O   0  0  0  0  0  0  0  0  0  0  0  0
  181.4190  176.6190  136.7070 O   0  0  0  0  0  0  0  0  0  0  0  0
  191.1480  176.9060  138.1820 C   0  0  1  0  0  3  0  0  0  0  0  0
  192.3010  177.0920  140.5370 N   0  0  0  0  0  0  0  0  0  0  0  0
  191.7930  177.0090  139.5000 C   0  0  0  0  0  0  0  0  0  0  0  0
  191.1560  175.4940  137.6750 C   0  0  0  0  0  0  0  0  0  0  0  0
  190.5950  174.6060  138.2980 O   0  0  0  0  0  0  0  0  0  0  0  0
  191.8090  175.2040  136.3650 C   0  0  0  0  0  2  0  0  0  0  0  0
  192.3670  173.7890  136.3630 C   0  0  0  0  0  2  0  0  0  0  0  0
  196.0630  172.6520  136.4650 C   0  0  0  0  0  0  0  0  0  0  0  0
  194.5460  175.1080  135.9660 C   0  0  0  0  0  2  0  0  0  0  0  0
  196.6090  172.5950  137.8830 C   0  0  0  0  0  1  0  0  0  0  0  0
  196.6770  176.1510  135.7040 O   0  0  0  0  0  1  0  0  0  0  0  0
  193.8590  173.8220  136.3430 C   0  0  0  0  0  0  0  0  0  0  0  0
  196.0390  175.0540  136.2820 C   0  0  2  0  0  3  0  0  0  0  0  0
  196.4970  171.3920  135.7450 C   0  0  0  0  0  1  0  0  0  0  0  0
  196.6170  173.8150  135.7540 N   0  0  0  0  0  2  0  0  0  0  0  0
  194.5540  172.6840  136.5030 C   0  0  0  0  0  3  0  0  0  0  0  0
  1 30  1  1  0  0  0
  1 49  1  0  0  0  0
  1  2  1  0  0  0  0
  2  7  2  0  0  0  0
  3  6  1  0  0  0  0
  5  3  1  0  0  0  0
  6  4  1  0  0  0  0
  6 10  1  1  0  0  0
  7  9  1  0  0  0  0
  8  5  2  0  0  0  0
  8  7  1  0  0  0  0
  9  4  1  0  0  0  0
 10 12  1  6  0  0  0
 10 13  1  0  0  0  0
 11 12  1  0  0  0  0
 13 14  1  0  0  0  0
 14 15  1  0  0  0  0
 15 16  1  6  0  0  0
 17 20  1  0  0  0  0
 18 19  1  0  0  0  0
 19 17  1  0  0  0  0
 21 18  2  0  0  0  0
 21 22  1  0  0  0  0
 22 15  1  1  0  0  0
 22 20  1  0  0  0  0
 24 23  1  6  0  0  0
 24 18  1  0  0  0  0
 25 27  1  0  0  0  0
 25 24  1  0  0  0  0
 27 26  1  0  0  0  0
 28 30  2  0  0  0  0
 29 30  1  0  0  0  0
 31 32  1  0  0  0  0
 31 29  1  0  0  0  0
 32 33  1  6  0  0  0
 34 32  1  0  0  0  0
 34 35  1  0  0  0  0
 36 37  1  1  0  0  0
 36 35  1  0  0  0  0
 36 38  1  0  0  0  0
 38 39  1  6  0  0  0
 40 41  1  0  0  0  0
 40 38  1  0  0  0  0
 42 43  1  6  0  0  0
 42 47  1  0  0  0  0
 44 46  1  0  0  0  0
 45 41  1  1  0  0  0
 45 42  1  0  0  0  0
 46 47  1  0  0  0  0
 48 45  1  0  0  0  0
 48 44  1  0  0  0  0
 49 51  1  1  0  0  0
 51 50  3  0  0  0  0
 52 49  1  0  0  0  0
 52 53  2  0  0  0  0
 54 52  1  0  0  0  0
 55 54  1  0  0  0  0
 56 64  1  0  0  0  0
 56 58  1  0  0  0  0
 57 61  1  0  0  0  0
 57 60  1  0  0  0  0
 60 55  1  0  0  0  0
 60 64  2  0  0  0  0
 61 59  1  6  0  0  0
 62 56  1  0  0  0  0
 63 61  1  0  0  0  0
 63 56  1  0  0  0  0
M  END
>  <MODEL>
6

>  <REMARK>
 VINA RESULT:      -5.3      1.498      1.906
  Name = 
  26 active torsions:
  status: ('A' for Active; 'I' for Inactive)
    1  A    between atoms: C_3  and  C_16
    2  A    between atoms: C_3  and  C_62
    3  A    between atoms: C_4  and  C_43
    4  A    between atoms: C_4  and  C_63
    5  A    between atoms: C_5  and  C_18
    6  A    between atoms: C_6  and  C_7
    7  A    between atoms: C_6  and  C_54
    8  A    between atoms: C_7  and  C_36
    9  A    between atoms: C_8  and  N_33
   10  A    between atoms: C_8  and  C_34
   11  A    between atoms: C_16  and  N_29
   12  A    between atoms: C_18  and  C_55
   13  A    between atoms: C_19  and  C_36
   14  A    between atoms: C_19  and  C_58
   15  A    between atoms: C_25  and  C_27
   16  A    between atoms: C_27  and  N_33
   17  A    between atoms: C_28  and  C_41
   18  A    between atoms: N_29  and  C_41
   19  A    between atoms: C_32  and  N_46
   20  A    between atoms: C_34  and  C_42
   21  A    between atoms: C_36  and  C_53
   22  A    between atoms: C_37  and  C_54
   23  A    between atoms: N_38  and  C_63
   24  A    between atoms: C_40  and  C_55
   25  A    between atoms: C_41  and  N_57
   26  A    between atoms: C_42  and  C_43
                            x       y       z     vdW  Elec       q    Type
                         _______ _______ _______ _____ _____    ______ ____

>  <TORSDO>
F 26

$$$$
=
 OpenBabel10222419113D

 64 67  0  0  1  0  0  0  0  0999 V2000
  188.8310  177.1630  138.9190 C   0  0  0  0  0  0  0  0  0  0  0  0
  188.7350  177.3730  140.2050 N   0  0  0  0  0  0  0  0  0  0  0  0
  191.8360  176.5610  143.4490 C   0  0  0  0  0  2  0  0  0  0  0  0
  189.3090  176.3260  143.6290 C   0  0  0  0  0  2  0  0  0  0  0  0
  191.9770  177.3880  142.1760 C   0  0  0  0  0  3  0  0  0  0  0  0
  190.5570  176.8320  144.2960 C   0  0  1  0  0  3  0  0  0  0  0  0
  189.6840  176.9840  141.2040 C   0  0  1  0  0  3  0  0  0  0  0  0
  191.0610  177.5370  141.1890 C   0  0  0  0  0  3  0  0  0  0  0  0
  189.2770  176.6010  142.3670 C   0  0  0  0  0  2  0  0  0  0  0  0
  190.6680  176.2780  145.7170 C   0  0  1  0  0  3  0  0  0  0  0  0
  192.1680  175.9370  147.3780 O   0  0  0  0  0  1  0  0  0  0  0  0
  191.8310  176.8230  146.4100 N   0  0  0  0  0  2  0  0  0  0  0  0
  189.4500  176.5820  146.4580 N   0  0  0  0  0  2  0  0  0  0  0  0
  188.6940  177.5840  145.7150 C   0  0  0  0  0  2  0  0  0  0  0  0
  187.2970  177.7620  146.3040 C   0  0  1  0  0  3  0  0  0  0  0  0
  187.4140  177.8330  147.8200 C   0  0  0  0  0  1  0  0  0  0  0  0
  184.1970  178.0860  145.9780 C   0  0  0  0  0  2  0  0  0  0  0  0
  185.2490  178.4910  143.6960 C   0  0  0  0  0  0  0  0  0  0  0  0
  183.9740  178.2770  144.4860 C   0  0  0  0  0  2  0  0  0  0  0  0
  185.1170  179.5080  146.6330 S   0  0  0  0  0  0  0  0  0  0  0  0
  186.4010  178.9030  144.2560 C   0  0  0  0  0  3  0  0  0  0  0  0
  186.6470  179.0350  145.7410 C   0  0  2  0  0  3  0  0  0  0  0  0
  186.2500  179.1590  141.6530 O   0  0  0  0  0  1  0  0  0  0  0  0
  185.1920  178.4290  142.2010 C   0  0  2  0  0  3  0  0  0  0  0  0
  183.8600  178.9630  141.6890 C   0  0  0  0  0  2  0  0  0  0  0  0
  182.8910  178.6510  139.4730 N   0  0  0  0  0  1  0  0  0  0  0  0
  183.2160  177.9820  140.7220 C   0  0  0  0  0  2  0  0  0  0  0  0
  189.7640  175.0590  138.3460 O   0  0  0  0  0  0  0  0  0  0  0  0
  191.0800  176.8990  137.7990 N   0  0  0  0  0  2  0  0  0  0  0  0
  189.8840  176.3140  138.3180 C   0  0  0  0  0  0  0  0  0  0  0  0
  192.1350  176.0980  137.1990 C   0  0  0  0  0  2  0  0  0  0  0  0
  191.6420  175.4690  135.9100 C   0  0  1  0  0  3  0  0  0  0  0  0
  191.2980  176.4830  135.0100 O   0  0  0  0  0  1  0  0  0  0  0  0
  192.7560  174.6180  135.3280 C   0  0  0  0  0  2  0  0  0  0  0  0
  193.3250  173.6840  136.3770 C   0  0  0  0  0  2  0  0  0  0  0  0
  194.6650  173.1530  135.8980 C   0  0  1  0  0  3  0  0  0  0  0  0
  194.5260  172.6510  134.6010 O   0  0  0  0  0  1  0  0  0  0  0  0
  195.7270  174.2460  135.9270 C   0  0  2  0  0  3  0  0  0  0  0  0
  195.7240  174.9260  134.7050 O   0  0  0  0  0  1  0  0  0  0  0  0
  197.0360  173.6450  136.1480 N   0  0  0  0  0  2  0  0  0  0  0  0
  197.1180  173.2440  137.5450 C   0  0  0  0  0  2  0  0  0  0  0  0
  196.5920  174.5280  139.6410 C   0  0  1  0  0  3  0  0  0  0  0  0
  195.2520  174.6150  139.2620 O   0  0  0  0  0  1  0  0  0  0  0  0
  199.1710  175.4700  139.5420 C   0  0  0  0  0  2  0  0  0  0  0  0
  197.4920  174.4460  138.3930 C   0  0  1  0  0  3  0  0  0  0  0  0
  198.2790  175.5370  140.7870 C   0  0  0  0  0  2  0  0  0  0  0  0
  196.9310  175.6690  140.3960 O   0  0  0  0  0  0  0  0  0  0  0  0
  198.8430  174.3280  138.7860 O   0  0  0  0  0  0  0  0  0  0  0  0
  187.8530  177.8340  137.9950 C   0  0  1  0  0  3  0  0  0  0  0  0
  188.8290  180.0100  136.8890 N   0  0  0  0  0  0  0  0  0  0  0  0
  188.3980  179.0520  137.3760 C   0  0  0  0  0  0  0  0  0  0  0  0
  187.3390  176.8760  136.9620 C   0  0  0  0  0  0  0  0  0  0  0  0
  187.9340  176.7200  135.9060 O   0  0  0  0  0  0  0  0  0  0  0  0
  186.1220  176.0700  137.2710 C   0  0  0  0  0  2  0  0  0  0  0  0
  186.4960  174.6060  137.4450 C   0  0  0  0  0  2  0  0  0  0  0  0
  183.2050  173.3970  135.8100 C   0  0  0  0  0  0  0  0  0  0  0  0
  185.9020  172.3670  136.3140 C   0  0  0  0  0  2  0  0  0  0  0  0
  182.2010  172.8970  136.8380 C   0  0  0  0  0  1  0  0  0  0  0  0
  185.1240  170.3560  135.2910 O   0  0  0  0  0  1  0  0  0  0  0  0
  185.4790  173.7320  136.7900 C   0  0  0  0  0  0  0  0  0  0  0  0
  184.6930  171.5070  135.9490 C   0  0  2  0  0  3  0  0  0  0  0  0
  182.4680  174.2820  134.8270 C   0  0  0  0  0  1  0  0  0  0  0  0
  183.7880  172.2620  135.0780 N   0  0  0  0  0  2  0  0  0  0  0  0
  184.2640  174.2250  136.4970 C   0  0  0  0  0  3  0  0  0  0  0  0
  1  2  2  0  0  0  0
  3  6  1  0  0  0  0
  4  6  1  0  0  0  0
  5  3  1  0  0  0  0
  6 10  1  1  0  0  0
  7  2  1  1  0  0  0
  7  9  1  0  0  0  0
  8  7  1  0  0  0  0
  8  5  2  0  0  0  0
  9  4  1  0  0  0  0
 10 12  1  1  0  0  0
 10 13  1  0  0  0  0
 12 11  1  0  0  0  0
 14 15  1  0  0  0  0
 14 13  1  0  0  0  0
 15 16  1  1  0  0  0
 17 20  1  0  0  0  0
 18 21  2  0  0  0  0
 18 19  1  0  0  0  0
 19 17  1  0  0  0  0
 21 22  1  0  0  0  0
 22 15  1  1  0  0  0
 22 20  1  0  0  0  0
 24 23  1  6  0  0  0
 24 18  1  0  0  0  0
 25 24  1  0  0  0  0
 26 27  1  0  0  0  0
 27 25  1  0  0  0  0
 29 30  1  0  0  0  0
 30 28  2  0  0  0  0
 30  1  1  0  0  0  0
 31 29  1  0  0  0  0
 32 33  1  6  0  0  0
 32 31  1  0  0  0  0
 34 32  1  0  0  0  0
 34 35  1  0  0  0  0
 36 37  1  6  0  0  0
 36 38  1  0  0  0  0
 36 35  1  0  0  0  0
 38 39  1  6  0  0  0
 38 40  1  0  0  0  0
 40 41  1  0  0  0  0
 42 43  1  6  0  0  0
 42 47  1  0  0  0  0
 44 46  1  0  0  0  0
 45 41  1  1  0  0  0
 45 48  1  0  0  0  0
 45 42  1  0  0  0  0
 47 46  1  0  0  0  0
 48 44  1  0  0  0  0
 49 51  1  6  0  0  0
 49  1  1  0  0  0  0
 50 51  3  0  0  0  0
 52 54  1  0  0  0  0
 52 49  1  0  0  0  0
 53 52  2  0  0  0  0
 54 55  1  0  0  0  0
 56 64  1  0  0  0  0
 56 58  1  0  0  0  0
 57 60  1  0  0  0  0
 60 55  1  0  0  0  0
 61 59  1  6  0  0  0
 61 57  1  0  0  0  0
 62 56  1  0  0  0  0
 63 56  1  0  0  0  0
 63 61  1  0  0  0  0
 64 60  2  0  0  0  0
M  END
>  <MODEL>
7

>  <REMARK>
 VINA RESULT:      -5.0      2.705      9.576
  Name = 
  26 active torsions:
  status: ('A' for Active; 'I' for Inactive)
    1  A    between atoms: C_3  and  C_16
    2  A    between atoms: C_3  and  C_62
    3  A    between atoms: C_4  and  C_43
    4  A    between atoms: C_4  and  C_63
    5  A    between atoms: C_5  and  C_18
    6  A    between atoms: C_6  and  C_7
    7  A    between atoms: C_6  and  C_54
    8  A    between atoms: C_7  and  C_36
    9  A    between atoms: C_8  and  N_33
   10  A    between atoms: C_8  and  C_34
   11  A    between atoms: C_16  and  N_29
   12  A    between atoms: C_18  and  C_55
   13  A    between atoms: C_19  and  C_36
   14  A    between atoms: C_19  and  C_58
   15  A    between atoms: C_25  and  C_27
   16  A    between atoms: C_27  and  N_33
   17  A    between atoms: C_28  and  C_41
   18  A    between atoms: N_29  and  C_41
   19  A    between atoms: C_32  and  N_46
   20  A    between atoms: C_34  and  C_42
   21  A    between atoms: C_36  and  C_53
   22  A    between atoms: C_37  and  C_54
   23  A    between atoms: N_38  and  C_63
   24  A    between atoms: C_40  and  C_55
   25  A    between atoms: C_41  and  N_57
   26  A    between atoms: C_42  and  C_43
                            x       y       z     vdW  Elec       q    Type
                         _______ _______ _______ _____ _____    ______ ____

>  <TORSDO>
F 26

$$$$
=
 OpenBabel10222419113D

 64 67  0  0  1  0  0  0  0  0999 V2000
  186.4870  178.1880  138.3020 C   0  0  0  0  0  0  0  0  0  0  0  0
  186.5140  178.1550  139.6070 N   0  0  0  0  0  0  0  0  0  0  0  0
  189.9330  178.5950  142.5930 C   0  0  0  0  0  2  0  0  0  0  0  0
  189.6680  176.8160  140.7940 C   0  0  0  0  0  2  0  0  0  0  0  0
  188.5260  179.1780  142.6570 C   0  0  0  0  0  3  0  0  0  0  0  0
  190.0250  177.0840  142.2290 C   0  0  1  0  0  3  0  0  0  0  0  0
  187.6640  178.3370  140.4390 C   0  0  1  0  0  3  0  0  0  0  0  0
  187.5620  179.0990  141.7090 C   0  0  0  0  0  3  0  0  0  0  0  0
  188.6240  177.4750  140.4130 C   0  0  0  0  0  2  0  0  0  0  0  0
  191.3910  176.4830  142.5630 C   0  0  1  0  0  3  0  0  0  0  0  0
  192.5190  177.1380  140.7120 O   0  0  0  0  0  1  0  0  0  0  0  0
  192.4760  177.3150  142.0550 N   0  0  0  0  0  2  0  0  0  0  0  0
  191.5140  176.3170  144.0060 N   0  0  0  0  0  2  0  0  0  0  0  0
  190.1780  176.3380  144.5900 C   0  0  0  0  0  2  0  0  0  0  0  0
  190.2490  176.3900  146.1140 C   0  0  1  0  0  3  0  0  0  0  0  0
  191.6650  176.0410  146.5470 C   0  0  0  0  0  1  0  0  0  0  0  0
  188.0860  176.8480  148.3360 C   0  0  0  0  0  2  0  0  0  0  0  0
  187.3630  178.1710  146.2850 C   0  0  0  0  0  0  0  0  0  0  0  0
  186.9880  177.6540  147.6590 C   0  0  0  0  0  2  0  0  0  0  0  0
  189.5970  177.8520  148.4260 S   0  0  0  0  0  0  0  0  0  0  0  0
  188.6360  178.2980  145.8690 C   0  0  0  0  0  3  0  0  0  0  0  0
  189.8480  177.7880  146.6110 C   0  0  2  0  0  3  0  0  0  0  0  0
  185.3050  179.3450  146.2010 O   0  0  0  0  0  1  0  0  0  0  0  0
  186.2910  178.7470  145.4130 C   0  0  2  0  0  3  0  0  0  0  0  0
  185.6780  177.6690  144.5270 C   0  0  0  0  0  2  0  0  0  0  0  0
  184.7300  179.6880  143.5410 N   0  0  0  0  0  1  0  0  0  0  0  0
  184.5790  178.2460  143.6480 C   0  0  0  0  0  2  0  0  0  0  0  0
  188.0750  179.3450  136.9720 O   0  0  0  0  0  0  0  0  0  0  0  0
  188.4270  177.0520  137.1500 N   0  0  0  0  0  2  0  0  0  0  0  0
  187.7110  178.2460  137.4720 C   0  0  0  0  0  0  0  0  0  0  0  0
  189.6350  177.0690  136.3410 C   0  0  0  0  0  2  0  0  0  0  0  0
  190.4040  175.7750  136.5260 C   0  0  1  0  0  3  0  0  0  0  0  0
  190.2310  174.9750  135.3920 O   0  0  0  0  0  1  0  0  0  0  0  0
  191.8750  176.1060  136.7060 C   0  0  0  0  0  2  0  0  0  0  0  0
  192.6760  174.8570  137.0130 C   0  0  0  0  0  2  0  0  0  0  0  0
  193.1900  174.2620  135.7140 C   0  0  1  0  0  3  0  0  0  0  0  0
  193.8300  175.2580  134.9710 O   0  0  0  0  0  1  0  0  0  0  0  0
  194.1500  173.1090  135.9830 C   0  0  2  0  0  3  0  0  0  0  0  0
  193.4330  171.9090  136.0190 O   0  0  0  0  0  1  0  0  0  0  0  0
  194.8140  173.3200  137.2630 N   0  0  0  0  0  2  0  0  0  0  0  0
  196.2510  173.2440  137.0430 C   0  0  0  0  0  2  0  0  0  0  0  0
  198.3180  174.3430  137.9580 C   0  0  1  0  0  3  0  0  0  0  0  0
  199.1200  173.4650  137.2270 O   0  0  0  0  0  1  0  0  0  0  0  0
  196.8430  174.9280  140.2010 C   0  0  0  0  0  2  0  0  0  0  0  0
  196.9770  173.6710  138.3070 C   0  0  1  0  0  3  0  0  0  0  0  0
  198.1710  175.6060  139.8450 C   0  0  0  0  0  2  0  0  0  0  0  0
  198.9920  174.7000  139.1440 O   0  0  0  0  0  0  0  0  0  0  0  0
  196.1610  174.5750  139.0210 O   0  0  0  0  0  0  0  0  0  0  0  0
  185.1580  178.1990  137.5990 C   0  0  1  0  0  3  0  0  0  0  0  0
  184.6250  175.9220  136.3980 N   0  0  0  0  0  0  0  0  0  0  0  0
  184.8590  176.9250  136.9280 C   0  0  0  0  0  0  0  0  0  0  0  0
  184.0550  178.6010  138.5320 C   0  0  0  0  0  0  0  0  0  0  0  0
  183.7630  179.7780  138.6810 O   0  0  0  0  0  0  0  0  0  0  0  0
  183.2770  177.5350  139.2290 C   0  0  0  0  0  2  0  0  0  0  0  0
  181.7900  177.7180  138.9670 C   0  0  0  0  0  2  0  0  0  0  0  0
  180.5900  174.3860  137.4100 C   0  0  0  0  0  0  0  0  0  0  0  0
  180.5270  175.7290  140.0130 C   0  0  0  0  0  2  0  0  0  0  0  0
  179.2800  174.5430  136.6540 C   0  0  0  0  0  1  0  0  0  0  0  0
  179.3070  173.8190  140.7610 O   0  0  0  0  0  1  0  0  0  0  0  0
  181.1280  176.3910  138.8010 C   0  0  0  0  0  0  0  0  0  0  0  0
  179.6450  174.5460  139.6200 C   0  0  2  0  0  3  0  0  0  0  0  0
  181.5280  173.5580  136.5560 C   0  0  0  0  0  1  0  0  0  0  0  0
  180.3620  173.6790  138.6800 N   0  0  0  0  0  2  0  0  0  0  0  0
  181.2160  175.7430  137.6270 C   0  0  0  0  0  3  0  0  0  0  0  0
  1  2  2  0  0  0  0
  3  5  1  0  0  0  0
  4  6  1  0  0  0  0
  6 10  1  6  0  0  0
  6  3  1  0  0  0  0
  7  2  1  1  0  0  0
  7  8  1  0  0  0  0
  8  5  2  0  0  0  0
  9  7  1  0  0  0  0
  9  4  1  0  0  0  0
 10 12  1  1  0  0  0
 10 13  1  0  0  0  0
 11 12  1  0  0  0  0
 13 14  1  0  0  0  0
 14 15  1  0  0  0  0
 15 16  1  6  0  0  0
 17 20  1  0  0  0  0
 18 19  1  0  0  0  0
 19 17  1  0  0  0  0
 21 18  2  0  0  0  0
 21 22  1  0  0  0  0
 22 15  1  6  0  0  0
 22 20  1  0  0  0  0
 24 23  1  1  0  0  0
 24 18  1  0  0  0  0
 25 24  1  0  0  0  0
 26 27  1  0  0  0  0
 27 25  1  0  0  0  0
 28 30  2  0  0  0  0
 29 30  1  0  0  0  0
 30  1  1  0  0  0  0
 31 32  1  0  0  0  0
 31 29  1  0  0  0  0
 32 33  1  6  0  0  0
 32 34  1  0  0  0  0
 34 35  1  0  0  0  0
 36 37  1  1  0  0  0
 36 38  1  0  0  0  0
 36 35  1  0  0  0  0
 38 39  1  1  0  0  0
 38 40  1  0  0  0  0
 41 40  1  0  0  0  0
 42 43  1  1  0  0  0
 42 45  1  0  0  0  0
 42 47  1  0  0  0  0
 45 41  1  6  0  0  0
 45 48  1  0  0  0  0
 46 44  1  0  0  0  0
 47 46  1  0  0  0  0
 48 44  1  0  0  0  0
 49 51  1  1  0  0  0
 49  1  1  0  0  0  0
 49 52  1  0  0  0  0
 50 51  3  0  0  0  0
 52 53  2  0  0  0  0
 52 54  1  0  0  0  0
 55 54  1  0  0  0  0
 56 64  1  0  0  0  0
 56 63  1  0  0  0  0
 58 56  1  0  0  0  0
 60 55  1  0  0  0  0
 60 57  1  0  0  0  0
 61 57  1  0  0  0  0
 61 59  1  1  0  0  0
 62 56  1  0  0  0  0
 63 61  1  0  0  0  0
 64 60  2  0  0  0  0
M  END
>  <MODEL>
8

>  <REMARK>
 VINA RESULT:      -4.9      2.198     10.234
  Name = 
  26 active torsions:
  status: ('A' for Active; 'I' for Inactive)
    1  A    between atoms: C_3  and  C_16
    2  A    between atoms: C_3  and  C_62
    3  A    between atoms: C_4  and  C_43
    4  A    between atoms: C_4  and  C_63
    5  A    between atoms: C_5  and  C_18
    6  A    between atoms: C_6  and  C_7
    7  A    between atoms: C_6  and  C_54
    8  A    between atoms: C_7  and  C_36
    9  A    between atoms: C_8  and  N_33
   10  A    between atoms: C_8  and  C_34
   11  A    between atoms: C_16  and  N_29
   12  A    between atoms: C_18  and  C_55
   13  A    between atoms: C_19  and  C_36
   14  A    between atoms: C_19  and  C_58
   15  A    between atoms: C_25  and  C_27
   16  A    between atoms: C_27  and  N_33
   17  A    between atoms: C_28  and  C_41
   18  A    between atoms: N_29  and  C_41
   19  A    between atoms: C_32  and  N_46
   20  A    between atoms: C_34  and  C_42
   21  A    between atoms: C_36  and  C_53
   22  A    between atoms: C_37  and  C_54
   23  A    between atoms: N_38  and  C_63
   24  A    between atoms: C_40  and  C_55
   25  A    between atoms: C_41  and  N_57
   26  A    between atoms: C_42  and  C_43
                            x       y       z     vdW  Elec       q    Type
                         _______ _______ _______ _____ _____    ______ ____

>  <TORSDO>
F 26

$$$$
=
 OpenBabel10222419113D

 64 67  0  0  1  0  0  0  0  0999 V2000
  188.6500  177.1980  139.0110 C   0  0  0  0  0  0  0  0  0  0  0  0
  188.7040  177.5200  140.2760 N   0  0  0  0  0  0  0  0  0  0  0  0
  191.9340  176.6140  143.3650 C   0  0  0  0  0  2  0  0  0  0  0  0
  189.4220  176.2990  143.6140 C   0  0  0  0  0  2  0  0  0  0  0  0
  192.0100  177.5150  142.1370 C   0  0  0  0  0  3  0  0  0  0  0  0
  190.6790  176.8010  144.2670 C   0  0  1  0  0  3  0  0  0  0  0  0
  189.6960  177.1030  141.2190 C   0  0  1  0  0  3  0  0  0  0  0  0
  191.0570  177.6940  141.1910 C   0  0  0  0  0  3  0  0  0  0  0  0
  189.3390  176.6440  142.3710 C   0  0  0  0  0  2  0  0  0  0  0  0
  190.8520  176.1720  145.6500 C   0  0  1  0  0  3  0  0  0  0  0  0
  191.6660  176.7590  147.6800 O   0  0  0  0  0  1  0  0  0  0  0  0
  191.9820  176.7580  146.3620 N   0  0  0  0  0  2  0  0  0  0  0  0
  189.6270  176.3380  146.4220 N   0  0  0  0  0  2  0  0  0  0  0  0
  189.0130  177.6070  146.0480 C   0  0  0  0  0  2  0  0  0  0  0  0
  187.5890  177.7060  146.5910 C   0  0  1  0  0  3  0  0  0  0  0  0
  187.6410  177.6150  148.1090 C   0  0  0  0  0  1  0  0  0  0  0  0
  184.5580  178.3590  147.0440 C   0  0  0  0  0  2  0  0  0  0  0  0
  185.0200  178.5780  144.5500 C   0  0  0  0  0  0  0  0  0  0  0  0
  183.9770  178.5290  145.6480 C   0  0  0  0  0  2  0  0  0  0  0  0
  185.7520  179.6900  147.3610 S   0  0  0  0  0  0  0  0  0  0  0  0
  186.3110  178.8770  144.7750 C   0  0  0  0  0  3  0  0  0  0  0  0
  186.9450  179.0250  146.1380 C   0  0  2  0  0  3  0  0  0  0  0  0
  185.2130  179.4510  142.3550 O   0  0  0  0  0  1  0  0  0  0  0  0
  184.5720  178.4770  143.1250 C   0  0  2  0  0  3  0  0  0  0  0  0
  183.0600  178.6310  143.0210 C   0  0  0  0  0  2  0  0  0  0  0  0
  181.1590  178.6960  141.4950 N   0  0  0  0  0  1  0  0  0  0  0  0
  182.6060  178.5800  141.5700 C   0  0  0  0  0  2  0  0  0  0  0  0
  189.1620  174.9810  138.3380 O   0  0  0  0  0  0  0  0  0  0  0  0
  190.8560  176.5350  137.9740 N   0  0  0  0  0  2  0  0  0  0  0  0
  189.5380  176.1830  138.4000 C   0  0  0  0  0  0  0  0  0  0  0  0
  191.7560  175.5670  137.3670 C   0  0  0  0  0  2  0  0  0  0  0  0
  191.2520  175.1780  135.9910 C   0  0  1  0  0  3  0  0  0  0  0  0
  191.0790  176.3360  135.2250 O   0  0  0  0  0  1  0  0  0  0  0  0
  192.2800  174.2740  135.3350 C   0  0  0  0  0  2  0  0  0  0  0  0
  192.7280  173.1860  136.2900 C   0  0  0  0  0  2  0  0  0  0  0  0
  194.1270  172.7330  135.9090 C   0  0  1  0  0  3  0  0  0  0  0  0
  194.1170  172.2590  134.5940 O   0  0  0  0  0  1  0  0  0  0  0  0
  195.1270  173.8750  136.0470 C   0  0  2  0  0  3  0  0  0  0  0  0
  195.5700  174.2580  134.7770 O   0  0  0  0  0  1  0  0  0  0  0  0
  196.2620  173.4320  136.8470 N   0  0  0  0  0  2  0  0  0  0  0  0
  195.9030  173.5620  138.2510 C   0  0  0  0  0  2  0  0  0  0  0  0
  196.0770  175.2060  140.1450 C   0  0  1  0  0  3  0  0  0  0  0  0
  194.8360  175.7460  139.8020 O   0  0  0  0  0  1  0  0  0  0  0  0
  198.8010  175.0790  139.8190 C   0  0  0  0  0  2  0  0  0  0  0  0
  196.7690  174.6310  138.8950 C   0  0  1  0  0  3  0  0  0  0  0  0
  198.1110  175.6380  141.0690 C   0  0  0  0  0  2  0  0  0  0  0  0
  196.8790  176.2200  140.7070 O   0  0  0  0  0  0  0  0  0  0  0  0
  198.0090  174.0600  139.2560 O   0  0  0  0  0  0  0  0  0  0  0  0
  187.6680  177.9050  138.1180 C   0  0  1  0  0  3  0  0  0  0  0  0
  188.8200  179.0740  136.0650 N   0  0  0  0  0  0  0  0  0  0  0  0
  188.3120  178.5600  136.9690 C   0  0  0  0  0  0  0  0  0  0  0  0
  186.5720  176.9800  137.6800 C   0  0  0  0  0  0  0  0  0  0  0  0
  186.6900  175.7700  137.8060 O   0  0  0  0  0  0  0  0  0  0  0  0
  185.3070  177.5650  137.1450 C   0  0  0  0  0  2  0  0  0  0  0  0
  184.3000  177.7490  138.2700 C   0  0  0  0  0  2  0  0  0  0  0  0
  181.2270  175.4040  138.4400 C   0  0  0  0  0  0  0  0  0  0  0  0
  182.1920  177.6270  136.7920 C   0  0  0  0  0  2  0  0  0  0  0  0
  181.4970  174.0550  137.7930 C   0  0  0  0  0  1  0  0  0  0  0  0
  180.2020  177.3000  135.5150 O   0  0  0  0  0  1  0  0  0  0  0  0
  183.0140  177.0750  137.9270 C   0  0  0  0  0  0  0  0  0  0  0  0
  181.0810  176.6600  136.3890 C   0  0  2  0  0  3  0  0  0  0  0  0
  180.5230  175.1600  139.7570 C   0  0  0  0  0  1  0  0  0  0  0  0
  180.3510  176.2140  137.5790 N   0  0  0  0  0  2  0  0  0  0  0  0
  182.5370  176.1020  138.7220 C   0  0  0  0  0  3  0  0  0  0  0  0
  1  2  2  0  0  0  0
  3  6  1  0  0  0  0
  4  6  1  0  0  0  0
  5  3  1  0  0  0  0
  6 10  1  1  0  0  0
  7  2  1  1  0  0  0
  7  9  1  0  0  0  0
  8  7  1  0  0  0  0
  8  5  2  0  0  0  0
  9  4  1  0  0  0  0
 10 12  1  1  0  0  0
 10 13  1  0  0  0  0
 12 11  1  0  0  0  0
 14 13  1  0  0  0  0
 14 15  1  0  0  0  0
 15 16  1  1  0  0  0
 17 20  1  0  0  0  0
 18 21  2  0  0  0  0
 18 19  1  0  0  0  0
 19 17  1  0  0  0  0
 21 22  1  0  0  0  0
 22 15  1  1  0  0  0
 22 20  1  0  0  0  0
 24 23  1  6  0  0  0
 24 18  1  0  0  0  0
 25 24  1  0  0  0  0
 26 27  1  0  0  0  0
 27 25  1  0  0  0  0
 28 30  2  0  0  0  0
 29 30  1  0  0  0  0
 30  1  1  0  0  0  0
 31 29  1  0  0  0  0
 32 33  1  6  0  0  0
 32 31  1  0  0  0  0
 34 32  1  0  0  0  0
 34 35  1  0  0  0  0
 36 37  1  6  0  0  0
 36 38  1  0  0  0  0
 36 35  1  0  0  0  0
 38 39  1  6  0  0  0
 38 40  1  0  0  0  0
 40 41  1  0  0  0  0
 42 43  1  6  0  0  0
 42 47  1  0  0  0  0
 44 46  1  0  0  0  0
 45 41  1  1  0  0  0
 45 48  1  0  0  0  0
 45 42  1  0  0  0  0
 47 46  1  0  0  0  0
 48 44  1  0  0  0  0
 49 51  1  6  0  0  0
 49  1  1  0  0  0  0
 50 51  3  0  0  0  0
 52 53  2  0  0  0  0
 52 49  1  0  0  0  0
 54 52  1  0  0  0  0
 54 55  1  0  0  0  0
 56 64  1  0  0  0  0
 56 62  1  0  0  0  0
 57 60  1  0  0  0  0
 58 56  1  0  0  0  0
 60 55  1  0  0  0  0
 60 64  2  0  0  0  0
 61 59  1  6  0  0  0
 61 57  1  0  0  0  0
 61 63  1  0  0  0  0
 63 56  1  0  0  0  0
M  END
>  <MODEL>
9

>  <REMARK>
 VINA RESULT:      -4.7      2.312     10.011
  Name = 
  26 active torsions:
  status: ('A' for Active; 'I' for Inactive)
    1  A    between atoms: C_3  and  C_16
    2  A    between atoms: C_3  and  C_62
    3  A    between atoms: C_4  and  C_43
    4  A    between atoms: C_4  and  C_63
    5  A    between atoms: C_5  and  C_18
    6  A    between atoms: C_6  and  C_7
    7  A    between atoms: C_6  and  C_54
    8  A    between atoms: C_7  and  C_36
    9  A    between atoms: C_8  and  N_33
   10  A    between atoms: C_8  and  C_34
   11  A    between atoms: C_16  and  N_29
   12  A    between atoms: C_18  and  C_55
   13  A    between atoms: C_19  and  C_36
   14  A    between atoms: C_19  and  C_58
   15  A    between atoms: C_25  and  C_27
   16  A    between atoms: C_27  and  N_33
   17  A    between atoms: C_28  and  C_41
   18  A    between atoms: N_29  and  C_41
   19  A    between atoms: C_32  and  N_46
   20  A    between atoms: C_34  and  C_42
   21  A    between atoms: C_36  and  C_53
   22  A    between atoms: C_37  and  C_54
   23  A    between atoms: N_38  and  C_63
   24  A    between atoms: C_40  and  C_55
   25  A    between atoms: C_41  and  N_57
   26  A    between atoms: C_42  and  C_43
                            x       y       z     vdW  Elec       q    Type
                         _______ _______ _______ _____ _____    ______ ____

>  <TORSDO>
F 26

$$$$
