=
 OpenBabel10222419283D

 42 46  0  0  1  0  0  0  0  0999 V2000
  187.0050  178.2490  146.5260 C   0  0  0  0  0  0  0  0  0  0  0  0
  185.7180  178.7730  146.6850 C   0  0  0  0  0  3  0  0  0  0  0  0
  187.3980  177.7130  145.2830 C   0  0  0  0  0  0  0  0  0  0  0  0
  187.8850  178.2480  147.5600 N   0  0  0  0  0  0  0  0  0  0  0  0
  189.5250  177.1930  146.1860 C   0  0  0  0  0  0  0  0  0  0  0  0
  185.2100  178.2120  144.3730 C   0  0  0  0  0  0  0  0  0  0  0  0
  188.6510  177.2090  145.1410 N   0  0  0  0  0  0  0  0  0  0  0  0
  186.5030  177.6990  144.2120 C   0  0  0  0  0  3  0  0  0  0  0  0
  184.8230  178.7560  145.6100 C   0  0  0  0  0  3  0  0  0  0  0  0
  189.1350  177.7340  147.4160 C   0  0  0  0  0  3  0  0  0  0  0  0
  184.6610  179.0500  139.4920 N   0  0  0  0  0  2  0  0  0  0  0  0
  183.0160  179.0370  143.4290 C   0  0  2  0  0  3  0  0  0  0  0  0
  182.2680  178.5900  144.6780 C   0  0  0  0  0  1  0  0  0  0  0  0
  181.0500  179.7860  142.2940 F   0  0  0  0  0  0  0  0  0  0  0  0
  182.0930  178.8810  142.2240 C   0  0  1  0  0  3  0  0  0  0  0  0
  185.0010  178.6240  141.9460 C   0  0  0  0  0  2  0  0  0  0  0  0
  184.0780  178.8660  140.7850 C   0  0  0  0  0  0  0  0  0  0  0  0
  184.2670  178.1800  143.2080 C   0  0  1  0  0  3  0  0  0  0  0  0
  182.8010  179.0520  140.9550 N   0  0  0  0  0  0  0  0  0  0  0  0
  183.8610  179.2510  138.2930 C   0  0  0  0  0  2  0  0  0  0  0  0
  183.5060  178.0140  137.7460 O   0  0  0  0  0  0  0  0  0  0  0  0
  181.6200  179.2830  137.6470 C   0  0  0  0  0  2  0  0  0  0  0  0
  179.6970  177.7470  137.9150 C   0  0  0  0  0  2  0  0  0  0  0  0
  181.7210  176.9930  136.7250 C   0  0  0  0  0  2  0  0  0  0  0  0
  180.6980  176.6820  137.7420 N   0  0  0  0  0  0  0  0  0  0  0  0
  182.4300  178.2690  136.9590 N   0  0  0  0  0  0  0  0  0  0  0  0
  180.1400  179.1030  137.3650 C   0  0  0  0  0  2  0  0  0  0  0  0
  181.3360  176.4270  139.0260 C   0  0  0  0  0  1  0  0  0  0  0  0
  190.9100  176.6440  146.0220 C   0  0  2  0  0  3  0  0  0  0  0  0
  191.5620  176.4910  147.3810 C   0  0  0  0  0  1  0  0  0  0  0  0
  191.7300  177.5150  145.1910 N   0  0  0  0  0  2  0  0  0  0  0  0
  191.6680  177.4750  143.7900 C   0  0  0  0  0  0  0  0  0  0  0  0
  191.6300  177.4530  142.5850 C   0  0  0  0  0  0  0  0  0  0  0  0
  189.4800  178.4340  138.3800 C   0  0  0  0  0  2  0  0  0  0  0  0
  188.1450  178.3710  138.9950 N   0  0  0  0  0  0  0  0  0  0  0  0
  187.4970  177.1050  138.6670 C   0  0  0  0  0  1  0  0  0  0  0  0
  190.4500  177.3950  138.9530 C   0  0  0  0  0  2  0  0  0  0  0  0
  188.2220  178.5400  140.4540 C   0  0  0  0  0  2  0  0  0  0  0  0
  192.9370  177.3670  140.4480 C   0  0  0  0  0  1  0  0  0  0  0  0
  190.4670  177.4840  140.4480 C   0  0  0  0  0  0  0  0  0  0  0  0
  189.1320  177.5060  141.1280 C   0  0  0  0  0  2  0  0  0  0  0  0
  191.6180  177.4410  141.1430 C   0  0  0  0  0  0  0  0  0  0  0  0
  1  2  1  0  0  0  0
  1  4  1  0  0  0  0
  3  1  2  0  0  0  0
  5 10  1  0  0  0  0
  6  9  1  0  0  0  0
  7  3  1  0  0  0  0
  7  5  2  0  0  0  0
  8  6  2  0  0  0  0
  8  3  1  0  0  0  0
  9  2  2  0  0  0  0
 10  4  2  0  0  0  0
 11 17  1  0  0  0  0
 12 13  1  1  0  0  0
 15 14  1  1  0  0  0
 15 12  1  0  0  0  0
 16 18  1  0  0  0  0
 17 19  2  0  0  0  0
 17 16  1  0  0  0  0
 18 12  1  0  0  0  0
 18  6  1  1  0  0  0
 19 15  1  0  0  0  0
 20 11  1  0  0  0  0
 21 20  1  0  0  0  0
 24 26  1  0  0  0  0
 24 25  1  0  0  0  0
 25 23  1  0  0  0  0
 25 28  1  0  0  0  0
 26 22  1  0  0  0  0
 26 21  1  0  0  0  0
 27 22  1  0  0  0  0
 27 23  1  0  0  0  0
 29  5  1  0  0  0  0
 29 30  1  1  0  0  0
 31 29  1  0  0  0  0
 32 31  1  0  0  0  0
 33 32  3  0  0  0  0
 34 37  1  0  0  0  0
 34 35  1  0  0  0  0
 35 38  1  0  0  0  0
 36 35  1  0  0  0  0
 37 40  1  0  0  0  0
 38 41  1  0  0  0  0
 39 42  1  0  0  0  0
 40 41  1  0  0  0  0
 40 42  2  0  0  0  0
 42 33  1  0  0  0  0
M  END
>  <MODEL>
1

>  <REMARK>
 VINA RESULT:      -9.8      0.000      0.000
  Name = 
  8 active torsions:
  status: ('A' for Active; 'I' for Inactive)
    1  A    between atoms: N_4  and  C_5
    2  A    between atoms: N_4  and  C_21
    3  A    between atoms: C_5  and  C_22
    4  A    between atoms: C_6  and  N_9
    5  A    between atoms: C_6  and  O_18
    6  A    between atoms: O_18  and  N_23
    7  A    between atoms: C_25  and  C_37
    8  A    between atoms: C_41  and  C_42
                            x       y       z     vdW  Elec       q    Type
                         _______ _______ _______ _____ _____    ______ ____

>  <TORSDO>
F 8

$$$$
=
 OpenBabel10222419283D

 42 46  0  0  1  0  0  0  0  0999 V2000
  186.9670  178.2410  146.5110 C   0  0  0  0  0  0  0  0  0  0  0  0
  185.6830  178.7710  146.6770 C   0  0  0  0  0  3  0  0  0  0  0  0
  187.3530  177.7090  145.2650 C   0  0  0  0  0  0  0  0  0  0  0  0
  187.8490  178.2290  147.5440 N   0  0  0  0  0  0  0  0  0  0  0  0
  189.4800  177.1720  146.1600 C   0  0  0  0  0  0  0  0  0  0  0  0
  185.1650  178.2260  144.3640 C   0  0  0  0  0  0  0  0  0  0  0  0
  188.6030  177.1990  145.1170 N   0  0  0  0  0  0  0  0  0  0  0  0
  186.4550  177.7060  144.1960 C   0  0  0  0  0  3  0  0  0  0  0  0
  184.7860  178.7650  145.6040 C   0  0  0  0  0  3  0  0  0  0  0  0
  189.0960  177.7090  147.3940 C   0  0  0  0  0  3  0  0  0  0  0  0
  184.6030  179.1140  139.4930 N   0  0  0  0  0  2  0  0  0  0  0  0
  182.9690  179.0600  143.4340 C   0  0  2  0  0  3  0  0  0  0  0  0
  182.2250  178.6000  144.6800 C   0  0  0  0  0  1  0  0  0  0  0  0
  181.0000  179.8200  142.3120 F   0  0  0  0  0  0  0  0  0  0  0  0
  182.0420  178.9160  142.2300 C   0  0  1  0  0  3  0  0  0  0  0  0
  184.9500  178.6630  141.9410 C   0  0  0  0  0  2  0  0  0  0  0  0
  184.0240  178.9170  140.7850 C   0  0  0  0  0  0  0  0  0  0  0  0
  184.2190  178.2060  143.2000 C   0  0  1  0  0  3  0  0  0  0  0  0
  182.7470  179.1000  140.9610 N   0  0  0  0  0  0  0  0  0  0  0  0
  183.7990  179.3270  138.2980 C   0  0  0  0  0  2  0  0  0  0  0  0
  183.0450  178.1820  138.0220 O   0  0  0  0  0  0  0  0  0  0  0  0
  184.3800  177.1680  136.4820 C   0  0  0  0  0  2  0  0  0  0  0  0
  183.4480  174.9090  136.0910 C   0  0  0  0  0  2  0  0  0  0  0  0
  183.3170  175.9240  138.3340 C   0  0  0  0  0  2  0  0  0  0  0  0
  182.6070  175.2010  137.2620 N   0  0  0  0  0  0  0  0  0  0  0  0
  183.9530  177.1820  137.8880 N   0  0  0  0  0  0  0  0  0  0  0  0
  184.7120  175.7640  136.0120 C   0  0  0  0  0  2  0  0  0  0  0  0
  181.4500  175.9700  136.8270 C   0  0  0  0  0  1  0  0  0  0  0  0
  190.8600  176.6150  145.9890 C   0  0  2  0  0  3  0  0  0  0  0  0
  191.5100  176.4370  147.3460 C   0  0  0  0  0  1  0  0  0  0  0  0
  191.6880  177.4940  145.1720 N   0  0  0  0  0  2  0  0  0  0  0  0
  191.6640  177.4400  143.7700 C   0  0  0  0  0  0  0  0  0  0  0  0
  191.6390  177.4140  142.5650 C   0  0  0  0  0  0  0  0  0  0  0  0
  189.4550  178.4730  138.3970 C   0  0  0  0  0  2  0  0  0  0  0  0
  188.1270  178.4220  139.0260 N   0  0  0  0  0  0  0  0  0  0  0  0
  187.4570  177.1690  138.6920 C   0  0  0  0  0  1  0  0  0  0  0  0
  190.4170  177.4140  138.9470 C   0  0  0  0  0  2  0  0  0  0  0  0
  188.2230  178.5730  140.4860 C   0  0  0  0  0  2  0  0  0  0  0  0
  192.9200  177.3340  140.4130 C   0  0  0  0  0  1  0  0  0  0  0  0
  190.4520  177.4860  140.4430 C   0  0  0  0  0  0  0  0  0  0  0  0
  189.1250  177.5200  141.1380 C   0  0  0  0  0  2  0  0  0  0  0  0
  191.6100  177.4180  141.1230 C   0  0  0  0  0  0  0  0  0  0  0  0
  1  2  1  0  0  0  0
  1  4  1  0  0  0  0
  3  1  2  0  0  0  0
  5 10  1  0  0  0  0
  6  9  1  0  0  0  0
  7  3  1  0  0  0  0
  7  5  2  0  0  0  0
  8  6  2  0  0  0  0
  8  3  1  0  0  0  0
  9  2  2  0  0  0  0
 10  4  2  0  0  0  0
 11 17  1  0  0  0  0
 12 13  1  1  0  0  0
 15 14  1  1  0  0  0
 15 12  1  0  0  0  0
 16 18  1  0  0  0  0
 17 19  2  0  0  0  0
 17 16  1  0  0  0  0
 18 12  1  0  0  0  0
 18  6  1  1  0  0  0
 19 15  1  0  0  0  0
 20 11  1  0  0  0  0
 21 20  1  0  0  0  0
 22 26  1  0  0  0  0
 23 25  1  0  0  0  0
 25 24  1  0  0  0  0
 26 21  1  0  0  0  0
 26 24  1  0  0  0  0
 27 23  1  0  0  0  0
 27 22  1  0  0  0  0
 28 25  1  0  0  0  0
 29  5  1  0  0  0  0
 29 30  1  1  0  0  0
 31 29  1  0  0  0  0
 32 31  1  0  0  0  0
 33 32  3  0  0  0  0
 34 37  1  0  0  0  0
 34 35  1  0  0  0  0
 35 38  1  0  0  0  0
 36 35  1  0  0  0  0
 37 40  1  0  0  0  0
 38 41  1  0  0  0  0
 39 42  1  0  0  0  0
 40 42  2  0  0  0  0
 40 41  1  0  0  0  0
 42 33  1  0  0  0  0
M  END
>  <MODEL>
2

>  <REMARK>
 VINA RESULT:      -9.8      1.006      1.504
  Name = 
  8 active torsions:
  status: ('A' for Active; 'I' for Inactive)
    1  A    between atoms: N_4  and  C_5
    2  A    between atoms: N_4  and  C_21
    3  A    between atoms: C_5  and  C_22
    4  A    between atoms: C_6  and  N_9
    5  A    between atoms: C_6  and  O_18
    6  A    between atoms: O_18  and  N_23
    7  A    between atoms: C_25  and  C_37
    8  A    between atoms: C_41  and  C_42
                            x       y       z     vdW  Elec       q    Type
                         _______ _______ _______ _____ _____    ______ ____

>  <TORSDO>
F 8

$$$$
=
 OpenBabel10222419283D

 42 46  0  0  1  0  0  0  0  0999 V2000
  184.3010  178.5660  144.2120 C   0  0  0  0  0  0  0  0  0  0  0  0
  185.3070  178.4470  145.1760 C   0  0  0  0  0  3  0  0  0  0  0  0
  184.6190  178.4370  142.8450 C   0  0  0  0  0  0  0  0  0  0  0  0
  183.0160  178.8080  144.5780 N   0  0  0  0  0  0  0  0  0  0  0  0
  182.3470  178.8130  142.2880 C   0  0  0  0  0  0  0  0  0  0  0  0
  186.9460  178.0890  143.4160 C   0  0  0  0  0  0  0  0  0  0  0  0
  183.6320  178.5520  141.9180 N   0  0  0  0  0  0  0  0  0  0  0  0
  185.9360  178.1960  142.4520 C   0  0  0  0  0  3  0  0  0  0  0  0
  186.6260  178.2080  144.7790 C   0  0  0  0  0  3  0  0  0  0  0  0
  182.0340  178.9320  143.6460 C   0  0  0  0  0  3  0  0  0  0  0  0
  189.9120  177.0510  139.5490 N   0  0  0  0  0  2  0  0  0  0  0  0
  189.0140  176.6650  143.7020 C   0  0  2  0  0  3  0  0  0  0  0  0
  189.0150  176.9040  145.2060 C   0  0  0  0  0  1  0  0  0  0  0  0
  191.0260  175.3750  143.7180 F   0  0  0  0  0  0  0  0  0  0  0  0
  190.4580  176.5360  143.2270 C   0  0  1  0  0  3  0  0  0  0  0  0
  188.3710  177.5960  141.4580 C   0  0  0  0  0  2  0  0  0  0  0  0
  189.6950  177.0840  140.9610 C   0  0  0  0  0  0  0  0  0  0  0  0
  188.3540  177.8350  142.9660 C   0  0  1  0  0  3  0  0  0  0  0  0
  190.5670  176.5500  141.7670 N   0  0  0  0  0  0  0  0  0  0  0  0
  191.1690  176.6140  138.9600 C   0  0  0  0  0  2  0  0  0  0  0  0
  191.0350  175.3130  138.4630 O   0  0  0  0  0  0  0  0  0  0  0  0
  192.8710  176.2920  137.5440 C   0  0  0  0  0  2  0  0  0  0  0  0
  192.8440  175.7570  135.1270 C   0  0  0  0  0  2  0  0  0  0  0  0
  192.0040  174.1140  136.7630 C   0  0  0  0  0  2  0  0  0  0  0  0
  191.7710  174.8160  135.4860 N   0  0  0  0  0  0  0  0  0  0  0  0
  192.2370  175.0180  137.9090 N   0  0  0  0  0  0  0  0  0  0  0  0
  193.7350  176.1520  136.3040 C   0  0  0  0  0  2  0  0  0  0  0  0
  190.5110  175.5430  135.5410 C   0  0  0  0  0  1  0  0  0  0  0  0
  181.2610  178.9310  141.2620 C   0  0  2  0  0  3  0  0  0  0  0  0
  180.0050  179.4750  141.9100 C   0  0  0  0  0  1  0  0  0  0  0  0
  180.9680  177.6410  140.6510 N   0  0  0  0  0  2  0  0  0  0  0  0
  181.8580  177.0250  139.7590 C   0  0  0  0  0  0  0  0  0  0  0  0
  182.6110  176.5000  138.9770 C   0  0  0  0  0  0  0  0  0  0  0  0
  186.9390  176.1140  136.8830 C   0  0  0  0  0  2  0  0  0  0  0  0
  187.2730  177.5090  137.2090 N   0  0  0  0  0  0  0  0  0  0  0  0
  187.1290  178.3530  136.0270 C   0  0  0  0  0  1  0  0  0  0  0  0
  185.4650  175.9270  136.5050 C   0  0  0  0  0  2  0  0  0  0  0  0
  186.4290  178.0170  138.3020 C   0  0  0  0  0  2  0  0  0  0  0  0
  183.1430  174.5220  137.5330 C   0  0  0  0  0  1  0  0  0  0  0  0
  184.5890  176.5280  137.5610 C   0  0  0  0  0  0  0  0  0  0  0  0
  184.9310  177.9210  137.9940 C   0  0  0  0  0  2  0  0  0  0  0  0
  183.4950  175.8900  138.0150 C   0  0  0  0  0  0  0  0  0  0  0  0
  1  4  1  0  0  0  0
  1  2  2  0  0  0  0
  3  1  1  0  0  0  0
  5 10  1  0  0  0  0
  6  9  2  0  0  0  0
  7  5  2  0  0  0  0
  7  3  1  0  0  0  0
  8  3  2  0  0  0  0
  8  6  1  0  0  0  0
  9  2  1  0  0  0  0
 10  4  2  0  0  0  0
 11 17  1  0  0  0  0
 12 13  1  1  0  0  0
 15 12  1  0  0  0  0
 15 14  1  6  0  0  0
 16 18  1  0  0  0  0
 17 16  1  0  0  0  0
 17 19  2  0  0  0  0
 18  6  1  1  0  0  0
 18 12  1  0  0  0  0
 19 15  1  0  0  0  0
 20 11  1  0  0  0  0
 21 20  1  0  0  0  0
 22 26  1  0  0  0  0
 23 25  1  0  0  0  0
 23 27  1  0  0  0  0
 24 26  1  0  0  0  0
 25 28  1  0  0  0  0
 25 24  1  0  0  0  0
 26 21  1  0  0  0  0
 27 22  1  0  0  0  0
 29 30  1  1  0  0  0
 29  5  1  0  0  0  0
 31 29  1  0  0  0  0
 32 31  1  0  0  0  0
 33 32  3  0  0  0  0
 34 35  1  0  0  0  0
 35 38  1  0  0  0  0
 36 35  1  0  0  0  0
 37 34  1  0  0  0  0
 37 40  1  0  0  0  0
 39 42  1  0  0  0  0
 40 41  1  0  0  0  0
 40 42  2  0  0  0  0
 41 38  1  0  0  0  0
 42 33  1  0  0  0  0
M  END
>  <MODEL>
3

>  <REMARK>
 VINA RESULT:      -9.1      3.327      8.101
  Name = 
  8 active torsions:
  status: ('A' for Active; 'I' for Inactive)
    1  A    between atoms: N_4  and  C_5
    2  A    between atoms: N_4  and  C_21
    3  A    between atoms: C_5  and  C_22
    4  A    between atoms: C_6  and  N_9
    5  A    between atoms: C_6  and  O_18
    6  A    between atoms: O_18  and  N_23
    7  A    between atoms: C_25  and  C_37
    8  A    between atoms: C_41  and  C_42
                            x       y       z     vdW  Elec       q    Type
                         _______ _______ _______ _____ _____    ______ ____

>  <TORSDO>
F 8

$$$$
=
 OpenBabel10222419283D

 42 46  0  0  1  0  0  0  0  0999 V2000
  184.2150  178.6100  144.1690 C   0  0  0  0  0  0  0  0  0  0  0  0
  185.1990  178.4810  145.1540 C   0  0  0  0  0  3  0  0  0  0  0  0
  184.5610  178.4840  142.8080 C   0  0  0  0  0  0  0  0  0  0  0  0
  182.9240  178.8610  144.5080 N   0  0  0  0  0  0  0  0  0  0  0  0
  182.3050  178.8780  142.2040 C   0  0  0  0  0  0  0  0  0  0  0  0
  186.8730  178.1170  143.4280 C   0  0  0  0  0  0  0  0  0  0  0  0
  183.5960  178.6090  141.8610 N   0  0  0  0  0  0  0  0  0  0  0  0
  185.8850  178.2340  142.4430 C   0  0  0  0  0  3  0  0  0  0  0  0
  186.5250  178.2340  144.7840 C   0  0  0  0  0  3  0  0  0  0  0  0
  181.9630  178.9950  143.5560 C   0  0  0  0  0  3  0  0  0  0  0  0
  189.8900  176.8790  139.6610 N   0  0  0  0  0  2  0  0  0  0  0  0
  188.9560  176.7420  143.8220 C   0  0  2  0  0  3  0  0  0  0  0  0
  188.9400  177.0740  145.3070 C   0  0  0  0  0  1  0  0  0  0  0  0
  190.9840  175.4820  143.9360 F   0  0  0  0  0  0  0  0  0  0  0  0
  190.4060  176.6020  143.3680 C   0  0  1  0  0  3  0  0  0  0  0  0
  188.3240  177.5210  141.5180 C   0  0  0  0  0  2  0  0  0  0  0  0
  189.6580  176.9980  141.0660 C   0  0  0  0  0  0  0  0  0  0  0  0
  188.2890  177.8540  143.0070 C   0  0  1  0  0  3  0  0  0  0  0  0
  190.5290  176.5260  141.9120 N   0  0  0  0  0  0  0  0  0  0  0  0
  191.1590  176.4220  139.1110 C   0  0  0  0  0  2  0  0  0  0  0  0
  190.9530  175.2880  138.3190 O   0  0  0  0  0  0  0  0  0  0  0  0
  192.9080  176.2260  137.6280 C   0  0  0  0  0  2  0  0  0  0  0  0
  193.0450  175.8930  135.1790 C   0  0  0  0  0  2  0  0  0  0  0  0
  191.9880  174.1760  136.5990 C   0  0  0  0  0  2  0  0  0  0  0  0
  191.8970  174.9930  135.3730 N   0  0  0  0  0  0  0  0  0  0  0  0
  192.1780  174.9670  137.8330 N   0  0  0  0  0  0  0  0  0  0  0  0
  193.8590  176.1360  136.4500 C   0  0  0  0  0  2  0  0  0  0  0  0
  190.6780  175.7880  135.3970 C   0  0  0  0  0  1  0  0  0  0  0  0
  181.2420  179.0080  141.1560 C   0  0  2  0  0  3  0  0  0  0  0  0
  180.0830  178.0910  141.4890 C   0  0  0  0  0  1  0  0  0  0  0  0
  181.7570  178.6700  139.8350 N   0  0  0  0  0  2  0  0  0  0  0  0
  181.3870  179.3910  138.6900 C   0  0  0  0  0  0  0  0  0  0  0  0
  181.0490  180.0110  137.7120 C   0  0  0  0  0  0  0  0  0  0  0  0
  180.8510  184.1150  135.1860 C   0  0  0  0  0  2  0  0  0  0  0  0
  181.0320  184.9260  136.4010 N   0  0  0  0  0  0  0  0  0  0  0  0
  179.7560  185.4960  136.8220 C   0  0  0  0  0  1  0  0  0  0  0  0
  179.9820  182.8750  135.4210 C   0  0  0  0  0  2  0  0  0  0  0  0
  181.6180  184.1290  137.4900 C   0  0  0  0  0  2  0  0  0  0  0  0
  180.2810  179.9890  135.3270 C   0  0  0  0  0  1  0  0  0  0  0  0
  180.5060  182.1010  136.5930 C   0  0  0  0  0  0  0  0  0  0  0  0
  180.7870  182.8890  137.8370 C   0  0  0  0  0  2  0  0  0  0  0  0
  180.6150  180.7620  136.5600 C   0  0  0  0  0  0  0  0  0  0  0  0
  1  4  1  0  0  0  0
  1  2  2  0  0  0  0
  3  1  1  0  0  0  0
  5 10  1  0  0  0  0
  6  9  2  0  0  0  0
  7  5  2  0  0  0  0
  7  3  1  0  0  0  0
  8  3  2  0  0  0  0
  8  6  1  0  0  0  0
  9  2  1  0  0  0  0
 10  4  2  0  0  0  0
 11 17  1  0  0  0  0
 12 13  1  1  0  0  0
 15 12  1  0  0  0  0
 15 14  1  1  0  0  0
 16 18  1  0  0  0  0
 17 16  1  0  0  0  0
 17 19  2  0  0  0  0
 18  6  1  1  0  0  0
 18 12  1  0  0  0  0
 19 15  1  0  0  0  0
 20 11  1  0  0  0  0
 21 20  1  0  0  0  0
 22 26  1  0  0  0  0
 23 25  1  0  0  0  0
 23 27  1  0  0  0  0
 24 26  1  0  0  0  0
 25 28  1  0  0  0  0
 25 24  1  0  0  0  0
 26 21  1  0  0  0  0
 27 22  1  0  0  0  0
 29 30  1  1  0  0  0
 29  5  1  0  0  0  0
 31 29  1  0  0  0  0
 32 31  1  0  0  0  0
 33 32  3  0  0  0  0
 34 37  1  0  0  0  0
 34 35  1  0  0  0  0
 35 36  1  0  0  0  0
 35 38  1  0  0  0  0
 37 40  1  0  0  0  0
 38 41  1  0  0  0  0
 39 42  1  0  0  0  0
 40 41  1  0  0  0  0
 42 40  2  0  0  0  0
 42 33  1  0  0  0  0
M  END
>  <MODEL>
4

>  <REMARK>
 VINA RESULT:      -9.1      3.759      9.361
  Name = 
  8 active torsions:
  status: ('A' for Active; 'I' for Inactive)
    1  A    between atoms: N_4  and  C_5
    2  A    between atoms: N_4  and  C_21
    3  A    between atoms: C_5  and  C_22
    4  A    between atoms: C_6  and  N_9
    5  A    between atoms: C_6  and  O_18
    6  A    between atoms: O_18  and  N_23
    7  A    between atoms: C_25  and  C_37
    8  A    between atoms: C_41  and  C_42
                            x       y       z     vdW  Elec       q    Type
                         _______ _______ _______ _____ _____    ______ ____

>  <TORSDO>
F 8

$$$$
=
 OpenBabel10222419283D

 42 46  0  0  1  0  0  0  0  0999 V2000
  190.4900  177.4490  142.2770 C   0  0  0  0  0  0  0  0  0  0  0  0
  190.5450  177.4600  143.6750 C   0  0  0  0  0  3  0  0  0  0  0  0
  189.2420  177.4790  141.6220 C   0  0  0  0  0  0  0  0  0  0  0  0
  191.6300  177.4060  141.5400 N   0  0  0  0  0  0  0  0  0  0  0  0
  190.3480  177.4100  139.5280 C   0  0  0  0  0  0  0  0  0  0  0  0
  188.1150  177.5140  143.7650 C   0  0  0  0  0  0  0  0  0  0  0  0
  189.2030  177.4710  140.2640 N   0  0  0  0  0  0  0  0  0  0  0  0
  188.0620  177.5160  142.3660 C   0  0  0  0  0  3  0  0  0  0  0  0
  189.3590  177.4940  144.4160 C   0  0  0  0  0  3  0  0  0  0  0  0
  191.5850  177.3890  140.1820 C   0  0  0  0  0  3  0  0  0  0  0  0
  183.2850  178.7340  143.6830 N   0  0  0  0  0  2  0  0  0  0  0  0
  186.9420  178.3400  145.8450 C   0  0  2  0  0  3  0  0  0  0  0  0
  188.0370  177.7670  146.7340 C   0  0  0  0  0  1  0  0  0  0  0  0
  185.6070  179.1150  147.6690 F   0  0  0  0  0  0  0  0  0  0  0  0
  185.6130  178.2540  146.5880 C   0  0  1  0  0  3  0  0  0  0  0  0
  185.7210  178.1180  143.6600 C   0  0  0  0  0  2  0  0  0  0  0  0
  184.4650  178.4250  144.4270 C   0  0  0  0  0  0  0  0  0  0  0  0
  186.8310  177.5470  144.5390 C   0  0  1  0  0  3  0  0  0  0  0  0
  184.4710  178.5530  145.7230 N   0  0  0  0  0  0  0  0  0  0  0  0
  182.0050  179.0070  144.3220 C   0  0  0  0  0  2  0  0  0  0  0  0
  180.9600  178.6810  143.4510 O   0  0  0  0  0  0  0  0  0  0  0  0
  179.6910  180.3870  142.6430 C   0  0  0  0  0  2  0  0  0  0  0  0
  178.9310  179.7190  140.3840 C   0  0  0  0  0  2  0  0  0  0  0  0
  181.1560  179.0280  141.1900 C   0  0  0  0  0  2  0  0  0  0  0  0
  179.9000  178.6220  140.5300 N   0  0  0  0  0  0  0  0  0  0  0  0
  180.9610  179.6600  142.5120 N   0  0  0  0  0  0  0  0  0  0  0  0
  179.2040  180.9090  141.3040 C   0  0  0  0  0  2  0  0  0  0  0  0
  179.2740  177.5410  141.2780 C   0  0  0  0  0  1  0  0  0  0  0  0
  190.2990  177.4090  138.0300 C   0  0  2  0  0  3  0  0  0  0  0  0
  189.2500  178.3910  137.5530 C   0  0  0  0  0  1  0  0  0  0  0  0
  189.9890  176.0830  137.5110 N   0  0  0  0  0  2  0  0  0  0  0  0
  190.9950  175.1580  137.1950 C   0  0  0  0  0  0  0  0  0  0  0  0
  191.8730  174.3770  136.9260 C   0  0  0  0  0  0  0  0  0  0  0  0
  196.1720  172.4380  137.9360 C   0  0  0  0  0  2  0  0  0  0  0  0
  196.5930  173.6400  138.6730 N   0  0  0  0  0  0  0  0  0  0  0  0
  197.5020  174.4410  137.8570 C   0  0  0  0  0  1  0  0  0  0  0  0
  195.3270  172.7630  136.7000 C   0  0  0  0  0  2  0  0  0  0  0  0
  195.4340  174.4470  139.0830 C   0  0  0  0  0  2  0  0  0  0  0  0
  192.6230  172.2900  135.7590 C   0  0  0  0  0  1  0  0  0  0  0  0
  194.1950  173.6670  137.0810 C   0  0  0  0  0  0  0  0  0  0  0  0
  194.5510  174.8680  137.9030 C   0  0  0  0  0  2  0  0  0  0  0  0
  192.9480  173.4650  136.6200 C   0  0  0  0  0  0  0  0  0  0  0  0
  1  2  2  0  0  0  0
  2  9  1  0  0  0  0
  3  1  1  0  0  0  0
  3  8  2  0  0  0  0
  4  1  1  0  0  0  0
  5 10  1  0  0  0  0
  5  7  2  0  0  0  0
  6  9  2  0  0  0  0
  7  3  1  0  0  0  0
  8  6  1  0  0  0  0
 10  4  2  0  0  0  0
 11 20  1  0  0  0  0
 11 17  1  0  0  0  0
 12 15  1  0  0  0  0
 12 13  1  1  0  0  0
 15 14  1  1  0  0  0
 16 17  1  0  0  0  0
 16 18  1  0  0  0  0
 17 19  2  0  0  0  0
 18  6  1  6  0  0  0
 18 12  1  0  0  0  0
 19 15  1  0  0  0  0
 21 20  1  0  0  0  0
 23 25  1  0  0  0  0
 23 27  1  0  0  0  0
 24 26  1  0  0  0  0
 25 24  1  0  0  0  0
 25 28  1  0  0  0  0
 26 22  1  0  0  0  0
 26 21  1  0  0  0  0
 27 22  1  0  0  0  0
 29 30  1  1  0  0  0
 29  5  1  0  0  0  0
 31 29  1  0  0  0  0
 32 31  1  0  0  0  0
 33 32  3  0  0  0  0
 34 35  1  0  0  0  0
 35 38  1  0  0  0  0
 36 35  1  0  0  0  0
 37 40  1  0  0  0  0
 37 34  1  0  0  0  0
 39 42  1  0  0  0  0
 40 41  1  0  0  0  0
 41 38  1  0  0  0  0
 42 33  1  0  0  0  0
 42 40  2  0  0  0  0
M  END
>  <MODEL>
5

>  <REMARK>
 VINA RESULT:      -8.9      3.678      6.240
  Name = 
  8 active torsions:
  status: ('A' for Active; 'I' for Inactive)
    1  A    between atoms: N_4  and  C_5
    2  A    between atoms: N_4  and  C_21
    3  A    between atoms: C_5  and  C_22
    4  A    between atoms: C_6  and  N_9
    5  A    between atoms: C_6  and  O_18
    6  A    between atoms: O_18  and  N_23
    7  A    between atoms: C_25  and  C_37
    8  A    between atoms: C_41  and  C_42
                            x       y       z     vdW  Elec       q    Type
                         _______ _______ _______ _____ _____    ______ ____

>  <TORSDO>
F 8

$$$$
=
 OpenBabel10222419283D

 42 46  0  0  1  0  0  0  0  0999 V2000
  191.0170  177.5900  142.3080 C   0  0  0  0  0  0  0  0  0  0  0  0
  190.9800  178.0020  143.6440 C   0  0  0  0  0  3  0  0  0  0  0  0
  189.8350  177.1590  141.6720 C   0  0  0  0  0  0  0  0  0  0  0  0
  192.1840  177.5960  141.6140 N   0  0  0  0  0  0  0  0  0  0  0  0
  191.0600  176.7540  139.6850 C   0  0  0  0  0  0  0  0  0  0  0  0
  188.5930  177.5410  143.7150 C   0  0  0  0  0  0  0  0  0  0  0  0
  189.8840  176.7640  140.3730 N   0  0  0  0  0  0  0  0  0  0  0  0
  188.6290  177.1400  142.3740 C   0  0  0  0  0  3  0  0  0  0  0  0
  189.7700  177.9790  144.3450 C   0  0  0  0  0  3  0  0  0  0  0  0
  192.2300  177.1900  140.3170 C   0  0  0  0  0  3  0  0  0  0  0  0
  183.7700  178.7870  143.6000 N   0  0  0  0  0  2  0  0  0  0  0  0
  187.3550  178.1650  145.8280 C   0  0  2  0  0  3  0  0  0  0  0  0
  188.4190  177.5010  146.6910 C   0  0  0  0  0  1  0  0  0  0  0  0
  185.9630  178.7630  147.6760 F   0  0  0  0  0  0  0  0  0  0  0  0
  186.0020  178.0130  146.5160 C   0  0  1  0  0  3  0  0  0  0  0  0
  186.2050  178.1640  143.5940 C   0  0  0  0  0  2  0  0  0  0  0  0
  184.9250  178.4010  144.3470 C   0  0  0  0  0  0  0  0  0  0  0  0
  187.2840  177.5040  144.4470 C   0  0  1  0  0  3  0  0  0  0  0  0
  184.8890  178.4010  145.6480 N   0  0  0  0  0  0  0  0  0  0  0  0
  182.4710  179.0030  144.2200 C   0  0  0  0  0  2  0  0  0  0  0  0
  181.4570  178.5550  143.3680 O   0  0  0  0  0  0  0  0  0  0  0  0
  179.9350  180.1660  142.8520 C   0  0  0  0  0  2  0  0  0  0  0  0
  178.9390  179.5500  140.6710 C   0  0  0  0  0  2  0  0  0  0  0  0
  181.3080  179.0450  141.1300 C   0  0  0  0  0  2  0  0  0  0  0  0
  180.0170  178.5510  140.6140 N   0  0  0  0  0  0  0  0  0  0  0  0
  181.2380  179.5800  142.5070 N   0  0  0  0  0  0  0  0  0  0  0  0
  179.2230  180.7090  141.6270 C   0  0  0  0  0  2  0  0  0  0  0  0
  179.6030  177.3720  141.3610 C   0  0  0  0  0  1  0  0  0  0  0  0
  191.1080  176.3250  138.2500 C   0  0  2  0  0  3  0  0  0  0  0  0
  192.5400  176.3520  137.7570 C   0  0  0  0  0  1  0  0  0  0  0  0
  190.2940  177.1930  137.4100 N   0  0  0  0  0  2  0  0  0  0  0  0
  188.9170  176.9820  137.2430 C   0  0  0  0  0  0  0  0  0  0  0  0
  187.7310  176.7980  137.1200 C   0  0  0  0  0  0  0  0  0  0  0  0
  183.8540  173.9560  137.5140 C   0  0  0  0  0  2  0  0  0  0  0  0
  184.6650  172.7450  137.3140 N   0  0  0  0  0  0  0  0  0  0  0  0
  184.4990  172.2440  135.9530 C   0  0  0  0  0  1  0  0  0  0  0  0
  184.3240  175.1360  136.6550 C   0  0  0  0  0  2  0  0  0  0  0  0
  186.0860  173.0030  137.5920 C   0  0  0  0  0  2  0  0  0  0  0  0
  185.4290  177.7880  137.0640 C   0  0  0  0  0  1  0  0  0  0  0  0
  185.7940  175.3520  136.8490 C   0  0  0  0  0  0  0  0  0  0  0  0
  186.6650  174.1360  136.7380 C   0  0  0  0  0  2  0  0  0  0  0  0
  186.3100  176.5830  137.0080 C   0  0  0  0  0  0  0  0  0  0  0  0
  1  2  2  0  0  0  0
  2  9  1  0  0  0  0
  3  1  1  0  0  0  0
  3  8  2  0  0  0  0
  4  1  1  0  0  0  0
  5 10  1  0  0  0  0
  5  7  2  0  0  0  0
  6  9  2  0  0  0  0
  7  3  1  0  0  0  0
  8  6  1  0  0  0  0
 10  4  2  0  0  0  0
 11 20  1  0  0  0  0
 11 17  1  0  0  0  0
 12 15  1  0  0  0  0
 12 13  1  1  0  0  0
 15 14  1  1  0  0  0
 16 17  1  0  0  0  0
 16 18  1  0  0  0  0
 17 19  2  0  0  0  0
 18  6  1  6  0  0  0
 18 12  1  0  0  0  0
 19 15  1  0  0  0  0
 21 20  1  0  0  0  0
 23 27  1  0  0  0  0
 24 26  1  0  0  0  0
 25 23  1  0  0  0  0
 25 24  1  0  0  0  0
 25 28  1  0  0  0  0
 26 22  1  0  0  0  0
 26 21  1  0  0  0  0
 27 22  1  0  0  0  0
 29 30  1  6  0  0  0
 29  5  1  0  0  0  0
 31 29  1  0  0  0  0
 32 31  1  0  0  0  0
 33 32  3  0  0  0  0
 35 34  1  0  0  0  0
 35 38  1  0  0  0  0
 36 35  1  0  0  0  0
 37 40  1  0  0  0  0
 37 34  1  0  0  0  0
 40 42  2  0  0  0  0
 41 40  1  0  0  0  0
 41 38  1  0  0  0  0
 42 39  1  0  0  0  0
 42 33  1  0  0  0  0
M  END
>  <MODEL>
6

>  <REMARK>
 VINA RESULT:      -8.8      2.958      5.981
  Name = 
  8 active torsions:
  status: ('A' for Active; 'I' for Inactive)
    1  A    between atoms: N_4  and  C_5
    2  A    between atoms: N_4  and  C_21
    3  A    between atoms: C_5  and  C_22
    4  A    between atoms: C_6  and  N_9
    5  A    between atoms: C_6  and  O_18
    6  A    between atoms: O_18  and  N_23
    7  A    between atoms: C_25  and  C_37
    8  A    between atoms: C_41  and  C_42
                            x       y       z     vdW  Elec       q    Type
                         _______ _______ _______ _____ _____    ______ ____

>  <TORSDO>
F 8

$$$$
=
 OpenBabel10222419283D

 42 46  0  0  1  0  0  0  0  0999 V2000
  185.6630  178.4400  144.7780 C   0  0  0  0  0  0  0  0  0  0  0  0
  184.4310  178.9390  145.2130 C   0  0  0  0  0  3  0  0  0  0  0  0
  185.8160  178.0130  143.4440 C   0  0  0  0  0  0  0  0  0  0  0  0
  186.7160  178.3570  145.6300 N   0  0  0  0  0  0  0  0  0  0  0  0
  188.0690  177.4340  143.8950 C   0  0  0  0  0  0  0  0  0  0  0  0
  183.5040  178.5720  142.9950 C   0  0  0  0  0  0  0  0  0  0  0  0
  187.0190  177.5320  143.0330 N   0  0  0  0  0  0  0  0  0  0  0  0
  184.7410  178.0840  142.5570 C   0  0  0  0  0  3  0  0  0  0  0  0
  183.3540  179.0070  144.3230 C   0  0  0  0  0  3  0  0  0  0  0  0
  187.9150  177.8660  145.2170 C   0  0  0  0  0  3  0  0  0  0  0  0
  181.9930  180.1120  138.5040 N   0  0  0  0  0  2  0  0  0  0  0  0
  181.1200  179.3160  142.6040 C   0  0  2  0  0  3  0  0  0  0  0  0
  180.6520  178.6060  143.8660 C   0  0  0  0  0  1  0  0  0  0  0  0
  178.9310  180.0370  141.9740 F   0  0  0  0  0  0  0  0  0  0  0  0
  180.0010  179.2620  141.5680 C   0  0  1  0  0  3  0  0  0  0  0  0
  182.8160  179.3400  140.7490 C   0  0  0  0  0  2  0  0  0  0  0  0
  181.6770  179.6700  139.8250 C   0  0  0  0  0  0  0  0  0  0  0  0
  182.3630  178.6320  142.0230 C   0  0  1  0  0  3  0  0  0  0  0  0
  180.4440  179.7000  140.2450 N   0  0  0  0  0  0  0  0  0  0  0  0
  180.9700  180.4200  137.5140 C   0  0  0  0  0  2  0  0  0  0  0  0
  181.2370  181.6600  136.9250 O   0  0  0  0  0  0  0  0  0  0  0  0
  179.5160  182.7780  137.9060 C   0  0  0  0  0  2  0  0  0  0  0  0
  179.7090  185.1500  137.2240 C   0  0  0  0  0  2  0  0  0  0  0  0
  181.7420  183.8010  137.5820 C   0  0  0  0  0  2  0  0  0  0  0  0
  181.0290  184.7530  136.7090 N   0  0  0  0  0  0  0  0  0  0  0  0
  180.9720  182.5770  137.8890 N   0  0  0  0  0  0  0  0  0  0  0  0
  179.1520  184.2020  138.2860 C   0  0  0  0  0  2  0  0  0  0  0  0
  180.8600  184.1780  135.3810 C   0  0  0  0  0  1  0  0  0  0  0  0
  189.3950  176.9100  143.4350 C   0  0  2  0  0  3  0  0  0  0  0  0
  190.3150  176.7330  144.6260 C   0  0  0  0  0  1  0  0  0  0  0  0
  190.0180  177.8140  142.4770 N   0  0  0  0  0  2  0  0  0  0  0  0
  190.2380  177.4410  141.1430 C   0  0  0  0  0  0  0  0  0  0  0  0
  190.4110  177.1300  139.9900 C   0  0  0  0  0  0  0  0  0  0  0  0
  189.1770  177.5400  135.3460 C   0  0  0  0  0  2  0  0  0  0  0  0
  187.7970  177.9100  135.6970 N   0  0  0  0  0  0  0  0  0  0  0  0
  186.9040  176.7710  135.5050 C   0  0  0  0  0  1  0  0  0  0  0  0
  189.7660  176.4790  136.2830 C   0  0  0  0  0  2  0  0  0  0  0  0
  187.7120  178.3950  137.0830 C   0  0  0  0  0  2  0  0  0  0  0  0
  191.9360  176.2690  138.1980 C   0  0  0  0  0  1  0  0  0  0  0  0
  189.5990  176.9100  137.7080 C   0  0  0  0  0  0  0  0  0  0  0  0
  188.2310  177.3770  138.1050 C   0  0  0  0  0  2  0  0  0  0  0  0
  190.5950  176.7840  138.6020 C   0  0  0  0  0  0  0  0  0  0  0  0
  1  2  1  0  0  0  0
  1  4  1  0  0  0  0
  3  1  2  0  0  0  0
  5 10  1  0  0  0  0
  6  9  1  0  0  0  0
  7  3  1  0  0  0  0
  7  5  2  0  0  0  0
  8  6  2  0  0  0  0
  8  3  1  0  0  0  0
  9  2  2  0  0  0  0
 10  4  2  0  0  0  0
 11 17  1  0  0  0  0
 12 13  1  1  0  0  0
 15 14  1  1  0  0  0
 15 12  1  0  0  0  0
 16 18  1  0  0  0  0
 17 19  2  0  0  0  0
 17 16  1  0  0  0  0
 18 12  1  0  0  0  0
 18  6  1  1  0  0  0
 19 15  1  0  0  0  0
 20 11  1  0  0  0  0
 21 20  1  0  0  0  0
 21 26  1  0  0  0  0
 22 27  1  0  0  0  0
 23 27  1  0  0  0  0
 24 26  1  0  0  0  0
 25 23  1  0  0  0  0
 25 24  1  0  0  0  0
 26 22  1  0  0  0  0
 28 25  1  0  0  0  0
 29  5  1  0  0  0  0
 29 30  1  1  0  0  0
 31 29  1  0  0  0  0
 32 31  1  0  0  0  0
 33 32  3  0  0  0  0
 34 35  1  0  0  0  0
 34 37  1  0  0  0  0
 35 38  1  0  0  0  0
 36 35  1  0  0  0  0
 37 40  1  0  0  0  0
 38 41  1  0  0  0  0
 39 42  1  0  0  0  0
 40 41  1  0  0  0  0
 40 42  2  0  0  0  0
 42 33  1  0  0  0  0
M  END
>  <MODEL>
7

>  <REMARK>
 VINA RESULT:      -8.8      2.839      3.707
  Name = 
  8 active torsions:
  status: ('A' for Active; 'I' for Inactive)
    1  A    between atoms: N_4  and  C_5
    2  A    between atoms: N_4  and  C_21
    3  A    between atoms: C_5  and  C_22
    4  A    between atoms: C_6  and  N_9
    5  A    between atoms: C_6  and  O_18
    6  A    between atoms: O_18  and  N_23
    7  A    between atoms: C_25  and  C_37
    8  A    between atoms: C_41  and  C_42
                            x       y       z     vdW  Elec       q    Type
                         _______ _______ _______ _____ _____    ______ ____

>  <TORSDO>
F 8

$$$$
=
 OpenBabel10222419283D

 42 46  0  0  1  0  0  0  0  0999 V2000
  182.3820  177.9940  138.0970 C   0  0  0  0  0  0  0  0  0  0  0  0
  182.6940  179.3230  138.4030 C   0  0  0  0  0  3  0  0  0  0  0  0
  182.6170  176.9800  139.0470 C   0  0  0  0  0  0  0  0  0  0  0  0
  181.8570  177.6680  136.8890 N   0  0  0  0  0  0  0  0  0  0  0  0
  181.7970  175.3670  137.5180 C   0  0  0  0  0  0  0  0  0  0  0  0
  183.4880  178.6270  140.5950 C   0  0  0  0  0  0  0  0  0  0  0  0
  182.3070  175.6940  138.7390 N   0  0  0  0  0  0  0  0  0  0  0  0
  183.1640  177.2990  140.2910 C   0  0  0  0  0  3  0  0  0  0  0  0
  183.2440  179.6380  139.6500 C   0  0  0  0  0  3  0  0  0  0  0  0
  181.5570  176.3780  136.5810 C   0  0  0  0  0  3  0  0  0  0  0  0
  187.2670  177.7850  143.7300 N   0  0  0  0  0  2  0  0  0  0  0  0
  183.1310  178.6190  143.0960 C   0  0  2  0  0  3  0  0  0  0  0  0
  181.8200  179.3770  142.9490 C   0  0  0  0  0  1  0  0  0  0  0  0
  183.0600  178.5860  145.4850 F   0  0  0  0  0  0  0  0  0  0  0  0
  183.7950  179.0380  144.4050 C   0  0  1  0  0  3  0  0  0  0  0  0
  185.3980  178.1880  142.1000 C   0  0  0  0  0  2  0  0  0  0  0  0
  185.9320  178.2400  143.5040 C   0  0  0  0  0  0  0  0  0  0  0  0
  184.0800  178.9400  141.9360 C   0  0  1  0  0  3  0  0  0  0  0  0
  185.1690  178.5480  144.5140 N   0  0  0  0  0  0  0  0  0  0  0  0
  187.8990  177.8270  145.0410 C   0  0  0  0  0  2  0  0  0  0  0  0
  188.8050  176.7690  145.1670 O   0  0  0  0  0  0  0  0  0  0  0  0
  189.9830  178.6170  144.5540 C   0  0  0  0  0  2  0  0  0  0  0  0
  191.7340  177.8690  142.9730 C   0  0  0  0  0  2  0  0  0  0  0  0
  191.0470  176.4040  144.8340 C   0  0  0  0  0  2  0  0  0  0  0  0
  191.3430  176.5140  143.3920 N   0  0  0  0  0  0  0  0  0  0  0  0
  190.0200  177.3560  145.3080 N   0  0  0  0  0  0  0  0  0  0  0  0
  191.3400  178.9590  143.9690 C   0  0  0  0  0  2  0  0  0  0  0  0
  190.1840  176.1000  142.6140 C   0  0  0  0  0  1  0  0  0  0  0  0
  181.4500  173.9480  137.1850 C   0  0  2  0  0  3  0  0  0  0  0  0
  180.3200  173.4760  138.0780 C   0  0  0  0  0  1  0  0  0  0  0  0
  182.5980  173.0670  137.3570 N   0  0  0  0  0  2  0  0  0  0  0  0
  183.9140  173.5310  137.2130 C   0  0  0  0  0  0  0  0  0  0  0  0
  185.0520  173.9150  137.1030 C   0  0  0  0  0  0  0  0  0  0  0  0
  188.5120  177.2080  137.7740 C   0  0  0  0  0  2  0  0  0  0  0  0
  187.5340  178.3070  137.7580 N   0  0  0  0  0  0  0  0  0  0  0  0
  187.5690  178.9960  136.4720 C   0  0  0  0  0  1  0  0  0  0  0  0
  188.1720  176.0940  136.7780 C   0  0  0  0  0  2  0  0  0  0  0  0
  186.1750  177.8150  138.0350 C   0  0  0  0  0  2  0  0  0  0  0  0
  187.4640  173.2800  136.8580 C   0  0  0  0  0  1  0  0  0  0  0  0
  186.7560  175.6460  136.9780 C   0  0  0  0  0  0  0  0  0  0  0  0
  185.7220  176.7290  137.0520 C   0  0  0  0  0  2  0  0  0  0  0  0
  186.4240  174.3440  136.9840 C   0  0  0  0  0  0  0  0  0  0  0  0
  1  2  2  0  0  0  0
  1  3  1  0  0  0  0
  2  9  1  0  0  0  0
  3  8  2  0  0  0  0
  4  1  1  0  0  0  0
  5  7  2  0  0  0  0
  7  3  1  0  0  0  0
  8  6  1  0  0  0  0
  9  6  2  0  0  0  0
 10  4  2  0  0  0  0
 10  5  1  0  0  0  0
 11 20  1  0  0  0  0
 12 13  1  6  0  0  0
 12 15  1  0  0  0  0
 15 19  1  0  0  0  0
 15 14  1  1  0  0  0
 16 17  1  0  0  0  0
 17 11  1  0  0  0  0
 17 19  2  0  0  0  0
 18  6  1  6  0  0  0
 18 16  1  0  0  0  0
 18 12  1  0  0  0  0
 20 21  1  0  0  0  0
 21 26  1  0  0  0  0
 22 26  1  0  0  0  0
 23 25  1  0  0  0  0
 23 27  1  0  0  0  0
 24 26  1  0  0  0  0
 25 24  1  0  0  0  0
 27 22  1  0  0  0  0
 28 25  1  0  0  0  0
 29 31  1  0  0  0  0
 29  5  1  0  0  0  0
 29 30  1  1  0  0  0
 32 31  1  0  0  0  0
 33 32  3  0  0  0  0
 35 34  1  0  0  0  0
 35 38  1  0  0  0  0
 36 35  1  0  0  0  0
 37 40  1  0  0  0  0
 37 34  1  0  0  0  0
 39 42  1  0  0  0  0
 40 42  2  0  0  0  0
 40 41  1  0  0  0  0
 41 38  1  0  0  0  0
 42 33  1  0  0  0  0
M  END
>  <MODEL>
8

>  <REMARK>
 VINA RESULT:      -8.6      2.660      8.518
  Name = 
  8 active torsions:
  status: ('A' for Active; 'I' for Inactive)
    1  A    between atoms: N_4  and  C_5
    2  A    between atoms: N_4  and  C_21
    3  A    between atoms: C_5  and  C_22
    4  A    between atoms: C_6  and  N_9
    5  A    between atoms: C_6  and  O_18
    6  A    between atoms: O_18  and  N_23
    7  A    between atoms: C_25  and  C_37
    8  A    between atoms: C_41  and  C_42
                            x       y       z     vdW  Elec       q    Type
                         _______ _______ _______ _____ _____    ______ ____

>  <TORSDO>
F 8

$$$$
=
 OpenBabel10222419283D

 42 46  0  0  1  0  0  0  0  0999 V2000
  186.6170  178.0050  146.1710 C   0  0  0  0  0  0  0  0  0  0  0  0
  185.3020  178.3910  146.4510 C   0  0  0  0  0  3  0  0  0  0  0  0
  187.0650  177.9500  144.8350 C   0  0  0  0  0  0  0  0  0  0  0  0
  187.4720  177.6780  147.1740 N   0  0  0  0  0  0  0  0  0  0  0  0
  189.1940  177.2320  145.5850 C   0  0  0  0  0  0  0  0  0  0  0  0
  184.8760  178.6500  144.0700 C   0  0  0  0  0  0  0  0  0  0  0  0
  188.3450  177.5770  144.5760 N   0  0  0  0  0  0  0  0  0  0  0  0
  186.1960  178.2760  143.7920 C   0  0  0  0  0  3  0  0  0  0  0  0
  184.4350  178.7130  145.4030 C   0  0  0  0  0  3  0  0  0  0  0  0
  188.7490  177.2960  146.9100 C   0  0  0  0  0  3  0  0  0  0  0  0
  180.2810  178.2000  142.1980 N   0  0  0  0  0  2  0  0  0  0  0  0
  184.4910  178.5000  141.5770 C   0  0  2  0  0  3  0  0  0  0  0  0
  185.8690  179.0830  141.2930 C   0  0  0  0  0  1  0  0  0  0  0  0
  183.8660  178.3690  139.2740 F   0  0  0  0  0  0  0  0  0  0  0  0
  183.5320  178.9540  140.4810 C   0  0  1  0  0  3  0  0  0  0  0  0
  182.5750  178.4130  143.2010 C   0  0  0  0  0  2  0  0  0  0  0  0
  181.6680  178.4830  142.0040 C   0  0  0  0  0  0  0  0  0  0  0  0
  183.9630  178.9890  142.9300 C   0  0  1  0  0  3  0  0  0  0  0  0
  182.1370  178.6480  140.8000 N   0  0  0  0  0  0  0  0  0  0  0  0
  179.3070  178.2780  141.1190 C   0  0  0  0  0  2  0  0  0  0  0  0
  179.0270  176.9940  140.6380 O   0  0  0  0  0  0  0  0  0  0  0  0
  178.9310  176.7250  138.3800 C   0  0  0  0  0  2  0  0  0  0  0  0
  179.6720  174.4130  137.8950 C   0  0  0  0  0  2  0  0  0  0  0  0
  180.6810  175.6640  139.7650 C   0  0  0  0  0  2  0  0  0  0  0  0
  180.0860  174.3940  139.3070 N   0  0  0  0  0  0  0  0  0  0  0  0
  179.8180  176.8440  139.5460 N   0  0  0  0  0  0  0  0  0  0  0  0
  179.5240  175.8200  137.3160 C   0  0  0  0  0  2  0  0  0  0  0  0
  178.9300  174.0620  140.1280 C   0  0  0  0  0  1  0  0  0  0  0  0
  190.6070  176.8280  145.2950 C   0  0  2  0  0  3  0  0  0  0  0  0
  191.3720  176.6790  146.5940 C   0  0  0  0  0  1  0  0  0  0  0  0
  191.2770  177.8120  144.4530 N   0  0  0  0  0  2  0  0  0  0  0  0
  191.3890  177.6440  143.0640 C   0  0  0  0  0  0  0  0  0  0  0  0
  191.5050  177.4950  141.8740 C   0  0  0  0  0  0  0  0  0  0  0  0
  189.8350  177.7430  137.3560 C   0  0  0  0  0  2  0  0  0  0  0  0
  188.4410  177.6430  137.8160 N   0  0  0  0  0  0  0  0  0  0  0  0
  187.9310  176.2940  137.5920 C   0  0  0  0  0  1  0  0  0  0  0  0
  190.7960  176.8730  138.1730 C   0  0  0  0  0  2  0  0  0  0  0  0
  188.3230  178.0020  139.2380 C   0  0  0  0  0  2  0  0  0  0  0  0
  193.0720  177.2520  139.9330 C   0  0  0  0  0  1  0  0  0  0  0  0
  190.6200  177.1540  139.6340 C   0  0  0  0  0  0  0  0  0  0  0  0
  189.2110  177.1460  140.1460 C   0  0  0  0  0  2  0  0  0  0  0  0
  191.6740  177.2990  140.4550 C   0  0  0  0  0  0  0  0  0  0  0  0
  1  2  1  0  0  0  0
  1  4  1  0  0  0  0
  3  1  2  0  0  0  0
  5 10  1  0  0  0  0
  6  9  1  0  0  0  0
  7  3  1  0  0  0  0
  7  5  2  0  0  0  0
  8  6  2  0  0  0  0
  8  3  1  0  0  0  0
  9  2  2  0  0  0  0
 10  4  2  0  0  0  0
 12 13  1  6  0  0  0
 12 18  1  0  0  0  0
 15 14  1  6  0  0  0
 15 19  1  0  0  0  0
 15 12  1  0  0  0  0
 17 11  1  0  0  0  0
 17 16  1  0  0  0  0
 18 16  1  0  0  0  0
 18  6  1  1  0  0  0
 19 17  2  0  0  0  0
 20 11  1  0  0  0  0
 21 20  1  0  0  0  0
 22 26  1  0  0  0  0
 23 25  1  0  0  0  0
 25 24  1  0  0  0  0
 25 28  1  0  0  0  0
 26 24  1  0  0  0  0
 26 21  1  0  0  0  0
 27 23  1  0  0  0  0
 27 22  1  0  0  0  0
 29  5  1  0  0  0  0
 29 30  1  1  0  0  0
 31 29  1  0  0  0  0
 32 31  1  0  0  0  0
 33 32  3  0  0  0  0
 34 35  1  0  0  0  0
 34 37  1  0  0  0  0
 35 38  1  0  0  0  0
 36 35  1  0  0  0  0
 37 40  1  0  0  0  0
 38 41  1  0  0  0  0
 39 42  1  0  0  0  0
 40 41  1  0  0  0  0
 40 42  2  0  0  0  0
 42 33  1  0  0  0  0
M  END
>  <MODEL>
9

>  <REMARK>
 VINA RESULT:      -8.6      1.788      2.495
  Name = 
  8 active torsions:
  status: ('A' for Active; 'I' for Inactive)
    1  A    between atoms: N_4  and  C_5
    2  A    between atoms: N_4  and  C_21
    3  A    between atoms: C_5  and  C_22
    4  A    between atoms: C_6  and  N_9
    5  A    between atoms: C_6  and  O_18
    6  A    between atoms: O_18  and  N_23
    7  A    between atoms: C_25  and  C_37
    8  A    between atoms: C_41  and  C_42
                            x       y       z     vdW  Elec       q    Type
                         _______ _______ _______ _____ _____    ______ ____

>  <TORSDO>
F 8

$$$$
