=
 OpenBabel10222420123D

 27 30  0  0  1  0  0  0  0  0999 V2000
  191.0410  178.9350  143.1050 C   0  0  0  0  0  3  0  0  0  0  0  0
  187.2310  177.6420  143.4070 C   0  0  1  0  0  3  0  0  0  0  0  0
  184.3660  178.5810  146.0970 N   0  0  0  0  0  0  0  0  0  0  0  0
  184.1180  178.9550  144.8040 C   0  0  0  0  0  0  0  0  0  0  0  0
  189.8220  178.3960  142.9420 N   0  0  0  0  0  0  0  0  0  0  0  0
  187.5550  178.3050  142.1760 N   0  0  0  0  0  2  0  0  0  0  0  0
  188.2730  176.9860  144.2650 C   0  0  2  0  0  3  0  0  0  0  0  0
  186.1930  177.9600  144.1550 C   0  0  0  0  0  0  0  0  0  0  0  0
  191.5360  178.6560  144.3330 N   0  0  0  0  0  0  0  0  0  0  0  0
  187.6430  177.0960  145.6290 C   0  0  0  0  0  2  0  0  0  0  0  0
  185.5130  177.9340  146.4560 C   0  0  0  0  0  3  0  0  0  0  0  0
  189.5350  177.7730  144.0940 C   0  0  0  0  0  0  0  0  0  0  0  0
  185.0450  178.6610  143.7900 C   0  0  0  0  0  3  0  0  0  0  0  0
  190.5950  177.9120  144.9620 C   0  0  0  0  0  3  0  0  0  0  0  0
  186.4390  177.6250  145.4640 C   0  0  0  0  0  0  0  0  0  0  0  0
  188.9590  178.4080  141.7540 C   0  0  2  0  0  3  0  0  0  0  0  0
  182.1730  178.9750  143.2960 C   0  0  0  0  0  1  0  0  0  0  0  0
  182.8500  179.6600  144.4670 C   0  0  0  0  0  2  0  0  0  0  0  0
  189.3140  177.2390  140.8170 C   0  0  1  0  0  3  0  0  0  0  0  0
  188.6330  177.3280  139.4490 C   0  0  0  0  0  2  0  0  0  0  0  0
  188.4530  178.6560  139.0570 O   0  0  0  0  0  1  0  0  0  0  0  0
  190.8190  176.9740  140.7060 C   0  0  0  0  0  2  0  0  0  0  0  0
  191.2810  176.6890  139.2820 C   0  0  0  0  0  2  0  0  0  0  0  0
  192.6550  176.9010  139.1760 O   0  0  0  0  0  0  0  0  0  0  0  0
  194.0570  176.6710  136.7920 O   0  0  0  0  0  0  0  0  0  0  0  0
  192.5700  174.6540  137.5480 O   0  0  0  0  0  0  0  0  0  0  0  0
  193.1110  176.0440  137.7910 P   0  0  0  0  0  0  0  0  0  0  0  0
  1  9  2  0  0  0  0
  2  6  1  1  0  0  0
  2  8  1  0  0  0  0
  2  7  1  0  0  0  0
  3 11  1  0  0  0  0
  4  3  2  0  0  0  0
  5  1  1  0  0  0  0
  5 12  1  0  0  0  0
  7 10  1  1  0  0  0
  8 15  1  0  0  0  0
  9 14  1  0  0  0  0
 12  7  1  0  0  0  0
 12 14  2  0  0  0  0
 13  8  2  0  0  0  0
 13  4  1  0  0  0  0
 15 10  1  0  0  0  0
 15 11  2  0  0  0  0
 16 19  1  6  0  0  0
 16  6  1  0  0  0  0
 16  5  1  0  0  0  0
 17 18  1  0  0  0  0
 18  4  1  0  0  0  0
 19 20  1  6  0  0  0
 21 20  1  0  0  0  0
 22 19  1  0  0  0  0
 23 22  1  0  0  0  0
 24 23  1  0  0  0  0
 25 27  2  0  0  0  0
 26 27  2  0  0  0  0
 27 24  1  0  0  0  0
M  END
>  <MODEL>
1

>  <REMARK>
 VINA RESULT:      -7.8      0.000      0.000
  Name = 
  7 active torsions:
  status: ('A' for Active; 'I' for Inactive)
    1  A    between atoms: C_1  and  C_26
    2  A    between atoms: C_5  and  C_15
    3  A    between atoms: O_10  and  P_24
    4  A    between atoms: O_10  and  C_27
    5  A    between atoms: C_22  and  C_26
    6  A    between atoms: C_22  and  C_27
    7  A    between atoms: C_25  and  C_26
                            x       y       z     vdW  Elec       q    Type
                         _______ _______ _______ _____ _____    ______ ____

>  <TORSDO>
F 7

$$$$
=
 OpenBabel10222420123D

 27 30  0  0  1  0  0  0  0  0999 V2000
  188.4500  176.1320  143.5660 C   0  0  0  0  0  3  0  0  0  0  0  0
  185.3660  178.5920  142.7150 C   0  0  1  0  0  3  0  0  0  0  0  0
  182.9220  178.6900  139.4990 N   0  0  0  0  0  0  0  0  0  0  0  0
  182.3260  178.3860  140.6940 C   0  0  0  0  0  0  0  0  0  0  0  0
  187.4520  177.0310  143.5580 N   0  0  0  0  0  0  0  0  0  0  0  0
  185.2250  177.8310  143.9240 N   0  0  0  0  0  2  0  0  0  0  0  0
  186.7050  178.8960  142.1090 C   0  0  2  0  0  3  0  0  0  0  0  0
  184.4440  178.6440  141.7740 C   0  0  0  0  0  0  0  0  0  0  0  0
  189.2320  176.2650  142.4700 N   0  0  0  0  0  0  0  0  0  0  0  0
  186.3450  179.0270  140.6520 C   0  0  0  0  0  2  0  0  0  0  0  0
  184.2590  178.9410  139.4010 C   0  0  0  0  0  3  0  0  0  0  0  0
  187.6010  177.7410  142.4300 C   0  0  0  0  0  0  0  0  0  0  0  0
  183.0870  178.3420  141.8750 C   0  0  0  0  0  3  0  0  0  0  0  0
  188.7100  177.2880  141.7510 C   0  0  0  0  0  3  0  0  0  0  0  0
  185.0280  178.9120  140.5610 C   0  0  0  0  0  0  0  0  0  0  0  0
  186.4180  177.2710  144.5740 C   0  0  2  0  0  3  0  0  0  0  0  0
  180.3050  178.5550  142.0870 C   0  0  0  0  0  1  0  0  0  0  0  0
  180.8620  178.1200  140.7460 C   0  0  0  0  0  2  0  0  0  0  0  0
  186.9340  178.2400  145.6520 C   0  0  1  0  0  3  0  0  0  0  0  0
  185.8680  179.2170  146.1530 C   0  0  0  0  0  2  0  0  0  0  0  0
  185.0980  178.6480  147.1710 O   0  0  0  0  0  1  0  0  0  0  0  0
  187.6790  177.5470  146.7990 C   0  0  0  0  0  2  0  0  0  0  0  0
  189.1860  177.7680  146.7650 C   0  0  0  0  0  2  0  0  0  0  0  0
  189.8400  176.6780  147.3390 O   0  0  0  0  0  0  0  0  0  0  0  0
  192.5250  175.9800  147.2740 O   0  0  0  0  0  0  0  0  0  0  0  0
  191.5430  177.2980  145.2370 O   0  0  0  0  0  0  0  0  0  0  0  0
  191.3560  176.6500  146.5890 P   0  0  0  0  0  0  0  0  0  0  0  0
  2  8  1  6  0  0  0
  2  6  1  0  0  0  0
  3  4  1  0  0  0  0
  4 18  1  0  0  0  0
  4 13  2  0  0  0  0
  5  1  1  0  0  0  0
  5 16  1  0  0  0  0
  6 16  1  0  0  0  0
  7 10  1  6  0  0  0
  7 12  1  0  0  0  0
  7  2  1  0  0  0  0
  8 13  1  0  0  0  0
  9  1  2  0  0  0  0
 11  3  2  0  0  0  0
 11 15  1  0  0  0  0
 12  5  1  0  0  0  0
 14 12  2  0  0  0  0
 14  9  1  0  0  0  0
 15 10  1  0  0  0  0
 15  8  2  0  0  0  0
 16 19  1  1  0  0  0
 18 17  1  0  0  0  0
 19 20  1  1  0  0  0
 19 22  1  0  0  0  0
 20 21  1  0  0  0  0
 23 22  1  0  0  0  0
 23 24  1  0  0  0  0
 26 27  2  0  0  0  0
 27 25  2  0  0  0  0
 27 24  1  0  0  0  0
M  END
>  <MODEL>
2

>  <REMARK>
 VINA RESULT:      -7.6      4.150      5.849
  Name = 
  7 active torsions:
  status: ('A' for Active; 'I' for Inactive)
    1  A    between atoms: C_1  and  C_26
    2  A    between atoms: C_5  and  C_15
    3  A    between atoms: O_10  and  P_24
    4  A    between atoms: O_10  and  C_27
    5  A    between atoms: C_22  and  C_26
    6  A    between atoms: C_22  and  C_27
    7  A    between atoms: C_25  and  C_26
                            x       y       z     vdW  Elec       q    Type
                         _______ _______ _______ _____ _____    ______ ____

>  <TORSDO>
F 7

$$$$
=
 OpenBabel10222420123D

 27 30  0  0  1  0  0  0  0  0999 V2000
  180.2300  177.6580  141.8690 C   0  0  0  0  0  3  0  0  0  0  0  0
  184.0090  178.8340  142.6550 C   0  0  1  0  0  3  0  0  0  0  0  0
  186.5210  177.7240  145.6190 N   0  0  0  0  0  0  0  0  0  0  0  0
  186.9080  177.3880  144.3490 C   0  0  0  0  0  0  0  0  0  0  0  0
  181.4730  178.1680  141.8680 N   0  0  0  0  0  0  0  0  0  0  0  0
  183.8140  178.2240  141.3710 N   0  0  0  0  0  2  0  0  0  0  0  0
  182.8900  179.4880  143.4120 C   0  0  2  0  0  3  0  0  0  0  0  0
  184.9470  178.4620  143.5050 C   0  0  0  0  0  0  0  0  0  0  0  0
  179.6040  177.9080  143.0420 N   0  0  0  0  0  0  0  0  0  0  0  0
  183.3550  179.3140  144.8340 C   0  0  0  0  0  2  0  0  0  0  0  0
  185.3560  178.3890  145.8680 C   0  0  0  0  0  3  0  0  0  0  0  0
  181.6390  178.7430  143.0680 C   0  0  0  0  0  0  0  0  0  0  0  0
  186.1120  177.7430  143.2480 C   0  0  0  0  0  3  0  0  0  0  0  0
  180.4820  178.6030  143.8020 C   0  0  0  0  0  3  0  0  0  0  0  0
  184.5590  178.7580  144.7890 C   0  0  0  0  0  0  0  0  0  0  0  0
  182.4670  178.1740  140.7870 C   0  0  2  0  0  3  0  0  0  0  0  0
  189.2970  177.3130  144.9390 C   0  0  0  0  0  1  0  0  0  0  0  0
  188.1900  176.6610  144.1330 C   0  0  0  0  0  2  0  0  0  0  0  0
  182.2500  179.3840  139.8600 C   0  0  1  0  0  3  0  0  0  0  0  0
  183.2990  179.4970  138.7510 C   0  0  0  0  0  2  0  0  0  0  0  0
  184.2180  180.5130  139.0250 O   0  0  0  0  0  1  0  0  0  0  0  0
  180.8180  179.5030  139.3260 C   0  0  0  0  0  2  0  0  0  0  0  0
  180.1760  180.8550  139.6070 C   0  0  0  0  0  2  0  0  0  0  0  0
  179.4610  181.2850  138.4900 O   0  0  0  0  0  0  0  0  0  0  0  0
  180.4100  182.1870  136.0430 O   0  0  0  0  0  0  0  0  0  0  0  0
  181.8220  182.7120  138.1840 O   0  0  0  0  0  0  0  0  0  0  0  0
  180.6040  182.0910  137.5390 P   0  0  0  0  0  0  0  0  0  0  0  0
  1  9  2  0  0  0  0
  2  6  1  1  0  0  0
  2  7  1  0  0  0  0
  2  8  1  0  0  0  0
  3 11  1  0  0  0  0
  4  3  2  0  0  0  0
  5  1  1  0  0  0  0
  5 12  1  0  0  0  0
  7 10  1  1  0  0  0
  8 15  1  0  0  0  0
  9 14  1  0  0  0  0
 12  7  1  0  0  0  0
 12 14  2  0  0  0  0
 13  8  2  0  0  0  0
 13  4  1  0  0  0  0
 15 10  1  0  0  0  0
 15 11  2  0  0  0  0
 16 19  1  6  0  0  0
 16  6  1  0  0  0  0
 16  5  1  0  0  0  0
 18  4  1  0  0  0  0
 18 17  1  0  0  0  0
 19 20  1  6  0  0  0
 20 21  1  0  0  0  0
 22 23  1  0  0  0  0
 22 19  1  0  0  0  0
 24 23  1  0  0  0  0
 25 27  2  0  0  0  0
 27 26  2  0  0  0  0
 27 24  1  0  0  0  0
M  END
>  <MODEL>
3

>  <REMARK>
 VINA RESULT:      -7.1      5.096      8.386
  Name = 
  7 active torsions:
  status: ('A' for Active; 'I' for Inactive)
    1  A    between atoms: C_1  and  C_26
    2  A    between atoms: C_5  and  C_15
    3  A    between atoms: O_10  and  P_24
    4  A    between atoms: O_10  and  C_27
    5  A    between atoms: C_22  and  C_26
    6  A    between atoms: C_22  and  C_27
    7  A    between atoms: C_25  and  C_26
                            x       y       z     vdW  Elec       q    Type
                         _______ _______ _______ _____ _____    ______ ____

>  <TORSDO>
F 7

$$$$
=
 OpenBabel10222420123D

 27 30  0  0  1  0  0  0  0  0999 V2000
  188.0680  176.5330  146.9350 C   0  0  0  0  0  3  0  0  0  0  0  0
  188.7700  177.9140  143.2090 C   0  0  1  0  0  3  0  0  0  0  0  0
  191.8760  177.2310  140.7180 N   0  0  0  0  0  0  0  0  0  0  0  0
  190.6590  176.7660  140.2970 C   0  0  0  0  0  0  0  0  0  0  0  0
  188.0270  177.0810  145.7090 N   0  0  0  0  0  0  0  0  0  0  0  0
  187.5610  177.1560  143.3610 N   0  0  0  0  0  2  0  0  0  0  0  0
  189.4310  178.6130  144.3610 C   0  0  2  0  0  3  0  0  0  0  0  0
  189.6700  177.6720  142.2760 C   0  0  0  0  0  0  0  0  0  0  0  0
  189.1960  176.8940  147.5900 N   0  0  0  0  0  0  0  0  0  0  0  0
  190.8690  178.6170  143.9160 C   0  0  0  0  0  2  0  0  0  0  0  0
  192.0310  177.8810  141.9070 C   0  0  0  0  0  3  0  0  0  0  0  0
  189.1560  177.7940  145.5820 C   0  0  0  0  0  0  0  0  0  0  0  0
  189.5130  176.9670  141.0840 C   0  0  0  0  0  3  0  0  0  0  0  0
  189.8850  177.7000  146.7470 C   0  0  0  0  0  3  0  0  0  0  0  0
  190.9050  178.0990  142.6960 C   0  0  0  0  0  0  0  0  0  0  0  0
  186.9670  176.9960  144.6960 C   0  0  2  0  0  3  0  0  0  0  0  0
  190.1870  177.0500  137.8990 C   0  0  0  0  0  1  0  0  0  0  0  0
  190.5460  176.0610  138.9900 C   0  0  0  0  0  2  0  0  0  0  0  0
  185.9050  178.0850  144.9330 C   0  0  1  0  0  3  0  0  0  0  0  0
  186.1270  178.8820  146.2210 C   0  0  0  0  0  2  0  0  0  0  0  0
  184.9430  179.0030  146.9530 O   0  0  0  0  0  1  0  0  0  0  0  0
  185.6670  178.9890  143.7180 C   0  0  0  0  0  2  0  0  0  0  0  0
  184.3270  178.7480  143.0360 C   0  0  0  0  0  2  0  0  0  0  0  0
  184.4940  177.8920  141.9480 O   0  0  0  0  0  0  0  0  0  0  0  0
  184.2770  179.7460  139.8950 O   0  0  0  0  0  0  0  0  0  0  0  0
  186.6610  178.8520  140.5040 O   0  0  0  0  0  0  0  0  0  0  0  0
  185.1680  178.8650  140.7410 P   0  0  0  0  0  0  0  0  0  0  0  0
  1  9  2  0  0  0  0
  2  8  1  1  0  0  0
  2  6  1  0  0  0  0
  2  7  1  0  0  0  0
  3 11  1  0  0  0  0
  4  3  2  0  0  0  0
  4 13  1  0  0  0  0
  5  1  1  0  0  0  0
  6 16  1  0  0  0  0
  7 10  1  6  0  0  0
  7 12  1  0  0  0  0
  8 15  1  0  0  0  0
 11 15  2  0  0  0  0
 12  5  1  0  0  0  0
 12 14  2  0  0  0  0
 13  8  2  0  0  0  0
 14  9  1  0  0  0  0
 15 10  1  0  0  0  0
 16 19  1  1  0  0  0
 16  5  1  0  0  0  0
 17 18  1  0  0  0  0
 18  4  1  0  0  0  0
 19 22  1  6  0  0  0
 19 20  1  0  0  0  0
 20 21  1  0  0  0  0
 23 22  1  0  0  0  0
 24 23  1  0  0  0  0
 25 27  2  0  0  0  0
 26 27  2  0  0  0  0
 27 24  1  0  0  0  0
M  END
>  <MODEL>
4

>  <REMARK>
 VINA RESULT:      -6.9      3.512      6.649
  Name = 
  7 active torsions:
  status: ('A' for Active; 'I' for Inactive)
    1  A    between atoms: C_1  and  C_26
    2  A    between atoms: C_5  and  C_15
    3  A    between atoms: O_10  and  P_24
    4  A    between atoms: O_10  and  C_27
    5  A    between atoms: C_22  and  C_26
    6  A    between atoms: C_22  and  C_27
    7  A    between atoms: C_25  and  C_26
                            x       y       z     vdW  Elec       q    Type
                         _______ _______ _______ _____ _____    ______ ____

>  <TORSDO>
F 7

$$$$
=
 OpenBabel10222420123D

 27 30  0  0  1  0  0  0  0  0999 V2000
  188.9260  174.6810  136.3440 C   0  0  0  0  0  3  0  0  0  0  0  0
  189.9380  177.0730  139.4320 C   0  0  1  0  0  3  0  0  0  0  0  0
  187.8350  178.1120  142.7220 N   0  0  0  0  0  0  0  0  0  0  0  0
  188.9680  177.3760  142.9440 C   0  0  0  0  0  0  0  0  0  0  0  0
  189.5280  175.4600  137.2580 N   0  0  0  0  0  0  0  0  0  0  0  0
  190.7900  175.9360  139.2360 N   0  0  0  0  0  2  0  0  0  0  0  0
  189.1080  177.6560  138.3250 C   0  0  2  0  0  3  0  0  0  0  0  0
  189.3920  177.3850  140.5910 C   0  0  0  0  0  0  0  0  0  0  0  0
  187.7660  175.2350  135.9220 N   0  0  0  0  0  0  0  0  0  0  0  0
  187.9650  178.2560  139.0990 C   0  0  0  0  0  2  0  0  0  0  0  0
  187.4390  178.4690  141.4670 C   0  0  0  0  0  3  0  0  0  0  0  0
  188.7270  176.5230  137.4250 C   0  0  0  0  0  0  0  0  0  0  0  0
  189.7780  176.9780  141.8670 C   0  0  0  0  0  3  0  0  0  0  0  0
  187.6370  176.4050  136.5910 C   0  0  0  0  0  3  0  0  0  0  0  0
  188.2330  178.0930  140.3870 C   0  0  0  0  0  0  0  0  0  0  0  0
  190.8200  175.2660  137.9280 C   0  0  2  0  0  3  0  0  0  0  0  0
  188.2320  177.3590  145.2930 C   0  0  0  0  0  1  0  0  0  0  0  0
  189.3560  177.0120  144.3350 C   0  0  0  0  0  2  0  0  0  0  0  0
  191.9640  175.8360  137.0710 C   0  0  1  0  0  3  0  0  0  0  0  0
  193.0140  176.5970  137.8850 C   0  0  0  0  0  2  0  0  0  0  0  0
  194.0610  177.0410  137.0730 O   0  0  0  0  0  1  0  0  0  0  0  0
  192.5910  174.8120  136.1190 C   0  0  0  0  0  2  0  0  0  0  0  0
  193.2880  173.6630  136.8370 C   0  0  0  0  0  2  0  0  0  0  0  0
  194.6660  173.7480  136.6430 O   0  0  0  0  0  0  0  0  0  0  0  0
  195.3620  172.2460  138.8710 O   0  0  0  0  0  0  0  0  0  0  0  0
  195.8650  174.8150  138.9080 O   0  0  0  0  0  0  0  0  0  0  0  0
  195.3220  173.5980  138.1950 P   0  0  0  0  0  0  0  0  0  0  0  0
  1  5  1  0  0  0  0
  2  6  1  6  0  0  0
  2  8  1  0  0  0  0
  3  4  1  0  0  0  0
  4 18  1  0  0  0  0
  5 12  1  0  0  0  0
  5 16  1  0  0  0  0
  7 10  1  1  0  0  0
  7  2  1  0  0  0  0
  8 13  1  0  0  0  0
  9  1  2  0  0  0  0
  9 14  1  0  0  0  0
 10 15  1  0  0  0  0
 11  3  2  0  0  0  0
 12  7  1  0  0  0  0
 13  4  2  0  0  0  0
 14 12  2  0  0  0  0
 15  8  2  0  0  0  0
 15 11  1  0  0  0  0
 16 19  1  6  0  0  0
 16  6  1  0  0  0  0
 18 17  1  0  0  0  0
 19 22  1  1  0  0  0
 19 20  1  0  0  0  0
 21 20  1  0  0  0  0
 22 23  1  0  0  0  0
 24 23  1  0  0  0  0
 24 27  1  0  0  0  0
 27 25  2  0  0  0  0
 27 26  2  0  0  0  0
M  END
>  <MODEL>
5

>  <REMARK>
 VINA RESULT:      -6.7      3.006      5.924
  Name = 
  7 active torsions:
  status: ('A' for Active; 'I' for Inactive)
    1  A    between atoms: C_1  and  C_26
    2  A    between atoms: C_5  and  C_15
    3  A    between atoms: O_10  and  P_24
    4  A    between atoms: O_10  and  C_27
    5  A    between atoms: C_22  and  C_26
    6  A    between atoms: C_22  and  C_27
    7  A    between atoms: C_25  and  C_26
                            x       y       z     vdW  Elec       q    Type
                         _______ _______ _______ _____ _____    ______ ____

>  <TORSDO>
F 7

$$$$
=
 OpenBabel10222420123D

 27 30  0  0  1  0  0  0  0  0999 V2000
  180.3570  177.5870  141.5420 C   0  0  0  0  0  3  0  0  0  0  0  0
  184.0630  178.8250  142.5480 C   0  0  1  0  0  3  0  0  0  0  0  0
  186.3660  177.8450  145.7200 N   0  0  0  0  0  0  0  0  0  0  0  0
  186.8440  177.4680  144.4940 C   0  0  0  0  0  0  0  0  0  0  0  0
  181.5920  178.1080  141.6090 N   0  0  0  0  0  0  0  0  0  0  0  0
  183.9630  178.1670  141.2770 N   0  0  0  0  0  2  0  0  0  0  0  0
  182.8890  179.4960  143.2000 C   0  0  2  0  0  3  0  0  0  0  0  0
  184.9400  178.4930  143.4750 C   0  0  0  0  0  0  0  0  0  0  0  0
  179.6470  177.8730  142.6580 N   0  0  0  0  0  0  0  0  0  0  0  0
  183.2540  179.3770  144.6560 C   0  0  0  0  0  2  0  0  0  0  0  0
  185.1820  178.5090  145.8620 C   0  0  0  0  0  3  0  0  0  0  0  0
  181.6700  178.7280  142.7960 C   0  0  0  0  0  0  0  0  0  0  0  0
  186.1260  177.7750  143.3270 C   0  0  0  0  0  3  0  0  0  0  0  0
  180.4650  178.6040  143.4520 C   0  0  0  0  0  3  0  0  0  0  0  0
  184.4610  178.8310  144.7160 C   0  0  0  0  0  0  0  0  0  0  0  0
  182.6600  178.0840  140.6010 C   0  0  2  0  0  3  0  0  0  0  0  0
  189.0440  177.1400  145.5490 C   0  0  0  0  0  1  0  0  0  0  0  0
  188.1430  176.7450  144.3950 C   0  0  0  0  0  2  0  0  0  0  0  0
  182.5020  179.2580  139.6180 C   0  0  1  0  0  3  0  0  0  0  0  0
  183.8310  179.7570  139.0460 C   0  0  0  0  0  2  0  0  0  0  0  0
  183.7660  181.1150  138.7240 O   0  0  0  0  0  1  0  0  0  0  0  0
  181.4510  179.0120  138.5290 C   0  0  0  0  0  2  0  0  0  0  0  0
  182.0190  178.3630  137.2740 C   0  0  0  0  0  2  0  0  0  0  0  0
  181.7190  177.0010  137.2640 O   0  0  0  0  0  0  0  0  0  0  0  0
  183.3390  174.7610  137.5030 O   0  0  0  0  0  0  0  0  0  0  0  0
  184.4570  177.0240  136.8100 O   0  0  0  0  0  0  0  0  0  0  0  0
  183.2250  176.2350  137.1880 P   0  0  0  0  0  0  0  0  0  0  0  0
  1  5  1  0  0  0  0
  1  9  2  0  0  0  0
  2  6  1  1  0  0  0
  2  7  1  0  0  0  0
  2  8  1  0  0  0  0
  3 11  1  0  0  0  0
  4  3  2  0  0  0  0
  5 12  1  0  0  0  0
  7 10  1  1  0  0  0
  8 15  1  0  0  0  0
  9 14  1  0  0  0  0
 10 15  1  0  0  0  0
 12  7  1  0  0  0  0
 12 14  2  0  0  0  0
 13  8  2  0  0  0  0
 13  4  1  0  0  0  0
 15 11  2  0  0  0  0
 16 19  1  6  0  0  0
 16  6  1  0  0  0  0
 16  5  1  0  0  0  0
 18  4  1  0  0  0  0
 18 17  1  0  0  0  0
 19 22  1  6  0  0  0
 20 19  1  0  0  0  0
 21 20  1  0  0  0  0
 23 22  1  0  0  0  0
 24 23  1  0  0  0  0
 26 27  2  0  0  0  0
 27 24  1  0  0  0  0
 27 25  2  0  0  0  0
M  END
>  <MODEL>
6

>  <REMARK>
 VINA RESULT:      -6.6      4.538      7.354
  Name = 
  7 active torsions:
  status: ('A' for Active; 'I' for Inactive)
    1  A    between atoms: C_1  and  C_26
    2  A    between atoms: C_5  and  C_15
    3  A    between atoms: O_10  and  P_24
    4  A    between atoms: O_10  and  C_27
    5  A    between atoms: C_22  and  C_26
    6  A    between atoms: C_22  and  C_27
    7  A    between atoms: C_25  and  C_26
                            x       y       z     vdW  Elec       q    Type
                         _______ _______ _______ _____ _____    ______ ____

>  <TORSDO>
F 7

$$$$
=
 OpenBabel10222420123D

 27 30  0  0  1  0  0  0  0  0999 V2000
  188.6850  178.9710  139.8430 C   0  0  0  0  0  3  0  0  0  0  0  0
  188.0630  177.3210  143.4720 C   0  0  1  0  0  3  0  0  0  0  0  0
  190.6140  176.7690  146.5560 N   0  0  0  0  0  0  0  0  0  0  0  0
  189.5730  177.6280  146.7880 C   0  0  0  0  0  0  0  0  0  0  0  0
  188.1990  178.4390  140.9770 N   0  0  0  0  0  0  0  0  0  0  0  0
  187.2510  178.4670  143.1760 N   0  0  0  0  0  2  0  0  0  0  0  0
  188.6690  176.4660  142.3980 C   0  0  2  0  0  3  0  0  0  0  0  0
  188.7730  177.1960  144.5770 C   0  0  0  0  0  0  0  0  0  0  0  0
  189.7300  178.2490  139.3760 N   0  0  0  0  0  0  0  0  0  0  0  0
  189.8890  175.9330  143.1010 C   0  0  0  0  0  2  0  0  0  0  0  0
  190.7820  176.1420  145.3560 C   0  0  0  0  0  3  0  0  0  0  0  0
  188.9590  177.3650  141.2380 C   0  0  0  0  0  0  0  0  0  0  0  0
  188.6210  177.8750  145.7840 C   0  0  0  0  0  3  0  0  0  0  0  0
  189.9030  177.2250  140.2460 C   0  0  0  0  0  3  0  0  0  0  0  0
  189.8440  176.3660  144.3530 C   0  0  0  0  0  0  0  0  0  0  0  0
  187.0450  178.8690  141.7770 C   0  0  2  0  0  3  0  0  0  0  0  0
  188.0950  177.9410  148.7300 C   0  0  0  0  0  1  0  0  0  0  0  0
  189.4370  178.2870  148.1160 C   0  0  0  0  0  2  0  0  0  0  0  0
  185.7480  178.2420  141.2350 C   0  0  1  0  0  3  0  0  0  0  0  0
  184.7430  177.8780  142.3320 C   0  0  0  0  0  2  0  0  0  0  0  0
  183.9070  178.9560  142.6300 O   0  0  0  0  0  1  0  0  0  0  0  0
  185.1070  179.0400  140.0950 C   0  0  0  0  0  2  0  0  0  0  0  0
  184.9760  178.2490  138.7990 C   0  0  0  0  0  2  0  0  0  0  0  0
  186.0170  178.5790  137.9330 O   0  0  0  0  0  0  0  0  0  0  0  0
  185.4430  176.5800  136.0950 O   0  0  0  0  0  0  0  0  0  0  0  0
  187.6550  176.3840  137.4820 O   0  0  0  0  0  0  0  0  0  0  0  0
  186.3860  177.1300  137.1410 P   0  0  0  0  0  0  0  0  0  0  0  0
  1  5  1  0  0  0  0
  2  6  1  6  0  0  0
  2  8  1  0  0  0  0
  3  4  1  0  0  0  0
  4 18  1  0  0  0  0
  5 12  1  0  0  0  0
  5 16  1  0  0  0  0
  7 10  1  1  0  0  0
  7  2  1  0  0  0  0
  8 13  1  0  0  0  0
  9  1  2  0  0  0  0
  9 14  1  0  0  0  0
 10 15  1  0  0  0  0
 11  3  2  0  0  0  0
 12  7  1  0  0  0  0
 13  4  2  0  0  0  0
 14 12  2  0  0  0  0
 15  8  2  0  0  0  0
 15 11  1  0  0  0  0
 16 19  1  6  0  0  0
 16  6  1  0  0  0  0
 18 17  1  0  0  0  0
 19 22  1  6  0  0  0
 19 20  1  0  0  0  0
 20 21  1  0  0  0  0
 23 22  1  0  0  0  0
 24 23  1  0  0  0  0
 25 27  2  0  0  0  0
 27 26  2  0  0  0  0
 27 24  1  0  0  0  0
M  END
>  <MODEL>
7

>  <REMARK>
 VINA RESULT:      -6.5      3.101      5.188
  Name = 
  7 active torsions:
  status: ('A' for Active; 'I' for Inactive)
    1  A    between atoms: C_1  and  C_26
    2  A    between atoms: C_5  and  C_15
    3  A    between atoms: O_10  and  P_24
    4  A    between atoms: O_10  and  C_27
    5  A    between atoms: C_22  and  C_26
    6  A    between atoms: C_22  and  C_27
    7  A    between atoms: C_25  and  C_26
                            x       y       z     vdW  Elec       q    Type
                         _______ _______ _______ _____ _____    ______ ____

>  <TORSDO>
F 7

$$$$
=
 OpenBabel10222420123D

 27 30  0  0  1  0  0  0  0  0999 V2000
  180.3060  176.7220  140.5040 C   0  0  0  0  0  3  0  0  0  0  0  0
  183.5930  178.5460  141.9690 C   0  0  1  0  0  3  0  0  0  0  0  0
  185.1810  178.4650  145.6840 N   0  0  0  0  0  0  0  0  0  0  0  0
  185.9490  177.9150  144.6930 C   0  0  0  0  0  0  0  0  0  0  0  0
  181.4550  177.3840  140.7140 N   0  0  0  0  0  0  0  0  0  0  0  0
  183.8290  177.6480  140.8750 N   0  0  0  0  0  2  0  0  0  0  0  0
  182.2590  179.1910  142.2050 C   0  0  2  0  0  3  0  0  0  0  0  0
  184.2590  178.5000  143.1070 C   0  0  0  0  0  0  0  0  0  0  0  0
  179.3440  177.1350  141.3620 N   0  0  0  0  0  0  0  0  0  0  0  0
  182.2920  179.3980  143.6970 C   0  0  0  0  0  2  0  0  0  0  0  0
  183.9530  179.0040  145.4320 C   0  0  0  0  0  3  0  0  0  0  0  0
  181.2180  178.2250  141.7310 C   0  0  0  0  0  0  0  0  0  0  0  0
  185.4940  177.9080  143.3640 C   0  0  0  0  0  3  0  0  0  0  0  0
  179.9080  178.0940  142.1340 C   0  0  0  0  0  3  0  0  0  0  0  0
  183.4890  179.0150  144.1200 C   0  0  0  0  0  0  0  0  0  0  0  0
  182.7220  177.2880  139.9780 C   0  0  2  0  0  3  0  0  0  0  0  0
  187.6070  177.5890  146.4820 C   0  0  0  0  0  1  0  0  0  0  0  0
  187.2830  177.3400  145.0220 C   0  0  0  0  0  2  0  0  0  0  0  0
  182.7100  178.2240  138.7560 C   0  0  1  0  0  3  0  0  0  0  0  0
  181.6960  179.3640  138.8730 C   0  0  0  0  0  2  0  0  0  0  0  0
  182.3280  180.6100  138.8320 O   0  0  0  0  0  1  0  0  0  0  0  0
  184.1020  178.7170  138.3430 C   0  0  0  0  0  2  0  0  0  0  0  0
  184.9670  177.6330  137.7130 C   0  0  0  0  0  2  0  0  0  0  0  0
  186.0540  178.2110  137.0600 O   0  0  0  0  0  0  0  0  0  0  0  0
  188.4010  176.8510  137.6470 O   0  0  0  0  0  0  0  0  0  0  0  0
  187.5310  178.6140  139.3750 O   0  0  0  0  0  0  0  0  0  0  0  0
  187.3760  177.8810  138.0620 P   0  0  0  0  0  0  0  0  0  0  0  0
  1  5  1  0  0  0  0
  1  9  2  0  0  0  0
  2  6  1  1  0  0  0
  2  7  1  0  0  0  0
  2  8  1  0  0  0  0
  4 18  1  0  0  0  0
  4  3  2  0  0  0  0
  5 12  1  0  0  0  0
  7 10  1  1  0  0  0
  8 13  2  0  0  0  0
  8 15  1  0  0  0  0
  9 14  1  0  0  0  0
 10 15  1  0  0  0  0
 11  3  1  0  0  0  0
 12 14  2  0  0  0  0
 12  7  1  0  0  0  0
 13  4  1  0  0  0  0
 15 11  2  0  0  0  0
 16 19  1  6  0  0  0
 16  5  1  0  0  0  0
 16  6  1  0  0  0  0
 18 17  1  0  0  0  0
 19 22  1  1  0  0  0
 19 20  1  0  0  0  0
 21 20  1  0  0  0  0
 23 22  1  0  0  0  0
 24 23  1  0  0  0  0
 24 27  1  0  0  0  0
 25 27  2  0  0  0  0
 27 26  2  0  0  0  0
M  END
>  <MODEL>
8

>  <REMARK>
 VINA RESULT:      -6.3      3.742      6.713
  Name = 
  7 active torsions:
  status: ('A' for Active; 'I' for Inactive)
    1  A    between atoms: C_1  and  C_26
    2  A    between atoms: C_5  and  C_15
    3  A    between atoms: O_10  and  P_24
    4  A    between atoms: O_10  and  C_27
    5  A    between atoms: C_22  and  C_26
    6  A    between atoms: C_22  and  C_27
    7  A    between atoms: C_25  and  C_26
                            x       y       z     vdW  Elec       q    Type
                         _______ _______ _______ _____ _____    ______ ____

>  <TORSDO>
F 7

$$$$
=
 OpenBabel10222420123D

 27 30  0  0  1  0  0  0  0  0999 V2000
  190.0730  175.7210  142.4010 C   0  0  0  0  0  3  0  0  0  0  0  0
  187.0500  178.3340  142.9590 C   0  0  1  0  0  3  0  0  0  0  0  0
  183.6650  178.8970  140.8260 N   0  0  0  0  0  0  0  0  0  0  0  0
  183.4960  178.4550  142.1110 C   0  0  0  0  0  0  0  0  0  0  0  0
  189.1940  176.6350  142.8430 N   0  0  0  0  0  0  0  0  0  0  0  0
  187.2820  177.4280  144.0480 N   0  0  0  0  0  2  0  0  0  0  0  0
  188.1170  178.6860  141.9650 C   0  0  2  0  0  3  0  0  0  0  0  0
  185.8670  178.5260  142.4100 C   0  0  0  0  0  0  0  0  0  0  0  0
  190.4410  175.9780  141.1240 N   0  0  0  0  0  0  0  0  0  0  0  0
  187.2910  179.0110  140.7490 C   0  0  0  0  0  2  0  0  0  0  0  0
  184.9010  179.1310  140.2980 C   0  0  0  0  0  3  0  0  0  0  0  0
  188.9930  177.4810  141.8220 C   0  0  0  0  0  0  0  0  0  0  0  0
  184.6100  178.2430  142.9410 C   0  0  0  0  0  3  0  0  0  0  0  0
  189.7710  177.0950  140.7530 C   0  0  0  0  0  3  0  0  0  0  0  0
  186.0160  178.9360  141.1080 C   0  0  0  0  0  0  0  0  0  0  0  0
  188.5870  176.7630  144.1740 C   0  0  2  0  0  3  0  0  0  0  0  0
  181.1080  178.9630  141.7960 C   0  0  0  0  0  1  0  0  0  0  0  0
  182.1240  178.2150  142.6380 C   0  0  0  0  0  2  0  0  0  0  0  0
  189.5020  177.5750  145.1090 C   0  0  1  0  0  3  0  0  0  0  0  0
  190.2130  178.7350  144.4080 C   0  0  0  0  0  2  0  0  0  0  0  0
  191.5880  178.5050  144.3160 O   0  0  0  0  0  1  0  0  0  0  0  0
  188.8230  178.0060  146.4140 C   0  0  0  0  0  2  0  0  0  0  0  0
  189.5600  177.5400  147.6640 C   0  0  0  0  0  2  0  0  0  0  0  0
  189.9370  176.2050  147.5240 O   0  0  0  0  0  0  0  0  0  0  0  0
  192.3980  175.3480  146.5710 O   0  0  0  0  0  0  0  0  0  0  0  0
  192.3690  177.1590  148.4620 O   0  0  0  0  0  0  0  0  0  0  0  0
  191.6280  176.2400  147.5180 P   0  0  0  0  0  0  0  0  0  0  0  0
  1  5  1  0  0  0  0
  2  8  1  6  0  0  0
  2  6  1  0  0  0  0
  3  4  1  0  0  0  0
  4 18  1  0  0  0  0
  4 13  2  0  0  0  0
  5 16  1  0  0  0  0
  6 16  1  0  0  0  0
  7 10  1  6  0  0  0
  7  2  1  0  0  0  0
  8 13  1  0  0  0  0
  9  1  2  0  0  0  0
 10 15  1  0  0  0  0
 11  3  2  0  0  0  0
 11 15  1  0  0  0  0
 12  7  1  0  0  0  0
 12  5  1  0  0  0  0
 14  9  1  0  0  0  0
 14 12  2  0  0  0  0
 15  8  2  0  0  0  0
 16 19  1  1  0  0  0
 17 18  1  0  0  0  0
 19 20  1  6  0  0  0
 19 22  1  0  0  0  0
 21 20  1  0  0  0  0
 22 23  1  0  0  0  0
 24 23  1  0  0  0  0
 25 27  2  0  0  0  0
 27 24  1  0  0  0  0
 27 26  2  0  0  0  0
M  END
>  <MODEL>
9

>  <REMARK>
 VINA RESULT:      -6.3      4.037      5.496
  Name = 
  7 active torsions:
  status: ('A' for Active; 'I' for Inactive)
    1  A    between atoms: C_1  and  C_26
    2  A    between atoms: C_5  and  C_15
    3  A    between atoms: O_10  and  P_24
    4  A    between atoms: O_10  and  C_27
    5  A    between atoms: C_22  and  C_26
    6  A    between atoms: C_22  and  C_27
    7  A    between atoms: C_25  and  C_26
                            x       y       z     vdW  Elec       q    Type
                         _______ _______ _______ _____ _____    ______ ____

>  <TORSDO>
F 7

$$$$
