=
 OpenBabel10222420113D

 27 29  0  0  1  0  0  0  0  0999 V2000
  191.6800  176.4630  146.3000 C   0  0  0  0  0  3  0  0  0  0  0  0
  191.2550  176.9060  145.0490 C   0  0  0  0  0  3  0  0  0  0  0  0
  187.5600  177.5550  145.8200 C   0  0  1  0  0  3  0  0  0  0  0  0
  184.6120  178.4540  144.3730 C   0  0  0  0  0  0  0  0  0  0  0  0
  189.4880  176.7090  147.1700 C   0  0  0  0  0  3  0  0  0  0  0  0
  189.9120  177.2610  144.8490 C   0  0  0  0  0  0  0  0  0  0  0  0
  187.0950  177.7430  144.3990 C   0  0  0  0  0  0  0  0  0  0  0  0
  186.0230  179.0960  147.1190 C   0  0  0  0  0  3  0  0  0  0  0  0
  188.0590  177.8870  143.2960 C   0  0  0  0  0  0  0  0  0  0  0  0
  187.6590  178.1840  142.1370 O   0  0  0  0  0  0  0  0  0  0  0  0
  189.0130  177.1690  145.9350 C   0  0  0  0  0  0  0  0  0  0  0  0
  187.2520  178.7710  146.6700 C   0  0  0  0  0  3  0  0  0  0  0  0
  189.4570  177.6760  143.5450 N   0  0  0  0  0  0  0  0  0  0  0  0
  185.8430  178.0630  144.2500 C   0  0  0  0  0  0  0  0  0  0  0  0
  184.0980  178.6890  145.6580 O   0  0  0  0  0  0  0  0  0  0  0  0
  190.7950  176.3710  147.3270 N   0  0  0  0  0  0  0  0  0  0  0  0
  183.7750  178.7030  143.1690 C   0  0  0  0  0  1  0  0  0  0  0  0
  184.7730  178.2880  146.8610 C   0  0  0  0  0  2  0  0  0  0  0  0
  190.4120  177.8750  142.4570 C   0  0  0  0  0  2  0  0  0  0  0  0
  190.3330  176.7180  141.4760 C   0  0  0  0  0  2  0  0  0  0  0  0
  190.3700  177.2440  140.0530 C   0  0  0  0  0  2  0  0  0  0  0  0
  189.2490  176.7070  139.2980 N   0  0  0  0  0  2  0  0  0  0  0  0
  188.7680  177.9050  138.1420 S   0  0  0  0  0  0  0  0  0  0  0  0
  189.0630  179.2800  138.6770 O   0  0  0  0  0  0  0  0  0  0  0  0
  189.5110  177.6990  136.8510 O   0  0  0  0  0  0  0  0  0  0  0  0
  187.0240  177.7530  137.8380 C   0  0  0  0  0  2  0  0  0  0  0  0
  186.2820  178.4810  138.8510 N   0  0  0  0  0  1  0  0  0  0  0  0
  1 16  1  0  0  0  0
  2  1  2  0  0  0  0
  3 11  1  0  0  0  0
  3 12  1  1  0  0  0
  4 15  1  0  0  0  0
  5 16  2  0  0  0  0
  6  2  1  0  0  0  0
  6 11  2  0  0  0  0
  7  3  1  0  0  0  0
  9 13  1  0  0  0  0
  9  7  1  0  0  0  0
 10  9  2  0  0  0  0
 11  5  1  0  0  0  0
 12  8  2  0  0  0  0
 13  6  1  0  0  0  0
 14  4  2  0  0  0  0
 14  7  2  0  0  0  0
 15 18  1  0  0  0  0
 17  4  1  0  0  0  0
 18  8  1  0  0  0  0
 19 13  1  0  0  0  0
 20 19  1  0  0  0  0
 21 20  1  0  0  0  0
 22 21  1  0  0  0  0
 23 24  2  0  0  0  0
 23 22  1  0  0  0  0
 25 23  2  0  0  0  0
 26 23  1  0  0  0  0
 26 27  1  0  0  0  0
M  END
>  <MODEL>
1

>  <REMARK>
 VINA RESULT:      -8.9      0.000      0.000
  Name = 
  6 active torsions:
  status: ('A' for Active; 'I' for Inactive)
    1  A    between atoms: S_4  and  C_12
    2  A    between atoms: S_4  and  N_23
    3  A    between atoms: C_7  and  C_16
    4  A    between atoms: C_7  and  C_21
    5  A    between atoms: C_16  and  N_23
    6  A    between atoms: N_20  and  C_21
                            x       y       z     vdW  Elec       q    Type
                         _______ _______ _______ _____ _____    ______ ____

>  <TORSDO>
F 6

$$$$
=
 OpenBabel10222420113D

 27 29  0  0  1  0  0  0  0  0999 V2000
  191.6810  176.4440  146.3400 C   0  0  0  0  0  3  0  0  0  0  0  0
  191.2510  176.8680  145.0830 C   0  0  0  0  0  3  0  0  0  0  0  0
  187.5650  177.5540  145.8640 C   0  0  1  0  0  3  0  0  0  0  0  0
  184.6140  178.4460  144.4190 C   0  0  0  0  0  0  0  0  0  0  0  0
  189.4950  176.7200  147.2170 C   0  0  0  0  0  3  0  0  0  0  0  0
  189.9100  177.2280  144.8850 C   0  0  0  0  0  0  0  0  0  0  0  0
  187.0930  177.7190  144.4420 C   0  0  0  0  0  0  0  0  0  0  0  0
  186.0460  179.1270  147.1450 C   0  0  0  0  0  3  0  0  0  0  0  0
  188.0510  177.8370  143.3310 C   0  0  0  0  0  0  0  0  0  0  0  0
  187.6460  178.1160  142.1700 O   0  0  0  0  0  0  0  0  0  0  0  0
  189.0170  177.1610  145.9780 C   0  0  0  0  0  0  0  0  0  0  0  0
  187.2690  178.7870  146.6940 C   0  0  0  0  0  3  0  0  0  0  0  0
  189.4490  177.6220  143.5760 N   0  0  0  0  0  0  0  0  0  0  0  0
  185.8420  178.0450  144.2950 C   0  0  0  0  0  0  0  0  0  0  0  0
  184.1090  178.7070  145.7020 O   0  0  0  0  0  0  0  0  0  0  0  0
  190.8010  176.3760  147.3730 N   0  0  0  0  0  0  0  0  0  0  0  0
  183.7710  178.6790  143.2160 C   0  0  0  0  0  1  0  0  0  0  0  0
  184.7890  178.3230  146.9080 C   0  0  0  0  0  2  0  0  0  0  0  0
  190.3990  177.7960  142.4790 C   0  0  0  0  0  2  0  0  0  0  0  0
  190.3670  176.5820  141.5660 C   0  0  0  0  0  2  0  0  0  0  0  0
  190.2600  177.0270  140.1200 C   0  0  0  0  0  2  0  0  0  0  0  0
  191.5780  177.0370  139.5050 N   0  0  0  0  0  2  0  0  0  0  0  0
  191.4620  176.2090  137.9880 S   0  0  0  0  0  0  0  0  0  0  0  0
  190.9430  174.8130  138.2050 O   0  0  0  0  0  0  0  0  0  0  0  0
  190.5310  176.9510  137.0690 O   0  0  0  0  0  0  0  0  0  0  0  0
  193.0730  176.1300  137.2430 C   0  0  0  0  0  2  0  0  0  0  0  0
  194.0770  175.9040  138.2660 N   0  0  0  0  0  1  0  0  0  0  0  0
  1 16  1  0  0  0  0
  2  1  2  0  0  0  0
  3 11  1  0  0  0  0
  3 12  1  1  0  0  0
  4 15  1  0  0  0  0
  5 16  2  0  0  0  0
  6  2  1  0  0  0  0
  6 11  2  0  0  0  0
  7  3  1  0  0  0  0
  9 13  1  0  0  0  0
  9  7  1  0  0  0  0
 10  9  2  0  0  0  0
 11  5  1  0  0  0  0
 12  8  2  0  0  0  0
 13  6  1  0  0  0  0
 14  4  2  0  0  0  0
 14  7  2  0  0  0  0
 15 18  1  0  0  0  0
 17  4  1  0  0  0  0
 18  8  1  0  0  0  0
 19 13  1  0  0  0  0
 20 19  1  0  0  0  0
 21 20  1  0  0  0  0
 22 21  1  0  0  0  0
 23 24  2  0  0  0  0
 23 22  1  0  0  0  0
 25 23  2  0  0  0  0
 26 23  1  0  0  0  0
 26 27  1  0  0  0  0
M  END
>  <MODEL>
2

>  <REMARK>
 VINA RESULT:      -8.8      1.661      2.346
  Name = 
  6 active torsions:
  status: ('A' for Active; 'I' for Inactive)
    1  A    between atoms: S_4  and  C_12
    2  A    between atoms: S_4  and  N_23
    3  A    between atoms: C_7  and  C_16
    4  A    between atoms: C_7  and  C_21
    5  A    between atoms: C_16  and  N_23
    6  A    between atoms: N_20  and  C_21
                            x       y       z     vdW  Elec       q    Type
                         _______ _______ _______ _____ _____    ______ ____

>  <TORSDO>
F 6

$$$$
=
 OpenBabel10222420113D

 27 29  0  0  1  0  0  0  0  0999 V2000
  189.2710  177.2860  146.9800 C   0  0  0  0  0  3  0  0  0  0  0  0
  189.4890  177.5260  145.6250 C   0  0  0  0  0  3  0  0  0  0  0  0
  185.8710  178.0030  144.4660 C   0  0  1  0  0  3  0  0  0  0  0  0
  183.9610  178.4830  141.6890 C   0  0  0  0  0  0  0  0  0  0  0  0
  186.9290  177.4870  146.6730 C   0  0  0  0  0  3  0  0  0  0  0  0
  188.4020  177.7520  144.7680 C   0  0  0  0  0  0  0  0  0  0  0  0
  186.1350  177.9640  142.9830 C   0  0  0  0  0  0  0  0  0  0  0  0
  183.9010  179.5880  144.6420 C   0  0  0  0  0  3  0  0  0  0  0  0
  187.5060  178.0280  142.4530 C   0  0  0  0  0  0  0  0  0  0  0  0
  187.7030  178.1380  141.2120 O   0  0  0  0  0  0  0  0  0  0  0  0
  187.0960  177.7420  145.3060 C   0  0  0  0  0  0  0  0  0  0  0  0
  185.1960  179.2960  144.8770 C   0  0  0  0  0  3  0  0  0  0  0  0
  188.6200  177.9540  143.3560 N   0  0  0  0  0  0  0  0  0  0  0  0
  185.1030  178.1700  142.2180 C   0  0  0  0  0  0  0  0  0  0  0  0
  182.8990  178.8500  142.5300 O   0  0  0  0  0  0  0  0  0  0  0  0
  188.0050  177.2680  147.4730 N   0  0  0  0  0  0  0  0  0  0  0  0
  183.7940  178.5080  140.2110 C   0  0  0  0  0  1  0  0  0  0  0  0
  182.9230  178.6640  143.9550 C   0  0  0  0  0  2  0  0  0  0  0  0
  189.9760  178.0750  142.8260 C   0  0  0  0  0  2  0  0  0  0  0  0
  190.3970  176.7710  142.1710 C   0  0  0  0  0  2  0  0  0  0  0  0
  190.9580  177.0460  140.7890 C   0  0  0  0  0  2  0  0  0  0  0  0
  190.2100  176.2950  139.7920 N   0  0  0  0  0  2  0  0  0  0  0  0
  191.2340  176.0830  138.4110 S   0  0  0  0  0  0  0  0  0  0  0  0
  191.3330  174.6230  138.0660 O   0  0  0  0  0  0  0  0  0  0  0  0
  190.6720  176.8390  137.2370 O   0  0  0  0  0  0  0  0  0  0  0  0
  192.8530  176.7120  138.7840 C   0  0  0  0  0  2  0  0  0  0  0  0
  193.6520  176.7650  137.5740 N   0  0  0  0  0  1  0  0  0  0  0  0
  1 16  1  0  0  0  0
  2  1  2  0  0  0  0
  3 12  1  1  0  0  0
  3 11  1  0  0  0  0
  4 14  2  0  0  0  0
  4 15  1  0  0  0  0
  5 16  2  0  0  0  0
  6 11  2  0  0  0  0
  6  2  1  0  0  0  0
  7  3  1  0  0  0  0
  8 12  2  0  0  0  0
  9  7  1  0  0  0  0
  9 13  1  0  0  0  0
 10  9  2  0  0  0  0
 11  5  1  0  0  0  0
 13  6  1  0  0  0  0
 14  7  2  0  0  0  0
 15 18  1  0  0  0  0
 17  4  1  0  0  0  0
 18  8  1  0  0  0  0
 19 13  1  0  0  0  0
 20 19  1  0  0  0  0
 21 20  1  0  0  0  0
 22 21  1  0  0  0  0
 23 26  1  0  0  0  0
 23 22  1  0  0  0  0
 24 23  2  0  0  0  0
 25 23  2  0  0  0  0
 27 26  1  0  0  0  0
M  END
>  <MODEL>
3

>  <REMARK>
 VINA RESULT:      -8.4      2.029      3.007
  Name = 
  6 active torsions:
  status: ('A' for Active; 'I' for Inactive)
    1  A    between atoms: S_4  and  C_12
    2  A    between atoms: S_4  and  N_23
    3  A    between atoms: C_7  and  C_16
    4  A    between atoms: C_7  and  C_21
    5  A    between atoms: C_16  and  N_23
    6  A    between atoms: N_20  and  C_21
                            x       y       z     vdW  Elec       q    Type
                         _______ _______ _______ _____ _____    ______ ____

>  <TORSDO>
F 6

$$$$
=
 OpenBabel10222420113D

 27 29  0  0  1  0  0  0  0  0999 V2000
  188.5300  177.8920  139.2810 C   0  0  0  0  0  3  0  0  0  0  0  0
  187.5700  178.2480  140.2260 C   0  0  0  0  0  3  0  0  0  0  0  0
  189.4390  177.2940  143.4290 C   0  0  1  0  0  3  0  0  0  0  0  0
  189.0810  177.0790  146.8080 C   0  0  0  0  0  0  0  0  0  0  0  0
  189.9950  177.1590  140.9950 C   0  0  0  0  0  3  0  0  0  0  0  0
  187.8250  178.0560  141.5920 C   0  0  0  0  0  0  0  0  0  0  0  0
  188.2740  177.4170  144.3780 C   0  0  0  0  0  0  0  0  0  0  0  0
  191.4110  177.9600  144.8750 C   0  0  0  0  0  3  0  0  0  0  0  0
  187.0100  178.0390  143.9530 C   0  0  0  0  0  0  0  0  0  0  0  0
  186.0980  178.2630  144.7950 O   0  0  0  0  0  0  0  0  0  0  0  0
  189.0670  177.5090  141.9840 C   0  0  0  0  0  0  0  0  0  0  0  0
  190.5850  178.1970  143.8370 C   0  0  0  0  0  3  0  0  0  0  0  0
  186.8170  178.3800  142.5710 N   0  0  0  0  0  0  0  0  0  0  0  0
  188.5450  177.2250  145.6360 C   0  0  0  0  0  0  0  0  0  0  0  0
  190.4750  176.9640  146.9100 O   0  0  0  0  0  0  0  0  0  0  0  0
  189.7130  177.3550  139.6800 N   0  0  0  0  0  0  0  0  0  0  0  0
  188.2350  177.0890  148.0320 C   0  0  0  0  0  1  0  0  0  0  0  0
  191.3320  176.7500  145.7760 C   0  0  0  0  0  2  0  0  0  0  0  0
  185.5810  179.0480  142.1690 C   0  0  0  0  0  2  0  0  0  0  0  0
  184.4640  178.0290  142.0200 C   0  0  0  0  0  2  0  0  0  0  0  0
  183.1350  178.7420  141.8550 C   0  0  0  0  0  2  0  0  0  0  0  0
  182.5530  179.0130  143.1600 N   0  0  0  0  0  2  0  0  0  0  0  0
  180.8300  179.0270  142.9790 S   0  0  0  0  0  0  0  0  0  0  0  0
  180.1850  178.3640  144.1650 O   0  0  0  0  0  0  0  0  0  0  0  0
  180.3380  180.4440  142.8680 O   0  0  0  0  0  0  0  0  0  0  0  0
  180.3930  178.1440  141.5000 C   0  0  0  0  0  2  0  0  0  0  0  0
  179.3560  177.1730  141.7950 N   0  0  0  0  0  1  0  0  0  0  0  0
  1 16  2  0  0  0  0
  1  2  1  0  0  0  0
  2  6  2  0  0  0  0
  3 12  1  1  0  0  0
  3  7  1  0  0  0  0
  4 15  1  0  0  0  0
  4 17  1  0  0  0  0
  5 11  2  0  0  0  0
  6 11  1  0  0  0  0
  6 13  1  0  0  0  0
  7 14  2  0  0  0  0
  8 18  1  0  0  0  0
  9  7  1  0  0  0  0
  9 10  2  0  0  0  0
 11  3  1  0  0  0  0
 12  8  2  0  0  0  0
 13  9  1  0  0  0  0
 14  4  2  0  0  0  0
 16  5  1  0  0  0  0
 18 15  1  0  0  0  0
 19 13  1  0  0  0  0
 20 19  1  0  0  0  0
 21 20  1  0  0  0  0
 21 22  1  0  0  0  0
 23 22  1  0  0  0  0
 23 24  2  0  0  0  0
 25 23  2  0  0  0  0
 26 27  1  0  0  0  0
 26 23  1  0  0  0  0
M  END
>  <MODEL>
4

>  <REMARK>
 VINA RESULT:      -8.1      3.561      6.431
  Name = 
  6 active torsions:
  status: ('A' for Active; 'I' for Inactive)
    1  A    between atoms: S_4  and  C_12
    2  A    between atoms: S_4  and  N_23
    3  A    between atoms: C_7  and  C_16
    4  A    between atoms: C_7  and  C_21
    5  A    between atoms: C_16  and  N_23
    6  A    between atoms: N_20  and  C_21
                            x       y       z     vdW  Elec       q    Type
                         _______ _______ _______ _____ _____    ______ ____

>  <TORSDO>
F 6

$$$$
=
 OpenBabel10222420113D

 27 29  0  0  1  0  0  0  0  0999 V2000
  188.3020  177.8960  139.5150 C   0  0  0  0  0  3  0  0  0  0  0  0
  187.3860  178.2990  140.4850 C   0  0  0  0  0  3  0  0  0  0  0  0
  189.3160  177.3080  143.6400 C   0  0  1  0  0  3  0  0  0  0  0  0
  189.0560  177.1430  147.0310 C   0  0  0  0  0  0  0  0  0  0  0  0
  189.7910  177.1260  141.1920 C   0  0  0  0  0  3  0  0  0  0  0  0
  187.6770  178.1130  141.8450 C   0  0  0  0  0  0  0  0  0  0  0  0
  188.1870  177.4870  144.6230 C   0  0  0  0  0  0  0  0  0  0  0  0
  191.3570  177.9130  145.0170 C   0  0  0  0  0  3  0  0  0  0  0  0
  186.9350  178.1520  144.2300 C   0  0  0  0  0  0  0  0  0  0  0  0
  186.0590  178.4210  145.0960 O   0  0  0  0  0  0  0  0  0  0  0  0
  188.9080  177.5220  142.2040 C   0  0  0  0  0  0  0  0  0  0  0  0
  190.5090  178.1710  144.0010 C   0  0  0  0  0  3  0  0  0  0  0  0
  186.7120  178.4850  142.8510 N   0  0  0  0  0  0  0  0  0  0  0  0
  188.4900  177.2970  145.8740 C   0  0  0  0  0  0  0  0  0  0  0  0
  190.4480  176.9760  147.0910 O   0  0  0  0  0  0  0  0  0  0  0  0
  189.4750  177.3190  139.8840 N   0  0  0  0  0  0  0  0  0  0  0  0
  188.2500  177.2000  148.2800 C   0  0  0  0  0  1  0  0  0  0  0  0
  191.2600  176.7170  145.9340 C   0  0  0  0  0  2  0  0  0  0  0  0
  185.4910  179.1960  142.4790 C   0  0  0  0  0  2  0  0  0  0  0  0
  184.3160  178.2330  142.4520 C   0  0  0  0  0  2  0  0  0  0  0  0
  183.3790  178.5950  141.3150 C   0  0  0  0  0  2  0  0  0  0  0  0
  183.5860  177.6900  140.1950 N   0  0  0  0  0  2  0  0  0  0  0  0
  183.8810  178.6520  138.7850 S   0  0  0  0  0  0  0  0  0  0  0  0
  182.5830  178.9480  138.0870 O   0  0  0  0  0  0  0  0  0  0  0  0
  184.5470  179.9430  139.1750 O   0  0  0  0  0  0  0  0  0  0  0  0
  184.9520  177.7570  137.6840 C   0  0  0  0  0  2  0  0  0  0  0  0
  184.2190  176.6710  137.0600 N   0  0  0  0  0  1  0  0  0  0  0  0
  1 16  2  0  0  0  0
  1  2  1  0  0  0  0
  2  6  2  0  0  0  0
  3 12  1  1  0  0  0
  3  7  1  0  0  0  0
  4 15  1  0  0  0  0
  4 17  1  0  0  0  0
  5 11  2  0  0  0  0
  6 11  1  0  0  0  0
  6 13  1  0  0  0  0
  7 14  2  0  0  0  0
  8 18  1  0  0  0  0
  9  7  1  0  0  0  0
  9 10  2  0  0  0  0
 11  3  1  0  0  0  0
 12  8  2  0  0  0  0
 13  9  1  0  0  0  0
 14  4  2  0  0  0  0
 16  5  1  0  0  0  0
 18 15  1  0  0  0  0
 19 13  1  0  0  0  0
 20 19  1  0  0  0  0
 21 20  1  0  0  0  0
 22 21  1  0  0  0  0
 23 25  2  0  0  0  0
 23 22  1  0  0  0  0
 24 23  2  0  0  0  0
 26 23  1  0  0  0  0
 27 26  1  0  0  0  0
M  END
>  <MODEL>
5

>  <REMARK>
 VINA RESULT:      -8.0      2.753      5.273
  Name = 
  6 active torsions:
  status: ('A' for Active; 'I' for Inactive)
    1  A    between atoms: S_4  and  C_12
    2  A    between atoms: S_4  and  N_23
    3  A    between atoms: C_7  and  C_16
    4  A    between atoms: C_7  and  C_21
    5  A    between atoms: C_16  and  N_23
    6  A    between atoms: N_20  and  C_21
                            x       y       z     vdW  Elec       q    Type
                         _______ _______ _______ _____ _____    ______ ____

>  <TORSDO>
F 6

$$$$
=
 OpenBabel10222420113D

 27 29  0  0  1  0  0  0  0  0999 V2000
  191.1620  176.7480  143.8080 C   0  0  0  0  0  3  0  0  0  0  0  0
  190.3390  177.3440  142.8550 C   0  0  0  0  0  3  0  0  0  0  0  0
  187.1230  177.6830  144.9050 C   0  0  1  0  0  3  0  0  0  0  0  0
  183.8590  178.6260  144.6830 C   0  0  0  0  0  0  0  0  0  0  0  0
  189.3940  176.7530  145.3870 C   0  0  0  0  0  3  0  0  0  0  0  0
  189.0080  177.6540  143.1720 C   0  0  0  0  0  0  0  0  0  0  0  0
  186.2050  178.0490  143.7680 C   0  0  0  0  0  0  0  0  0  0  0  0
  186.1160  178.9380  146.8630 C   0  0  0  0  0  3  0  0  0  0  0  0
  186.7380  178.4000  142.4420 C   0  0  0  0  0  0  0  0  0  0  0  0
  185.9700  178.8400  141.5440 O   0  0  0  0  0  0  0  0  0  0  0  0
  188.5300  177.3600  144.4680 C   0  0  0  0  0  0  0  0  0  0  0  0
  187.1200  178.7460  145.9850 C   0  0  0  0  0  3  0  0  0  0  0  0
  188.1390  178.2280  142.1740 N   0  0  0  0  0  0  0  0  0  0  0  0
  184.9760  178.3220  144.0960 C   0  0  0  0  0  0  0  0  0  0  0  0
  183.8100  178.6460  146.0850 O   0  0  0  0  0  0  0  0  0  0  0  0
  190.6770  176.4630  145.0450 N   0  0  0  0  0  0  0  0  0  0  0  0
  182.6640  179.0020  143.8810 C   0  0  0  0  0  1  0  0  0  0  0  0
  184.8520  178.1120  146.9170 C   0  0  0  0  0  2  0  0  0  0  0  0
  188.6690  178.6320  140.8740 C   0  0  0  0  0  2  0  0  0  0  0  0
  188.5080  177.5010  139.8720 C   0  0  0  0  0  2  0  0  0  0  0  0
  189.6430  177.5370  138.8660 C   0  0  0  0  0  2  0  0  0  0  0  0
  190.7420  176.7050  139.3310 N   0  0  0  0  0  2  0  0  0  0  0  0
  191.4670  175.9630  137.9440 S   0  0  0  0  0  0  0  0  0  0  0  0
  191.2100  174.4810  137.9630 O   0  0  0  0  0  0  0  0  0  0  0  0
  190.8930  176.5550  136.6860 O   0  0  0  0  0  0  0  0  0  0  0  0
  193.2190  176.2570  137.9760 C   0  0  0  0  0  2  0  0  0  0  0  0
  193.5540  177.1120  139.1000 N   0  0  0  0  0  1  0  0  0  0  0  0
  1 16  1  0  0  0  0
  2  6  1  0  0  0  0
  2  1  2  0  0  0  0
  3 12  1  1  0  0  0
  4 15  1  0  0  0  0
  6 11  2  0  0  0  0
  7 14  2  0  0  0  0
  7  3  1  0  0  0  0
  8 18  1  0  0  0  0
  9  7  1  0  0  0  0
 10  9  2  0  0  0  0
 11  3  1  0  0  0  0
 11  5  1  0  0  0  0
 12  8  2  0  0  0  0
 13  9  1  0  0  0  0
 13  6  1  0  0  0  0
 14  4  2  0  0  0  0
 15 18  1  0  0  0  0
 16  5  2  0  0  0  0
 17  4  1  0  0  0  0
 19 13  1  0  0  0  0
 20 19  1  0  0  0  0
 21 22  1  0  0  0  0
 21 20  1  0  0  0  0
 23 24  2  0  0  0  0
 23 26  1  0  0  0  0
 23 22  1  0  0  0  0
 25 23  2  0  0  0  0
 26 27  1  0  0  0  0
M  END
>  <MODEL>
6

>  <REMARK>
 VINA RESULT:      -7.9      1.920      2.713
  Name = 
  6 active torsions:
  status: ('A' for Active; 'I' for Inactive)
    1  A    between atoms: S_4  and  C_12
    2  A    between atoms: S_4  and  N_23
    3  A    between atoms: C_7  and  C_16
    4  A    between atoms: C_7  and  C_21
    5  A    between atoms: C_16  and  N_23
    6  A    between atoms: N_20  and  C_21
                            x       y       z     vdW  Elec       q    Type
                         _______ _______ _______ _____ _____    ______ ____

>  <TORSDO>
F 6

$$$$
=
 OpenBabel10222420113D

 27 29  0  0  1  0  0  0  0  0999 V2000
  187.7480  177.9090  147.9660 C   0  0  0  0  0  3  0  0  0  0  0  0
  186.7920  177.9250  146.9520 C   0  0  0  0  0  3  0  0  0  0  0  0
  189.0900  177.6550  143.9000 C   0  0  1  0  0  3  0  0  0  0  0  0
  189.0810  177.6890  140.4960 C   0  0  0  0  0  0  0  0  0  0  0  0
  189.4910  177.7580  146.3660 C   0  0  0  0  0  3  0  0  0  0  0  0
  187.1920  177.8560  145.6090 C   0  0  0  0  0  0  0  0  0  0  0  0
  188.0550  177.9690  142.8500 C   0  0  0  0  0  0  0  0  0  0  0  0
  190.6430  176.0570  142.6950 C   0  0  0  0  0  3  0  0  0  0  0  0
  186.6220  178.0110  143.1820 C   0  0  0  0  0  0  0  0  0  0  0  0
  185.7610  178.1340  142.2680 O   0  0  0  0  0  0  0  0  0  0  0  0
  188.5700  177.7620  145.3120 C   0  0  0  0  0  0  0  0  0  0  0  0
  189.7350  176.3060  143.6580 C   0  0  0  0  0  3  0  0  0  0  0  0
  186.2100  177.9200  144.5540 N   0  0  0  0  0  0  0  0  0  0  0  0
  188.4630  177.9050  141.6160 C   0  0  0  0  0  0  0  0  0  0  0  0
  190.3830  177.1680  140.5260 O   0  0  0  0  0  0  0  0  0  0  0  0
  189.0680  177.8290  147.6560 N   0  0  0  0  0  0  0  0  0  0  0  0
  188.3990  177.9390  139.1970 C   0  0  0  0  0  1  0  0  0  0  0  0
  191.1710  177.0870  141.7250 C   0  0  0  0  0  2  0  0  0  0  0  0
  184.7830  177.9060  144.8700 C   0  0  0  0  0  2  0  0  0  0  0  0
  184.1830  179.2800  144.6270 C   0  0  0  0  0  2  0  0  0  0  0  0
  182.6810  179.1620  144.4450 C   0  0  0  0  0  2  0  0  0  0  0  0
  182.3650  178.9980  143.0340 N   0  0  0  0  0  2  0  0  0  0  0  0
  180.6420  179.0520  142.8680 S   0  0  0  0  0  0  0  0  0  0  0  0
  179.9940  178.3280  144.0160 O   0  0  0  0  0  0  0  0  0  0  0  0
  180.1730  180.4810  142.8480 O   0  0  0  0  0  0  0  0  0  0  0  0
  180.1800  178.2690  141.3410 C   0  0  0  0  0  2  0  0  0  0  0  0
  179.2980  177.1480  141.6100 N   0  0  0  0  0  1  0  0  0  0  0  0
  2  1  2  0  0  0  0
  3 12  1  6  0  0  0
  3 11  1  0  0  0  0
  4 15  1  0  0  0  0
  4 14  2  0  0  0  0
  5 16  2  0  0  0  0
  6  2  1  0  0  0  0
  7  9  1  0  0  0  0
  7  3  1  0  0  0  0
  8 12  2  0  0  0  0
  9 13  1  0  0  0  0
 10  9  2  0  0  0  0
 11  6  2  0  0  0  0
 11  5  1  0  0  0  0
 13 19  1  0  0  0  0
 13  6  1  0  0  0  0
 14  7  2  0  0  0  0
 15 18  1  0  0  0  0
 16  1  1  0  0  0  0
 17  4  1  0  0  0  0
 18  8  1  0  0  0  0
 20 19  1  0  0  0  0
 21 20  1  0  0  0  0
 22 21  1  0  0  0  0
 23 22  1  0  0  0  0
 23 24  2  0  0  0  0
 25 23  2  0  0  0  0
 26 27  1  0  0  0  0
 26 23  1  0  0  0  0
M  END
>  <MODEL>
7

>  <REMARK>
 VINA RESULT:      -7.8      3.341      6.306
  Name = 
  6 active torsions:
  status: ('A' for Active; 'I' for Inactive)
    1  A    between atoms: S_4  and  C_12
    2  A    between atoms: S_4  and  N_23
    3  A    between atoms: C_7  and  C_16
    4  A    between atoms: C_7  and  C_21
    5  A    between atoms: C_16  and  N_23
    6  A    between atoms: N_20  and  C_21
                            x       y       z     vdW  Elec       q    Type
                         _______ _______ _______ _____ _____    ______ ____

>  <TORSDO>
F 6

$$$$
=
 OpenBabel10222420113D

 27 29  0  0  1  0  0  0  0  0999 V2000
  184.2800  178.6660  145.8500 C   0  0  0  0  0  3  0  0  0  0  0  0
  184.1070  178.7900  144.4730 C   0  0  0  0  0  3  0  0  0  0  0  0
  187.6260  177.8440  143.2970 C   0  0  1  0  0  3  0  0  0  0  0  0
  189.5800  177.6160  140.5180 C   0  0  0  0  0  0  0  0  0  0  0  0
  186.5500  178.0560  145.5440 C   0  0  0  0  0  3  0  0  0  0  0  0
  185.1810  178.5410  143.6060 C   0  0  0  0  0  0  0  0  0  0  0  0
  187.4730  178.2710  141.8600 C   0  0  0  0  0  0  0  0  0  0  0  0
  189.2260  175.8850  143.1310 C   0  0  0  0  0  3  0  0  0  0  0  0
  186.1540  178.6160  141.3060 C   0  0  0  0  0  0  0  0  0  0  0  0
  186.0200  178.8330  140.0700 O   0  0  0  0  0  0  0  0  0  0  0  0
  186.4250  178.1580  144.1530 C   0  0  0  0  0  0  0  0  0  0  0  0
  188.0030  176.3800  143.4040 C   0  0  0  0  0  3  0  0  0  0  0  0
  185.0200  178.7140  142.1820 N   0  0  0  0  0  0  0  0  0  0  0  0
  188.4910  178.0330  141.0860 C   0  0  0  0  0  0  0  0  0  0  0  0
  190.4900  176.8550  141.2680 O   0  0  0  0  0  0  0  0  0  0  0  0
  185.4890  178.3080  146.3550 N   0  0  0  0  0  0  0  0  0  0  0  0
  189.8350  177.8920  139.0790 C   0  0  0  0  0  1  0  0  0  0  0  0
  190.4110  176.7160  142.6960 C   0  0  0  0  0  2  0  0  0  0  0  0
  183.7050  179.0010  141.6150 C   0  0  0  0  0  2  0  0  0  0  0  0
  183.0870  177.7280  141.0620 C   0  0  0  0  0  2  0  0  0  0  0  0
  181.7600  178.0450  140.3980 C   0  0  0  0  0  2  0  0  0  0  0  0
  181.2520  179.3160  140.8890 N   0  0  0  0  0  2  0  0  0  0  0  0
  179.9310  178.9810  141.9580 S   0  0  0  0  0  0  0  0  0  0  0  0
  178.9760  180.1420  141.9700 O   0  0  0  0  0  0  0  0  0  0  0  0
  179.2080  177.7410  141.5070 O   0  0  0  0  0  0  0  0  0  0  0  0
  180.5630  178.7200  143.5990 C   0  0  0  0  0  2  0  0  0  0  0  0
  179.6520  177.8730  144.3470 N   0  0  0  0  0  1  0  0  0  0  0  0
  1 16  1  0  0  0  0
  2  1  2  0  0  0  0
  3 12  1  6  0  0  0
  3 11  1  0  0  0  0
  4 14  2  0  0  0  0
  4 15  1  0  0  0  0
  5 16  2  0  0  0  0
  6 11  2  0  0  0  0
  6  2  1  0  0  0  0
  7  3  1  0  0  0  0
  8 12  2  0  0  0  0
  9  7  1  0  0  0  0
  9 13  1  0  0  0  0
 10  9  2  0  0  0  0
 11  5  1  0  0  0  0
 13  6  1  0  0  0  0
 14  7  2  0  0  0  0
 15 18  1  0  0  0  0
 17  4  1  0  0  0  0
 18  8  1  0  0  0  0
 19 13  1  0  0  0  0
 20 19  1  0  0  0  0
 21 22  1  0  0  0  0
 21 20  1  0  0  0  0
 22 23  1  0  0  0  0
 23 24  2  0  0  0  0
 23 26  1  0  0  0  0
 25 23  2  0  0  0  0
 26 27  1  0  0  0  0
M  END
>  <MODEL>
8

>  <REMARK>
 VINA RESULT:      -7.7      3.847      6.839
  Name = 
  6 active torsions:
  status: ('A' for Active; 'I' for Inactive)
    1  A    between atoms: S_4  and  C_12
    2  A    between atoms: S_4  and  N_23
    3  A    between atoms: C_7  and  C_16
    4  A    between atoms: C_7  and  C_21
    5  A    between atoms: C_16  and  N_23
    6  A    between atoms: N_20  and  C_21
                            x       y       z     vdW  Elec       q    Type
                         _______ _______ _______ _____ _____    ______ ____

>  <TORSDO>
F 6

$$$$
=
 OpenBabel10222420113D

 27 29  0  0  1  0  0  0  0  0999 V2000
  184.5450  178.5300  145.9650 C   0  0  0  0  0  3  0  0  0  0  0  0
  184.3050  178.6670  144.5990 C   0  0  0  0  0  3  0  0  0  0  0  0
  187.7740  177.7720  143.2460 C   0  0  1  0  0  3  0  0  0  0  0  0
  189.5950  177.5960  140.3750 C   0  0  0  0  0  0  0  0  0  0  0  0
  186.8050  177.9490  145.5450 C   0  0  0  0  0  3  0  0  0  0  0  0
  185.3390  178.4390  143.6790 C   0  0  0  0  0  0  0  0  0  0  0  0
  187.5470  178.2130  141.8230 C   0  0  0  0  0  0  0  0  0  0  0  0
  189.3850  175.8340  142.9820 C   0  0  0  0  0  3  0  0  0  0  0  0
  186.2000  178.5490  141.3360 C   0  0  0  0  0  0  0  0  0  0  0  0
  186.0050  178.7780  140.1110 O   0  0  0  0  0  0  0  0  0  0  0  0
  186.6120  178.0640  144.1620 C   0  0  0  0  0  0  0  0  0  0  0  0
  188.1710  176.3120  143.3190 C   0  0  0  0  0  3  0  0  0  0  0  0
  185.1090  178.6250  142.2670 N   0  0  0  0  0  0  0  0  0  0  0  0
  188.5300  177.9950  140.9990 C   0  0  0  0  0  0  0  0  0  0  0  0
  190.5480  176.8380  141.0720 O   0  0  0  0  0  0  0  0  0  0  0  0
  185.7810  178.1800  146.4080 N   0  0  0  0  0  0  0  0  0  0  0  0
  189.7780  177.8900  138.9280 C   0  0  0  0  0  1  0  0  0  0  0  0
  190.5390  176.6820  142.5000 C   0  0  0  0  0  2  0  0  0  0  0  0
  183.7650  178.9040  141.7670 C   0  0  0  0  0  2  0  0  0  0  0  0
  183.1820  177.6590  141.1190 C   0  0  0  0  0  2  0  0  0  0  0  0
  182.0470  178.0450  140.1890 C   0  0  0  0  0  2  0  0  0  0  0  0
  181.7680  179.4670  140.3130 N   0  0  0  0  0  2  0  0  0  0  0  0
  182.1910  180.2220  138.8120 S   0  0  0  0  0  0  0  0  0  0  0  0
  183.6360  180.6370  138.8370 O   0  0  0  0  0  0  0  0  0  0  0  0
  181.9650  179.2640  137.6740 O   0  0  0  0  0  0  0  0  0  0  0  0
  181.1690  181.6560  138.5740 C   0  0  0  0  0  2  0  0  0  0  0  0
  179.8460  181.4130  139.1190 N   0  0  0  0  0  1  0  0  0  0  0  0
  1 16  1  0  0  0  0
  2  1  2  0  0  0  0
  3 12  1  6  0  0  0
  3 11  1  0  0  0  0
  4 14  2  0  0  0  0
  4 15  1  0  0  0  0
  5 16  2  0  0  0  0
  6 11  2  0  0  0  0
  6  2  1  0  0  0  0
  7  3  1  0  0  0  0
  8 12  2  0  0  0  0
  9  7  1  0  0  0  0
  9 13  1  0  0  0  0
 10  9  2  0  0  0  0
 11  5  1  0  0  0  0
 13  6  1  0  0  0  0
 14  7  2  0  0  0  0
 15 18  1  0  0  0  0
 17  4  1  0  0  0  0
 18  8  1  0  0  0  0
 19 13  1  0  0  0  0
 20 19  1  0  0  0  0
 21 22  1  0  0  0  0
 21 20  1  0  0  0  0
 23 24  2  0  0  0  0
 23 22  1  0  0  0  0
 25 23  2  0  0  0  0
 26 23  1  0  0  0  0
 26 27  1  0  0  0  0
M  END
>  <MODEL>
9

>  <REMARK>
 VINA RESULT:      -7.4      3.570      6.074
  Name = 
  6 active torsions:
  status: ('A' for Active; 'I' for Inactive)
    1  A    between atoms: S_4  and  C_12
    2  A    between atoms: S_4  and  N_23
    3  A    between atoms: C_7  and  C_16
    4  A    between atoms: C_7  and  C_21
    5  A    between atoms: C_16  and  N_23
    6  A    between atoms: N_20  and  C_21
                            x       y       z     vdW  Elec       q    Type
                         _______ _______ _______ _____ _____    ______ ____

>  <TORSDO>
F 6

$$$$
