=
 OpenBabel10222419153D

 35 38  0  0  1  0  0  0  0  0999 V2000
  187.0380  178.6630  139.1840 N   0  0  0  0  0  0  0  0  0  0  0  0
  187.3310  178.3090  140.4990 N   0  0  0  0  0  0  0  0  0  0  0  0
  187.8450  178.1590  138.3170 C   0  0  0  0  0  0  0  0  0  0  0  0
  189.1520  177.1320  138.9900 S   0  0  0  0  0  0  0  0  0  0  0  0
  188.4780  177.4290  140.6680 C   0  0  1  0  0  3  0  0  0  0  0  0
  189.8500  177.3180  142.7670 C   0  0  2  0  0  0  0  0  0  0  0  0
  189.5340  178.1030  141.5420 C   0  0  1  0  0  3  0  0  0  0  0  0
  190.6780  177.2800  141.6340 O   0  0  0  0  0  0  0  0  0  0  0  0
  189.3060  175.9260  143.0560 C   0  0  0  0  0  2  0  0  0  0  0  0
  190.3080  174.9750  142.8960 O   0  0  0  0  0  1  0  0  0  0  0  0
  190.5200  178.0260  143.8500 N   0  0  0  0  0  2  0  0  0  0  0  0
  191.8270  176.2940  146.8810 C   0  0  0  0  0  3  0  0  0  0  0  0
  191.7230  176.7880  145.5760 C   0  0  0  0  0  3  0  0  0  0  0  0
  190.8170  176.5620  147.8120 C   0  0  0  0  0  3  0  0  0  0  0  0
  190.6100  177.5440  145.1930 C   0  0  0  0  0  0  0  0  0  0  0  0
  189.6070  177.8170  146.1330 C   0  0  0  0  0  3  0  0  0  0  0  0
  189.7100  177.3260  147.4370 C   0  0  0  0  0  3  0  0  0  0  0  0
  187.2800  179.5150  136.4650 O   0  0  0  0  0  0  0  0  0  0  0  0
  187.6710  178.3900  136.8760 C   0  0  0  0  0  0  0  0  0  0  0  0
  187.8870  177.2770  135.9030 C   0  0  0  0  0  2  0  0  0  0  0  0
  186.7010  176.4420  135.8110 N   0  0  0  0  0  2  0  0  0  0  0  0
  188.6330  174.9800  135.7780 C   0  0  0  0  0  1  0  0  0  0  0  0
  186.8460  174.6700  137.3130 O   0  0  0  0  0  1  0  0  0  0  0  0
  187.1380  175.0690  136.0090 C   0  0  1  0  0  3  0  0  0  0  0  0
  186.4660  178.6960  141.6010 C   0  0  0  0  0  2  0  0  0  0  0  0
  185.0730  178.9970  141.0780 C   0  0  0  0  0  2  0  0  0  0  0  0
  184.0380  178.3680  141.9880 C   0  0  0  0  0  2  0  0  0  0  0  0
  184.5480  178.3140  143.4190 C   0  0  0  0  0  2  0  0  0  0  0  0
  182.3090  178.4260  144.2860 F   0  0  0  0  0  0  0  0  0  0  0  0
  183.4850  180.3080  144.0540 F   0  0  0  0  0  0  0  0  0  0  0  0
  183.5810  178.9760  144.4060 C   0  0  0  0  0  0  0  0  0  0  0  0
  184.0840  178.9140  145.7250 O   0  0  0  0  0  0  0  0  0  0  0  0
  185.9980  179.1440  147.1250 C   0  0  0  0  0  2  0  0  0  0  0  0
  185.4870  178.9800  145.7110 C   0  0  0  0  0  3  0  0  0  0  0  0
  186.0420  177.7880  146.4590 C   0  0  0  0  0  2  0  0  0  0  0  0
  1  2  1  0  0  0  0
  2  5  1  0  0  0  0
  2 25  1  0  0  0  0
  3  4  1  0  0  0  0
  3  1  2  0  0  0  0
  5  4  1  6  0  0  0
  5  7  1  0  0  0  0
  6  9  1  1  0  0  0
  6 11  1  0  0  0  0
  7  8  1  6  0  0  0
  7  6  1  0  0  0  0
  8  6  1  0  0  0  0
 10  9  1  0  0  0  0
 11 15  1  0  0  0  0
 12 14  1  0  0  0  0
 13 12  2  0  0  0  0
 15 13  1  0  0  0  0
 15 16  2  0  0  0  0
 16 17  1  0  0  0  0
 17 14  2  0  0  0  0
 18 19  2  0  0  0  0
 19  3  1  0  0  0  0
 20 19  1  0  0  0  0
 21 20  1  0  0  0  0
 21 24  1  0  0  0  0
 24 22  1  1  0  0  0
 24 23  1  0  0  0  0
 26 25  1  0  0  0  0
 26 27  1  0  0  0  0
 27 28  1  0  0  0  0
 28 31  1  0  0  0  0
 29 31  1  0  0  0  0
 30 31  1  0  0  0  0
 31 32  1  0  0  0  0
 34 32  1  0  0  0  0
 34 35  1  0  0  0  0
 34 33  1  0  0  0  0
 35 33  1  0  0  0  0
M  END
>  <MODEL>
1

>  <REMARK>
 VINA RESULT:      -7.6      0.000      0.000
  Name = 
  15 active torsions:
  status: ('A' for Active; 'I' for Inactive)
    1  A    between atoms: C_4  and  C_22
    2  A    between atoms: C_4  and  N_28
    3  A    between atoms: C_5  and  C_11
    4  A    between atoms: C_5  and  C_23
    5  A    between atoms: N_9  and  C_23
    6  A    between atoms: C_10  and  C_14
    7  A    between atoms: C_10  and  N_20
    8  A    between atoms: C_11  and  C_19
    9  A    between atoms: C_13  and  C_19
   10  A    between atoms: C_13  and  O_29
   11  A    between atoms: C_14  and  C_25
   12  A    between atoms: C_15  and  O_29
   13  A    between atoms: C_17  and  C_35
   14  A    between atoms: N_20  and  C_31
   15  A    between atoms: C_24  and  N_28
                            x       y       z     vdW  Elec       q    Type
                         _______ _______ _______ _____ _____    ______ ____

>  <TORSDO>
F 15

$$$$
=
 OpenBabel10222419153D

 35 38  0  0  1  0  0  0  0  0999 V2000
  189.1480  177.6780  142.6180 N   0  0  0  0  0  0  0  0  0  0  0  0
  188.6680  178.0900  141.3760 N   0  0  0  0  0  0  0  0  0  0  0  0
  190.2650  177.0400  142.5590 C   0  0  0  0  0  0  0  0  0  0  0  0
  190.9390  176.8220  140.9110 S   0  0  0  0  0  0  0  0  0  0  0  0
  189.5060  177.7450  140.2370 C   0  0  1  0  0  3  0  0  0  0  0  0
  188.6120  177.4680  137.9090 C   0  0  2  0  0  0  0  0  0  0  0  0
  188.7300  176.8610  139.2630 C   0  0  1  0  0  3  0  0  0  0  0  0
  189.5660  176.4780  138.1910 O   0  0  0  0  0  0  0  0  0  0  0  0
  189.3090  178.7520  137.4830 C   0  0  0  0  0  2  0  0  0  0  0  0
  188.3720  179.7440  137.2140 O   0  0  0  0  0  1  0  0  0  0  0  0
  187.5800  176.9300  137.0310 N   0  0  0  0  0  2  0  0  0  0  0  0
  184.2560  178.0730  138.2690 C   0  0  0  0  0  3  0  0  0  0  0  0
  185.6170  178.0530  137.9510 C   0  0  0  0  0  3  0  0  0  0  0  0
  183.4510  176.9690  137.9650 C   0  0  0  0  0  3  0  0  0  0  0  0
  186.1830  176.9310  137.3350 C   0  0  0  0  0  0  0  0  0  0  0  0
  185.3700  175.8330  137.0230 C   0  0  0  0  0  3  0  0  0  0  0  0
  184.0080  175.8520  137.3400 C   0  0  0  0  0  3  0  0  0  0  0  0
  191.7500  175.5970  143.7000 O   0  0  0  0  0  0  0  0  0  0  0  0
  190.9450  176.5630  143.7710 C   0  0  0  0  0  0  0  0  0  0  0  0
  190.6310  177.1720  145.0990 C   0  0  0  0  0  2  0  0  0  0  0  0
  191.7910  177.1180  145.9720 N   0  0  0  0  0  2  0  0  0  0  0  0
  189.8000  176.7280  147.2960 C   0  0  0  0  0  1  0  0  0  0  0  0
  191.7500  175.3920  147.5330 O   0  0  0  0  0  1  0  0  0  0  0  0
  191.3150  176.6930  147.2780 C   0  0  1  0  0  3  0  0  0  0  0  0
  187.4770  178.9140  141.2580 C   0  0  0  0  0  2  0  0  0  0  0  0
  186.3130  178.2370  141.9590 C   0  0  0  0  0  2  0  0  0  0  0  0
  185.0500  179.0480  141.7530 C   0  0  0  0  0  2  0  0  0  0  0  0
  183.8910  178.4390  142.5240 C   0  0  0  0  0  2  0  0  0  0  0  0
  182.4860  179.0140  144.3860 F   0  0  0  0  0  0  0  0  0  0  0  0
  184.2850  180.2600  143.9510 F   0  0  0  0  0  0  0  0  0  0  0  0
  183.8090  178.9630  143.9610 C   0  0  0  0  0  0  0  0  0  0  0  0
  184.6340  178.2070  144.8230 O   0  0  0  0  0  0  0  0  0  0  0  0
  185.6240  178.5680  146.9600 C   0  0  0  0  0  2  0  0  0  0  0  0
  185.4960  179.0590  145.5350 C   0  0  0  0  0  3  0  0  0  0  0  0
  186.7180  178.2760  145.9600 C   0  0  0  0  0  2  0  0  0  0  0  0
  2  1  1  0  0  0  0
  3  1  2  0  0  0  0
  3 19  1  0  0  0  0
  4  3  1  0  0  0  0
  5  4  1  1  0  0  0
  5  2  1  0  0  0  0
  6  9  1  6  0  0  0
  6  8  1  0  0  0  0
  6  7  1  0  0  0  0
  7  8  1  6  0  0  0
  7  5  1  0  0  0  0
 10  9  1  0  0  0  0
 11 15  1  0  0  0  0
 11  6  1  0  0  0  0
 13 12  2  0  0  0  0
 14 12  1  0  0  0  0
 15 13  1  0  0  0  0
 16 15  2  0  0  0  0
 16 17  1  0  0  0  0
 17 14  2  0  0  0  0
 18 19  2  0  0  0  0
 19 20  1  0  0  0  0
 20 21  1  0  0  0  0
 21 24  1  0  0  0  0
 24 22  1  6  0  0  0
 24 23  1  0  0  0  0
 25  2  1  0  0  0  0
 25 26  1  0  0  0  0
 27 26  1  0  0  0  0
 27 28  1  0  0  0  0
 28 31  1  0  0  0  0
 30 31  1  0  0  0  0
 31 29  1  0  0  0  0
 31 32  1  0  0  0  0
 32 34  1  0  0  0  0
 34 35  1  0  0  0  0
 34 33  1  0  0  0  0
 35 33  1  0  0  0  0
M  END
>  <MODEL>
2

>  <REMARK>
 VINA RESULT:      -7.1      1.957      7.082
  Name = 
  15 active torsions:
  status: ('A' for Active; 'I' for Inactive)
    1  A    between atoms: C_4  and  C_22
    2  A    between atoms: C_4  and  N_28
    3  A    between atoms: C_5  and  C_11
    4  A    between atoms: C_5  and  C_23
    5  A    between atoms: N_9  and  C_23
    6  A    between atoms: C_10  and  C_14
    7  A    between atoms: C_10  and  N_20
    8  A    between atoms: C_11  and  C_19
    9  A    between atoms: C_13  and  C_19
   10  A    between atoms: C_13  and  O_29
   11  A    between atoms: C_14  and  C_25
   12  A    between atoms: C_15  and  O_29
   13  A    between atoms: C_17  and  C_35
   14  A    between atoms: N_20  and  C_31
   15  A    between atoms: C_24  and  N_28
                            x       y       z     vdW  Elec       q    Type
                         _______ _______ _______ _____ _____    ______ ____

>  <TORSDO>
F 15

$$$$
=
 OpenBabel10222419153D

 35 38  0  0  1  0  0  0  0  0999 V2000
  187.7080  178.5730  139.7130 N   0  0  0  0  0  0  0  0  0  0  0  0
  187.7110  178.1080  141.0270 N   0  0  0  0  0  0  0  0  0  0  0  0
  188.7980  178.3280  139.0730 C   0  0  0  0  0  0  0  0  0  0  0  0
  190.0600  177.4600  140.0060 S   0  0  0  0  0  0  0  0  0  0  0  0
  188.9250  177.4220  141.4440 C   0  0  1  0  0  3  0  0  0  0  0  0
  190.1520  177.2130  143.6230 C   0  0  2  0  0  0  0  0  0  0  0  0
  189.5600  178.1480  142.6280 C   0  0  1  0  0  3  0  0  0  0  0  0
  190.9450  177.8750  142.6730 O   0  0  0  0  0  0  0  0  0  0  0  0
  190.2570  175.7070  143.4260 C   0  0  0  0  0  2  0  0  0  0  0  0
  191.5430  175.2710  143.7270 O   0  0  0  0  0  1  0  0  0  0  0  0
  190.4190  177.7460  144.9530 N   0  0  0  0  0  2  0  0  0  0  0  0
  187.1300  177.9250  146.6980 C   0  0  0  0  0  3  0  0  0  0  0  0
  188.0930  177.8540  145.6860 C   0  0  0  0  0  3  0  0  0  0  0  0
  187.5280  177.9410  148.0400 C   0  0  0  0  0  3  0  0  0  0  0  0
  189.4540  177.8060  146.0060 C   0  0  0  0  0  0  0  0  0  0  0  0
  189.8450  177.8120  147.3520 C   0  0  0  0  0  3  0  0  0  0  0  0
  188.8840  177.8820  148.3650 C   0  0  0  0  0  3  0  0  0  0  0  0
  189.0470  179.9250  137.3470 O   0  0  0  0  0  0  0  0  0  0  0  0
  188.9640  178.7080  137.6630 C   0  0  0  0  0  0  0  0  0  0  0  0
  188.9630  177.6620  136.5950 C   0  0  0  0  0  2  0  0  0  0  0  0
  188.4030  176.4200  137.0990 N   0  0  0  0  0  2  0  0  0  0  0  0
  187.3720  175.2580  135.2390 C   0  0  0  0  0  1  0  0  0  0  0  0
  189.6840  175.8080  135.2540 O   0  0  0  0  0  1  0  0  0  0  0  0
  188.6270  175.4130  136.0740 C   0  0  1  0  0  3  0  0  0  0  0  0
  186.5290  178.2000  141.8680 C   0  0  0  0  0  2  0  0  0  0  0  0
  185.4770  179.0530  141.1820 C   0  0  0  0  0  2  0  0  0  0  0  0
  184.0950  178.5990  141.6050 C   0  0  0  0  0  2  0  0  0  0  0  0
  184.0840  178.2220  143.0780 C   0  0  0  0  0  2  0  0  0  0  0  0
  184.0580  180.4090  144.0740 F   0  0  0  0  0  0  0  0  0  0  0  0
  183.1770  178.6900  145.1920 F   0  0  0  0  0  0  0  0  0  0  0  0
  183.3200  179.2380  143.9320 C   0  0  0  0  0  0  0  0  0  0  0  0
  182.0260  179.4650  143.4120 O   0  0  0  0  0  0  0  0  0  0  0  0
  179.7720  179.0300  144.0520 C   0  0  0  0  0  2  0  0  0  0  0  0
  181.1520  178.4490  143.8340 C   0  0  0  0  0  3  0  0  0  0  0  0
  180.0760  178.2610  142.7870 C   0  0  0  0  0  2  0  0  0  0  0  0
  1  2  1  0  0  0  0
  2  5  1  0  0  0  0
  2 25  1  0  0  0  0
  3  1  2  0  0  0  0
  3  4  1  0  0  0  0
  5  4  1  6  0  0  0
  5  7  1  0  0  0  0
  6  9  1  6  0  0  0
  6 11  1  0  0  0  0
  7  8  1  6  0  0  0
  7  6  1  0  0  0  0
  8  6  1  0  0  0  0
  9 10  1  0  0  0  0
 11 15  1  0  0  0  0
 12 14  1  0  0  0  0
 13 15  1  0  0  0  0
 13 12  2  0  0  0  0
 14 17  2  0  0  0  0
 15 16  2  0  0  0  0
 16 17  1  0  0  0  0
 18 19  2  0  0  0  0
 19  3  1  0  0  0  0
 20 21  1  0  0  0  0
 20 19  1  0  0  0  0
 23 24  1  0  0  0  0
 24 22  1  6  0  0  0
 24 21  1  0  0  0  0
 26 27  1  0  0  0  0
 26 25  1  0  0  0  0
 27 28  1  0  0  0  0
 28 31  1  0  0  0  0
 31 29  1  0  0  0  0
 31 30  1  0  0  0  0
 32 34  1  0  0  0  0
 32 31  1  0  0  0  0
 34 33  1  0  0  0  0
 35 34  1  0  0  0  0
 35 33  1  0  0  0  0
M  END
>  <MODEL>
3

>  <REMARK>
 VINA RESULT:      -7.1      1.695      2.641
  Name = 
  15 active torsions:
  status: ('A' for Active; 'I' for Inactive)
    1  A    between atoms: C_4  and  C_22
    2  A    between atoms: C_4  and  N_28
    3  A    between atoms: C_5  and  C_11
    4  A    between atoms: C_5  and  C_23
    5  A    between atoms: N_9  and  C_23
    6  A    between atoms: C_10  and  C_14
    7  A    between atoms: C_10  and  N_20
    8  A    between atoms: C_11  and  C_19
    9  A    between atoms: C_13  and  C_19
   10  A    between atoms: C_13  and  O_29
   11  A    between atoms: C_14  and  C_25
   12  A    between atoms: C_15  and  O_29
   13  A    between atoms: C_17  and  C_35
   14  A    between atoms: N_20  and  C_31
   15  A    between atoms: C_24  and  N_28
                            x       y       z     vdW  Elec       q    Type
                         _______ _______ _______ _____ _____    ______ ____

>  <TORSDO>
F 15

$$$$
=
 OpenBabel10222419153D

 35 38  0  0  1  0  0  0  0  0999 V2000
  187.3970  178.6450  139.3320 N   0  0  0  0  0  0  0  0  0  0  0  0
  187.6730  178.2950  140.6520 N   0  0  0  0  0  0  0  0  0  0  0  0
  188.2270  178.1520  138.4790 C   0  0  0  0  0  0  0  0  0  0  0  0
  189.5380  177.1460  139.1760 S   0  0  0  0  0  0  0  0  0  0  0  0
  188.8310  177.4340  140.8420 C   0  0  1  0  0  3  0  0  0  0  0  0
  190.5170  177.1870  142.6840 C   0  0  2  0  0  0  0  0  0  0  0  0
  189.8610  178.1250  141.7320 C   0  0  1  0  0  3  0  0  0  0  0  0
  191.1440  177.5840  141.4930 O   0  0  0  0  0  0  0  0  0  0  0  0
  190.3080  175.6790  142.6800 C   0  0  0  0  0  2  0  0  0  0  0  0
  189.1090  175.3570  143.3070 O   0  0  0  0  0  1  0  0  0  0  0  0
  191.2010  177.7770  143.8270 N   0  0  0  0  0  2  0  0  0  0  0  0
  189.3460  177.7840  147.0600 C   0  0  0  0  0  3  0  0  0  0  0  0
  189.6850  178.0250  145.7250 C   0  0  0  0  0  3  0  0  0  0  0  0
  190.1910  177.0150  147.8680 C   0  0  0  0  0  3  0  0  0  0  0  0
  190.8700  177.5060  145.1910 C   0  0  0  0  0  0  0  0  0  0  0  0
  191.7070  176.7280  146.0030 C   0  0  0  0  0  3  0  0  0  0  0  0
  191.3690  176.4860  147.3370 C   0  0  0  0  0  3  0  0  0  0  0  0
  187.5700  179.4580  136.6210 O   0  0  0  0  0  0  0  0  0  0  0  0
  188.0730  178.3790  137.0350 C   0  0  0  0  0  0  0  0  0  0  0  0
  188.4440  177.3090  136.0610 C   0  0  0  0  0  2  0  0  0  0  0  0
  187.2780  176.5230  135.6970 N   0  0  0  0  0  2  0  0  0  0  0  0
  189.0840  174.9410  136.0200 C   0  0  0  0  0  1  0  0  0  0  0  0
  187.0840  174.8470  137.3000 O   0  0  0  0  0  1  0  0  0  0  0  0
  187.5820  175.1410  136.0300 C   0  0  1  0  0  3  0  0  0  0  0  0
  186.7840  178.6710  141.7390 C   0  0  0  0  0  2  0  0  0  0  0  0
  186.7590  177.5680  142.7840 C   0  0  0  0  0  2  0  0  0  0  0  0
  186.9820  178.1630  144.1590 C   0  0  0  0  0  2  0  0  0  0  0  0
  185.9920  177.5870  145.1580 C   0  0  0  0  0  2  0  0  0  0  0  0
  185.5530  179.9260  145.4850 F   0  0  0  0  0  0  0  0  0  0  0  0
  185.0020  178.4780  147.0910 F   0  0  0  0  0  0  0  0  0  0  0  0
  185.0470  178.6530  145.7210 C   0  0  0  0  0  0  0  0  0  0  0  0
  183.7360  178.4810  145.2220 O   0  0  0  0  0  0  0  0  0  0  0  0
  183.3470  178.7130  142.8830 C   0  0  0  0  0  2  0  0  0  0  0  0
  183.4770  179.4230  144.2120 C   0  0  0  0  0  3  0  0  0  0  0  0
  182.1080  179.1520  143.6290 C   0  0  0  0  0  2  0  0  0  0  0  0
  1  2  1  0  0  0  0
  2  5  1  0  0  0  0
  2 25  1  0  0  0  0
  3  4  1  0  0  0  0
  3  1  2  0  0  0  0
  5  4  1  6  0  0  0
  5  7  1  0  0  0  0
  6  9  1  1  0  0  0
  6 11  1  0  0  0  0
  7  8  1  6  0  0  0
  7  6  1  0  0  0  0
  8  6  1  0  0  0  0
  9 10  1  0  0  0  0
 11 15  1  0  0  0  0
 12 14  1  0  0  0  0
 13 12  2  0  0  0  0
 15 13  1  0  0  0  0
 15 16  2  0  0  0  0
 16 17  1  0  0  0  0
 17 14  2  0  0  0  0
 18 19  2  0  0  0  0
 19  3  1  0  0  0  0
 20 19  1  0  0  0  0
 21 24  1  0  0  0  0
 21 20  1  0  0  0  0
 24 22  1  1  0  0  0
 24 23  1  0  0  0  0
 25 26  1  0  0  0  0
 26 27  1  0  0  0  0
 27 28  1  0  0  0  0
 28 31  1  0  0  0  0
 29 31  1  0  0  0  0
 31 30  1  0  0  0  0
 32 31  1  0  0  0  0
 33 35  1  0  0  0  0
 33 34  1  0  0  0  0
 34 32  1  0  0  0  0
 35 34  1  0  0  0  0
M  END
>  <MODEL>
4

>  <REMARK>
 VINA RESULT:      -7.0      1.137      2.058
  Name = 
  15 active torsions:
  status: ('A' for Active; 'I' for Inactive)
    1  A    between atoms: C_4  and  C_22
    2  A    between atoms: C_4  and  N_28
    3  A    between atoms: C_5  and  C_11
    4  A    between atoms: C_5  and  C_23
    5  A    between atoms: N_9  and  C_23
    6  A    between atoms: C_10  and  C_14
    7  A    between atoms: C_10  and  N_20
    8  A    between atoms: C_11  and  C_19
    9  A    between atoms: C_13  and  C_19
   10  A    between atoms: C_13  and  O_29
   11  A    between atoms: C_14  and  C_25
   12  A    between atoms: C_15  and  O_29
   13  A    between atoms: C_17  and  C_35
   14  A    between atoms: N_20  and  C_31
   15  A    between atoms: C_24  and  N_28
                            x       y       z     vdW  Elec       q    Type
                         _______ _______ _______ _____ _____    ______ ____

>  <TORSDO>
F 15

$$$$
=
 OpenBabel10222419153D

 35 38  0  0  1  0  0  0  0  0999 V2000
  187.9120  178.4150  139.7600 N   0  0  0  0  0  0  0  0  0  0  0  0
  187.9360  177.9360  141.0680 N   0  0  0  0  0  0  0  0  0  0  0  0
  189.0150  178.2330  139.1200 C   0  0  0  0  0  0  0  0  0  0  0  0
  190.3170  177.4210  140.0470 S   0  0  0  0  0  0  0  0  0  0  0  0
  189.1820  177.3070  141.4810 C   0  0  1  0  0  3  0  0  0  0  0  0
  190.4160  177.1380  143.6600 C   0  0  2  0  0  0  0  0  0  0  0  0
  189.7760  178.0520  142.6750 C   0  0  1  0  0  3  0  0  0  0  0  0
  191.1730  177.8530  142.7190 O   0  0  0  0  0  0  0  0  0  0  0  0
  190.6030  175.6430  143.4440 C   0  0  0  0  0  2  0  0  0  0  0  0
  191.8340  175.2330  143.9450 O   0  0  0  0  0  1  0  0  0  0  0  0
  190.6530  177.6680  144.9970 N   0  0  0  0  0  2  0  0  0  0  0  0
  189.1000  177.8710  148.3790 C   0  0  0  0  0  3  0  0  0  0  0  0
  190.0550  177.8050  147.3590 C   0  0  0  0  0  3  0  0  0  0  0  0
  187.7370  177.8860  148.0590 C   0  0  0  0  0  3  0  0  0  0  0  0
  189.6580  177.7470  146.0190 C   0  0  0  0  0  0  0  0  0  0  0  0
  188.2910  177.7730  145.7050 C   0  0  0  0  0  3  0  0  0  0  0  0
  187.3360  177.8400  146.7230 C   0  0  0  0  0  3  0  0  0  0  0  0
  189.0180  179.8460  137.3910 O   0  0  0  0  0  0  0  0  0  0  0  0
  189.1640  178.6370  137.7150 C   0  0  0  0  0  0  0  0  0  0  0  0
  189.4190  177.6110  136.6590 C   0  0  0  0  0  2  0  0  0  0  0  0
  188.8980  176.3180  137.0670 N   0  0  0  0  0  2  0  0  0  0  0  0
  191.0930  176.0210  136.0870 C   0  0  0  0  0  1  0  0  0  0  0  0
  190.2640  174.5730  137.7790 O   0  0  0  0  0  1  0  0  0  0  0  0
  189.8800  175.3230  136.6670 C   0  0  1  0  0  3  0  0  0  0  0  0
  186.7480  177.9570  141.9060 C   0  0  0  0  0  2  0  0  0  0  0  0
  185.9480  179.2170  141.6290 C   0  0  0  0  0  2  0  0  0  0  0  0
  184.8720  179.3820  142.6830 C   0  0  0  0  0  2  0  0  0  0  0  0
  183.8580  178.2530  142.5930 C   0  0  0  0  0  2  0  0  0  0  0  0
  183.2590  179.4990  140.6270 F   0  0  0  0  0  0  0  0  0  0  0  0
  181.7270  178.2090  141.6110 F   0  0  0  0  0  0  0  0  0  0  0  0
  183.0660  178.2870  141.2820 C   0  0  0  0  0  0  0  0  0  0  0  0
  183.3770  177.1710  140.4740 O   0  0  0  0  0  0  0  0  0  0  0  0
  182.5510  177.0550  138.2420 C   0  0  0  0  0  2  0  0  0  0  0  0
  182.2590  176.8060  139.7050 C   0  0  0  0  0  3  0  0  0  0  0  0
  182.6410  175.6540  138.8020 C   0  0  0  0  0  2  0  0  0  0  0  0
  1  2  1  0  0  0  0
  2  5  1  0  0  0  0
  2 25  1  0  0  0  0
  3  1  2  0  0  0  0
  3  4  1  0  0  0  0
  5  4  1  6  0  0  0
  5  7  1  0  0  0  0
  6  9  1  6  0  0  0
  6 11  1  0  0  0  0
  7  8  1  6  0  0  0
  7  6  1  0  0  0  0
  8  6  1  0  0  0  0
  9 10  1  0  0  0  0
 11 15  1  0  0  0  0
 13 12  2  0  0  0  0
 14 12  1  0  0  0  0
 15 13  1  0  0  0  0
 16 15  2  0  0  0  0
 16 17  1  0  0  0  0
 17 14  2  0  0  0  0
 18 19  2  0  0  0  0
 19  3  1  0  0  0  0
 20 21  1  0  0  0  0
 20 19  1  0  0  0  0
 24 22  1  1  0  0  0
 24 21  1  0  0  0  0
 24 23  1  0  0  0  0
 26 25  1  0  0  0  0
 26 27  1  0  0  0  0
 28 27  1  0  0  0  0
 29 31  1  0  0  0  0
 31 30  1  0  0  0  0
 31 28  1  0  0  0  0
 32 31  1  0  0  0  0
 33 35  1  0  0  0  0
 33 34  1  0  0  0  0
 34 32  1  0  0  0  0
 35 34  1  0  0  0  0
M  END
>  <MODEL>
5

>  <REMARK>
 VINA RESULT:      -6.6      2.180      3.379
  Name = 
  15 active torsions:
  status: ('A' for Active; 'I' for Inactive)
    1  A    between atoms: C_4  and  C_22
    2  A    between atoms: C_4  and  N_28
    3  A    between atoms: C_5  and  C_11
    4  A    between atoms: C_5  and  C_23
    5  A    between atoms: N_9  and  C_23
    6  A    between atoms: C_10  and  C_14
    7  A    between atoms: C_10  and  N_20
    8  A    between atoms: C_11  and  C_19
    9  A    between atoms: C_13  and  C_19
   10  A    between atoms: C_13  and  O_29
   11  A    between atoms: C_14  and  C_25
   12  A    between atoms: C_15  and  O_29
   13  A    between atoms: C_17  and  C_35
   14  A    between atoms: N_20  and  C_31
   15  A    between atoms: C_24  and  N_28
                            x       y       z     vdW  Elec       q    Type
                         _______ _______ _______ _____ _____    ______ ____

>  <TORSDO>
F 15

$$$$
=
 OpenBabel10222419153D

 35 38  0  0  1  0  0  0  0  0999 V2000
  187.6010  178.1860  139.5480 N   0  0  0  0  0  0  0  0  0  0  0  0
  187.5650  178.4970  140.9060 N   0  0  0  0  0  0  0  0  0  0  0  0
  186.4510  178.2370  138.9720 C   0  0  0  0  0  0  0  0  0  0  0  0
  185.0780  178.6840  140.0360 S   0  0  0  0  0  0  0  0  0  0  0  0
  186.2520  178.8340  141.4350 C   0  0  1  0  0  3  0  0  0  0  0  0
  185.2730  178.5420  143.7270 C   0  0  2  0  0  0  0  0  0  0  0  0
  185.8660  177.8590  142.5450 C   0  0  1  0  0  3  0  0  0  0  0  0
  184.4720  177.9080  142.7650 O   0  0  0  0  0  0  0  0  0  0  0  0
  184.9400  180.0270  143.7800 C   0  0  0  0  0  2  0  0  0  0  0  0
  183.6190  180.2100  144.1750 O   0  0  0  0  0  1  0  0  0  0  0  0
  185.2390  177.7920  144.9760 N   0  0  0  0  0  2  0  0  0  0  0  0
  186.8320  179.1850  148.0440 C   0  0  0  0  0  3  0  0  0  0  0  0
  185.9340  178.9800  146.9920 C   0  0  0  0  0  3  0  0  0  0  0  0
  187.9680  178.3750  148.1610 C   0  0  0  0  0  3  0  0  0  0  0  0
  186.1660  177.9730  146.0490 C   0  0  0  0  0  0  0  0  0  0  0  0
  187.3000  177.1590  146.1780 C   0  0  0  0  0  3  0  0  0  0  0  0
  188.1980  177.3610  147.2290 C   0  0  0  0  0  3  0  0  0  0  0  0
  187.0640  178.5480  136.7100 O   0  0  0  0  0  0  0  0  0  0  0  0
  186.2980  177.9790  137.5330 C   0  0  0  0  0  0  0  0  0  0  0  0
  185.1950  177.1010  137.0380 C   0  0  0  0  0  2  0  0  0  0  0  0
  185.6630  176.2550  135.9550 N   0  0  0  0  0  2  0  0  0  0  0  0
  184.3370  174.2330  136.1140 C   0  0  0  0  0  1  0  0  0  0  0  0
  186.7000  174.1730  135.8650 O   0  0  0  0  0  1  0  0  0  0  0  0
  185.6590  174.8900  136.4560 C   0  0  1  0  0  3  0  0  0  0  0  0
  188.7810  178.5950  141.6950 C   0  0  0  0  0  2  0  0  0  0  0  0
  189.5970  177.3230  141.5410 C   0  0  0  0  0  2  0  0  0  0  0  0
  189.9450  176.7700  142.9080 C   0  0  0  0  0  2  0  0  0  0  0  0
  191.3430  177.2020  143.3190 C   0  0  0  0  0  2  0  0  0  0  0  0
  190.0270  178.4550  144.8900 F   0  0  0  0  0  0  0  0  0  0  0  0
  191.9680  179.2950  144.1780 F   0  0  0  0  0  0  0  0  0  0  0  0
  191.3320  178.1230  144.5410 C   0  0  0  0  0  0  0  0  0  0  0  0
  192.0580  177.5540  145.6120 O   0  0  0  0  0  0  0  0  0  0  0  0
  192.2170  175.4010  146.6200 C   0  0  0  0  0  2  0  0  0  0  0  0
  191.3020  176.5380  146.2210 C   0  0  0  0  0  3  0  0  0  0  0  0
  191.7480  176.3920  147.6590 C   0  0  0  0  0  2  0  0  0  0  0  0
  1  2  1  0  0  0  0
  2  5  1  0  0  0  0
  2 25  1  0  0  0  0
  3  1  2  0  0  0  0
  3  4  1  0  0  0  0
  5  4  1  6  0  0  0
  5  7  1  0  0  0  0
  6  9  1  1  0  0  0
  6 11  1  0  0  0  0
  7  8  1  6  0  0  0
  7  6  1  0  0  0  0
  8  6  1  0  0  0  0
  9 10  1  0  0  0  0
 11 15  1  0  0  0  0
 12 14  1  0  0  0  0
 13 12  2  0  0  0  0
 15 16  2  0  0  0  0
 15 13  1  0  0  0  0
 16 17  1  0  0  0  0
 17 14  2  0  0  0  0
 18 19  2  0  0  0  0
 19  3  1  0  0  0  0
 20 19  1  0  0  0  0
 21 24  1  0  0  0  0
 21 20  1  0  0  0  0
 23 24  1  0  0  0  0
 24 22  1  6  0  0  0
 26 25  1  0  0  0  0
 26 27  1  0  0  0  0
 27 28  1  0  0  0  0
 28 31  1  0  0  0  0
 30 31  1  0  0  0  0
 31 29  1  0  0  0  0
 31 32  1  0  0  0  0
 32 34  1  0  0  0  0
 33 35  1  0  0  0  0
 34 33  1  0  0  0  0
 34 35  1  0  0  0  0
M  END
>  <MODEL>
6

>  <REMARK>
 VINA RESULT:      -6.5      2.672      5.081
  Name = 
  15 active torsions:
  status: ('A' for Active; 'I' for Inactive)
    1  A    between atoms: C_4  and  C_22
    2  A    between atoms: C_4  and  N_28
    3  A    between atoms: C_5  and  C_11
    4  A    between atoms: C_5  and  C_23
    5  A    between atoms: N_9  and  C_23
    6  A    between atoms: C_10  and  C_14
    7  A    between atoms: C_10  and  N_20
    8  A    between atoms: C_11  and  C_19
    9  A    between atoms: C_13  and  C_19
   10  A    between atoms: C_13  and  O_29
   11  A    between atoms: C_14  and  C_25
   12  A    between atoms: C_15  and  O_29
   13  A    between atoms: C_17  and  C_35
   14  A    between atoms: N_20  and  C_31
   15  A    between atoms: C_24  and  N_28
                            x       y       z     vdW  Elec       q    Type
                         _______ _______ _______ _____ _____    ______ ____

>  <TORSDO>
F 15

$$$$
=
 OpenBabel10222419153D

 35 38  0  0  1  0  0  0  0  0999 V2000
  189.2240  176.8280  142.1210 N   0  0  0  0  0  0  0  0  0  0  0  0
  188.0230  177.2690  142.6730 N   0  0  0  0  0  0  0  0  0  0  0  0
  189.5500  177.4330  141.0320 C   0  0  0  0  0  0  0  0  0  0  0  0
  188.3940  178.6860  140.4740 S   0  0  0  0  0  0  0  0  0  0  0  0
  187.3530  178.3340  141.9410 C   0  0  1  0  0  3  0  0  0  0  0  0
  184.8710  178.5860  142.2100 C   0  0  2  0  0  0  0  0  0  0  0  0
  185.9660  177.8740  141.4960 C   0  0  1  0  0  3  0  0  0  0  0  0
  185.2660  178.9540  140.9140 O   0  0  0  0  0  0  0  0  0  0  0  0
  185.0880  179.7500  143.1660 C   0  0  0  0  0  2  0  0  0  0  0  0
  184.6010  179.4330  144.4300 O   0  0  0  0  0  1  0  0  0  0  0  0
  183.5500  177.9720  142.1720 N   0  0  0  0  0  2  0  0  0  0  0  0
  180.3250  179.7720  142.6750 C   0  0  0  0  0  3  0  0  0  0  0  0
  181.5180  179.0900  142.9350 C   0  0  0  0  0  3  0  0  0  0  0  0
  179.9530  180.0520  141.3550 C   0  0  0  0  0  3  0  0  0  0  0  0
  182.3420  178.6790  141.8810 C   0  0  0  0  0  0  0  0  0  0  0  0
  181.9690  178.9720  140.5620 C   0  0  0  0  0  3  0  0  0  0  0  0
  180.7780  179.6540  140.3010 C   0  0  0  0  0  3  0  0  0  0  0  0
  191.9070  177.4410  140.8510 O   0  0  0  0  0  0  0  0  0  0  0  0
  190.8040  177.1300  140.3280 C   0  0  0  0  0  0  0  0  0  0  0  0
  190.7740  176.5180  138.9650 C   0  0  0  0  0  2  0  0  0  0  0  0
  192.0940  176.5520  138.3610 N   0  0  0  0  0  2  0  0  0  0  0  0
  193.6160  174.8690  137.5120 C   0  0  0  0  0  1  0  0  0  0  0  0
  191.3340  174.3880  137.9650 O   0  0  0  0  0  1  0  0  0  0  0  0
  192.1920  175.3850  137.5000 C   0  0  1  0  0  3  0  0  0  0  0  0
  187.5500  176.7770  143.9560 C   0  0  0  0  0  2  0  0  0  0  0  0
  187.6760  177.8710  145.0020 C   0  0  0  0  0  2  0  0  0  0  0  0
  186.8740  177.4970  146.2310 C   0  0  0  0  0  2  0  0  0  0  0  0
  187.3000  178.3370  147.4240 C   0  0  0  0  0  2  0  0  0  0  0  0
  188.0290  176.2990  148.4690 F   0  0  0  0  0  0  0  0  0  0  0  0
  188.3510  178.2410  149.5210 F   0  0  0  0  0  0  0  0  0  0  0  0
  188.3610  177.6360  148.2780 C   0  0  0  0  0  0  0  0  0  0  0  0
  189.6500  177.8080  147.7260 O   0  0  0  0  0  0  0  0  0  0  0  0
  191.2110  176.7820  146.2480 C   0  0  0  0  0  2  0  0  0  0  0  0
  190.1750  176.5670  147.3280 C   0  0  0  0  0  3  0  0  0  0  0  0
  191.6470  176.5240  147.6710 C   0  0  0  0  0  2  0  0  0  0  0  0
  1  2  1  0  0  0  0
  2 25  1  0  0  0  0
  3  1  2  0  0  0  0
  4  3  1  0  0  0  0
  5  4  1  6  0  0  0
  5  2  1  0  0  0  0
  6  9  1  1  0  0  0
  7  8  1  6  0  0  0
  7  5  1  0  0  0  0
  7  6  1  0  0  0  0
  8  6  1  0  0  0  0
  9 10  1  0  0  0  0
 11  6  1  0  0  0  0
 12 13  1  0  0  0  0
 14 12  2  0  0  0  0
 15 11  1  0  0  0  0
 15 13  2  0  0  0  0
 16 15  1  0  0  0  0
 17 16  2  0  0  0  0
 17 14  1  0  0  0  0
 19 18  2  0  0  0  0
 19  3  1  0  0  0  0
 20 19  1  0  0  0  0
 21 20  1  0  0  0  0
 24 22  1  1  0  0  0
 24 23  1  0  0  0  0
 24 21  1  0  0  0  0
 25 26  1  0  0  0  0
 26 27  1  0  0  0  0
 27 28  1  0  0  0  0
 28 31  1  0  0  0  0
 31 29  1  0  0  0  0
 31 30  1  0  0  0  0
 32 31  1  0  0  0  0
 33 34  1  0  0  0  0
 33 35  1  0  0  0  0
 34 35  1  0  0  0  0
 34 32  1  0  0  0  0
M  END
>  <MODEL>
7

>  <REMARK>
 VINA RESULT:      -6.5      3.398      6.721
  Name = 
  15 active torsions:
  status: ('A' for Active; 'I' for Inactive)
    1  A    between atoms: C_4  and  C_22
    2  A    between atoms: C_4  and  N_28
    3  A    between atoms: C_5  and  C_11
    4  A    between atoms: C_5  and  C_23
    5  A    between atoms: N_9  and  C_23
    6  A    between atoms: C_10  and  C_14
    7  A    between atoms: C_10  and  N_20
    8  A    between atoms: C_11  and  C_19
    9  A    between atoms: C_13  and  C_19
   10  A    between atoms: C_13  and  O_29
   11  A    between atoms: C_14  and  C_25
   12  A    between atoms: C_15  and  O_29
   13  A    between atoms: C_17  and  C_35
   14  A    between atoms: N_20  and  C_31
   15  A    between atoms: C_24  and  N_28
                            x       y       z     vdW  Elec       q    Type
                         _______ _______ _______ _____ _____    ______ ____

>  <TORSDO>
F 15

$$$$
=
 OpenBabel10222419153D

 35 38  0  0  1  0  0  0  0  0999 V2000
  188.2650  177.5610  142.2810 N   0  0  0  0  0  0  0  0  0  0  0  0
  189.3080  176.8160  141.7350 N   0  0  0  0  0  0  0  0  0  0  0  0
  187.5260  178.1450  141.4030 C   0  0  0  0  0  0  0  0  0  0  0  0
  188.0050  177.8770  139.6960 S   0  0  0  0  0  0  0  0  0  0  0  0
  189.3790  176.8140  140.2810 C   0  0  1  0  0  3  0  0  0  0  0  0
  191.3420  176.5830  138.7350 C   0  0  2  0  0  0  0  0  0  0  0  0
  190.7160  177.3890  139.8180 C   0  0  1  0  0  3  0  0  0  0  0  0
  190.6340  177.7630  138.4590 O   0  0  0  0  0  0  0  0  0  0  0  0
  190.6690  175.4040  138.0470 C   0  0  0  0  0  2  0  0  0  0  0  0
  190.1240  175.8020  136.8310 O   0  0  0  0  0  1  0  0  0  0  0  0
  192.7650  176.7890  138.4960 N   0  0  0  0  0  2  0  0  0  0  0  0
  194.4100  175.6140  135.3650 C   0  0  0  0  0  3  0  0  0  0  0  0
  193.6530  176.3780  136.2610 C   0  0  0  0  0  3  0  0  0  0  0  0
  195.0770  174.4690  135.8140 C   0  0  0  0  0  3  0  0  0  0  0  0
  193.5540  176.0000  137.6040 C   0  0  0  0  0  0  0  0  0  0  0  0
  194.2340  174.8570  138.0490 C   0  0  0  0  0  3  0  0  0  0  0  0
  194.9910  174.0940  137.1560 C   0  0  0  0  0  3  0  0  0  0  0  0
  185.8470  179.7510  140.9680 O   0  0  0  0  0  0  0  0  0  0  0  0
  186.3540  178.9420  141.7900 C   0  0  0  0  0  0  0  0  0  0  0  0
  185.8050  178.8500  143.1770 C   0  0  0  0  0  2  0  0  0  0  0  0
  184.5080  178.1950  143.1690 N   0  0  0  0  0  2  0  0  0  0  0  0
  184.5130  178.6300  145.5530 C   0  0  0  0  0  1  0  0  0  0  0  0
  183.5140  180.1280  144.0020 O   0  0  0  0  0  1  0  0  0  0  0  0
  183.7390  178.7750  144.2580 C   0  0  1  0  0  3  0  0  0  0  0  0
  190.1790  176.0030  142.5670 C   0  0  0  0  0  2  0  0  0  0  0  0
  191.0760  176.9010  143.4000 C   0  0  0  0  0  2  0  0  0  0  0  0
  190.4920  177.0610  144.7880 C   0  0  0  0  0  2  0  0  0  0  0  0
  191.5890  177.0210  145.8390 C   0  0  0  0  0  2  0  0  0  0  0  0
  191.6520  177.3600  148.2170 F   0  0  0  0  0  0  0  0  0  0  0  0
  191.4500  175.2880  147.4150 F   0  0  0  0  0  0  0  0  0  0  0  0
  191.0630  176.5990  147.2140 C   0  0  0  0  0  0  0  0  0  0  0  0
  189.6510  176.6410  147.2500 O   0  0  0  0  0  0  0  0  0  0  0  0
  187.8950  178.2490  147.3220 C   0  0  0  0  0  2  0  0  0  0  0  0
  189.2190  177.8070  147.9040 C   0  0  0  0  0  3  0  0  0  0  0  0
  187.9310  177.5090  148.6380 C   0  0  0  0  0  2  0  0  0  0  0  0
  2  1  1  0  0  0  0
  2 25  1  0  0  0  0
  3 19  1  0  0  0  0
  3  1  2  0  0  0  0
  4  3  1  0  0  0  0
  5  4  1  6  0  0  0
  5  2  1  0  0  0  0
  6  9  1  6  0  0  0
  6  7  1  0  0  0  0
  7  8  1  6  0  0  0
  7  5  1  0  0  0  0
  8  6  1  0  0  0  0
 10  9  1  0  0  0  0
 11  6  1  0  0  0  0
 12 14  2  0  0  0  0
 12 13  1  0  0  0  0
 13 15  2  0  0  0  0
 14 17  1  0  0  0  0
 15 16  1  0  0  0  0
 15 11  1  0  0  0  0
 17 16  2  0  0  0  0
 18 19  2  0  0  0  0
 19 20  1  0  0  0  0
 21 20  1  0  0  0  0
 21 24  1  0  0  0  0
 23 24  1  0  0  0  0
 24 22  1  1  0  0  0
 25 26  1  0  0  0  0
 26 27  1  0  0  0  0
 27 28  1  0  0  0  0
 28 31  1  0  0  0  0
 31 32  1  0  0  0  0
 31 30  1  0  0  0  0
 31 29  1  0  0  0  0
 32 34  1  0  0  0  0
 33 34  1  0  0  0  0
 33 35  1  0  0  0  0
 34 35  1  0  0  0  0
M  END
>  <MODEL>
8

>  <REMARK>
 VINA RESULT:      -6.5      4.096      7.307
  Name = 
  15 active torsions:
  status: ('A' for Active; 'I' for Inactive)
    1  A    between atoms: C_4  and  C_22
    2  A    between atoms: C_4  and  N_28
    3  A    between atoms: C_5  and  C_11
    4  A    between atoms: C_5  and  C_23
    5  A    between atoms: N_9  and  C_23
    6  A    between atoms: C_10  and  C_14
    7  A    between atoms: C_10  and  N_20
    8  A    between atoms: C_11  and  C_19
    9  A    between atoms: C_13  and  C_19
   10  A    between atoms: C_13  and  O_29
   11  A    between atoms: C_14  and  C_25
   12  A    between atoms: C_15  and  O_29
   13  A    between atoms: C_17  and  C_35
   14  A    between atoms: N_20  and  C_31
   15  A    between atoms: C_24  and  N_28
                            x       y       z     vdW  Elec       q    Type
                         _______ _______ _______ _____ _____    ______ ____

>  <TORSDO>
F 15

$$$$
=
 OpenBabel10222419153D

 35 38  0  0  1  0  0  0  0  0999 V2000
  186.2290  178.6520  139.7640 N   0  0  0  0  0  0  0  0  0  0  0  0
  186.7440  178.7740  141.0540 N   0  0  0  0  0  0  0  0  0  0  0  0
  184.9430  178.6510  139.7150 C   0  0  0  0  0  0  0  0  0  0  0  0
  184.1130  178.7980  141.2980 S   0  0  0  0  0  0  0  0  0  0  0  0
  185.7530  178.8900  142.1130 C   0  0  1  0  0  3  0  0  0  0  0  0
  185.6050  178.1470  144.5050 C   0  0  2  0  0  0  0  0  0  0  0  0
  185.9060  177.7400  143.1060 C   0  0  1  0  0  3  0  0  0  0  0  0
  184.6640  177.4650  143.7190 O   0  0  0  0  0  0  0  0  0  0  0  0
  185.0560  179.5110  144.9010 C   0  0  0  0  0  2  0  0  0  0  0  0
  183.8350  179.3690  145.5500 O   0  0  0  0  0  1  0  0  0  0  0  0
  186.0920  177.2750  145.5660 N   0  0  0  0  0  2  0  0  0  0  0  0
  189.5120  177.5260  147.0280 C   0  0  0  0  0  3  0  0  0  0  0  0
  188.4590  177.2180  146.1600 C   0  0  0  0  0  3  0  0  0  0  0  0
  189.2600  178.2410  148.2050 C   0  0  0  0  0  3  0  0  0  0  0  0
  187.1520  177.6140  146.4630 C   0  0  0  0  0  0  0  0  0  0  0  0
  186.9080  178.3390  147.6380 C   0  0  0  0  0  3  0  0  0  0  0  0
  187.9590  178.6490  148.5060 C   0  0  0  0  0  3  0  0  0  0  0  0
  184.7310  177.9500  137.4670 O   0  0  0  0  0  0  0  0  0  0  0  0
  184.2210  178.5720  138.4370 C   0  0  0  0  0  0  0  0  0  0  0  0
  182.9190  179.2830  138.2620 C   0  0  0  0  0  2  0  0  0  0  0  0
  183.0510  180.6850  138.6190 N   0  0  0  0  0  2  0  0  0  0  0  0
  181.1880  182.0030  137.8060 C   0  0  0  0  0  1  0  0  0  0  0  0
  180.8700  180.0730  139.1560 O   0  0  0  0  0  1  0  0  0  0  0  0
  181.7180  181.1620  138.9490 C   0  0  1  0  0  3  0  0  0  0  0  0
  188.1720  178.9010  141.2930 C   0  0  0  0  0  2  0  0  0  0  0  0
  188.9420  178.3240  140.1180 C   0  0  0  0  0  2  0  0  0  0  0  0
  189.2800  176.8730  140.3910 C   0  0  0  0  0  2  0  0  0  0  0  0
  190.4450  176.7690  141.3620 C   0  0  0  0  0  2  0  0  0  0  0  0
  190.6400  174.9650  142.9370 F   0  0  0  0  0  0  0  0  0  0  0  0
  188.6620  175.9570  142.6560 F   0  0  0  0  0  0  0  0  0  0  0  0
  190.0220  176.1910  142.7160 C   0  0  0  0  0  0  0  0  0  0  0  0
  190.2540  177.1180  143.7570 O   0  0  0  0  0  0  0  0  0  0  0  0
  191.0110  179.3720  143.9020 C   0  0  0  0  0  2  0  0  0  0  0  0
  191.3150  177.9730  143.4150 C   0  0  0  0  0  3  0  0  0  0  0  0
  191.9560  178.4900  144.6840 C   0  0  0  0  0  2  0  0  0  0  0  0
  1  2  1  0  0  0  0
  2 25  1  0  0  0  0
  2  5  1  0  0  0  0
  3  1  2  0  0  0  0
  3  4  1  0  0  0  0
  5  4  1  6  0  0  0
  5  7  1  0  0  0  0
  6  9  1  1  0  0  0
  6 11  1  0  0  0  0
  7  8  1  6  0  0  0
  7  6  1  0  0  0  0
  8  6  1  0  0  0  0
  9 10  1  0  0  0  0
 11 15  1  0  0  0  0
 12 14  1  0  0  0  0
 13 15  1  0  0  0  0
 13 12  2  0  0  0  0
 14 17  2  0  0  0  0
 15 16  2  0  0  0  0
 16 17  1  0  0  0  0
 18 19  2  0  0  0  0
 19  3  1  0  0  0  0
 20 19  1  0  0  0  0
 20 21  1  0  0  0  0
 21 24  1  0  0  0  0
 24 22  1  6  0  0  0
 24 23  1  0  0  0  0
 26 27  1  0  0  0  0
 26 25  1  0  0  0  0
 27 28  1  0  0  0  0
 28 31  1  0  0  0  0
 30 31  1  0  0  0  0
 31 29  1  0  0  0  0
 31 32  1  0  0  0  0
 33 35  1  0  0  0  0
 34 32  1  0  0  0  0
 34 33  1  0  0  0  0
 34 35  1  0  0  0  0
M  END
>  <MODEL>
9

>  <REMARK>
 VINA RESULT:      -6.4      3.353      5.606
  Name = 
  15 active torsions:
  status: ('A' for Active; 'I' for Inactive)
    1  A    between atoms: C_4  and  C_22
    2  A    between atoms: C_4  and  N_28
    3  A    between atoms: C_5  and  C_11
    4  A    between atoms: C_5  and  C_23
    5  A    between atoms: N_9  and  C_23
    6  A    between atoms: C_10  and  C_14
    7  A    between atoms: C_10  and  N_20
    8  A    between atoms: C_11  and  C_19
    9  A    between atoms: C_13  and  C_19
   10  A    between atoms: C_13  and  O_29
   11  A    between atoms: C_14  and  C_25
   12  A    between atoms: C_15  and  O_29
   13  A    between atoms: C_17  and  C_35
   14  A    between atoms: N_20  and  C_31
   15  A    between atoms: C_24  and  N_28
                            x       y       z     vdW  Elec       q    Type
                         _______ _______ _______ _____ _____    ______ ____

>  <TORSDO>
F 15

$$$$
