=
 OpenBabel10222416053D

 61 65  0  0  1  0  0  0  0  0999 V2000
  186.0160  178.4810  138.8690 N   0  0  0  0  0  0  0  0  0  0  0  0
  185.5680  178.6520  140.0760 C   0  0  0  0  0  0  0  0  0  0  0  0
  190.9230  176.2350  135.2840 O   0  0  0  0  0  0  0  0  0  0  0  0
  189.9580  177.3670  137.8240 C   0  0  0  0  0  0  0  0  0  0  0  0
  191.1110  176.5460  137.6050 N   0  0  0  0  0  2  0  0  0  0  0  0
  187.6260  177.9020  137.1990 C   0  0  0  0  0  3  0  0  0  0  0  0
  187.3810  178.2940  138.4530 C   0  0  0  0  0  0  0  0  0  0  0  0
  191.5520  176.0050  136.3550 C   0  0  0  0  0  0  0  0  0  0  0  0
  188.5510  178.6350  139.3390 C   0  0  0  0  0  2  0  0  0  0  0  0
  189.6970  177.7730  139.0340 N   0  0  0  0  0  0  0  0  0  0  0  0
  189.0370  177.7650  136.6980 C   0  0  0  0  0  2  0  0  0  0  0  0
  193.9800  175.8980  135.9400 C   0  0  0  0  0  2  0  0  0  0  0  0
  194.4360  174.5810  137.8770 C   0  0  0  0  0  2  0  0  0  0  0  0
  192.9920  174.5420  137.6580 N   0  0  0  0  0  2  0  0  0  0  0  0
  192.7530  175.1190  136.3380 C   0  0  1  0  0  3  0  0  0  0  0  0
  195.0950  175.1980  136.6610 C   0  0  0  0  0  2  0  0  0  0  0  0
  184.1020  178.8550  140.2670 C   0  0  0  0  0  2  0  0  0  0  0  0
  183.4520  177.6210  140.2350 O   0  0  0  0  0  0  0  0  0  0  0  0
  182.1730  177.8930  139.7310 C   0  0  2  0  0  3  0  0  0  0  0  0
  180.9320  178.0990  137.6630 O   0  0  0  0  0  1  0  0  0  0  0  0
  182.2190  178.0890  138.2090 C   0  0  2  0  0  3  0  0  0  0  0  0
  183.0780  177.0260  137.5380 C   0  0  0  0  0  2  0  0  0  0  0  0
  182.2810  176.2320  136.6170 N   0  0  0  0  0  2  0  0  0  0  0  0
  181.6050  174.1970  135.7340 O   0  0  0  0  0  0  0  0  0  0  0  0
  182.3970  174.8120  136.4950 C   0  0  0  0  0  0  0  0  0  0  0  0
  183.4280  174.0500  137.2620 C   0  0  0  0  0  2  0  0  0  0  0  0
  187.0600  174.1540  135.6480 P   0  0  1  0  0  0  0  0  0  0  0  0
  184.7220  173.0530  135.4570 N   0  0  0  0  0  0  0  0  0  0  0  0
  188.4110  173.4620  136.3970 O   0  0  0  0  0  1  0  0  0  0  0  0
  184.6760  173.8740  136.4640 C   0  0  0  0  0  0  0  0  0  0  0  0
  186.0080  172.9780  134.7640 C   0  0  2  0  0  3  0  0  0  0  0  0
  185.8470  174.5590  136.7650 O   0  0  0  0  0  0  0  0  0  0  0  0
  187.4350  175.3420  134.7860 O   0  0  0  0  0  0  0  0  0  0  0  0
  187.9160  171.3560  134.6430 O   0  0  0  0  0  0  0  0  0  0  0  0
  185.7940  170.6290  135.1070 O   0  0  0  0  0  1  0  0  0  0  0  0
  186.5630  171.5920  134.8510 C   0  0  0  0  0  0  0  0  0  0  0  0
  181.1070  180.0370  139.5790 O   0  0  0  0  0  1  0  0  0  0  0  0
  181.5110  179.0520  140.4850 C   0  0  1  0  0  3  0  0  0  0  0  0
  180.3200  178.5990  141.3200 C   0  0  0  0  0  2  0  0  0  0  0  0
  180.1380  179.4750  142.3920 O   0  0  0  0  0  0  0  0  0  0  0  0
  181.5720  178.4650  144.0180 C   0  0  0  0  0  1  0  0  0  0  0  0
  181.3960  179.5740  142.9910 C   0  0  0  0  0  2  0  0  0  0  0  0
  186.4470  178.5570  141.2860 C   0  0  0  0  0  2  0  0  0  0  0  0
  185.6740  178.8880  142.5480 C   0  0  0  0  0  2  0  0  0  0  0  0
  186.0320  177.8930  143.6370 C   0  0  0  0  0  2  0  0  0  0  0  0
  185.5030  178.3640  144.9790 C   0  0  0  0  0  2  0  0  0  0  0  0
  186.1360  177.5470  146.0950 C   0  0  0  0  0  2  0  0  0  0  0  0
  187.4620  178.1620  146.5110 C   0  0  1  0  0  3  0  0  0  0  0  0
  189.6520  177.8880  145.9810 C   0  0  2  0  0  3  0  0  0  0  0  0
  188.0350  177.3930  147.6420 C   0  0  0  0  0  0  0  0  0  0  0  0
  189.5680  176.6140  147.2830 S   0  0  0  0  0  0  0  0  0  0  0  0
  188.3690  178.1050  145.4350 O   0  0  0  0  0  0  0  0  0  0  0  0
  187.5670  177.4290  148.7670 O   0  0  0  0  0  0  0  0  0  0  0  0
  191.1980  177.9060  142.5500 C   0  0  0  0  0  2  0  0  0  0  0  0
  190.3670  176.7360  142.0130 C   0  0  0  0  0  2  0  0  0  0  0  0
  189.6910  175.9480  143.1450 C   0  0  0  0  0  2  0  0  0  0  0  0
  190.4720  176.0600  144.4510 C   0  0  0  0  0  2  0  0  0  0  0  0
  190.5750  178.4870  143.7390 N   0  0  0  0  0  0  0  0  0  0  0  0
  190.6500  177.5350  144.8700 C   0  0  1  0  0  3  0  0  0  0  0  0
  192.7030  179.2380  144.3190 O   0  0  0  0  0  1  0  0  0  0  0  0
  191.3880  179.6430  144.0870 C   0  0  0  0  0  2  0  0  0  0  0  0
  1  2  2  0  0  0  0
  2 17  1  0  0  0  0
  2 43  1  0  0  0  0
  3  8  2  0  0  0  0
  4 10  2  0  0  0  0
  5  4  1  0  0  0  0
  6  7  2  0  0  0  0
  7  1  1  0  0  0  0
  7  9  1  0  0  0  0
  8  5  1  0  0  0  0
 10  9  1  0  0  0  0
 11  6  1  0  0  0  0
 11  4  1  0  0  0  0
 12 15  1  0  0  0  0
 12 16  1  0  0  0  0
 14 13  1  0  0  0  0
 15  8  1  1  0  0  0
 15 14  1  0  0  0  0
 16 13  1  0  0  0  0
 18 17  1  0  0  0  0
 19 18  1  1  0  0  0
 19 38  1  0  0  0  0
 21 20  1  6  0  0  0
 21 19  1  0  0  0  0
 22 21  1  0  0  0  0
 23 22  1  0  0  0  0
 24 25  2  0  0  0  0
 25 23  1  0  0  0  0
 25 26  1  0  0  0  0
 27 33  2  6  0  0  0
 27 29  1  0  0  0  0
 27 32  1  0  0  0  0
 28 30  2  0  0  0  0
 30 32  1  0  0  0  0
 30 26  1  0  0  0  0
 31 36  1  1  0  0  0
 31 28  1  0  0  0  0
 31 27  1  0  0  0  0
 34 36  2  0  0  0  0
 36 35  1  0  0  0  0
 38 37  1  6  0  0  0
 38 39  1  0  0  0  0
 39 40  1  0  0  0  0
 40 42  1  0  0  0  0
 42 41  1  0  0  0  0
 43 44  1  0  0  0  0
 44 45  1  0  0  0  0
 45 46  1  0  0  0  0
 46 47  1  0  0  0  0
 48 47  1  6  0  0  0
 48 50  1  0  0  0  0
 49 52  1  6  0  0  0
 49 51  1  0  0  0  0
 50 53  2  0  0  0  0
 51 50  1  0  0  0  0
 52 48  1  0  0  0  0
 54 58  1  0  0  0  0
 55 54  1  0  0  0  0
 55 56  1  0  0  0  0
 56 57  1  0  0  0  0
 58 61  1  0  0  0  0
 58 59  1  0  0  0  0
 59 57  1  6  0  0  0
 59 49  1  0  0  0  0
 61 60  1  0  0  0  0
M  END
>  <MODEL>
1

>  <REMARK>
 VINA RESULT:      -6.5      0.000      0.000
  Name = 
  23 active torsions:
  status: ('A' for Active; 'I' for Inactive)
    1  A    between atoms: N_3  and  C_24
    2  A    between atoms: C_4  and  C_54
    3  A    between atoms: N_6  and  C_28
    4  A    between atoms: C_9  and  C_46
    5  A    between atoms: C_11  and  C_47
    6  A    between atoms: C_11  and  C_60
    7  A    between atoms: C_12  and  O_32
    8  A    between atoms: C_12  and  C_39
    9  A    between atoms: C_19  and  C_45
   10  A    between atoms: C_19  and  C_47
   11  A    between atoms: C_20  and  C_38
   12  A    between atoms: C_20  and  C_55
   13  A    between atoms: C_21  and  N_40
   14  A    between atoms: C_23  and  O_32
   15  A    between atoms: C_24  and  C_36
   16  A    between atoms: O_25  and  C_31
   17  A    between atoms: O_25  and  C_42
   18  A    between atoms: C_31  and  C_36
   19  A    between atoms: C_31  and  C_39
   20  A    between atoms: C_34  and  C_58
   21  A    between atoms: C_42  and  C_45
   22  A    between atoms: C_48  and  C_61
   23  A    between atoms: C_54  and  C_60
                            x       y       z     vdW  Elec       q    Type
                         _______ _______ _______ _____ _____    ______ ____

>  <TORSDO>
F 23

$$$$
=
 OpenBabel10222416053D

 61 65  0  0  1  0  0  0  0  0999 V2000
  185.4320  176.0480  136.2280 N   0  0  0  0  0  0  0  0  0  0  0  0
  185.1040  177.0070  137.0410 C   0  0  0  0  0  0  0  0  0  0  0  0
  191.3100  173.5020  137.1930 O   0  0  0  0  0  0  0  0  0  0  0  0
  189.5120  175.1650  135.5620 C   0  0  0  0  0  0  0  0  0  0  0  0
  190.9390  175.2420  135.6600 N   0  0  0  0  0  2  0  0  0  0  0  0
  187.3610  174.7170  136.6980 C   0  0  0  0  0  3  0  0  0  0  0  0
  186.7540  175.5920  135.8900 C   0  0  0  0  0  0  0  0  0  0  0  0
  191.7870  174.4200  136.4700 C   0  0  0  0  0  0  0  0  0  0  0  0
  187.4360  175.9700  134.6010 C   0  0  0  0  0  2  0  0  0  0  0  0
  188.8910  175.9980  134.7760 N   0  0  0  0  0  0  0  0  0  0  0  0
  188.7120  174.1570  136.3470 C   0  0  0  0  0  2  0  0  0  0  0  0
  193.7370  174.9300  137.8890 C   0  0  0  0  0  2  0  0  0  0  0  0
  195.1800  173.3900  136.7740 C   0  0  0  0  0  2  0  0  0  0  0  0
  193.9980  173.5620  135.9330 N   0  0  0  0  0  2  0  0  0  0  0  0
  193.2540  174.6920  136.4810 C   0  0  1  0  0  3  0  0  0  0  0  0
  195.1560  174.4400  137.8660 C   0  0  0  0  0  2  0  0  0  0  0  0
  183.6570  177.3240  137.2180 C   0  0  0  0  0  2  0  0  0  0  0  0
  182.8890  176.2150  136.8620 O   0  0  0  0  0  0  0  0  0  0  0  0
  181.5710  176.5610  137.1870 C   0  0  2  0  0  3  0  0  0  0  0  0
  181.0180  175.1880  139.1030 O   0  0  0  0  0  1  0  0  0  0  0  0
  181.3480  176.4870  138.7050 C   0  0  2  0  0  3  0  0  0  0  0  0
  180.2830  177.4750  139.1580 C   0  0  0  0  0  2  0  0  0  0  0  0
  179.8090  177.1380  140.4910 N   0  0  0  0  0  2  0  0  0  0  0  0
  179.5080  177.6330  142.7370 O   0  0  0  0  0  0  0  0  0  0  0  0
  180.0300  177.9610  141.6400 C   0  0  0  0  0  0  0  0  0  0  0  0
  180.8550  179.2040  141.5540 C   0  0  0  0  0  2  0  0  0  0  0  0
  184.7760  178.7420  142.0190 P   0  0  1  0  0  0  0  0  0  0  0  0
  182.4970  178.5940  143.2450 N   0  0  0  0  0  0  0  0  0  0  0  0
  185.8460  180.0530  142.0960 O   0  0  0  0  0  1  0  0  0  0  0  0
  182.2510  178.9610  142.0220 C   0  0  0  0  0  0  0  0  0  0  0  0
  183.9100  178.3910  143.5680 C   0  0  2  0  0  3  0  0  0  0  0  0
  183.3480  179.1310  141.1870 O   0  0  0  0  0  0  0  0  0  0  0  0
  185.4330  177.5060  141.4420 O   0  0  0  0  0  0  0  0  0  0  0  0
  184.6070  180.6660  144.3550 O   0  0  0  0  0  0  0  0  0  0  0  0
  184.4540  178.9190  145.8280 O   0  0  0  0  0  1  0  0  0  0  0  0
  184.3340  179.3360  144.6460 C   0  0  0  0  0  0  0  0  0  0  0  0
  179.7220  176.6020  135.6590 O   0  0  0  0  0  1  0  0  0  0  0  0
  180.5620  175.7430  136.3730 C   0  0  1  0  0  3  0  0  0  0  0  0
  181.2390  174.7690  135.4170 C   0  0  0  0  0  2  0  0  0  0  0  0
  181.1640  173.4750  135.9360 O   0  0  0  0  0  0  0  0  0  0  0  0
  179.7810  171.5290  135.8110 C   0  0  0  0  0  1  0  0  0  0  0  0
  179.8780  173.0340  135.6160 C   0  0  0  0  0  2  0  0  0  0  0  0
  186.1110  177.7380  137.8770 C   0  0  0  0  0  2  0  0  0  0  0  0
  187.0220  178.5870  137.0120 C   0  0  0  0  0  2  0  0  0  0  0  0
  188.4190  178.5950  137.6060 C   0  0  0  0  0  2  0  0  0  0  0  0
  188.5500  177.5200  138.6680 C   0  0  0  0  0  2  0  0  0  0  0  0
  188.8610  178.1600  140.0110 C   0  0  0  0  0  2  0  0  0  0  0  0
  189.4290  177.1250  140.9690 C   0  0  1  0  0  3  0  0  0  0  0  0
  190.1300  177.0770  143.1280 C   0  0  2  0  0  3  0  0  0  0  0  0
  190.9100  177.1320  140.8900 C   0  0  0  0  0  0  0  0  0  0  0  0
  191.7110  177.5960  142.3830 S   0  0  0  0  0  0  0  0  0  0  0  0
  189.0570  177.4470  142.2890 O   0  0  0  0  0  0  0  0  0  0  0  0
  191.5200  176.7010  139.9270 O   0  0  0  0  0  0  0  0  0  0  0  0
  189.5480  177.0530  146.8460 C   0  0  0  0  0  2  0  0  0  0  0  0
  188.0180  177.0490  146.7510 C   0  0  0  0  0  2  0  0  0  0  0  0
  187.5320  177.4410  145.3480 C   0  0  0  0  0  2  0  0  0  0  0  0
  188.5430  178.3320  144.6320 C   0  0  0  0  0  2  0  0  0  0  0  0
  190.1510  176.6250  145.5840 N   0  0  0  0  0  0  0  0  0  0  0  0
  189.9230  177.6460  144.5380 C   0  0  1  0  0  3  0  0  0  0  0  0
  191.8790  177.2030  147.0370 O   0  0  0  0  0  1  0  0  0  0  0  0
  191.5840  176.5650  145.8300 C   0  0  0  0  0  2  0  0  0  0  0  0
  1  2  2  0  0  0  0
  2 17  1  0  0  0  0
  2 43  1  0  0  0  0
  4  5  1  0  0  0  0
  4 11  1  0  0  0  0
  5  8  1  0  0  0  0
  7  1  1  0  0  0  0
  7  6  2  0  0  0  0
  8  3  2  0  0  0  0
  9 10  1  0  0  0  0
  9  7  1  0  0  0  0
 10  4  2  0  0  0  0
 11  6  1  0  0  0  0
 13 16  1  0  0  0  0
 14 15  1  0  0  0  0
 14 13  1  0  0  0  0
 15  8  1  1  0  0  0
 15 12  1  0  0  0  0
 16 12  1  0  0  0  0
 18 17  1  0  0  0  0
 19 18  1  1  0  0  0
 19 21  1  0  0  0  0
 21 20  1  6  0  0  0
 21 22  1  0  0  0  0
 22 23  1  0  0  0  0
 23 25  1  0  0  0  0
 25 24  2  0  0  0  0
 26 25  1  0  0  0  0
 26 30  1  0  0  0  0
 27 33  2  6  0  0  0
 27 29  1  0  0  0  0
 27 31  1  0  0  0  0
 28 31  1  0  0  0  0
 30 28  2  0  0  0  0
 31 36  1  1  0  0  0
 32 27  1  0  0  0  0
 32 30  1  0  0  0  0
 34 36  2  0  0  0  0
 36 35  1  0  0  0  0
 38 37  1  6  0  0  0
 38 19  1  0  0  0  0
 39 40  1  0  0  0  0
 39 38  1  0  0  0  0
 42 41  1  0  0  0  0
 42 40  1  0  0  0  0
 44 45  1  0  0  0  0
 44 43  1  0  0  0  0
 45 46  1  0  0  0  0
 46 47  1  0  0  0  0
 48 47  1  6  0  0  0
 48 52  1  0  0  0  0
 49 52  1  6  0  0  0
 49 59  1  0  0  0  0
 50 48  1  0  0  0  0
 50 51  1  0  0  0  0
 51 49  1  0  0  0  0
 53 50  2  0  0  0  0
 55 54  1  0  0  0  0
 56 55  1  0  0  0  0
 57 56  1  0  0  0  0
 58 61  1  0  0  0  0
 58 54  1  0  0  0  0
 59 57  1  6  0  0  0
 59 58  1  0  0  0  0
 61 60  1  0  0  0  0
M  END
>  <MODEL>
2

>  <REMARK>
 VINA RESULT:      -6.4      2.775      6.249
  Name = 
  23 active torsions:
  status: ('A' for Active; 'I' for Inactive)
    1  A    between atoms: N_3  and  C_24
    2  A    between atoms: C_4  and  C_54
    3  A    between atoms: N_6  and  C_28
    4  A    between atoms: C_9  and  C_46
    5  A    between atoms: C_11  and  C_47
    6  A    between atoms: C_11  and  C_60
    7  A    between atoms: C_12  and  O_32
    8  A    between atoms: C_12  and  C_39
    9  A    between atoms: C_19  and  C_45
   10  A    between atoms: C_19  and  C_47
   11  A    between atoms: C_20  and  C_38
   12  A    between atoms: C_20  and  C_55
   13  A    between atoms: C_21  and  N_40
   14  A    between atoms: C_23  and  O_32
   15  A    between atoms: C_24  and  C_36
   16  A    between atoms: O_25  and  C_31
   17  A    between atoms: O_25  and  C_42
   18  A    between atoms: C_31  and  C_36
   19  A    between atoms: C_31  and  C_39
   20  A    between atoms: C_34  and  C_58
   21  A    between atoms: C_42  and  C_45
   22  A    between atoms: C_48  and  C_61
   23  A    between atoms: C_54  and  C_60
                            x       y       z     vdW  Elec       q    Type
                         _______ _______ _______ _____ _____    ______ ____

>  <TORSDO>
F 23

$$$$
=
 OpenBabel10222416053D

 61 65  0  0  1  0  0  0  0  0999 V2000
  188.5610  176.0980  136.2160 N   0  0  0  0  0  0  0  0  0  0  0  0
  189.0750  176.4910  137.3430 C   0  0  0  0  0  0  0  0  0  0  0  0
  182.3330  177.8610  135.9630 O   0  0  0  0  0  0  0  0  0  0  0  0
  184.3730  175.7490  135.7640 C   0  0  0  0  0  0  0  0  0  0  0  0
  182.9890  175.6100  136.1080 N   0  0  0  0  0  2  0  0  0  0  0  0
  186.4270  177.1210  135.8830 C   0  0  0  0  0  3  0  0  0  0  0  0
  187.1690  176.0090  135.8650 C   0  0  0  0  0  0  0  0  0  0  0  0
  182.0210  176.6610  136.2020 C   0  0  0  0  0  0  0  0  0  0  0  0
  186.5390  174.7360  135.3640 C   0  0  0  0  0  2  0  0  0  0  0  0
  185.1210  174.6830  135.7300 N   0  0  0  0  0  0  0  0  0  0  0  0
  184.9860  177.0910  135.4530 C   0  0  0  0  0  2  0  0  0  0  0  0
  180.3580  174.8550  136.4290 C   0  0  0  0  0  2  0  0  0  0  0  0
  179.6590  175.5260  138.6100 C   0  0  0  0  0  2  0  0  0  0  0  0
  180.4390  176.6270  138.0470 N   0  0  0  0  0  2  0  0  0  0  0  0
  180.6330  176.3230  136.6330 C   0  0  1  0  0  3  0  0  0  0  0  0
  179.3720  174.5240  137.5110 C   0  0  0  0  0  2  0  0  0  0  0  0
  190.5600  176.4740  137.4900 C   0  0  0  0  0  2  0  0  0  0  0  0
  190.9130  175.6510  138.5600 O   0  0  0  0  0  0  0  0  0  0  0  0
  192.3040  175.7790  138.6780 C   0  0  2  0  0  3  0  0  0  0  0  0
  193.9640  177.0590  139.8880 O   0  0  0  0  0  1  0  0  0  0  0  0
  192.6720  177.1060  139.3570 C   0  0  2  0  0  3  0  0  0  0  0  0
  191.6610  177.4770  140.4340 C   0  0  0  0  0  2  0  0  0  0  0  0
  191.2680  176.2990  141.1910 N   0  0  0  0  0  2  0  0  0  0  0  0
  190.2570  175.2910  143.0190 O   0  0  0  0  0  0  0  0  0  0  0  0
  190.6420  176.3590  142.4750 C   0  0  0  0  0  0  0  0  0  0  0  0
  190.4280  177.6630  143.1730 C   0  0  0  0  0  2  0  0  0  0  0  0
  189.6230  177.1710  147.0350 P   0  0  1  0  0  0  0  0  0  0  0  0
  191.5460  177.5040  145.3290 N   0  0  0  0  0  0  0  0  0  0  0  0
  189.1330  175.6850  147.6820 O   0  0  0  0  0  0  0  0  0  0  0  0
  190.4340  177.4920  144.6550 C   0  0  0  0  0  0  0  0  0  0  0  0
  191.4060  177.3240  146.7750 C   0  0  2  0  0  3  0  0  0  0  0  0
  189.2660  177.2960  145.3800 O   0  0  0  0  0  0  0  0  0  0  0  0
  189.0580  178.3420  147.8110 O   0  0  0  0  0  1  0  0  0  0  0  0
  192.0090  174.9080  146.4870 O   0  0  0  0  0  0  0  0  0  0  0  0
  192.8220  176.1100  148.2590 O   0  0  0  0  0  1  0  0  0  0  0  0
  192.1200  176.0860  147.2140 C   0  0  0  0  0  0  0  0  0  0  0  0
  193.7530  176.6890  136.9960 O   0  0  0  0  0  1  0  0  0  0  0  0
  193.0010  175.5600  137.3300 C   0  0  1  0  0  3  0  0  0  0  0  0
  193.8940  174.3250  137.3310 C   0  0  0  0  0  2  0  0  0  0  0  0
  195.0540  174.5860  136.6000 O   0  0  0  0  0  0  0  0  0  0  0  0
  195.7180  173.9210  138.7990 C   0  0  0  0  0  1  0  0  0  0  0  0
  196.0790  173.9690  137.3220 C   0  0  0  0  0  2  0  0  0  0  0  0
  188.2450  177.0500  138.4580 C   0  0  0  0  0  2  0  0  0  0  0  0
  188.8080  178.3700  138.9470 C   0  0  0  0  0  2  0  0  0  0  0  0
  188.4220  178.5780  140.4000 C   0  0  0  0  0  2  0  0  0  0  0  0
  186.9230  178.4230  140.5780 C   0  0  0  0  0  2  0  0  0  0  0  0
  186.5410  178.7440  142.0150 C   0  0  0  0  0  2  0  0  0  0  0  0
  185.2840  177.9840  142.4070 C   0  0  1  0  0  3  0  0  0  0  0  0
  183.0790  178.0440  141.8710 C   0  0  2  0  0  3  0  0  0  0  0  0
  184.6310  178.6600  143.5550 C   0  0  0  0  0  0  0  0  0  0  0  0
  183.0260  179.2850  143.2060 S   0  0  0  0  0  0  0  0  0  0  0  0
  184.3790  177.9760  141.3280 O   0  0  0  0  0  0  0  0  0  0  0  0
  185.0960  178.6430  144.6810 O   0  0  0  0  0  0  0  0  0  0  0  0
  181.1110  180.0450  139.3630 C   0  0  0  0  0  2  0  0  0  0  0  0
  179.9890  180.4260  140.3360 C   0  0  0  0  0  2  0  0  0  0  0  0
  180.0030  179.5520  141.5980 C   0  0  0  0  0  2  0  0  0  0  0  0
  180.6230  178.1840  141.3250 C   0  0  0  0  0  2  0  0  0  0  0  0
  182.3060  179.6140  140.0890 N   0  0  0  0  0  0  0  0  0  0  0  0
  182.0540  178.3210  140.7630 C   0  0  1  0  0  3  0  0  0  0  0  0
  184.3080  180.3710  139.1670 O   0  0  0  0  0  1  0  0  0  0  0  0
  183.3230  179.3860  139.0750 C   0  0  0  0  0  2  0  0  0  0  0  0
  1  2  2  0  0  0  0
  2 17  1  0  0  0  0
  2 43  1  0  0  0  0
  3  8  2  0  0  0  0
  4  5  1  0  0  0  0
  5  8  1  0  0  0  0
  7  6  2  0  0  0  0
  7  1  1  0  0  0  0
  9 10  1  0  0  0  0
  9  7  1  0  0  0  0
 10  4  2  0  0  0  0
 11  4  1  0  0  0  0
 11  6  1  0  0  0  0
 12 15  1  0  0  0  0
 12 16  1  0  0  0  0
 14 13  1  0  0  0  0
 15  8  1  1  0  0  0
 15 14  1  0  0  0  0
 16 13  1  0  0  0  0
 17 18  1  0  0  0  0
 19 18  1  6  0  0  0
 19 21  1  0  0  0  0
 21 20  1  1  0  0  0
 21 22  1  0  0  0  0
 22 23  1  0  0  0  0
 23 25  1  0  0  0  0
 25 24  2  0  0  0  0
 25 26  1  0  0  0  0
 26 30  1  0  0  0  0
 27 29  2  1  0  0  0
 27 33  1  0  0  0  0
 28 31  1  0  0  0  0
 30 28  2  0  0  0  0
 30 32  1  0  0  0  0
 31 27  1  0  0  0  0
 31 36  1  6  0  0  0
 32 27  1  0  0  0  0
 34 36  2  0  0  0  0
 36 35  1  0  0  0  0
 38 37  1  1  0  0  0
 38 39  1  0  0  0  0
 38 19  1  0  0  0  0
 40 42  1  0  0  0  0
 40 39  1  0  0  0  0
 42 41  1  0  0  0  0
 43 44  1  0  0  0  0
 44 45  1  0  0  0  0
 45 46  1  0  0  0  0
 46 47  1  0  0  0  0
 48 47  1  6  0  0  0
 48 50  1  0  0  0  0
 49 52  1  6  0  0  0
 49 51  1  0  0  0  0
 50 53  2  0  0  0  0
 51 50  1  0  0  0  0
 52 48  1  0  0  0  0
 54 58  1  0  0  0  0
 54 55  1  0  0  0  0
 55 56  1  0  0  0  0
 57 56  1  0  0  0  0
 58 59  1  0  0  0  0
 59 57  1  1  0  0  0
 59 49  1  0  0  0  0
 61 60  1  0  0  0  0
 61 58  1  0  0  0  0
M  END
>  <MODEL>
3

>  <REMARK>
 VINA RESULT:      -6.4      3.283     10.388
  Name = 
  23 active torsions:
  status: ('A' for Active; 'I' for Inactive)
    1  A    between atoms: N_3  and  C_24
    2  A    between atoms: C_4  and  C_54
    3  A    between atoms: N_6  and  C_28
    4  A    between atoms: C_9  and  C_46
    5  A    between atoms: C_11  and  C_47
    6  A    between atoms: C_11  and  C_60
    7  A    between atoms: C_12  and  O_32
    8  A    between atoms: C_12  and  C_39
    9  A    between atoms: C_19  and  C_45
   10  A    between atoms: C_19  and  C_47
   11  A    between atoms: C_20  and  C_38
   12  A    between atoms: C_20  and  C_55
   13  A    between atoms: C_21  and  N_40
   14  A    between atoms: C_23  and  O_32
   15  A    between atoms: C_24  and  C_36
   16  A    between atoms: O_25  and  C_31
   17  A    between atoms: O_25  and  C_42
   18  A    between atoms: C_31  and  C_36
   19  A    between atoms: C_31  and  C_39
   20  A    between atoms: C_34  and  C_58
   21  A    between atoms: C_42  and  C_45
   22  A    between atoms: C_48  and  C_61
   23  A    between atoms: C_54  and  C_60
                            x       y       z     vdW  Elec       q    Type
                         _______ _______ _______ _____ _____    ______ ____

>  <TORSDO>
F 23

$$$$
=
 OpenBabel10222416053D

 61 65  0  0  1  0  0  0  0  0999 V2000
  188.8910  174.8600  136.1110 N   0  0  0  0  0  0  0  0  0  0  0  0
  189.2000  175.6180  137.1200 C   0  0  0  0  0  0  0  0  0  0  0  0
  182.5760  174.9890  134.6720 O   0  0  0  0  0  0  0  0  0  0  0  0
  184.9190  173.4930  135.6380 C   0  0  0  0  0  0  0  0  0  0  0  0
  183.5370  173.2490  135.9230 N   0  0  0  0  0  2  0  0  0  0  0  0
  186.7000  175.1520  135.2000 C   0  0  0  0  0  3  0  0  0  0  0  0
  187.5970  174.3360  135.7650 C   0  0  0  0  0  0  0  0  0  0  0  0
  182.4170  174.0010  135.4410 C   0  0  0  0  0  0  0  0  0  0  0  0
  187.2490  172.8770  135.9050 C   0  0  0  0  0  2  0  0  0  0  0  0
  185.8160  172.7110  136.1660 N   0  0  0  0  0  0  0  0  0  0  0  0
  185.3620  174.6320  134.7540 C   0  0  0  0  0  2  0  0  0  0  0  0
  181.1210  172.7430  137.1200 C   0  0  0  0  0  2  0  0  0  0  0  0
  179.5270  174.4860  137.4600 C   0  0  0  0  0  2  0  0  0  0  0  0
  180.2710  174.8110  136.2440 N   0  0  0  0  0  2  0  0  0  0  0  0
  181.0480  173.6240  135.8990 C   0  0  1  0  0  3  0  0  0  0  0  0
  179.8610  173.0670  137.8680 C   0  0  0  0  0  2  0  0  0  0  0  0
  190.6250  176.0210  137.2960 C   0  0  0  0  0  2  0  0  0  0  0  0
  191.1470  175.4040  138.4330 O   0  0  0  0  0  0  0  0  0  0  0  0
  192.4730  175.8510  138.5170 C   0  0  2  0  0  3  0  0  0  0  0  0
  193.7810  177.1920  140.0500 O   0  0  0  0  0  1  0  0  0  0  0  0
  192.5640  177.1270  139.3660 C   0  0  2  0  0  3  0  0  0  0  0  0
  191.3970  177.2310  140.3380 C   0  0  0  0  0  2  0  0  0  0  0  0
  191.8300  176.9180  141.6910 N   0  0  0  0  0  2  0  0  0  0  0  0
  191.6880  177.1770  143.9910 O   0  0  0  0  0  0  0  0  0  0  0  0
  191.3190  177.5730  142.8550 C   0  0  0  0  0  0  0  0  0  0  0  0
  190.3500  178.7050  142.7440 C   0  0  0  0  0  2  0  0  0  0  0  0
  187.0100  177.7700  144.6880 P   0  0  1  0  0  0  0  0  0  0  0  0
  188.0860  177.9070  142.3350 N   0  0  0  0  0  0  0  0  0  0  0  0
  185.9940  178.9400  145.3710 O   0  0  0  0  0  0  0  0  0  0  0  0
  188.9860  178.2950  143.1890 C   0  0  0  0  0  0  0  0  0  0  0  0
  186.7930  177.5350  142.9090 C   0  0  2  0  0  3  0  0  0  0  0  0
  188.6060  178.3260  144.5250 O   0  0  0  0  0  0  0  0  0  0  0  0
  186.9570  176.4600  145.4460 O   0  0  0  0  0  1  0  0  0  0  0  0
  184.3940  178.0020  142.3500 O   0  0  0  0  0  1  0  0  0  0  0  0
  186.0120  179.5700  141.9430 O   0  0  0  0  0  0  0  0  0  0  0  0
  185.7160  178.4260  142.3780 C   0  0  0  0  0  0  0  0  0  0  0  0
  194.0010  177.0580  137.1170 O   0  0  0  0  0  1  0  0  0  0  0  0
  193.1060  175.9860  137.1270 C   0  0  1  0  0  3  0  0  0  0  0  0
  193.8170  174.7130  136.6860 C   0  0  0  0  0  2  0  0  0  0  0  0
  195.1500  174.7530  137.1010 O   0  0  0  0  0  0  0  0  0  0  0  0
  196.0220  174.3590  139.2920 C   0  0  0  0  0  1  0  0  0  0  0  0
  195.2390  173.7970  138.1150 C   0  0  0  0  0  2  0  0  0  0  0  0
  188.1700  176.1800  138.0530 C   0  0  0  0  0  2  0  0  0  0  0  0
  187.8340  177.6140  137.6930 C   0  0  0  0  0  2  0  0  0  0  0  0
  186.7910  178.1480  138.6570 C   0  0  0  0  0  2  0  0  0  0  0  0
  185.5040  178.4710  137.9200 C   0  0  0  0  0  2  0  0  0  0  0  0
  184.4170  178.8340  138.9200 C   0  0  0  0  0  2  0  0  0  0  0  0
  183.0580  178.3890  138.4040 C   0  0  1  0  0  3  0  0  0  0  0  0
  180.9630  178.1580  139.2470 C   0  0  2  0  0  3  0  0  0  0  0  0
  182.8940  176.9310  138.6250 C   0  0  0  0  0  0  0  0  0  0  0  0
  181.5840  176.5090  139.7170 S   0  0  0  0  0  0  0  0  0  0  0  0
  182.0410  179.0590  139.1110 O   0  0  0  0  0  0  0  0  0  0  0  0
  183.5070  176.0950  137.9850 O   0  0  0  0  0  0  0  0  0  0  0  0
  179.3690  180.6110  141.6150 C   0  0  0  0  0  2  0  0  0  0  0  0
  180.1300  180.1270  142.8540 C   0  0  0  0  0  2  0  0  0  0  0  0
  180.7820  178.7550  142.6260 C   0  0  0  0  0  2  0  0  0  0  0  0
  180.0270  177.9430  141.5770 C   0  0  0  0  0  2  0  0  0  0  0  0
  180.0390  180.1780  140.3890 N   0  0  0  0  0  0  0  0  0  0  0  0
  179.9320  178.7090  140.2410 C   0  0  1  0  0  3  0  0  0  0  0  0
  179.2880  182.1700  139.4420 O   0  0  0  0  0  1  0  0  0  0  0  0
  179.2920  180.7820  139.2960 C   0  0  0  0  0  2  0  0  0  0  0  0
  1  2  2  0  0  0  0
  2 17  1  0  0  0  0
  2 43  1  0  0  0  0
  3  8  2  0  0  0  0
  4  5  1  0  0  0  0
  4 10  2  0  0  0  0
  6  7  2  0  0  0  0
  7  9  1  0  0  0  0
  7  1  1  0  0  0  0
  8  5  1  0  0  0  0
  9 10  1  0  0  0  0
 11  6  1  0  0  0  0
 11  4  1  0  0  0  0
 12 16  1  0  0  0  0
 13 16  1  0  0  0  0
 14 13  1  0  0  0  0
 15  8  1  1  0  0  0
 15 14  1  0  0  0  0
 15 12  1  0  0  0  0
 17 18  1  0  0  0  0
 19 18  1  6  0  0  0
 19 21  1  0  0  0  0
 21 20  1  1  0  0  0
 21 22  1  0  0  0  0
 22 23  1  0  0  0  0
 23 25  1  0  0  0  0
 25 24  2  0  0  0  0
 26 25  1  0  0  0  0
 26 30  1  0  0  0  0
 27 29  2  1  0  0  0
 27 33  1  0  0  0  0
 28 31  1  0  0  0  0
 28 30  2  0  0  0  0
 30 32  1  0  0  0  0
 31 36  1  6  0  0  0
 31 27  1  0  0  0  0
 32 27  1  0  0  0  0
 34 36  1  0  0  0  0
 35 36  2  0  0  0  0
 38 37  1  1  0  0  0
 38 19  1  0  0  0  0
 39 40  1  0  0  0  0
 39 38  1  0  0  0  0
 40 42  1  0  0  0  0
 42 41  1  0  0  0  0
 44 43  1  0  0  0  0
 44 45  1  0  0  0  0
 46 45  1  0  0  0  0
 46 47  1  0  0  0  0
 48 50  1  0  0  0  0
 48 47  1  1  0  0  0
 48 52  1  0  0  0  0
 49 52  1  1  0  0  0
 49 51  1  0  0  0  0
 49 59  1  0  0  0  0
 50 51  1  0  0  0  0
 53 50  2  0  0  0  0
 54 55  1  0  0  0  0
 56 55  1  0  0  0  0
 57 56  1  0  0  0  0
 58 54  1  0  0  0  0
 59 58  1  0  0  0  0
 59 57  1  1  0  0  0
 61 60  1  0  0  0  0
 61 58  1  0  0  0  0
M  END
>  <MODEL>
4

>  <REMARK>
 VINA RESULT:      -6.2      3.133     10.590
  Name = 
  23 active torsions:
  status: ('A' for Active; 'I' for Inactive)
    1  A    between atoms: N_3  and  C_24
    2  A    between atoms: C_4  and  C_54
    3  A    between atoms: N_6  and  C_28
    4  A    between atoms: C_9  and  C_46
    5  A    between atoms: C_11  and  C_47
    6  A    between atoms: C_11  and  C_60
    7  A    between atoms: C_12  and  O_32
    8  A    between atoms: C_12  and  C_39
    9  A    between atoms: C_19  and  C_45
   10  A    between atoms: C_19  and  C_47
   11  A    between atoms: C_20  and  C_38
   12  A    between atoms: C_20  and  C_55
   13  A    between atoms: C_21  and  N_40
   14  A    between atoms: C_23  and  O_32
   15  A    between atoms: C_24  and  C_36
   16  A    between atoms: O_25  and  C_31
   17  A    between atoms: O_25  and  C_42
   18  A    between atoms: C_31  and  C_36
   19  A    between atoms: C_31  and  C_39
   20  A    between atoms: C_34  and  C_58
   21  A    between atoms: C_42  and  C_45
   22  A    between atoms: C_48  and  C_61
   23  A    between atoms: C_54  and  C_60
                            x       y       z     vdW  Elec       q    Type
                         _______ _______ _______ _____ _____    ______ ____

>  <TORSDO>
F 23

$$$$
=
 OpenBabel10222416053D

 61 65  0  0  1  0  0  0  0  0999 V2000
  190.4770  176.3550  138.8540 N   0  0  0  0  0  0  0  0  0  0  0  0
  189.4460  176.9030  138.2860 C   0  0  0  0  0  0  0  0  0  0  0  0
  194.6740  172.0590  136.4250 O   0  0  0  0  0  0  0  0  0  0  0  0
  194.1530  174.7330  137.5390 C   0  0  0  0  0  0  0  0  0  0  0  0
  195.3800  173.9940  137.5540 N   0  0  0  0  0  2  0  0  0  0  0  0
  191.6820  174.6810  137.6450 C   0  0  0  0  0  3  0  0  0  0  0  0
  191.6840  175.8850  138.2270 C   0  0  0  0  0  0  0  0  0  0  0  0
  195.6010  172.6890  137.0070 C   0  0  0  0  0  0  0  0  0  0  0  0
  192.9150  176.7420  138.0960 C   0  0  0  0  0  2  0  0  0  0  0  0
  194.1230  175.9120  138.0910 N   0  0  0  0  0  0  0  0  0  0  0  0
  192.8970  174.1800  136.9140 C   0  0  0  0  0  2  0  0  0  0  0  0
  197.3770  171.3930  135.8920 C   0  0  0  0  0  2  0  0  0  0  0  0
  199.1510  172.7280  136.7700 C   0  0  0  0  0  2  0  0  0  0  0  0
  197.9460  173.0550  137.5300 N   0  0  0  0  0  2  0  0  0  0  0  0
  196.9420  172.0580  137.1740 C   0  0  1  0  0  3  0  0  0  0  0  0
  198.8740  171.5000  135.9280 C   0  0  0  0  0  2  0  0  0  0  0  0
  188.2860  177.2910  139.1410 C   0  0  0  0  0  2  0  0  0  0  0  0
  188.5660  178.4930  139.7900 O   0  0  0  0  0  0  0  0  0  0  0  0
  187.9460  178.3870  141.0420 C   0  0  2  0  0  3  0  0  0  0  0  0
  187.5010  176.8110  142.8250 O   0  0  0  0  0  1  0  0  0  0  0  0
  188.3290  177.0680  141.7290 C   0  0  2  0  0  3  0  0  0  0  0  0
  189.7920  177.0660  142.1490 C   0  0  0  0  0  2  0  0  0  0  0  0
  190.1590  178.3510  142.7240 N   0  0  0  0  0  2  0  0  0  0  0  0
  190.8710  179.6660  144.4970 O   0  0  0  0  0  0  0  0  0  0  0  0
  190.4800  178.5360  144.1050 C   0  0  0  0  0  0  0  0  0  0  0  0
  190.3710  177.4100  145.0820 C   0  0  0  0  0  2  0  0  0  0  0  0
  187.7360  178.1930  147.9550 P   0  0  1  0  0  0  0  0  0  0  0  0
  188.0080  177.1390  145.6020 N   0  0  0  0  0  0  0  0  0  0  0  0
  187.1660  179.7560  148.2680 O   0  0  0  0  0  0  0  0  0  0  0  0
  189.1790  177.5730  145.9650 C   0  0  0  0  0  0  0  0  0  0  0  0
  186.9280  177.3660  146.5640 C   0  0  2  0  0  3  0  0  0  0  0  0
  189.2560  178.2070  147.1990 O   0  0  0  0  0  0  0  0  0  0  0  0
  187.7460  177.3320  149.2010 O   0  0  0  0  0  1  0  0  0  0  0  0
  184.6300  178.3660  146.5660 O   0  0  0  0  0  1  0  0  0  0  0  0
  186.1120  178.8530  144.8890 O   0  0  0  0  0  0  0  0  0  0  0  0
  185.8730  178.2370  145.9610 C   0  0  0  0  0  0  0  0  0  0  0  0
  186.0810  179.7890  141.6020 O   0  0  0  0  0  1  0  0  0  0  0  0
  186.4330  178.6120  140.9360 C   0  0  1  0  0  3  0  0  0  0  0  0
  185.9540  178.6730  139.4910 C   0  0  0  0  0  2  0  0  0  0  0  0
  184.7020  178.0630  139.3860 O   0  0  0  0  0  0  0  0  0  0  0  0
  182.7640  179.4490  139.5850 C   0  0  0  0  0  1  0  0  0  0  0  0
  183.9100  178.9860  138.6980 C   0  0  0  0  0  2  0  0  0  0  0  0
  189.4150  177.2490  136.8270 C   0  0  0  0  0  2  0  0  0  0  0  0
  188.9880  178.6880  136.6180 C   0  0  0  0  0  2  0  0  0  0  0  0
  187.5310  178.7270  136.1920 C   0  0  0  0  0  2  0  0  0  0  0  0
  187.1330  177.4120  135.5480 C   0  0  0  0  0  2  0  0  0  0  0  0
  185.9190  176.8390  136.2610 C   0  0  0  0  0  2  0  0  0  0  0  0
  185.6840  175.4010  135.8270 C   0  0  1  0  0  3  0  0  0  0  0  0
  184.0020  173.8830  135.9720 C   0  0  2  0  0  3  0  0  0  0  0  0
  186.0940  174.4790  136.9150 C   0  0  0  0  0  0  0  0  0  0  0  0
  184.7830  173.5160  137.5780 S   0  0  0  0  0  0  0  0  0  0  0  0
  184.3130  175.2000  135.5740 O   0  0  0  0  0  0  0  0  0  0  0  0
  187.2600  174.2890  137.2120 O   0  0  0  0  0  0  0  0  0  0  0  0
  180.5680  173.3980  137.4330 C   0  0  0  0  0  2  0  0  0  0  0  0
  180.6570  171.8700  137.5010 C   0  0  0  0  0  2  0  0  0  0  0  0
  181.8080  171.3250  136.6430 C   0  0  0  0  0  2  0  0  0  0  0  0
  182.1350  172.2620  135.4830 C   0  0  0  0  0  2  0  0  0  0  0  0
  181.8990  173.9940  137.3140 N   0  0  0  0  0  0  0  0  0  0  0  0
  182.4810  173.6780  135.9910 C   0  0  1  0  0  3  0  0  0  0  0  0
  180.3420  175.7070  137.5810 O   0  0  0  0  0  1  0  0  0  0  0  0
  181.6940  175.4330  137.3680 C   0  0  0  0  0  2  0  0  0  0  0  0
  2  1  2  0  0  0  0
  2 17  1  0  0  0  0
  3  8  2  0  0  0  0
  4  5  1  0  0  0  0
  4 10  2  0  0  0  0
  6  7  2  0  0  0  0
  7  1  1  0  0  0  0
  8  5  1  0  0  0  0
  9  7  1  0  0  0  0
 10  9  1  0  0  0  0
 11  4  1  0  0  0  0
 11  6  1  0  0  0  0
 12 16  1  0  0  0  0
 12 15  1  0  0  0  0
 13 14  1  0  0  0  0
 15  8  1  6  0  0  0
 15 14  1  0  0  0  0
 16 13  1  0  0  0  0
 17 18  1  0  0  0  0
 19 18  1  6  0  0  0
 19 21  1  0  0  0  0
 21 22  1  0  0  0  0
 21 20  1  1  0  0  0
 22 23  1  0  0  0  0
 23 25  1  0  0  0  0
 25 24  2  0  0  0  0
 25 26  1  0  0  0  0
 26 30  1  0  0  0  0
 27 29  2  1  0  0  0
 27 33  1  0  0  0  0
 28 30  2  0  0  0  0
 28 31  1  0  0  0  0
 30 32  1  0  0  0  0
 31 36  1  6  0  0  0
 31 27  1  0  0  0  0
 32 27  1  0  0  0  0
 35 36  2  0  0  0  0
 36 34  1  0  0  0  0
 38 19  1  0  0  0  0
 38 37  1  6  0  0  0
 39 38  1  0  0  0  0
 40 39  1  0  0  0  0
 42 40  1  0  0  0  0
 42 41  1  0  0  0  0
 43  2  1  0  0  0  0
 44 43  1  0  0  0  0
 45 44  1  0  0  0  0
 46 45  1  0  0  0  0
 46 47  1  0  0  0  0
 48 47  1  1  0  0  0
 48 50  1  0  0  0  0
 49 52  1  1  0  0  0
 49 59  1  0  0  0  0
 49 51  1  0  0  0  0
 50 53  2  0  0  0  0
 50 51  1  0  0  0  0
 52 48  1  0  0  0  0
 54 55  1  0  0  0  0
 56 55  1  0  0  0  0
 57 56  1  0  0  0  0
 58 61  1  0  0  0  0
 58 54  1  0  0  0  0
 59 57  1  1  0  0  0
 59 58  1  0  0  0  0
 61 60  1  0  0  0  0
M  END
>  <MODEL>
5

>  <REMARK>
 VINA RESULT:      -6.2      3.299      9.437
  Name = 
  23 active torsions:
  status: ('A' for Active; 'I' for Inactive)
    1  A    between atoms: N_3  and  C_24
    2  A    between atoms: C_4  and  C_54
    3  A    between atoms: N_6  and  C_28
    4  A    between atoms: C_9  and  C_46
    5  A    between atoms: C_11  and  C_47
    6  A    between atoms: C_11  and  C_60
    7  A    between atoms: C_12  and  O_32
    8  A    between atoms: C_12  and  C_39
    9  A    between atoms: C_19  and  C_45
   10  A    between atoms: C_19  and  C_47
   11  A    between atoms: C_20  and  C_38
   12  A    between atoms: C_20  and  C_55
   13  A    between atoms: C_21  and  N_40
   14  A    between atoms: C_23  and  O_32
   15  A    between atoms: C_24  and  C_36
   16  A    between atoms: O_25  and  C_31
   17  A    between atoms: O_25  and  C_42
   18  A    between atoms: C_31  and  C_36
   19  A    between atoms: C_31  and  C_39
   20  A    between atoms: C_34  and  C_58
   21  A    between atoms: C_42  and  C_45
   22  A    between atoms: C_48  and  C_61
   23  A    between atoms: C_54  and  C_60
                            x       y       z     vdW  Elec       q    Type
                         _______ _______ _______ _____ _____    ______ ____

>  <TORSDO>
F 23

$$$$
=
 OpenBabel10222416053D

 61 65  0  0  1  0  0  0  0  0999 V2000
  185.2500  176.7980  137.0210 N   0  0  0  0  0  0  0  0  0  0  0  0
  185.1890  177.6410  138.0080 C   0  0  0  0  0  0  0  0  0  0  0  0
  190.7480  173.3720  136.9410 O   0  0  0  0  0  0  0  0  0  0  0  0
  189.0040  175.3840  135.6860 C   0  0  0  0  0  0  0  0  0  0  0  0
  190.4240  175.2470  135.5640 N   0  0  0  0  0  2  0  0  0  0  0  0
  187.0020  175.1740  137.1240 C   0  0  0  0  0  3  0  0  0  0  0  0
  186.4220  176.1800  136.4610 C   0  0  0  0  0  0  0  0  0  0  0  0
  191.2470  174.2590  136.1930 C   0  0  0  0  0  0  0  0  0  0  0  0
  186.9560  176.5420  135.0990 C   0  0  0  0  0  2  0  0  0  0  0  0
  188.4080  176.3490  135.0460 N   0  0  0  0  0  0  0  0  0  0  0  0
  188.1840  174.4500  136.5420 C   0  0  0  0  0  2  0  0  0  0  0  0
  193.2510  175.6910  136.3100 C   0  0  0  0  0  2  0  0  0  0  0  0
  194.6010  174.0270  137.3610 C   0  0  0  0  0  2  0  0  0  0  0  0
  193.4060  173.3560  136.8500 N   0  0  0  0  0  2  0  0  0  0  0  0
  192.7240  174.3160  135.9880 C   0  0  1  0  0  3  0  0  0  0  0  0
  194.6470  175.4320  136.7970 C   0  0  0  0  0  2  0  0  0  0  0  0
  183.8530  178.1750  138.4040 C   0  0  0  0  0  2  0  0  0  0  0  0
  182.9070  177.1510  138.3530 O   0  0  0  0  0  0  0  0  0  0  0  0
  181.6870  177.7620  138.6710 C   0  0  2  0  0  3  0  0  0  0  0  0
  180.8420  175.9080  139.9780 O   0  0  0  0  0  1  0  0  0  0  0  0
  181.1680  177.2660  140.0280 C   0  0  2  0  0  3  0  0  0  0  0  0
  179.9770  178.0870  140.5010 C   0  0  0  0  0  2  0  0  0  0  0  0
  179.5200  177.6220  141.8010 N   0  0  0  0  0  2  0  0  0  0  0  0
  179.2990  177.8700  144.0960 O   0  0  0  0  0  0  0  0  0  0  0  0
  179.8090  178.2970  143.0280 C   0  0  0  0  0  0  0  0  0  0  0  0
  180.6910  179.5030  143.0590 C   0  0  0  0  0  2  0  0  0  0  0  0
  184.5790  178.7600  142.6800 P   0  0  1  0  0  0  0  0  0  0  0  0
  182.5680  178.5810  144.3060 N   0  0  0  0  0  0  0  0  0  0  0  0
  185.7470  179.9850  142.6980 O   0  0  0  0  0  1  0  0  0  0  0  0
  182.1260  179.1200  143.2080 C   0  0  0  0  0  0  0  0  0  0  0  0
  183.9950  178.2570  144.3160 C   0  0  2  0  0  3  0  0  0  0  0  0
  183.0560  179.3360  142.1990 O   0  0  0  0  0  0  0  0  0  0  0  0
  185.0110  177.5750  141.8410 O   0  0  0  0  0  0  0  0  0  0  0  0
  184.5610  178.6560  146.7250 O   0  0  0  0  0  1  0  0  0  0  0  0
  185.3970  180.0240  145.0890 O   0  0  0  0  0  0  0  0  0  0  0  0
  184.6920  179.0260  145.3930 C   0  0  0  0  0  0  0  0  0  0  0  0
  179.6040  176.8170  137.9470 O   0  0  0  0  0  1  0  0  0  0  0  0
  180.6740  177.6130  137.5300 C   0  0  1  0  0  3  0  0  0  0  0  0
  180.1560  178.9570  137.0330 C   0  0  0  0  0  2  0  0  0  0  0  0
  180.8010  179.9890  137.7150 O   0  0  0  0  0  0  0  0  0  0  0  0
  179.6820  181.6830  138.9780 C   0  0  0  0  0  1  0  0  0  0  0  0
  179.9420  181.0850  137.6040 C   0  0  0  0  0  2  0  0  0  0  0  0
  186.3880  178.0210  138.8220 C   0  0  0  0  0  2  0  0  0  0  0  0
  187.5780  178.3190  137.9310 C   0  0  0  0  0  2  0  0  0  0  0  0
  188.8390  178.3780  138.7730 C   0  0  0  0  0  2  0  0  0  0  0  0
  188.9460  177.1470  139.6540 C   0  0  0  0  0  2  0  0  0  0  0  0
  188.7620  177.5410  141.1110 C   0  0  0  0  0  2  0  0  0  0  0  0
  189.8010  176.8480  141.9780 C   0  0  1  0  0  3  0  0  0  0  0  0
  190.6410  177.1000  144.0730 C   0  0  2  0  0  3  0  0  0  0  0  0
  191.1230  177.4950  141.7850 C   0  0  0  0  0  0  0  0  0  0  0  0
  191.7740  178.2530  143.2290 S   0  0  0  0  0  0  0  0  0  0  0  0
  189.4450  176.9730  143.3360 O   0  0  0  0  0  0  0  0  0  0  0  0
  191.7720  177.3730  140.7600 O   0  0  0  0  0  0  0  0  0  0  0  0
  189.5940  176.7130  147.6670 C   0  0  0  0  0  2  0  0  0  0  0  0
  188.1020  176.9480  147.4050 C   0  0  0  0  0  2  0  0  0  0  0  0
  187.8540  177.5740  146.0250 C   0  0  0  0  0  2  0  0  0  0  0  0
  189.0580  178.3850  145.5540 C   0  0  0  0  0  2  0  0  0  0  0  0
  190.2900  176.3550  146.4310 N   0  0  0  0  0  0  0  0  0  0  0  0
  190.3340  177.5190  145.5170 C   0  0  1  0  0  3  0  0  0  0  0  0
  192.0730  176.9500  147.8080 O   0  0  0  0  0  1  0  0  0  0  0  0
  191.6590  176.0540  146.8210 C   0  0  0  0  0  2  0  0  0  0  0  0
  1  2  2  0  0  0  0
  2 17  1  0  0  0  0
  2 43  1  0  0  0  0
  4 11  1  0  0  0  0
  5  4  1  0  0  0  0
  5  8  1  0  0  0  0
  7  1  1  0  0  0  0
  7  6  2  0  0  0  0
  8  3  2  0  0  0  0
  9  7  1  0  0  0  0
 10  9  1  0  0  0  0
 10  4  2  0  0  0  0
 11  6  1  0  0  0  0
 12 16  1  0  0  0  0
 14 13  1  0  0  0  0
 15  8  1  1  0  0  0
 15 12  1  0  0  0  0
 15 14  1  0  0  0  0
 16 13  1  0  0  0  0
 18 17  1  0  0  0  0
 19 18  1  6  0  0  0
 19 21  1  0  0  0  0
 21 20  1  6  0  0  0
 21 22  1  0  0  0  0
 22 23  1  0  0  0  0
 23 25  1  0  0  0  0
 25 26  1  0  0  0  0
 25 24  2  0  0  0  0
 26 30  1  0  0  0  0
 27 33  2  6  0  0  0
 27 29  1  0  0  0  0
 27 31  1  0  0  0  0
 28 31  1  0  0  0  0
 30 28  2  0  0  0  0
 31 36  1  1  0  0  0
 32 27  1  0  0  0  0
 32 30  1  0  0  0  0
 35 36  2  0  0  0  0
 36 34  1  0  0  0  0
 38 37  1  1  0  0  0
 38 19  1  0  0  0  0
 39 38  1  0  0  0  0
 39 40  1  0  0  0  0
 42 40  1  0  0  0  0
 42 41  1  0  0  0  0
 44 45  1  0  0  0  0
 44 43  1  0  0  0  0
 45 46  1  0  0  0  0
 46 47  1  0  0  0  0
 48 47  1  6  0  0  0
 48 52  1  0  0  0  0
 49 51  1  6  0  0  0
 49 59  1  0  0  0  0
 50 48  1  0  0  0  0
 50 51  1  0  0  0  0
 52 49  1  0  0  0  0
 53 50  2  0  0  0  0
 55 54  1  0  0  0  0
 56 55  1  0  0  0  0
 57 56  1  0  0  0  0
 58 61  1  0  0  0  0
 58 54  1  0  0  0  0
 59 57  1  6  0  0  0
 59 58  1  0  0  0  0
 61 60  1  0  0  0  0
M  END
>  <MODEL>
6

>  <REMARK>
 VINA RESULT:      -5.9      2.791      6.003
  Name = 
  23 active torsions:
  status: ('A' for Active; 'I' for Inactive)
    1  A    between atoms: N_3  and  C_24
    2  A    between atoms: C_4  and  C_54
    3  A    between atoms: N_6  and  C_28
    4  A    between atoms: C_9  and  C_46
    5  A    between atoms: C_11  and  C_47
    6  A    between atoms: C_11  and  C_60
    7  A    between atoms: C_12  and  O_32
    8  A    between atoms: C_12  and  C_39
    9  A    between atoms: C_19  and  C_45
   10  A    between atoms: C_19  and  C_47
   11  A    between atoms: C_20  and  C_38
   12  A    between atoms: C_20  and  C_55
   13  A    between atoms: C_21  and  N_40
   14  A    between atoms: C_23  and  O_32
   15  A    between atoms: C_24  and  C_36
   16  A    between atoms: O_25  and  C_31
   17  A    between atoms: O_25  and  C_42
   18  A    between atoms: C_31  and  C_36
   19  A    between atoms: C_31  and  C_39
   20  A    between atoms: C_34  and  C_58
   21  A    between atoms: C_42  and  C_45
   22  A    between atoms: C_48  and  C_61
   23  A    between atoms: C_54  and  C_60
                            x       y       z     vdW  Elec       q    Type
                         _______ _______ _______ _____ _____    ______ ____

>  <TORSDO>
F 23

$$$$
=
 OpenBabel10222416053D

 61 65  0  0  1  0  0  0  0  0999 V2000
  184.9370  176.8860  137.5430 N   0  0  0  0  0  0  0  0  0  0  0  0
  186.0730  177.2750  138.0390 C   0  0  0  0  0  0  0  0  0  0  0  0
  180.1380  180.4590  135.0590 O   0  0  0  0  0  0  0  0  0  0  0  0
  181.6110  179.4920  137.4170 C   0  0  0  0  0  0  0  0  0  0  0  0
  180.8520  180.7000  137.2840 N   0  0  0  0  0  2  0  0  0  0  0  0
  183.0970  177.8310  136.3450 C   0  0  0  0  0  3  0  0  0  0  0  0
  183.6920  177.6060  137.5210 C   0  0  0  0  0  0  0  0  0  0  0  0
  180.1490  181.1460  136.1190 C   0  0  0  0  0  0  0  0  0  0  0  0
  182.9710  178.0160  138.7780 C   0  0  0  0  0  2  0  0  0  0  0  0
  182.1960  179.2400  138.5530 N   0  0  0  0  0  0  0  0  0  0  0  0
  181.7590  178.5150  136.2780 C   0  0  0  0  0  2  0  0  0  0  0  0
  179.8850  183.2520  137.3740 C   0  0  0  0  0  2  0  0  0  0  0  0
  179.9830  184.6330  135.4290 C   0  0  0  0  0  2  0  0  0  0  0  0
  179.7830  183.2590  134.9740 N   0  0  0  0  0  2  0  0  0  0  0  0
  179.4590  182.4680  136.1580 C   0  0  1  0  0  3  0  0  0  0  0  0
  179.7790  184.6820  136.9290 C   0  0  0  0  0  2  0  0  0  0  0  0
  187.2340  176.3400  137.9710 C   0  0  0  0  0  2  0  0  0  0  0  0
  187.1260  175.5420  136.8320 O   0  0  0  0  0  0  0  0  0  0  0  0
  187.9640  174.4450  137.0710 C   0  0  2  0  0  3  0  0  0  0  0  0
  189.2180  173.9440  135.0620 O   0  0  0  0  0  1  0  0  0  0  0  0
  189.2830  174.5910  136.2980 C   0  0  2  0  0  3  0  0  0  0  0  0
  190.4630  174.0770  137.1120 C   0  0  0  0  0  2  0  0  0  0  0  0
  190.8780  175.0690  138.0910 N   0  0  0  0  0  2  0  0  0  0  0  0
  192.2740  176.7820  138.7960 O   0  0  0  0  0  0  0  0  0  0  0  0
  192.0400  175.8890  137.9400 C   0  0  0  0  0  0  0  0  0  0  0  0
  192.9660  175.7140  136.7810 C   0  0  0  0  0  2  0  0  0  0  0  0
  195.6450  172.8620  137.4850 P   0  0  1  0  0  0  0  0  0  0  0  0
  195.1990  175.4060  137.7000 N   0  0  0  0  0  0  0  0  0  0  0  0
  196.5390  172.1250  136.2490 O   0  0  0  0  0  0  0  0  0  0  0  0
  194.1450  174.8780  137.1520 C   0  0  0  0  0  0  0  0  0  0  0  0
  196.2810  174.4710  138.0120 C   0  0  2  0  0  3  0  0  0  0  0  0
  194.1830  173.5090  136.9170 O   0  0  0  0  0  0  0  0  0  0  0  0
  195.4180  171.9280  138.6560 O   0  0  0  0  0  1  0  0  0  0  0  0
  198.7720  174.6660  137.8150 O   0  0  0  0  0  1  0  0  0  0  0  0
  197.4120  175.3090  136.0880 O   0  0  0  0  0  0  0  0  0  0  0  0
  197.5150  174.8350  137.2500 C   0  0  0  0  0  0  0  0  0  0  0  0
  187.8020  172.1090  137.5930 O   0  0  0  0  0  1  0  0  0  0  0  0
  187.2380  173.1200  136.8100 C   0  0  1  0  0  3  0  0  0  0  0  0
  185.7420  173.2130  137.0840 C   0  0  0  0  0  2  0  0  0  0  0  0
  185.0570  173.4080  135.8840 O   0  0  0  0  0  0  0  0  0  0  0  0
  182.7570  173.0380  136.4250 C   0  0  0  0  0  1  0  0  0  0  0  0
  184.0480  172.4410  135.8850 C   0  0  0  0  0  2  0  0  0  0  0  0
  186.2870  178.6540  138.5850 C   0  0  0  0  0  2  0  0  0  0  0  0
  185.4530  178.8810  139.8300 C   0  0  0  0  0  2  0  0  0  0  0  0
  186.3200  178.6880  141.0620 C   0  0  0  0  0  2  0  0  0  0  0  0
  185.5980  177.8360  142.0890 C   0  0  0  0  0  2  0  0  0  0  0  0
  184.7950  178.7270  143.0230 C   0  0  0  0  0  2  0  0  0  0  0  0
  185.6250  179.0930  144.2430 C   0  0  1  0  0  3  0  0  0  0  0  0
  187.3030  178.1490  145.4460 C   0  0  2  0  0  3  0  0  0  0  0  0
  184.9690  178.5680  145.4660 C   0  0  0  0  0  0  0  0  0  0  0  0
  185.9150  177.3680  146.3340 S   0  0  0  0  0  0  0  0  0  0  0  0
  186.9010  178.5060  144.1420 O   0  0  0  0  0  0  0  0  0  0  0  0
  183.9410  179.0410  145.9170 O   0  0  0  0  0  0  0  0  0  0  0  0
  190.8960  177.1480  145.9450 C   0  0  0  0  0  2  0  0  0  0  0  0
  191.3880  177.7140  144.6080 C   0  0  0  0  0  2  0  0  0  0  0  0
  190.2260  178.0010  143.6460 C   0  0  0  0  0  2  0  0  0  0  0  0
  189.0260  177.1030  143.9330 C   0  0  0  0  0  2  0  0  0  0  0  0
  189.6070  177.7300  146.3150 N   0  0  0  0  0  0  0  0  0  0  0  0
  188.5500  177.2570  145.3930 C   0  0  1  0  0  3  0  0  0  0  0  0
  189.3760  178.2310  148.5790 O   0  0  0  0  0  1  0  0  0  0  0  0
  189.3000  177.2040  147.6360 C   0  0  0  0  0  2  0  0  0  0  0  0
  1  2  2  0  0  0  0
  2 43  1  0  0  0  0
  3  8  2  0  0  0  0
  4 10  2  0  0  0  0
  5  4  1  0  0  0  0
  6  7  2  0  0  0  0
  7  1  1  0  0  0  0
  7  9  1  0  0  0  0
  8  5  1  0  0  0  0
 10  9  1  0  0  0  0
 11  6  1  0  0  0  0
 11  4  1  0  0  0  0
 13 16  1  0  0  0  0
 14 13  1  0  0  0  0
 14 15  1  0  0  0  0
 15  8  1  6  0  0  0
 15 12  1  0  0  0  0
 16 12  1  0  0  0  0
 17  2  1  0  0  0  0
 18 17  1  0  0  0  0
 19 18  1  6  0  0  0
 21 20  1  6  0  0  0
 21 19  1  0  0  0  0
 21 22  1  0  0  0  0
 22 23  1  0  0  0  0
 25 23  1  0  0  0  0
 25 24  2  0  0  0  0
 26 30  1  0  0  0  0
 26 25  1  0  0  0  0
 27 29  2  6  0  0  0
 27 31  1  0  0  0  0
 27 33  1  0  0  0  0
 28 31  1  0  0  0  0
 30 28  2  0  0  0  0
 31 36  1  6  0  0  0
 32 30  1  0  0  0  0
 32 27  1  0  0  0  0
 35 36  2  0  0  0  0
 36 34  1  0  0  0  0
 38 19  1  0  0  0  0
 38 39  1  0  0  0  0
 38 37  1  1  0  0  0
 40 42  1  0  0  0  0
 40 39  1  0  0  0  0
 42 41  1  0  0  0  0
 43 44  1  0  0  0  0
 44 45  1  0  0  0  0
 45 46  1  0  0  0  0
 46 47  1  0  0  0  0
 48 47  1  6  0  0  0
 48 50  1  0  0  0  0
 49 52  1  6  0  0  0
 49 51  1  0  0  0  0
 50 53  2  0  0  0  0
 50 51  1  0  0  0  0
 52 48  1  0  0  0  0
 54 58  1  0  0  0  0
 55 54  1  0  0  0  0
 56 57  1  0  0  0  0
 56 55  1  0  0  0  0
 58 61  1  0  0  0  0
 59 57  1  6  0  0  0
 59 49  1  0  0  0  0
 59 58  1  0  0  0  0
 61 60  1  0  0  0  0
M  END
>  <MODEL>
7

>  <REMARK>
 VINA RESULT:      -5.9      3.568      8.720
  Name = 
  23 active torsions:
  status: ('A' for Active; 'I' for Inactive)
    1  A    between atoms: N_3  and  C_24
    2  A    between atoms: C_4  and  C_54
    3  A    between atoms: N_6  and  C_28
    4  A    between atoms: C_9  and  C_46
    5  A    between atoms: C_11  and  C_47
    6  A    between atoms: C_11  and  C_60
    7  A    between atoms: C_12  and  O_32
    8  A    between atoms: C_12  and  C_39
    9  A    between atoms: C_19  and  C_45
   10  A    between atoms: C_19  and  C_47
   11  A    between atoms: C_20  and  C_38
   12  A    between atoms: C_20  and  C_55
   13  A    between atoms: C_21  and  N_40
   14  A    between atoms: C_23  and  O_32
   15  A    between atoms: C_24  and  C_36
   16  A    between atoms: O_25  and  C_31
   17  A    between atoms: O_25  and  C_42
   18  A    between atoms: C_31  and  C_36
   19  A    between atoms: C_31  and  C_39
   20  A    between atoms: C_34  and  C_58
   21  A    between atoms: C_42  and  C_45
   22  A    between atoms: C_48  and  C_61
   23  A    between atoms: C_54  and  C_60
                            x       y       z     vdW  Elec       q    Type
                         _______ _______ _______ _____ _____    ______ ____

>  <TORSDO>
F 23

$$$$
=
 OpenBabel10222416053D

 61 65  0  0  1  0  0  0  0  0999 V2000
  186.0690  178.4160  138.3390 N   0  0  0  0  0  0  0  0  0  0  0  0
  185.8900  178.5430  139.6190 C   0  0  0  0  0  0  0  0  0  0  0  0
  190.7700  174.2370  136.7910 O   0  0  0  0  0  0  0  0  0  0  0  0
  189.7680  177.0030  136.8580 C   0  0  0  0  0  0  0  0  0  0  0  0
  191.1290  176.5580  136.8420 N   0  0  0  0  0  2  0  0  0  0  0  0
  187.4480  176.6020  137.6160 C   0  0  0  0  0  3  0  0  0  0  0  0
  187.2350  177.9210  137.6560 C   0  0  0  0  0  0  0  0  0  0  0  0
  191.5860  175.2010  136.8150 C   0  0  0  0  0  0  0  0  0  0  0  0
  188.1630  178.8210  136.8820 C   0  0  0  0  0  2  0  0  0  0  0  0
  189.5270  178.2830  136.8890 N   0  0  0  0  0  0  0  0  0  0  0  0
  188.6120  176.0340  136.8520 C   0  0  0  0  0  2  0  0  0  0  0  0
  193.4860  174.1460  135.6510 C   0  0  0  0  0  2  0  0  0  0  0  0
  194.9570  175.9940  135.9950 C   0  0  0  0  0  2  0  0  0  0  0  0
  193.8080  176.1850  136.8780 N   0  0  0  0  0  2  0  0  0  0  0  0
  193.0540  174.9350  136.8600 C   0  0  1  0  0  3  0  0  0  0  0  0
  194.9010  174.5930  135.4230 C   0  0  0  0  0  2  0  0  0  0  0  0
  184.5970  179.1100  140.1030 C   0  0  0  0  0  2  0  0  0  0  0  0
  184.0060  179.8580  139.0850 O   0  0  0  0  0  0  0  0  0  0  0  0
  182.7540  179.2650  138.8730 C   0  0  2  0  0  3  0  0  0  0  0  0
  182.6510  178.7210  136.5170 O   0  0  0  0  0  1  0  0  0  0  0  0
  182.8440  178.1800  137.7910 C   0  0  2  0  0  3  0  0  0  0  0  0
  181.8530  177.0540  138.0520 C   0  0  0  0  0  2  0  0  0  0  0  0
  180.9230  176.9250  136.9410 N   0  0  0  0  0  2  0  0  0  0  0  0
  179.4430  175.6920  135.6500 O   0  0  0  0  0  0  0  0  0  0  0  0
  180.3020  175.6910  136.5710 C   0  0  0  0  0  0  0  0  0  0  0  0
  180.6440  174.4130  137.2640 C   0  0  0  0  0  2  0  0  0  0  0  0
  184.2280  173.4050  135.8710 P   0  0  1  0  0  0  0  0  0  0  0  0
  181.7750  172.6000  136.0990 N   0  0  0  0  0  0  0  0  0  0  0  0
  185.5060  172.9510  136.8850 O   0  0  0  0  0  1  0  0  0  0  0  0
  181.8460  173.7720  136.6560 C   0  0  0  0  0  0  0  0  0  0  0  0
  183.0300  172.0900  135.5430 C   0  0  2  0  0  3  0  0  0  0  0  0
  183.0940  174.3820  136.6700 O   0  0  0  0  0  0  0  0  0  0  0  0
  184.7190  174.0580  134.5950 O   0  0  0  0  0  0  0  0  0  0  0  0
  183.1110  170.6150  137.5680 O   0  0  0  0  0  1  0  0  0  0  0  0
  184.0520  169.9380  135.5930 O   0  0  0  0  0  0  0  0  0  0  0  0
  183.4230  170.8220  136.2310 C   0  0  0  0  0  0  0  0  0  0  0  0
  180.7940  180.3860  139.6850 O   0  0  0  0  0  1  0  0  0  0  0  0
  181.6750  180.3210  138.6030 C   0  0  1  0  0  3  0  0  0  0  0  0
  182.2650  181.7000  138.3330 C   0  0  0  0  0  2  0  0  0  0  0  0
  181.4060  182.4230  137.5050 O   0  0  0  0  0  0  0  0  0  0  0  0
  180.9050  184.6650  136.8400 C   0  0  0  0  0  1  0  0  0  0  0  0
  181.6640  183.7640  137.8020 C   0  0  0  0  0  2  0  0  0  0  0  0
  186.8870  178.0560  140.6270 C   0  0  0  0  0  2  0  0  0  0  0  0
  188.2220  178.7530  140.4520 C   0  0  0  0  0  2  0  0  0  0  0  0
  189.0400  178.6040  141.7220 C   0  0  0  0  0  2  0  0  0  0  0  0
  190.1940  177.6440  141.4990 C   0  0  0  0  0  2  0  0  0  0  0  0
  189.7170  176.2140  141.6970 C   0  0  0  0  0  2  0  0  0  0  0  0
  189.5850  175.9040  143.1800 C   0  0  1  0  0  3  0  0  0  0  0  0
  188.9700  177.0260  145.0550 C   0  0  2  0  0  3  0  0  0  0  0  0
  190.8590  176.2200  143.8700 C   0  0  0  0  0  0  0  0  0  0  0  0
  190.7320  177.4950  145.0730 S   0  0  0  0  0  0  0  0  0  0  0  0
  188.5700  176.7040  143.7410 O   0  0  0  0  0  0  0  0  0  0  0  0
  191.8670  175.5490  143.7330 O   0  0  0  0  0  0  0  0  0  0  0  0
  186.3330  178.5550  147.2630 C   0  0  0  0  0  2  0  0  0  0  0  0
  185.1630  178.2430  146.3230 C   0  0  0  0  0  2  0  0  0  0  0  0
  185.6450  177.8800  144.9110 C   0  0  0  0  0  2  0  0  0  0  0  0
  186.9930  178.5210  144.5960 C   0  0  0  0  0  2  0  0  0  0  0  0
  187.4940  177.7230  146.9450 N   0  0  0  0  0  0  0  0  0  0  0  0
  188.0600  178.1170  145.6360 C   0  0  1  0  0  3  0  0  0  0  0  0
  187.9170  177.9150  149.2290 O   0  0  0  0  0  1  0  0  0  0  0  0
  188.4890  178.0290  147.9610 C   0  0  0  0  0  2  0  0  0  0  0  0
  1  2  2  0  0  0  0
  2 17  1  0  0  0  0
  2 43  1  0  0  0  0
  3  8  2  0  0  0  0
  4 10  2  0  0  0  0
  5  4  1  0  0  0  0
  6  7  2  0  0  0  0
  7  1  1  0  0  0  0
  8  5  1  0  0  0  0
  9 10  1  0  0  0  0
  9  7  1  0  0  0  0
 11  4  1  0  0  0  0
 11  6  1  0  0  0  0
 12 15  1  0  0  0  0
 13 14  1  0  0  0  0
 15  8  1  6  0  0  0
 15 14  1  0  0  0  0
 16 12  1  0  0  0  0
 16 13  1  0  0  0  0
 18 17  1  0  0  0  0
 19 18  1  6  0  0  0
 21 20  1  6  0  0  0
 21 22  1  0  0  0  0
 21 19  1  0  0  0  0
 23 22  1  0  0  0  0
 24 25  2  0  0  0  0
 25 23  1  0  0  0  0
 25 26  1  0  0  0  0
 27 33  2  6  0  0  0
 27 32  1  0  0  0  0
 27 29  1  0  0  0  0
 28 30  2  0  0  0  0
 30 32  1  0  0  0  0
 30 26  1  0  0  0  0
 31 27  1  0  0  0  0
 31 28  1  0  0  0  0
 31 36  1  1  0  0  0
 35 36  2  0  0  0  0
 36 34  1  0  0  0  0
 38 19  1  0  0  0  0
 38 37  1  1  0  0  0
 39 38  1  0  0  0  0
 40 42  1  0  0  0  0
 40 39  1  0  0  0  0
 41 42  1  0  0  0  0
 44 43  1  0  0  0  0
 44 45  1  0  0  0  0
 46 47  1  0  0  0  0
 46 45  1  0  0  0  0
 48 47  1  6  0  0  0
 48 52  1  0  0  0  0
 48 50  1  0  0  0  0
 49 52  1  6  0  0  0
 49 51  1  0  0  0  0
 49 59  1  0  0  0  0
 50 51  1  0  0  0  0
 53 50  2  0  0  0  0
 55 54  1  0  0  0  0
 56 55  1  0  0  0  0
 57 56  1  0  0  0  0
 58 54  1  0  0  0  0
 58 61  1  0  0  0  0
 59 57  1  6  0  0  0
 59 58  1  0  0  0  0
 61 60  1  0  0  0  0
M  END
>  <MODEL>
8

>  <REMARK>
 VINA RESULT:      -5.8      2.217      3.680
  Name = 
  23 active torsions:
  status: ('A' for Active; 'I' for Inactive)
    1  A    between atoms: N_3  and  C_24
    2  A    between atoms: C_4  and  C_54
    3  A    between atoms: N_6  and  C_28
    4  A    between atoms: C_9  and  C_46
    5  A    between atoms: C_11  and  C_47
    6  A    between atoms: C_11  and  C_60
    7  A    between atoms: C_12  and  O_32
    8  A    between atoms: C_12  and  C_39
    9  A    between atoms: C_19  and  C_45
   10  A    between atoms: C_19  and  C_47
   11  A    between atoms: C_20  and  C_38
   12  A    between atoms: C_20  and  C_55
   13  A    between atoms: C_21  and  N_40
   14  A    between atoms: C_23  and  O_32
   15  A    between atoms: C_24  and  C_36
   16  A    between atoms: O_25  and  C_31
   17  A    between atoms: O_25  and  C_42
   18  A    between atoms: C_31  and  C_36
   19  A    between atoms: C_31  and  C_39
   20  A    between atoms: C_34  and  C_58
   21  A    between atoms: C_42  and  C_45
   22  A    between atoms: C_48  and  C_61
   23  A    between atoms: C_54  and  C_60
                            x       y       z     vdW  Elec       q    Type
                         _______ _______ _______ _____ _____    ______ ____

>  <TORSDO>
F 23

$$$$
=
 OpenBabel10222416053D

 61 65  0  0  1  0  0  0  0  0999 V2000
  186.1770  178.4340  138.6140 N   0  0  0  0  0  0  0  0  0  0  0  0
  186.0870  178.5040  139.9090 C   0  0  0  0  0  0  0  0  0  0  0  0
  190.6440  174.2050  136.5840 O   0  0  0  0  0  0  0  0  0  0  0  0
  189.7220  176.9900  136.8210 C   0  0  0  0  0  0  0  0  0  0  0  0
  191.0660  176.5130  136.6900 N   0  0  0  0  0  2  0  0  0  0  0  0
  187.4520  176.6160  137.7300 C   0  0  0  0  0  3  0  0  0  0  0  0
  187.2770  177.9370  137.8320 C   0  0  0  0  0  0  0  0  0  0  0  0
  191.4840  175.1480  136.5820 C   0  0  0  0  0  0  0  0  0  0  0  0
  188.1700  178.8430  137.0250 C   0  0  0  0  0  2  0  0  0  0  0  0
  189.5170  178.2730  136.9130 N   0  0  0  0  0  0  0  0  0  0  0  0
  188.5430  176.0490  136.8640 C   0  0  0  0  0  2  0  0  0  0  0  0
  193.6870  175.5640  137.6100 C   0  0  0  0  0  2  0  0  0  0  0  0
  194.3630  173.2770  137.5190 C   0  0  0  0  0  2  0  0  0  0  0  0
  193.1870  173.4150  136.6620 N   0  0  0  0  0  2  0  0  0  0  0  0
  192.9440  174.8470  136.5120 C   0  0  1  0  0  3  0  0  0  0  0  0
  194.8480  174.6600  137.9040 C   0  0  0  0  0  2  0  0  0  0  0  0
  184.8490  179.0850  140.5050 C   0  0  0  0  0  2  0  0  0  0  0  0
  184.1290  179.7590  139.5190 O   0  0  0  0  0  0  0  0  0  0  0  0
  182.9090  179.0740  139.4230 C   0  0  2  0  0  3  0  0  0  0  0  0
  182.6990  177.6960  137.4440 O   0  0  0  0  0  1  0  0  0  0  0  0
  183.1100  177.6940  138.7810 C   0  0  2  0  0  3  0  0  0  0  0  0
  182.3850  176.6080  139.5630 C   0  0  0  0  0  2  0  0  0  0  0  0
  181.1040  177.0960  140.0470 N   0  0  0  0  0  2  0  0  0  0  0  0
  178.9660  176.7450  140.8760 O   0  0  0  0  0  0  0  0  0  0  0  0
  180.0080  176.2400  140.3820 C   0  0  0  0  0  0  0  0  0  0  0  0
  180.0860  174.7630  140.1690 C   0  0  0  0  0  2  0  0  0  0  0  0
  180.4860  174.4020  136.2300 P   0  0  1  0  0  0  0  0  0  0  0  0
  179.1320  173.5660  138.2760 N   0  0  0  0  0  0  0  0  0  0  0  0
  181.7870  173.5850  135.5170 O   0  0  0  0  0  1  0  0  0  0  0  0
  180.0060  174.4200  138.7190 C   0  0  0  0  0  0  0  0  0  0  0  0
  179.1650  173.3230  136.8330 C   0  0  2  0  0  3  0  0  0  0  0  0
  180.8660  174.9780  137.7810 O   0  0  0  0  0  0  0  0  0  0  0  0
  179.9560  175.5100  135.3440 O   0  0  0  0  0  0  0  0  0  0  0  0
  179.1310  171.3070  135.3450 O   0  0  0  0  0  0  0  0  0  0  0  0
  180.0530  171.1950  137.4380 O   0  0  0  0  0  1  0  0  0  0  0  0
  179.4780  171.8870  136.5580 C   0  0  0  0  0  0  0  0  0  0  0  0
  180.6140  179.7720  139.3800 O   0  0  0  0  0  1  0  0  0  0  0  0
  181.8420  179.9300  138.7310 C   0  0  1  0  0  3  0  0  0  0  0  0
  182.2180  181.4060  138.6870 C   0  0  0  0  0  2  0  0  0  0  0  0
  181.5100  182.0400  137.6650 O   0  0  0  0  0  0  0  0  0  0  0  0
  179.2460  182.7750  137.4330 C   0  0  0  0  0  1  0  0  0  0  0  0
  180.4860  182.7340  138.3140 C   0  0  0  0  0  2  0  0  0  0  0  0
  187.1310  177.9370  140.8230 C   0  0  0  0  0  2  0  0  0  0  0  0
  188.4480  178.6710  140.6640 C   0  0  0  0  0  2  0  0  0  0  0  0
  189.2410  178.5720  141.9550 C   0  0  0  0  0  2  0  0  0  0  0  0
  190.3700  177.5690  141.8080 C   0  0  0  0  0  2  0  0  0  0  0  0
  189.8430  176.1630  142.0500 C   0  0  0  0  0  2  0  0  0  0  0  0
  189.6200  175.9330  143.5360 C   0  0  1  0  0  3  0  0  0  0  0  0
  188.8490  177.1380  145.2990 C   0  0  2  0  0  3  0  0  0  0  0  0
  190.8360  176.3300  144.2890 C   0  0  0  0  0  0  0  0  0  0  0  0
  190.5910  177.6650  145.4040 S   0  0  0  0  0  0  0  0  0  0  0  0
  188.5470  176.7280  143.9830 O   0  0  0  0  0  0  0  0  0  0  0  0
  191.8700  175.6860  144.2560 O   0  0  0  0  0  0  0  0  0  0  0  0
  186.0390  178.7050  147.2510 C   0  0  0  0  0  2  0  0  0  0  0  0
  184.9360  178.2890  146.2720 C   0  0  0  0  0  2  0  0  0  0  0  0
  185.5100  177.8530  144.9160 C   0  0  0  0  0  2  0  0  0  0  0  0
  186.8520  178.5230  144.6330 C   0  0  0  0  0  2  0  0  0  0  0  0
  187.2430  177.8990  147.0550 N   0  0  0  0  0  0  0  0  0  0  0  0
  187.8700  178.2280  145.7550 C   0  0  1  0  0  3  0  0  0  0  0  0
  187.9130  177.5790  149.2640 O   0  0  0  0  0  1  0  0  0  0  0  0
  188.1680  178.3070  148.1010 C   0  0  0  0  0  2  0  0  0  0  0  0
  1  2  2  0  0  0  0
  2 17  1  0  0  0  0
  2 43  1  0  0  0  0
  4 11  1  0  0  0  0
  4 10  2  0  0  0  0
  5  4  1  0  0  0  0
  6  7  2  0  0  0  0
  7  1  1  0  0  0  0
  8  3  2  0  0  0  0
  8  5  1  0  0  0  0
  9  7  1  0  0  0  0
 10  9  1  0  0  0  0
 11  6  1  0  0  0  0
 12 16  1  0  0  0  0
 13 16  1  0  0  0  0
 14 13  1  0  0  0  0
 15  8  1  1  0  0  0
 15 14  1  0  0  0  0
 15 12  1  0  0  0  0
 18 17  1  0  0  0  0
 19 18  1  6  0  0  0
 21 20  1  6  0  0  0
 21 19  1  0  0  0  0
 21 22  1  0  0  0  0
 22 23  1  0  0  0  0
 23 25  1  0  0  0  0
 25 24  2  0  0  0  0
 26 25  1  0  0  0  0
 27 33  2  6  0  0  0
 27 31  1  0  0  0  0
 27 32  1  0  0  0  0
 28 30  2  0  0  0  0
 29 27  1  0  0  0  0
 30 26  1  0  0  0  0
 31 36  1  1  0  0  0
 31 28  1  0  0  0  0
 32 30  1  0  0  0  0
 34 36  2  0  0  0  0
 36 35  1  0  0  0  0
 38 37  1  1  0  0  0
 38 19  1  0  0  0  0
 39 38  1  0  0  0  0
 40 42  1  0  0  0  0
 40 39  1  0  0  0  0
 41 42  1  0  0  0  0
 44 43  1  0  0  0  0
 44 45  1  0  0  0  0
 46 45  1  0  0  0  0
 46 47  1  0  0  0  0
 48 47  1  6  0  0  0
 48 52  1  0  0  0  0
 48 50  1  0  0  0  0
 49 52  1  6  0  0  0
 49 51  1  0  0  0  0
 49 59  1  0  0  0  0
 50 51  1  0  0  0  0
 53 50  2  0  0  0  0
 55 54  1  0  0  0  0
 56 55  1  0  0  0  0
 57 56  1  0  0  0  0
 58 54  1  0  0  0  0
 58 61  1  0  0  0  0
 59 57  1  6  0  0  0
 59 58  1  0  0  0  0
 61 60  1  0  0  0  0
M  END
>  <MODEL>
9

>  <REMARK>
 VINA RESULT:      -5.6      2.667      4.430
  Name = 
  23 active torsions:
  status: ('A' for Active; 'I' for Inactive)
    1  A    between atoms: N_3  and  C_24
    2  A    between atoms: C_4  and  C_54
    3  A    between atoms: N_6  and  C_28
    4  A    between atoms: C_9  and  C_46
    5  A    between atoms: C_11  and  C_47
    6  A    between atoms: C_11  and  C_60
    7  A    between atoms: C_12  and  O_32
    8  A    between atoms: C_12  and  C_39
    9  A    between atoms: C_19  and  C_45
   10  A    between atoms: C_19  and  C_47
   11  A    between atoms: C_20  and  C_38
   12  A    between atoms: C_20  and  C_55
   13  A    between atoms: C_21  and  N_40
   14  A    between atoms: C_23  and  O_32
   15  A    between atoms: C_24  and  C_36
   16  A    between atoms: O_25  and  C_31
   17  A    between atoms: O_25  and  C_42
   18  A    between atoms: C_31  and  C_36
   19  A    between atoms: C_31  and  C_39
   20  A    between atoms: C_34  and  C_58
   21  A    between atoms: C_42  and  C_45
   22  A    between atoms: C_48  and  C_61
   23  A    between atoms: C_54  and  C_60
                            x       y       z     vdW  Elec       q    Type
                         _______ _______ _______ _____ _____    ______ ____

>  <TORSDO>
F 23

$$$$
