=
 OpenBabel10222417343D

 57 62  0  0  1  0  0  0  0  0999 V2000
  182.5460  179.3820  141.7750 S   0  0  0  0  0  1  0  0  0  0  0  0
  183.8880  178.2880  141.1820 C   0  0  1  0  0  0  0  0  0  0  0  0
  184.9360  178.1510  142.2650 C   0  0  0  0  0  3  0  0  0  0  0  0
  184.8400  178.8090  143.4210 C   0  0  0  0  0  3  0  0  0  0  0  0
  185.0990  178.3810  145.8080 C   0  0  0  0  0  1  0  0  0  0  0  0
  185.8440  178.6140  144.5050 C   0  0  1  0  0  3  0  0  0  0  0  0
  186.6720  177.4980  144.1700 O   0  0  0  0  0  0  0  0  0  0  0  0
  188.9580  177.9500  145.1930 C   0  0  1  0  0  3  0  0  0  0  0  0
  190.2750  177.6160  144.5600 C   0  0  1  0  0  3  0  0  0  0  0  0
  191.4630  175.9510  143.6570 C   0  0  0  0  0  3  0  0  0  0  0  0
  188.6900  177.3680  142.9290 N   0  0  0  0  0  0  0  0  0  0  0  0
  190.9370  176.5400  142.6370 N   0  0  0  0  0  0  0  0  0  0  0  0
  191.0230  176.5700  144.9010 C   0  0  0  0  0  2  0  0  0  0  0  0
  188.0650  177.5740  144.0490 C   0  0  0  0  0  0  0  0  0  0  0  0
  190.1110  177.6480  143.0910 C   0  0  2  0  0  3  0  0  0  0  0  0
  188.1380  177.6750  147.5070 C   0  0  0  0  0  2  0  0  0  0  0  0
  188.6520  177.1180  146.4100 C   0  0  0  0  0  3  0  0  0  0  0  0
  183.3510  176.9760  140.7900 N   0  0  0  0  0  2  0  0  0  0  0  0
  182.2950  177.0840  139.7860 C   0  0  0  0  0  2  0  0  0  0  0  0
  181.7070  175.7150  139.5120 C   0  0  0  0  0  2  0  0  0  0  0  0
  182.6900  174.8690  138.7230 C   0  0  0  0  0  2  0  0  0  0  0  0
  183.9010  174.1490  135.7170 C   0  0  0  0  0  1  0  0  0  0  0  0
  180.5480  174.6570  135.6900 N   0  0  0  0  0  2  0  0  0  0  0  0
  179.9960  173.9300  137.8520 O   0  0  0  0  0  0  0  0  0  0  0  0
  182.1860  174.6490  137.3760 N   0  0  0  0  0  0  0  0  0  0  0  0
  180.8460  174.3730  137.0370 C   0  0  0  0  0  0  0  0  0  0  0  0
  182.8510  175.1480  136.1790 C   0  0  2  0  0  3  0  0  0  0  0  0
  181.7490  175.2410  135.1030 C   0  0  2  0  0  3  0  0  0  0  0  0
  181.4910  176.6980  134.7830 C   0  0  0  0  0  2  0  0  0  0  0  0
  181.2490  177.4810  136.0570 C   0  0  0  0  0  2  0  0  0  0  0  0
  179.8950  178.1670  135.9960 C   0  0  0  0  0  2  0  0  0  0  0  0
  179.6440  178.9860  137.2570 C   0  0  0  0  0  2  0  0  0  0  0  0
  180.9360  179.5890  137.7900 C   0  0  0  0  0  2  0  0  0  0  0  0
  180.7700  181.0800  138.0210 C   0  0  0  0  0  2  0  0  0  0  0  0
  182.0720  181.6700  138.5170 C   0  0  0  0  0  1  0  0  0  0  0  0
  184.5310  178.9070  139.9350 C   0  0  0  0  0  2  0  0  0  0  0  0
  185.9430  178.5540  139.8290 N   0  0  0  0  0  2  0  0  0  0  0  0
  187.6230  176.5030  135.6000 C   0  0  2  0  0  3  0  0  0  0  0  0
  187.5730  177.5750  138.2500 C   0  0  2  0  0  3  0  0  0  0  0  0
  185.0660  177.6790  136.0860 C   0  0  0  0  0  2  0  0  0  0  0  0
  187.4820  177.0780  136.8740 C   0  0  0  0  0  0  0  0  0  0  0  0
  186.4070  177.1140  135.9490 C   0  0  0  0  0  0  0  0  0  0  0  0
  186.2550  178.4270  138.4170 C   0  0  1  0  0  3  0  0  0  0  0  0
  184.9520  177.9370  137.6330 C   0  0  0  0  0  2  0  0  0  0  0  0
  188.5470  174.4850  134.8380 C   0  0  0  0  0  2  0  0  0  0  0  0
  187.4360  175.0470  135.5990 N   0  0  1  0  0  0  0  0  0  0  0  0
  189.5430  173.8720  135.7940 C   0  0  2  0  0  3  0  0  0  0  0  0
  188.8010  173.7000  137.0910 C   0  0  0  0  0  2  0  0  0  0  0  0
  187.5160  174.4850  136.9490 C   0  0  0  0  0  2  0  0  0  0  0  0
  190.7380  174.8080  135.9660 C   0  0  0  0  0  2  0  0  0  0  0  0
  191.0820  175.0180  137.4380 C   0  0  0  0  0  2  0  0  0  0  0  0
  192.3440  175.8470  137.5910 C   0  0  0  0  0  2  0  0  0  0  0  0
  193.5080  175.1020  137.0170 C   0  0  0  0  0  3  0  0  0  0  0  0
  193.8780  173.9300  137.5330 C   0  0  0  0  0  2  0  0  0  0  0  0
  189.6570  178.1980  139.2780 O   0  0  0  0  0  1  0  0  0  0  0  0
  188.9370  179.5630  137.5780 O   0  0  0  0  0  0  0  0  0  0  0  0
  188.7870  178.4460  138.3940 C   0  0  0  0  0  0  0  0  0  0  0  0
  2  1  1  1  0  0  0
  2  3  1  0  0  0  0
  3  4  2  0  0  0  0
  4  6  1  0  0  0  0
  6  5  1  1  0  0  0
  7  6  1  0  0  0  0
  8 17  1  1  0  0  0
  9 13  1  1  0  0  0
  9  8  1  0  0  0  0
 10 13  1  0  0  0  0
 11 15  1  0  0  0  0
 11 14  2  0  0  0  0
 12 10  2  0  0  0  0
 14  7  1  0  0  0  0
 14  8  1  0  0  0  0
 15 12  1  6  0  0  0
 15  9  1  0  0  0  0
 17 16  2  0  0  0  0
 18  2  1  0  0  0  0
 19 18  1  0  0  0  0
 20 19  1  0  0  0  0
 21 20  1  0  0  0  0
 23 26  1  0  0  0  0
 25 21  1  0  0  0  0
 26 25  1  0  0  0  0
 26 24  2  0  0  0  0
 27 22  1  6  0  0  0
 27 25  1  0  0  0  0
 28 29  1  1  0  0  0
 28 23  1  0  0  0  0
 28 27  1  0  0  0  0
 29 30  1  0  0  0  0
 31 30  1  0  0  0  0
 31 32  1  0  0  0  0
 32 33  1  0  0  0  0
 33 34  1  0  0  0  0
 34 35  1  0  0  0  0
 36  2  1  0  0  0  0
 37 36  1  0  0  0  0
 38 42  1  6  0  0  0
 38 41  1  0  0  0  0
 39 57  1  6  0  0  0
 39 43  1  0  0  0  0
 40 44  1  0  0  0  0
 41 39  1  0  0  0  0
 42 40  1  0  0  0  0
 42 41  2  0  0  0  0
 43 37  1  1  0  0  0
 44 43  1  0  0  0  0
 45 47  1  0  0  0  0
 46 45  1  6  0  0  0
 46 38  1  0  0  0  0
 46 49  1  0  0  0  0
 47 50  1  1  0  0  0
 47 48  1  0  0  0  0
 49 48  1  0  0  0  0
 50 51  1  0  0  0  0
 51 52  1  0  0  0  0
 53 54  2  0  0  0  0
 53 52  1  0  0  0  0
 56 57  2  0  0  0  0
 57 55  1  0  0  0  0
M  END
>  <MODEL>
1

>  <REMARK>
 VINA RESULT:      -5.8      0.000      0.000
  Name = 
  25 active torsions:
  status: ('A' for Active; 'I' for Inactive)
    1  A    between atoms: C_1  and  N_15
    2  A    between atoms: C_1  and  C_54
    3  A    between atoms: C_2  and  N_34
    4  A    between atoms: C_3  and  C_14
    5  A    between atoms: C_3  and  C_50
    6  A    between atoms: C_4  and  C_56
    7  A    between atoms: C_8  and  C_26
    8  A    between atoms: C_8  and  C_46
    9  A    between atoms: C_12  and  C_14
   10  A    between atoms: N_15  and  C_49
   11  A    between atoms: C_16  and  C_55
   12  A    between atoms: N_21  and  C_32
   13  A    between atoms: C_24  and  C_33
   14  A    between atoms: C_24  and  C_50
   15  A    between atoms: C_30  and  C_36
   16  A    between atoms: C_30  and  C_46
   17  A    between atoms: C_31  and  O_44
   18  A    between atoms: C_31  and  C_52
   19  A    between atoms: C_32  and  C_54
   20  A    between atoms: C_33  and  C_41
   21  A    between atoms: C_38  and  N_43
   22  A    between atoms: C_38  and  C_49
   23  A    between atoms: C_39  and  O_44
   24  A    between atoms: C_42  and  N_43
   25  A    between atoms: C_47  and  C_49
                            x       y       z     vdW  Elec       q    Type
                         _______ _______ _______ _____ _____    ______ ____

>  <TORSDO>
F 25

$$$$
=
 OpenBabel10222417343D

 57 62  0  0  1  0  0  0  0  0999 V2000
  189.2270  179.3630  137.9400 S   0  0  0  0  0  1  0  0  0  0  0  0
  188.6280  177.7270  138.5020 C   0  0  1  0  0  0  0  0  0  0  0  0
  188.8640  176.7080  137.4090 C   0  0  0  0  0  3  0  0  0  0  0  0
  188.8710  175.3980  137.6610 C   0  0  0  0  0  3  0  0  0  0  0  0
  187.8400  174.5080  135.6380 C   0  0  0  0  0  1  0  0  0  0  0  0
  189.0390  174.4020  136.5650 C   0  0  1  0  0  3  0  0  0  0  0  0
  190.2580  174.6800  135.8750 O   0  0  0  0  0  0  0  0  0  0  0  0
  192.2140  173.1660  136.4770 C   0  0  1  0  0  3  0  0  0  0  0  0
  193.5650  173.6300  136.9290 C   0  0  1  0  0  3  0  0  0  0  0  0
  195.2860  174.9490  136.3850 C   0  0  0  0  0  3  0  0  0  0  0  0
  192.1910  175.4570  137.0100 N   0  0  0  0  0  0  0  0  0  0  0  0
  194.5880  175.6750  137.1900 N   0  0  0  0  0  0  0  0  0  0  0  0
  194.6430  173.6640  136.1490 C   0  0  0  0  0  2  0  0  0  0  0  0
  191.5280  174.4980  136.4380 C   0  0  0  0  0  0  0  0  0  0  0  0
  193.4100  174.9320  137.6120 C   0  0  2  0  0  3  0  0  0  0  0  0
  191.2010  171.7840  134.6970 C   0  0  0  0  0  2  0  0  0  0  0  0
  192.2270  172.5280  135.1130 C   0  0  0  0  0  3  0  0  0  0  0  0
  189.2930  177.3330  139.7530 N   0  0  0  0  0  2  0  0  0  0  0  0
  190.7260  177.1140  139.5770 C   0  0  0  0  0  2  0  0  0  0  0  0
  191.4660  177.5260  140.8330 C   0  0  0  0  0  2  0  0  0  0  0  0
  191.0710  176.6320  141.9930 C   0  0  0  0  0  2  0  0  0  0  0  0
  191.6230  179.3360  143.8380 C   0  0  0  0  0  1  0  0  0  0  0  0
  188.6700  177.8340  144.5680 N   0  0  0  0  0  2  0  0  0  0  0  0
  188.1410  176.9130  142.4750 O   0  0  0  0  0  0  0  0  0  0  0  0
  190.3790  177.4110  143.0090 N   0  0  0  0  0  0  0  0  0  0  0  0
  188.9970  177.3550  143.2840 C   0  0  0  0  0  0  0  0  0  0  0  0
  191.0400  177.9730  144.1790 C   0  0  2  0  0  3  0  0  0  0  0  0
  189.9270  178.1590  145.2320 C   0  0  2  0  0  3  0  0  0  0  0  0
  190.1560  177.1880  146.3710 C   0  0  0  0  0  2  0  0  0  0  0  0
  188.8340  176.7930  146.9980 C   0  0  0  0  0  2  0  0  0  0  0  0
  188.1100  178.0290  147.5040 C   0  0  0  0  0  2  0  0  0  0  0  0
  186.6020  177.8110  147.5070 C   0  0  0  0  0  2  0  0  0  0  0  0
  185.8680  179.0230  146.9500 C   0  0  0  0  0  2  0  0  0  0  0  0
  184.7650  178.5860  146.0030 C   0  0  0  0  0  2  0  0  0  0  0  0
  185.3330  178.3820  144.6150 C   0  0  0  0  0  1  0  0  0  0  0  0
  187.1250  177.8120  138.7940 C   0  0  0  0  0  2  0  0  0  0  0  0
  186.3770  178.2660  137.6260 N   0  0  0  0  0  2  0  0  0  0  0  0
  181.4250  178.6100  138.1550 C   0  0  2  0  0  3  0  0  0  0  0  0
  184.2240  178.9090  138.6570 C   0  0  2  0  0  3  0  0  0  0  0  0
  182.8850  176.9960  136.3050 C   0  0  0  0  0  2  0  0  0  0  0  0
  182.8200  178.6650  138.3140 C   0  0  0  0  0  0  0  0  0  0  0  0
  182.2450  177.8530  137.3010 C   0  0  0  0  0  0  0  0  0  0  0  0
  185.0010  177.8370  137.7980 C   0  0  1  0  0  3  0  0  0  0  0  0
  184.3900  177.4450  136.3740 C   0  0  0  0  0  2  0  0  0  0  0  0
  179.4500  179.7800  137.6720 C   0  0  0  0  0  2  0  0  0  0  0  0
  180.8830  179.7480  137.4030 N   0  0  1  0  0  0  0  0  0  0  0  0
  179.1510  180.8990  138.6410 C   0  0  2  0  0  3  0  0  0  0  0  0
  180.3610  181.7930  138.6060 C   0  0  0  0  0  2  0  0  0  0  0  0
  181.4340  181.0230  137.8680 C   0  0  0  0  0  2  0  0  0  0  0  0
  178.9340  180.3270  140.0400 C   0  0  0  0  0  2  0  0  0  0  0  0
  180.2200  180.3420  140.8620 C   0  0  0  0  0  2  0  0  0  0  0  0
  180.2430  179.2010  141.8630 C   0  0  0  0  0  2  0  0  0  0  0  0
  181.6320  179.0240  142.3920 C   0  0  0  0  0  3  0  0  0  0  0  0
  181.8400  178.8770  143.7000 C   0  0  0  0  0  2  0  0  0  0  0  0
  185.1760  179.4320  140.8040 O   0  0  0  0  0  1  0  0  0  0  0  0
  183.8480  177.5610  140.7320 O   0  0  0  0  0  0  0  0  0  0  0  0
  184.4350  178.6650  140.1230 C   0  0  0  0  0  0  0  0  0  0  0  0
  2  1  1  6  0  0  0
  2 36  1  0  0  0  0
  2 18  1  0  0  0  0
  3  4  2  0  0  0  0
  3  2  1  0  0  0  0
  6  5  1  6  0  0  0
  6  4  1  0  0  0  0
  7 14  1  0  0  0  0
  7  6  1  0  0  0  0
  8 17  1  6  0  0  0
  8  9  1  0  0  0  0
  9 13  1  6  0  0  0
  9 15  1  0  0  0  0
 10 12  2  0  0  0  0
 12 15  1  0  0  0  0
 13 10  1  0  0  0  0
 14  8  1  0  0  0  0
 14 11  2  0  0  0  0
 15 11  1  6  0  0  0
 16 17  2  0  0  0  0
 19 18  1  0  0  0  0
 19 20  1  0  0  0  0
 20 21  1  0  0  0  0
 21 25  1  0  0  0  0
 23 28  1  0  0  0  0
 24 26  2  0  0  0  0
 25 26  1  0  0  0  0
 25 27  1  0  0  0  0
 26 23  1  0  0  0  0
 27 22  1  6  0  0  0
 27 28  1  0  0  0  0
 28 29  1  1  0  0  0
 29 30  1  0  0  0  0
 30 31  1  0  0  0  0
 31 32  1  0  0  0  0
 33 32  1  0  0  0  0
 34 33  1  0  0  0  0
 35 34  1  0  0  0  0
 37 36  1  0  0  0  0
 38 42  1  6  0  0  0
 38 41  1  0  0  0  0
 39 57  1  1  0  0  0
 40 44  1  0  0  0  0
 40 42  1  0  0  0  0
 41 39  1  0  0  0  0
 42 41  2  0  0  0  0
 43 37  1  6  0  0  0
 43 39  1  0  0  0  0
 44 43  1  0  0  0  0
 45 47  1  0  0  0  0
 46 45  1  1  0  0  0
 46 49  1  0  0  0  0
 46 38  1  0  0  0  0
 47 50  1  1  0  0  0
 48 47  1  0  0  0  0
 49 48  1  0  0  0  0
 50 51  1  0  0  0  0
 51 52  1  0  0  0  0
 52 53  1  0  0  0  0
 53 54  2  0  0  0  0
 57 56  2  0  0  0  0
 57 55  1  0  0  0  0
M  END
>  <MODEL>
2

>  <REMARK>
 VINA RESULT:      -5.4      2.569      9.719
  Name = 
  25 active torsions:
  status: ('A' for Active; 'I' for Inactive)
    1  A    between atoms: C_1  and  N_15
    2  A    between atoms: C_1  and  C_54
    3  A    between atoms: C_2  and  N_34
    4  A    between atoms: C_3  and  C_14
    5  A    between atoms: C_3  and  C_50
    6  A    between atoms: C_4  and  C_56
    7  A    between atoms: C_8  and  C_26
    8  A    between atoms: C_8  and  C_46
    9  A    between atoms: C_12  and  C_14
   10  A    between atoms: N_15  and  C_49
   11  A    between atoms: C_16  and  C_55
   12  A    between atoms: N_21  and  C_32
   13  A    between atoms: C_24  and  C_33
   14  A    between atoms: C_24  and  C_50
   15  A    between atoms: C_30  and  C_36
   16  A    between atoms: C_30  and  C_46
   17  A    between atoms: C_31  and  O_44
   18  A    between atoms: C_31  and  C_52
   19  A    between atoms: C_32  and  C_54
   20  A    between atoms: C_33  and  C_41
   21  A    between atoms: C_38  and  N_43
   22  A    between atoms: C_38  and  C_49
   23  A    between atoms: C_39  and  O_44
   24  A    between atoms: C_42  and  N_43
   25  A    between atoms: C_47  and  C_49
                            x       y       z     vdW  Elec       q    Type
                         _______ _______ _______ _____ _____    ______ ____

>  <TORSDO>
F 25

$$$$
=
 OpenBabel10222417343D

 57 62  0  0  1  0  0  0  0  0999 V2000
  188.0790  176.4530  141.8860 S   0  0  0  0  0  1  0  0  0  0  0  0
  188.3340  178.2560  141.6990 C   0  0  1  0  0  0  0  0  0  0  0  0
  189.4850  178.6900  142.5790 C   0  0  0  0  0  3  0  0  0  0  0  0
  190.4540  177.8450  142.9350 C   0  0  0  0  0  3  0  0  0  0  0  0
  191.4720  179.7970  143.9860 C   0  0  0  0  0  1  0  0  0  0  0  0
  191.6170  178.3040  143.7470 C   0  0  1  0  0  3  0  0  0  0  0  0
  191.6340  177.5770  144.9770 O   0  0  0  0  0  0  0  0  0  0  0  0
  190.5000  176.3950  146.9240 C   0  0  1  0  0  3  0  0  0  0  0  0
  189.1270  176.6960  147.4440 C   0  0  1  0  0  3  0  0  0  0  0  0
  187.8160  178.3370  148.2100 C   0  0  0  0  0  3  0  0  0  0  0  0
  189.3160  177.7850  145.4400 N   0  0  0  0  0  0  0  0  0  0  0  0
  187.5030  178.2530  146.9620 N   0  0  0  0  0  0  0  0  0  0  0  0
  188.8820  177.4030  148.5440 C   0  0  0  0  0  2  0  0  0  0  0  0
  190.4870  177.3060  145.7340 C   0  0  0  0  0  0  0  0  0  0  0  0
  188.3080  177.2200  146.3290 C   0  0  2  0  0  3  0  0  0  0  0  0
  192.5450  175.9030  148.2210 C   0  0  0  0  0  2  0  0  0  0  0  0
  191.5970  176.7780  147.8820 C   0  0  0  0  0  3  0  0  0  0  0  0
  188.5770  178.6010  140.2910 N   0  0  0  0  0  2  0  0  0  0  0  0
  189.0580  177.4620  139.5130 C   0  0  0  0  0  2  0  0  0  0  0  0
  189.7230  177.9530  138.2430 C   0  0  0  0  0  2  0  0  0  0  0  0
  190.5150  176.8310  137.5970 C   0  0  0  0  0  2  0  0  0  0  0  0
  188.7810  176.9350  134.7680 C   0  0  0  0  0  1  0  0  0  0  0  0
  188.2770  174.0670  136.5070 N   0  0  0  0  0  2  0  0  0  0  0  0
  190.3560  173.8530  137.5730 O   0  0  0  0  0  0  0  0  0  0  0  0
  189.6240  175.9660  136.8400 N   0  0  0  0  0  0  0  0  0  0  0  0
  189.4900  174.5730  137.0140 C   0  0  0  0  0  0  0  0  0  0  0  0
  188.4250  176.4440  136.1630 C   0  0  2  0  0  3  0  0  0  0  0  0
  187.5050  175.2110  136.0330 C   0  0  2  0  0  3  0  0  0  0  0  0
  186.2950  175.4010  136.9220 C   0  0  0  0  0  2  0  0  0  0  0  0
  185.2430  176.2250  136.2080 C   0  0  0  0  0  2  0  0  0  0  0  0
  183.9760  176.2870  137.0430 C   0  0  0  0  0  2  0  0  0  0  0  0
  182.8720  175.4430  136.4170 C   0  0  0  0  0  2  0  0  0  0  0  0
  183.4230  174.1380  135.8600 C   0  0  0  0  0  2  0  0  0  0  0  0
  182.8640  172.9540  136.6290 C   0  0  0  0  0  2  0  0  0  0  0  0
  181.3770  173.1370  136.8410 C   0  0  0  0  0  1  0  0  0  0  0  0
  187.0620  178.9940  142.1340 C   0  0  0  0  0  2  0  0  0  0  0  0
  186.0150  178.0630  142.5440 N   0  0  0  0  0  2  0  0  0  0  0  0
  181.3490  178.6730  140.8810 C   0  0  2  0  0  3  0  0  0  0  0  0
  184.1750  178.2390  140.9040 C   0  0  2  0  0  3  0  0  0  0  0  0
  182.3390  179.0990  143.5260 C   0  0  0  0  0  2  0  0  0  0  0  0
  182.7370  178.5000  141.0150 C   0  0  0  0  0  0  0  0  0  0  0  0
  181.9480  178.8600  142.1380 C   0  0  0  0  0  0  0  0  0  0  0  0
  184.7390  178.7100  142.3010 C   0  0  1  0  0  3  0  0  0  0  0  0
  183.8010  178.5210  143.5800 C   0  0  0  0  0  2  0  0  0  0  0  0
  179.3000  177.6860  140.3060 C   0  0  0  0  0  2  0  0  0  0  0  0
  180.6040  177.4080  140.8960 N   0  0  1  0  0  0  0  0  0  0  0  0
  179.2630  177.1320  138.9000 C   0  0  2  0  0  3  0  0  0  0  0  0
  180.4040  176.1540  138.8250 C   0  0  0  0  0  2  0  0  0  0  0  0
  181.2430  176.3880  140.0610 C   0  0  0  0  0  2  0  0  0  0  0  0
  179.4470  178.2660  137.8930 C   0  0  0  0  0  2  0  0  0  0  0  0
  180.9210  178.6040  137.6880 C   0  0  0  0  0  2  0  0  0  0  0  0
  181.0900  179.7220  136.6750 C   0  0  0  0  0  2  0  0  0  0  0  0
  180.5040  179.3020  135.3620 C   0  0  0  0  0  3  0  0  0  0  0  0
  181.1340  178.4100  134.5990 C   0  0  0  0  0  2  0  0  0  0  0  0
  184.2870  180.2130  139.5320 O   0  0  0  0  0  1  0  0  0  0  0  0
  185.7860  178.5520  139.0140 O   0  0  0  0  0  0  0  0  0  0  0  0
  184.7540  179.0670  139.7930 C   0  0  0  0  0  0  0  0  0  0  0  0
  2  1  1  1  0  0  0
  2 36  1  0  0  0  0
  2  3  1  0  0  0  0
  3  4  2  0  0  0  0
  4  6  1  0  0  0  0
  6  5  1  1  0  0  0
  6  7  1  0  0  0  0
  7 14  1  0  0  0  0
  8  9  1  0  0  0  0
  8 17  1  1  0  0  0
  9 13  1  1  0  0  0
 10 13  1  0  0  0  0
 11 14  2  0  0  0  0
 12 10  2  0  0  0  0
 14  8  1  0  0  0  0
 15 11  1  6  0  0  0
 15 12  1  0  0  0  0
 15  9  1  0  0  0  0
 17 16  2  0  0  0  0
 18  2  1  0  0  0  0
 19 18  1  0  0  0  0
 20 19  1  0  0  0  0
 21 20  1  0  0  0  0
 23 26  1  0  0  0  0
 25 26  1  0  0  0  0
 25 21  1  0  0  0  0
 26 24  2  0  0  0  0
 27 22  1  6  0  0  0
 27 25  1  0  0  0  0
 28 27  1  0  0  0  0
 28 23  1  0  0  0  0
 28 29  1  1  0  0  0
 30 29  1  0  0  0  0
 30 31  1  0  0  0  0
 32 31  1  0  0  0  0
 33 32  1  0  0  0  0
 33 34  1  0  0  0  0
 34 35  1  0  0  0  0
 36 37  1  0  0  0  0
 38 46  1  0  0  0  0
 38 41  1  6  0  0  0
 38 42  1  0  0  0  0
 39 57  1  6  0  0  0
 39 41  1  0  0  0  0
 39 43  1  0  0  0  0
 40 44  1  0  0  0  0
 41 42  2  0  0  0  0
 42 40  1  0  0  0  0
 43 37  1  1  0  0  0
 43 44  1  0  0  0  0
 45 46  1  0  0  0  0
 46 49  1  6  0  0  0
 47 50  1  6  0  0  0
 47 45  1  0  0  0  0
 48 47  1  0  0  0  0
 48 49  1  0  0  0  0
 51 50  1  0  0  0  0
 52 51  1  0  0  0  0
 53 52  1  0  0  0  0
 54 53  2  0  0  0  0
 55 57  1  0  0  0  0
 56 57  2  0  0  0  0
M  END
>  <MODEL>
3

>  <REMARK>
 VINA RESULT:      -5.2      2.578      7.167
  Name = 
  25 active torsions:
  status: ('A' for Active; 'I' for Inactive)
    1  A    between atoms: C_1  and  N_15
    2  A    between atoms: C_1  and  C_54
    3  A    between atoms: C_2  and  N_34
    4  A    between atoms: C_3  and  C_14
    5  A    between atoms: C_3  and  C_50
    6  A    between atoms: C_4  and  C_56
    7  A    between atoms: C_8  and  C_26
    8  A    between atoms: C_8  and  C_46
    9  A    between atoms: C_12  and  C_14
   10  A    between atoms: N_15  and  C_49
   11  A    between atoms: C_16  and  C_55
   12  A    between atoms: N_21  and  C_32
   13  A    between atoms: C_24  and  C_33
   14  A    between atoms: C_24  and  C_50
   15  A    between atoms: C_30  and  C_36
   16  A    between atoms: C_30  and  C_46
   17  A    between atoms: C_31  and  O_44
   18  A    between atoms: C_31  and  C_52
   19  A    between atoms: C_32  and  C_54
   20  A    between atoms: C_33  and  C_41
   21  A    between atoms: C_38  and  N_43
   22  A    between atoms: C_38  and  C_49
   23  A    between atoms: C_39  and  O_44
   24  A    between atoms: C_42  and  N_43
   25  A    between atoms: C_47  and  C_49
                            x       y       z     vdW  Elec       q    Type
                         _______ _______ _______ _____ _____    ______ ____

>  <TORSDO>
F 25

$$$$
=
 OpenBabel10222417343D

 57 62  0  0  1  0  0  0  0  0999 V2000
  189.0730  179.2570  138.2050 S   0  0  0  0  0  1  0  0  0  0  0  0
  188.7770  177.4570  138.3620 C   0  0  1  0  0  0  0  0  0  0  0  0
  189.1310  176.7780  137.0580 C   0  0  0  0  0  3  0  0  0  0  0  0
  189.2230  175.4510  136.9600 C   0  0  0  0  0  3  0  0  0  0  0  0
  188.4010  175.1650  134.6810 C   0  0  0  0  0  1  0  0  0  0  0  0
  189.5070  174.7920  135.6540 C   0  0  1  0  0  3  0  0  0  0  0  0
  190.7830  175.2290  135.1850 O   0  0  0  0  0  0  0  0  0  0  0  0
  192.4310  173.6960  136.3740 C   0  0  1  0  0  3  0  0  0  0  0  0
  193.8170  174.0740  136.8020 C   0  0  1  0  0  3  0  0  0  0  0  0
  195.7560  174.9140  136.0730 C   0  0  0  0  0  3  0  0  0  0  0  0
  192.7600  176.0220  136.2320 N   0  0  0  0  0  0  0  0  0  0  0  0
  195.1480  175.9370  136.5700 N   0  0  0  0  0  0  0  0  0  0  0  0
  194.9220  173.7220  136.1510 C   0  0  0  0  0  2  0  0  0  0  0  0
  191.9770  175.0420  135.8950 C   0  0  0  0  0  0  0  0  0  0  0  0
  193.8450  175.5280  137.0710 C   0  0  2  0  0  3  0  0  0  0  0  0
  192.4600  171.3820  135.5090 C   0  0  0  0  0  2  0  0  0  0  0  0
  192.4060  172.6900  135.2540 C   0  0  0  0  0  3  0  0  0  0  0  0
  189.5520  176.9010  139.4810 N   0  0  0  0  0  2  0  0  0  0  0  0
  190.9880  177.1200  139.3290 C   0  0  0  0  0  2  0  0  0  0  0  0
  191.5670  177.6460  140.6260 C   0  0  0  0  0  2  0  0  0  0  0  0
  191.4270  176.6080  141.7230 C   0  0  0  0  0  2  0  0  0  0  0  0
  191.3320  179.3400  143.6070 C   0  0  0  0  0  1  0  0  0  0  0  0
  189.0140  177.0390  144.5210 N   0  0  0  0  0  2  0  0  0  0  0  0
  188.5940  176.0210  142.4480 O   0  0  0  0  0  0  0  0  0  0  0  0
  190.6300  177.1440  142.8160 N   0  0  0  0  0  0  0  0  0  0  0  0
  189.3530  176.6860  143.1990 C   0  0  0  0  0  0  0  0  0  0  0  0
  191.2000  177.8630  143.9480 C   0  0  2  0  0  3  0  0  0  0  0  0
  190.1770  177.7090  145.0930 C   0  0  2  0  0  3  0  0  0  0  0  0
  190.7740  176.8360  146.1770 C   0  0  0  0  0  2  0  0  0  0  0  0
  189.8060  176.7040  147.3350 C   0  0  0  0  0  2  0  0  0  0  0  0
  189.2330  178.0640  147.6920 C   0  0  0  0  0  2  0  0  0  0  0  0
  188.2330  177.9500  148.8370 C   0  0  0  0  0  2  0  0  0  0  0  0
  186.8440  178.3940  148.4030 C   0  0  0  0  0  2  0  0  0  0  0  0
  186.8260  178.7070  146.9170 C   0  0  0  0  0  2  0  0  0  0  0  0
  186.1700  177.5700  146.1630 C   0  0  0  0  0  1  0  0  0  0  0  0
  187.2950  177.2140  138.6700 C   0  0  0  0  0  2  0  0  0  0  0  0
  186.4430  177.6040  137.5520 N   0  0  0  0  0  2  0  0  0  0  0  0
  181.6140  176.5490  136.8580 C   0  0  2  0  0  3  0  0  0  0  0  0
  184.0020  177.9840  137.5020 C   0  0  2  0  0  3  0  0  0  0  0  0
  183.8260  174.7410  136.8410 C   0  0  0  0  0  2  0  0  0  0  0  0
  182.8490  177.1410  137.1750 C   0  0  0  0  0  0  0  0  0  0  0  0
  182.7730  175.7540  136.8830 C   0  0  0  0  0  0  0  0  0  0  0  0
  185.1640  176.9410  137.7260 C   0  0  1  0  0  3  0  0  0  0  0  0
  185.1400  175.6050  136.8500 C   0  0  0  0  0  2  0  0  0  0  0  0
  179.8340  177.2250  135.4880 C   0  0  0  0  0  2  0  0  0  0  0  0
  181.2150  176.7570  135.4610 N   0  0  1  0  0  0  0  0  0  0  0  0
  179.8080  178.7100  135.2110 C   0  0  2  0  0  3  0  0  0  0  0  0
  181.1460  179.0270  134.5990 C   0  0  0  0  0  2  0  0  0  0  0  0
  182.0090  177.8040  134.8160 C   0  0  0  0  0  2  0  0  0  0  0  0
  179.6100  179.4760  136.5180 C   0  0  0  0  0  2  0  0  0  0  0  0
  178.9310  180.8230  136.2840 C   0  0  0  0  0  2  0  0  0  0  0  0
  179.6300  181.9290  137.0540 C   0  0  0  0  0  2  0  0  0  0  0  0
  181.0620  181.5550  137.2800 C   0  0  0  0  0  3  0  0  0  0  0  0
  181.6720  181.8860  138.4180 C   0  0  0  0  0  2  0  0  0  0  0  0
  182.6380  178.5910  139.3890 O   0  0  0  0  0  1  0  0  0  0  0  0
  184.6570  179.6730  139.2290 O   0  0  0  0  0  0  0  0  0  0  0  0
  183.7270  178.7490  138.7650 C   0  0  0  0  0  0  0  0  0  0  0  0
  2  1  1  6  0  0  0
  2 36  1  0  0  0  0
  2 18  1  0  0  0  0
  3  2  1  0  0  0  0
  4  3  2  0  0  0  0
  6  5  1  6  0  0  0
  6  4  1  0  0  0  0
  7  6  1  0  0  0  0
  7 14  1  0  0  0  0
  8 17  1  6  0  0  0
  8  9  1  0  0  0  0
  9 13  1  6  0  0  0
  9 15  1  0  0  0  0
 10 13  1  0  0  0  0
 10 12  2  0  0  0  0
 12 15  1  0  0  0  0
 14 11  2  0  0  0  0
 14  8  1  0  0  0  0
 15 11  1  6  0  0  0
 17 16  2  0  0  0  0
 19 18  1  0  0  0  0
 19 20  1  0  0  0  0
 20 21  1  0  0  0  0
 21 25  1  0  0  0  0
 23 28  1  0  0  0  0
 24 26  2  0  0  0  0
 25 26  1  0  0  0  0
 25 27  1  0  0  0  0
 26 23  1  0  0  0  0
 27 22  1  6  0  0  0
 27 28  1  0  0  0  0
 28 29  1  1  0  0  0
 29 30  1  0  0  0  0
 30 31  1  0  0  0  0
 31 32  1  0  0  0  0
 33 32  1  0  0  0  0
 34 33  1  0  0  0  0
 35 34  1  0  0  0  0
 37 36  1  0  0  0  0
 38 42  1  6  0  0  0
 38 41  1  0  0  0  0
 39 43  1  0  0  0  0
 39 57  1  1  0  0  0
 40 44  1  0  0  0  0
 40 42  1  0  0  0  0
 41 39  1  0  0  0  0
 42 41  2  0  0  0  0
 43 37  1  6  0  0  0
 44 43  1  0  0  0  0
 46 49  1  1  0  0  0
 46 45  1  0  0  0  0
 46 38  1  0  0  0  0
 47 45  1  0  0  0  0
 47 50  1  1  0  0  0
 48 49  1  0  0  0  0
 48 47  1  0  0  0  0
 51 50  1  0  0  0  0
 51 52  1  0  0  0  0
 52 53  1  0  0  0  0
 53 54  2  0  0  0  0
 57 56  2  0  0  0  0
 57 55  1  0  0  0  0
M  END
>  <MODEL>
4

>  <REMARK>
 VINA RESULT:      -4.7      2.564      9.869
  Name = 
  25 active torsions:
  status: ('A' for Active; 'I' for Inactive)
    1  A    between atoms: C_1  and  N_15
    2  A    between atoms: C_1  and  C_54
    3  A    between atoms: C_2  and  N_34
    4  A    between atoms: C_3  and  C_14
    5  A    between atoms: C_3  and  C_50
    6  A    between atoms: C_4  and  C_56
    7  A    between atoms: C_8  and  C_26
    8  A    between atoms: C_8  and  C_46
    9  A    between atoms: C_12  and  C_14
   10  A    between atoms: N_15  and  C_49
   11  A    between atoms: C_16  and  C_55
   12  A    between atoms: N_21  and  C_32
   13  A    between atoms: C_24  and  C_33
   14  A    between atoms: C_24  and  C_50
   15  A    between atoms: C_30  and  C_36
   16  A    between atoms: C_30  and  C_46
   17  A    between atoms: C_31  and  O_44
   18  A    between atoms: C_31  and  C_52
   19  A    between atoms: C_32  and  C_54
   20  A    between atoms: C_33  and  C_41
   21  A    between atoms: C_38  and  N_43
   22  A    between atoms: C_38  and  C_49
   23  A    between atoms: C_39  and  O_44
   24  A    between atoms: C_42  and  N_43
   25  A    between atoms: C_47  and  C_49
                            x       y       z     vdW  Elec       q    Type
                         _______ _______ _______ _____ _____    ______ ____

>  <TORSDO>
F 25

$$$$
=
 OpenBabel10222417343D

 57 62  0  0  1  0  0  0  0  0999 V2000
  182.6990  176.2420  139.4920 S   0  0  0  0  0  1  0  0  0  0  0  0
  183.4120  177.8060  138.8600 C   0  0  1  0  0  0  0  0  0  0  0  0
  182.5640  178.3140  137.7160 C   0  0  0  0  0  3  0  0  0  0  0  0
  181.3620  177.8000  137.4510 C   0  0  0  0  0  3  0  0  0  0  0  0
  180.8750  179.8160  136.1670 C   0  0  0  0  0  1  0  0  0  0  0  0
  180.5080  178.3550  136.3630 C   0  0  1  0  0  3  0  0  0  0  0  0
  180.7310  177.5970  135.1720 O   0  0  0  0  0  0  0  0  0  0  0  0
  181.9850  175.4600  134.5940 C   0  0  1  0  0  3  0  0  0  0  0  0
  181.6160  174.0830  135.0560 C   0  0  1  0  0  3  0  0  0  0  0  0
  181.1880  172.8530  136.8730 C   0  0  0  0  0  3  0  0  0  0  0  0
  179.8370  175.4320  135.5510 N   0  0  0  0  0  0  0  0  0  0  0  0
  180.0180  173.2040  136.4590 N   0  0  0  0  0  0  0  0  0  0  0  0
  182.2320  173.4360  136.0420 C   0  0  0  0  0  2  0  0  0  0  0  0
  180.8030  176.1980  135.1440 C   0  0  0  0  0  0  0  0  0  0  0  0
  180.1550  174.0370  135.2740 C   0  0  2  0  0  3  0  0  0  0  0  0
  184.3030  175.1520  135.3940 C   0  0  0  0  0  2  0  0  0  0  0  0
  183.2670  175.9690  135.1990 C   0  0  0  0  0  3  0  0  0  0  0  0
  183.5100  178.8020  139.9370 N   0  0  0  0  0  2  0  0  0  0  0  0
  184.2400  178.3000  141.0970 C   0  0  0  0  0  2  0  0  0  0  0  0
  184.0060  179.2110  142.2850 C   0  0  0  0  0  2  0  0  0  0  0  0
  185.3160  179.4960  142.9950 C   0  0  0  0  0  2  0  0  0  0  0  0
  183.6190  178.5740  145.6950 C   0  0  0  0  0  1  0  0  0  0  0  0
  186.6760  177.1170  145.5100 N   0  0  0  0  0  2  0  0  0  0  0  0
  186.9470  177.0060  143.1820 O   0  0  0  0  0  0  0  0  0  0  0  0
  185.4790  178.5890  144.1210 N   0  0  0  0  0  0  0  0  0  0  0  0
  186.4050  177.5280  144.1900 C   0  0  0  0  0  0  0  0  0  0  0  0
  185.0850  178.9210  145.4830 C   0  0  2  0  0  3  0  0  0  0  0  0
  185.9440  178.0170  146.3940 C   0  0  2  0  0  3  0  0  0  0  0  0
  186.9280  178.8770  147.1580 C   0  0  0  0  0  2  0  0  0  0  0  0
  187.8130  178.0110  148.0310 C   0  0  0  0  0  2  0  0  0  0  0  0
  189.2550  178.1030  147.5610 C   0  0  0  0  0  2  0  0  0  0  0  0
  189.8790  176.7170  147.4490 C   0  0  0  0  0  2  0  0  0  0  0  0
  191.1430  176.7480  146.6040 C   0  0  0  0  0  2  0  0  0  0  0  0
  190.8840  177.4570  145.2860 C   0  0  0  0  0  2  0  0  0  0  0  0
  191.4930  176.6650  144.1500 C   0  0  0  0  0  1  0  0  0  0  0  0
  184.8350  177.5440  138.3530 C   0  0  0  0  0  2  0  0  0  0  0  0
  185.5550  178.7890  138.1090 N   0  0  0  0  0  2  0  0  0  0  0  0
  188.9850  176.0550  135.7260 C   0  0  2  0  0  3  0  0  0  0  0  0
  187.4840  177.2680  137.8360 C   0  0  2  0  0  3  0  0  0  0  0  0
  187.1800  177.9670  134.6110 C   0  0  0  0  0  2  0  0  0  0  0  0
  188.1970  176.7300  136.6740 C   0  0  0  0  0  0  0  0  0  0  0  0
  188.0620  177.0220  135.2920 C   0  0  0  0  0  0  0  0  0  0  0  0
  186.6730  178.4820  137.2360 C   0  0  1  0  0  3  0  0  0  0  0  0
  186.1460  178.3500  135.7330 C   0  0  0  0  0  2  0  0  0  0  0  0
  189.5980  173.9580  134.8740 C   0  0  0  0  0  2  0  0  0  0  0  0
  188.4690  174.7240  135.3870 N   0  0  1  0  0  0  0  0  0  0  0  0
  190.0560  172.9800  135.9310 C   0  0  2  0  0  3  0  0  0  0  0  0
  188.9160  172.8830  136.9080 C   0  0  0  0  0  2  0  0  0  0  0  0
  187.9710  174.0140  136.5680 C   0  0  0  0  0  2  0  0  0  0  0  0
  191.3170  173.5090  136.6130 C   0  0  0  0  0  2  0  0  0  0  0  0
  192.4480  173.7320  135.6130 C   0  0  0  0  0  2  0  0  0  0  0  0
  193.7210  174.1660  136.3160 C   0  0  0  0  0  2  0  0  0  0  0  0
  194.3160  173.0000  137.0430 C   0  0  0  0  0  3  0  0  0  0  0  0
  195.3790  172.3680  136.5470 C   0  0  0  0  0  2  0  0  0  0  0  0
  188.2810  177.5310  140.0910 O   0  0  0  0  0  1  0  0  0  0  0  0
  189.5880  178.4730  138.4550 O   0  0  0  0  0  0  0  0  0  0  0  0
  188.4730  177.7460  138.8590 C   0  0  0  0  0  0  0  0  0  0  0  0
  2  1  1  1  0  0  0
  2 18  1  0  0  0  0
  3  2  1  0  0  0  0
  4  3  2  0  0  0  0
  6  5  1  6  0  0  0
  6  4  1  0  0  0  0
  7  6  1  0  0  0  0
  8  9  1  0  0  0  0
  8 14  1  0  0  0  0
  8 17  1  1  0  0  0
  9 15  1  0  0  0  0
  9 13  1  1  0  0  0
 12 10  2  0  0  0  0
 13 10  1  0  0  0  0
 14  7  1  0  0  0  0
 14 11  2  0  0  0  0
 15 11  1  1  0  0  0
 15 12  1  0  0  0  0
 17 16  2  0  0  0  0
 18 19  1  0  0  0  0
 19 20  1  0  0  0  0
 20 21  1  0  0  0  0
 21 25  1  0  0  0  0
 23 28  1  0  0  0  0
 24 26  2  0  0  0  0
 25 26  1  0  0  0  0
 25 27  1  0  0  0  0
 26 23  1  0  0  0  0
 27 22  1  6  0  0  0
 27 28  1  0  0  0  0
 28 29  1  6  0  0  0
 29 30  1  0  0  0  0
 31 30  1  0  0  0  0
 32 31  1  0  0  0  0
 33 32  1  0  0  0  0
 34 33  1  0  0  0  0
 35 34  1  0  0  0  0
 36  2  1  0  0  0  0
 37 36  1  0  0  0  0
 38 42  1  6  0  0  0
 38 41  1  0  0  0  0
 39 57  1  1  0  0  0
 40 42  1  0  0  0  0
 40 44  1  0  0  0  0
 41 39  1  0  0  0  0
 42 41  2  0  0  0  0
 43 39  1  0  0  0  0
 43 37  1  1  0  0  0
 44 43  1  0  0  0  0
 45 47  1  0  0  0  0
 46 45  1  1  0  0  0
 46 38  1  0  0  0  0
 46 49  1  0  0  0  0
 47 50  1  1  0  0  0
 47 48  1  0  0  0  0
 49 48  1  0  0  0  0
 51 52  1  0  0  0  0
 51 50  1  0  0  0  0
 52 53  1  0  0  0  0
 54 53  2  0  0  0  0
 56 57  2  0  0  0  0
 57 55  1  0  0  0  0
M  END
>  <MODEL>
5

>  <REMARK>
 VINA RESULT:      -4.7      1.839      8.641
  Name = 
  25 active torsions:
  status: ('A' for Active; 'I' for Inactive)
    1  A    between atoms: C_1  and  N_15
    2  A    between atoms: C_1  and  C_54
    3  A    between atoms: C_2  and  N_34
    4  A    between atoms: C_3  and  C_14
    5  A    between atoms: C_3  and  C_50
    6  A    between atoms: C_4  and  C_56
    7  A    between atoms: C_8  and  C_26
    8  A    between atoms: C_8  and  C_46
    9  A    between atoms: C_12  and  C_14
   10  A    between atoms: N_15  and  C_49
   11  A    between atoms: C_16  and  C_55
   12  A    between atoms: N_21  and  C_32
   13  A    between atoms: C_24  and  C_33
   14  A    between atoms: C_24  and  C_50
   15  A    between atoms: C_30  and  C_36
   16  A    between atoms: C_30  and  C_46
   17  A    between atoms: C_31  and  O_44
   18  A    between atoms: C_31  and  C_52
   19  A    between atoms: C_32  and  C_54
   20  A    between atoms: C_33  and  C_41
   21  A    between atoms: C_38  and  N_43
   22  A    between atoms: C_38  and  C_49
   23  A    between atoms: C_39  and  O_44
   24  A    between atoms: C_42  and  N_43
   25  A    between atoms: C_47  and  C_49
                            x       y       z     vdW  Elec       q    Type
                         _______ _______ _______ _____ _____    ______ ____

>  <TORSDO>
F 25

$$$$
=
 OpenBabel10222417343D

 57 62  0  0  1  0  0  0  0  0999 V2000
  183.9420  177.5600  141.4220 S   0  0  0  0  0  1  0  0  0  0  0  0
  184.5200  178.6760  140.0920 C   0  0  1  0  0  0  0  0  0  0  0  0
  183.4250  179.6650  139.7600 C   0  0  0  0  0  3  0  0  0  0  0  0
  182.2850  179.2830  139.1830 C   0  0  0  0  0  3  0  0  0  0  0  0
  181.7520  181.3990  138.0930 C   0  0  0  0  0  1  0  0  0  0  0  0
  181.1880  180.2570  138.9220 C   0  0  1  0  0  3  0  0  0  0  0  0
  180.1310  179.5860  138.2340 O   0  0  0  0  0  0  0  0  0  0  0  0
  180.4580  177.0630  138.3020 C   0  0  1  0  0  3  0  0  0  0  0  0
  180.3190  176.1360  137.1320 C   0  0  1  0  0  3  0  0  0  0  0  0
  178.9310  175.5000  135.4990 C   0  0  0  0  0  3  0  0  0  0  0  0
  180.3480  178.2590  136.2790 N   0  0  0  0  0  0  0  0  0  0  0  0
  179.6960  176.3690  134.9290 N   0  0  0  0  0  0  0  0  0  0  0  0
  179.2580  175.3640  136.9120 C   0  0  0  0  0  2  0  0  0  0  0  0
  180.2900  178.3610  137.5720 C   0  0  0  0  0  0  0  0  0  0  0  0
  180.6490  176.8840  135.9000 C   0  0  2  0  0  3  0  0  0  0  0  0
  179.6220  176.2270  140.4720 C   0  0  0  0  0  2  0  0  0  0  0  0
  179.3790  176.8830  139.3360 C   0  0  0  0  0  3  0  0  0  0  0  0
  185.7570  179.3630  140.4950 N   0  0  0  0  0  2  0  0  0  0  0  0
  186.9500  178.5620  140.2330 C   0  0  0  0  0  2  0  0  0  0  0  0
  187.8610  178.5880  141.4430 C   0  0  0  0  0  2  0  0  0  0  0  0
  189.1450  177.8360  141.1510 C   0  0  0  0  0  2  0  0  0  0  0  0
  188.2390  175.5460  143.3770 C   0  0  0  0  0  1  0  0  0  0  0  0
  191.1450  177.0910  144.1970 N   0  0  0  0  0  2  0  0  0  0  0  0
  191.9750  177.5840  142.0580 O   0  0  0  0  0  0  0  0  0  0  0  0
  189.6670  177.2480  142.3750 N   0  0  0  0  0  0  0  0  0  0  0  0
  191.0040  177.3240  142.8150 C   0  0  0  0  0  0  0  0  0  0  0  0
  188.8380  176.9350  143.5320 C   0  0  2  0  0  3  0  0  0  0  0  0
  189.8010  176.9280  144.7390 C   0  0  2  0  0  3  0  0  0  0  0  0
  189.4770  178.1030  145.6370 C   0  0  0  0  0  2  0  0  0  0  0  0
  188.2460  177.8040  146.4690 C   0  0  0  0  0  2  0  0  0  0  0  0
  187.1020  178.7090  146.0470 C   0  0  0  0  0  2  0  0  0  0  0  0
  185.9270  178.5850  147.0100 C   0  0  0  0  0  2  0  0  0  0  0  0
  184.6520  178.1930  146.2780 C   0  0  0  0  0  2  0  0  0  0  0  0
  184.4370  179.0860  145.0690 C   0  0  0  0  0  2  0  0  0  0  0  0
  182.9990  178.9880  144.6090 C   0  0  0  0  0  1  0  0  0  0  0  0
  184.8460  177.8480  138.8430 C   0  0  0  0  0  2  0  0  0  0  0  0
  185.6960  178.5890  137.9160 N   0  0  0  0  0  2  0  0  0  0  0  0
  186.4840  174.6820  134.9110 C   0  0  2  0  0  3  0  0  0  0  0  0
  186.9530  176.7800  136.7960 C   0  0  2  0  0  3  0  0  0  0  0  0
  184.1660  176.3450  135.0560 C   0  0  0  0  0  2  0  0  0  0  0  0
  186.6010  175.7620  135.8010 C   0  0  0  0  0  0  0  0  0  0  0  0
  185.4050  175.5700  135.0620 C   0  0  0  0  0  0  0  0  0  0  0  0
  185.7710  177.8200  136.6870 C   0  0  1  0  0  3  0  0  0  0  0  0
  184.3200  177.2570  136.3280 C   0  0  0  0  0  2  0  0  0  0  0  0
  187.0190  172.4000  134.9960 C   0  0  0  0  0  2  0  0  0  0  0  0
  186.1510  173.4170  135.5770 N   0  0  1  0  0  0  0  0  0  0  0  0
  188.1200  172.0670  135.9760 C   0  0  2  0  0  3  0  0  0  0  0  0
  187.6420  172.5870  137.3060 C   0  0  0  0  0  2  0  0  0  0  0  0
  186.4440  173.4610  137.0110 C   0  0  0  0  0  2  0  0  0  0  0  0
  189.4150  172.7580  135.5520 C   0  0  0  0  0  2  0  0  0  0  0  0
  190.0350  173.5490  136.7010 C   0  0  0  0  0  2  0  0  0  0  0  0
  191.3970  174.0960  136.3150 C   0  0  0  0  0  2  0  0  0  0  0  0
  192.1200  174.5540  137.5430 C   0  0  0  0  0  3  0  0  0  0  0  0
  193.4130  174.2730  137.7060 C   0  0  0  0  0  2  0  0  0  0  0  0
  188.8910  178.1290  137.2580 O   0  0  0  0  0  1  0  0  0  0  0  0
  188.7560  177.2740  135.1310 O   0  0  0  0  0  0  0  0  0  0  0  0
  188.2580  177.4210  136.4220 C   0  0  0  0  0  0  0  0  0  0  0  0
  2 18  1  0  0  0  0
  2  1  1  1  0  0  0
  3  2  1  0  0  0  0
  4  3  2  0  0  0  0
  6  5  1  6  0  0  0
  6  4  1  0  0  0  0
  7  6  1  0  0  0  0
  8 17  1  1  0  0  0
  9 13  1  6  0  0  0
  9  8  1  0  0  0  0
 10 13  1  0  0  0  0
 11 14  2  0  0  0  0
 12 10  2  0  0  0  0
 14  7  1  0  0  0  0
 14  8  1  0  0  0  0
 15 12  1  6  0  0  0
 15 11  1  0  0  0  0
 15  9  1  0  0  0  0
 17 16  2  0  0  0  0
 19 18  1  0  0  0  0
 19 20  1  0  0  0  0
 21 20  1  0  0  0  0
 21 25  1  0  0  0  0
 23 28  1  0  0  0  0
 24 26  2  0  0  0  0
 25 26  1  0  0  0  0
 25 27  1  0  0  0  0
 26 23  1  0  0  0  0
 27 22  1  6  0  0  0
 27 28  1  0  0  0  0
 28 29  1  1  0  0  0
 29 30  1  0  0  0  0
 31 30  1  0  0  0  0
 31 32  1  0  0  0  0
 33 32  1  0  0  0  0
 34 33  1  0  0  0  0
 35 34  1  0  0  0  0
 36  2  1  0  0  0  0
 37 36  1  0  0  0  0
 38 42  1  6  0  0  0
 38 46  1  0  0  0  0
 38 41  1  0  0  0  0
 39 57  1  6  0  0  0
 40 42  1  0  0  0  0
 40 44  1  0  0  0  0
 41 39  1  0  0  0  0
 42 41  2  0  0  0  0
 43 39  1  0  0  0  0
 43 37  1  1  0  0  0
 44 43  1  0  0  0  0
 45 47  1  0  0  0  0
 46 45  1  6  0  0  0
 46 49  1  0  0  0  0
 47 50  1  6  0  0  0
 47 48  1  0  0  0  0
 49 48  1  0  0  0  0
 50 51  1  0  0  0  0
 52 51  1  0  0  0  0
 52 53  1  0  0  0  0
 53 54  2  0  0  0  0
 56 57  2  0  0  0  0
 57 55  1  0  0  0  0
M  END
>  <MODEL>
6

>  <REMARK>
 VINA RESULT:      -4.7      1.949      8.128
  Name = 
  25 active torsions:
  status: ('A' for Active; 'I' for Inactive)
    1  A    between atoms: C_1  and  N_15
    2  A    between atoms: C_1  and  C_54
    3  A    between atoms: C_2  and  N_34
    4  A    between atoms: C_3  and  C_14
    5  A    between atoms: C_3  and  C_50
    6  A    between atoms: C_4  and  C_56
    7  A    between atoms: C_8  and  C_26
    8  A    between atoms: C_8  and  C_46
    9  A    between atoms: C_12  and  C_14
   10  A    between atoms: N_15  and  C_49
   11  A    between atoms: C_16  and  C_55
   12  A    between atoms: N_21  and  C_32
   13  A    between atoms: C_24  and  C_33
   14  A    between atoms: C_24  and  C_50
   15  A    between atoms: C_30  and  C_36
   16  A    between atoms: C_30  and  C_46
   17  A    between atoms: C_31  and  O_44
   18  A    between atoms: C_31  and  C_52
   19  A    between atoms: C_32  and  C_54
   20  A    between atoms: C_33  and  C_41
   21  A    between atoms: C_38  and  N_43
   22  A    between atoms: C_38  and  C_49
   23  A    between atoms: C_39  and  O_44
   24  A    between atoms: C_42  and  N_43
   25  A    between atoms: C_47  and  C_49
                            x       y       z     vdW  Elec       q    Type
                         _______ _______ _______ _____ _____    ______ ____

>  <TORSDO>
F 25

$$$$
=
 OpenBabel10222417343D

 57 62  0  0  1  0  0  0  0  0999 V2000
  185.7370  180.1990  142.6000 S   0  0  0  0  0  1  0  0  0  0  0  0
  185.5670  178.3820  142.7440 C   0  0  1  0  0  0  0  0  0  0  0  0
  185.7640  177.9760  144.1880 C   0  0  0  0  0  3  0  0  0  0  0  0
  185.9030  178.8800  145.1590 C   0  0  0  0  0  3  0  0  0  0  0  0
  184.6430  178.1360  147.1110 C   0  0  0  0  0  1  0  0  0  0  0  0
  186.0300  178.4670  146.5850 C   0  0  1  0  0  3  0  0  0  0  0  0
  186.9000  177.3360  146.6600 O   0  0  0  0  0  0  0  0  0  0  0  0
  189.1520  178.3010  147.3460 C   0  0  1  0  0  3  0  0  0  0  0  0
  190.4900  177.7810  146.9130 C   0  0  1  0  0  3  0  0  0  0  0  0
  191.7630  175.9450  146.8320 C   0  0  0  0  0  3  0  0  0  0  0  0
  188.9340  176.7590  145.5830 N   0  0  0  0  0  0  0  0  0  0  0  0
  191.2200  175.9920  145.6630 N   0  0  0  0  0  0  0  0  0  0  0  0
  191.2830  177.0320  147.6740 C   0  0  0  0  0  2  0  0  0  0  0  0
  188.2900  177.4140  146.5010 C   0  0  0  0  0  0  0  0  0  0  0  0
  190.3390  177.1470  145.5850 C   0  0  2  0  0  3  0  0  0  0  0  0
  187.8010  177.4020  149.2090 C   0  0  0  0  0  2  0  0  0  0  0  0
  188.8750  178.0860  148.8100 C   0  0  0  0  0  3  0  0  0  0  0  0
  184.2560  177.9440  142.2400 N   0  0  0  0  0  2  0  0  0  0  0  0
  184.0700  178.2550  140.8260 C   0  0  0  0  0  2  0  0  0  0  0  0
  182.7470  177.6940  140.3460 C   0  0  0  0  0  2  0  0  0  0  0  0
  181.6190  178.6530  140.6760 C   0  0  0  0  0  2  0  0  0  0  0  0
  178.9770  176.6660  140.3720 C   0  0  0  0  0  1  0  0  0  0  0  0
  179.3330  178.7810  137.7450 N   0  0  0  0  0  2  0  0  0  0  0  0
  180.3530  180.6060  138.8120 O   0  0  0  0  0  0  0  0  0  0  0  0
  180.5120  178.4540  139.7520 N   0  0  0  0  0  0  0  0  0  0  0  0
  180.0850  179.3780  138.7770 C   0  0  0  0  0  0  0  0  0  0  0  0
  180.0150  177.1410  139.3660 C   0  0  2  0  0  3  0  0  0  0  0  0
  179.3240  177.3460  138.0010 C   0  0  2  0  0  3  0  0  0  0  0  0
  180.1280  176.6410  136.9290 C   0  0  0  0  0  2  0  0  0  0  0  0
  181.0640  175.6280  137.5550 C   0  0  0  0  0  2  0  0  0  0  0  0
  182.1860  175.2890  136.5890 C   0  0  0  0  0  2  0  0  0  0  0  0
  182.5140  173.8020  136.6370 C   0  0  0  0  0  2  0  0  0  0  0  0
  183.9870  173.5520  136.3480 C   0  0  0  0  0  2  0  0  0  0  0  0
  184.4050  172.1860  136.8610 C   0  0  0  0  0  2  0  0  0  0  0  0
  183.2170  171.2480  136.8460 C   0  0  0  0  0  1  0  0  0  0  0  0
  186.6360  177.7040  141.8800 C   0  0  0  0  0  2  0  0  0  0  0  0
  187.9800  177.9690  142.3830 N   0  0  0  0  0  2  0  0  0  0  0  0
  191.1540  176.5090  138.8180 C   0  0  2  0  0  3  0  0  0  0  0  0
  190.0460  177.0330  141.4010 C   0  0  2  0  0  3  0  0  0  0  0  0
  188.7490  178.0200  138.5160 C   0  0  0  0  0  2  0  0  0  0  0  0
  190.5220  176.8400  140.0280 C   0  0  0  0  0  0  0  0  0  0  0  0
  189.9630  177.2550  138.7910 C   0  0  0  0  0  0  0  0  0  0  0  0
  188.8630  178.0650  141.2350 C   0  0  1  0  0  3  0  0  0  0  0  0
  187.9960  177.9880  139.8960 C   0  0  0  0  0  2  0  0  0  0  0  0
  189.6690  175.2200  137.5400 C   0  0  0  0  0  2  0  0  0  0  0  0
  190.8650  175.1420  138.3700 N   0  0  1  0  0  0  0  0  0  0  0  0
  190.0630  175.0960  136.0860 C   0  0  2  0  0  3  0  0  0  0  0  0
  191.4520  174.5170  136.0960 C   0  0  0  0  0  2  0  0  0  0  0  0
  191.9360  174.6060  137.5260 C   0  0  0  0  0  2  0  0  0  0  0  0
  190.0500  176.4750  135.4290 C   0  0  0  0  0  2  0  0  0  0  0  0
  188.7910  176.6900  134.5940 C   0  0  0  0  0  2  0  0  0  0  0  0
  188.0740  177.9640  135.0040 C   0  0  0  0  0  2  0  0  0  0  0  0
  186.6530  177.6500  135.3510 C   0  0  0  0  0  3  0  0  0  0  0  0
  186.3270  176.4510  135.8330 C   0  0  0  0  0  2  0  0  0  0  0  0
  191.0970  178.8270  142.6120 O   0  0  0  0  0  1  0  0  0  0  0  0
  192.2490  176.8420  142.5720 O   0  0  0  0  0  0  0  0  0  0  0  0
  191.1450  177.6190  142.2390 C   0  0  0  0  0  0  0  0  0  0  0  0
  2  1  1  6  0  0  0
  2  3  1  0  0  0  0
  3  4  2  0  0  0  0
  4  6  1  0  0  0  0
  6  7  1  0  0  0  0
  6  5  1  6  0  0  0
  8 17  1  1  0  0  0
  9  8  1  0  0  0  0
  9 13  1  1  0  0  0
 10 13  1  0  0  0  0
 11 14  2  0  0  0  0
 12 10  2  0  0  0  0
 14  7  1  0  0  0  0
 14  8  1  0  0  0  0
 15 11  1  1  0  0  0
 15 12  1  0  0  0  0
 15  9  1  0  0  0  0
 17 16  2  0  0  0  0
 18  2  1  0  0  0  0
 19 18  1  0  0  0  0
 20 21  1  0  0  0  0
 20 19  1  0  0  0  0
 23 28  1  0  0  0  0
 23 26  1  0  0  0  0
 25 21  1  0  0  0  0
 26 24  2  0  0  0  0
 26 25  1  0  0  0  0
 27 25  1  0  0  0  0
 27 22  1  1  0  0  0
 28 29  1  6  0  0  0
 28 27  1  0  0  0  0
 29 30  1  0  0  0  0
 31 32  1  0  0  0  0
 31 30  1  0  0  0  0
 33 32  1  0  0  0  0
 33 34  1  0  0  0  0
 35 34  1  0  0  0  0
 36 37  1  0  0  0  0
 36  2  1  0  0  0  0
 38 42  1  6  0  0  0
 38 41  1  0  0  0  0
 39 57  1  1  0  0  0
 40 42  1  0  0  0  0
 40 44  1  0  0  0  0
 41 39  1  0  0  0  0
 42 41  2  0  0  0  0
 43 39  1  0  0  0  0
 43 37  1  1  0  0  0
 44 43  1  0  0  0  0
 45 46  1  0  0  0  0
 46 49  1  6  0  0  0
 46 38  1  0  0  0  0
 47 50  1  1  0  0  0
 47 48  1  0  0  0  0
 47 45  1  0  0  0  0
 48 49  1  0  0  0  0
 51 52  1  0  0  0  0
 51 50  1  0  0  0  0
 52 53  1  0  0  0  0
 53 54  2  0  0  0  0
 57 56  2  0  0  0  0
 57 55  1  0  0  0  0
M  END
>  <MODEL>
7

>  <REMARK>
 VINA RESULT:      -4.5      2.342      4.445
  Name = 
  25 active torsions:
  status: ('A' for Active; 'I' for Inactive)
    1  A    between atoms: C_1  and  N_15
    2  A    between atoms: C_1  and  C_54
    3  A    between atoms: C_2  and  N_34
    4  A    between atoms: C_3  and  C_14
    5  A    between atoms: C_3  and  C_50
    6  A    between atoms: C_4  and  C_56
    7  A    between atoms: C_8  and  C_26
    8  A    between atoms: C_8  and  C_46
    9  A    between atoms: C_12  and  C_14
   10  A    between atoms: N_15  and  C_49
   11  A    between atoms: C_16  and  C_55
   12  A    between atoms: N_21  and  C_32
   13  A    between atoms: C_24  and  C_33
   14  A    between atoms: C_24  and  C_50
   15  A    between atoms: C_30  and  C_36
   16  A    between atoms: C_30  and  C_46
   17  A    between atoms: C_31  and  O_44
   18  A    between atoms: C_31  and  C_52
   19  A    between atoms: C_32  and  C_54
   20  A    between atoms: C_33  and  C_41
   21  A    between atoms: C_38  and  N_43
   22  A    between atoms: C_38  and  C_49
   23  A    between atoms: C_39  and  O_44
   24  A    between atoms: C_42  and  N_43
   25  A    between atoms: C_47  and  C_49
                            x       y       z     vdW  Elec       q    Type
                         _______ _______ _______ _____ _____    ______ ____

>  <TORSDO>
F 25

$$$$
=
 OpenBabel10222417343D

 57 62  0  0  1  0  0  0  0  0999 V2000
  188.4290  179.8360  141.5620 S   0  0  0  0  0  1  0  0  0  0  0  0
  187.5540  178.4250  140.7910 C   0  0  1  0  0  0  0  0  0  0  0  0
  188.1870  178.1160  139.4530 C   0  0  0  0  0  3  0  0  0  0  0  0
  187.4510  177.8890  138.3640 C   0  0  0  0  0  3  0  0  0  0  0  0
  189.4510  178.3240  137.0360 C   0  0  0  0  0  1  0  0  0  0  0  0
  188.0890  177.6520  137.0380 C   0  0  1  0  0  3  0  0  0  0  0  0
  188.2020  176.2430  136.8270 O   0  0  0  0  0  0  0  0  0  0  0  0
  187.2550  174.1290  135.7740 C   0  0  1  0  0  3  0  0  0  0  0  0
  185.8750  173.5890  135.9990 C   0  0  1  0  0  3  0  0  0  0  0  0
  184.4310  172.9540  137.5830 C   0  0  0  0  0  3  0  0  0  0  0  0
  185.8910  175.7070  136.8630 N   0  0  0  0  0  0  0  0  0  0  0  0
  184.0890  174.1710  137.3270 N   0  0  0  0  0  0  0  0  0  0  0  0
  185.5960  172.5640  136.8000 C   0  0  0  0  0  2  0  0  0  0  0  0
  187.1130  175.4120  136.5360 C   0  0  0  0  0  0  0  0  0  0  0  0
  184.9730  174.7180  136.3100 C   0  0  2  0  0  3  0  0  0  0  0  0
  188.9430  172.3300  135.6370 C   0  0  0  0  0  2  0  0  0  0  0  0
  188.3370  173.2670  136.3670 C   0  0  0  0  0  3  0  0  0  0  0  0
  187.5820  177.2520  141.6790 N   0  0  0  0  0  2  0  0  0  0  0  0
  188.9200  176.6840  141.8100 C   0  0  0  0  0  2  0  0  0  0  0  0
  189.0600  176.0060  143.1580 C   0  0  0  0  0  2  0  0  0  0  0  0
  190.4380  175.3870  143.2950 C   0  0  0  0  0  2  0  0  0  0  0  0
  192.4200  174.7900  145.8910 C   0  0  0  0  0  1  0  0  0  0  0  0
  191.9650  178.1040  145.3260 N   0  0  0  0  0  2  0  0  0  0  0  0
  191.6560  178.0940  142.9990 O   0  0  0  0  0  0  0  0  0  0  0  0
  191.2310  176.1460  144.2510 N   0  0  0  0  0  0  0  0  0  0  0  0
  191.6230  177.4920  144.1040 C   0  0  0  0  0  0  0  0  0  0  0  0
  191.3160  175.8120  145.6660 C   0  0  2  0  0  3  0  0  0  0  0  0
  191.7060  177.1260  146.3770 C   0  0  2  0  0  3  0  0  0  0  0  0
  190.5400  177.5970  147.2220 C   0  0  0  0  0  2  0  0  0  0  0  0
  189.3290  176.7200  146.9790 C   0  0  0  0  0  2  0  0  0  0  0  0
  188.1520  177.5720  146.5330 C   0  0  0  0  0  2  0  0  0  0  0  0
  187.3080  177.9990  147.7280 C   0  0  0  0  0  2  0  0  0  0  0  0
  186.0710  178.7650  147.2830 C   0  0  0  0  0  2  0  0  0  0  0  0
  185.5280  178.1910  145.9860 C   0  0  0  0  0  2  0  0  0  0  0  0
  184.3280  178.9940  145.5330 C   0  0  0  0  0  1  0  0  0  0  0  0
  186.0820  178.7980  140.5770 C   0  0  0  0  0  2  0  0  0  0  0  0
  185.2400  178.3010  141.6600 N   0  0  0  0  0  2  0  0  0  0  0  0
  180.4730  178.5100  140.1940 C   0  0  2  0  0  3  0  0  0  0  0  0
  183.3220  178.2910  140.1010 C   0  0  2  0  0  3  0  0  0  0  0  0
  181.5410  179.0840  142.7800 C   0  0  0  0  0  2  0  0  0  0  0  0
  181.8750  178.4460  140.2700 C   0  0  0  0  0  0  0  0  0  0  0  0
  181.1100  178.7770  141.4180 C   0  0  0  0  0  0  0  0  0  0  0  0
  183.9080  178.8430  141.4590 C   0  0  1  0  0  3  0  0  0  0  0  0
  183.0440  178.6200  142.7830 C   0  0  0  0  0  2  0  0  0  0  0  0
  179.2990  176.9070  138.9470 C   0  0  0  0  0  2  0  0  0  0  0  0
  179.8290  177.1930  140.2750 N   0  0  1  0  0  0  0  0  0  0  0  0
  180.1880  175.8940  138.2640 C   0  0  2  0  0  3  0  0  0  0  0  0
  181.0020  175.2690  139.3650 C   0  0  0  0  0  2  0  0  0  0  0  0
  180.7900  176.1330  140.5890 C   0  0  0  0  0  2  0  0  0  0  0  0
  181.0890  176.5970  137.2500 C   0  0  0  0  0  2  0  0  0  0  0  0
  181.0800  175.8850  135.9000 C   0  0  0  0  0  2  0  0  0  0  0  0
  181.5710  176.8040  134.7960 C   0  0  0  0  0  2  0  0  0  0  0  0
  181.6520  178.2080  135.3080 C   0  0  0  0  0  3  0  0  0  0  0  0
  180.9130  179.1690  134.7550 C   0  0  0  0  0  2  0  0  0  0  0  0
  184.1090  178.5880  137.8470 O   0  0  0  0  0  0  0  0  0  0  0  0
  183.9130  180.5050  139.0950 O   0  0  0  0  0  1  0  0  0  0  0  0
  183.7890  179.1280  138.9450 C   0  0  0  0  0  0  0  0  0  0  0  0
  2  1  1  1  0  0  0
  2 18  1  0  0  0  0
  3  2  1  0  0  0  0
  4  3  2  0  0  0  0
  6  5  1  1  0  0  0
  6  4  1  0  0  0  0
  7  6  1  0  0  0  0
  8  9  1  0  0  0  0
  8 17  1  1  0  0  0
  8 14  1  0  0  0  0
  9 15  1  0  0  0  0
  9 13  1  1  0  0  0
 12 10  2  0  0  0  0
 13 10  1  0  0  0  0
 14  7  1  0  0  0  0
 14 11  2  0  0  0  0
 15 11  1  1  0  0  0
 15 12  1  0  0  0  0
 16 17  2  0  0  0  0
 18 19  1  0  0  0  0
 19 20  1  0  0  0  0
 20 21  1  0  0  0  0
 21 25  1  0  0  0  0
 23 28  1  0  0  0  0
 24 26  2  0  0  0  0
 25 27  1  0  0  0  0
 26 25  1  0  0  0  0
 26 23  1  0  0  0  0
 27 22  1  6  0  0  0
 27 28  1  0  0  0  0
 28 29  1  1  0  0  0
 30 29  1  0  0  0  0
 31 30  1  0  0  0  0
 31 32  1  0  0  0  0
 33 32  1  0  0  0  0
 34 33  1  0  0  0  0
 35 34  1  0  0  0  0
 36  2  1  0  0  0  0
 36 37  1  0  0  0  0
 38 41  1  6  0  0  0
 38 46  1  0  0  0  0
 38 42  1  0  0  0  0
 39 57  1  6  0  0  0
 39 41  1  0  0  0  0
 39 43  1  0  0  0  0
 40 44  1  0  0  0  0
 41 42  2  0  0  0  0
 42 40  1  0  0  0  0
 43 37  1  1  0  0  0
 43 44  1  0  0  0  0
 46 45  1  6  0  0  0
 46 49  1  0  0  0  0
 47 50  1  6  0  0  0
 47 45  1  0  0  0  0
 47 48  1  0  0  0  0
 48 49  1  0  0  0  0
 51 50  1  0  0  0  0
 52 53  1  0  0  0  0
 52 51  1  0  0  0  0
 54 53  2  0  0  0  0
 55 57  2  0  0  0  0
 57 56  1  0  0  0  0
M  END
>  <MODEL>
8

>  <REMARK>
 VINA RESULT:      -4.0      2.549      9.688
  Name = 
  25 active torsions:
  status: ('A' for Active; 'I' for Inactive)
    1  A    between atoms: C_1  and  N_15
    2  A    between atoms: C_1  and  C_54
    3  A    between atoms: C_2  and  N_34
    4  A    between atoms: C_3  and  C_14
    5  A    between atoms: C_3  and  C_50
    6  A    between atoms: C_4  and  C_56
    7  A    between atoms: C_8  and  C_26
    8  A    between atoms: C_8  and  C_46
    9  A    between atoms: C_12  and  C_14
   10  A    between atoms: N_15  and  C_49
   11  A    between atoms: C_16  and  C_55
   12  A    between atoms: N_21  and  C_32
   13  A    between atoms: C_24  and  C_33
   14  A    between atoms: C_24  and  C_50
   15  A    between atoms: C_30  and  C_36
   16  A    between atoms: C_30  and  C_46
   17  A    between atoms: C_31  and  O_44
   18  A    between atoms: C_31  and  C_52
   19  A    between atoms: C_32  and  C_54
   20  A    between atoms: C_33  and  C_41
   21  A    between atoms: C_38  and  N_43
   22  A    between atoms: C_38  and  C_49
   23  A    between atoms: C_39  and  O_44
   24  A    between atoms: C_42  and  N_43
   25  A    between atoms: C_47  and  C_49
                            x       y       z     vdW  Elec       q    Type
                         _______ _______ _______ _____ _____    ______ ____

>  <TORSDO>
F 25

$$$$
=
 OpenBabel10222417343D

 57 62  0  0  1  0  0  0  0  0999 V2000
  188.8070  179.4960  141.6610 S   0  0  0  0  0  1  0  0  0  0  0  0
  187.8690  178.2240  140.7370 C   0  0  1  0  0  0  0  0  0  0  0  0
  188.4630  178.0730  139.3540 C   0  0  0  0  0  3  0  0  0  0  0  0
  187.8670  177.3430  138.4100 C   0  0  0  0  0  3  0  0  0  0  0  0
  189.4190  178.3940  136.8490 C   0  0  0  0  0  1  0  0  0  0  0  0
  188.4280  177.2560  137.0330 C   0  0  1  0  0  3  0  0  0  0  0  0
  189.0590  175.9850  136.8710 O   0  0  0  0  0  0  0  0  0  0  0  0
  191.0180  174.3740  137.0860 C   0  0  1  0  0  3  0  0  0  0  0  0
  192.4440  174.7680  137.3240 C   0  0  1  0  0  3  0  0  0  0  0  0
  194.1090  176.0440  136.5490 C   0  0  0  0  0  3  0  0  0  0  0  0
  191.1840  176.6400  137.6970 N   0  0  0  0  0  0  0  0  0  0  0  0
  193.5850  176.7600  137.4850 N   0  0  0  0  0  0  0  0  0  0  0  0
  193.3790  174.7950  136.3780 C   0  0  0  0  0  2  0  0  0  0  0  0
  190.3940  175.7320  137.2100 C   0  0  0  0  0  0  0  0  0  0  0  0
  192.4610  176.0440  138.0700 C   0  0  2  0  0  3  0  0  0  0  0  0
  191.1710  172.5550  135.4210 C   0  0  0  0  0  2  0  0  0  0  0  0
  190.7790  173.7950  135.7170 C   0  0  0  0  0  3  0  0  0  0  0  0
  187.8760  176.9460  141.4640 N   0  0  0  0  0  2  0  0  0  0  0  0
  189.2250  176.4250  141.6630 C   0  0  0  0  0  2  0  0  0  0  0  0
  189.4310  176.0760  143.1230 C   0  0  0  0  0  2  0  0  0  0  0  0
  190.8750  175.6840  143.3710 C   0  0  0  0  0  2  0  0  0  0  0  0
  192.4200  174.9540  146.2170 C   0  0  0  0  0  1  0  0  0  0  0  0
  191.6790  178.2520  145.9390 N   0  0  0  0  0  2  0  0  0  0  0  0
  191.7920  178.5110  143.6090 O   0  0  0  0  0  0  0  0  0  0  0  0
  191.3880  176.3870  144.5370 N   0  0  0  0  0  0  0  0  0  0  0  0
  191.6360  177.7720  144.6150 C   0  0  0  0  0  0  0  0  0  0  0  0
  191.2590  175.8840  145.8980 C   0  0  2  0  0  3  0  0  0  0  0  0
  191.3560  177.1270  146.8080 C   0  0  2  0  0  3  0  0  0  0  0  0
  190.0110  177.3680  147.4610 C   0  0  0  0  0  2  0  0  0  0  0  0
  188.9310  176.5850  146.7420 C   0  0  0  0  0  2  0  0  0  0  0  0
  187.7790  177.5050  146.3770 C   0  0  0  0  0  2  0  0  0  0  0  0
  187.4560  178.4540  147.5240 C   0  0  0  0  0  2  0  0  0  0  0  0
  186.0760  179.0730  147.3580 C   0  0  0  0  0  2  0  0  0  0  0  0
  185.5760  178.8800  145.9370 C   0  0  0  0  0  2  0  0  0  0  0  0
  184.0830  178.6320  145.9490 C   0  0  0  0  0  1  0  0  0  0  0  0
  186.4060  178.6670  140.6100 C   0  0  0  0  0  2  0  0  0  0  0  0
  185.6440  178.3520  141.8140 N   0  0  0  0  0  2  0  0  0  0  0  0
  180.8580  178.2590  140.4010 C   0  0  2  0  0  3  0  0  0  0  0  0
  183.7130  178.1730  140.2820 C   0  0  2  0  0  3  0  0  0  0  0  0
  181.9230  179.0090  142.9430 C   0  0  0  0  0  2  0  0  0  0  0  0
  182.2620  178.2660  140.4620 C   0  0  0  0  0  0  0  0  0  0  0  0
  181.4930  178.6160  141.6030 C   0  0  0  0  0  0  0  0  0  0  0  0
  184.2860  178.8180  141.6040 C   0  0  1  0  0  3  0  0  0  0  0  0
  183.4470  178.6190  142.9490 C   0  0  0  0  0  2  0  0  0  0  0  0
  179.0660  176.8950  139.7460 C   0  0  0  0  0  2  0  0  0  0  0  0
  180.2800  176.9180  140.5530 N   0  0  1  0  0  0  0  0  0  0  0  0
  179.3260  176.1120  138.4800 C   0  0  2  0  0  3  0  0  0  0  0  0
  180.5740  175.3160  138.7510 C   0  0  0  0  0  2  0  0  0  0  0  0
  181.1650  175.8780  140.0240 C   0  0  0  0  0  2  0  0  0  0  0  0
  179.5330  177.0730  137.3110 C   0  0  0  0  0  2  0  0  0  0  0  0
  179.2230  178.5150  137.7050 C   0  0  0  0  0  2  0  0  0  0  0  0
  180.2880  179.4640  137.1860 C   0  0  0  0  0  2  0  0  0  0  0  0
  180.0810  180.8230  137.7780 C   0  0  0  0  0  3  0  0  0  0  0  0
  180.9570  181.8000  137.5440 C   0  0  0  0  0  2  0  0  0  0  0  0
  184.4810  178.3970  138.0130 O   0  0  0  0  0  0  0  0  0  0  0  0
  184.1640  180.3630  139.1560 O   0  0  0  0  0  1  0  0  0  0  0  0
  184.1260  178.9740  139.0810 C   0  0  0  0  0  0  0  0  0  0  0  0
  2 18  1  0  0  0  0
  2  1  1  1  0  0  0
  3  2  1  0  0  0  0
  4  3  2  0  0  0  0
  6  5  1  1  0  0  0
  6  4  1  0  0  0  0
  7  6  1  0  0  0  0
  7 14  1  0  0  0  0
  8 17  1  6  0  0  0
  8 14  1  0  0  0  0
  8  9  1  0  0  0  0
  9 13  1  6  0  0  0
  9 15  1  0  0  0  0
 10 12  2  0  0  0  0
 11 15  1  0  0  0  0
 13 10  1  0  0  0  0
 14 11  2  0  0  0  0
 15 12  1  6  0  0  0
 16 17  2  0  0  0  0
 18 19  1  0  0  0  0
 19 20  1  0  0  0  0
 20 21  1  0  0  0  0
 21 25  1  0  0  0  0
 23 28  1  0  0  0  0
 24 26  2  0  0  0  0
 25 26  1  0  0  0  0
 25 27  1  0  0  0  0
 26 23  1  0  0  0  0
 27 22  1  1  0  0  0
 27 28  1  0  0  0  0
 28 29  1  6  0  0  0
 30 29  1  0  0  0  0
 31 30  1  0  0  0  0
 31 32  1  0  0  0  0
 33 32  1  0  0  0  0
 34 35  1  0  0  0  0
 34 33  1  0  0  0  0
 36  2  1  0  0  0  0
 36 37  1  0  0  0  0
 38 41  1  6  0  0  0
 38 46  1  0  0  0  0
 38 42  1  0  0  0  0
 39 57  1  6  0  0  0
 39 41  1  0  0  0  0
 39 43  1  0  0  0  0
 40 44  1  0  0  0  0
 41 42  2  0  0  0  0
 42 40  1  0  0  0  0
 43 37  1  1  0  0  0
 43 44  1  0  0  0  0
 46 45  1  6  0  0  0
 47 50  1  6  0  0  0
 47 48  1  0  0  0  0
 47 45  1  0  0  0  0
 48 49  1  0  0  0  0
 49 46  1  0  0  0  0
 50 51  1  0  0  0  0
 52 51  1  0  0  0  0
 52 53  1  0  0  0  0
 54 53  2  0  0  0  0
 55 57  2  0  0  0  0
 57 56  1  0  0  0  0
M  END
>  <MODEL>
9

>  <REMARK>
 VINA RESULT:      -3.9      2.580      9.731
  Name = 
  25 active torsions:
  status: ('A' for Active; 'I' for Inactive)
    1  A    between atoms: C_1  and  N_15
    2  A    between atoms: C_1  and  C_54
    3  A    between atoms: C_2  and  N_34
    4  A    between atoms: C_3  and  C_14
    5  A    between atoms: C_3  and  C_50
    6  A    between atoms: C_4  and  C_56
    7  A    between atoms: C_8  and  C_26
    8  A    between atoms: C_8  and  C_46
    9  A    between atoms: C_12  and  C_14
   10  A    between atoms: N_15  and  C_49
   11  A    between atoms: C_16  and  C_55
   12  A    between atoms: N_21  and  C_32
   13  A    between atoms: C_24  and  C_33
   14  A    between atoms: C_24  and  C_50
   15  A    between atoms: C_30  and  C_36
   16  A    between atoms: C_30  and  C_46
   17  A    between atoms: C_31  and  O_44
   18  A    between atoms: C_31  and  C_52
   19  A    between atoms: C_32  and  C_54
   20  A    between atoms: C_33  and  C_41
   21  A    between atoms: C_38  and  N_43
   22  A    between atoms: C_38  and  C_49
   23  A    between atoms: C_39  and  O_44
   24  A    between atoms: C_42  and  N_43
   25  A    between atoms: C_47  and  C_49
                            x       y       z     vdW  Elec       q    Type
                         _______ _______ _______ _____ _____    ______ ____

>  <TORSDO>
F 25

$$$$
