=
 OpenBabel10222415343D

 54 62  0  0  1  0  0  0  0  0999 V2000
  182.7980  174.3170  137.4980 C   0  0  0  0  0  3  0  0  0  0  0  0
  182.2620  175.3380  138.2790 C   0  0  0  0  0  0  0  0  0  0  0  0
  182.1820  177.4550  139.2560 C   0  0  0  0  0  0  0  0  0  0  0  0
  180.9980  176.9110  139.7410 C   0  0  0  0  0  0  0  0  0  0  0  0
  180.5650  179.9630  140.0240 C   0  0  0  0  0  0  0  0  0  0  0  0
  180.8420  175.3210  139.1720 S   0  0  0  0  0  0  0  0  0  0  0  0
  184.0880  176.8250  137.7590 C   0  0  0  0  0  3  0  0  0  0  0  0
  184.0060  174.5670  136.8290 C   0  0  0  0  0  3  0  0  0  0  0  0
  182.6570  178.7440  139.6550 N   0  0  0  0  0  0  0  0  0  0  0  0
  182.3690  181.0590  138.7240 C   0  0  0  0  0  1  0  0  0  0  0  0
  180.0960  177.5430  140.7110 C   0  0  0  0  0  0  0  0  0  0  0  0
  182.8880  176.5690  138.4260 C   0  0  0  0  0  0  0  0  0  0  0  0
  179.9320  178.8680  140.8030 C   0  0  0  0  0  3  0  0  0  0  0  0
  184.6460  175.8210  136.9440 C   0  0  0  0  0  0  0  0  0  0  0  0
  181.8140  179.9010  139.4990 C   0  0  0  0  0  0  0  0  0  0  0  0
  185.9370  176.0700  136.2300 C   0  0  1  0  0  3  0  0  0  0  0  0
  187.0880  175.6360  137.0630 C   0  0  1  0  0  3  0  0  0  0  0  0
  186.6030  174.8440  136.0070 O   0  0  0  0  0  0  0  0  0  0  0  0
  190.0750  174.7360  135.9270 C   0  0  2  0  0  3  0  0  0  0  0  0
  188.2780  177.7160  136.4540 O   0  0  0  0  0  0  0  0  0  0  0  0
  189.4540  176.1510  137.7850 C   0  0  1  0  0  3  0  0  0  0  0  0
  188.9810  175.6520  135.4280 C   0  0  0  0  0  2  0  0  0  0  0  0
  189.1660  179.6790  137.2970 O   0  0  0  0  0  0  0  0  0  0  0  0
  190.6140  175.3840  137.1840 C   0  0  0  0  0  2  0  0  0  0  0  0
  191.1690  174.6120  134.8870 C   0  0  0  0  0  1  0  0  0  0  0  0
  189.9140  177.5560  138.1760 C   0  0  0  0  0  2  0  0  0  0  0  0
  189.1130  178.4220  137.2890 C   0  0  0  0  0  0  0  0  0  0  0  0
  188.4080  176.3160  136.6670 C   0  0  1  0  0  0  0  0  0  0  0  0
  179.4670  181.8240  141.0220 O   0  0  0  0  0  0  0  0  0  0  0  0
  179.7710  181.2150  139.9590 C   0  0  0  0  0  0  0  0  0  0  0  0
  179.2710  183.1370  138.4580 O   0  0  0  0  0  1  0  0  0  0  0  0
  178.9320  180.9890  137.7550 O   0  0  0  0  0  0  0  0  0  0  0  0
  179.3150  181.7640  138.6680 C   0  0  0  0  0  0  0  0  0  0  0  0
  179.6340  176.4810  142.8530 O   0  0  0  0  0  1  0  0  0  0  0  0
  179.3150  176.6910  141.5530 N   0  0  0  0  0  2  0  0  0  0  0  0
  184.0420  178.8710  140.1150 C   0  0  1  0  0  3  0  0  0  0  0  0
  184.7280  179.8200  139.3540 O   0  0  0  0  0  1  0  0  0  0  0  0
  183.2410  178.2830  142.3930 C   0  0  0  0  0  2  0  0  0  0  0  0
  184.1010  179.2360  141.5890 C   0  0  1  0  0  3  0  0  0  0  0  0
  184.7430  178.0920  142.3470 C   0  0  1  0  0  3  0  0  0  0  0  0
  185.3890  178.6470  143.6040 C   0  0  0  0  0  2  0  0  0  0  0  0
  188.3050  177.0560  143.0660 C   0  0  1  0  0  3  0  0  0  0  0  0
  190.4720  176.4820  142.2790 C   0  0  0  0  0  1  0  0  0  0  0  0
  185.8130  177.8230  145.9110 C   0  0  0  0  0  2  0  0  0  0  0  0
  189.7500  177.3450  143.1990 N   0  0  0  0  0  0  0  0  0  0  0  0
  189.5790  177.8540  145.5990 C   0  0  0  0  0  2  0  0  0  0  0  0
  186.0240  177.5280  144.4150 C   0  0  2  0  0  3  0  0  0  0  0  0
  190.2270  176.9730  144.5330 C   0  0  0  0  0  2  0  0  0  0  0  0
  187.4480  178.3870  147.8190 C   0  0  0  0  0  1  0  0  0  0  0  0
  187.5200  177.5580  144.2610 C   0  0  0  0  0  0  0  0  0  0  0  0
  187.1480  178.0510  146.4360 N   0  0  0  0  0  0  0  0  0  0  0  0
  188.0970  177.8240  145.4150 C   0  0  0  0  0  0  0  0  0  0  0  0
  187.7540  177.6930  141.7910 C   0  0  0  0  0  2  0  0  0  0  0  0
  188.2980  178.9660  141.6140 O   0  0  0  0  0  1  0  0  0  0  0  0
  1  2  1  0  0  0  0
  2 12  2  0  0  0  0
  2  6  1  0  0  0  0
  3  9  1  0  0  0  0
  3  4  2  0  0  0  0
  4 11  1  0  0  0  0
  5 13  1  0  0  0  0
  6  4  1  0  0  0  0
  7 12  1  0  0  0  0
  8 14  1  0  0  0  0
  8  1  2  0  0  0  0
  9 36  1  0  0  0  0
 10 15  1  0  0  0  0
 11 13  2  0  0  0  0
 11 35  1  0  0  0  0
 12  3  1  0  0  0  0
 14  7  2  0  0  0  0
 15  9  1  0  0  0  0
 15  5  2  0  0  0  0
 16 14  1  1  0  0  0
 16 17  1  0  0  0  0
 17 18  1  6  0  0  0
 18 16  1  0  0  0  0
 19 25  1  6  0  0  0
 19 24  1  0  0  0  0
 20 28  1  0  0  0  0
 20 27  1  0  0  0  0
 21 24  1  6  0  0  0
 21 26  1  0  0  0  0
 22 19  1  0  0  0  0
 27 23  2  0  0  0  0
 27 26  1  0  0  0  0
 28 22  1  6  0  0  0
 28 17  1  0  0  0  0
 28 21  1  0  0  0  0
 30  5  1  0  0  0  0
 30 29  2  0  0  0  0
 31 33  1  0  0  0  0
 32 33  2  0  0  0  0
 33 30  1  0  0  0  0
 35 34  1  0  0  0  0
 36 37  1  6  0  0  0
 39 36  1  6  0  0  0
 39 40  1  0  0  0  0
 39 38  1  0  0  0  0
 40 38  1  0  0  0  0
 40 41  1  1  0  0  0
 42 53  1  6  0  0  0
 42 45  1  0  0  0  0
 42 50  1  0  0  0  0
 43 45  1  0  0  0  0
 44 51  1  0  0  0  0
 45 48  1  0  0  0  0
 47 41  1  6  0  0  0
 47 44  1  0  0  0  0
 48 46  1  0  0  0  0
 50 47  1  0  0  0  0
 50 52  2  0  0  0  0
 51 49  1  0  0  0  0
 52 46  1  0  0  0  0
 52 51  1  0  0  0  0
 54 53  1  0  0  0  0
M  END
>  <MODEL>
1

>  <REMARK>
 VINA RESULT:      -9.3      0.000      0.000
  Name = 
  10 active torsions:
  status: ('A' for Active; 'I' for Inactive)
    1  A    between atoms: C_3  and  C_9
    2  A    between atoms: C_5  and  C_14
    3  A    between atoms: C_5  and  C_52
    4  A    between atoms: C_16  and  C_39
    5  A    between atoms: C_27  and  C_44
    6  A    between atoms: N_29  and  C_39
    7  A    between atoms: C_34  and  C_47
    8  A    between atoms: C_35  and  N_40
    9  A    between atoms: C_37  and  C_44
   10  A    between atoms: C_46  and  C_54
                            x       y       z     vdW  Elec       q    Type
                         _______ _______ _______ _____ _____    ______ ____

>  <TORSDO>
F 10

$$$$
=
 OpenBabel10222415343D

 54 62  0  0  1  0  0  0  0  0999 V2000
  182.9500  174.5130  136.9340 C   0  0  0  0  0  3  0  0  0  0  0  0
  182.3140  175.4670  137.7250 C   0  0  0  0  0  0  0  0  0  0  0  0
  182.1010  177.4940  138.8600 C   0  0  0  0  0  0  0  0  0  0  0  0
  180.8700  176.9160  139.1450 C   0  0  0  0  0  0  0  0  0  0  0  0
  180.3870  179.9360  139.6290 C   0  0  0  0  0  0  0  0  0  0  0  0
  180.7950  175.3810  138.4290 S   0  0  0  0  0  0  0  0  0  0  0  0
  184.1830  176.9830  137.5650 C   0  0  0  0  0  3  0  0  0  0  0  0
  184.2310  174.8120  136.4450 C   0  0  0  0  0  3  0  0  0  0  0  0
  182.5160  178.7430  139.4220 N   0  0  0  0  0  0  0  0  0  0  0  0
  182.3330  181.1290  138.6610 C   0  0  0  0  0  1  0  0  0  0  0  0
  179.8500  177.4690  140.0450 C   0  0  0  0  0  0  0  0  0  0  0  0
  182.9110  176.6780  138.0520 C   0  0  0  0  0  0  0  0  0  0  0  0
  179.6680  178.7830  140.2280 C   0  0  0  0  0  3  0  0  0  0  0  0
  184.8440  176.0480  136.7450 C   0  0  0  0  0  0  0  0  0  0  0  0
  181.6930  179.9130  139.2600 C   0  0  0  0  0  0  0  0  0  0  0  0
  186.2130  176.3500  136.2200 C   0  0  1  0  0  3  0  0  0  0  0  0
  187.2530  175.7920  137.1230 C   0  0  1  0  0  3  0  0  0  0  0  0
  186.8880  175.1440  135.9290 O   0  0  0  0  0  0  0  0  0  0  0  0
  190.4420  174.9080  136.8450 C   0  0  2  0  0  3  0  0  0  0  0  0
  188.5170  177.8410  136.5590 O   0  0  0  0  0  0  0  0  0  0  0  0
  189.3670  176.4980  138.3130 C   0  0  1  0  0  3  0  0  0  0  0  0
  189.4830  175.7070  135.9920 C   0  0  0  0  0  2  0  0  0  0  0  0
  189.1420  179.9280  137.3380 O   0  0  0  0  0  0  0  0  0  0  0  0
  190.6510  175.7220  138.1040 C   0  0  0  0  0  2  0  0  0  0  0  0
  191.7550  174.7160  136.1170 C   0  0  0  0  0  1  0  0  0  0  0  0
  189.6950  177.9590  138.6250 C   0  0  0  0  0  2  0  0  0  0  0  0
  189.1140  178.6780  137.4740 C   0  0  0  0  0  0  0  0  0  0  0  0
  188.6170  176.4830  136.9690 C   0  0  1  0  0  0  0  0  0  0  0  0
  179.2710  181.7790  140.6390 O   0  0  0  0  0  0  0  0  0  0  0  0
  179.6010  181.1930  139.5700 C   0  0  0  0  0  0  0  0  0  0  0  0
  179.0180  183.1470  138.1420 O   0  0  0  0  0  1  0  0  0  0  0  0
  178.9430  181.0230  137.3010 O   0  0  0  0  0  0  0  0  0  0  0  0
  179.1820  181.7740  138.2810 C   0  0  0  0  0  0  0  0  0  0  0  0
  179.2800  176.0160  141.9140 O   0  0  0  0  0  1  0  0  0  0  0  0
  178.9740  176.5530  140.7070 N   0  0  0  0  0  2  0  0  0  0  0  0
  183.8320  178.8230  140.0610 C   0  0  1  0  0  3  0  0  0  0  0  0
  184.5820  179.8660  139.5130 O   0  0  0  0  0  1  0  0  0  0  0  0
  182.8950  177.8630  142.1530 C   0  0  0  0  0  2  0  0  0  0  0  0
  183.7040  179.0000  141.5650 C   0  0  1  0  0  3  0  0  0  0  0  0
  184.4070  177.8470  142.2510 C   0  0  1  0  0  3  0  0  0  0  0  0
  184.8550  178.3040  143.6270 C   0  0  0  0  0  2  0  0  0  0  0  0
  187.1410  178.3860  146.0960 C   0  0  1  0  0  3  0  0  0  0  0  0
  188.3130  177.9960  148.1250 C   0  0  0  0  0  1  0  0  0  0  0  0
  186.9200  178.3810  142.2420 C   0  0  0  0  0  2  0  0  0  0  0  0
  187.9970  177.4260  146.8260 N   0  0  0  0  0  0  0  0  0  0  0  0
  189.1000  176.6230  144.7790 C   0  0  0  0  0  2  0  0  0  0  0  0
  186.2880  178.8130  143.5780 C   0  0  2  0  0  3  0  0  0  0  0  0
  189.2880  177.2710  146.1490 C   0  0  0  0  0  2  0  0  0  0  0  0
  188.8400  176.7640  141.6700 C   0  0  0  0  0  1  0  0  0  0  0  0
  187.1270  178.1050  144.6060 C   0  0  0  0  0  0  0  0  0  0  0  0
  187.9730  177.4530  142.6130 N   0  0  0  0  0  0  0  0  0  0  0  0
  188.0640  177.3870  144.0200 C   0  0  0  0  0  0  0  0  0  0  0  0
  185.7130  178.3380  146.6360 C   0  0  0  0  0  2  0  0  0  0  0  0
  185.4320  179.4980  147.3610 O   0  0  0  0  0  1  0  0  0  0  0  0
  1  2  1  0  0  0  0
  2 12  2  0  0  0  0
  2  6  1  0  0  0  0
  3  4  2  0  0  0  0
  3  9  1  0  0  0  0
  4 11  1  0  0  0  0
  5 13  1  0  0  0  0
  6  4  1  0  0  0  0
  7 12  1  0  0  0  0
  8 14  1  0  0  0  0
  8  1  2  0  0  0  0
  9 36  1  0  0  0  0
 10 15  1  0  0  0  0
 11 13  2  0  0  0  0
 11 35  1  0  0  0  0
 12  3  1  0  0  0  0
 14  7  2  0  0  0  0
 15  9  1  0  0  0  0
 15  5  2  0  0  0  0
 16 14  1  1  0  0  0
 16 17  1  0  0  0  0
 17 18  1  6  0  0  0
 18 16  1  0  0  0  0
 19 25  1  6  0  0  0
 19 24  1  0  0  0  0
 20 28  1  0  0  0  0
 20 27  1  0  0  0  0
 21 24  1  6  0  0  0
 21 26  1  0  0  0  0
 22 19  1  0  0  0  0
 23 27  2  0  0  0  0
 27 26  1  0  0  0  0
 28 22  1  6  0  0  0
 28 17  1  0  0  0  0
 28 21  1  0  0  0  0
 30  5  1  0  0  0  0
 30 29  2  0  0  0  0
 31 33  1  0  0  0  0
 32 33  2  0  0  0  0
 33 30  1  0  0  0  0
 35 34  1  0  0  0  0
 36 37  1  6  0  0  0
 38 40  1  0  0  0  0
 39 36  1  6  0  0  0
 39 38  1  0  0  0  0
 39 40  1  0  0  0  0
 40 41  1  1  0  0  0
 42 53  1  1  0  0  0
 42 45  1  0  0  0  0
 44 51  1  0  0  0  0
 44 47  1  0  0  0  0
 45 43  1  0  0  0  0
 46 48  1  0  0  0  0
 47 41  1  6  0  0  0
 47 50  1  0  0  0  0
 48 45  1  0  0  0  0
 49 51  1  0  0  0  0
 50 42  1  0  0  0  0
 51 52  1  0  0  0  0
 52 50  2  0  0  0  0
 52 46  1  0  0  0  0
 53 54  1  0  0  0  0
M  END
>  <MODEL>
2

>  <REMARK>
 VINA RESULT:      -8.8      1.142      2.096
  Name = 
  10 active torsions:
  status: ('A' for Active; 'I' for Inactive)
    1  A    between atoms: C_3  and  C_9
    2  A    between atoms: C_5  and  C_14
    3  A    between atoms: C_5  and  C_52
    4  A    between atoms: C_16  and  C_39
    5  A    between atoms: C_27  and  C_44
    6  A    between atoms: N_29  and  C_39
    7  A    between atoms: C_34  and  C_47
    8  A    between atoms: C_35  and  N_40
    9  A    between atoms: C_37  and  C_44
   10  A    between atoms: C_46  and  C_54
                            x       y       z     vdW  Elec       q    Type
                         _______ _______ _______ _____ _____    ______ ____

>  <TORSDO>
F 10

$$$$
=
 OpenBabel10222415343D

 54 62  0  0  1  0  0  0  0  0999 V2000
  185.0720  178.7830  145.0830 C   0  0  0  0  0  3  0  0  0  0  0  0
  184.0910  178.7970  144.0940 C   0  0  0  0  0  0  0  0  0  0  0  0
  183.2280  178.5060  141.9460 C   0  0  0  0  0  0  0  0  0  0  0  0
  182.0910  178.9440  142.6170 C   0  0  0  0  0  0  0  0  0  0  0  0
  180.9570  177.5230  140.1110 C   0  0  0  0  0  0  0  0  0  0  0  0
  182.4850  179.2550  144.2370 S   0  0  0  0  0  0  0  0  0  0  0  0
  185.6290  177.9800  142.4260 C   0  0  0  0  0  3  0  0  0  0  0  0
  186.3580  178.3480  144.7280 C   0  0  0  0  0  3  0  0  0  0  0  0
  183.2490  178.2750  140.5350 N   0  0  0  0  0  0  0  0  0  0  0  0
  182.8330  176.2510  139.1070 C   0  0  0  0  0  1  0  0  0  0  0  0
  180.7920  179.2400  142.0010 C   0  0  0  0  0  0  0  0  0  0  0  0
  184.3520  178.4170  142.7840 C   0  0  0  0  0  0  0  0  0  0  0  0
  180.3320  178.6020  140.9170 C   0  0  0  0  0  3  0  0  0  0  0  0
  186.6370  177.9330  143.4070 C   0  0  0  0  0  0  0  0  0  0  0  0
  182.2950  177.3760  139.9390 C   0  0  0  0  0  0  0  0  0  0  0  0
  188.0150  177.4770  143.0430 C   0  0  1  0  0  3  0  0  0  0  0  0
  188.6290  176.7200  144.1640 C   0  0  1  0  0  3  0  0  0  0  0  0
  188.0690  176.0660  143.0520 O   0  0  0  0  0  0  0  0  0  0  0  0
  191.1770  176.4310  146.2730 C   0  0  2  0  0  3  0  0  0  0  0  0
  190.6650  176.4300  142.7910 O   0  0  0  0  0  0  0  0  0  0  0  0
  190.7520  178.0420  144.5220 C   0  0  1  0  0  3  0  0  0  0  0  0
  190.7000  175.6490  145.0700 C   0  0  0  0  0  2  0  0  0  0  0  0
  192.0380  177.4600  141.2400 O   0  0  0  0  0  0  0  0  0  0  0  0
  191.6120  177.7800  145.7420 C   0  0  0  0  0  2  0  0  0  0  0  0
  192.3430  175.7220  146.9300 C   0  0  0  0  0  1  0  0  0  0  0  0
  191.6310  178.5270  143.3690 C   0  0  0  0  0  2  0  0  0  0  0  0
  191.4860  177.4510  142.3700 C   0  0  0  0  0  0  0  0  0  0  0  0
  190.1640  176.6840  144.0970 C   0  0  1  0  0  0  0  0  0  0  0  0
  179.5850  177.0030  138.2380 O   0  0  0  0  0  0  0  0  0  0  0  0
  179.9950  176.6600  139.3810 C   0  0  0  0  0  0  0  0  0  0  0  0
  178.9600  175.3850  141.2520 O   0  0  0  0  0  1  0  0  0  0  0  0
  179.5760  174.3290  139.3210 O   0  0  0  0  0  0  0  0  0  0  0  0
  179.4940  175.4040  139.9700 C   0  0  0  0  0  0  0  0  0  0  0  0
  179.3260  181.1820  141.9230 O   0  0  0  0  0  1  0  0  0  0  0  0
  179.9590  180.2160  142.6320 N   0  0  0  0  0  2  0  0  0  0  0  0
  184.3200  178.8800  139.7400 C   0  0  1  0  0  3  0  0  0  0  0  0
  185.4030  179.2220  140.5520 O   0  0  0  0  0  1  0  0  0  0  0  0
  184.1690  178.3900  137.3070 C   0  0  0  0  0  2  0  0  0  0  0  0
  184.7720  177.9500  138.6250 C   0  0  1  0  0  3  0  0  0  0  0  0
  185.6050  178.7420  137.6390 C   0  0  1  0  0  3  0  0  0  0  0  0
  186.5610  177.7920  136.9410 C   0  0  0  0  0  2  0  0  0  0  0  0
  186.7760  174.4340  137.0140 C   0  0  1  0  0  3  0  0  0  0  0  0
  186.7260  172.1370  136.4080 C   0  0  0  0  0  1  0  0  0  0  0  0
  188.6100  177.5640  138.3310 C   0  0  0  0  0  2  0  0  0  0  0  0
  187.4900  173.3680  136.2780 N   0  0  0  0  0  0  0  0  0  0  0  0
  189.7090  174.2950  136.7880 C   0  0  0  0  0  2  0  0  0  0  0  0
  187.2690  176.9070  137.9560 C   0  0  2  0  0  3  0  0  0  0  0  0
  188.7830  173.0870  136.9070 C   0  0  0  0  0  2  0  0  0  0  0  0
  191.0570  176.8660  137.9400 C   0  0  0  0  0  1  0  0  0  0  0  0
  187.6830  175.6100  137.3170 C   0  0  0  0  0  0  0  0  0  0  0  0
  189.6230  176.6510  137.8320 N   0  0  0  0  0  0  0  0  0  0  0  0
  188.9960  175.5040  137.2990 C   0  0  0  0  0  0  0  0  0  0  0  0
  185.5700  174.9150  136.2090 C   0  0  0  0  0  2  0  0  0  0  0  0
  184.3930  174.3810  136.7380 O   0  0  0  0  0  1  0  0  0  0  0  0
  2  6  1  0  0  0  0
  2  1  2  0  0  0  0
  3  4  2  0  0  0  0
  3 12  1  0  0  0  0
  4  6  1  0  0  0  0
  5 13  1  0  0  0  0
  7 12  2  0  0  0  0
  7 14  1  0  0  0  0
  8  1  1  0  0  0  0
  9  3  1  0  0  0  0
 10 15  1  0  0  0  0
 11  4  1  0  0  0  0
 11 35  1  0  0  0  0
 12  2  1  0  0  0  0
 13 11  2  0  0  0  0
 14  8  2  0  0  0  0
 15  5  2  0  0  0  0
 15  9  1  0  0  0  0
 16 18  1  0  0  0  0
 16 14  1  1  0  0  0
 16 17  1  0  0  0  0
 17 18  1  6  0  0  0
 19 25  1  6  0  0  0
 20 28  1  0  0  0  0
 21 26  1  6  0  0  0
 21 24  1  0  0  0  0
 22 19  1  0  0  0  0
 23 27  2  0  0  0  0
 24 19  1  0  0  0  0
 27 20  1  0  0  0  0
 27 26  1  0  0  0  0
 28 17  1  0  0  0  0
 28 21  1  0  0  0  0
 28 22  1  1  0  0  0
 29 30  2  0  0  0  0
 30 33  1  0  0  0  0
 30  5  1  0  0  0  0
 32 33  2  0  0  0  0
 33 31  1  0  0  0  0
 34 35  1  0  0  0  0
 36  9  1  0  0  0  0
 36 37  1  1  0  0  0
 38 40  1  0  0  0  0
 38 39  1  0  0  0  0
 39 36  1  1  0  0  0
 40 41  1  6  0  0  0
 40 39  1  0  0  0  0
 42 53  1  6  0  0  0
 42 50  1  0  0  0  0
 45 43  1  0  0  0  0
 45 48  1  0  0  0  0
 45 42  1  0  0  0  0
 46 48  1  0  0  0  0
 46 52  1  0  0  0  0
 47 41  1  6  0  0  0
 47 44  1  0  0  0  0
 50 47  1  0  0  0  0
 51 49  1  0  0  0  0
 51 44  1  0  0  0  0
 52 50  2  0  0  0  0
 52 51  1  0  0  0  0
 53 54  1  0  0  0  0
M  END
>  <MODEL>
3

>  <REMARK>
 VINA RESULT:      -7.3      2.567      6.809
  Name = 
  10 active torsions:
  status: ('A' for Active; 'I' for Inactive)
    1  A    between atoms: C_3  and  C_9
    2  A    between atoms: C_5  and  C_14
    3  A    between atoms: C_5  and  C_52
    4  A    between atoms: C_16  and  C_39
    5  A    between atoms: C_27  and  C_44
    6  A    between atoms: N_29  and  C_39
    7  A    between atoms: C_34  and  C_47
    8  A    between atoms: C_35  and  N_40
    9  A    between atoms: C_37  and  C_44
   10  A    between atoms: C_46  and  C_54
                            x       y       z     vdW  Elec       q    Type
                         _______ _______ _______ _____ _____    ______ ____

>  <TORSDO>
F 10

$$$$
=
 OpenBabel10222415343D

 54 62  0  0  1  0  0  0  0  0999 V2000
  182.2090  178.9980  142.6300 C   0  0  0  0  0  3  0  0  0  0  0  0
  182.2490  178.6810  141.2740 C   0  0  0  0  0  0  0  0  0  0  0  0
  183.2440  178.0300  139.2670 C   0  0  0  0  0  0  0  0  0  0  0  0
  181.9250  178.1830  138.8550 C   0  0  0  0  0  0  0  0  0  0  0  0
  183.1580  176.3490  136.6860 C   0  0  0  0  0  0  0  0  0  0  0  0
  180.9850  178.6920  140.1710 S   0  0  0  0  0  0  0  0  0  0  0  0
  184.6120  178.2100  141.3570 C   0  0  0  0  0  3  0  0  0  0  0  0
  183.4030  178.9100  143.3610 C   0  0  0  0  0  3  0  0  0  0  0  0
  184.3050  177.7240  138.3580 N   0  0  0  0  0  0  0  0  0  0  0  0
  185.3430  175.5770  137.5690 C   0  0  0  0  0  1  0  0  0  0  0  0
  181.4390  178.0740  137.4740 C   0  0  0  0  0  0  0  0  0  0  0  0
  183.4220  178.3040  140.6330 C   0  0  0  0  0  0  0  0  0  0  0  0
  181.9970  177.2660  136.5620 C   0  0  0  0  0  3  0  0  0  0  0  0
  184.6010  178.5030  142.7340 C   0  0  0  0  0  0  0  0  0  0  0  0
  184.2140  176.5630  137.5110 C   0  0  0  0  0  0  0  0  0  0  0  0
  185.8680  178.4190  143.5270 C   0  0  1  0  0  3  0  0  0  0  0  0
  186.8420  177.5160  142.8610 C   0  0  1  0  0  3  0  0  0  0  0  0
  186.9450  178.9150  142.7590 O   0  0  0  0  0  0  0  0  0  0  0  0
  187.7300  177.9110  146.0350 C   0  0  2  0  0  3  0  0  0  0  0  0
  188.5200  175.7680  143.3570 O   0  0  0  0  0  0  0  0  0  0  0  0
  189.0440  177.9830  144.0080 C   0  0  1  0  0  3  0  0  0  0  0  0
  187.2940  176.7340  145.1940 C   0  0  0  0  0  2  0  0  0  0  0  0
  190.6430  175.0110  142.8360 O   0  0  0  0  0  0  0  0  0  0  0  0
  189.0710  178.3410  145.4810 C   0  0  0  0  0  2  0  0  0  0  0  0
  187.8680  177.4960  147.4850 C   0  0  0  0  0  1  0  0  0  0  0  0
  190.3440  177.2730  143.6280 C   0  0  0  0  0  2  0  0  0  0  0  0
  189.8820  175.9260  143.2430 C   0  0  0  0  0  0  0  0  0  0  0  0
  187.9060  176.9630  143.8230 C   0  0  1  0  0  0  0  0  0  0  0  0
  183.7170  175.3310  134.6090 O   0  0  0  0  0  0  0  0  0  0  0  0
  183.1530  175.2130  135.7320 C   0  0  0  0  0  0  0  0  0  0  0  0
  182.4150  172.9130  135.1300 O   0  0  0  0  0  0  0  0  0  0  0  0
  181.9580  173.7820  137.1940 O   0  0  0  0  0  1  0  0  0  0  0  0
  182.4900  173.9380  136.0650 C   0  0  0  0  0  0  0  0  0  0  0  0
  180.3100  179.7740  136.1470 O   0  0  0  0  0  1  0  0  0  0  0  0
  180.2760  178.8230  137.1120 N   0  0  0  0  0  2  0  0  0  0  0  0
  185.5170  178.5470  138.3890 C   0  0  1  0  0  3  0  0  0  0  0  0
  186.1740  178.4070  139.6130 O   0  0  0  0  0  1  0  0  0  0  0  0
  187.3110  179.3890  136.8880 C   0  0  0  0  0  2  0  0  0  0  0  0
  186.4540  178.1920  137.2460 C   0  0  1  0  0  3  0  0  0  0  0  0
  187.8820  178.2760  137.7440 C   0  0  1  0  0  3  0  0  0  0  0  0
  188.7420  177.3490  136.9050 C   0  0  0  0  0  2  0  0  0  0  0  0
  191.1240  175.1200  136.0790 C   0  0  1  0  0  3  0  0  0  0  0  0
  192.8750  173.9730  134.9550 C   0  0  0  0  0  1  0  0  0  0  0  0
  189.6680  176.9120  139.1720 C   0  0  0  0  0  2  0  0  0  0  0  0
  192.5740  175.1260  135.7880 N   0  0  0  0  0  0  0  0  0  0  0  0
  193.1580  176.1080  137.9660 C   0  0  0  0  0  2  0  0  0  0  0  0
  189.4060  176.2990  137.7830 C   0  0  2  0  0  3  0  0  0  0  0  0
  193.3450  174.9260  137.0180 C   0  0  0  0  0  2  0  0  0  0  0  0
  191.8360  177.4830  140.4390 C   0  0  0  0  0  1  0  0  0  0  0  0
  190.7870  175.9910  137.2720 C   0  0  0  0  0  0  0  0  0  0  0  0
  191.1150  176.9570  139.2900 N   0  0  0  0  0  0  0  0  0  0  0  0
  191.6960  176.3490  138.1570 C   0  0  0  0  0  0  0  0  0  0  0  0
  190.3380  175.6000  134.8600 C   0  0  0  0  0  2  0  0  0  0  0  0
  189.1840  174.8330  134.6970 O   0  0  0  0  0  1  0  0  0  0  0  0
  1  8  1  0  0  0  0
  2  1  2  0  0  0  0
  3 12  1  0  0  0  0
  4  3  2  0  0  0  0
  4  6  1  0  0  0  0
  5 15  2  0  0  0  0
  6  2  1  0  0  0  0
  7 14  1  0  0  0  0
  9 36  1  0  0  0  0
  9  3  1  0  0  0  0
 11  4  1  0  0  0  0
 12  2  1  0  0  0  0
 12  7  2  0  0  0  0
 13  5  1  0  0  0  0
 13 11  2  0  0  0  0
 14  8  2  0  0  0  0
 15 10  1  0  0  0  0
 15  9  1  0  0  0  0
 16 14  1  6  0  0  0
 17 18  1  6  0  0  0
 17 16  1  0  0  0  0
 17 28  1  0  0  0  0
 18 16  1  0  0  0  0
 19 25  1  1  0  0  0
 20 28  1  0  0  0  0
 21 26  1  1  0  0  0
 21 24  1  0  0  0  0
 22 19  1  0  0  0  0
 23 27  2  0  0  0  0
 24 19  1  0  0  0  0
 27 20  1  0  0  0  0
 27 26  1  0  0  0  0
 28 21  1  0  0  0  0
 28 22  1  1  0  0  0
 29 30  2  0  0  0  0
 30 33  1  0  0  0  0
 30  5  1  0  0  0  0
 31 33  2  0  0  0  0
 33 32  1  0  0  0  0
 34 35  1  0  0  0  0
 35 11  1  0  0  0  0
 36 37  1  1  0  0  0
 38 39  1  0  0  0  0
 38 40  1  0  0  0  0
 39 40  1  0  0  0  0
 39 36  1  1  0  0  0
 40 41  1  6  0  0  0
 42 53  1  6  0  0  0
 42 50  1  0  0  0  0
 43 45  1  0  0  0  0
 44 51  1  0  0  0  0
 45 42  1  0  0  0  0
 45 48  1  0  0  0  0
 46 52  1  0  0  0  0
 47 41  1  6  0  0  0
 47 44  1  0  0  0  0
 48 46  1  0  0  0  0
 50 47  1  0  0  0  0
 50 52  2  0  0  0  0
 51 49  1  0  0  0  0
 52 51  1  0  0  0  0
 54 53  1  0  0  0  0
M  END
>  <MODEL>
4

>  <REMARK>
 VINA RESULT:      -7.0      2.662      7.189
  Name = 
  10 active torsions:
  status: ('A' for Active; 'I' for Inactive)
    1  A    between atoms: C_3  and  C_9
    2  A    between atoms: C_5  and  C_14
    3  A    between atoms: C_5  and  C_52
    4  A    between atoms: C_16  and  C_39
    5  A    between atoms: C_27  and  C_44
    6  A    between atoms: N_29  and  C_39
    7  A    between atoms: C_34  and  C_47
    8  A    between atoms: C_35  and  N_40
    9  A    between atoms: C_37  and  C_44
   10  A    between atoms: C_46  and  C_54
                            x       y       z     vdW  Elec       q    Type
                         _______ _______ _______ _____ _____    ______ ____

>  <TORSDO>
F 10

$$$$
=
 OpenBabel10222415343D

 54 62  0  0  1  0  0  0  0  0999 V2000
  184.7570  178.6730  144.7560 C   0  0  0  0  0  3  0  0  0  0  0  0
  183.8370  178.6430  143.7100 C   0  0  0  0  0  0  0  0  0  0  0  0
  183.1180  178.3260  141.5130 C   0  0  0  0  0  0  0  0  0  0  0  0
  181.9220  178.6970  142.1180 C   0  0  0  0  0  0  0  0  0  0  0  0
  181.0150  177.2390  139.5420 C   0  0  0  0  0  0  0  0  0  0  0  0
  182.2020  179.0140  143.7600 S   0  0  0  0  0  0  0  0  0  0  0  0
  185.5110  177.9240  142.1310 C   0  0  0  0  0  3  0  0  0  0  0  0
  186.0830  178.3110  144.4740 C   0  0  0  0  0  3  0  0  0  0  0  0
  183.2340  178.1090  140.1040 N   0  0  0  0  0  0  0  0  0  0  0  0
  183.0130  176.0780  138.6430 C   0  0  0  0  0  1  0  0  0  0  0  0
  180.6470  178.9290  141.4280 C   0  0  0  0  0  0  0  0  0  0  0  0
  184.1950  178.2890  142.4150 C   0  0  0  0  0  0  0  0  0  0  0  0
  180.2870  178.2760  140.3160 C   0  0  0  0  0  3  0  0  0  0  0  0
  186.4610  177.9230  143.1700 C   0  0  0  0  0  0  0  0  0  0  0  0
  182.3670  177.1650  139.4480 C   0  0  0  0  0  0  0  0  0  0  0  0
  187.8810  177.5450  142.8850 C   0  0  1  0  0  3  0  0  0  0  0  0
  188.4660  176.8060  144.0340 C   0  0  1  0  0  3  0  0  0  0  0  0
  188.0090  176.1380  142.8840 O   0  0  0  0  0  0  0  0  0  0  0  0
  190.8980  176.5510  146.2810 C   0  0  2  0  0  3  0  0  0  0  0  0
  190.5920  176.6840  142.7770 O   0  0  0  0  0  0  0  0  0  0  0  0
  190.4910  178.2160  144.5780 C   0  0  1  0  0  3  0  0  0  0  0  0
  190.5350  175.8020  145.0190 C   0  0  0  0  0  2  0  0  0  0  0  0
  191.9970  177.8540  141.3590 O   0  0  0  0  0  0  0  0  0  0  0  0
  191.2900  177.9430  145.8360 C   0  0  0  0  0  2  0  0  0  0  0  0
  192.0590  175.8720  146.9760 C   0  0  0  0  0  1  0  0  0  0  0  0
  191.4090  178.7990  143.5030 C   0  0  0  0  0  2  0  0  0  0  0  0
  191.3800  177.7640  142.4520 C   0  0  0  0  0  0  0  0  0  0  0  0
  190.0020  176.8520  144.0600 C   0  0  1  0  0  0  0  0  0  0  0  0
  179.7530  176.6810  137.6030 O   0  0  0  0  0  0  0  0  0  0  0  0
  180.1450  176.3330  138.7510 C   0  0  0  0  0  0  0  0  0  0  0  0
  180.1480  173.8440  138.6940 O   0  0  0  0  0  0  0  0  0  0  0  0
  178.9310  174.9740  140.2650 O   0  0  0  0  0  1  0  0  0  0  0  0
  179.7170  175.0260  139.2840 C   0  0  0  0  0  0  0  0  0  0  0  0
  179.7090  181.1620  141.6660 O   0  0  0  0  0  1  0  0  0  0  0  0
  179.7270  179.8530  142.0140 N   0  0  0  0  0  2  0  0  0  0  0  0
  184.3160  178.7770  139.3770 C   0  0  1  0  0  3  0  0  0  0  0  0
  184.6870  179.9580  140.0250 O   0  0  0  0  0  1  0  0  0  0  0  0
  185.3850  177.0430  137.9530 C   0  0  0  0  0  2  0  0  0  0  0  0
  185.5200  177.8630  139.2190 C   0  0  1  0  0  3  0  0  0  0  0  0
  186.2760  178.2680  137.9700 C   0  0  1  0  0  3  0  0  0  0  0  0
  187.7300  177.8650  138.1340 C   0  0  0  0  0  2  0  0  0  0  0  0
  190.5900  176.2250  137.4590 C   0  0  1  0  0  3  0  0  0  0  0  0
  192.5280  174.8610  137.6380 C   0  0  0  0  0  1  0  0  0  0  0  0
  187.2350  177.1640  135.7990 C   0  0  0  0  0  2  0  0  0  0  0  0
  191.0830  174.8300  137.4810 N   0  0  0  0  0  0  0  0  0  0  0  0
  189.3520  174.0370  135.9240 C   0  0  0  0  0  2  0  0  0  0  0  0
  188.3540  177.5600  136.7800 C   0  0  2  0  0  3  0  0  0  0  0  0
  190.8490  174.1830  136.1870 C   0  0  0  0  0  2  0  0  0  0  0  0
  186.6790  174.9560  134.5960 C   0  0  0  0  0  1  0  0  0  0  0  0
  189.2000  176.3200  136.8640 C   0  0  0  0  0  0  0  0  0  0  0  0
  187.4970  175.7720  135.4810 N   0  0  0  0  0  0  0  0  0  0  0  0
  188.6970  175.3680  136.1040 C   0  0  0  0  0  0  0  0  0  0  0  0
  190.5800  176.8040  138.8720 C   0  0  0  0  0  2  0  0  0  0  0  0
  189.7890  176.0160  139.7100 O   0  0  0  0  0  1  0  0  0  0  0  0
  2  6  1  0  0  0  0
  2  1  2  0  0  0  0
  3  4  2  0  0  0  0
  3 12  1  0  0  0  0
  4  6  1  0  0  0  0
  5 13  1  0  0  0  0
  7 12  2  0  0  0  0
  7 14  1  0  0  0  0
  8  1  1  0  0  0  0
  9  3  1  0  0  0  0
 10 15  1  0  0  0  0
 11 35  1  0  0  0  0
 11  4  1  0  0  0  0
 12  2  1  0  0  0  0
 13 11  2  0  0  0  0
 14  8  2  0  0  0  0
 15  5  2  0  0  0  0
 15  9  1  0  0  0  0
 16 14  1  1  0  0  0
 16 17  1  0  0  0  0
 17 18  1  6  0  0  0
 17 28  1  0  0  0  0
 18 16  1  0  0  0  0
 19 25  1  6  0  0  0
 20 28  1  0  0  0  0
 21 26  1  6  0  0  0
 21 24  1  0  0  0  0
 22 19  1  0  0  0  0
 23 27  2  0  0  0  0
 24 19  1  0  0  0  0
 27 20  1  0  0  0  0
 27 26  1  0  0  0  0
 28 21  1  0  0  0  0
 28 22  1  1  0  0  0
 29 30  2  0  0  0  0
 30 33  1  0  0  0  0
 30  5  1  0  0  0  0
 31 33  2  0  0  0  0
 33 32  1  0  0  0  0
 34 35  1  0  0  0  0
 36 37  1  1  0  0  0
 36  9  1  0  0  0  0
 38 40  1  0  0  0  0
 38 39  1  0  0  0  0
 39 36  1  6  0  0  0
 40 41  1  1  0  0  0
 40 39  1  0  0  0  0
 42 45  1  0  0  0  0
 42 53  1  1  0  0  0
 44 47  1  0  0  0  0
 45 43  1  0  0  0  0
 46 52  1  0  0  0  0
 46 48  1  0  0  0  0
 47 50  1  0  0  0  0
 47 41  1  1  0  0  0
 48 45  1  0  0  0  0
 49 51  1  0  0  0  0
 50 42  1  0  0  0  0
 51 44  1  0  0  0  0
 51 52  1  0  0  0  0
 52 50  2  0  0  0  0
 53 54  1  0  0  0  0
M  END
>  <MODEL>
5

>  <REMARK>
 VINA RESULT:      -7.0      2.597      6.864
  Name = 
  10 active torsions:
  status: ('A' for Active; 'I' for Inactive)
    1  A    between atoms: C_3  and  C_9
    2  A    between atoms: C_5  and  C_14
    3  A    between atoms: C_5  and  C_52
    4  A    between atoms: C_16  and  C_39
    5  A    between atoms: C_27  and  C_44
    6  A    between atoms: N_29  and  C_39
    7  A    between atoms: C_34  and  C_47
    8  A    between atoms: C_35  and  N_40
    9  A    between atoms: C_37  and  C_44
   10  A    between atoms: C_46  and  C_54
                            x       y       z     vdW  Elec       q    Type
                         _______ _______ _______ _____ _____    ______ ____

>  <TORSDO>
F 10

$$$$
=
 OpenBabel10222415343D

 54 62  0  0  1  0  0  0  0  0999 V2000
  183.4080  179.2290  144.9390 C   0  0  0  0  0  3  0  0  0  0  0  0
  182.8350  179.0890  143.6770 C   0  0  0  0  0  0  0  0  0  0  0  0
  182.7300  178.4040  141.4490 C   0  0  0  0  0  0  0  0  0  0  0  0
  181.4960  179.0310  141.5770 C   0  0  0  0  0  0  0  0  0  0  0  0
  181.1210  177.1810  139.1230 C   0  0  0  0  0  0  0  0  0  0  0  0
  181.3460  179.6520  143.1480 S   0  0  0  0  0  0  0  0  0  0  0  0
  184.7370  177.8610  142.8460 C   0  0  0  0  0  3  0  0  0  0  0  0
  184.6730  178.6620  145.1530 C   0  0  0  0  0  3  0  0  0  0  0  0
  183.2040  177.8820  140.2050 N   0  0  0  0  0  0  0  0  0  0  0  0
  183.0550  175.6300  139.1020 C   0  0  0  0  0  1  0  0  0  0  0  0
  180.5340  179.2620  140.4930 C   0  0  0  0  0  0  0  0  0  0  0  0
  183.4800  178.4310  142.6380 C   0  0  0  0  0  0  0  0  0  0  0  0
  180.3970  178.4370  139.4470 C   0  0  0  0  0  3  0  0  0  0  0  0
  185.3340  177.9660  144.1170 C   0  0  0  0  0  0  0  0  0  0  0  0
  182.4080  176.9310  139.4730 C   0  0  0  0  0  0  0  0  0  0  0  0
  186.6850  177.3720  144.3590 C   0  0  1  0  0  3  0  0  0  0  0  0
  187.7500  178.2550  143.8160 C   0  0  1  0  0  3  0  0  0  0  0  0
  187.4420  178.2300  145.1880 O   0  0  0  0  0  0  0  0  0  0  0  0
  190.5660  177.5660  145.4340 C   0  0  2  0  0  3  0  0  0  0  0  0
  189.0020  176.6450  142.4180 O   0  0  0  0  0  0  0  0  0  0  0  0
  190.1970  178.5150  143.2430 C   0  0  1  0  0  3  0  0  0  0  0  0
  189.4880  176.7340  144.7770 C   0  0  0  0  0  2  0  0  0  0  0  0
  190.0770  176.3700  140.3880 O   0  0  0  0  0  0  0  0  0  0  0  0
  191.2520  178.3130  144.3120 C   0  0  0  0  0  2  0  0  0  0  0  0
  191.5530  176.6690  146.1520 C   0  0  0  0  0  1  0  0  0  0  0  0
  190.7730  178.1410  141.8760 C   0  0  0  0  0  2  0  0  0  0  0  0
  189.9480  176.9840  141.4790 C   0  0  0  0  0  0  0  0  0  0  0  0
  189.0670  177.5130  143.5430 C   0  0  1  0  0  0  0  0  0  0  0  0
  180.3350  176.4190  137.0110 O   0  0  0  0  0  0  0  0  0  0  0  0
  180.3690  176.2380  138.2590 C   0  0  0  0  0  0  0  0  0  0  0  0
  179.0050  175.1950  140.0620 O   0  0  0  0  0  1  0  0  0  0  0  0
  179.6230  173.9900  138.2210 O   0  0  0  0  0  0  0  0  0  0  0  0
  179.6430  175.0890  138.8320 C   0  0  0  0  0  0  0  0  0  0  0  0
  180.0430  181.6280  140.1980 O   0  0  0  0  0  1  0  0  0  0  0  0
  179.6630  180.3910  140.5990 N   0  0  0  0  0  2  0  0  0  0  0  0
  184.5490  178.2500  139.7550 C   0  0  1  0  0  3  0  0  0  0  0  0
  185.4660  177.2470  140.0750 O   0  0  0  0  0  1  0  0  0  0  0  0
  185.9900  178.8270  137.8130 C   0  0  0  0  0  2  0  0  0  0  0  0
  184.5740  178.5290  138.2610 C   0  0  1  0  0  3  0  0  0  0  0  0
  185.3940  177.4530  137.5800 C   0  0  1  0  0  3  0  0  0  0  0  0
  184.9180  177.3170  136.1460 C   0  0  0  0  0  2  0  0  0  0  0  0
  187.9340  176.2060  135.1480 C   0  0  1  0  0  3  0  0  0  0  0  0
  190.2730  175.9720  134.8060 C   0  0  0  0  0  1  0  0  0  0  0  0
  184.5270  174.8710  136.3770 C   0  0  0  0  0  2  0  0  0  0  0  0
  189.2050  175.7820  135.7740 N   0  0  0  0  0  0  0  0  0  0  0  0
  188.1340  174.0160  137.1080 C   0  0  0  0  0  2  0  0  0  0  0  0
  185.2900  175.9510  135.5880 C   0  0  2  0  0  3  0  0  0  0  0  0
  189.1870  174.3440  136.0520 C   0  0  0  0  0  2  0  0  0  0  0  0
  185.3080  173.0030  137.9670 C   0  0  0  0  0  1  0  0  0  0  0  0
  186.7330  175.6440  135.8830 C   0  0  0  0  0  0  0  0  0  0  0  0
  185.5580  174.1220  137.0730 N   0  0  0  0  0  0  0  0  0  0  0  0
  186.8270  174.6050  136.6870 C   0  0  0  0  0  0  0  0  0  0  0  0
  187.8430  177.7300  135.1150 C   0  0  0  0  0  2  0  0  0  0  0  0
  188.7530  178.2870  136.0140 O   0  0  0  0  0  1  0  0  0  0  0  0
  1  8  1  0  0  0  0
  2  1  2  0  0  0  0
  3  4  2  0  0  0  0
  3 12  1  0  0  0  0
  4  6  1  0  0  0  0
  5 13  1  0  0  0  0
  5 15  2  0  0  0  0
  6  2  1  0  0  0  0
  7 14  1  0  0  0  0
  9  3  1  0  0  0  0
 10 15  1  0  0  0  0
 11 35  1  0  0  0  0
 11  4  1  0  0  0  0
 12  7  2  0  0  0  0
 12  2  1  0  0  0  0
 13 11  2  0  0  0  0
 14  8  2  0  0  0  0
 15  9  1  0  0  0  0
 16 14  1  6  0  0  0
 16 18  1  0  0  0  0
 17 16  1  0  0  0  0
 17 18  1  1  0  0  0
 19 25  1  6  0  0  0
 20 28  1  0  0  0  0
 21 26  1  6  0  0  0
 21 28  1  0  0  0  0
 21 24  1  0  0  0  0
 22 19  1  0  0  0  0
 23 27  2  0  0  0  0
 24 19  1  0  0  0  0
 27 26  1  0  0  0  0
 27 20  1  0  0  0  0
 28 17  1  0  0  0  0
 28 22  1  1  0  0  0
 29 30  2  0  0  0  0
 30 33  1  0  0  0  0
 30  5  1  0  0  0  0
 32 33  2  0  0  0  0
 33 31  1  0  0  0  0
 34 35  1  0  0  0  0
 36 37  1  6  0  0  0
 36  9  1  0  0  0  0
 38 39  1  0  0  0  0
 39 36  1  1  0  0  0
 40 41  1  6  0  0  0
 40 38  1  0  0  0  0
 40 39  1  0  0  0  0
 42 53  1  1  0  0  0
 42 45  1  0  0  0  0
 42 50  1  0  0  0  0
 43 45  1  0  0  0  0
 44 51  1  0  0  0  0
 45 48  1  0  0  0  0
 47 50  1  0  0  0  0
 47 41  1  1  0  0  0
 47 44  1  0  0  0  0
 48 46  1  0  0  0  0
 50 52  2  0  0  0  0
 51 49  1  0  0  0  0
 52 51  1  0  0  0  0
 52 46  1  0  0  0  0
 53 54  1  0  0  0  0
M  END
>  <MODEL>
6

>  <REMARK>
 VINA RESULT:      -6.6      2.488      6.954
  Name = 
  10 active torsions:
  status: ('A' for Active; 'I' for Inactive)
    1  A    between atoms: C_3  and  C_9
    2  A    between atoms: C_5  and  C_14
    3  A    between atoms: C_5  and  C_52
    4  A    between atoms: C_16  and  C_39
    5  A    between atoms: C_27  and  C_44
    6  A    between atoms: N_29  and  C_39
    7  A    between atoms: C_34  and  C_47
    8  A    between atoms: C_35  and  N_40
    9  A    between atoms: C_37  and  C_44
   10  A    between atoms: C_46  and  C_54
                            x       y       z     vdW  Elec       q    Type
                         _______ _______ _______ _____ _____    ______ ____

>  <TORSDO>
F 10

$$$$
=
 OpenBabel10222415343D

 54 62  0  0  1  0  0  0  0  0999 V2000
  183.4950  178.8370  143.4220 C   0  0  0  0  0  3  0  0  0  0  0  0
  183.1920  178.6130  142.0810 C   0  0  0  0  0  0  0  0  0  0  0  0
  183.6430  178.0690  139.8570 C   0  0  0  0  0  0  0  0  0  0  0  0
  182.2720  178.2910  139.7890 C   0  0  0  0  0  0  0  0  0  0  0  0
  182.8580  176.5720  137.2820 C   0  0  0  0  0  0  0  0  0  0  0  0
  181.7020  178.7380  141.3220 S   0  0  0  0  0  0  0  0  0  0  0  0
  185.4810  178.0630  141.5580 C   0  0  0  0  0  3  0  0  0  0  0  0
  184.8250  178.6610  143.8340 C   0  0  0  0  0  3  0  0  0  0  0  0
  184.4380  177.7920  138.7010 N   0  0  0  0  0  0  0  0  0  0  0  0
  185.1520  175.6720  137.5590 C   0  0  0  0  0  1  0  0  0  0  0  0
  181.4630  178.2920  138.5640 C   0  0  0  0  0  0  0  0  0  0  0  0
  184.1580  178.2440  141.1530 C   0  0  0  0  0  0  0  0  0  0  0  0
  181.7450  177.5320  137.4990 C   0  0  0  0  0  3  0  0  0  0  0  0
  185.8160  178.2610  142.9110 C   0  0  0  0  0  0  0  0  0  0  0  0
  184.0910  176.6950  137.8360 C   0  0  0  0  0  0  0  0  0  0  0  0
  187.2310  178.0830  143.3650 C   0  0  1  0  0  3  0  0  0  0  0  0
  187.2720  177.5680  144.7580 C   0  0  1  0  0  3  0  0  0  0  0  0
  187.4720  176.7210  143.6530 O   0  0  0  0  0  0  0  0  0  0  0  0
  190.5040  177.6080  143.9990 C   0  0  2  0  0  3  0  0  0  0  0  0
  188.4500  178.5570  146.6950 O   0  0  0  0  0  0  0  0  0  0  0  0
  189.3230  176.5400  145.8170 C   0  0  1  0  0  3  0  0  0  0  0  0
  189.5280  178.6270  144.5400 C   0  0  0  0  0  2  0  0  0  0  0  0
  188.9580  178.2520  148.9310 O   0  0  0  0  0  0  0  0  0  0  0  0
  190.6480  176.5590  145.0800 C   0  0  0  0  0  2  0  0  0  0  0  0
  191.8410  178.2610  143.7180 C   0  0  0  0  0  1  0  0  0  0  0  0
  189.5750  176.5560  147.3250 C   0  0  0  0  0  2  0  0  0  0  0  0
  188.9860  177.8440  147.7420 C   0  0  0  0  0  0  0  0  0  0  0  0
  188.6050  177.8560  145.4670 C   0  0  1  0  0  0  0  0  0  0  0  0
  182.9910  175.6130  135.1080 O   0  0  0  0  0  0  0  0  0  0  0  0
  182.5700  175.5040  136.2930 C   0  0  0  0  0  0  0  0  0  0  0  0
  180.4420  174.4210  136.9990 O   0  0  0  0  0  1  0  0  0  0  0  0
  182.3410  173.1820  136.7050 O   0  0  0  0  0  0  0  0  0  0  0  0
  181.7860  174.3110  136.6630 C   0  0  0  0  0  0  0  0  0  0  0  0
  180.3440  180.4490  138.4240 O   0  0  0  0  0  1  0  0  0  0  0  0
  180.2840  179.1010  138.5410 N   0  0  0  0  0  2  0  0  0  0  0  0
  185.6590  178.5730  138.4850 C   0  0  1  0  0  3  0  0  0  0  0  0
  186.4200  178.6280  139.6530 O   0  0  0  0  0  1  0  0  0  0  0  0
  187.2110  179.1120  136.6190 C   0  0  0  0  0  2  0  0  0  0  0  0
  186.4850  177.9980  137.3450 C   0  0  1  0  0  3  0  0  0  0  0  0
  187.9500  178.2570  137.6290 C   0  0  1  0  0  3  0  0  0  0  0  0
  188.7740  177.1950  136.9240 C   0  0  0  0  0  2  0  0  0  0  0  0
  190.8150  174.5760  136.3730 C   0  0  1  0  0  3  0  0  0  0  0  0
  192.3380  173.0490  135.3780 C   0  0  0  0  0  1  0  0  0  0  0  0
  189.7950  177.0160  139.1850 C   0  0  0  0  0  2  0  0  0  0  0  0
  192.2320  174.3510  136.0170 N   0  0  0  0  0  0  0  0  0  0  0  0
  193.0750  175.5890  137.9670 C   0  0  0  0  0  2  0  0  0  0  0  0
  189.3690  176.2250  137.9340 C   0  0  2  0  0  3  0  0  0  0  0  0
  193.0570  174.2550  137.2250 C   0  0  0  0  0  2  0  0  0  0  0  0
  192.0960  177.5030  140.2330 C   0  0  0  0  0  1  0  0  0  0  0  0
  190.6650  175.6650  137.4170 C   0  0  0  0  0  0  0  0  0  0  0  0
  191.2410  176.8950  139.2250 N   0  0  0  0  0  0  0  0  0  0  0  0
  191.6680  176.0420  138.1840 C   0  0  0  0  0  0  0  0  0  0  0  0
  190.0100  174.9490  135.1300 C   0  0  0  0  0  2  0  0  0  0  0  0
  188.8710  174.1480  135.0330 O   0  0  0  0  0  1  0  0  0  0  0  0
  1  8  1  0  0  0  0
  2  1  2  0  0  0  0
  3 12  1  0  0  0  0
  4  3  2  0  0  0  0
  4  6  1  0  0  0  0
  5 13  1  0  0  0  0
  5 15  2  0  0  0  0
  6  2  1  0  0  0  0
  7 14  1  0  0  0  0
  9  3  1  0  0  0  0
 10 15  1  0  0  0  0
 11  4  1  0  0  0  0
 12  7  2  0  0  0  0
 12  2  1  0  0  0  0
 13 11  2  0  0  0  0
 14  8  2  0  0  0  0
 15  9  1  0  0  0  0
 16 14  1  6  0  0  0
 16 18  1  0  0  0  0
 16 17  1  0  0  0  0
 17 18  1  6  0  0  0
 17 28  1  0  0  0  0
 19 25  1  1  0  0  0
 19 22  1  0  0  0  0
 19 24  1  0  0  0  0
 20 27  1  0  0  0  0
 21 24  1  6  0  0  0
 21 26  1  0  0  0  0
 26 27  1  0  0  0  0
 27 23  2  0  0  0  0
 28 22  1  6  0  0  0
 28 21  1  0  0  0  0
 28 20  1  0  0  0  0
 29 30  2  0  0  0  0
 30 33  1  0  0  0  0
 30  5  1  0  0  0  0
 33 32  2  0  0  0  0
 33 31  1  0  0  0  0
 34 35  1  0  0  0  0
 35 11  1  0  0  0  0
 36  9  1  0  0  0  0
 36 37  1  1  0  0  0
 38 39  1  0  0  0  0
 38 40  1  0  0  0  0
 39 40  1  0  0  0  0
 39 36  1  1  0  0  0
 40 41  1  6  0  0  0
 42 53  1  6  0  0  0
 42 50  1  0  0  0  0
 43 45  1  0  0  0  0
 44 51  1  0  0  0  0
 45 42  1  0  0  0  0
 45 48  1  0  0  0  0
 46 52  1  0  0  0  0
 47 41  1  6  0  0  0
 47 44  1  0  0  0  0
 48 46  1  0  0  0  0
 50 47  1  0  0  0  0
 50 52  2  0  0  0  0
 51 49  1  0  0  0  0
 52 51  1  0  0  0  0
 54 53  1  0  0  0  0
M  END
>  <MODEL>
7

>  <REMARK>
 VINA RESULT:      -6.6      2.651      7.297
  Name = 
  10 active torsions:
  status: ('A' for Active; 'I' for Inactive)
    1  A    between atoms: C_3  and  C_9
    2  A    between atoms: C_5  and  C_14
    3  A    between atoms: C_5  and  C_52
    4  A    between atoms: C_16  and  C_39
    5  A    between atoms: C_27  and  C_44
    6  A    between atoms: N_29  and  C_39
    7  A    between atoms: C_34  and  C_47
    8  A    between atoms: C_35  and  N_40
    9  A    between atoms: C_37  and  C_44
   10  A    between atoms: C_46  and  C_54
                            x       y       z     vdW  Elec       q    Type
                         _______ _______ _______ _____ _____    ______ ____

>  <TORSDO>
F 10

$$$$
=
 OpenBabel10222415343D

 54 62  0  0  1  0  0  0  0  0999 V2000
  184.3260  174.2580  136.3550 C   0  0  0  0  0  3  0  0  0  0  0  0
  183.5980  175.1650  137.1230 C   0  0  0  0  0  0  0  0  0  0  0  0
  183.2600  177.0940  138.3900 C   0  0  0  0  0  0  0  0  0  0  0  0
  181.9850  176.5410  138.4300 C   0  0  0  0  0  0  0  0  0  0  0  0
  181.5060  179.5240  139.1050 C   0  0  0  0  0  0  0  0  0  0  0  0
  181.9860  175.0760  137.5750 S   0  0  0  0  0  0  0  0  0  0  0  0
  185.5050  176.6170  137.3870 C   0  0  0  0  0  3  0  0  0  0  0  0
  185.6740  174.5500  136.0960 C   0  0  0  0  0  3  0  0  0  0  0  0
  183.6120  178.2730  139.1190 N   0  0  0  0  0  0  0  0  0  0  0  0
  183.6070  180.7210  138.5580 C   0  0  0  0  0  1  0  0  0  0  0  0
  180.8520  177.0520  139.2100 C   0  0  0  0  0  0  0  0  0  0  0  0
  184.1660  176.3200  137.6450 C   0  0  0  0  0  0  0  0  0  0  0  0
  180.6750  178.3520  139.4800 C   0  0  0  0  0  3  0  0  0  0  0  0
  186.2630  175.7320  136.5960 C   0  0  0  0  0  0  0  0  0  0  0  0
  182.8520  179.4830  138.9400 C   0  0  0  0  0  0  0  0  0  0  0  0
  187.7030  176.0260  136.3170 C   0  0  1  0  0  3  0  0  0  0  0  0
  188.5160  174.7850  136.4050 C   0  0  1  0  0  3  0  0  0  0  0  0
  188.1190  175.3190  135.1660 O   0  0  0  0  0  0  0  0  0  0  0  0
  190.3590  176.7080  138.3880 C   0  0  2  0  0  3  0  0  0  0  0  0
  190.8630  174.0570  136.1270 O   0  0  0  0  0  0  0  0  0  0  0  0
  190.4320  176.3810  135.9950 C   0  0  1  0  0  3  0  0  0  0  0  0
  190.2560  175.2190  138.1500 C   0  0  0  0  0  2  0  0  0  0  0  0
  192.6090  173.9060  134.6170 O   0  0  0  0  0  0  0  0  0  0  0  0
  190.9100  177.2940  137.1060 C   0  0  0  0  0  2  0  0  0  0  0  0
  191.2980  176.9890  139.5430 C   0  0  0  0  0  1  0  0  0  0  0  0
  191.5970  176.0550  135.0600 C   0  0  0  0  0  2  0  0  0  0  0  0
  191.7570  174.5980  135.2320 C   0  0  0  0  0  0  0  0  0  0  0  0
  190.0070  175.0600  136.6610 C   0  0  1  0  0  0  0  0  0  0  0  0
  180.8100  181.5070  137.9890 O   0  0  0  0  0  0  0  0  0  0  0  0
  180.7680  180.8100  139.0410 C   0  0  0  0  0  0  0  0  0  0  0  0
  179.0270  182.2920  140.0250 O   0  0  0  0  0  0  0  0  0  0  0  0
  180.2110  180.8480  141.3430 O   0  0  0  0  0  1  0  0  0  0  0  0
  179.9890  181.3030  140.1910 C   0  0  0  0  0  0  0  0  0  0  0  0
  178.9460  175.5970  138.7930 O   0  0  0  0  0  1  0  0  0  0  0  0
  179.8620  176.1160  139.6450 N   0  0  0  0  0  2  0  0  0  0  0  0
  184.8140  178.2490  139.9560 C   0  0  1  0  0  3  0  0  0  0  0  0
  185.8780  178.8790  139.3070 O   0  0  0  0  0  1  0  0  0  0  0  0
  183.4000  178.2200  142.0000 C   0  0  0  0  0  2  0  0  0  0  0  0
  184.5600  178.9030  141.3040 C   0  0  1  0  0  3  0  0  0  0  0  0
  184.8240  177.8850  142.3950 C   0  0  1  0  0  3  0  0  0  0  0  0
  185.2120  178.6240  143.6620 C   0  0  0  0  0  2  0  0  0  0  0  0
  188.0670  176.8440  143.7550 C   0  0  1  0  0  3  0  0  0  0  0  0
  190.2670  176.0490  143.3390 C   0  0  0  0  0  1  0  0  0  0  0  0
  185.3360  178.2160  146.1120 C   0  0  0  0  0  2  0  0  0  0  0  0
  189.5040  177.0930  144.0030 N   0  0  0  0  0  0  0  0  0  0  0  0
  189.1080  178.0350  146.2390 C   0  0  0  0  0  2  0  0  0  0  0  0
  185.6880  177.6460  144.7260 C   0  0  2  0  0  3  0  0  0  0  0  0
  189.8120  176.9500  145.4280 C   0  0  0  0  0  2  0  0  0  0  0  0
  186.7890  179.0490  148.0680 C   0  0  0  0  0  1  0  0  0  0  0  0
  187.1900  177.5860  144.7440 C   0  0  0  0  0  0  0  0  0  0  0  0
  186.6180  178.4800  146.7400 N   0  0  0  0  0  0  0  0  0  0  0  0
  187.6550  178.0330  145.8930 C   0  0  0  0  0  0  0  0  0  0  0  0
  187.6960  177.2610  142.3330 C   0  0  0  0  0  2  0  0  0  0  0  0
  188.3150  178.4690  142.0070 O   0  0  0  0  0  1  0  0  0  0  0  0
  1  2  1  0  0  0  0
  2  6  1  0  0  0  0
  2 12  2  0  0  0  0
  3  4  2  0  0  0  0
  3  9  1  0  0  0  0
  4 11  1  0  0  0  0
  5 13  1  0  0  0  0
  6  4  1  0  0  0  0
  7 12  1  0  0  0  0
  8  1  2  0  0  0  0
  8 14  1  0  0  0  0
  9 36  1  0  0  0  0
 10 15  1  0  0  0  0
 11 13  2  0  0  0  0
 11 35  1  0  0  0  0
 12  3  1  0  0  0  0
 14  7  2  0  0  0  0
 15  5  2  0  0  0  0
 15  9  1  0  0  0  0
 16 17  1  0  0  0  0
 16 14  1  1  0  0  0
 17 18  1  6  0  0  0
 17 28  1  0  0  0  0
 18 16  1  0  0  0  0
 19 25  1  1  0  0  0
 20 28  1  0  0  0  0
 21 26  1  6  0  0  0
 21 28  1  0  0  0  0
 21 24  1  0  0  0  0
 22 19  1  0  0  0  0
 23 27  2  0  0  0  0
 24 19  1  0  0  0  0
 26 27  1  0  0  0  0
 27 20  1  0  0  0  0
 28 22  1  1  0  0  0
 29 30  2  0  0  0  0
 30  5  1  0  0  0  0
 30 33  1  0  0  0  0
 31 33  2  0  0  0  0
 33 32  1  0  0  0  0
 34 35  1  0  0  0  0
 36 37  1  6  0  0  0
 38 40  1  0  0  0  0
 39 36  1  6  0  0  0
 39 38  1  0  0  0  0
 39 40  1  0  0  0  0
 40 41  1  1  0  0  0
 42 53  1  6  0  0  0
 42 45  1  0  0  0  0
 42 50  1  0  0  0  0
 43 45  1  0  0  0  0
 44 51  1  0  0  0  0
 45 48  1  0  0  0  0
 47 41  1  6  0  0  0
 47 50  1  0  0  0  0
 47 44  1  0  0  0  0
 48 46  1  0  0  0  0
 50 52  2  0  0  0  0
 51 49  1  0  0  0  0
 52 46  1  0  0  0  0
 52 51  1  0  0  0  0
 54 53  1  0  0  0  0
M  END
>  <MODEL>
8

>  <REMARK>
 VINA RESULT:      -6.4      1.591      2.308
  Name = 
  10 active torsions:
  status: ('A' for Active; 'I' for Inactive)
    1  A    between atoms: C_3  and  C_9
    2  A    between atoms: C_5  and  C_14
    3  A    between atoms: C_5  and  C_52
    4  A    between atoms: C_16  and  C_39
    5  A    between atoms: C_27  and  C_44
    6  A    between atoms: N_29  and  C_39
    7  A    between atoms: C_34  and  C_47
    8  A    between atoms: C_35  and  N_40
    9  A    between atoms: C_37  and  C_44
   10  A    between atoms: C_46  and  C_54
                            x       y       z     vdW  Elec       q    Type
                         _______ _______ _______ _____ _____    ______ ____

>  <TORSDO>
F 10

$$$$
