=
 OpenBabel10222416173D

 46 53  0  0  1  0  0  0  0  0999 V2000
  182.9450  175.6990  137.7170 C   0  0  0  0  0  0  0  0  0  0  0  0
  180.7000  179.4020  137.7610 C   0  0  0  0  0  3  0  0  0  0  0  0
  183.1190  173.2980  137.3650 C   0  0  0  0  0  0  0  0  0  0  0  0
  180.6130  177.3020  139.0710 C   0  0  0  0  0  0  0  0  0  0  0  0
  182.9990  179.4630  138.0140 C   0  0  0  0  0  3  0  0  0  0  0  0
  180.9600  174.3740  137.2150 C   0  0  0  0  0  3  0  0  0  0  0  0
  181.7460  173.2230  137.1380 C   0  0  0  0  0  3  0  0  0  0  0  0
  182.7000  178.1690  138.0160 C   0  0  0  0  0  0  0  0  0  0  0  0
  183.7120  174.5260  137.6590 C   0  0  0  0  0  3  0  0  0  0  0  0
  180.3330  177.1910  140.3250 N   0  0  0  0  0  0  0  0  0  0  0  0
  181.5360  175.6150  137.5070 C   0  0  0  0  0  0  0  0  0  0  0  0
  183.8970  172.1490  137.2920 O   0  0  0  0  0  1  0  0  0  0  0  0
  183.6490  177.0070  138.0420 C   0  0  2  0  0  3  0  0  0  0  0  0
  181.7460  180.2250  137.8530 C   0  0  0  0  0  3  0  0  0  0  0  0
  181.2480  178.0350  137.9000 C   0  0  2  0  0  0  0  0  0  0  0  0
  180.5930  176.7950  137.6210 C   0  0  2  0  0  3  0  0  0  0  0  0
  185.8260  177.5030  134.9490 C   0  0  0  0  0  3  0  0  0  0  0  0
  187.1950  177.8050  136.9290 C   0  0  0  0  0  0  0  0  0  0  0  0
  187.0650  177.7760  135.5360 C   0  0  0  0  0  3  0  0  0  0  0  0
  184.8360  177.2540  137.1500 C   0  0  0  0  0  0  0  0  0  0  0  0
  184.7130  177.2490  135.7530 C   0  0  0  0  0  3  0  0  0  0  0  0
  186.0740  177.5440  137.7320 C   0  0  0  0  0  3  0  0  0  0  0  0
  188.4390  178.1060  137.4860 O   0  0  0  0  0  0  0  0  0  0  0  0
  189.5570  177.2330  137.3770 C   0  0  0  0  0  2  0  0  0  0  0  0
  189.9050  176.6480  138.7470 C   0  0  2  0  0  3  0  0  0  0  0  0
  189.4600  177.3390  143.4320 C   0  0  0  0  0  1  0  0  0  0  0  0
  189.5160  177.7720  140.9430 C   0  0  0  0  0  0  0  0  0  0  0  0
  192.0720  177.4020  140.3100 S   0  0  0  0  0  0  0  0  0  0  0  0
  191.5550  177.0720  142.0340 C   0  0  0  0  0  2  0  0  0  0  0  0
  188.3080  178.1290  140.9110 O   0  0  0  0  0  0  0  0  0  0  0  0
  190.3660  177.7400  139.7240 C   0  0  1  0  0  3  0  0  0  0  0  0
  190.1510  177.3980  142.1540 N   0  0  0  0  0  0  0  0  0  0  0  0
  190.8960  175.5950  138.6160 N   0  0  0  0  0  0  0  0  0  0  0  0
  191.0470  174.9200  137.5310 C   0  0  0  0  0  2  0  0  0  0  0  0
  180.7460  178.1620  141.2020 O   0  0  0  0  0  0  0  0  0  0  0  0
  184.1970  179.0810  144.1610 C   0  0  2  0  0  0  0  0  0  0  0  0
  183.9630  178.8760  142.7520 N   0  0  0  0  0  0  0  0  0  0  0  0
  186.2660  178.5060  145.5920 C   0  0  0  0  0  1  0  0  0  0  0  0
  182.0860  178.4180  141.3690 N   0  0  0  0  0  0  0  0  0  0  0  0
  182.8710  178.7760  144.8720 C   0  0  0  0  0  2  0  0  0  0  0  0
  184.9760  178.0430  142.1240 C   0  0  0  0  0  2  0  0  0  0  0  0
  181.7930  178.6880  143.7900 C   0  0  0  0  0  2  0  0  0  0  0  0
  182.5840  178.6510  142.5400 C   0  0  0  0  0  0  0  0  0  0  0  0
  185.9850  177.7340  143.2190 C   0  0  0  0  0  2  0  0  0  0  0  0
  184.6010  180.5330  144.4000 C   0  0  0  0  0  1  0  0  0  0  0  0
  185.2760  178.0610  144.5260 C   0  0  2  0  0  3  0  0  0  0  0  0
  1 13  1  0  0  0  0
  2 14  2  0  0  0  0
  3  9  2  0  0  0  0
  4 10  2  0  0  0  0
  5  8  2  0  0  0  0
  6 11  1  0  0  0  0
  7  6  2  0  0  0  0
  7  3  1  0  0  0  0
  8 13  1  0  0  0  0
  9  1  1  0  0  0  0
 10 35  1  0  0  0  0
 11  1  2  0  0  0  0
 12  3  1  0  0  0  0
 13 20  1  6  0  0  0
 14  5  1  0  0  0  0
 15  2  1  6  0  0  0
 15  8  1  0  0  0  0
 15  4  1  0  0  0  0
 16 11  1  1  0  0  0
 16 15  1  0  0  0  0
 16  4  1  0  0  0  0
 17 19  2  0  0  0  0
 17 21  1  0  0  0  0
 18 23  1  0  0  0  0
 18 22  2  0  0  0  0
 19 18  1  0  0  0  0
 20 22  1  0  0  0  0
 21 20  2  0  0  0  0
 24 23  1  0  0  0  0
 25 24  1  6  0  0  0
 27 32  1  0  0  0  0
 28 29  1  0  0  0  0
 29 32  1  0  0  0  0
 30 27  2  0  0  0  0
 31 25  1  6  0  0  0
 31 28  1  0  0  0  0
 31 27  1  0  0  0  0
 32 26  1  0  0  0  0
 33 25  1  0  0  0  0
 34 33  2  0  0  0  0
 35 39  1  0  0  0  0
 36 45  1  1  0  0  0
 36 46  1  0  0  0  0
 36 40  1  0  0  0  0
 37 36  1  0  0  0  0
 39 43  2  0  0  0  0
 41 37  1  0  0  0  0
 41 44  1  0  0  0  0
 42 40  1  0  0  0  0
 43 37  1  0  0  0  0
 43 42  1  0  0  0  0
 44 46  1  0  0  0  0
 46 38  1  1  0  0  0
M  END
>  <MODEL>
1

>  <REMARK>
 VINA RESULT:      -7.7      0.000      0.000
  Name = 
  8 active torsions:
  status: ('A' for Active; 'I' for Inactive)
    1  A    between atoms: N_2  and  C_8
    2  A    between atoms: C_8  and  C_13
    3  A    between atoms: C_8  and  C_24
    4  A    between atoms: O_11  and  C_13
    5  A    between atoms: O_11  and  C_21
    6  A    between atoms: N_17  and  O_41
    7  A    between atoms: N_29  and  O_41
    8  A    between atoms: C_31  and  C_36
                            x       y       z     vdW  Elec       q    Type
                         _______ _______ _______ _____ _____    ______ ____

>  <TORSDO>
F 8

$$$$
=
 OpenBabel10222416173D

 46 53  0  0  1  0  0  0  0  0999 V2000
  184.7540  178.1950  139.1710 C   0  0  0  0  0  0  0  0  0  0  0  0
  183.3530  175.4770  136.1040 C   0  0  0  0  0  3  0  0  0  0  0  0
  184.7820  179.0180  141.4600 C   0  0  0  0  0  0  0  0  0  0  0  0
  182.2910  177.2440  137.4770 C   0  0  0  0  0  0  0  0  0  0  0  0
  185.1200  176.9000  135.6430 C   0  0  0  0  0  3  0  0  0  0  0  0
  183.2220  177.2820  140.8340 C   0  0  0  0  0  3  0  0  0  0  0  0
  183.7640  178.1290  141.8020 C   0  0  0  0  0  3  0  0  0  0  0  0
  184.7050  177.2660  136.8500 C   0  0  0  0  0  0  0  0  0  0  0  0
  185.2670  179.0550  140.1530 C   0  0  0  0  0  3  0  0  0  0  0  0
  181.3560  178.0490  137.1020 N   0  0  0  0  0  0  0  0  0  0  0  0
  183.6960  177.3020  139.5180 C   0  0  0  0  0  0  0  0  0  0  0  0
  185.3160  179.8630  142.4260 O   0  0  0  0  0  1  0  0  0  0  0  0
  185.3240  178.2820  137.7640 C   0  0  2  0  0  3  0  0  0  0  0  0
  184.2720  175.7820  135.1860 C   0  0  0  0  0  3  0  0  0  0  0  0
  183.5530  176.4400  137.2090 C   0  0  2  0  0  0  0  0  0  0  0  0
  183.0070  176.3840  138.5300 C   0  0  2  0  0  3  0  0  0  0  0  0
  188.9870  178.7850  136.8250 C   0  0  0  0  0  3  0  0  0  0  0  0
  188.8670  177.3390  138.7690 C   0  0  0  0  0  0  0  0  0  0  0  0
  189.6210  178.0150  137.8040 C   0  0  0  0  0  3  0  0  0  0  0  0
  186.8260  178.1840  137.7500 C   0  0  0  0  0  0  0  0  0  0  0  0
  187.5940  178.8750  136.8010 C   0  0  0  0  0  3  0  0  0  0  0  0
  187.4670  177.4290  138.7370 C   0  0  0  0  0  3  0  0  0  0  0  0
  189.5300  176.5980  139.7490 O   0  0  0  0  0  0  0  0  0  0  0  0
  190.5680  177.1480  140.5520 C   0  0  0  0  0  2  0  0  0  0  0  0
  190.2920  176.8740  142.0310 C   0  0  2  0  0  3  0  0  0  0  0  0
  187.3970  177.3660  145.7730 C   0  0  0  0  0  1  0  0  0  0  0  0
  188.3920  177.6300  143.4650 C   0  0  0  0  0  0  0  0  0  0  0  0
  190.7030  178.8600  143.9270 S   0  0  0  0  0  0  0  0  0  0  0  0
  189.6890  178.3640  145.3660 C   0  0  0  0  0  2  0  0  0  0  0  0
  187.3620  177.1780  142.8970 O   0  0  0  0  0  0  0  0  0  0  0  0
  189.5910  178.0650  142.7030 C   0  0  1  0  0  3  0  0  0  0  0  0
  188.4640  177.7750  144.8730 N   0  0  0  0  0  0  0  0  0  0  0  0
  191.5180  176.5180  142.7210 N   0  0  0  0  0  0  0  0  0  0  0  0
  191.5570  175.6180  143.6410 C   0  0  0  0  0  2  0  0  0  0  0  0
  181.3390  178.5170  135.8110 O   0  0  0  0  0  0  0  0  0  0  0  0
  180.4290  182.8380  137.2280 C   0  0  2  0  0  0  0  0  0  0  0  0
  180.2220  181.9720  136.0930 N   0  0  0  0  0  0  0  0  0  0  0  0
  180.7760  185.3930  137.3120 C   0  0  0  0  0  1  0  0  0  0  0  0
  180.7540  179.7270  135.5230 N   0  0  0  0  0  0  0  0  0  0  0  0
  181.3420  182.0750  138.1980 C   0  0  0  0  0  2  0  0  0  0  0  0
  180.4480  182.6380  134.8220 C   0  0  0  0  0  2  0  0  0  0  0  0
  181.3970  180.6250  137.7140 C   0  0  0  0  0  2  0  0  0  0  0  0
  180.7770  180.7020  136.3730 C   0  0  0  0  0  0  0  0  0  0  0  0
  180.7740  184.0820  135.1710 C   0  0  0  0  0  2  0  0  0  0  0  0
  179.0870  183.1330  137.8910 C   0  0  0  0  0  1  0  0  0  0  0  0
  181.1280  184.0690  136.6510 C   0  0  2  0  0  3  0  0  0  0  0  0
  1 11  2  0  0  0  0
  1  9  1  0  0  0  0
  3  7  1  0  0  0  0
  3 12  1  0  0  0  0
  5  8  2  0  0  0  0
  6  7  2  0  0  0  0
  8 15  1  0  0  0  0
  8 13  1  0  0  0  0
  9  3  2  0  0  0  0
 10  4  2  0  0  0  0
 11  6  1  0  0  0  0
 13 20  1  1  0  0  0
 13  1  1  0  0  0  0
 14  5  1  0  0  0  0
 14  2  2  0  0  0  0
 15  2  1  6  0  0  0
 15  4  1  0  0  0  0
 15 16  1  0  0  0  0
 16  4  1  6  0  0  0
 16 11  1  0  0  0  0
 17 19  1  0  0  0  0
 18 23  1  0  0  0  0
 19 18  2  0  0  0  0
 20 22  2  0  0  0  0
 21 17  2  0  0  0  0
 21 20  1  0  0  0  0
 22 18  1  0  0  0  0
 23 24  1  0  0  0  0
 25 24  1  6  0  0  0
 25 33  1  0  0  0  0
 27 32  1  0  0  0  0
 28 29  1  0  0  0  0
 30 27  2  0  0  0  0
 31 25  1  1  0  0  0
 31 27  1  0  0  0  0
 31 28  1  0  0  0  0
 32 29  1  0  0  0  0
 32 26  1  0  0  0  0
 33 34  2  0  0  0  0
 35 10  1  0  0  0  0
 36 45  1  1  0  0  0
 36 40  1  0  0  0  0
 37 43  1  0  0  0  0
 37 36  1  0  0  0  0
 39 35  1  0  0  0  0
 39 43  2  0  0  0  0
 41 44  1  0  0  0  0
 41 37  1  0  0  0  0
 42 40  1  0  0  0  0
 43 42  1  0  0  0  0
 44 46  1  0  0  0  0
 46 36  1  0  0  0  0
 46 38  1  1  0  0  0
M  END
>  <MODEL>
2

>  <REMARK>
 VINA RESULT:      -7.6      2.724      5.763
  Name = 
  8 active torsions:
  status: ('A' for Active; 'I' for Inactive)
    1  A    between atoms: N_2  and  C_8
    2  A    between atoms: C_8  and  C_13
    3  A    between atoms: C_8  and  C_24
    4  A    between atoms: O_11  and  C_13
    5  A    between atoms: O_11  and  C_21
    6  A    between atoms: N_17  and  O_41
    7  A    between atoms: N_29  and  O_41
    8  A    between atoms: C_31  and  C_36
                            x       y       z     vdW  Elec       q    Type
                         _______ _______ _______ _____ _____    ______ ____

>  <TORSDO>
F 8

$$$$
=
 OpenBabel10222416173D

 46 53  0  0  1  0  0  0  0  0999 V2000
  185.0490  174.1460  136.4110 C   0  0  0  0  0  0  0  0  0  0  0  0
  181.3800  175.5590  134.5940 C   0  0  0  0  0  3  0  0  0  0  0  0
  186.7550  172.4480  136.7620 C   0  0  0  0  0  0  0  0  0  0  0  0
  181.9410  173.7690  136.2120 C   0  0  0  0  0  0  0  0  0  0  0  0
  182.7080  177.0410  135.7760 C   0  0  0  0  0  3  0  0  0  0  0  0
  184.7940  171.9180  135.4530 C   0  0  0  0  0  3  0  0  0  0  0  0
  186.0210  171.5410  136.0000 C   0  0  0  0  0  3  0  0  0  0  0  0
  183.2810  175.8580  135.9650 C   0  0  0  0  0  0  0  0  0  0  0  0
  186.2680  173.7380  136.9710 C   0  0  0  0  0  3  0  0  0  0  0  0
  181.2240  173.3870  137.2130 N   0  0  0  0  0  0  0  0  0  0  0  0
  184.2890  173.2080  135.6500 C   0  0  0  0  0  0  0  0  0  0  0  0
  187.9740  172.0670  137.3090 O   0  0  0  0  0  1  0  0  0  0  0  0
  184.5720  175.5660  136.6740 C   0  0  2  0  0  3  0  0  0  0  0  0
  181.5240  176.8450  134.9180 C   0  0  0  0  0  3  0  0  0  0  0  0
  182.4780  174.8450  135.2810 C   0  0  2  0  0  0  0  0  0  0  0  0
  182.9250  173.5040  135.0610 C   0  0  2  0  0  3  0  0  0  0  0  0
  186.9140  177.8630  134.7280 C   0  0  0  0  0  3  0  0  0  0  0  0
  187.1990  178.2810  137.1010 C   0  0  0  0  0  0  0  0  0  0  0  0
  187.5380  178.5530  135.7720 C   0  0  0  0  0  3  0  0  0  0  0  0
  185.6210  176.5930  136.3400 C   0  0  0  0  0  0  0  0  0  0  0  0
  185.9530  176.8900  135.0110 C   0  0  0  0  0  3  0  0  0  0  0  0
  186.2360  177.2970  137.3790 C   0  0  0  0  0  3  0  0  0  0  0  0
  187.8200  179.0040  138.1200 O   0  0  0  0  0  0  0  0  0  0  0  0
  188.9790  178.5310  138.7960 C   0  0  0  0  0  2  0  0  0  0  0  0
  188.5780  177.7210  140.0300 C   0  0  2  0  0  3  0  0  0  0  0  0
  184.8430  178.0960  142.9500 C   0  0  0  0  0  1  0  0  0  0  0  0
  186.7500  178.7140  141.4130 C   0  0  0  0  0  0  0  0  0  0  0  0
  188.9080  177.9660  142.7750 S   0  0  0  0  0  0  0  0  0  0  0  0
  187.2650  177.5910  143.4890 C   0  0  0  0  0  2  0  0  0  0  0  0
  185.9860  179.2720  140.5810 O   0  0  0  0  0  0  0  0  0  0  0  0
  188.2210  178.6360  141.2110 C   0  0  1  0  0  3  0  0  0  0  0  0
  186.2560  178.1400  142.6110 N   0  0  0  0  0  0  0  0  0  0  0  0
  189.6220  176.7770  140.3820 N   0  0  0  0  0  0  0  0  0  0  0  0
  190.7060  176.6580  139.6990 C   0  0  0  0  0  2  0  0  0  0  0  0
  180.4930  174.3120  137.9170 O   0  0  0  0  0  0  0  0  0  0  0  0
  180.3250  178.8470  138.8760 C   0  0  2  0  0  0  0  0  0  0  0  0
  181.1760  177.6980  139.0720 N   0  0  0  0  0  0  0  0  0  0  0  0
  179.9570  180.9050  140.3880 C   0  0  0  0  0  1  0  0  0  0  0  0
  181.1180  175.3950  138.4900 N   0  0  0  0  0  0  0  0  0  0  0  0
  179.0260  178.3240  138.2450 C   0  0  0  0  0  2  0  0  0  0  0  0
  181.7350  177.6280  140.4120 C   0  0  0  0  0  2  0  0  0  0  0  0
  179.2900  176.8830  137.8060 C   0  0  0  0  0  2  0  0  0  0  0  0
  180.5810  176.5720  138.4570 C   0  0  0  0  0  0  0  0  0  0  0  0
  181.2440  178.8790  141.1240 C   0  0  0  0  0  2  0  0  0  0  0  0
  181.0110  179.8290  137.9330 C   0  0  0  0  0  1  0  0  0  0  0  0
  180.0840  179.3930  140.2840 C   0  0  2  0  0  3  0  0  0  0  0  0
  1 13  1  0  0  0  0
  1  9  1  0  0  0  0
  2 14  2  0  0  0  0
  3  9  2  0  0  0  0
  3 12  1  0  0  0  0
  4 10  2  0  0  0  0
  5  8  2  0  0  0  0
  6 11  1  0  0  0  0
  6  7  2  0  0  0  0
  7  3  1  0  0  0  0
  8 13  1  0  0  0  0
 10 35  1  0  0  0  0
 11  1  2  0  0  0  0
 13 20  1  6  0  0  0
 14  5  1  0  0  0  0
 15  2  1  6  0  0  0
 15  8  1  0  0  0  0
 15  4  1  0  0  0  0
 16 15  1  0  0  0  0
 16 11  1  1  0  0  0
 16  4  1  0  0  0  0
 17 21  2  0  0  0  0
 17 19  1  0  0  0  0
 18 22  1  0  0  0  0
 18 23  1  0  0  0  0
 19 18  2  0  0  0  0
 20 22  2  0  0  0  0
 21 20  1  0  0  0  0
 23 24  1  0  0  0  0
 25 24  1  6  0  0  0
 25 33  1  0  0  0  0
 27 32  1  0  0  0  0
 28 29  1  0  0  0  0
 30 27  2  0  0  0  0
 31 25  1  6  0  0  0
 31 27  1  0  0  0  0
 31 28  1  0  0  0  0
 32 26  1  0  0  0  0
 32 29  1  0  0  0  0
 34 33  2  0  0  0  0
 35 39  1  0  0  0  0
 36 45  1  6  0  0  0
 36 37  1  0  0  0  0
 36 46  1  0  0  0  0
 37 41  1  0  0  0  0
 40 36  1  0  0  0  0
 41 44  1  0  0  0  0
 42 40  1  0  0  0  0
 42 43  1  0  0  0  0
 43 39  2  0  0  0  0
 43 37  1  0  0  0  0
 46 38  1  6  0  0  0
 46 44  1  0  0  0  0
M  END
>  <MODEL>
3

>  <REMARK>
 VINA RESULT:      -7.1      2.305      4.310
  Name = 
  8 active torsions:
  status: ('A' for Active; 'I' for Inactive)
    1  A    between atoms: N_2  and  C_8
    2  A    between atoms: C_8  and  C_13
    3  A    between atoms: C_8  and  C_24
    4  A    between atoms: O_11  and  C_13
    5  A    between atoms: O_11  and  C_21
    6  A    between atoms: N_17  and  O_41
    7  A    between atoms: N_29  and  O_41
    8  A    between atoms: C_31  and  C_36
                            x       y       z     vdW  Elec       q    Type
                         _______ _______ _______ _____ _____    ______ ____

>  <TORSDO>
F 8

$$$$
=
 OpenBabel10222416173D

 46 53  0  0  1  0  0  0  0  0999 V2000
  185.3420  174.5300  136.6350 C   0  0  0  0  0  0  0  0  0  0  0  0
  182.0570  176.6870  134.8160 C   0  0  0  0  0  3  0  0  0  0  0  0
  186.7900  172.5840  136.8230 C   0  0  0  0  0  0  0  0  0  0  0  0
  182.2440  174.6090  136.1520 C   0  0  0  0  0  0  0  0  0  0  0  0
  183.4380  177.7760  136.3200 C   0  0  0  0  0  3  0  0  0  0  0  0
  184.9100  172.5320  135.3060 C   0  0  0  0  0  3  0  0  0  0  0  0
  186.0260  171.9120  135.8710 C   0  0  0  0  0  3  0  0  0  0  0  0
  183.8440  176.5120  136.3520 C   0  0  0  0  0  0  0  0  0  0  0  0
  186.4450  173.8800  137.2080 C   0  0  0  0  0  3  0  0  0  0  0  0
  181.3960  174.1770  137.0210 N   0  0  0  0  0  0  0  0  0  0  0  0
  184.5490  173.8320  135.6770 C   0  0  0  0  0  0  0  0  0  0  0  0
  187.8980  171.9620  137.3870 O   0  0  0  0  0  1  0  0  0  0  0  0
  185.0180  175.9430  137.0950 C   0  0  2  0  0  3  0  0  0  0  0  0
  182.3240  177.8770  135.3580 C   0  0  0  0  0  3  0  0  0  0  0  0
  182.9920  175.7340  135.4540 C   0  0  2  0  0  0  0  0  0  0  0  0
  183.2910  174.3960  135.0480 C   0  0  2  0  0  3  0  0  0  0  0  0
  187.8320  178.1250  135.7290 C   0  0  0  0  0  3  0  0  0  0  0  0
  187.8590  178.2360  138.1510 C   0  0  0  0  0  0  0  0  0  0  0  0
  188.3930  178.6100  136.9130 C   0  0  0  0  0  3  0  0  0  0  0  0
  186.2100  176.8580  137.0120 C   0  0  0  0  0  0  0  0  0  0  0  0
  186.7390  177.2570  135.7770 C   0  0  0  0  0  3  0  0  0  0  0  0
  186.7640  177.3590  138.1940 C   0  0  0  0  0  3  0  0  0  0  0  0
  188.4250  178.7570  139.3170 O   0  0  0  0  0  0  0  0  0  0  0  0
  188.0740  178.2850  140.6130 C   0  0  0  0  0  2  0  0  0  0  0  0
  189.0600  177.2090  141.0670 C   0  0  2  0  0  3  0  0  0  0  0  0
  191.2970  176.6630  145.2300 C   0  0  0  0  0  1  0  0  0  0  0  0
  189.8630  176.1920  143.2040 C   0  0  0  0  0  0  0  0  0  0  0  0
  187.8450  177.9030  143.4640 S   0  0  0  0  0  0  0  0  0  0  0  0
  189.2060  177.9840  144.6840 C   0  0  0  0  0  2  0  0  0  0  0  0
  190.5730  175.2140  142.8460 O   0  0  0  0  0  0  0  0  0  0  0  0
  188.6680  176.6270  142.4340 C   0  0  1  0  0  3  0  0  0  0  0  0
  190.1480  176.9290  144.3800 N   0  0  0  0  0  0  0  0  0  0  0  0
  190.4150  177.7290  141.0770 N   0  0  0  0  0  0  0  0  0  0  0  0
  191.2990  177.3710  140.2120 C   0  0  0  0  0  2  0  0  0  0  0  0
  180.7190  175.0720  137.8140 O   0  0  0  0  0  0  0  0  0  0  0  0
  180.8080  178.3140  141.1290 C   0  0  2  0  0  0  0  0  0  0  0  0
  181.5810  177.8540  140.0000 N   0  0  0  0  0  0  0  0  0  0  0  0
  181.5970  179.3680  143.3480 C   0  0  0  0  0  1  0  0  0  0  0  0
  181.3800  176.1480  138.3590 N   0  0  0  0  0  0  0  0  0  0  0  0
  179.6660  177.3050  141.3150 C   0  0  0  0  0  2  0  0  0  0  0  0
  183.0080  177.8090  140.2690 C   0  0  0  0  0  2  0  0  0  0  0  0
  179.6370  176.4260  140.0640 C   0  0  0  0  0  2  0  0  0  0  0  0
  180.9070  176.7710  139.3890 C   0  0  0  0  0  0  0  0  0  0  0  0
  183.1730  178.3450  141.6820 C   0  0  0  0  0  2  0  0  0  0  0  0
  180.2440  179.6980  140.8260 C   0  0  0  0  0  1  0  0  0  0  0  0
  181.7850  178.2780  142.3050 C   0  0  2  0  0  3  0  0  0  0  0  0
  1 13  1  0  0  0  0
  1  9  1  0  0  0  0
  2 14  2  0  0  0  0
  3  9  2  0  0  0  0
  3 12  1  0  0  0  0
  4 10  2  0  0  0  0
  5  8  2  0  0  0  0
  6 11  1  0  0  0  0
  6  7  2  0  0  0  0
  7  3  1  0  0  0  0
  8 13  1  0  0  0  0
 10 35  1  0  0  0  0
 11  1  2  0  0  0  0
 13 20  1  6  0  0  0
 14  5  1  0  0  0  0
 15  2  1  6  0  0  0
 15  4  1  0  0  0  0
 15  8  1  0  0  0  0
 16 15  1  0  0  0  0
 16 11  1  1  0  0  0
 16  4  1  0  0  0  0
 17 21  2  0  0  0  0
 17 19  1  0  0  0  0
 18 22  1  0  0  0  0
 18 23  1  0  0  0  0
 19 18  2  0  0  0  0
 20 22  2  0  0  0  0
 21 20  1  0  0  0  0
 23 24  1  0  0  0  0
 25 24  1  1  0  0  0
 25 33  1  0  0  0  0
 27 32  1  0  0  0  0
 28 29  1  0  0  0  0
 30 27  2  0  0  0  0
 31 25  1  6  0  0  0
 31 27  1  0  0  0  0
 31 28  1  0  0  0  0
 32 29  1  0  0  0  0
 32 26  1  0  0  0  0
 34 33  2  0  0  0  0
 35 39  1  0  0  0  0
 36 45  1  6  0  0  0
 36 40  1  0  0  0  0
 36 46  1  0  0  0  0
 37 41  1  0  0  0  0
 37 36  1  0  0  0  0
 39 43  2  0  0  0  0
 41 44  1  0  0  0  0
 42 40  1  0  0  0  0
 43 37  1  0  0  0  0
 43 42  1  0  0  0  0
 44 46  1  0  0  0  0
 46 38  1  1  0  0  0
M  END
>  <MODEL>
4

>  <REMARK>
 VINA RESULT:      -6.8      2.381      3.656
  Name = 
  8 active torsions:
  status: ('A' for Active; 'I' for Inactive)
    1  A    between atoms: N_2  and  C_8
    2  A    between atoms: C_8  and  C_13
    3  A    between atoms: C_8  and  C_24
    4  A    between atoms: O_11  and  C_13
    5  A    between atoms: O_11  and  C_21
    6  A    between atoms: N_17  and  O_41
    7  A    between atoms: N_29  and  O_41
    8  A    between atoms: C_31  and  C_36
                            x       y       z     vdW  Elec       q    Type
                         _______ _______ _______ _____ _____    ______ ____

>  <TORSDO>
F 8

$$$$
=
 OpenBabel10222416173D

 46 53  0  0  1  0  0  0  0  0999 V2000
  183.4470  175.9300  137.8110 C   0  0  0  0  0  0  0  0  0  0  0  0
  181.5240  179.7890  138.2130 C   0  0  0  0  0  3  0  0  0  0  0  0
  183.4340  173.5810  137.1800 C   0  0  0  0  0  0  0  0  0  0  0  0
  181.1960  177.5670  139.2570 C   0  0  0  0  0  0  0  0  0  0  0  0
  183.8050  179.6140  138.5590 C   0  0  0  0  0  3  0  0  0  0  0  0
  181.3840  174.8560  137.0780 C   0  0  0  0  0  3  0  0  0  0  0  0
  182.0720  173.6550  136.8940 C   0  0  0  0  0  3  0  0  0  0  0  0
  183.3970  178.3610  138.3940 C   0  0  0  0  0  0  0  0  0  0  0  0
  184.1140  174.7070  137.6420 C   0  0  0  0  0  3  0  0  0  0  0  0
  180.8460  177.3370  140.4770 N   0  0  0  0  0  0  0  0  0  0  0  0
  182.0480  175.9980  137.5380 C   0  0  0  0  0  0  0  0  0  0  0  0
  184.1150  172.3820  137.0000 O   0  0  0  0  0  1  0  0  0  0  0  0
  184.2420  177.1230  138.3170 C   0  0  2  0  0  3  0  0  0  0  0  0
  182.6300  180.4990  138.4430 C   0  0  0  0  0  3  0  0  0  0  0  0
  181.9470  178.3720  138.2080 C   0  0  2  0  0  0  0  0  0  0  0  0
  181.2030  177.2370  137.7570 C   0  0  2  0  0  3  0  0  0  0  0  0
  186.5980  177.8210  135.3990 C   0  0  0  0  0  3  0  0  0  0  0  0
  187.9000  177.6770  137.4400 C   0  0  0  0  0  0  0  0  0  0  0  0
  187.8310  177.8660  136.0560 C   0  0  0  0  0  3  0  0  0  0  0  0
  185.4880  177.3640  137.5070 C   0  0  0  0  0  0  0  0  0  0  0  0
  185.4290  177.5770  136.1230 C   0  0  0  0  0  3  0  0  0  0  0  0
  186.7220  177.4270  138.1620 C   0  0  0  0  0  3  0  0  0  0  0  0
  189.1420  177.7530  138.0730 O   0  0  0  0  0  0  0  0  0  0  0  0
  189.6990  176.6630  138.7980 C   0  0  0  0  0  2  0  0  0  0  0  0
  190.4510  175.7280  137.8500 C   0  0  2  0  0  3  0  0  0  0  0  0
  195.0120  175.2180  136.6010 C   0  0  0  0  0  1  0  0  0  0  0  0
  192.8300  176.2720  137.3180 C   0  0  0  0  0  0  0  0  0  0  0  0
  191.2570  175.9350  135.2020 S   0  0  0  0  0  0  0  0  0  0  0  0
  192.9330  175.2030  135.1540 C   0  0  0  0  0  2  0  0  0  0  0  0
  193.3130  176.6910  138.4030 O   0  0  0  0  0  0  0  0  0  0  0  0
  191.4130  176.5060  136.9390 C   0  0  1  0  0  3  0  0  0  0  0  0
  193.6180  175.5650  136.3750 N   0  0  0  0  0  0  0  0  0  0  0  0
  189.5200  174.9230  137.0810 N   0  0  0  0  0  0  0  0  0  0  0  0
  189.4340  173.6460  137.2180 C   0  0  0  0  0  2  0  0  0  0  0  0
  181.2970  178.1590  141.4800 O   0  0  0  0  0  0  0  0  0  0  0  0
  184.8000  178.9450  144.4170 C   0  0  2  0  0  0  0  0  0  0  0  0
  184.5460  178.7730  143.0060 N   0  0  0  0  0  0  0  0  0  0  0  0
  186.8710  178.2980  145.8110 C   0  0  0  0  0  1  0  0  0  0  0  0
  182.6450  178.3830  141.6360 N   0  0  0  0  0  0  0  0  0  0  0  0
  183.4750  178.6530  145.1370 C   0  0  0  0  0  2  0  0  0  0  0  0
  185.5340  177.9330  142.3510 C   0  0  0  0  0  2  0  0  0  0  0  0
  182.3840  178.6090  144.0660 C   0  0  0  0  0  2  0  0  0  0  0  0
  183.1590  178.5810  142.8060 C   0  0  0  0  0  0  0  0  0  0  0  0
  186.5480  177.5810  143.4270 C   0  0  0  0  0  2  0  0  0  0  0  0
  185.2360  180.3820  144.6810 C   0  0  0  0  0  1  0  0  0  0  0  0
  185.8610  177.8950  144.7480 C   0  0  2  0  0  3  0  0  0  0  0  0
  1 13  1  0  0  0  0
  2 14  2  0  0  0  0
  3  9  2  0  0  0  0
  4 10  2  0  0  0  0
  6 11  1  0  0  0  0
  7  6  2  0  0  0  0
  7  3  1  0  0  0  0
  8  5  2  0  0  0  0
  9  1  1  0  0  0  0
 10 35  1  0  0  0  0
 11  1  2  0  0  0  0
 12  3  1  0  0  0  0
 13 20  1  6  0  0  0
 13  8  1  0  0  0  0
 14  5  1  0  0  0  0
 15  2  1  6  0  0  0
 15  8  1  0  0  0  0
 15  4  1  0  0  0  0
 16 11  1  1  0  0  0
 16 15  1  0  0  0  0
 16  4  1  0  0  0  0
 17 19  2  0  0  0  0
 17 21  1  0  0  0  0
 18 23  1  0  0  0  0
 18 22  2  0  0  0  0
 19 18  1  0  0  0  0
 20 22  1  0  0  0  0
 21 20  2  0  0  0  0
 23 24  1  0  0  0  0
 25 24  1  6  0  0  0
 27 30  2  0  0  0  0
 28 31  1  0  0  0  0
 29 28  1  0  0  0  0
 29 32  1  0  0  0  0
 31 27  1  0  0  0  0
 31 25  1  1  0  0  0
 32 26  1  0  0  0  0
 32 27  1  0  0  0  0
 33 34  2  0  0  0  0
 33 25  1  0  0  0  0
 35 39  1  0  0  0  0
 36 45  1  1  0  0  0
 36 46  1  0  0  0  0
 36 40  1  0  0  0  0
 37 36  1  0  0  0  0
 39 43  2  0  0  0  0
 41 37  1  0  0  0  0
 41 44  1  0  0  0  0
 42 40  1  0  0  0  0
 43 37  1  0  0  0  0
 43 42  1  0  0  0  0
 44 46  1  0  0  0  0
 46 38  1  1  0  0  0
M  END
>  <MODEL>
5

>  <REMARK>
 VINA RESULT:      -6.8      1.678      2.616
  Name = 
  8 active torsions:
  status: ('A' for Active; 'I' for Inactive)
    1  A    between atoms: N_2  and  C_8
    2  A    between atoms: C_8  and  C_13
    3  A    between atoms: C_8  and  C_24
    4  A    between atoms: O_11  and  C_13
    5  A    between atoms: O_11  and  C_21
    6  A    between atoms: N_17  and  O_41
    7  A    between atoms: N_29  and  O_41
    8  A    between atoms: C_31  and  C_36
                            x       y       z     vdW  Elec       q    Type
                         _______ _______ _______ _____ _____    ______ ____

>  <TORSDO>
F 8

$$$$
=
 OpenBabel10222416173D

 46 53  0  0  1  0  0  0  0  0999 V2000
  190.6930  175.7730  137.6280 C   0  0  0  0  0  0  0  0  0  0  0  0
  187.4670  178.6240  137.1550 C   0  0  0  0  0  3  0  0  0  0  0  0
  192.6010  174.5290  136.7730 C   0  0  0  0  0  0  0  0  0  0  0  0
  187.9770  176.4010  136.1880 C   0  0  0  0  0  0  0  0  0  0  0  0
  187.9750  177.8200  139.2660 C   0  0  0  0  0  3  0  0  0  0  0  0
  191.3020  175.9050  135.2700 C   0  0  0  0  0  3  0  0  0  0  0  0
  192.3740  175.0410  135.4960 C   0  0  0  0  0  3  0  0  0  0  0  0
  188.7520  177.1190  138.4480 C   0  0  0  0  0  0  0  0  0  0  0  0
  191.7620  174.8860  137.8280 C   0  0  0  0  0  3  0  0  0  0  0  0
  187.1250  175.4820  135.8850 N   0  0  0  0  0  0  0  0  0  0  0  0
  190.4500  176.2780  136.3160 C   0  0  0  0  0  0  0  0  0  0  0  0
  193.6660  173.6650  136.9930 O   0  0  0  0  0  1  0  0  0  0  0  0
  189.8140  176.1260  138.8180 C   0  0  2  0  0  3  0  0  0  0  0  0
  187.1780  178.7580  138.4510 C   0  0  0  0  0  3  0  0  0  0  0  0
  188.4660  177.5350  137.0750 C   0  0  2  0  0  0  0  0  0  0  0  0
  189.2840  177.1770  135.9580 C   0  0  2  0  0  3  0  0  0  0  0  0
  192.4480  177.8750  140.9510 C   0  0  0  0  0  3  0  0  0  0  0  0
  190.9130  176.6960  142.4120 C   0  0  0  0  0  0  0  0  0  0  0  0
  192.0400  177.5040  142.2350 C   0  0  0  0  0  3  0  0  0  0  0  0
  190.6160  176.6010  139.9990 C   0  0  0  0  0  0  0  0  0  0  0  0
  191.7350  177.4300  139.8360 C   0  0  0  0  0  3  0  0  0  0  0  0
  190.2030  176.2470  141.2870 C   0  0  0  0  0  3  0  0  0  0  0  0
  190.5140  176.3630  143.7080 O   0  0  0  0  0  0  0  0  0  0  0  0
  191.1000  176.9520  144.8630 C   0  0  0  0  0  2  0  0  0  0  0  0
  190.1770  176.7800  146.0700 C   0  0  2  0  0  3  0  0  0  0  0  0
  185.5500  177.8670  146.2350 C   0  0  0  0  0  1  0  0  0  0  0  0
  188.0250  178.0070  145.7490 C   0  0  0  0  0  0  0  0  0  0  0  0
  189.1140  178.2650  148.1610 S   0  0  0  0  0  0  0  0  0  0  0  0
  187.3050  178.0120  148.0540 C   0  0  0  0  0  2  0  0  0  0  0  0
  187.8470  178.0200  144.5020 O   0  0  0  0  0  0  0  0  0  0  0  0
  189.3810  178.0620  146.3560 C   0  0  1  0  0  3  0  0  0  0  0  0
  186.9380  177.9610  146.6570 N   0  0  0  0  0  0  0  0  0  0  0  0
  190.9310  176.3490  147.2320 N   0  0  0  0  0  0  0  0  0  0  0  0
  192.0550  175.7280  147.1360 C   0  0  0  0  0  2  0  0  0  0  0  0
  186.0120  175.3030  136.6690 O   0  0  0  0  0  0  0  0  0  0  0  0
  182.0080  176.7220  138.5310 C   0  0  2  0  0  0  0  0  0  0  0  0
  183.1500  177.2410  137.8170 N   0  0  0  0  0  0  0  0  0  0  0  0
  180.5320  177.8480  140.3220 C   0  0  0  0  0  1  0  0  0  0  0  0
  185.1550  176.3530  136.9020 N   0  0  0  0  0  0  0  0  0  0  0  0
  182.3230  175.2530  138.8470 C   0  0  0  0  0  2  0  0  0  0  0  0
  183.6290  178.5030  138.3530 C   0  0  0  0  0  2  0  0  0  0  0  0
  183.5510  174.8700  138.0200 C   0  0  0  0  0  2  0  0  0  0  0  0
  184.0340  176.1770  137.5230 C   0  0  0  0  0  0  0  0  0  0  0  0
  182.6700  178.8580  139.4790 C   0  0  0  0  0  2  0  0  0  0  0  0
  180.7710  176.8160  137.6440 C   0  0  0  0  0  1  0  0  0  0  0  0
  181.9340  177.5660  139.8040 C   0  0  2  0  0  3  0  0  0  0  0  0
  1  9  1  0  0  0  0
  1 13  1  0  0  0  0
  2 14  2  0  0  0  0
  3 12  1  0  0  0  0
  3  9  2  0  0  0  0
  4 15  1  0  0  0  0
  6  7  2  0  0  0  0
  6 11  1  0  0  0  0
  7  3  1  0  0  0  0
  8 13  1  0  0  0  0
  8  5  2  0  0  0  0
 10  4  2  0  0  0  0
 10 35  1  0  0  0  0
 11  1  2  0  0  0  0
 13 20  1  1  0  0  0
 14  5  1  0  0  0  0
 15  2  1  6  0  0  0
 15  8  1  0  0  0  0
 16  4  1  6  0  0  0
 16 11  1  0  0  0  0
 16 15  1  0  0  0  0
 17 19  1  0  0  0  0
 18 23  1  0  0  0  0
 19 18  2  0  0  0  0
 20 22  2  0  0  0  0
 21 20  1  0  0  0  0
 21 17  2  0  0  0  0
 22 18  1  0  0  0  0
 23 24  1  0  0  0  0
 25 24  1  6  0  0  0
 25 33  1  0  0  0  0
 26 32  1  0  0  0  0
 27 31  1  0  0  0  0
 27 32  1  0  0  0  0
 29 28  1  0  0  0  0
 30 27  2  0  0  0  0
 31 25  1  1  0  0  0
 31 28  1  0  0  0  0
 32 29  1  0  0  0  0
 34 33  2  0  0  0  0
 35 39  1  0  0  0  0
 36 45  1  6  0  0  0
 36 40  1  0  0  0  0
 36 46  1  0  0  0  0
 37 41  1  0  0  0  0
 37 36  1  0  0  0  0
 39 43  2  0  0  0  0
 41 44  1  0  0  0  0
 42 40  1  0  0  0  0
 43 37  1  0  0  0  0
 43 42  1  0  0  0  0
 44 46  1  0  0  0  0
 46 38  1  6  0  0  0
M  END
>  <MODEL>
6

>  <REMARK>
 VINA RESULT:      -6.7      3.029      7.382
  Name = 
  8 active torsions:
  status: ('A' for Active; 'I' for Inactive)
    1  A    between atoms: N_2  and  C_8
    2  A    between atoms: C_8  and  C_13
    3  A    between atoms: C_8  and  C_24
    4  A    between atoms: O_11  and  C_13
    5  A    between atoms: O_11  and  C_21
    6  A    between atoms: N_17  and  O_41
    7  A    between atoms: N_29  and  O_41
    8  A    between atoms: C_31  and  C_36
                            x       y       z     vdW  Elec       q    Type
                         _______ _______ _______ _____ _____    ______ ____

>  <TORSDO>
F 8

$$$$
=
 OpenBabel10222416173D

 46 53  0  0  1  0  0  0  0  0999 V2000
  185.8160  173.6850  136.1890 C   0  0  0  0  0  0  0  0  0  0  0  0
  182.7550  176.6590  135.4560 C   0  0  0  0  0  3  0  0  0  0  0  0
  186.8040  171.4900  135.8360 C   0  0  0  0  0  0  0  0  0  0  0  0
  182.7850  174.4220  136.5190 C   0  0  0  0  0  0  0  0  0  0  0  0
  184.6520  177.2480  136.6450 C   0  0  0  0  0  3  0  0  0  0  0  0
  184.6600  172.0070  134.8490 C   0  0  0  0  0  3  0  0  0  0  0  0
  185.7120  171.1140  135.0560 C   0  0  0  0  0  3  0  0  0  0  0  0
  184.7660  175.9370  136.4660 C   0  0  0  0  0  0  0  0  0  0  0  0
  186.8510  172.7630  136.4030 C   0  0  0  0  0  3  0  0  0  0  0  0
  182.0870  174.0470  137.5360 N   0  0  0  0  0  0  0  0  0  0  0  0
  184.6890  173.2890  135.4080 C   0  0  0  0  0  0  0  0  0  0  0  0
  187.8480  170.5960  136.0430 O   0  0  0  0  0  1  0  0  0  0  0  0
  185.9250  175.0580  136.8330 C   0  0  2  0  0  3  0  0  0  0  0  0
  183.3950  177.6910  136.0110 C   0  0  0  0  0  3  0  0  0  0  0  0
  183.5790  175.4670  135.7510 C   0  0  2  0  0  0  0  0  0  0  0  0
  183.4750  174.1650  135.1710 C   0  0  2  0  0  3  0  0  0  0  0  0
  188.8930  176.5420  134.9510 C   0  0  0  0  0  3  0  0  0  0  0  0
  189.2130  176.9010  137.3290 C   0  0  0  0  0  0  0  0  0  0  0  0
  189.6580  177.0390  136.0100 C   0  0  0  0  0  3  0  0  0  0  0  0
  187.2370  175.7300  136.5270 C   0  0  0  0  0  0  0  0  0  0  0  0
  187.6820  175.8940  135.2080 C   0  0  0  0  0  3  0  0  0  0  0  0
  187.9980  176.2440  137.5810 C   0  0  0  0  0  3  0  0  0  0  0  0
  189.9860  177.4310  138.3630 O   0  0  0  0  0  0  0  0  0  0  0  0
  189.4630  177.6630  139.6660 C   0  0  0  0  0  2  0  0  0  0  0  0
  190.2740  176.8880  140.7060 C   0  0  2  0  0  3  0  0  0  0  0  0
  191.4310  176.6300  145.3120 C   0  0  0  0  0  1  0  0  0  0  0  0
  190.3370  176.1400  143.0880 C   0  0  0  0  0  0  0  0  0  0  0  0
  188.8660  178.3070  142.6320 S   0  0  0  0  0  0  0  0  0  0  0  0
  189.9360  178.2880  144.1160 C   0  0  0  0  0  2  0  0  0  0  0  0
  190.8000  174.9690  143.0440 O   0  0  0  0  0  0  0  0  0  0  0  0
  189.4810  176.6950  142.0070 C   0  0  1  0  0  3  0  0  0  0  0  0
  190.5860  176.9980  144.1870 N   0  0  0  0  0  0  0  0  0  0  0  0
  191.5480  177.5390  140.9480 N   0  0  0  0  0  0  0  0  0  0  0  0
  192.6050  177.2660  140.2660 C   0  0  0  0  0  2  0  0  0  0  0  0
  181.8270  174.9380  138.5480 O   0  0  0  0  0  0  0  0  0  0  0  0
  181.2490  179.5020  139.1350 C   0  0  2  0  0  0  0  0  0  0  0  0
  180.6110  178.3710  138.5060 N   0  0  0  0  0  0  0  0  0  0  0  0
  181.3030  181.9780  138.4120 C   0  0  0  0  0  1  0  0  0  0  0  0
  181.0430  176.0430  138.3100 N   0  0  0  0  0  0  0  0  0  0  0  0
  182.6000  179.0010  139.6660 C   0  0  0  0  0  2  0  0  0  0  0  0
  180.1080  178.6700  137.1760 C   0  0  0  0  0  2  0  0  0  0  0  0
  182.5730  177.4740  139.5880 C   0  0  0  0  0  2  0  0  0  0  0  0
  181.3710  177.2070  138.7680 C   0  0  0  0  0  0  0  0  0  0  0  0
  180.3990  180.1460  136.9530 C   0  0  0  0  0  2  0  0  0  0  0  0
  180.3810  179.9970  140.2880 C   0  0  0  0  0  1  0  0  0  0  0  0
  181.4320  180.5180  138.0070 C   0  0  2  0  0  3  0  0  0  0  0  0
  1  9  1  0  0  0  0
  1 13  1  0  0  0  0
  2 14  2  0  0  0  0
  3 12  1  0  0  0  0
  3  9  2  0  0  0  0
  4 10  2  0  0  0  0
  6  7  2  0  0  0  0
  6 11  1  0  0  0  0
  7  3  1  0  0  0  0
  8  5  2  0  0  0  0
  8 13  1  0  0  0  0
 10 35  1  0  0  0  0
 11  1  2  0  0  0  0
 13 20  1  6  0  0  0
 14  5  1  0  0  0  0
 15  2  1  6  0  0  0
 15  8  1  0  0  0  0
 15  4  1  0  0  0  0
 16 11  1  1  0  0  0
 16 15  1  0  0  0  0
 16  4  1  0  0  0  0
 17 21  2  0  0  0  0
 17 19  1  0  0  0  0
 18 22  1  0  0  0  0
 18 23  1  0  0  0  0
 19 18  2  0  0  0  0
 20 22  2  0  0  0  0
 21 20  1  0  0  0  0
 23 24  1  0  0  0  0
 25 24  1  6  0  0  0
 25 33  1  0  0  0  0
 27 32  1  0  0  0  0
 28 29  1  0  0  0  0
 29 32  1  0  0  0  0
 30 27  2  0  0  0  0
 31 25  1  6  0  0  0
 31 28  1  0  0  0  0
 31 27  1  0  0  0  0
 32 26  1  0  0  0  0
 34 33  2  0  0  0  0
 36 40  1  0  0  0  0
 36 45  1  1  0  0  0
 37 43  1  0  0  0  0
 37 36  1  0  0  0  0
 39 35  1  0  0  0  0
 39 43  2  0  0  0  0
 41 37  1  0  0  0  0
 42 40  1  0  0  0  0
 43 42  1  0  0  0  0
 44 41  1  0  0  0  0
 44 46  1  0  0  0  0
 46 38  1  1  0  0  0
 46 36  1  0  0  0  0
M  END
>  <MODEL>
7

>  <REMARK>
 VINA RESULT:      -6.6      2.773      4.448
  Name = 
  8 active torsions:
  status: ('A' for Active; 'I' for Inactive)
    1  A    between atoms: N_2  and  C_8
    2  A    between atoms: C_8  and  C_13
    3  A    between atoms: C_8  and  C_24
    4  A    between atoms: O_11  and  C_13
    5  A    between atoms: O_11  and  C_21
    6  A    between atoms: N_17  and  O_41
    7  A    between atoms: N_29  and  O_41
    8  A    between atoms: C_31  and  C_36
                            x       y       z     vdW  Elec       q    Type
                         _______ _______ _______ _____ _____    ______ ____

>  <TORSDO>
F 8

$$$$
=
 OpenBabel10222416173D

 46 53  0  0  1  0  0  0  0  0999 V2000
  190.9160  175.7490  137.0700 C   0  0  0  0  0  0  0  0  0  0  0  0
  187.4000  178.1640  136.3250 C   0  0  0  0  0  3  0  0  0  0  0  0
  193.0320  174.7670  136.3790 C   0  0  0  0  0  0  0  0  0  0  0  0
  188.2690  176.0320  135.4110 C   0  0  0  0  0  0  0  0  0  0  0  0
  187.8330  177.4180  138.4730 C   0  0  0  0  0  3  0  0  0  0  0  0
  191.6930  175.9750  134.7700 C   0  0  0  0  0  3  0  0  0  0  0  0
  192.8460  175.2540  135.0860 C   0  0  0  0  0  3  0  0  0  0  0  0
  188.7580  176.8290  137.7240 C   0  0  0  0  0  0  0  0  0  0  0  0
  192.0710  175.0060  137.3600 C   0  0  0  0  0  3  0  0  0  0  0  0
  187.5700  175.0130  135.0430 N   0  0  0  0  0  0  0  0  0  0  0  0
  190.7180  176.2280  135.7410 C   0  0  0  0  0  0  0  0  0  0  0  0
  194.1790  174.0460  136.6880 O   0  0  0  0  0  1  0  0  0  0  0  0
  189.9050  175.9780  138.1830 C   0  0  2  0  0  3  0  0  0  0  0  0
  186.9910  178.2510  137.5930 C   0  0  0  0  0  3  0  0  0  0  0  0
  188.5330  177.2140  136.3310 C   0  0  2  0  0  0  0  0  0  0  0  0
  189.4790  176.9710  135.2860 C   0  0  2  0  0  3  0  0  0  0  0  0
  192.4380  177.5030  140.5930 C   0  0  0  0  0  3  0  0  0  0  0  0
  190.3160  177.2540  141.7410 C   0  0  0  0  0  0  0  0  0  0  0  0
  191.6590  177.6450  141.7450 C   0  0  0  0  0  3  0  0  0  0  0  0
  190.5410  176.5440  139.4250 C   0  0  0  0  0  0  0  0  0  0  0  0
  191.8800  176.9600  139.4340 C   0  0  0  0  0  3  0  0  0  0  0  0
  189.7610  176.7030  140.5740 C   0  0  0  0  0  3  0  0  0  0  0  0
  189.5550  177.4310  142.8980 O   0  0  0  0  0  0  0  0  0  0  0  0
  188.2490  176.8860  143.0450 C   0  0  0  0  0  2  0  0  0  0  0  0
  187.3620  177.8490  143.8360 C   0  0  2  0  0  3  0  0  0  0  0  0
  188.4960  178.4880  148.4110 C   0  0  0  0  0  1  0  0  0  0  0  0
  187.9270  177.3640  146.2210 C   0  0  0  0  0  0  0  0  0  0  0  0
  185.4060  178.0900  145.7910 S   0  0  0  0  0  0  0  0  0  0  0  0
  186.2680  178.7890  147.2460 C   0  0  0  0  0  2  0  0  0  0  0  0
  189.0290  176.7550  146.1710 O   0  0  0  0  0  0  0  0  0  0  0  0
  186.8960  177.2240  145.1600 C   0  0  1  0  0  3  0  0  0  0  0  0
  187.5910  178.2090  147.3070 N   0  0  0  0  0  0  0  0  0  0  0  0
  186.2400  178.2890  143.0290 N   0  0  0  0  0  0  0  0  0  0  0  0
  186.3680  178.6280  141.7940 C   0  0  0  0  0  2  0  0  0  0  0  0
  186.4290  174.6870  135.7340 O   0  0  0  0  0  0  0  0  0  0  0  0
  182.2700  175.8300  137.4390 C   0  0  2  0  0  0  0  0  0  0  0  0
  183.1550  176.1590  136.3470 N   0  0  0  0  0  0  0  0  0  0  0  0
  180.5960  177.3240  138.7120 C   0  0  0  0  0  1  0  0  0  0  0  0
  185.2950  175.4520  135.5950 N   0  0  0  0  0  0  0  0  0  0  0  0
  183.0480  174.8790  138.3590 C   0  0  0  0  0  2  0  0  0  0  0  0
  183.2330  177.5870  136.0900 C   0  0  0  0  0  2  0  0  0  0  0  0
  184.2960  174.4360  137.5940 C   0  0  0  0  0  2  0  0  0  0  0  0
  184.3170  175.3580  136.4360 C   0  0  0  0  0  0  0  0  0  0  0  0
  182.2630  178.2310  137.0690 C   0  0  0  0  0  2  0  0  0  0  0  0
  181.0290  175.1340  136.8920 C   0  0  0  0  0  1  0  0  0  0  0  0
  181.9890  177.1680  138.1240 C   0  0  2  0  0  3  0  0  0  0  0  0
  1  9  1  0  0  0  0
  1 13  1  0  0  0  0
  2 14  2  0  0  0  0
  3 12  1  0  0  0  0
  3  9  2  0  0  0  0
  4 15  1  0  0  0  0
  6  7  2  0  0  0  0
  6 11  1  0  0  0  0
  7  3  1  0  0  0  0
  8 13  1  0  0  0  0
  8  5  2  0  0  0  0
 10  4  2  0  0  0  0
 10 35  1  0  0  0  0
 11  1  2  0  0  0  0
 13 20  1  1  0  0  0
 14  5  1  0  0  0  0
 15  2  1  6  0  0  0
 15  8  1  0  0  0  0
 16  4  1  6  0  0  0
 16 11  1  0  0  0  0
 16 15  1  0  0  0  0
 17 19  1  0  0  0  0
 18 19  2  0  0  0  0
 18 23  1  0  0  0  0
 20 21  1  0  0  0  0
 20 22  2  0  0  0  0
 21 17  2  0  0  0  0
 22 18  1  0  0  0  0
 23 24  1  0  0  0  0
 25 24  1  6  0  0  0
 27 32  1  0  0  0  0
 28 29  1  0  0  0  0
 29 32  1  0  0  0  0
 30 27  2  0  0  0  0
 31 25  1  6  0  0  0
 31 28  1  0  0  0  0
 31 27  1  0  0  0  0
 32 26  1  0  0  0  0
 33 25  1  0  0  0  0
 34 33  2  0  0  0  0
 36 45  1  6  0  0  0
 36 46  1  0  0  0  0
 36 40  1  0  0  0  0
 37 43  1  0  0  0  0
 37 36  1  0  0  0  0
 39 35  1  0  0  0  0
 39 43  2  0  0  0  0
 41 37  1  0  0  0  0
 41 44  1  0  0  0  0
 42 40  1  0  0  0  0
 43 42  1  0  0  0  0
 44 46  1  0  0  0  0
 46 38  1  6  0  0  0
M  END
>  <MODEL>
8

>  <REMARK>
 VINA RESULT:      -6.6      3.029      7.655
  Name = 
  8 active torsions:
  status: ('A' for Active; 'I' for Inactive)
    1  A    between atoms: N_2  and  C_8
    2  A    between atoms: C_8  and  C_13
    3  A    between atoms: C_8  and  C_24
    4  A    between atoms: O_11  and  C_13
    5  A    between atoms: O_11  and  C_21
    6  A    between atoms: N_17  and  O_41
    7  A    between atoms: N_29  and  O_41
    8  A    between atoms: C_31  and  C_36
                            x       y       z     vdW  Elec       q    Type
                         _______ _______ _______ _____ _____    ______ ____

>  <TORSDO>
F 8

$$$$
=
 OpenBabel10222416173D

 46 53  0  0  1  0  0  0  0  0999 V2000
  188.8050  174.4290  136.5120 C   0  0  0  0  0  0  0  0  0  0  0  0
  184.9430  174.9260  134.6160 C   0  0  0  0  0  3  0  0  0  0  0  0
  191.0800  173.5690  136.5550 C   0  0  0  0  0  0  0  0  0  0  0  0
  186.2010  172.9910  135.5160 C   0  0  0  0  0  0  0  0  0  0  0  0
  185.4350  176.1330  136.5290 C   0  0  0  0  0  3  0  0  0  0  0  0
  189.6000  172.9410  134.7510 C   0  0  0  0  0  3  0  0  0  0  0  0
  190.8510  172.8780  135.3670 C   0  0  0  0  0  3  0  0  0  0  0  0
  186.4710  175.3170  136.3760 C   0  0  0  0  0  0  0  0  0  0  0  0
  190.0620  174.3320  137.1270 C   0  0  0  0  0  3  0  0  0  0  0  0
  185.7030  171.9650  136.1160 N   0  0  0  0  0  0  0  0  0  0  0  0
  188.5660  173.7020  135.3070 C   0  0  0  0  0  0  0  0  0  0  0  0
  192.3260  173.5000  137.1680 O   0  0  0  0  0  1  0  0  0  0  0  0
  187.7360  175.2770  137.1830 C   0  0  2  0  0  3  0  0  0  0  0  0
  184.4870  175.8840  135.4260 C   0  0  0  0  0  3  0  0  0  0  0  0
  186.2250  174.4790  135.2030 C   0  0  2  0  0  0  0  0  0  0  0  0
  187.2300  173.6640  134.5940 C   0  0  2  0  0  3  0  0  0  0  0  0
  189.0410  178.8420  136.8030 C   0  0  0  0  0  3  0  0  0  0  0  0
  188.6610  178.3930  139.1560 C   0  0  0  0  0  0  0  0  0  0  0  0
  189.0680  179.2590  138.1370 C   0  0  0  0  0  3  0  0  0  0  0  0
  188.2240  176.6660  137.4990 C   0  0  0  0  0  0  0  0  0  0  0  0
  188.6130  177.5510  136.4830 C   0  0  0  0  0  3  0  0  0  0  0  0
  188.2380  177.0940  138.8300 C   0  0  0  0  0  3  0  0  0  0  0  0
  188.6750  178.8460  140.4760 O   0  0  0  0  0  0  0  0  0  0  0  0
  187.6750  178.4810  141.4210 C   0  0  0  0  0  2  0  0  0  0  0  0
  188.3060  178.2530  142.7950 C   0  0  2  0  0  3  0  0  0  0  0  0
  191.6800  176.7530  145.7930 C   0  0  0  0  0  1  0  0  0  0  0  0
  190.4760  178.0930  144.0220 C   0  0  0  0  0  0  0  0  0  0  0  0
  190.1870  176.3610  142.0260 S   0  0  0  0  0  0  0  0  0  0  0  0
  190.9260  175.7610  143.5880 C   0  0  0  0  0  2  0  0  0  0  0  0
  190.5460  179.1610  144.6890 O   0  0  0  0  0  0  0  0  0  0  0  0
  189.8230  178.0330  142.6890 C   0  0  1  0  0  3  0  0  0  0  0  0
  191.0370  176.8820  144.4950 N   0  0  0  0  0  0  0  0  0  0  0  0
  187.6540  177.1520  143.4790 N   0  0  0  0  0  0  0  0  0  0  0  0
  187.0480  177.3000  144.6050 C   0  0  0  0  0  2  0  0  0  0  0  0
  184.6170  172.1210  136.9410 O   0  0  0  0  0  0  0  0  0  0  0  0
  180.6730  174.5600  137.0080 C   0  0  2  0  0  0  0  0  0  0  0  0
  181.2940  173.4660  136.3010 N   0  0  0  0  0  0  0  0  0  0  0  0
  179.0110  176.3420  136.1600 C   0  0  0  0  0  1  0  0  0  0  0  0
  183.3640  172.3050  136.4060 N   0  0  0  0  0  0  0  0  0  0  0  0
  181.7430  175.1350  137.9480 C   0  0  0  0  0  2  0  0  0  0  0  0
  181.0870  173.5290  134.8640 C   0  0  0  0  0  2  0  0  0  0  0  0
  182.9000  174.1350  137.9730 C   0  0  0  0  0  2  0  0  0  0  0  0
  182.5710  173.2220  136.8560 C   0  0  0  0  0  0  0  0  0  0  0  0
  180.2020  174.7440  134.6330 C   0  0  0  0  0  2  0  0  0  0  0  0
  179.4910  174.0350  137.8160 C   0  0  0  0  0  1  0  0  0  0  0  0
  180.2910  175.5590  135.9150 C   0  0  2  0  0  3  0  0  0  0  0  0
  1  9  1  0  0  0  0
  1 13  1  0  0  0  0
  2 14  2  0  0  0  0
  3  9  2  0  0  0  0
  3 12  1  0  0  0  0
  4 10  2  0  0  0  0
  6 11  1  0  0  0  0
  6  7  2  0  0  0  0
  7  3  1  0  0  0  0
  8  5  2  0  0  0  0
  8 13  1  0  0  0  0
 10 35  1  0  0  0  0
 11  1  2  0  0  0  0
 13 20  1  6  0  0  0
 14  5  1  0  0  0  0
 15  2  1  6  0  0  0
 15  4  1  0  0  0  0
 15  8  1  0  0  0  0
 16 15  1  0  0  0  0
 16 11  1  1  0  0  0
 16  4  1  0  0  0  0
 17 19  1  0  0  0  0
 18 23  1  0  0  0  0
 19 18  2  0  0  0  0
 20 22  2  0  0  0  0
 21 17  2  0  0  0  0
 21 20  1  0  0  0  0
 22 18  1  0  0  0  0
 23 24  1  0  0  0  0
 25 24  1  6  0  0  0
 25 33  1  0  0  0  0
 27 32  1  0  0  0  0
 27 30  2  0  0  0  0
 28 31  1  0  0  0  0
 28 29  1  0  0  0  0
 29 32  1  0  0  0  0
 31 25  1  1  0  0  0
 31 27  1  0  0  0  0
 32 26  1  0  0  0  0
 33 34  2  0  0  0  0
 36 45  1  1  0  0  0
 36 40  1  0  0  0  0
 37 43  1  0  0  0  0
 37 36  1  0  0  0  0
 39 43  2  0  0  0  0
 39 35  1  0  0  0  0
 40 42  1  0  0  0  0
 41 37  1  0  0  0  0
 43 42  1  0  0  0  0
 44 41  1  0  0  0  0
 44 46  1  0  0  0  0
 46 38  1  1  0  0  0
 46 36  1  0  0  0  0
M  END
>  <MODEL>
9

>  <REMARK>
 VINA RESULT:      -6.4      3.195      6.875
  Name = 
  8 active torsions:
  status: ('A' for Active; 'I' for Inactive)
    1  A    between atoms: N_2  and  C_8
    2  A    between atoms: C_8  and  C_13
    3  A    between atoms: C_8  and  C_24
    4  A    between atoms: O_11  and  C_13
    5  A    between atoms: O_11  and  C_21
    6  A    between atoms: N_17  and  O_41
    7  A    between atoms: N_29  and  O_41
    8  A    between atoms: C_31  and  C_36
                            x       y       z     vdW  Elec       q    Type
                         _______ _______ _______ _____ _____    ______ ____

>  <TORSDO>
F 8

$$$$
