=
 OpenBabel10222420573D

 51 54  0  0  1  0  0  0  0  0999 V2000
  188.0080  178.0930  141.4450 C   0  0  0  0  0  0  0  0  0  0  0  0
  189.7520  176.8810  142.3370 C   0  0  0  0  0  3  0  0  0  0  0  0
  189.1370  177.2190  141.0160 C   0  0  2  0  0  3  0  0  0  0  0  0
  189.0760  177.4740  143.3170 C   0  0  0  0  0  0  0  0  0  0  0  0
  187.9680  178.2380  142.7610 C   0  0  0  0  0  3  0  0  0  0  0  0
  182.7500  178.9460  140.6320 O   0  0  0  0  0  0  0  0  0  0  0  0
  187.0700  178.6710  140.5270 N   0  0  0  0  0  2  0  0  0  0  0  0
  184.8540  179.3430  139.6790 N   0  0  0  0  0  2  0  0  0  0  0  0
  185.6460  178.6960  140.6810 C   0  0  0  0  0  0  0  0  0  0  0  0
  185.0970  178.1580  141.6800 O   0  0  0  0  0  0  0  0  0  0  0  0
  183.4270  179.4530  139.6970 C   0  0  0  0  0  0  0  0  0  0  0  0
  182.7440  180.1760  138.5820 C   0  0  0  0  0  3  0  0  0  0  0  0
  182.1630  179.2010  137.5710 C   0  0  0  0  0  2  0  0  0  0  0  0
  180.5500  180.9660  138.0060 C   0  0  0  0  0  2  0  0  0  0  0  0
  181.5900  181.0100  139.0990 C   0  0  0  0  0  2  0  0  0  0  0  0
  180.7200  179.6160  137.3410 C   0  0  0  0  0  2  0  0  0  0  0  0
  190.1120  177.0130  147.4650 C   0  0  0  0  0  3  0  0  0  0  0  0
  188.4020  177.3480  145.7660 C   0  0  0  0  0  0  0  0  0  0  0  0
  189.4000  177.3340  144.7610 C   0  0  0  0  0  0  0  0  0  0  0  0
  191.0960  177.0080  146.4800 C   0  0  0  0  0  3  0  0  0  0  0  0
  190.7430  177.1660  145.1400 C   0  0  0  0  0  3  0  0  0  0  0  0
  188.7750  177.1830  147.1110 C   0  0  0  0  0  3  0  0  0  0  0  0
  187.0570  177.5400  145.4230 O   0  0  0  0  0  0  0  0  0  0  0  0
  186.1510  178.3210  146.1970 C   0  0  0  0  0  2  0  0  0  0  0  0
  184.0060  178.6950  145.0600 C   0  0  0  0  0  3  0  0  0  0  0  0
  185.2500  179.1100  145.3040 C   0  0  0  0  0  3  0  0  0  0  0  0
  183.0960  179.4790  144.1720 C   0  0  0  0  0  2  0  0  0  0  0  0
  181.7900  178.7360  143.9610 C   0  0  0  0  0  1  0  0  0  0  0  0
  190.1170  178.0100  140.1630 C   0  0  0  0  0  2  0  0  0  0  0  0
  190.5020  177.2120  138.9320 C   0  0  0  0  0  2  0  0  0  0  0  0
  189.1830  178.7480  136.9560 O   0  0  0  0  0  0  0  0  0  0  0  0
  188.6920  177.6190  137.2290 C   0  0  0  0  0  0  0  0  0  0  0  0
  189.3000  176.7970  138.2270 N   0  0  0  0  0  2  0  0  0  0  0  0
  187.4910  177.1490  136.5240 C   0  0  0  0  0  0  0  0  0  0  0  0
  186.3500  177.5170  136.9170 O   0  0  0  0  0  0  0  0  0  0  0  0
  187.6260  176.2370  135.3450 C   0  0  0  0  0  2  0  0  0  0  0  0
  187.7710  174.9060  135.7490 O   0  0  0  0  0  0  0  0  0  0  0  0
  189.0650  174.6020  135.4850 N   0  0  0  0  0  2  0  0  0  0  0  0
  189.2830  173.2450  137.3700 O   0  0  0  0  0  0  0  0  0  0  0  0
  189.8060  173.7160  136.3250 C   0  0  0  0  0  0  0  0  0  0  0  0
  191.2130  173.3560  135.9700 C   0  0  0  0  0  2  0  0  0  0  0  0
  191.9180  174.4420  137.9880 O   0  0  0  0  0  1  0  0  0  0  0  0
  192.2600  174.2550  136.6450 C   0  0  1  0  0  0  0  0  0  0  0  0
  194.9680  171.5460  136.0130 C   0  0  0  0  0  2  0  0  0  0  0  0
  195.5640  171.6300  137.3080 O   0  0  0  0  0  0  0  0  0  0  0  0
  193.6450  173.5770  136.5640 C   0  0  2  0  0  3  0  0  0  0  0  0
  195.3000  172.6940  138.1810 C   0  0  0  0  0  3  0  0  0  0  0  0
  193.5620  172.1390  136.0390 C   0  0  0  0  0  2  0  0  0  0  0  0
  194.3860  173.6190  137.8770 C   0  0  0  0  0  3  0  0  0  0  0  0
  193.5140  176.2660  136.1710 O   0  0  0  0  0  1  0  0  0  0  0  0
  192.2940  175.6220  135.9530 C   0  0  0  0  0  2  0  0  0  0  0  0
  1  5  2  0  0  0  0
  2  4  2  0  0  0  0
  3 29  1  6  0  0  0
  3  1  1  0  0  0  0
  3  2  1  0  0  0  0
  4 19  1  0  0  0  0
  5  4  1  0  0  0  0
  7  9  1  0  0  0  0
  7  1  1  0  0  0  0
  8 11  1  0  0  0  0
  8  9  1  0  0  0  0
  9 10  2  0  0  0  0
 11  6  2  0  0  0  0
 12 15  1  0  0  0  0
 12 11  1  0  0  0  0
 13 12  1  0  0  0  0
 14 15  1  0  0  0  0
 16 13  1  0  0  0  0
 16 14  1  0  0  0  0
 18 22  2  0  0  0  0
 19 21  2  0  0  0  0
 19 18  1  0  0  0  0
 20 17  2  0  0  0  0
 21 20  1  0  0  0  0
 22 17  1  0  0  0  0
 23 18  1  0  0  0  0
 23 24  1  0  0  0  0
 25 26  2  0  0  0  0
 26 24  1  0  0  0  0
 27 25  1  0  0  0  0
 28 27  1  0  0  0  0
 30 29  1  0  0  0  0
 31 32  2  0  0  0  0
 32 33  1  0  0  0  0
 33 30  1  0  0  0  0
 34 35  2  0  0  0  0
 34 32  1  0  0  0  0
 36 37  1  0  0  0  0
 36 34  1  0  0  0  0
 38 37  1  0  0  0  0
 38 40  1  0  0  0  0
 40 39  2  0  0  0  0
 41 40  1  0  0  0  0
 41 43  1  0  0  0  0
 43 42  1  1  0  0  0
 44 48  1  0  0  0  0
 44 45  1  0  0  0  0
 45 47  1  0  0  0  0
 46 43  1  1  0  0  0
 46 49  1  0  0  0  0
 48 46  1  0  0  0  0
 49 47  2  0  0  0  0
 51 50  1  0  0  0  0
 51 43  1  0  0  0  0
M  END
>  <MODEL>
1

>  <REMARK>
 VINA RESULT:      -8.0      0.000      0.000
  Name = 
  18 active torsions:
  status: ('A' for Active; 'I' for Inactive)
    1  A    between atoms: N_3  and  C_12
    2  A    between atoms: C_4  and  C_20
    3  A    between atoms: C_4  and  C_24
    4  A    between atoms: C_6  and  C_8
    5  A    between atoms: C_7  and  C_40
    6  A    between atoms: C_7  and  C_48
    7  A    between atoms: C_8  and  C_46
    8  A    between atoms: O_11  and  N_26
    9  A    between atoms: O_11  and  C_46
   10  A    between atoms: C_13  and  O_43
   11  A    between atoms: C_16  and  C_37
   12  A    between atoms: C_17  and  C_50
   13  A    between atoms: N_19  and  C_24
   14  A    between atoms: C_22  and  C_40
   15  A    between atoms: C_28  and  C_33
   16  A    between atoms: C_34  and  C_45
   17  A    between atoms: C_39  and  C_40
   18  A    between atoms: O_43  and  C_45
                            x       y       z     vdW  Elec       q    Type
                         _______ _______ _______ _____ _____    ______ ____

>  <TORSDO>
F 18

$$$$
=
 OpenBabel10222420573D

 51 54  0  0  1  0  0  0  0  0999 V2000
  187.1350  178.2970  141.9130 C   0  0  0  0  0  0  0  0  0  0  0  0
  188.6750  176.9400  142.9580 C   0  0  0  0  0  3  0  0  0  0  0  0
  188.1500  177.2540  141.5930 C   0  0  2  0  0  3  0  0  0  0  0  0
  188.0530  177.6870  143.8650 C   0  0  0  0  0  0  0  0  0  0  0  0
  187.0730  178.5440  143.2130 C   0  0  0  0  0  3  0  0  0  0  0  0
  182.0790  178.5640  140.0670 O   0  0  0  0  0  0  0  0  0  0  0  0
  186.3100  178.9200  140.9200 N   0  0  0  0  0  2  0  0  0  0  0  0
  184.2230  179.4430  139.7130 N   0  0  0  0  0  2  0  0  0  0  0  0
  184.9040  178.7140  140.7410 C   0  0  0  0  0  0  0  0  0  0  0  0
  184.2730  177.9050  141.4740 O   0  0  0  0  0  0  0  0  0  0  0  0
  182.8260  179.3470  139.4180 C   0  0  0  0  0  0  0  0  0  0  0  0
  182.2590  180.1880  138.3210 C   0  0  0  0  0  3  0  0  0  0  0  0
  181.6260  179.3270  137.2410 C   0  0  0  0  0  2  0  0  0  0  0  0
  180.1760  181.2190  137.7140 C   0  0  0  0  0  2  0  0  0  0  0  0
  181.1730  181.1060  138.8420 C   0  0  0  0  0  2  0  0  0  0  0  0
  180.2400  179.8930  136.9860 C   0  0  0  0  0  2  0  0  0  0  0  0
  188.8690  177.3860  148.0770 C   0  0  0  0  0  3  0  0  0  0  0  0
  187.4040  178.1330  146.2840 C   0  0  0  0  0  0  0  0  0  0  0  0
  188.3110  177.6150  145.3280 C   0  0  0  0  0  0  0  0  0  0  0  0
  189.7680  176.8840  147.1390 C   0  0  0  0  0  3  0  0  0  0  0  0
  189.4910  176.9970  145.7770 C   0  0  0  0  0  3  0  0  0  0  0  0
  187.6960  178.0070  147.6520 C   0  0  0  0  0  3  0  0  0  0  0  0
  186.2310  178.7780  145.8670 O   0  0  0  0  0  0  0  0  0  0  0  0
  184.9300  178.4170  146.3210 C   0  0  0  0  0  2  0  0  0  0  0  0
  183.2860  179.3150  144.7320 C   0  0  0  0  0  3  0  0  0  0  0  0
  183.9960  178.2720  145.1630 C   0  0  0  0  0  3  0  0  0  0  0  0
  182.3530  179.1820  143.5740 C   0  0  0  0  0  2  0  0  0  0  0  0
  181.0230  178.6080  144.0260 C   0  0  0  0  0  1  0  0  0  0  0  0
  189.2520  177.8460  140.7270 C   0  0  0  0  0  2  0  0  0  0  0  0
  190.5080  177.0010  140.8270 C   0  0  0  0  0  2  0  0  0  0  0  0
  192.8840  177.0090  139.2930 O   0  0  0  0  0  0  0  0  0  0  0  0
  191.9300  176.3000  138.8720 C   0  0  0  0  0  0  0  0  0  0  0  0
  190.6960  176.2610  139.5910 N   0  0  0  0  0  2  0  0  0  0  0  0
  192.0850  175.5160  137.6380 C   0  0  0  0  0  0  0  0  0  0  0  0
  192.6110  174.3710  137.6860 O   0  0  0  0  0  0  0  0  0  0  0  0
  191.6160  176.0790  136.3320 C   0  0  0  0  0  2  0  0  0  0  0  0
  190.7270  175.2070  135.6960 O   0  0  0  0  0  0  0  0  0  0  0  0
  189.6210  175.2070  136.4800 N   0  0  0  0  0  2  0  0  0  0  0  0
  189.0880  177.4220  135.9780 O   0  0  0  0  0  0  0  0  0  0  0  0
  188.7800  176.3570  136.5770 C   0  0  0  0  0  0  0  0  0  0  0  0
  187.5350  176.3000  137.4040 C   0  0  0  0  0  2  0  0  0  0  0  0
  186.5590  176.1050  135.2210 O   0  0  0  0  0  1  0  0  0  0  0  0
  186.2480  176.3330  136.5650 C   0  0  1  0  0  0  0  0  0  0  0  0
  184.9770  172.8610  137.7480 C   0  0  0  0  0  2  0  0  0  0  0  0
  183.9100  172.7660  136.8040 O   0  0  0  0  0  0  0  0  0  0  0  0
  185.2880  175.2290  137.0590 C   0  0  2  0  0  3  0  0  0  0  0  0
  183.4640  173.8750  136.0720 C   0  0  0  0  0  3  0  0  0  0  0  0
  186.0030  173.8910  137.2850 C   0  0  0  0  0  2  0  0  0  0  0  0
  184.1000  175.0460  136.1460 C   0  0  0  0  0  3  0  0  0  0  0  0
  186.3560  178.5720  137.4720 O   0  0  0  0  0  1  0  0  0  0  0  0
  185.5850  177.7100  136.6880 C   0  0  0  0  0  2  0  0  0  0  0  0
  1  5  2  0  0  0  0
  2  4  2  0  0  0  0
  3 29  1  6  0  0  0
  3  1  1  0  0  0  0
  3  2  1  0  0  0  0
  4 19  1  0  0  0  0
  5  4  1  0  0  0  0
  7  1  1  0  0  0  0
  8  9  1  0  0  0  0
  9  7  1  0  0  0  0
  9 10  2  0  0  0  0
 11  8  1  0  0  0  0
 11  6  2  0  0  0  0
 12 15  1  0  0  0  0
 12 11  1  0  0  0  0
 13 12  1  0  0  0  0
 14 15  1  0  0  0  0
 16 13  1  0  0  0  0
 16 14  1  0  0  0  0
 18 22  2  0  0  0  0
 19 21  2  0  0  0  0
 19 18  1  0  0  0  0
 20 17  2  0  0  0  0
 21 20  1  0  0  0  0
 22 17  1  0  0  0  0
 23 18  1  0  0  0  0
 23 24  1  0  0  0  0
 25 26  2  0  0  0  0
 26 24  1  0  0  0  0
 27 28  1  0  0  0  0
 27 25  1  0  0  0  0
 29 30  1  0  0  0  0
 32 31  2  0  0  0  0
 32 33  1  0  0  0  0
 33 30  1  0  0  0  0
 34 35  2  0  0  0  0
 34 32  1  0  0  0  0
 36 34  1  0  0  0  0
 37 36  1  0  0  0  0
 37 38  1  0  0  0  0
 38 40  1  0  0  0  0
 39 40  2  0  0  0  0
 40 41  1  0  0  0  0
 43 42  1  6  0  0  0
 43 51  1  0  0  0  0
 43 41  1  0  0  0  0
 45 44  1  0  0  0  0
 46 43  1  6  0  0  0
 46 48  1  0  0  0  0
 47 49  2  0  0  0  0
 47 45  1  0  0  0  0
 48 44  1  0  0  0  0
 49 46  1  0  0  0  0
 51 50  1  0  0  0  0
M  END
>  <MODEL>
2

>  <REMARK>
 VINA RESULT:      -8.0      1.860      4.545
  Name = 
  18 active torsions:
  status: ('A' for Active; 'I' for Inactive)
    1  A    between atoms: N_3  and  C_12
    2  A    between atoms: C_4  and  C_20
    3  A    between atoms: C_4  and  C_24
    4  A    between atoms: C_6  and  C_8
    5  A    between atoms: C_7  and  C_40
    6  A    between atoms: C_7  and  C_48
    7  A    between atoms: C_8  and  C_46
    8  A    between atoms: O_11  and  N_26
    9  A    between atoms: O_11  and  C_46
   10  A    between atoms: C_13  and  O_43
   11  A    between atoms: C_16  and  C_37
   12  A    between atoms: C_17  and  C_50
   13  A    between atoms: N_19  and  C_24
   14  A    between atoms: C_22  and  C_40
   15  A    between atoms: C_28  and  C_33
   16  A    between atoms: C_34  and  C_45
   17  A    between atoms: C_39  and  C_40
   18  A    between atoms: O_43  and  C_45
                            x       y       z     vdW  Elec       q    Type
                         _______ _______ _______ _____ _____    ______ ____

>  <TORSDO>
F 18

$$$$
=
 OpenBabel10222420573D

 51 54  0  0  1  0  0  0  0  0999 V2000
  187.2210  178.3720  140.8710 C   0  0  0  0  0  0  0  0  0  0  0  0
  189.1840  177.2530  141.3190 C   0  0  0  0  0  3  0  0  0  0  0  0
  188.2930  177.6080  140.1710 C   0  0  2  0  0  3  0  0  0  0  0  0
  188.6850  177.7440  142.4490 C   0  0  0  0  0  0  0  0  0  0  0  0
  187.4390  178.4490  142.1740 C   0  0  0  0  0  3  0  0  0  0  0  0
  181.8530  178.0470  140.5280 O   0  0  0  0  0  0  0  0  0  0  0  0
  186.0810  178.9220  140.1970 N   0  0  0  0  0  2  0  0  0  0  0  0
  183.6910  179.2150  139.6620 N   0  0  0  0  0  2  0  0  0  0  0  0
  184.7160  178.5400  140.4010 C   0  0  0  0  0  0  0  0  0  0  0  0
  184.4180  177.6250  141.2160 O   0  0  0  0  0  0  0  0  0  0  0  0
  182.2880  178.9470  139.7600 C   0  0  0  0  0  0  0  0  0  0  0  0
  181.3400  179.7510  138.9320 C   0  0  0  0  0  3  0  0  0  0  0  0
  180.0990  180.1250  139.7260 C   0  0  0  0  0  2  0  0  0  0  0  0
  180.8490  182.0520  138.4520 C   0  0  0  0  0  2  0  0  0  0  0  0
  181.9750  181.0480  138.4770 C   0  0  0  0  0  2  0  0  0  0  0  0
  179.8970  181.6190  139.5460 C   0  0  0  0  0  2  0  0  0  0  0  0
  190.5730  177.1700  146.2700 C   0  0  0  0  0  3  0  0  0  0  0  0
  188.5330  177.3190  144.9520 C   0  0  0  0  0  0  0  0  0  0  0  0
  189.3030  177.5570  143.7880 C   0  0  0  0  0  0  0  0  0  0  0  0
  191.3330  177.4130  145.1280 C   0  0  0  0  0  3  0  0  0  0  0  0
  190.7030  177.6040  143.8980 C   0  0  0  0  0  3  0  0  0  0  0  0
  189.1830  177.1240  146.1820 C   0  0  0  0  0  3  0  0  0  0  0  0
  187.1330  177.2930  144.8790 O   0  0  0  0  0  0  0  0  0  0  0  0
  186.2820  177.6520  145.9640 C   0  0  0  0  0  2  0  0  0  0  0  0
  184.5230  178.5410  144.4980 C   0  0  0  0  0  3  0  0  0  0  0  0
  185.3290  178.7240  145.5440 C   0  0  0  0  0  3  0  0  0  0  0  0
  183.5640  179.6050  144.0730 C   0  0  0  0  0  2  0  0  0  0  0  0
  182.2220  178.9970  143.7100 C   0  0  0  0  0  1  0  0  0  0  0  0
  189.0260  178.5130  139.1920 C   0  0  0  0  0  2  0  0  0  0  0  0
  188.9910  177.9150  137.7990 C   0  0  0  0  0  2  0  0  0  0  0  0
  190.4350  176.3750  135.9160 O   0  0  0  0  0  0  0  0  0  0  0  0
  189.9390  175.7630  136.9000 C   0  0  0  0  0  0  0  0  0  0  0  0
  189.1850  176.4760  137.8830 N   0  0  0  0  0  2  0  0  0  0  0  0
  190.1310  174.3110  137.0370 C   0  0  0  0  0  0  0  0  0  0  0  0
  191.2990  173.8350  137.0760 O   0  0  0  0  0  0  0  0  0  0  0  0
  188.9420  173.4060  137.1300 C   0  0  0  0  0  2  0  0  0  0  0  0
  187.9940  173.7140  136.1490 O   0  0  0  0  0  0  0  0  0  0  0  0
  186.8870  174.0790  136.8400 N   0  0  0  0  0  2  0  0  0  0  0  0
  185.6710  172.2050  136.1660 O   0  0  0  0  0  0  0  0  0  0  0  0
  185.7160  173.2610  136.8520 C   0  0  0  0  0  0  0  0  0  0  0  0
  184.5340  173.6650  137.6750 C   0  0  0  0  0  2  0  0  0  0  0  0
  184.0630  174.8710  135.6550 O   0  0  0  0  0  1  0  0  0  0  0  0
  183.6190  174.6760  136.9670 C   0  0  1  0  0  0  0  0  0  0  0  0
  179.9320  174.0400  138.0030 C   0  0  0  0  0  2  0  0  0  0  0  0
  180.0170  172.6150  137.9760 O   0  0  0  0  0  0  0  0  0  0  0  0
  182.1760  174.1260  136.9380 C   0  0  2  0  0  3  0  0  0  0  0  0
  181.0870  171.9440  137.3700 C   0  0  0  0  0  3  0  0  0  0  0  0
  181.3270  174.6500  138.1020 C   0  0  0  0  0  2  0  0  0  0  0  0
  182.1340  172.6180  136.8900 C   0  0  0  0  0  3  0  0  0  0  0  0
  184.8890  176.6600  137.5090 O   0  0  0  0  0  1  0  0  0  0  0  0
  183.6630  176.0200  137.7030 C   0  0  0  0  0  2  0  0  0  0  0  0
  1  5  2  0  0  0  0
  2  4  2  0  0  0  0
  3 29  1  6  0  0  0
  3  1  1  0  0  0  0
  3  2  1  0  0  0  0
  4 19  1  0  0  0  0
  5  4  1  0  0  0  0
  7  9  1  0  0  0  0
  7  1  1  0  0  0  0
  8 11  1  0  0  0  0
  8  9  1  0  0  0  0
  9 10  2  0  0  0  0
 11  6  2  0  0  0  0
 12 13  1  0  0  0  0
 12 11  1  0  0  0  0
 14 15  1  0  0  0  0
 14 16  1  0  0  0  0
 15 12  1  0  0  0  0
 16 13  1  0  0  0  0
 18 22  2  0  0  0  0
 19 21  2  0  0  0  0
 19 18  1  0  0  0  0
 20 17  2  0  0  0  0
 21 20  1  0  0  0  0
 22 17  1  0  0  0  0
 23 18  1  0  0  0  0
 23 24  1  0  0  0  0
 25 26  2  0  0  0  0
 26 24  1  0  0  0  0
 27 25  1  0  0  0  0
 28 27  1  0  0  0  0
 30 33  1  0  0  0  0
 30 29  1  0  0  0  0
 31 32  2  0  0  0  0
 32 34  1  0  0  0  0
 32 33  1  0  0  0  0
 34 35  2  0  0  0  0
 34 36  1  0  0  0  0
 37 38  1  0  0  0  0
 37 36  1  0  0  0  0
 38 40  1  0  0  0  0
 39 40  2  0  0  0  0
 40 41  1  0  0  0  0
 43 42  1  6  0  0  0
 43 41  1  0  0  0  0
 43 51  1  0  0  0  0
 44 48  1  0  0  0  0
 45 44  1  0  0  0  0
 46 43  1  1  0  0  0
 46 48  1  0  0  0  0
 47 45  1  0  0  0  0
 49 46  1  0  0  0  0
 49 47  2  0  0  0  0
 50 51  1  0  0  0  0
M  END
>  <MODEL>
3

>  <REMARK>
 VINA RESULT:      -8.0      2.758      5.681
  Name = 
  18 active torsions:
  status: ('A' for Active; 'I' for Inactive)
    1  A    between atoms: N_3  and  C_12
    2  A    between atoms: C_4  and  C_20
    3  A    between atoms: C_4  and  C_24
    4  A    between atoms: C_6  and  C_8
    5  A    between atoms: C_7  and  C_40
    6  A    between atoms: C_7  and  C_48
    7  A    between atoms: C_8  and  C_46
    8  A    between atoms: O_11  and  N_26
    9  A    between atoms: O_11  and  C_46
   10  A    between atoms: C_13  and  O_43
   11  A    between atoms: C_16  and  C_37
   12  A    between atoms: C_17  and  C_50
   13  A    between atoms: N_19  and  C_24
   14  A    between atoms: C_22  and  C_40
   15  A    between atoms: C_28  and  C_33
   16  A    between atoms: C_34  and  C_45
   17  A    between atoms: C_39  and  C_40
   18  A    between atoms: O_43  and  C_45
                            x       y       z     vdW  Elec       q    Type
                         _______ _______ _______ _____ _____    ______ ____

>  <TORSDO>
F 18

$$$$
=
 OpenBabel10222420573D

 51 54  0  0  1  0  0  0  0  0999 V2000
  187.0420  178.3960  141.0150 C   0  0  0  0  0  0  0  0  0  0  0  0
  188.9250  177.2370  141.6560 C   0  0  0  0  0  3  0  0  0  0  0  0
  188.1520  177.5940  140.4270 C   0  0  2  0  0  3  0  0  0  0  0  0
  188.3390  177.7590  142.7290 C   0  0  0  0  0  0  0  0  0  0  0  0
  187.1420  178.4900  142.3320 C   0  0  0  0  0  3  0  0  0  0  0  0
  181.6880  178.4300  140.4000 O   0  0  0  0  0  0  0  0  0  0  0  0
  185.9820  178.9630  140.2310 N   0  0  0  0  0  2  0  0  0  0  0  0
  183.6520  179.3770  139.5380 N   0  0  0  0  0  2  0  0  0  0  0  0
  184.5830  178.7010  140.3910 C   0  0  0  0  0  0  0  0  0  0  0  0
  184.1760  177.8890  141.2660 O   0  0  0  0  0  0  0  0  0  0  0  0
  182.2290  179.2220  139.5810 C   0  0  0  0  0  0  0  0  0  0  0  0
  181.3880  180.0120  138.6330 C   0  0  0  0  0  3  0  0  0  0  0  0
  179.9760  180.1860  139.1670 C   0  0  0  0  0  2  0  0  0  0  0  0
  180.7500  182.2940  138.2390 C   0  0  0  0  0  2  0  0  0  0  0  0
  181.9530  181.4020  138.4290 C   0  0  0  0  0  2  0  0  0  0  0  0
  179.6480  181.6660  139.0650 C   0  0  0  0  0  2  0  0  0  0  0  0
  189.8510  177.1910  146.7140 C   0  0  0  0  0  3  0  0  0  0  0  0
  187.9500  177.5210  145.2310 C   0  0  0  0  0  0  0  0  0  0  0  0
  188.8280  177.5800  144.1210 C   0  0  0  0  0  0  0  0  0  0  0  0
  190.7170  177.2580  145.6260 C   0  0  0  0  0  3  0  0  0  0  0  0
  190.2090  177.4500  144.3410 C   0  0  0  0  0  3  0  0  0  0  0  0
  188.4770  177.3220  146.5190 C   0  0  0  0  0  3  0  0  0  0  0  0
  186.5680  177.6730  145.0480 O   0  0  0  0  0  0  0  0  0  0  0  0
  185.7690  178.5750  145.8070 C   0  0  0  0  0  2  0  0  0  0  0  0
  183.5770  178.6830  144.7040 C   0  0  0  0  0  3  0  0  0  0  0  0
  184.7650  179.2470  144.9280 C   0  0  0  0  0  3  0  0  0  0  0  0
  182.5650  179.3480  143.8290 C   0  0  0  0  0  2  0  0  0  0  0  0
  181.2300  178.6340  143.9240 C   0  0  0  0  0  1  0  0  0  0  0  0
  188.9950  178.4630  139.5060 C   0  0  0  0  0  2  0  0  0  0  0  0
  188.4700  178.3840  138.0850 C   0  0  0  0  0  2  0  0  0  0  0  0
  187.0280  176.0710  137.3310 O   0  0  0  0  0  0  0  0  0  0  0  0
  188.2570  176.0970  137.0540 C   0  0  0  0  0  0  0  0  0  0  0  0
  189.0490  177.2300  137.4170 N   0  0  0  0  0  2  0  0  0  0  0  0
  188.8800  174.9620  136.3570 C   0  0  0  0  0  0  0  0  0  0  0  0
  188.8100  174.8840  135.1000 O   0  0  0  0  0  0  0  0  0  0  0  0
  189.5930  173.9050  137.1420 C   0  0  0  0  0  2  0  0  0  0  0  0
  190.6030  174.4590  137.9350 O   0  0  0  0  0  0  0  0  0  0  0  0
  191.7590  174.0000  137.3950 N   0  0  0  0  0  2  0  0  0  0  0  0
  192.0940  175.9210  136.1150 O   0  0  0  0  0  0  0  0  0  0  0  0
  192.5190  174.7940  136.4840 C   0  0  0  0  0  0  0  0  0  0  0  0
  193.8200  174.2790  135.9560 C   0  0  0  0  0  2  0  0  0  0  0  0
  194.6990  175.7200  137.6600 O   0  0  0  0  0  1  0  0  0  0  0  0
  195.0380  175.0600  136.4750 C   0  0  1  0  0  0  0  0  0  0  0  0
  198.6330  173.7340  137.0960 C   0  0  0  0  0  2  0  0  0  0  0  0
  198.5950  172.7280  136.0830 O   0  0  0  0  0  0  0  0  0  0  0  0
  196.1950  174.0770  136.7530 C   0  0  2  0  0  3  0  0  0  0  0  0
  197.3950  172.3240  135.4810 C   0  0  0  0  0  3  0  0  0  0  0  0
  197.5530  174.7820  136.8400 C   0  0  0  0  0  2  0  0  0  0  0  0
  196.2480  172.9490  135.7520 C   0  0  0  0  0  3  0  0  0  0  0  0
  195.1120  177.3940  135.8460 O   0  0  0  0  0  1  0  0  0  0  0  0
  195.4640  176.1050  135.4370 C   0  0  0  0  0  2  0  0  0  0  0  0
  1  5  2  0  0  0  0
  2  4  2  0  0  0  0
  3 29  1  6  0  0  0
  3  1  1  0  0  0  0
  3  2  1  0  0  0  0
  4 19  1  0  0  0  0
  5  4  1  0  0  0  0
  7  9  1  0  0  0  0
  7  1  1  0  0  0  0
  8 11  1  0  0  0  0
  8  9  1  0  0  0  0
  9 10  2  0  0  0  0
 11  6  2  0  0  0  0
 12 13  1  0  0  0  0
 12 11  1  0  0  0  0
 14 15  1  0  0  0  0
 14 16  1  0  0  0  0
 15 12  1  0  0  0  0
 16 13  1  0  0  0  0
 18 22  2  0  0  0  0
 19 21  2  0  0  0  0
 19 18  1  0  0  0  0
 20 17  2  0  0  0  0
 21 20  1  0  0  0  0
 22 17  1  0  0  0  0
 23 18  1  0  0  0  0
 23 24  1  0  0  0  0
 25 26  2  0  0  0  0
 26 24  1  0  0  0  0
 27 28  1  0  0  0  0
 27 25  1  0  0  0  0
 30 29  1  0  0  0  0
 32 31  2  0  0  0  0
 32 33  1  0  0  0  0
 33 30  1  0  0  0  0
 34 32  1  0  0  0  0
 34 36  1  0  0  0  0
 35 34  2  0  0  0  0
 36 37  1  0  0  0  0
 38 37  1  0  0  0  0
 39 40  2  0  0  0  0
 40 38  1  0  0  0  0
 41 43  1  0  0  0  0
 41 40  1  0  0  0  0
 43 42  1  1  0  0  0
 45 44  1  0  0  0  0
 46 43  1  6  0  0  0
 46 48  1  0  0  0  0
 47 49  2  0  0  0  0
 47 45  1  0  0  0  0
 48 44  1  0  0  0  0
 49 46  1  0  0  0  0
 51 50  1  0  0  0  0
 51 43  1  0  0  0  0
M  END
>  <MODEL>
4

>  <REMARK>
 VINA RESULT:      -7.9      1.601      2.309
  Name = 
  18 active torsions:
  status: ('A' for Active; 'I' for Inactive)
    1  A    between atoms: N_3  and  C_12
    2  A    between atoms: C_4  and  C_20
    3  A    between atoms: C_4  and  C_24
    4  A    between atoms: C_6  and  C_8
    5  A    between atoms: C_7  and  C_40
    6  A    between atoms: C_7  and  C_48
    7  A    between atoms: C_8  and  C_46
    8  A    between atoms: O_11  and  N_26
    9  A    between atoms: O_11  and  C_46
   10  A    between atoms: C_13  and  O_43
   11  A    between atoms: C_16  and  C_37
   12  A    between atoms: C_17  and  C_50
   13  A    between atoms: N_19  and  C_24
   14  A    between atoms: C_22  and  C_40
   15  A    between atoms: C_28  and  C_33
   16  A    between atoms: C_34  and  C_45
   17  A    between atoms: C_39  and  C_40
   18  A    between atoms: O_43  and  C_45
                            x       y       z     vdW  Elec       q    Type
                         _______ _______ _______ _____ _____    ______ ____

>  <TORSDO>
F 18

$$$$
=
 OpenBabel10222420573D

 51 54  0  0  1  0  0  0  0  0999 V2000
  187.2820  178.3570  140.7460 C   0  0  0  0  0  0  0  0  0  0  0  0
  189.2720  177.2780  141.1680 C   0  0  0  0  0  3  0  0  0  0  0  0
  188.3730  177.6390  140.0280 C   0  0  2  0  0  3  0  0  0  0  0  0
  188.7600  177.7260  142.3090 C   0  0  0  0  0  0  0  0  0  0  0  0
  187.4970  178.4060  142.0510 C   0  0  0  0  0  3  0  0  0  0  0  0
  181.9020  178.1020  140.5890 O   0  0  0  0  0  0  0  0  0  0  0  0
  186.1290  178.8950  140.0850 N   0  0  0  0  0  2  0  0  0  0  0  0
  183.7280  179.2010  139.6130 N   0  0  0  0  0  2  0  0  0  0  0  0
  184.7660  178.5430  140.3490 C   0  0  0  0  0  0  0  0  0  0  0  0
  184.4810  177.6700  141.2130 O   0  0  0  0  0  0  0  0  0  0  0  0
  182.3250  178.9600  139.7680 C   0  0  0  0  0  0  0  0  0  0  0  0
  181.3610  179.7420  138.9360 C   0  0  0  0  0  3  0  0  0  0  0  0
  180.1150  180.0990  139.7290 C   0  0  0  0  0  2  0  0  0  0  0  0
  180.8300  182.0310  138.4410 C   0  0  0  0  0  2  0  0  0  0  0  0
  181.9740  181.0470  138.4720 C   0  0  0  0  0  2  0  0  0  0  0  0
  179.8870  181.5880  139.5390 C   0  0  0  0  0  2  0  0  0  0  0  0
  190.6530  177.0850  146.1170 C   0  0  0  0  0  3  0  0  0  0  0  0
  188.6160  177.4270  144.8310 C   0  0  0  0  0  0  0  0  0  0  0  0
  189.3820  177.5210  143.6440 C   0  0  0  0  0  0  0  0  0  0  0  0
  191.4110  177.1870  144.9530 C   0  0  0  0  0  3  0  0  0  0  0  0
  190.7800  177.4020  143.7270 C   0  0  0  0  0  3  0  0  0  0  0  0
  189.2660  177.2050  146.0570 C   0  0  0  0  0  3  0  0  0  0  0  0
  187.2220  177.5680  144.7850 O   0  0  0  0  0  0  0  0  0  0  0  0
  186.4010  177.6550  145.9450 C   0  0  0  0  0  2  0  0  0  0  0  0
  184.8280  178.7690  144.4240 C   0  0  0  0  0  3  0  0  0  0  0  0
  185.2080  178.5140  145.6760 C   0  0  0  0  0  3  0  0  0  0  0  0
  183.6350  179.6230  144.1430 C   0  0  0  0  0  2  0  0  0  0  0  0
  182.3780  178.7760  144.0770 C   0  0  0  0  0  1  0  0  0  0  0  0
  189.0840  178.5860  139.0740 C   0  0  0  0  0  2  0  0  0  0  0  0
  188.6080  178.3530  137.6530 C   0  0  0  0  0  2  0  0  0  0  0  0
  190.3510  176.4510  136.4940 O   0  0  0  0  0  0  0  0  0  0  0  0
  189.2270  176.0360  136.8880 C   0  0  0  0  0  0  0  0  0  0  0  0
  188.2920  176.9460  137.4710 N   0  0  0  0  0  2  0  0  0  0  0  0
  188.8750  174.6160  136.7450 C   0  0  0  0  0  0  0  0  0  0  0  0
  189.7620  173.7320  136.9030 O   0  0  0  0  0  0  0  0  0  0  0  0
  187.4680  174.2250  136.4150 C   0  0  0  0  0  2  0  0  0  0  0  0
  186.6130  174.4530  137.4980 O   0  0  0  0  0  0  0  0  0  0  0  0
  185.3680  174.4610  136.9600 N   0  0  0  0  0  2  0  0  0  0  0  0
  184.9960  176.7020  137.4880 O   0  0  0  0  0  0  0  0  0  0  0  0
  184.5740  175.6470  136.9440 C   0  0  0  0  0  0  0  0  0  0  0  0
  183.2300  175.6340  136.2890 C   0  0  0  0  0  2  0  0  0  0  0  0
  182.4680  175.1830  138.5180 O   0  0  0  0  0  1  0  0  0  0  0  0
  182.1300  175.0230  137.1700 C   0  0  1  0  0  0  0  0  0  0  0  0
  179.6250  177.7430  135.9880 C   0  0  0  0  0  2  0  0  0  0  0  0
  178.9310  177.8520  137.2310 O   0  0  0  0  0  0  0  0  0  0  0  0
  180.7930  175.7440  136.8930 C   0  0  2  0  0  3  0  0  0  0  0  0
  179.0710  176.8990  138.2480 C   0  0  0  0  0  3  0  0  0  0  0  0
  180.9910  177.0980  136.2010 C   0  0  0  0  0  2  0  0  0  0  0  0
  179.9540  175.9040  138.1380 C   0  0  0  0  0  3  0  0  0  0  0  0
  181.1500  173.3000  135.7860 O   0  0  0  0  0  1  0  0  0  0  0  0
  181.9990  173.5250  136.8730 C   0  0  0  0  0  2  0  0  0  0  0  0
  1  5  2  0  0  0  0
  2  4  2  0  0  0  0
  3 29  1  6  0  0  0
  3  1  1  0  0  0  0
  3  2  1  0  0  0  0
  4 19  1  0  0  0  0
  5  4  1  0  0  0  0
  7  9  1  0  0  0  0
  7  1  1  0  0  0  0
  8 11  1  0  0  0  0
  8  9  1  0  0  0  0
  9 10  2  0  0  0  0
 11  6  2  0  0  0  0
 12 13  1  0  0  0  0
 12 11  1  0  0  0  0
 14 15  1  0  0  0  0
 14 16  1  0  0  0  0
 15 12  1  0  0  0  0
 16 13  1  0  0  0  0
 18 22  2  0  0  0  0
 19 21  2  0  0  0  0
 19 18  1  0  0  0  0
 20 17  2  0  0  0  0
 21 20  1  0  0  0  0
 22 17  1  0  0  0  0
 23 18  1  0  0  0  0
 23 24  1  0  0  0  0
 25 26  2  0  0  0  0
 26 24  1  0  0  0  0
 27 25  1  0  0  0  0
 28 27  1  0  0  0  0
 30 29  1  0  0  0  0
 31 32  2  0  0  0  0
 32 33  1  0  0  0  0
 33 30  1  0  0  0  0
 34 32  1  0  0  0  0
 34 35  2  0  0  0  0
 36 34  1  0  0  0  0
 36 37  1  0  0  0  0
 38 37  1  0  0  0  0
 40 38  1  0  0  0  0
 40 39  2  0  0  0  0
 41 40  1  0  0  0  0
 41 43  1  0  0  0  0
 43 42  1  1  0  0  0
 44 48  1  0  0  0  0
 44 45  1  0  0  0  0
 45 47  1  0  0  0  0
 46 43  1  1  0  0  0
 46 49  1  0  0  0  0
 48 46  1  0  0  0  0
 49 47  2  0  0  0  0
 50 51  1  0  0  0  0
 51 43  1  0  0  0  0
M  END
>  <MODEL>
5

>  <REMARK>
 VINA RESULT:      -7.7      2.569      6.515
  Name = 
  18 active torsions:
  status: ('A' for Active; 'I' for Inactive)
    1  A    between atoms: N_3  and  C_12
    2  A    between atoms: C_4  and  C_20
    3  A    between atoms: C_4  and  C_24
    4  A    between atoms: C_6  and  C_8
    5  A    between atoms: C_7  and  C_40
    6  A    between atoms: C_7  and  C_48
    7  A    between atoms: C_8  and  C_46
    8  A    between atoms: O_11  and  N_26
    9  A    between atoms: O_11  and  C_46
   10  A    between atoms: C_13  and  O_43
   11  A    between atoms: C_16  and  C_37
   12  A    between atoms: C_17  and  C_50
   13  A    between atoms: N_19  and  C_24
   14  A    between atoms: C_22  and  C_40
   15  A    between atoms: C_28  and  C_33
   16  A    between atoms: C_34  and  C_45
   17  A    between atoms: C_39  and  C_40
   18  A    between atoms: O_43  and  C_45
                            x       y       z     vdW  Elec       q    Type
                         _______ _______ _______ _____ _____    ______ ____

>  <TORSDO>
F 18

$$$$
=
 OpenBabel10222420573D

 51 54  0  0  1  0  0  0  0  0999 V2000
  185.6220  178.1230  143.2970 C   0  0  0  0  0  0  0  0  0  0  0  0
  187.8220  177.6120  143.7490 C   0  0  0  0  0  3  0  0  0  0  0  0
  186.8750  177.7200  142.5960 C   0  0  2  0  0  3  0  0  0  0  0  0
  187.1930  177.9090  144.8820 C   0  0  0  0  0  0  0  0  0  0  0  0
  185.7990  178.2280  144.6050 C   0  0  0  0  0  3  0  0  0  0  0  0
  180.3930  179.1330  144.1160 O   0  0  0  0  0  0  0  0  0  0  0  0
  184.3770  178.3340  142.6180 N   0  0  0  0  0  2  0  0  0  0  0  0
  181.9660  178.8110  142.4080 N   0  0  0  0  0  2  0  0  0  0  0  0
  183.1120  178.5930  143.2390 C   0  0  0  0  0  0  0  0  0  0  0  0
  183.0070  178.6280  144.4950 O   0  0  0  0  0  0  0  0  0  0  0  0
  180.6420  179.0840  142.8810 C   0  0  0  0  0  0  0  0  0  0  0  0
  179.5510  179.3050  141.8850 C   0  0  0  0  0  3  0  0  0  0  0  0
  179.8810  180.4630  140.9580 C   0  0  0  0  0  2  0  0  0  0  0  0
  178.9600  178.6290  139.6580 C   0  0  0  0  0  2  0  0  0  0  0  0
  179.3550  178.0850  141.0090 C   0  0  0  0  0  2  0  0  0  0  0  0
  179.6610  179.9650  139.5400 C   0  0  0  0  0  2  0  0  0  0  0  0
  188.9390  177.8730  148.8120 C   0  0  0  0  0  3  0  0  0  0  0  0
  189.2330  177.8020  146.3970 C   0  0  0  0  0  0  0  0  0  0  0  0
  187.8290  177.8780  146.2250 C   0  0  0  0  0  0  0  0  0  0  0  0
  187.5580  177.9380  148.6460 C   0  0  0  0  0  3  0  0  0  0  0  0
  187.0090  177.9420  147.3640 C   0  0  0  0  0  3  0  0  0  0  0  0
  189.7710  177.8040  147.6950 C   0  0  0  0  0  3  0  0  0  0  0  0
  190.0780  177.7100  145.2820 O   0  0  0  0  0  0  0  0  0  0  0  0
  191.2400  176.8880  145.2410 C   0  0  0  0  0  2  0  0  0  0  0  0
  191.4370  177.6130  142.9020 C   0  0  0  0  0  3  0  0  0  0  0  0
  191.6850  176.6860  143.8280 C   0  0  0  0  0  3  0  0  0  0  0  0
  191.8800  177.4220  141.4890 C   0  0  0  0  0  2  0  0  0  0  0  0
  190.6910  177.1290  140.5930 C   0  0  0  0  0  1  0  0  0  0  0  0
  187.3210  178.8220  141.6470 C   0  0  0  0  0  2  0  0  0  0  0  0
  186.6920  178.6230  140.2810 C   0  0  0  0  0  2  0  0  0  0  0  0
  186.6500  178.7750  137.4570 O   0  0  0  0  0  0  0  0  0  0  0  0
  187.5640  178.0840  137.9830 C   0  0  0  0  0  0  0  0  0  0  0  0
  187.6370  177.9530  139.4040 N   0  0  0  0  0  2  0  0  0  0  0  0
  188.5560  177.4070  137.1330 C   0  0  0  0  0  0  0  0  0  0  0  0
  189.1870  178.0660  136.2620 O   0  0  0  0  0  0  0  0  0  0  0  0
  188.8130  175.9430  137.3070 C   0  0  0  0  0  2  0  0  0  0  0  0
  188.5060  175.2340  136.1410 O   0  0  0  0  0  0  0  0  0  0  0  0
  187.1550  175.2990  136.0410 N   0  0  0  0  0  2  0  0  0  0  0  0
  186.9340  173.0220  135.5840 O   0  0  0  0  0  0  0  0  0  0  0  0
  186.3730  174.1320  135.7840 C   0  0  0  0  0  0  0  0  0  0  0  0
  184.8810  174.2310  135.7410 C   0  0  0  0  0  2  0  0  0  0  0  0
  185.1230  173.3700  137.9660 O   0  0  0  0  0  1  0  0  0  0  0  0
  184.2180  174.0000  137.1080 C   0  0  1  0  0  0  0  0  0  0  0  0
  182.1380  176.6740  139.0050 C   0  0  0  0  0  2  0  0  0  0  0  0
  182.1250  177.6290  137.9440 O   0  0  0  0  0  0  0  0  0  0  0  0
  183.8060  175.3600  137.7120 C   0  0  2  0  0  3  0  0  0  0  0  0
  182.9840  177.5280  136.8410 C   0  0  0  0  0  3  0  0  0  0  0  0
  182.4720  175.2870  138.4630 C   0  0  0  0  0  2  0  0  0  0  0  0
  183.7740  176.4630  136.6830 C   0  0  0  0  0  3  0  0  0  0  0  0
  183.3650  171.7580  136.8080 O   0  0  0  0  0  1  0  0  0  0  0  0
  182.9900  173.0970  136.9410 C   0  0  0  0  0  2  0  0  0  0  0  0
  1  5  2  0  0  0  0
  2  4  2  0  0  0  0
  3 29  1  6  0  0  0
  3  1  1  0  0  0  0
  3  2  1  0  0  0  0
  4 19  1  0  0  0  0
  5  4  1  0  0  0  0
  7  9  1  0  0  0  0
  7  1  1  0  0  0  0
  8 11  1  0  0  0  0
  8  9  1  0  0  0  0
  9 10  2  0  0  0  0
 11  6  2  0  0  0  0
 12 11  1  0  0  0  0
 13 12  1  0  0  0  0
 14 15  1  0  0  0  0
 15 12  1  0  0  0  0
 16 14  1  0  0  0  0
 16 13  1  0  0  0  0
 18 22  1  0  0  0  0
 19 18  2  0  0  0  0
 19 21  1  0  0  0  0
 20 17  1  0  0  0  0
 21 20  2  0  0  0  0
 22 17  2  0  0  0  0
 23 18  1  0  0  0  0
 24 23  1  0  0  0  0
 25 26  2  0  0  0  0
 26 24  1  0  0  0  0
 27 25  1  0  0  0  0
 28 27  1  0  0  0  0
 30 29  1  0  0  0  0
 31 32  2  0  0  0  0
 32 33  1  0  0  0  0
 33 30  1  0  0  0  0
 34 36  1  0  0  0  0
 34 32  1  0  0  0  0
 35 34  2  0  0  0  0
 37 36  1  0  0  0  0
 38 37  1  0  0  0  0
 39 40  2  0  0  0  0
 40 38  1  0  0  0  0
 41 40  1  0  0  0  0
 41 43  1  0  0  0  0
 43 42  1  1  0  0  0
 45 44  1  0  0  0  0
 46 43  1  6  0  0  0
 46 48  1  0  0  0  0
 47 45  1  0  0  0  0
 48 44  1  0  0  0  0
 49 47  2  0  0  0  0
 49 46  1  0  0  0  0
 50 51  1  0  0  0  0
 51 43  1  0  0  0  0
M  END
>  <MODEL>
6

>  <REMARK>
 VINA RESULT:      -7.6      3.135      6.250
  Name = 
  18 active torsions:
  status: ('A' for Active; 'I' for Inactive)
    1  A    between atoms: N_3  and  C_12
    2  A    between atoms: C_4  and  C_20
    3  A    between atoms: C_4  and  C_24
    4  A    between atoms: C_6  and  C_8
    5  A    between atoms: C_7  and  C_40
    6  A    between atoms: C_7  and  C_48
    7  A    between atoms: C_8  and  C_46
    8  A    between atoms: O_11  and  N_26
    9  A    between atoms: O_11  and  C_46
   10  A    between atoms: C_13  and  O_43
   11  A    between atoms: C_16  and  C_37
   12  A    between atoms: C_17  and  C_50
   13  A    between atoms: N_19  and  C_24
   14  A    between atoms: C_22  and  C_40
   15  A    between atoms: C_28  and  C_33
   16  A    between atoms: C_34  and  C_45
   17  A    between atoms: C_39  and  C_40
   18  A    between atoms: O_43  and  C_45
                            x       y       z     vdW  Elec       q    Type
                         _______ _______ _______ _____ _____    ______ ____

>  <TORSDO>
F 18

$$$$
=
 OpenBabel10222420573D

 51 54  0  0  1  0  0  0  0  0999 V2000
  183.4150  175.3430  137.3450 C   0  0  0  0  0  0  0  0  0  0  0  0
  184.3570  174.8210  135.3090 C   0  0  0  0  0  3  0  0  0  0  0  0
  183.4930  175.8610  135.9490 C   0  0  2  0  0  3  0  0  0  0  0  0
  184.6940  173.8980  136.2040 C   0  0  0  0  0  0  0  0  0  0  0  0
  184.0970  174.2180  137.4940 C   0  0  0  0  0  3  0  0  0  0  0  0
  183.6950  179.1430  141.1550 O   0  0  0  0  0  0  0  0  0  0  0  0
  182.6580  175.9850  138.3790 N   0  0  0  0  0  2  0  0  0  0  0  0
  182.2240  177.5850  140.2050 N   0  0  0  0  0  2  0  0  0  0  0  0
  183.1240  177.0310  139.2390 C   0  0  0  0  0  0  0  0  0  0  0  0
  184.3070  177.4590  139.1500 O   0  0  0  0  0  0  0  0  0  0  0  0
  182.5420  178.6330  141.1270 C   0  0  0  0  0  0  0  0  0  0  0  0
  181.4850  179.1160  142.0660 C   0  0  0  0  0  3  0  0  0  0  0  0
  180.2000  178.3220  141.9000 C   0  0  0  0  0  2  0  0  0  0  0  0
  180.6530  178.6330  144.2670 C   0  0  0  0  0  2  0  0  0  0  0  0
  181.9190  178.9500  143.5080 C   0  0  0  0  0  2  0  0  0  0  0  0
  179.7750  177.8810  143.2900 C   0  0  0  0  0  2  0  0  0  0  0  0
  187.2010  170.5140  135.3310 C   0  0  0  0  0  3  0  0  0  0  0  0
  185.0030  171.5550  135.2630 C   0  0  0  0  0  0  0  0  0  0  0  0
  185.5280  172.7050  135.9020 C   0  0  0  0  0  0  0  0  0  0  0  0
  187.7190  171.6390  135.9680 C   0  0  0  0  0  3  0  0  0  0  0  0
  186.8890  172.7250  136.2500 C   0  0  0  0  0  3  0  0  0  0  0  0
  185.8520  170.4720  134.9820 C   0  0  0  0  0  3  0  0  0  0  0  0
  183.6430  171.4930  134.9270 O   0  0  0  0  0  0  0  0  0  0  0  0
  182.6680  170.8180  135.7150 C   0  0  0  0  0  2  0  0  0  0  0  0
  180.7550  171.6560  137.0090 C   0  0  0  0  0  3  0  0  0  0  0  0
  181.4450  171.6640  135.8680 C   0  0  0  0  0  3  0  0  0  0  0  0
  179.5340  172.5000  137.1720 C   0  0  0  0  0  2  0  0  0  0  0  0
  179.9030  173.8700  137.7120 C   0  0  0  0  0  1  0  0  0  0  0  0
  184.1910  177.2130  135.9310 C   0  0  0  0  0  2  0  0  0  0  0  0
  185.6440  177.0460  135.5300 C   0  0  0  0  0  2  0  0  0  0  0  0
  187.4510  175.8880  137.3720 O   0  0  0  0  0  0  0  0  0  0  0  0
  187.3910  177.1470  137.3400 C   0  0  0  0  0  0  0  0  0  0  0  0
  186.4900  177.7990  136.4430 N   0  0  0  0  0  2  0  0  0  0  0  0
  188.2450  177.9480  138.2300 C   0  0  0  0  0  0  0  0  0  0  0  0
  188.5440  179.1310  137.9120 O   0  0  0  0  0  0  0  0  0  0  0  0
  188.7540  177.3570  139.5070 C   0  0  0  0  0  2  0  0  0  0  0  0
  188.7350  178.2970  140.5420 O   0  0  0  0  0  0  0  0  0  0  0  0
  188.7000  177.5600  141.6800 N   0  0  0  0  0  2  0  0  0  0  0  0
  191.0240  177.4300  141.8390 O   0  0  0  0  0  0  0  0  0  0  0  0
  189.9010  177.1570  142.3400 C   0  0  0  0  0  0  0  0  0  0  0  0
  189.8230  176.3970  143.6250 C   0  0  0  0  0  2  0  0  0  0  0  0
  190.2070  178.6060  144.4760 O   0  0  0  0  0  1  0  0  0  0  0  0
  190.0890  177.2680  144.8630 C   0  0  1  0  0  0  0  0  0  0  0  0
  186.5670  177.7190  146.4340 C   0  0  0  0  0  2  0  0  0  0  0  0
  187.0320  178.1300  147.7190 O   0  0  0  0  0  0  0  0  0  0  0  0
  188.9100  177.1260  145.8500 C   0  0  2  0  0  3  0  0  0  0  0  0
  188.3660  177.9650  148.1160 C   0  0  0  0  0  3  0  0  0  0  0  0
  187.6670  177.8990  145.3920 C   0  0  0  0  0  2  0  0  0  0  0  0
  189.2860  177.5180  147.2580 C   0  0  0  0  0  3  0  0  0  0  0  0
  192.0450  175.8500  144.7780 O   0  0  0  0  0  1  0  0  0  0  0  0
  191.3980  176.8340  145.5310 C   0  0  0  0  0  2  0  0  0  0  0  0
  1  5  2  0  0  0  0
  1  7  1  0  0  0  0
  2  3  1  0  0  0  0
  2  4  2  0  0  0  0
  3 29  1  1  0  0  0
  3  1  1  0  0  0  0
  4  5  1  0  0  0  0
  7  9  1  0  0  0  0
  8 11  1  0  0  0  0
  9  8  1  0  0  0  0
 10  9  2  0  0  0  0
 11  6  2  0  0  0  0
 11 12  1  0  0  0  0
 12 15  1  0  0  0  0
 13 12  1  0  0  0  0
 13 16  1  0  0  0  0
 15 14  1  0  0  0  0
 16 14  1  0  0  0  0
 17 20  1  0  0  0  0
 18 19  2  0  0  0  0
 19  4  1  0  0  0  0
 19 21  1  0  0  0  0
 20 21  2  0  0  0  0
 22 18  1  0  0  0  0
 22 17  2  0  0  0  0
 23 18  1  0  0  0  0
 23 24  1  0  0  0  0
 24 26  1  0  0  0  0
 25 27  1  0  0  0  0
 26 25  2  0  0  0  0
 27 28  1  0  0  0  0
 30 29  1  0  0  0  0
 30 33  1  0  0  0  0
 32 31  2  0  0  0  0
 32 34  1  0  0  0  0
 33 32  1  0  0  0  0
 34 36  1  0  0  0  0
 35 34  2  0  0  0  0
 36 37  1  0  0  0  0
 37 38  1  0  0  0  0
 38 40  1  0  0  0  0
 39 40  2  0  0  0  0
 40 41  1  0  0  0  0
 41 43  1  0  0  0  0
 43 42  1  6  0  0  0
 43 51  1  0  0  0  0
 44 45  1  0  0  0  0
 45 47  1  0  0  0  0
 46 43  1  6  0  0  0
 46 49  1  0  0  0  0
 48 46  1  0  0  0  0
 48 44  1  0  0  0  0
 49 47  2  0  0  0  0
 50 51  1  0  0  0  0
M  END
>  <MODEL>
7

>  <REMARK>
 VINA RESULT:      -7.4      3.637      8.849
  Name = 
  18 active torsions:
  status: ('A' for Active; 'I' for Inactive)
    1  A    between atoms: N_3  and  C_12
    2  A    between atoms: C_4  and  C_20
    3  A    between atoms: C_4  and  C_24
    4  A    between atoms: C_6  and  C_8
    5  A    between atoms: C_7  and  C_40
    6  A    between atoms: C_7  and  C_48
    7  A    between atoms: C_8  and  C_46
    8  A    between atoms: O_11  and  N_26
    9  A    between atoms: O_11  and  C_46
   10  A    between atoms: C_13  and  O_43
   11  A    between atoms: C_16  and  C_37
   12  A    between atoms: C_17  and  C_50
   13  A    between atoms: N_19  and  C_24
   14  A    between atoms: C_22  and  C_40
   15  A    between atoms: C_28  and  C_33
   16  A    between atoms: C_34  and  C_45
   17  A    between atoms: C_39  and  C_40
   18  A    between atoms: O_43  and  C_45
                            x       y       z     vdW  Elec       q    Type
                         _______ _______ _______ _____ _____    ______ ____

>  <TORSDO>
F 18

$$$$
=
 OpenBabel10222420573D

 51 54  0  0  1  0  0  0  0  0999 V2000
  187.1700  178.4970  140.1670 C   0  0  0  0  0  0  0  0  0  0  0  0
  189.2030  177.4580  140.4690 C   0  0  0  0  0  3  0  0  0  0  0  0
  188.1940  177.7330  139.3990 C   0  0  2  0  0  3  0  0  0  0  0  0
  188.7980  177.9850  141.6200 C   0  0  0  0  0  0  0  0  0  0  0  0
  187.5100  178.6390  141.4390 C   0  0  0  0  0  3  0  0  0  0  0  0
  181.8050  178.3140  140.6320 O   0  0  0  0  0  0  0  0  0  0  0  0
  185.9530  178.9820  139.5840 N   0  0  0  0  0  2  0  0  0  0  0  0
  183.5150  179.2770  139.3510 N   0  0  0  0  0  2  0  0  0  0  0  0
  184.6260  178.6820  140.0330 C   0  0  0  0  0  0  0  0  0  0  0  0
  184.4360  177.9070  141.0090 O   0  0  0  0  0  0  0  0  0  0  0  0
  182.1370  179.0760  139.6840 C   0  0  0  0  0  0  0  0  0  0  0  0
  181.0910  179.7820  138.8860 C   0  0  0  0  0  3  0  0  0  0  0  0
  181.1300  181.2810  139.1350 C   0  0  0  0  0  2  0  0  0  0  0  0
  180.8560  180.8680  136.7570 C   0  0  0  0  0  2  0  0  0  0  0  0
  181.3070  179.5800  137.4010 C   0  0  0  0  0  2  0  0  0  0  0  0
  181.1480  181.9510  137.7720 C   0  0  0  0  0  2  0  0  0  0  0  0
  191.0690  177.6830  145.2600 C   0  0  0  0  0  3  0  0  0  0  0  0
  188.9990  177.2630  144.0510 C   0  0  0  0  0  0  0  0  0  0  0  0
  189.5490  177.8770  142.8990 C   0  0  0  0  0  0  0  0  0  0  0  0
  191.6090  178.2960  144.1320 C   0  0  0  0  0  3  0  0  0  0  0  0
  190.8550  178.3920  142.9620 C   0  0  0  0  0  3  0  0  0  0  0  0
  189.7730  177.1710  145.2200 C   0  0  0  0  0  3  0  0  0  0  0  0
  187.6890  176.7640  144.0280 O   0  0  0  0  0  0  0  0  0  0  0  0
  186.7270  177.0340  145.0430 C   0  0  0  0  0  2  0  0  0  0  0  0
  184.6610  178.2590  144.5290 C   0  0  0  0  0  3  0  0  0  0  0  0
  185.9790  178.2890  144.7290 C   0  0  0  0  0  3  0  0  0  0  0  0
  183.9030  179.5070  144.2190 C   0  0  0  0  0  2  0  0  0  0  0  0
  182.4790  179.1780  143.8080 C   0  0  0  0  0  1  0  0  0  0  0  0
  188.8000  178.6130  138.3160 C   0  0  0  0  0  2  0  0  0  0  0  0
  188.7800  177.8910  136.9830 C   0  0  0  0  0  2  0  0  0  0  0  0
  187.5730  176.0800  135.1760 O   0  0  0  0  0  0  0  0  0  0  0  0
  188.0410  175.6010  136.2440 C   0  0  0  0  0  0  0  0  0  0  0  0
  188.6530  176.4600  137.2070 N   0  0  0  0  0  2  0  0  0  0  0  0
  187.9540  174.1560  136.5010 C   0  0  0  0  0  0  0  0  0  0  0  0
  186.8680  173.6560  136.9060 O   0  0  0  0  0  0  0  0  0  0  0  0
  189.1520  173.2850  136.2820 C   0  0  0  0  0  2  0  0  0  0  0  0
  190.2040  174.0070  135.7120 O   0  0  0  0  0  0  0  0  0  0  0  0
  191.3180  173.5430  136.3290 N   0  0  0  0  0  2  0  0  0  0  0  0
  192.1730  175.6790  136.7140 O   0  0  0  0  0  0  0  0  0  0  0  0
  192.2980  174.4340  136.8620 C   0  0  0  0  0  0  0  0  0  0  0  0
  193.4840  173.8870  137.5900 C   0  0  0  0  0  2  0  0  0  0  0  0
  194.1360  172.9850  135.4660 O   0  0  0  0  0  1  0  0  0  0  0  0
  194.6460  173.5050  136.6590 C   0  0  1  0  0  0  0  0  0  0  0  0
  196.1900  176.4660  134.6810 C   0  0  0  0  0  2  0  0  0  0  0  0
  197.5480  176.1670  135.0050 O   0  0  0  0  0  0  0  0  0  0  0  0
  195.4860  174.7620  136.3480 C   0  0  2  0  0  3  0  0  0  0  0  0
  197.8880  175.2720  136.0290 C   0  0  0  0  0  3  0  0  0  0  0  0
  195.3110  175.2390  134.9010 C   0  0  0  0  0  2  0  0  0  0  0  0
  196.9480  174.5740  136.6700 C   0  0  0  0  0  3  0  0  0  0  0  0
  195.3810  172.4740  138.7190 O   0  0  0  0  0  1  0  0  0  0  0  0
  195.5150  172.4350  137.3280 C   0  0  0  0  0  2  0  0  0  0  0  0
  1  5  2  0  0  0  0
  2  4  2  0  0  0  0
  3 29  1  6  0  0  0
  3  1  1  0  0  0  0
  3  2  1  0  0  0  0
  4 19  1  0  0  0  0
  5  4  1  0  0  0  0
  7  9  1  0  0  0  0
  7  1  1  0  0  0  0
  8 11  1  0  0  0  0
  8  9  1  0  0  0  0
  9 10  2  0  0  0  0
 11  6  2  0  0  0  0
 12 13  1  0  0  0  0
 12 11  1  0  0  0  0
 14 15  1  0  0  0  0
 14 16  1  0  0  0  0
 15 12  1  0  0  0  0
 16 13  1  0  0  0  0
 18 22  2  0  0  0  0
 19 21  2  0  0  0  0
 19 18  1  0  0  0  0
 20 17  2  0  0  0  0
 21 20  1  0  0  0  0
 22 17  1  0  0  0  0
 23 18  1  0  0  0  0
 23 24  1  0  0  0  0
 25 26  2  0  0  0  0
 26 24  1  0  0  0  0
 27 25  1  0  0  0  0
 28 27  1  0  0  0  0
 30 33  1  0  0  0  0
 30 29  1  0  0  0  0
 31 32  2  0  0  0  0
 32 34  1  0  0  0  0
 32 33  1  0  0  0  0
 34 35  2  0  0  0  0
 36 34  1  0  0  0  0
 37 36  1  0  0  0  0
 37 38  1  0  0  0  0
 38 40  1  0  0  0  0
 39 40  2  0  0  0  0
 40 41  1  0  0  0  0
 43 42  1  6  0  0  0
 43 51  1  0  0  0  0
 43 41  1  0  0  0  0
 44 48  1  0  0  0  0
 44 45  1  0  0  0  0
 45 47  1  0  0  0  0
 46 43  1  6  0  0  0
 46 49  1  0  0  0  0
 47 49  2  0  0  0  0
 48 46  1  0  0  0  0
 51 50  1  0  0  0  0
M  END
>  <MODEL>
8

>  <REMARK>
 VINA RESULT:      -7.3      1.755      2.701
  Name = 
  18 active torsions:
  status: ('A' for Active; 'I' for Inactive)
    1  A    between atoms: N_3  and  C_12
    2  A    between atoms: C_4  and  C_20
    3  A    between atoms: C_4  and  C_24
    4  A    between atoms: C_6  and  C_8
    5  A    between atoms: C_7  and  C_40
    6  A    between atoms: C_7  and  C_48
    7  A    between atoms: C_8  and  C_46
    8  A    between atoms: O_11  and  N_26
    9  A    between atoms: O_11  and  C_46
   10  A    between atoms: C_13  and  O_43
   11  A    between atoms: C_16  and  C_37
   12  A    between atoms: C_17  and  C_50
   13  A    between atoms: N_19  and  C_24
   14  A    between atoms: C_22  and  C_40
   15  A    between atoms: C_28  and  C_33
   16  A    between atoms: C_34  and  C_45
   17  A    between atoms: C_39  and  C_40
   18  A    between atoms: O_43  and  C_45
                            x       y       z     vdW  Elec       q    Type
                         _______ _______ _______ _____ _____    ______ ____

>  <TORSDO>
F 18

$$$$
=
 OpenBabel10222420573D

 51 54  0  0  1  0  0  0  0  0999 V2000
  185.3230  178.5710  143.0330 C   0  0  0  0  0  0  0  0  0  0  0  0
  187.3100  177.4900  143.4650 C   0  0  0  0  0  3  0  0  0  0  0  0
  186.3880  177.8020  142.3290 C   0  0  2  0  0  3  0  0  0  0  0  0
  186.8300  178.0040  144.5930 C   0  0  0  0  0  0  0  0  0  0  0  0
  185.5690  178.6850  144.3280 C   0  0  0  0  0  3  0  0  0  0  0  0
  181.2840  177.2080  139.7360 O   0  0  0  0  0  0  0  0  0  0  0  0
  184.1600  179.0880  142.3710 N   0  0  0  0  0  2  0  0  0  0  0  0
  182.1430  179.0170  140.9540 N   0  0  0  0  0  2  0  0  0  0  0  0
  183.2810  178.3510  141.5140 C   0  0  0  0  0  0  0  0  0  0  0  0
  183.5010  177.1370  141.2550 O   0  0  0  0  0  0  0  0  0  0  0  0
  181.1760  178.4140  140.0870 C   0  0  0  0  0  0  0  0  0  0  0  0
  180.0310  179.2390  139.5970 C   0  0  0  0  0  3  0  0  0  0  0  0
  179.7840  180.4310  140.5070 C   0  0  0  0  0  2  0  0  0  0  0  0
  179.6380  181.1450  138.1900 C   0  0  0  0  0  2  0  0  0  0  0  0
  180.3100  179.7940  138.2160 C   0  0  0  0  0  2  0  0  0  0  0  0
  179.7040  181.6560  139.6130 C   0  0  0  0  0  2  0  0  0  0  0  0
  188.6430  177.6740  148.4780 C   0  0  0  0  0  3  0  0  0  0  0  0
  188.7930  177.3480  146.0710 C   0  0  0  0  0  0  0  0  0  0  0  0
  187.4810  177.8610  145.9210 C   0  0  0  0  0  0  0  0  0  0  0  0
  187.3500  178.1700  148.3350 C   0  0  0  0  0  3  0  0  0  0  0  0
  186.7750  178.2630  147.0670 C   0  0  0  0  0  3  0  0  0  0  0  0
  189.3590  177.2650  147.3540 C   0  0  0  0  0  3  0  0  0  0  0  0
  189.5130  176.9130  144.9500 O   0  0  0  0  0  0  0  0  0  0  0  0
  190.9280  176.7450  144.9410 C   0  0  0  0  0  2  0  0  0  0  0  0
  191.0430  177.5670  142.6290 C   0  0  0  0  0  3  0  0  0  0  0  0
  191.4340  176.6720  143.5360 C   0  0  0  0  0  3  0  0  0  0  0  0
  191.5460  177.5050  141.2240 C   0  0  0  0  0  2  0  0  0  0  0  0
  190.5610  176.7640  140.3390 C   0  0  0  0  0  1  0  0  0  0  0  0
  187.0870  178.6900  141.3100 C   0  0  0  0  0  2  0  0  0  0  0  0
  186.3610  178.6320  139.9790 C   0  0  0  0  0  2  0  0  0  0  0  0
  187.7490  178.9780  137.5400 O   0  0  0  0  0  0  0  0  0  0  0  0
  187.6060  177.7970  137.9570 C   0  0  0  0  0  0  0  0  0  0  0  0
  186.9030  177.5490  139.1760 N   0  0  0  0  0  2  0  0  0  0  0  0
  188.1590  176.6730  137.1890 C   0  0  0  0  0  0  0  0  0  0  0  0
  187.5800  175.5520  137.2140 O   0  0  0  0  0  0  0  0  0  0  0  0
  189.4050  176.8620  136.3800 C   0  0  0  0  0  2  0  0  0  0  0  0
  190.5140  177.0820  137.2030 O   0  0  0  0  0  0  0  0  0  0  0  0
  191.5670  176.5930  136.5040 N   0  0  0  0  0  2  0  0  0  0  0  0
  191.5590  174.5540  137.6380 O   0  0  0  0  0  0  0  0  0  0  0  0
  192.0610  175.2720  136.7330 C   0  0  0  0  0  0  0  0  0  0  0  0
  193.1850  174.7440  135.9010 C   0  0  0  0  0  2  0  0  0  0  0  0
  194.4480  175.9950  137.5120 O   0  0  0  0  0  1  0  0  0  0  0  0
  194.5530  175.3280  136.2870 C   0  0  1  0  0  0  0  0  0  0  0  0
  196.5110  172.3350  137.7980 C   0  0  0  0  0  2  0  0  0  0  0  0
  197.8090  172.8980  137.6050 O   0  0  0  0  0  0  0  0  0  0  0  0
  195.5790  174.1820  136.4190 C   0  0  2  0  0  3  0  0  0  0  0  0
  198.0240  174.0050  136.7730 C   0  0  0  0  0  3  0  0  0  0  0  0
  195.4490  173.4300  137.7480 C   0  0  0  0  0  2  0  0  0  0  0  0
  196.9990  174.6520  136.2150 C   0  0  0  0  0  3  0  0  0  0  0  0
  195.0360  177.6310  135.7330 O   0  0  0  0  0  1  0  0  0  0  0  0
  195.0080  176.3310  135.2210 C   0  0  0  0  0  2  0  0  0  0  0  0
  1  5  2  0  0  0  0
  2  4  2  0  0  0  0
  3 29  1  6  0  0  0
  3  1  1  0  0  0  0
  3  2  1  0  0  0  0
  4 19  1  0  0  0  0
  5  4  1  0  0  0  0
  6 11  2  0  0  0  0
  7  1  1  0  0  0  0
  8  9  1  0  0  0  0
  9  7  1  0  0  0  0
 10  9  2  0  0  0  0
 11  8  1  0  0  0  0
 12 11  1  0  0  0  0
 12 13  1  0  0  0  0
 14 15  1  0  0  0  0
 14 16  1  0  0  0  0
 15 12  1  0  0  0  0
 16 13  1  0  0  0  0
 18 22  1  0  0  0  0
 19 18  2  0  0  0  0
 19 21  1  0  0  0  0
 20 17  1  0  0  0  0
 21 20  2  0  0  0  0
 22 17  2  0  0  0  0
 23 18  1  0  0  0  0
 24 23  1  0  0  0  0
 25 26  2  0  0  0  0
 26 24  1  0  0  0  0
 27 25  1  0  0  0  0
 28 27  1  0  0  0  0
 30 29  1  0  0  0  0
 31 32  2  0  0  0  0
 32 33  1  0  0  0  0
 33 30  1  0  0  0  0
 34 35  2  0  0  0  0
 34 32  1  0  0  0  0
 36 34  1  0  0  0  0
 36 37  1  0  0  0  0
 38 40  1  0  0  0  0
 38 37  1  0  0  0  0
 40 39  2  0  0  0  0
 41 43  1  0  0  0  0
 41 40  1  0  0  0  0
 43 42  1  1  0  0  0
 45 44  1  0  0  0  0
 46 43  1  1  0  0  0
 46 48  1  0  0  0  0
 47 45  1  0  0  0  0
 48 44  1  0  0  0  0
 49 46  1  0  0  0  0
 49 47  2  0  0  0  0
 51 50  1  0  0  0  0
 51 43  1  0  0  0  0
M  END
>  <MODEL>
9

>  <REMARK>
 VINA RESULT:      -7.2      1.881      3.614
  Name = 
  18 active torsions:
  status: ('A' for Active; 'I' for Inactive)
    1  A    between atoms: N_3  and  C_12
    2  A    between atoms: C_4  and  C_20
    3  A    between atoms: C_4  and  C_24
    4  A    between atoms: C_6  and  C_8
    5  A    between atoms: C_7  and  C_40
    6  A    between atoms: C_7  and  C_48
    7  A    between atoms: C_8  and  C_46
    8  A    between atoms: O_11  and  N_26
    9  A    between atoms: O_11  and  C_46
   10  A    between atoms: C_13  and  O_43
   11  A    between atoms: C_16  and  C_37
   12  A    between atoms: C_17  and  C_50
   13  A    between atoms: N_19  and  C_24
   14  A    between atoms: C_22  and  C_40
   15  A    between atoms: C_28  and  C_33
   16  A    between atoms: C_34  and  C_45
   17  A    between atoms: C_39  and  C_40
   18  A    between atoms: O_43  and  C_45
                            x       y       z     vdW  Elec       q    Type
                         _______ _______ _______ _____ _____    ______ ____

>  <TORSDO>
F 18

$$$$
