=
 OpenBabel10222419183D

 35 36  0  0  1  0  0  0  0  0999 V2000
  189.3440  177.8230  144.5730 C   0  0  1  0  0  3  0  0  0  0  0  0
  188.1340  176.0580  143.5080 O   0  0  0  0  0  0  0  0  0  0  0  0
  188.3870  177.2960  143.5370 C   0  0  0  0  0  0  0  0  0  0  0  0
  187.8230  178.1480  142.5850 O   0  0  0  0  0  0  0  0  0  0  0  0
  188.1000  177.9860  141.2020 C   0  0  0  0  0  2  0  0  0  0  0  0
  191.7350  175.9690  137.7370 C   0  0  0  0  0  3  0  0  0  0  0  0
  188.7110  179.0360  138.3790 N   0  0  0  0  0  1  0  0  0  0  0  0
  191.6190  177.2280  139.8320 C   0  0  0  0  0  0  0  0  0  0  0  0
  189.5340  177.6150  140.9900 C   0  0  0  0  0  3  0  0  0  0  0  0
  189.4620  177.8330  138.5400 C   0  0  0  0  0  0  0  0  0  0  0  0
  192.2870  176.6460  138.6990 N   0  0  0  0  0  0  0  0  0  0  0  0
  189.4980  176.9350  137.5460 C   0  0  0  0  0  0  0  0  0  0  0  0
  190.2750  175.6690  137.6920 C   0  0  0  0  0  2  0  0  0  0  0  0
  192.2920  177.4480  140.8730 O   0  0  0  0  0  0  0  0  0  0  0  0
  190.1790  177.5980  139.8190 C   0  0  0  0  0  0  0  0  0  0  0  0
  188.8120  177.1870  136.2450 C   0  0  0  0  0  1  0  0  0  0  0  0
  189.1450  176.7800  146.8510 C   0  0  0  0  0  1  0  0  0  0  0  0
  188.6800  177.9190  145.9570 C   0  0  2  0  0  3  0  0  0  0  0  0
  187.2340  177.8350  145.8350 N   0  0  0  0  0  2  0  0  0  0  0  0
  186.7690  178.8200  147.9020 O   0  0  0  0  0  0  0  0  0  0  0  0
  186.3400  178.4070  146.7920 C   0  0  0  0  0  0  0  0  0  0  0  0
  184.8920  178.5200  146.4600 C   0  0  0  0  0  2  0  0  0  0  0  0
  184.7270  178.8520  144.9870 C   0  0  0  0  0  2  0  0  0  0  0  0
  183.2540  178.9500  144.6200 C   0  0  0  0  0  2  0  0  0  0  0  0
  184.0460  178.1330  141.0120 C   0  0  0  0  0  3  0  0  0  0  0  0
  182.7920  178.2540  140.4080 C   0  0  0  0  0  3  0  0  0  0  0  0
  181.8130  178.8830  142.5370 C   0  0  0  0  0  0  0  0  0  0  0  0
  183.0760  178.7480  143.1510 C   0  0  0  0  0  0  0  0  0  0  0  0
  184.1830  178.3770  142.3790 C   0  0  0  0  0  3  0  0  0  0  0  0
  181.6780  178.6270  141.1680 C   0  0  0  0  0  3  0  0  0  0  0  0
  180.5950  179.2560  143.3160 C   0  0  0  0  0  2  0  0  0  0  0  0
  180.1170  180.5620  142.8880 N   0  0  0  0  0  1  0  0  0  0  0  0
  190.6010  176.9610  144.6110 C   0  0  0  0  0  2  0  0  0  0  0  0
  191.6680  178.7890  144.0000 C   0  0  0  0  0  1  0  0  0  0  0  0
  191.7020  177.7530  144.9350 O   0  0  0  0  0  0  0  0  0  0  0  0
  1 33  1  1  0  0  0
  1 18  1  0  0  0  0
  2  3  2  0  0  0  0
  3  1  1  0  0  0  0
  4  3  1  0  0  0  0
  5  4  1  0  0  0  0
  6 11  2  0  0  0  0
  7 10  1  0  0  0  0
  8 14  2  0  0  0  0
  9  5  1  0  0  0  0
 10 15  1  0  0  0  0
 11  8  1  0  0  0  0
 12 13  1  0  0  0  0
 12 10  2  0  0  0  0
 13  6  1  0  0  0  0
 15  8  1  0  0  0  0
 15  9  2  0  0  0  0
 16 12  1  0  0  0  0
 18 17  1  1  0  0  0
 19 18  1  0  0  0  0
 19 21  1  0  0  0  0
 21 20  2  0  0  0  0
 22 21  1  0  0  0  0
 23 22  1  0  0  0  0
 24 23  1  0  0  0  0
 25 29  1  0  0  0  0
 26 25  2  0  0  0  0
 26 30  1  0  0  0  0
 27 28  1  0  0  0  0
 27 31  1  0  0  0  0
 28 24  1  0  0  0  0
 29 28  2  0  0  0  0
 30 27  2  0  0  0  0
 32 31  1  0  0  0  0
 33 35  1  0  0  0  0
 34 35  1  0  0  0  0
M  END
>  <MODEL>
1

>  <REMARK>
 VINA RESULT:      -8.3      0.000      0.000
  Name = 
  13 active torsions:
  status: ('A' for Active; 'I' for Inactive)
    1  A    between atoms: O_4  and  C_8
    2  A    between atoms: O_4  and  C_24
    3  A    between atoms: C_5  and  C_11
    4  A    between atoms: N_7  and  C_34
    5  A    between atoms: C_8  and  C_30
    6  A    between atoms: C_14  and  C_24
    7  A    between atoms: C_16  and  C_22
    8  A    between atoms: C_17  and  C_18
    9  A    between atoms: C_17  and  C_19
   10  A    between atoms: C_18  and  C_22
   11  A    between atoms: O_28  and  C_35
   12  A    between atoms: C_30  and  C_34
   13  A    between atoms: C_30  and  C_35
                            x       y       z     vdW  Elec       q    Type
                         _______ _______ _______ _____ _____    ______ ____

>  <TORSDO>
F 13

$$$$
=
 OpenBabel10222419183D

 35 36  0  0  1  0  0  0  0  0999 V2000
  188.9620  177.8510  144.6640 C   0  0  1  0  0  3  0  0  0  0  0  0
  187.8890  176.1130  143.4220 O   0  0  0  0  0  0  0  0  0  0  0  0
  188.1650  177.3440  143.4910 C   0  0  0  0  0  0  0  0  0  0  0  0
  187.7800  178.2070  142.4620 O   0  0  0  0  0  0  0  0  0  0  0  0
  188.0740  177.9070  141.1060 C   0  0  0  0  0  2  0  0  0  0  0  0
  191.8870  176.0800  137.7270 C   0  0  0  0  0  3  0  0  0  0  0  0
  188.7940  179.0800  138.3580 N   0  0  0  0  0  1  0  0  0  0  0  0
  191.6600  177.2500  139.8650 C   0  0  0  0  0  0  0  0  0  0  0  0
  189.5220  177.5630  140.9440 C   0  0  0  0  0  3  0  0  0  0  0  0
  189.5550  177.8800  138.5030 C   0  0  0  0  0  0  0  0  0  0  0  0
  192.3860  176.7230  138.7390 N   0  0  0  0  0  0  0  0  0  0  0  0
  189.6470  177.0250  137.4770 C   0  0  0  0  0  0  0  0  0  0  0  0
  190.4350  175.7640  137.6050 C   0  0  0  0  0  2  0  0  0  0  0  0
  192.2840  177.4350  140.9430 O   0  0  0  0  0  0  0  0  0  0  0  0
  190.2170  177.6020  139.8030 C   0  0  0  0  0  0  0  0  0  0  0  0
  189.0160  177.3220  136.1570 C   0  0  0  0  0  1  0  0  0  0  0  0
  188.3670  177.0420  146.9680 C   0  0  0  0  0  1  0  0  0  0  0  0
  188.0690  178.0790  145.8950 C   0  0  2  0  0  3  0  0  0  0  0  0
  186.6660  177.9640  145.5340 N   0  0  0  0  0  2  0  0  0  0  0  0
  185.8820  179.4220  147.1850 O   0  0  0  0  0  0  0  0  0  0  0  0
  185.6400  178.7500  146.1470 C   0  0  0  0  0  0  0  0  0  0  0  0
  184.2810  178.7760  145.5390 C   0  0  0  0  0  2  0  0  0  0  0  0
  184.3350  179.4680  144.1880 C   0  0  0  0  0  2  0  0  0  0  0  0
  184.2300  178.4530  143.0600 C   0  0  0  0  0  2  0  0  0  0  0  0
  180.6350  179.2440  142.1890 C   0  0  0  0  0  3  0  0  0  0  0  0
  180.6820  179.2980  140.7930 C   0  0  0  0  0  3  0  0  0  0  0  0
  183.0450  178.7510  140.8390 C   0  0  0  0  0  0  0  0  0  0  0  0
  183.0020  178.7100  142.2490 C   0  0  0  0  0  0  0  0  0  0  0  0
  181.7930  178.9550  142.9110 C   0  0  0  0  0  3  0  0  0  0  0  0
  181.8830  179.0530  140.1200 C   0  0  0  0  0  3  0  0  0  0  0  0
  184.3120  178.5180  140.0840 C   0  0  0  0  0  2  0  0  0  0  0  0
  184.7060  179.7370  139.3950 N   0  0  0  0  0  1  0  0  0  0  0  0
  190.1090  176.8940  144.9700 C   0  0  0  0  0  2  0  0  0  0  0  0
  191.5890  178.3650  144.2610 C   0  0  0  0  0  1  0  0  0  0  0  0
  191.1260  177.0680  144.0320 O   0  0  0  0  0  0  0  0  0  0  0  0
  1 33  1  1  0  0  0
  1 18  1  0  0  0  0
  2  3  2  0  0  0  0
  3  1  1  0  0  0  0
  4  3  1  0  0  0  0
  5  4  1  0  0  0  0
  6 11  2  0  0  0  0
  7 10  1  0  0  0  0
  8 14  2  0  0  0  0
  9  5  1  0  0  0  0
 10 15  1  0  0  0  0
 11  8  1  0  0  0  0
 12 13  1  0  0  0  0
 12 10  2  0  0  0  0
 13  6  1  0  0  0  0
 15  8  1  0  0  0  0
 15  9  2  0  0  0  0
 16 12  1  0  0  0  0
 18 17  1  1  0  0  0
 19 18  1  0  0  0  0
 19 21  1  0  0  0  0
 21 20  2  0  0  0  0
 22 21  1  0  0  0  0
 23 22  1  0  0  0  0
 24 23  1  0  0  0  0
 25 29  1  0  0  0  0
 26 25  2  0  0  0  0
 27 28  1  0  0  0  0
 28 29  2  0  0  0  0
 28 24  1  0  0  0  0
 30 26  1  0  0  0  0
 30 27  2  0  0  0  0
 31 27  1  0  0  0  0
 32 31  1  0  0  0  0
 35 34  1  0  0  0  0
 35 33  1  0  0  0  0
M  END
>  <MODEL>
2

>  <REMARK>
 VINA RESULT:      -8.3      1.188      1.730
  Name = 
  13 active torsions:
  status: ('A' for Active; 'I' for Inactive)
    1  A    between atoms: O_4  and  C_8
    2  A    between atoms: O_4  and  C_24
    3  A    between atoms: C_5  and  C_11
    4  A    between atoms: N_7  and  C_34
    5  A    between atoms: C_8  and  C_30
    6  A    between atoms: C_14  and  C_24
    7  A    between atoms: C_16  and  C_22
    8  A    between atoms: C_17  and  C_18
    9  A    between atoms: C_17  and  C_19
   10  A    between atoms: C_18  and  C_22
   11  A    between atoms: O_28  and  C_35
   12  A    between atoms: C_30  and  C_34
   13  A    between atoms: C_30  and  C_35
                            x       y       z     vdW  Elec       q    Type
                         _______ _______ _______ _____ _____    ______ ____

>  <TORSDO>
F 13

$$$$
=
 OpenBabel10222419183D

 35 36  0  0  1  0  0  0  0  0999 V2000
  188.5490  177.1610  138.0540 C   0  0  1  0  0  3  0  0  0  0  0  0
  189.0640  179.2750  139.0440 O   0  0  0  0  0  0  0  0  0  0  0  0
  188.5520  178.1310  139.2060 C   0  0  0  0  0  0  0  0  0  0  0  0
  188.0460  177.7610  140.4540 O   0  0  0  0  0  0  0  0  0  0  0  0
  188.3890  178.4840  141.6270 C   0  0  0  0  0  2  0  0  0  0  0  0
  191.0210  177.0520  146.1340 C   0  0  0  0  0  3  0  0  0  0  0  0
  187.4920  176.3740  143.6740 N   0  0  0  0  0  1  0  0  0  0  0  0
  191.1830  176.8330  143.7010 C   0  0  0  0  0  0  0  0  0  0  0  0
  189.6750  177.9790  142.2010 C   0  0  0  0  0  3  0  0  0  0  0  0
  188.6540  177.0020  144.2150 C   0  0  0  0  0  0  0  0  0  0  0  0
  191.5710  176.5670  145.0610 N   0  0  0  0  0  0  0  0  0  0  0  0
  188.6780  177.3530  145.5080 C   0  0  0  0  0  0  0  0  0  0  0  0
  189.8810  178.0120  146.0960 C   0  0  0  0  0  2  0  0  0  0  0  0
  192.0420  176.6760  142.7940 O   0  0  0  0  0  0  0  0  0  0  0  0
  189.8110  177.2650  143.3230 C   0  0  0  0  0  0  0  0  0  0  0  0
  187.5320  177.0540  146.4160 C   0  0  0  0  0  1  0  0  0  0  0  0
  187.7410  177.7600  135.7500 C   0  0  0  0  0  1  0  0  0  0  0  0
  187.3170  177.3580  137.1540 C   0  0  2  0  0  3  0  0  0  0  0  0
  186.4620  178.4080  137.6840 N   0  0  0  0  0  2  0  0  0  0  0  0
  184.5150  177.1170  137.7370 O   0  0  0  0  0  0  0  0  0  0  0  0
  185.1000  178.1850  138.0590 C   0  0  0  0  0  0  0  0  0  0  0  0
  184.3800  179.2260  138.8430 C   0  0  0  0  0  2  0  0  0  0  0  0
  184.6740  179.0500  140.3220 C   0  0  0  0  0  2  0  0  0  0  0  0
  183.4600  178.4940  141.0490 C   0  0  0  0  0  2  0  0  0  0  0  0
  185.1380  178.8110  144.4250 C   0  0  0  0  0  3  0  0  0  0  0  0
  184.0430  178.9880  145.2750 C   0  0  0  0  0  3  0  0  0  0  0  0
  182.5310  178.7970  143.3880 C   0  0  0  0  0  0  0  0  0  0  0  0
  183.6360  178.6320  142.5260 C   0  0  0  0  0  0  0  0  0  0  0  0
  184.9320  178.6370  143.0560 C   0  0  0  0  0  3  0  0  0  0  0  0
  182.7430  178.9820  144.7590 C   0  0  0  0  0  3  0  0  0  0  0  0
  181.1290  178.8200  142.8740 C   0  0  0  0  0  2  0  0  0  0  0  0
  180.6220  180.1830  142.8830 N   0  0  0  0  0  1  0  0  0  0  0  0
  189.8470  177.2830  137.2640 C   0  0  0  0  0  2  0  0  0  0  0  0
  190.8290  175.3660  137.7340 C   0  0  0  0  0  1  0  0  0  0  0  0
  190.8970  176.7350  138.0010 O   0  0  0  0  0  0  0  0  0  0  0  0
  1 33  1  6  0  0  0
  1  3  1  0  0  0  0
  2  3  2  0  0  0  0
  3  4  1  0  0  0  0
  4  5  1  0  0  0  0
  5  9  1  0  0  0  0
  7 10  1  0  0  0  0
  8 11  1  0  0  0  0
  9 15  2  0  0  0  0
 10 12  2  0  0  0  0
 11  6  2  0  0  0  0
 12 13  1  0  0  0  0
 12 16  1  0  0  0  0
 13  6  1  0  0  0  0
 14  8  2  0  0  0  0
 15  8  1  0  0  0  0
 15 10  1  0  0  0  0
 18 17  1  6  0  0  0
 18 19  1  0  0  0  0
 18  1  1  0  0  0  0
 19 21  1  0  0  0  0
 20 21  2  0  0  0  0
 21 22  1  0  0  0  0
 22 23  1  0  0  0  0
 23 24  1  0  0  0  0
 24 28  1  0  0  0  0
 25 26  1  0  0  0  0
 27 30  1  0  0  0  0
 28 29  1  0  0  0  0
 28 27  2  0  0  0  0
 29 25  2  0  0  0  0
 30 26  2  0  0  0  0
 31 32  1  0  0  0  0
 31 27  1  0  0  0  0
 33 35  1  0  0  0  0
 34 35  1  0  0  0  0
M  END
>  <MODEL>
3

>  <REMARK>
 VINA RESULT:      -8.1      2.260      6.168
  Name = 
  13 active torsions:
  status: ('A' for Active; 'I' for Inactive)
    1  A    between atoms: O_4  and  C_8
    2  A    between atoms: O_4  and  C_24
    3  A    between atoms: C_5  and  C_11
    4  A    between atoms: N_7  and  C_34
    5  A    between atoms: C_8  and  C_30
    6  A    between atoms: C_14  and  C_24
    7  A    between atoms: C_16  and  C_22
    8  A    between atoms: C_17  and  C_18
    9  A    between atoms: C_17  and  C_19
   10  A    between atoms: C_18  and  C_22
   11  A    between atoms: O_28  and  C_35
   12  A    between atoms: C_30  and  C_34
   13  A    between atoms: C_30  and  C_35
                            x       y       z     vdW  Elec       q    Type
                         _______ _______ _______ _____ _____    ______ ____

>  <TORSDO>
F 13

$$$$
=
 OpenBabel10222419183D

 35 36  0  0  1  0  0  0  0  0999 V2000
  183.5630  178.0640  140.0310 C   0  0  1  0  0  3  0  0  0  0  0  0
  184.0460  180.2480  139.1880 O   0  0  0  0  0  0  0  0  0  0  0  0
  184.5080  179.1860  139.6940 C   0  0  0  0  0  0  0  0  0  0  0  0
  185.8850  179.0440  139.8830 O   0  0  0  0  0  0  0  0  0  0  0  0
  186.6740  178.2830  138.9800 C   0  0  0  0  0  2  0  0  0  0  0  0
  191.5240  176.0040  138.2260 C   0  0  0  0  0  3  0  0  0  0  0  0
  188.8220  179.1810  136.9740 N   0  0  0  0  0  1  0  0  0  0  0  0
  190.3090  177.3640  139.8580 C   0  0  0  0  0  0  0  0  0  0  0  0
  187.9570  177.8630  139.6250 C   0  0  0  0  0  3  0  0  0  0  0  0
  189.2900  177.9660  137.5600 C   0  0  0  0  0  0  0  0  0  0  0  0
  191.4700  176.7100  139.3150 N   0  0  0  0  0  0  0  0  0  0  0  0
  189.8360  177.0220  136.7810 C   0  0  0  0  0  0  0  0  0  0  0  0
  190.3310  175.7430  137.3700 C   0  0  0  0  0  2  0  0  0  0  0  0
  190.2880  177.6140  141.0930 O   0  0  0  0  0  0  0  0  0  0  0  0
  189.1480  177.7720  139.0250 C   0  0  0  0  0  0  0  0  0  0  0  0
  190.0170  177.2320  135.3150 C   0  0  0  0  0  1  0  0  0  0  0  0
  181.5690  179.1340  141.1270 C   0  0  0  0  0  1  0  0  0  0  0  0
  182.8340  178.3230  141.3620 C   0  0  2  0  0  3  0  0  0  0  0  0
  183.6870  179.0690  142.2720 N   0  0  0  0  0  2  0  0  0  0  0  0
  182.5380  178.4620  144.2150 O   0  0  0  0  0  0  0  0  0  0  0  0
  183.5510  179.0020  143.6940 C   0  0  0  0  0  0  0  0  0  0  0  0
  184.6240  179.5690  144.5570 C   0  0  0  0  0  2  0  0  0  0  0  0
  185.0230  178.5550  145.6150 C   0  0  0  0  0  2  0  0  0  0  0  0
  186.2070  177.7250  145.1430 C   0  0  0  0  0  2  0  0  0  0  0  0
  188.0180  178.2200  148.4280 C   0  0  0  0  0  3  0  0  0  0  0  0
  189.3240  177.8500  148.0950 C   0  0  0  0  0  3  0  0  0  0  0  0
  188.6360  177.4360  145.8060 C   0  0  0  0  0  0  0  0  0  0  0  0
  187.3140  177.7950  146.1440 C   0  0  0  0  0  0  0  0  0  0  0  0
  187.0190  178.1870  147.4550 C   0  0  0  0  0  3  0  0  0  0  0  0
  189.6330  177.4590  146.7880 C   0  0  0  0  0  3  0  0  0  0  0  0
  189.0030  176.9900  144.4280 C   0  0  0  0  0  2  0  0  0  0  0  0
  190.3980  176.5790  144.3980 N   0  0  0  0  0  1  0  0  0  0  0  0
  182.5810  177.8440  138.8870 C   0  0  0  0  0  2  0  0  0  0  0  0
  183.0820  176.0290  137.7420 C   0  0  0  0  0  1  0  0  0  0  0  0
  183.2720  177.4120  137.7550 O   0  0  0  0  0  0  0  0  0  0  0  0
  1 33  1  6  0  0  0
  1 18  1  0  0  0  0
  2  3  2  0  0  0  0
  3  4  1  0  0  0  0
  3  1  1  0  0  0  0
  5  9  1  0  0  0  0
  5  4  1  0  0  0  0
  6 11  2  0  0  0  0
  7 10  1  0  0  0  0
  8 14  2  0  0  0  0
 10 15  1  0  0  0  0
 11  8  1  0  0  0  0
 12 13  1  0  0  0  0
 12 10  2  0  0  0  0
 13  6  1  0  0  0  0
 15  9  2  0  0  0  0
 15  8  1  0  0  0  0
 16 12  1  0  0  0  0
 18 17  1  6  0  0  0
 18 19  1  0  0  0  0
 19 21  1  0  0  0  0
 21 20  2  0  0  0  0
 21 22  1  0  0  0  0
 22 23  1  0  0  0  0
 24 23  1  0  0  0  0
 24 28  1  0  0  0  0
 26 25  1  0  0  0  0
 27 28  2  0  0  0  0
 27 30  1  0  0  0  0
 28 29  1  0  0  0  0
 29 25  2  0  0  0  0
 30 26  2  0  0  0  0
 31 27  1  0  0  0  0
 32 31  1  0  0  0  0
 34 35  1  0  0  0  0
 35 33  1  0  0  0  0
M  END
>  <MODEL>
4

>  <REMARK>
 VINA RESULT:      -7.9      2.423      6.220
  Name = 
  13 active torsions:
  status: ('A' for Active; 'I' for Inactive)
    1  A    between atoms: O_4  and  C_8
    2  A    between atoms: O_4  and  C_24
    3  A    between atoms: C_5  and  C_11
    4  A    between atoms: N_7  and  C_34
    5  A    between atoms: C_8  and  C_30
    6  A    between atoms: C_14  and  C_24
    7  A    between atoms: C_16  and  C_22
    8  A    between atoms: C_17  and  C_18
    9  A    between atoms: C_17  and  C_19
   10  A    between atoms: C_18  and  C_22
   11  A    between atoms: O_28  and  C_35
   12  A    between atoms: C_30  and  C_34
   13  A    between atoms: C_30  and  C_35
                            x       y       z     vdW  Elec       q    Type
                         _______ _______ _______ _____ _____    ______ ____

>  <TORSDO>
F 13

$$$$
=
 OpenBabel10222419183D

 35 36  0  0  1  0  0  0  0  0999 V2000
  187.1630  177.5030  137.3780 C   0  0  1  0  0  3  0  0  0  0  0  0
  184.7960  177.2170  137.5360 O   0  0  0  0  0  0  0  0  0  0  0  0
  185.8090  177.8590  137.9320 C   0  0  0  0  0  0  0  0  0  0  0  0
  185.6600  178.9180  138.8310 O   0  0  0  0  0  0  0  0  0  0  0  0
  184.3850  179.2610  139.3530 C   0  0  0  0  0  2  0  0  0  0  0  0
  181.3930  178.8580  143.8450 C   0  0  0  0  0  3  0  0  0  0  0  0
  182.4060  177.0100  140.0340 N   0  0  0  0  0  1  0  0  0  0  0  0
  183.7160  178.6610  143.0980 C   0  0  0  0  0  0  0  0  0  0  0  0
  184.3990  179.2190  140.8490 C   0  0  0  0  0  3  0  0  0  0  0  0
  182.2740  177.9960  141.0580 C   0  0  0  0  0  0  0  0  0  0  0  0
  182.6420  178.5620  144.0510 N   0  0  0  0  0  0  0  0  0  0  0  0
  181.0540  178.3580  141.4770 C   0  0  0  0  0  0  0  0  0  0  0  0
  180.8900  179.3870  142.5450 C   0  0  0  0  0  2  0  0  0  0  0  0
  184.8910  178.7800  143.5350 O   0  0  0  0  0  0  0  0  0  0  0  0
  183.5000  178.6100  141.6290 C   0  0  0  0  0  0  0  0  0  0  0  0
  179.8220  177.7140  140.9340 C   0  0  0  0  0  1  0  0  0  0  0  0
  189.3630  178.6800  137.0710 C   0  0  0  0  0  1  0  0  0  0  0  0
  188.2830  178.2990  138.0710 C   0  0  2  0  0  3  0  0  0  0  0  0
  188.9000  177.5020  139.1190 N   0  0  0  0  0  2  0  0  0  0  0  0
  188.1750  178.8460  140.8890 O   0  0  0  0  0  0  0  0  0  0  0  0
  188.7100  177.7700  140.5110 C   0  0  0  0  0  0  0  0  0  0  0  0
  189.1420  176.7570  141.5140 C   0  0  0  0  0  2  0  0  0  0  0  0
  188.5980  177.1240  142.8830 C   0  0  0  0  0  2  0  0  0  0  0  0
  189.6370  176.8610  143.9620 C   0  0  0  0  0  2  0  0  0  0  0  0
  187.1630  177.8150  146.6610 C   0  0  0  0  0  3  0  0  0  0  0  0
  187.9610  177.7820  147.8070 C   0  0  0  0  0  3  0  0  0  0  0  0
  189.8920  177.1940  146.4620 C   0  0  0  0  0  0  0  0  0  0  0  0
  189.0850  177.2120  145.3050 C   0  0  0  0  0  0  0  0  0  0  0  0
  187.7250  177.5260  145.4160 C   0  0  0  0  0  3  0  0  0  0  0  0
  189.3210  177.4720  147.7090 C   0  0  0  0  0  3  0  0  0  0  0  0
  191.3430  176.8450  146.4030 C   0  0  0  0  0  2  0  0  0  0  0  0
  191.6480  175.8360  147.4050 N   0  0  0  0  0  1  0  0  0  0  0  0
  187.3940  176.0000  137.4840 C   0  0  0  0  0  2  0  0  0  0  0  0
  188.2410  175.5590  135.4970 C   0  0  0  0  0  1  0  0  0  0  0  0
  187.0880  175.3930  136.2660 O   0  0  0  0  0  0  0  0  0  0  0  0
  1 33  1  1  0  0  0
  1  3  1  0  0  0  0
  1 18  1  0  0  0  0
  2  3  2  0  0  0  0
  3  4  1  0  0  0  0
  4  5  1  0  0  0  0
  5  9  1  0  0  0  0
  6 11  2  0  0  0  0
  7 10  1  0  0  0  0
  8 14  2  0  0  0  0
  8 11  1  0  0  0  0
  9 15  2  0  0  0  0
 10 12  2  0  0  0  0
 10 15  1  0  0  0  0
 12 13  1  0  0  0  0
 13  6  1  0  0  0  0
 15  8  1  0  0  0  0
 16 12  1  0  0  0  0
 18 17  1  6  0  0  0
 18 19  1  0  0  0  0
 19 21  1  0  0  0  0
 21 20  2  0  0  0  0
 21 22  1  0  0  0  0
 22 23  1  0  0  0  0
 23 24  1  0  0  0  0
 24 28  1  0  0  0  0
 25 26  1  0  0  0  0
 27 30  1  0  0  0  0
 28 29  1  0  0  0  0
 28 27  2  0  0  0  0
 29 25  2  0  0  0  0
 30 26  2  0  0  0  0
 31 27  1  0  0  0  0
 31 32  1  0  0  0  0
 34 35  1  0  0  0  0
 35 33  1  0  0  0  0
M  END
>  <MODEL>
5

>  <REMARK>
 VINA RESULT:      -7.8      2.637      8.380
  Name = 
  13 active torsions:
  status: ('A' for Active; 'I' for Inactive)
    1  A    between atoms: O_4  and  C_8
    2  A    between atoms: O_4  and  C_24
    3  A    between atoms: C_5  and  C_11
    4  A    between atoms: N_7  and  C_34
    5  A    between atoms: C_8  and  C_30
    6  A    between atoms: C_14  and  C_24
    7  A    between atoms: C_16  and  C_22
    8  A    between atoms: C_17  and  C_18
    9  A    between atoms: C_17  and  C_19
   10  A    between atoms: C_18  and  C_22
   11  A    between atoms: O_28  and  C_35
   12  A    between atoms: C_30  and  C_34
   13  A    between atoms: C_30  and  C_35
                            x       y       z     vdW  Elec       q    Type
                         _______ _______ _______ _____ _____    ______ ____

>  <TORSDO>
F 13

$$$$
=
 OpenBabel10222419183D

 35 36  0  0  1  0  0  0  0  0999 V2000
  190.5440  176.7640  139.7570 C   0  0  1  0  0  3  0  0  0  0  0  0
  192.6020  177.8600  140.2810 O   0  0  0  0  0  0  0  0  0  0  0  0
  191.5770  177.2710  140.7280 C   0  0  0  0  0  0  0  0  0  0  0  0
  191.4400  177.0510  142.1000 O   0  0  0  0  0  0  0  0  0  0  0  0
  191.1620  178.1220  142.9900 C   0  0  0  0  0  2  0  0  0  0  0  0
  188.7890  177.2980  147.7840 C   0  0  0  0  0  3  0  0  0  0  0  0
  188.7390  176.3130  143.5420 N   0  0  0  0  0  1  0  0  0  0  0  0
  190.8470  176.7520  146.5760 C   0  0  0  0  0  0  0  0  0  0  0  0
  191.3580  177.6930  144.4100 C   0  0  0  0  0  3  0  0  0  0  0  0
  189.0220  177.0020  144.7600 C   0  0  0  0  0  0  0  0  0  0  0  0
  189.9210  176.6700  147.6750 N   0  0  0  0  0  0  0  0  0  0  0  0
  188.0180  177.5240  145.4760 C   0  0  0  0  0  0  0  0  0  0  0  0
  188.2880  178.2500  146.7510 C   0  0  0  0  0  2  0  0  0  0  0  0
  192.0550  176.4700  146.7910 O   0  0  0  0  0  0  0  0  0  0  0  0
  190.4350  177.1360  145.2000 C   0  0  0  0  0  0  0  0  0  0  0  0
  186.5950  177.3560  145.0570 C   0  0  0  0  0  1  0  0  0  0  0  0
  188.6700  178.1730  140.6640 C   0  0  0  0  0  1  0  0  0  0  0  0
  189.4990  177.8450  139.4310 C   0  0  2  0  0  3  0  0  0  0  0  0
  188.5950  177.3810  138.3910 N   0  0  0  0  0  2  0  0  0  0  0  0
  188.5120  179.4120  137.2360 O   0  0  0  0  0  0  0  0  0  0  0  0
  188.2350  178.1830  137.2630 C   0  0  0  0  0  0  0  0  0  0  0  0
  187.5350  177.5480  136.1110 C   0  0  0  0  0  2  0  0  0  0  0  0
  186.3030  176.8080  136.6040 C   0  0  0  0  0  2  0  0  0  0  0  0
  185.1320  177.7640  136.7710 C   0  0  0  0  0  2  0  0  0  0  0  0
  182.8160  175.3310  138.5110 C   0  0  0  0  0  3  0  0  0  0  0  0
  182.3910  176.0770  139.6130 C   0  0  0  0  0  3  0  0  0  0  0  0
  183.7110  177.9670  138.8590 C   0  0  0  0  0  0  0  0  0  0  0  0
  184.1520  177.2110  137.7530 C   0  0  0  0  0  0  0  0  0  0  0  0
  183.6960  175.8970  137.5880 C   0  0  0  0  0  3  0  0  0  0  0  0
  182.8370  177.3910  139.7880 C   0  0  0  0  0  3  0  0  0  0  0  0
  184.1810  179.3650  139.0940 C   0  0  0  0  0  2  0  0  0  0  0  0
  185.1800  179.3780  140.1520 N   0  0  0  0  0  1  0  0  0  0  0  0
  191.2220  176.2390  138.4970 C   0  0  0  0  0  2  0  0  0  0  0  0
  190.3000  174.7970  137.1080 C   0  0  0  0  0  1  0  0  0  0  0  0
  190.9400  174.8810  138.3450 O   0  0  0  0  0  0  0  0  0  0  0  0
  1 33  1  6  0  0  0
  1  3  1  0  0  0  0
  2  3  2  0  0  0  0
  3  4  1  0  0  0  0
  4  5  1  0  0  0  0
  5  9  1  0  0  0  0
  7 10  1  0  0  0  0
  8 14  2  0  0  0  0
  8 11  1  0  0  0  0
  9 15  2  0  0  0  0
 10 15  1  0  0  0  0
 10 12  2  0  0  0  0
 11  6  2  0  0  0  0
 12 13  1  0  0  0  0
 13  6  1  0  0  0  0
 15  8  1  0  0  0  0
 16 12  1  0  0  0  0
 18  1  1  0  0  0  0
 18 17  1  1  0  0  0
 19 18  1  0  0  0  0
 20 21  2  0  0  0  0
 21 19  1  0  0  0  0
 22 23  1  0  0  0  0
 22 21  1  0  0  0  0
 23 24  1  0  0  0  0
 24 28  1  0  0  0  0
 25 26  1  0  0  0  0
 26 30  2  0  0  0  0
 27 31  1  0  0  0  0
 27 30  1  0  0  0  0
 28 27  2  0  0  0  0
 29 28  1  0  0  0  0
 29 25  2  0  0  0  0
 31 32  1  0  0  0  0
 34 35  1  0  0  0  0
 35 33  1  0  0  0  0
M  END
>  <MODEL>
6

>  <REMARK>
 VINA RESULT:      -7.7      2.628      6.931
  Name = 
  13 active torsions:
  status: ('A' for Active; 'I' for Inactive)
    1  A    between atoms: O_4  and  C_8
    2  A    between atoms: O_4  and  C_24
    3  A    between atoms: C_5  and  C_11
    4  A    between atoms: N_7  and  C_34
    5  A    between atoms: C_8  and  C_30
    6  A    between atoms: C_14  and  C_24
    7  A    between atoms: C_16  and  C_22
    8  A    between atoms: C_17  and  C_18
    9  A    between atoms: C_17  and  C_19
   10  A    between atoms: C_18  and  C_22
   11  A    between atoms: O_28  and  C_35
   12  A    between atoms: C_30  and  C_34
   13  A    between atoms: C_30  and  C_35
                            x       y       z     vdW  Elec       q    Type
                         _______ _______ _______ _____ _____    ______ ____

>  <TORSDO>
F 13

$$$$
=
 OpenBabel10222419183D

 35 36  0  0  1  0  0  0  0  0999 V2000
  189.7390  177.8420  144.2110 C   0  0  1  0  0  3  0  0  0  0  0  0
  191.0650  177.1380  142.3510 O   0  0  0  0  0  0  0  0  0  0  0  0
  190.1100  177.8620  142.7520 C   0  0  0  0  0  0  0  0  0  0  0  0
  189.4470  178.7050  141.8570 O   0  0  0  0  0  0  0  0  0  0  0  0
  188.6510  178.1780  140.8060 C   0  0  0  0  0  2  0  0  0  0  0  0
  188.9340  175.3820  136.1800 C   0  0  0  0  0  3  0  0  0  0  0  0
  188.6840  179.3470  137.9640 N   0  0  0  0  0  1  0  0  0  0  0  0
  190.3220  176.0110  138.0960 C   0  0  0  0  0  0  0  0  0  0  0  0
  189.4220  177.1660  140.0170 C   0  0  0  0  0  3  0  0  0  0  0  0
  188.6100  177.9280  137.8220 C   0  0  0  0  0  0  0  0  0  0  0  0
  190.0740  175.4330  136.8010 N   0  0  0  0  0  0  0  0  0  0  0  0
  187.7660  177.3940  136.9290 C   0  0  0  0  0  0  0  0  0  0  0  0
  187.6700  175.9140  136.7640 C   0  0  0  0  0  2  0  0  0  0  0  0
  191.3200  175.6040  138.7480 O   0  0  0  0  0  0  0  0  0  0  0  0
  189.4660  177.0740  138.6840 C   0  0  0  0  0  0  0  0  0  0  0  0
  186.9350  178.2520  136.0340 C   0  0  0  0  0  1  0  0  0  0  0  0
  188.3280  176.0000  143.2460 C   0  0  0  0  0  1  0  0  0  0  0  0
  188.6630  176.7840  144.5060 C   0  0  2  0  0  3  0  0  0  0  0  0
  187.4430  177.4170  144.9800 N   0  0  0  0  0  2  0  0  0  0  0  0
  187.9910  177.3010  147.2500 O   0  0  0  0  0  0  0  0  0  0  0  0
  187.2240  177.7470  146.3540 C   0  0  0  0  0  0  0  0  0  0  0  0
  186.0840  178.6330  146.7180 C   0  0  0  0  0  2  0  0  0  0  0  0
  184.9030  178.3520  145.8050 C   0  0  0  0  0  2  0  0  0  0  0  0
  184.8340  179.3780  144.6850 C   0  0  0  0  0  2  0  0  0  0  0  0
  181.2790  178.8460  143.5060 C   0  0  0  0  0  3  0  0  0  0  0  0
  181.4590  178.6300  142.1370 C   0  0  0  0  0  3  0  0  0  0  0  0
  183.8600  178.8480  142.4060 C   0  0  0  0  0  0  0  0  0  0  0  0
  183.6790  179.0810  143.7850 C   0  0  0  0  0  0  0  0  0  0  0  0
  182.3860  179.0740  144.3240 C   0  0  0  0  0  3  0  0  0  0  0  0
  182.7450  178.6310  141.5880 C   0  0  0  0  0  3  0  0  0  0  0  0
  185.2140  178.8640  141.7760 C   0  0  0  0  0  2  0  0  0  0  0  0
  185.1210  179.3810  140.4200 N   0  0  0  0  0  1  0  0  0  0  0  0
  190.9850  177.6300  145.0640 C   0  0  0  0  0  2  0  0  0  0  0  0
  191.3600  176.7170  147.0350 C   0  0  0  0  0  1  0  0  0  0  0  0
  190.8750  176.4250  145.7590 O   0  0  0  0  0  0  0  0  0  0  0  0
  1 18  1  0  0  0  0
  1 33  1  1  0  0  0
  2  3  2  0  0  0  0
  3  1  1  0  0  0  0
  4  3  1  0  0  0  0
  5  4  1  0  0  0  0
  6 13  1  0  0  0  0
  6 11  2  0  0  0  0
  8 15  1  0  0  0  0
  8 14  2  0  0  0  0
  9  5  1  0  0  0  0
 10  7  1  0  0  0  0
 10 15  1  0  0  0  0
 11  8  1  0  0  0  0
 12 10  2  0  0  0  0
 13 12  1  0  0  0  0
 15  9  2  0  0  0  0
 16 12  1  0  0  0  0
 18 17  1  6  0  0  0
 18 19  1  0  0  0  0
 19 21  1  0  0  0  0
 21 22  1  0  0  0  0
 21 20  2  0  0  0  0
 23 22  1  0  0  0  0
 24 23  1  0  0  0  0
 25 29  1  0  0  0  0
 26 25  2  0  0  0  0
 27 28  1  0  0  0  0
 28 29  2  0  0  0  0
 28 24  1  0  0  0  0
 30 26  1  0  0  0  0
 30 27  2  0  0  0  0
 31 27  1  0  0  0  0
 32 31  1  0  0  0  0
 33 35  1  0  0  0  0
 35 34  1  0  0  0  0
M  END
>  <MODEL>
7

>  <REMARK>
 VINA RESULT:      -7.7      1.723      2.462
  Name = 
  13 active torsions:
  status: ('A' for Active; 'I' for Inactive)
    1  A    between atoms: O_4  and  C_8
    2  A    between atoms: O_4  and  C_24
    3  A    between atoms: C_5  and  C_11
    4  A    between atoms: N_7  and  C_34
    5  A    between atoms: C_8  and  C_30
    6  A    between atoms: C_14  and  C_24
    7  A    between atoms: C_16  and  C_22
    8  A    between atoms: C_17  and  C_18
    9  A    between atoms: C_17  and  C_19
   10  A    between atoms: C_18  and  C_22
   11  A    between atoms: O_28  and  C_35
   12  A    between atoms: C_30  and  C_34
   13  A    between atoms: C_30  and  C_35
                            x       y       z     vdW  Elec       q    Type
                         _______ _______ _______ _____ _____    ______ ____

>  <TORSDO>
F 13

$$$$
=
 OpenBabel10222419183D

 35 36  0  0  1  0  0  0  0  0999 V2000
  190.1430  176.9820  137.6720 C   0  0  1  0  0  3  0  0  0  0  0  0
  189.1680  179.1330  138.0380 O   0  0  0  0  0  0  0  0  0  0  0  0
  188.9630  177.9030  137.8340 C   0  0  0  0  0  0  0  0  0  0  0  0
  187.6580  177.4050  137.8130 O   0  0  0  0  0  0  0  0  0  0  0  0
  186.5460  178.2520  138.0570 C   0  0  0  0  0  2  0  0  0  0  0  0
  181.5170  176.4280  138.8740 C   0  0  0  0  0  3  0  0  0  0  0  0
  184.2650  179.7530  139.4680 N   0  0  0  0  0  1  0  0  0  0  0  0
  182.9690  177.2220  137.0710 C   0  0  0  0  0  0  0  0  0  0  0  0
  185.3110  177.7000  137.4170 C   0  0  0  0  0  3  0  0  0  0  0  0
  183.7860  178.4340  139.2030 C   0  0  0  0  0  0  0  0  0  0  0  0
  181.7220  176.7870  137.6430 N   0  0  0  0  0  0  0  0  0  0  0  0
  183.1100  177.7720  140.1510 C   0  0  0  0  0  0  0  0  0  0  0  0
  182.6000  176.3920  139.8980 C   0  0  0  0  0  2  0  0  0  0  0  0
  183.1280  177.1030  135.8270 O   0  0  0  0  0  0  0  0  0  0  0  0
  184.0630  177.8210  137.8800 C   0  0  0  0  0  0  0  0  0  0  0  0
  182.7950  178.4010  141.4670 C   0  0  0  0  0  1  0  0  0  0  0  0
  192.4140  176.3970  138.5790 C   0  0  0  0  0  1  0  0  0  0  0  0
  191.0690  177.0330  138.9000 C   0  0  2  0  0  3  0  0  0  0  0  0
  190.4800  176.3060  140.0120 N   0  0  0  0  0  2  0  0  0  0  0  0
  191.3940  177.6600  141.6840 O   0  0  0  0  0  0  0  0  0  0  0  0
  190.5910  176.7410  141.3700 C   0  0  0  0  0  0  0  0  0  0  0  0
  189.7380  176.1050  142.4110 C   0  0  0  0  0  2  0  0  0  0  0  0
  188.7870  177.1340  142.9970 C   0  0  0  0  0  2  0  0  0  0  0  0
  188.6630  176.9560  144.5020 C   0  0  0  0  0  2  0  0  0  0  0  0
  185.1800  178.4340  144.5060 C   0  0  0  0  0  3  0  0  0  0  0  0
  184.9830  178.7020  145.8630 C   0  0  0  0  0  3  0  0  0  0  0  0
  187.2110  177.8800  146.3620 C   0  0  0  0  0  0  0  0  0  0  0  0
  187.4060  177.5950  144.9940 C   0  0  0  0  0  0  0  0  0  0  0  0
  186.3870  177.8790  144.0770 C   0  0  0  0  0  3  0  0  0  0  0  0
  185.9940  178.4250  146.7890 C   0  0  0  0  0  3  0  0  0  0  0  0
  188.2560  177.5790  147.3860 C   0  0  0  0  0  2  0  0  0  0  0  0
  187.9350  178.2580  148.6320 N   0  0  0  0  0  1  0  0  0  0  0  0
  189.6650  175.5630  137.3880 C   0  0  0  0  0  2  0  0  0  0  0  0
  189.2630  175.3810  135.2280 C   0  0  0  0  0  1  0  0  0  0  0  0
  190.2310  175.1090  136.1960 O   0  0  0  0  0  0  0  0  0  0  0  0
  1 33  1  1  0  0  0
  1  3  1  0  0  0  0
  1 18  1  0  0  0  0
  3  2  2  0  0  0  0
  4  3  1  0  0  0  0
  4  5  1  0  0  0  0
  6 13  1  0  0  0  0
  8 11  1  0  0  0  0
  8 15  1  0  0  0  0
  9 15  2  0  0  0  0
  9  5  1  0  0  0  0
 10  7  1  0  0  0  0
 10 12  2  0  0  0  0
 11  6  2  0  0  0  0
 12 16  1  0  0  0  0
 13 12  1  0  0  0  0
 14  8  2  0  0  0  0
 15 10  1  0  0  0  0
 18 17  1  6  0  0  0
 18 19  1  0  0  0  0
 19 21  1  0  0  0  0
 21 20  2  0  0  0  0
 21 22  1  0  0  0  0
 22 23  1  0  0  0  0
 23 24  1  0  0  0  0
 24 28  1  0  0  0  0
 25 26  1  0  0  0  0
 26 30  2  0  0  0  0
 27 30  1  0  0  0  0
 27 31  1  0  0  0  0
 28 27  2  0  0  0  0
 29 25  2  0  0  0  0
 29 28  1  0  0  0  0
 31 32  1  0  0  0  0
 34 35  1  0  0  0  0
 35 33  1  0  0  0  0
M  END
>  <MODEL>
8

>  <REMARK>
 VINA RESULT:      -7.7      2.984      7.283
  Name = 
  13 active torsions:
  status: ('A' for Active; 'I' for Inactive)
    1  A    between atoms: O_4  and  C_8
    2  A    between atoms: O_4  and  C_24
    3  A    between atoms: C_5  and  C_11
    4  A    between atoms: N_7  and  C_34
    5  A    between atoms: C_8  and  C_30
    6  A    between atoms: C_14  and  C_24
    7  A    between atoms: C_16  and  C_22
    8  A    between atoms: C_17  and  C_18
    9  A    between atoms: C_17  and  C_19
   10  A    between atoms: C_18  and  C_22
   11  A    between atoms: O_28  and  C_35
   12  A    between atoms: C_30  and  C_34
   13  A    between atoms: C_30  and  C_35
                            x       y       z     vdW  Elec       q    Type
                         _______ _______ _______ _____ _____    ______ ____

>  <TORSDO>
F 13

$$$$
=
 OpenBabel10222419183D

 35 36  0  0  1  0  0  0  0  0999 V2000
  187.7980  176.9340  137.3350 C   0  0  1  0  0  3  0  0  0  0  0  0
  185.7620  175.7010  137.1120 O   0  0  0  0  0  0  0  0  0  0  0  0
  186.2980  176.8370  137.2500 C   0  0  0  0  0  0  0  0  0  0  0  0
  185.5040  177.9870  137.2670 O   0  0  0  0  0  0  0  0  0  0  0  0
  184.2610  178.0090  137.9510 C   0  0  0  0  0  2  0  0  0  0  0  0
  181.8290  179.0020  142.6830 C   0  0  0  0  0  3  0  0  0  0  0  0
  182.5010  176.0580  139.5460 N   0  0  0  0  0  1  0  0  0  0  0  0
  184.0580  178.6180  141.7490 C   0  0  0  0  0  0  0  0  0  0  0  0
  184.4480  178.4440  139.3710 C   0  0  0  0  0  3  0  0  0  0  0  0
  182.4320  177.3150  140.2180 C   0  0  0  0  0  0  0  0  0  0  0  0
  183.1070  178.8080  142.8120 N   0  0  0  0  0  0  0  0  0  0  0  0
  181.2500  177.7710  140.6530 C   0  0  0  0  0  0  0  0  0  0  0  0
  181.1520  179.0830  141.3580 C   0  0  0  0  0  2  0  0  0  0  0  0
  185.2670  178.8890  141.9750 O   0  0  0  0  0  0  0  0  0  0  0  0
  183.6790  178.0990  140.4090 C   0  0  0  0  0  0  0  0  0  0  0  0
  180.0010  176.9670  140.4990 C   0  0  0  0  0  1  0  0  0  0  0  0
  189.1560  179.0110  137.7380 C   0  0  0  0  0  1  0  0  0  0  0  0
  188.2370  177.9790  138.3750 C   0  0  2  0  0  3  0  0  0  0  0  0
  188.9600  177.3420  139.4630 N   0  0  0  0  0  2  0  0  0  0  0  0
  188.3230  178.8850  141.0990 O   0  0  0  0  0  0  0  0  0  0  0  0
  188.8660  177.7830  140.8200 C   0  0  0  0  0  0  0  0  0  0  0  0
  189.4100  176.9200  141.9060 C   0  0  0  0  0  2  0  0  0  0  0  0
  189.3080  177.6450  143.2370 C   0  0  0  0  0  2  0  0  0  0  0  0
  188.0910  177.1710  144.0150 C   0  0  0  0  0  2  0  0  0  0  0  0
  189.8050  177.3770  147.3810 C   0  0  0  0  0  3  0  0  0  0  0  0
  188.7830  177.8730  148.1950 C   0  0  0  0  0  3  0  0  0  0  0  0
  187.2620  177.8760  146.3040 C   0  0  0  0  0  0  0  0  0  0  0  0
  188.2970  177.3890  145.4780 C   0  0  0  0  0  0  0  0  0  0  0  0
  189.5610  177.1410  146.0280 C   0  0  0  0  0  3  0  0  0  0  0  0
  187.5150  178.1220  147.6580 C   0  0  0  0  0  3  0  0  0  0  0  0
  185.9020  178.1770  145.7660 C   0  0  0  0  0  2  0  0  0  0  0  0
  185.3010  179.2620  146.5250 N   0  0  0  0  0  1  0  0  0  0  0  0
  188.3950  175.5630  137.6300 C   0  0  0  0  0  2  0  0  0  0  0  0
  189.0970  173.9450  136.3090 C   0  0  0  0  0  1  0  0  0  0  0  0
  189.3690  175.2630  136.6790 O   0  0  0  0  0  0  0  0  0  0  0  0
  1 33  1  1  0  0  0
  1 18  1  0  0  0  0
  2  3  2  0  0  0  0
  3  4  1  0  0  0  0
  3  1  1  0  0  0  0
  4  5  1  0  0  0  0
  5  9  1  0  0  0  0
  6 11  2  0  0  0  0
  7 10  1  0  0  0  0
  8 14  2  0  0  0  0
  8 11  1  0  0  0  0
  9 15  2  0  0  0  0
 10 15  1  0  0  0  0
 10 12  2  0  0  0  0
 12 13  1  0  0  0  0
 13  6  1  0  0  0  0
 15  8  1  0  0  0  0
 16 12  1  0  0  0  0
 18 17  1  6  0  0  0
 18 19  1  0  0  0  0
 19 21  1  0  0  0  0
 21 20  2  0  0  0  0
 21 22  1  0  0  0  0
 22 23  1  0  0  0  0
 23 24  1  0  0  0  0
 24 28  1  0  0  0  0
 25 26  1  0  0  0  0
 27 30  1  0  0  0  0
 28 29  1  0  0  0  0
 28 27  2  0  0  0  0
 29 25  2  0  0  0  0
 30 26  2  0  0  0  0
 31 27  1  0  0  0  0
 31 32  1  0  0  0  0
 34 35  1  0  0  0  0
 35 33  1  0  0  0  0
M  END
>  <MODEL>
9

>  <REMARK>
 VINA RESULT:      -7.6      2.577      7.678
  Name = 
  13 active torsions:
  status: ('A' for Active; 'I' for Inactive)
    1  A    between atoms: O_4  and  C_8
    2  A    between atoms: O_4  and  C_24
    3  A    between atoms: C_5  and  C_11
    4  A    between atoms: N_7  and  C_34
    5  A    between atoms: C_8  and  C_30
    6  A    between atoms: C_14  and  C_24
    7  A    between atoms: C_16  and  C_22
    8  A    between atoms: C_17  and  C_18
    9  A    between atoms: C_17  and  C_19
   10  A    between atoms: C_18  and  C_22
   11  A    between atoms: O_28  and  C_35
   12  A    between atoms: C_30  and  C_34
   13  A    between atoms: C_30  and  C_35
                            x       y       z     vdW  Elec       q    Type
                         _______ _______ _______ _____ _____    ______ ____

>  <TORSDO>
F 13

$$$$
