=
 OpenBabel10222419173D

 35 39  0  0  1  0  0  0  0  0999 V2000
  186.3700  178.1820  142.1640 C   0  0  1  0  0  3  0  0  0  0  0  0
  186.0130  177.8980  145.9060 C   0  0  0  0  0  2  0  0  0  0  0  0
  185.1940  179.0760  142.3110 C   0  0  0  0  0  0  0  0  0  0  0  0
  184.7070  179.4400  143.9900 S   0  0  0  0  0  0  0  0  0  0  0  0
  190.3120  178.3760  143.0630 C   0  0  0  0  0  2  0  0  0  0  0  0
  187.8290  177.0840  143.8910 C   0  0  1  0  0  3  0  0  0  0  0  0
  189.8000  177.3960  145.3280 C   0  0  0  0  0  0  0  0  0  0  0  0
  185.4930  177.8690  144.4610 C   0  0  1  0  0  3  0  0  0  0  0  0
  187.4840  178.3130  145.9880 C   0  0  0  0  0  2  0  0  0  0  0  0
  187.5860  179.0270  141.7510 C   0  0  0  0  0  2  0  0  0  0  0  0
  188.7010  178.1800  141.1190 C   0  0  0  0  0  2  0  0  0  0  0  0
  184.5410  179.4540  141.3530 O   0  0  0  0  0  0  0  0  0  0  0  0
  188.3390  177.4860  145.0670 C   0  0  1  0  0  3  0  0  0  0  0  0
  186.5500  177.5790  143.4840 N   0  0  1  0  0  0  0  0  0  0  0  0
  190.6950  177.7820  144.3980 C   0  0  0  0  0  3  0  0  0  0  0  0
  189.5600  177.3980  142.1320 C   0  0  2  0  0  0  0  0  0  0  0  0
  188.6900  176.5220  142.9030 N   0  0  0  0  0  2  0  0  0  0  0  0
  190.2860  176.8910  146.6300 C   0  0  0  0  0  0  0  0  0  0  0  0
  189.4710  176.4730  147.4940 O   0  0  0  0  0  0  0  0  0  0  0  0
  191.6820  176.8620  146.9210 N   0  0  0  0  0  1  0  0  0  0  0  0
  190.5660  176.5190  141.3880 C   0  0  0  0  0  2  0  0  0  0  0  0
  191.5890  177.3110  140.5790 C   0  0  0  0  0  2  0  0  0  0  0  0
  191.6030  176.8520  139.1270 C   0  0  0  0  0  2  0  0  0  0  0  0
  190.6810  175.7410  138.9300 N   0  0  0  0  0  2  0  0  0  0  0  0
  190.4500  175.5990  137.4990 C   0  0  2  0  0  3  0  0  0  0  0  0
  191.7030  175.0640  136.8340 C   0  0  0  0  0  1  0  0  0  0  0  0
  190.0970  176.9520  136.8920 C   0  0  0  0  0  2  0  0  0  0  0  0
  188.0500  177.9720  137.8080 C   0  0  0  0  0  3  0  0  0  0  0  0
  185.8860  178.7910  138.3200 O   0  0  0  0  0  0  0  0  0  0  0  0
  188.6250  177.1890  136.9140 C   0  0  0  0  0  0  0  0  0  0  0  0
  187.5280  176.4070  135.7310 S   0  0  0  0  0  0  0  0  0  0  0  0
  186.6160  178.0430  137.6200 C   0  0  0  0  0  0  0  0  0  0  0  0
  186.0810  177.2040  136.5110 C   0  0  2  0  0  3  0  0  0  0  0  0
  185.8350  174.9170  137.1630 O   0  0  0  0  0  1  0  0  0  0  0  0
  185.1510  176.1270  137.0460 C   0  0  0  0  0  2  0  0  0  0  0  0
  1 10  1  1  0  0  0
  1  3  1  0  0  0  0
  1 14  1  0  0  0  0
  2  9  1  0  0  0  0
  3  4  1  0  0  0  0
  4  8  1  0  0  0  0
  5 15  1  0  0  0  0
  6 17  1  6  0  0  0
  6 13  1  0  0  0  0
  7 18  1  0  0  0  0
  8  2  1  1  0  0  0
 11 10  1  0  0  0  0
 11 16  1  0  0  0  0
 12  3  2  0  0  0  0
 13  7  1  0  0  0  0
 13  9  1  6  0  0  0
 14  6  1  0  0  0  0
 14  8  1  0  0  0  0
 15  7  2  0  0  0  0
 16 17  1  0  0  0  0
 16  5  1  0  0  0  0
 18 20  1  0  0  0  0
 18 19  2  0  0  0  0
 21 16  1  0  0  0  0
 22 21  1  0  0  0  0
 23 22  1  0  0  0  0
 24 23  1  0  0  0  0
 25 24  1  0  0  0  0
 26 25  1  0  0  0  0
 27 30  1  0  0  0  0
 27 25  1  0  0  0  0
 30 28  2  0  0  0  0
 31 33  1  0  0  0  0
 31 30  1  0  0  0  0
 32 28  1  0  0  0  0
 32 29  2  0  0  0  0
 33 35  1  0  0  0  0
 33 32  1  0  0  0  0
 35 34  1  0  0  0  0
M  END
>  <MODEL>
1

>  <REMARK>
 VINA RESULT:      -8.4      0.000      0.000
  Name = 
  9 active torsions:
  status: ('A' for Active; 'I' for Inactive)
    1  A    between atoms: C_2  and  C_4
    2  A    between atoms: C_2  and  N_32
    3  A    between atoms: C_4  and  C_11
    4  A    between atoms: C_12  and  C_13
    5  A    between atoms: C_21  and  C_24
    6  A    between atoms: C_22  and  C_33
    7  A    between atoms: C_22  and  C_34
    8  A    between atoms: C_27  and  N_32
    9  A    between atoms: C_27  and  C_33
                            x       y       z     vdW  Elec       q    Type
                         _______ _______ _______ _____ _____    ______ ____

>  <TORSDO>
F 9

$$$$
=
 OpenBabel10222419173D

 35 39  0  0  1  0  0  0  0  0999 V2000
  186.4570  178.1850  142.1840 C   0  0  1  0  0  3  0  0  0  0  0  0
  185.9920  177.9110  145.9150 C   0  0  0  0  0  2  0  0  0  0  0  0
  185.2800  179.0820  142.2960 C   0  0  0  0  0  0  0  0  0  0  0  0
  184.7460  179.4520  143.9590 S   0  0  0  0  0  0  0  0  0  0  0  0
  190.3730  178.3690  143.1950 C   0  0  0  0  0  2  0  0  0  0  0  0
  187.8620  177.0860  143.9550 C   0  0  1  0  0  3  0  0  0  0  0  0
  189.7920  177.3950  145.4470 C   0  0  0  0  0  0  0  0  0  0  0  0
  185.5140  177.8800  144.4560 C   0  0  1  0  0  3  0  0  0  0  0  0
  187.4610  178.3210  146.0390 C   0  0  0  0  0  2  0  0  0  0  0  0
  187.6870  179.0250  141.8050 C   0  0  0  0  0  2  0  0  0  0  0  0
  188.8170  178.1730  141.2070 C   0  0  0  0  0  2  0  0  0  0  0  0
  184.6560  179.4600  141.3180 O   0  0  0  0  0  0  0  0  0  0  0  0
  188.3390  177.4900  145.1440 C   0  0  1  0  0  3  0  0  0  0  0  0
  186.5970  177.5840  143.5100 N   0  0  1  0  0  0  0  0  0  0  0  0
  190.7150  177.7760  144.5420 C   0  0  0  0  0  3  0  0  0  0  0  0
  189.6440  177.3910  142.2450 C   0  0  2  0  0  0  0  0  0  0  0  0
  188.7490  176.5190  142.9930 N   0  0  0  0  0  2  0  0  0  0  0  0
  190.2400  176.8930  146.7630 C   0  0  0  0  0  0  0  0  0  0  0  0
  189.3970  176.5210  147.6220 O   0  0  0  0  0  0  0  0  0  0  0  0
  191.6290  176.8110  147.0750 N   0  0  0  0  0  1  0  0  0  0  0  0
  190.6690  176.5070  141.5330 C   0  0  0  0  0  2  0  0  0  0  0  0
  191.1690  177.0910  140.2150 C   0  0  0  0  0  2  0  0  0  0  0  0
  190.6290  176.2990  139.0320 C   0  0  0  0  0  2  0  0  0  0  0  0
  190.9100  176.9900  137.7800 N   0  0  0  0  0  2  0  0  0  0  0  0
  191.2550  175.9870  136.7820 C   0  0  2  0  0  3  0  0  0  0  0  0
  190.0030  175.2490  136.3500 C   0  0  0  0  0  1  0  0  0  0  0  0
  192.2480  174.9900  137.3680 C   0  0  0  0  0  2  0  0  0  0  0  0
  194.7050  174.8000  137.3340 C   0  0  0  0  0  3  0  0  0  0  0  0
  197.0240  174.6870  136.8600 O   0  0  0  0  0  0  0  0  0  0  0  0
  193.5810  175.1010  136.7090 C   0  0  0  0  0  0  0  0  0  0  0  0
  193.7500  175.6730  135.0190 S   0  0  0  0  0  0  0  0  0  0  0  0
  195.8610  174.9860  136.4840 C   0  0  0  0  0  0  0  0  0  0  0  0
  195.5670  175.5110  135.1210 C   0  0  2  0  0  3  0  0  0  0  0  0
  195.4600  177.8530  135.5940 O   0  0  0  0  0  1  0  0  0  0  0  0
  196.1980  176.8800  134.9200 C   0  0  0  0  0  2  0  0  0  0  0  0
  1 10  1  1  0  0  0
  1  3  1  0  0  0  0
  1 14  1  0  0  0  0
  2  9  1  0  0  0  0
  3  4  1  0  0  0  0
  4  8  1  0  0  0  0
  5 15  1  0  0  0  0
  6 17  1  6  0  0  0
  6 13  1  0  0  0  0
  7 18  1  0  0  0  0
  8  2  1  1  0  0  0
 11 10  1  0  0  0  0
 11 16  1  0  0  0  0
 12  3  2  0  0  0  0
 13  7  1  0  0  0  0
 13  9  1  6  0  0  0
 14  6  1  0  0  0  0
 14  8  1  0  0  0  0
 15  7  2  0  0  0  0
 16 17  1  0  0  0  0
 16  5  1  0  0  0  0
 18 20  1  0  0  0  0
 18 19  2  0  0  0  0
 21 16  1  0  0  0  0
 22 21  1  0  0  0  0
 23 22  1  0  0  0  0
 24 23  1  0  0  0  0
 25 27  1  0  0  0  0
 25 24  1  0  0  0  0
 26 25  1  0  0  0  0
 30 28  2  0  0  0  0
 30 27  1  0  0  0  0
 31 33  1  0  0  0  0
 31 30  1  0  0  0  0
 32 29  2  0  0  0  0
 32 28  1  0  0  0  0
 33 32  1  0  0  0  0
 35 33  1  0  0  0  0
 35 34  1  0  0  0  0
M  END
>  <MODEL>
2

>  <REMARK>
 VINA RESULT:      -7.5      3.156      4.492
  Name = 
  9 active torsions:
  status: ('A' for Active; 'I' for Inactive)
    1  A    between atoms: C_2  and  C_4
    2  A    between atoms: C_2  and  N_32
    3  A    between atoms: C_4  and  C_11
    4  A    between atoms: C_12  and  C_13
    5  A    between atoms: C_21  and  C_24
    6  A    between atoms: C_22  and  C_33
    7  A    between atoms: C_22  and  C_34
    8  A    between atoms: C_27  and  N_32
    9  A    between atoms: C_27  and  C_33
                            x       y       z     vdW  Elec       q    Type
                         _______ _______ _______ _____ _____    ______ ____

>  <TORSDO>
F 9

$$$$
=
 OpenBabel10222419173D

 35 39  0  0  1  0  0  0  0  0999 V2000
  186.8160  177.6730  146.2890 C   0  0  1  0  0  3  0  0  0  0  0  0
  189.9130  176.9730  144.2550 C   0  0  0  0  0  2  0  0  0  0  0  0
  187.8080  177.8920  147.3710 C   0  0  0  0  0  0  0  0  0  0  0  0
  189.5200  177.8550  146.8680 S   0  0  0  0  0  0  0  0  0  0  0  0
  185.6740  179.6360  142.9380 C   0  0  0  0  0  2  0  0  0  0  0  0
  187.1290  177.2660  143.8280 C   0  0  1  0  0  3  0  0  0  0  0  0
  187.4250  178.3620  141.6460 C   0  0  0  0  0  0  0  0  0  0  0  0
  188.9930  176.8110  145.4750 C   0  0  1  0  0  3  0  0  0  0  0  0
  189.3970  178.0250  143.2720 C   0  0  0  0  0  2  0  0  0  0  0  0
  186.1680  179.0200  145.9290 C   0  0  0  0  0  2  0  0  0  0  0  0
  184.8320  178.8500  145.1920 C   0  0  0  0  0  2  0  0  0  0  0  0
  187.4810  177.9880  148.5420 O   0  0  0  0  0  0  0  0  0  0  0  0
  187.9600  177.7710  142.9020 C   0  0  1  0  0  3  0  0  0  0  0  0
  187.5920  177.1280  145.1750 N   0  0  1  0  0  0  0  0  0  0  0  0
  186.3650  179.1930  141.6690 C   0  0  0  0  0  3  0  0  0  0  0  0
  184.9670  178.4920  143.7000 C   0  0  2  0  0  0  0  0  0  0  0  0
  185.7240  177.2530  143.5840 N   0  0  0  0  0  2  0  0  0  0  0  0
  188.0680  178.0500  140.3530 C   0  0  0  0  0  0  0  0  0  0  0  0
  189.0120  177.2180  140.2960 O   0  0  0  0  0  0  0  0  0  0  0  0
  187.6250  178.6790  139.1520 N   0  0  0  0  0  1  0  0  0  0  0  0
  183.5830  178.2500  143.0960 C   0  0  0  0  0  2  0  0  0  0  0  0
  182.5480  179.2960  143.5020 C   0  0  0  0  0  2  0  0  0  0  0  0
  181.2510  178.6320  143.9420 C   0  0  0  0  0  2  0  0  0  0  0  0
  180.4140  178.3240  142.7890 N   0  0  0  0  0  2  0  0  0  0  0  0
  180.3150  179.5270  141.9730 C   0  0  2  0  0  3  0  0  0  0  0  0
  179.0700  180.3000  142.3590 C   0  0  0  0  0  1  0  0  0  0  0  0
  180.2340  179.1490  140.4980 C   0  0  0  0  0  2  0  0  0  0  0  0
  182.4310  179.8750  139.6480 C   0  0  0  0  0  3  0  0  0  0  0  0
  184.6450  180.1370  138.8440 O   0  0  0  0  0  0  0  0  0  0  0  0
  181.5900  178.8970  139.9280 C   0  0  0  0  0  0  0  0  0  0  0  0
  182.1640  177.2370  139.5680 S   0  0  0  0  0  0  0  0  0  0  0  0
  183.6780  179.3760  139.1100 C   0  0  0  0  0  0  0  0  0  0  0  0
  183.7490  177.8970  138.9410 C   0  0  2  0  0  3  0  0  0  0  0  0
  185.2250  177.2210  137.1850 O   0  0  0  0  0  1  0  0  0  0  0  0
  183.8940  177.5260  137.4740 C   0  0  0  0  0  2  0  0  0  0  0  0
  1 10  1  6  0  0  0
  1  3  1  0  0  0  0
  3 12  2  0  0  0  0
  4  3  1  0  0  0  0
  5 16  1  0  0  0  0
  6 17  1  1  0  0  0
  6 14  1  0  0  0  0
  7 15  2  0  0  0  0
  7 13  1  0  0  0  0
  8  2  1  6  0  0  0
  8  4  1  0  0  0  0
  9  2  1  0  0  0  0
 11 10  1  0  0  0  0
 13  9  1  1  0  0  0
 13  6  1  0  0  0  0
 14  8  1  0  0  0  0
 14  1  1  0  0  0  0
 15  5  1  0  0  0  0
 16 11  1  0  0  0  0
 17 16  1  0  0  0  0
 18  7  1  0  0  0  0
 19 18  2  0  0  0  0
 20 18  1  0  0  0  0
 21 22  1  0  0  0  0
 21 16  1  0  0  0  0
 22 23  1  0  0  0  0
 24 23  1  0  0  0  0
 25 26  1  0  0  0  0
 25 24  1  0  0  0  0
 27 25  1  0  0  0  0
 28 30  2  0  0  0  0
 29 32  2  0  0  0  0
 30 27  1  0  0  0  0
 31 30  1  0  0  0  0
 32 28  1  0  0  0  0
 33 32  1  0  0  0  0
 33 31  1  0  0  0  0
 34 35  1  0  0  0  0
 35 33  1  0  0  0  0
M  END
>  <MODEL>
3

>  <REMARK>
 VINA RESULT:      -7.5      3.185      6.760
  Name = 
  9 active torsions:
  status: ('A' for Active; 'I' for Inactive)
    1  A    between atoms: C_2  and  C_4
    2  A    between atoms: C_2  and  N_32
    3  A    between atoms: C_4  and  C_11
    4  A    between atoms: C_12  and  C_13
    5  A    between atoms: C_21  and  C_24
    6  A    between atoms: C_22  and  C_33
    7  A    between atoms: C_22  and  C_34
    8  A    between atoms: C_27  and  N_32
    9  A    between atoms: C_27  and  C_33
                            x       y       z     vdW  Elec       q    Type
                         _______ _______ _______ _____ _____    ______ ____

>  <TORSDO>
F 9

$$$$
=
 OpenBabel10222419173D

 35 39  0  0  1  0  0  0  0  0999 V2000
  191.2970  177.2040  145.3960 C   0  0  1  0  0  3  0  0  0  0  0  0
  187.8190  178.0010  146.6130 C   0  0  0  0  0  2  0  0  0  0  0  0
  191.4070  176.5540  146.7260 C   0  0  0  0  0  0  0  0  0  0  0  0
  189.8990  176.4880  147.6790 S   0  0  0  0  0  0  0  0  0  0  0  0
  189.3610  176.4400  141.9240 C   0  0  0  0  0  2  0  0  0  0  0  0
  189.3260  178.2350  144.2260 C   0  0  1  0  0  3  0  0  0  0  0  0
  187.3940  177.7640  142.7800 C   0  0  0  0  0  0  0  0  0  0  0  0
  189.3490  177.9440  146.7380 C   0  0  1  0  0  3  0  0  0  0  0  0
  187.3150  177.3510  145.3230 C   0  0  0  0  0  2  0  0  0  0  0  0
  191.3050  176.1170  144.3090 C   0  0  0  0  0  2  0  0  0  0  0  0
  191.6740  176.6740  142.9260 C   0  0  0  0  0  2  0  0  0  0  0  0
  192.4750  176.1810  147.1800 O   0  0  0  0  0  0  0  0  0  0  0  0
  188.0300  177.8980  144.1170 C   0  0  1  0  0  3  0  0  0  0  0  0
  190.0240  177.9240  145.4360 N   0  0  1  0  0  0  0  0  0  0  0  0
  188.0190  177.1180  141.7770 C   0  0  0  0  0  3  0  0  0  0  0  0
  190.5280  177.4120  142.2090 C   0  0  2  0  0  0  0  0  0  0  0  0
  190.0840  178.5140  143.0510 N   0  0  0  0  0  2  0  0  0  0  0  0
  186.0490  178.3320  142.5430 C   0  0  0  0  0  0  0  0  0  0  0  0
  185.0200  177.6940  142.8910 O   0  0  0  0  0  0  0  0  0  0  0  0
  185.8990  179.6090  141.9290 N   0  0  0  0  0  1  0  0  0  0  0  0
  191.0360  178.0060  140.8950 C   0  0  0  0  0  2  0  0  0  0  0  0
  192.2240  177.2540  140.3030 C   0  0  0  0  0  2  0  0  0  0  0  0
  191.9040  176.7530  138.9010 C   0  0  0  0  0  2  0  0  0  0  0  0
  190.9730  175.6330  138.9560 N   0  0  0  0  0  2  0  0  0  0  0  0
  190.4240  175.4400  137.6200 C   0  0  2  0  0  3  0  0  0  0  0  0
  191.3740  174.5900  136.8000 C   0  0  0  0  0  1  0  0  0  0  0  0
  190.2390  176.7890  136.9350 C   0  0  0  0  0  2  0  0  0  0  0  0
  188.2410  177.6720  138.0760 C   0  0  0  0  0  3  0  0  0  0  0  0
  186.1490  178.5510  138.7610 O   0  0  0  0  0  0  0  0  0  0  0  0
  188.8120  177.2250  136.9730 C   0  0  0  0  0  0  0  0  0  0  0  0
  187.7680  177.1540  135.5190 S   0  0  0  0  0  0  0  0  0  0  0  0
  186.8570  178.0340  137.8580 C   0  0  0  0  0  0  0  0  0  0  0  0
  186.3500  177.7950  136.4770 C   0  0  2  0  0  3  0  0  0  0  0  0
  185.7730  175.4880  136.7280 O   0  0  0  0  0  1  0  0  0  0  0  0
  185.2420  176.7540  136.4790 C   0  0  0  0  0  2  0  0  0  0  0  0
  1 10  1  6  0  0  0
  1 14  1  0  0  0  0
  1  3  1  0  0  0  0
  3 12  2  0  0  0  0
  3  4  1  0  0  0  0
  5 16  1  0  0  0  0
  6 17  1  6  0  0  0
  6 14  1  0  0  0  0
  7 13  1  0  0  0  0
  8  2  1  6  0  0  0
  8  4  1  0  0  0  0
  9  2  1  0  0  0  0
 11 10  1  0  0  0  0
 13  6  1  0  0  0  0
 13  9  1  6  0  0  0
 14  8  1  0  0  0  0
 15  5  1  0  0  0  0
 15  7  2  0  0  0  0
 16 11  1  0  0  0  0
 16 17  1  0  0  0  0
 18  7  1  0  0  0  0
 18 19  2  0  0  0  0
 20 18  1  0  0  0  0
 21 16  1  0  0  0  0
 22 21  1  0  0  0  0
 23 24  1  0  0  0  0
 23 22  1  0  0  0  0
 25 24  1  0  0  0  0
 26 25  1  0  0  0  0
 27 30  1  0  0  0  0
 27 25  1  0  0  0  0
 30 28  2  0  0  0  0
 31 33  1  0  0  0  0
 31 30  1  0  0  0  0
 32 28  1  0  0  0  0
 32 29  2  0  0  0  0
 33 35  1  0  0  0  0
 33 32  1  0  0  0  0
 35 34  1  0  0  0  0
M  END
>  <MODEL>
4

>  <REMARK>
 VINA RESULT:      -7.4      1.789      3.921
  Name = 
  9 active torsions:
  status: ('A' for Active; 'I' for Inactive)
    1  A    between atoms: C_2  and  C_4
    2  A    between atoms: C_2  and  N_32
    3  A    between atoms: C_4  and  C_11
    4  A    between atoms: C_12  and  C_13
    5  A    between atoms: C_21  and  C_24
    6  A    between atoms: C_22  and  C_33
    7  A    between atoms: C_22  and  C_34
    8  A    between atoms: C_27  and  N_32
    9  A    between atoms: C_27  and  C_33
                            x       y       z     vdW  Elec       q    Type
                         _______ _______ _______ _____ _____    ______ ____

>  <TORSDO>
F 9

$$$$
=
 OpenBabel10222419173D

 35 39  0  0  1  0  0  0  0  0999 V2000
  191.0890  176.4950  144.7820 C   0  0  1  0  0  3  0  0  0  0  0  0
  189.4220  177.5010  148.0110 C   0  0  0  0  0  2  0  0  0  0  0  0
  191.8200  175.5600  145.6730 C   0  0  0  0  0  0  0  0  0  0  0  0
  191.2550  175.5060  147.3660 S   0  0  0  0  0  0  0  0  0  0  0  0
  187.3210  176.7980  143.3320 C   0  0  0  0  0  2  0  0  0  0  0  0
  189.1530  178.0310  145.2420 C   0  0  1  0  0  3  0  0  0  0  0  0
  186.7000  178.1730  145.3530 C   0  0  0  0  0  0  0  0  0  0  0  0
  190.6330  177.1960  147.1150 C   0  0  1  0  0  3  0  0  0  0  0  0
  188.0920  177.2280  147.3060 C   0  0  0  0  0  2  0  0  0  0  0  0
  190.1570  175.6830  143.8680 C   0  0  0  0  0  2  0  0  0  0  0  0
  189.7280  176.4690  142.6200 C   0  0  0  0  0  2  0  0  0  0  0  0
  192.8050  174.9460  145.3010 O   0  0  0  0  0  0  0  0  0  0  0  0
  188.0290  177.9170  145.9690 C   0  0  1  0  0  3  0  0  0  0  0  0
  190.3380  177.3650  145.6870 N   0  0  1  0  0  0  0  0  0  0  0  0
  186.3940  177.6790  144.1380 C   0  0  0  0  0  3  0  0  0  0  0  0
  188.6150  177.5050  142.8710 C   0  0  2  0  0  0  0  0  0  0  0  0
  189.0740  178.4480  143.8810 N   0  0  0  0  0  2  0  0  0  0  0  0
  185.6900  178.9670  146.0830 C   0  0  0  0  0  0  0  0  0  0  0  0
  186.0300  179.6830  147.0620 O   0  0  0  0  0  0  0  0  0  0  0  0
  184.3210  178.9420  145.6850 N   0  0  0  0  0  1  0  0  0  0  0  0
  188.3410  178.2920  141.5880 C   0  0  0  0  0  2  0  0  0  0  0  0
  189.0180  177.7040  140.3540 C   0  0  0  0  0  2  0  0  0  0  0  0
  188.8520  178.6270  139.1540 C   0  0  0  0  0  2  0  0  0  0  0  0
  188.6090  177.8550  137.9410 N   0  0  0  0  0  2  0  0  0  0  0  0
  187.2820  177.2630  138.0440 C   0  0  2  0  0  3  0  0  0  0  0  0
  187.2200  176.0090  137.1940 C   0  0  0  0  0  1  0  0  0  0  0  0
  186.2310  178.2530  137.5560 C   0  0  0  0  0  2  0  0  0  0  0  0
  185.2860  178.6280  139.8010 C   0  0  0  0  0  3  0  0  0  0  0  0
  183.9830  178.9950  141.7460 O   0  0  0  0  0  0  0  0  0  0  0  0
  185.0990  178.3610  138.5220 C   0  0  0  0  0  0  0  0  0  0  0  0
  183.3990  178.1160  138.0080 S   0  0  0  0  0  0  0  0  0  0  0  0
  184.0360  178.6830  140.5280 C   0  0  0  0  0  0  0  0  0  0  0  0
  182.8190  178.3920  139.7190 C   0  0  2  0  0  3  0  0  0  0  0  0
  182.6800  176.0070  139.6030 O   0  0  0  0  0  1  0  0  0  0  0  0
  182.1270  177.1320  140.2160 C   0  0  0  0  0  2  0  0  0  0  0  0
  1 10  1  6  0  0  0
  1  3  1  0  0  0  0
  1 14  1  0  0  0  0
  3  4  1  0  0  0  0
  5 15  1  0  0  0  0
  6 17  1  6  0  0  0
  6 14  1  0  0  0  0
  6 13  1  0  0  0  0
  7 13  1  0  0  0  0
  7 18  1  0  0  0  0
  8  4  1  0  0  0  0
  8  2  1  1  0  0  0
  9  2  1  0  0  0  0
 11 16  1  0  0  0  0
 11 10  1  0  0  0  0
 12  3  2  0  0  0  0
 13  9  1  6  0  0  0
 14  8  1  0  0  0  0
 15  7  2  0  0  0  0
 16  5  1  0  0  0  0
 16 17  1  0  0  0  0
 18 19  2  0  0  0  0
 20 18  1  0  0  0  0
 21 16  1  0  0  0  0
 22 21  1  0  0  0  0
 23 22  1  0  0  0  0
 24 25  1  0  0  0  0
 24 23  1  0  0  0  0
 26 25  1  0  0  0  0
 27 25  1  0  0  0  0
 27 30  1  0  0  0  0
 28 32  1  0  0  0  0
 30 28  2  0  0  0  0
 31 30  1  0  0  0  0
 31 33  1  0  0  0  0
 32 29  2  0  0  0  0
 33 35  1  0  0  0  0
 33 32  1  0  0  0  0
 34 35  1  0  0  0  0
M  END
>  <MODEL>
5

>  <REMARK>
 VINA RESULT:      -7.4      2.741      4.677
  Name = 
  9 active torsions:
  status: ('A' for Active; 'I' for Inactive)
    1  A    between atoms: C_2  and  C_4
    2  A    between atoms: C_2  and  N_32
    3  A    between atoms: C_4  and  C_11
    4  A    between atoms: C_12  and  C_13
    5  A    between atoms: C_21  and  C_24
    6  A    between atoms: C_22  and  C_33
    7  A    between atoms: C_22  and  C_34
    8  A    between atoms: C_27  and  N_32
    9  A    between atoms: C_27  and  C_33
                            x       y       z     vdW  Elec       q    Type
                         _______ _______ _______ _____ _____    ______ ____

>  <TORSDO>
F 9

$$$$
=
 OpenBabel10222419173D

 35 39  0  0  1  0  0  0  0  0999 V2000
  191.0010  176.6010  144.5390 C   0  0  1  0  0  3  0  0  0  0  0  0
  189.4670  177.2490  147.9220 C   0  0  0  0  0  2  0  0  0  0  0  0
  191.7640  175.5760  145.2940 C   0  0  0  0  0  0  0  0  0  0  0  0
  191.2660  175.3380  146.9910 S   0  0  0  0  0  0  0  0  0  0  0  0
  187.1790  177.0550  143.2810 C   0  0  0  0  0  2  0  0  0  0  0  0
  189.0900  178.0760  145.2390 C   0  0  1  0  0  3  0  0  0  0  0  0
  186.6440  178.2020  145.4620 C   0  0  0  0  0  0  0  0  0  0  0  0
  190.6400  177.0450  146.9500 C   0  0  1  0  0  3  0  0  0  0  0  0
  188.1090  177.0530  147.2440 C   0  0  0  0  0  2  0  0  0  0  0  0
  190.0310  175.8920  143.5790 C   0  0  0  0  0  2  0  0  0  0  0  0
  189.5550  176.8090  142.4430 C   0  0  0  0  0  2  0  0  0  0  0  0
  192.7320  175.0070  144.8180 O   0  0  0  0  0  0  0  0  0  0  0  0
  187.9960  177.8820  145.9940 C   0  0  1  0  0  3  0  0  0  0  0  0
  190.2900  177.3670  145.5620 N   0  0  1  0  0  0  0  0  0  0  0  0
  186.2880  177.8420  144.2140 C   0  0  0  0  0  3  0  0  0  0  0  0
  188.4570  177.8100  142.8480 C   0  0  2  0  0  0  0  0  0  0  0  0
  188.9580  178.6380  143.9350 N   0  0  0  0  0  2  0  0  0  0  0  0
  185.6650  178.9110  146.3140 C   0  0  0  0  0  0  0  0  0  0  0  0
  186.0570  179.7440  147.1730 O   0  0  0  0  0  0  0  0  0  0  0  0
  184.2680  178.6690  146.1690 N   0  0  0  0  0  1  0  0  0  0  0  0
  188.1350  178.7320  141.6710 C   0  0  0  0  0  2  0  0  0  0  0  0
  187.0090  178.2150  140.7800 C   0  0  0  0  0  2  0  0  0  0  0  0
  187.4170  178.2530  139.3140 C   0  0  0  0  0  2  0  0  0  0  0  0
  188.7160  178.8960  139.1580 N   0  0  0  0  0  2  0  0  0  0  0  0
  189.4310  178.2090  138.0910 C   0  0  2  0  0  3  0  0  0  0  0  0
  188.8380  178.5990  136.7510 C   0  0  0  0  0  1  0  0  0  0  0  0
  189.3120  176.7000  138.2730 C   0  0  0  0  0  2  0  0  0  0  0  0
  191.7720  176.5630  138.3260 C   0  0  0  0  0  3  0  0  0  0  0  0
  194.0740  176.0040  138.2530 O   0  0  0  0  0  0  0  0  0  0  0  0
  190.6120  176.0190  138.0070 C   0  0  0  0  0  0  0  0  0  0  0  0
  190.6870  174.4120  137.2160 S   0  0  0  0  0  0  0  0  0  0  0  0
  192.8850  175.7070  137.9710 C   0  0  0  0  0  0  0  0  0  0  0  0
  192.5130  174.4340  137.2920 C   0  0  2  0  0  3  0  0  0  0  0  0
  193.4420  173.0880  135.5470 O   0  0  0  0  0  1  0  0  0  0  0  0
  193.0680  174.3920  135.8770 C   0  0  0  0  0  2  0  0  0  0  0  0
  1 10  1  6  0  0  0
  1  3  1  0  0  0  0
  1 14  1  0  0  0  0
  3  4  1  0  0  0  0
  5 15  1  0  0  0  0
  6 17  1  6  0  0  0
  6 14  1  0  0  0  0
  6 13  1  0  0  0  0
  7 13  1  0  0  0  0
  7 18  1  0  0  0  0
  8  4  1  0  0  0  0
  8  2  1  1  0  0  0
  9  2  1  0  0  0  0
 11 16  1  0  0  0  0
 11 10  1  0  0  0  0
 12  3  2  0  0  0  0
 13  9  1  6  0  0  0
 14  8  1  0  0  0  0
 15  7  2  0  0  0  0
 16  5  1  0  0  0  0
 16 17  1  0  0  0  0
 18 19  2  0  0  0  0
 20 18  1  0  0  0  0
 21 16  1  0  0  0  0
 22 21  1  0  0  0  0
 23 22  1  0  0  0  0
 24 23  1  0  0  0  0
 25 27  1  0  0  0  0
 25 24  1  0  0  0  0
 26 25  1  0  0  0  0
 30 27  1  0  0  0  0
 30 28  2  0  0  0  0
 31 33  1  0  0  0  0
 31 30  1  0  0  0  0
 32 29  2  0  0  0  0
 32 28  1  0  0  0  0
 33 32  1  0  0  0  0
 34 35  1  0  0  0  0
 35 33  1  0  0  0  0
M  END
>  <MODEL>
6

>  <REMARK>
 VINA RESULT:      -7.2      3.275      5.224
  Name = 
  9 active torsions:
  status: ('A' for Active; 'I' for Inactive)
    1  A    between atoms: C_2  and  C_4
    2  A    between atoms: C_2  and  N_32
    3  A    between atoms: C_4  and  C_11
    4  A    between atoms: C_12  and  C_13
    5  A    between atoms: C_21  and  C_24
    6  A    between atoms: C_22  and  C_33
    7  A    between atoms: C_22  and  C_34
    8  A    between atoms: C_27  and  N_32
    9  A    between atoms: C_27  and  C_33
                            x       y       z     vdW  Elec       q    Type
                         _______ _______ _______ _____ _____    ______ ____

>  <TORSDO>
F 9

$$$$
=
 OpenBabel10222419173D

 35 39  0  0  1  0  0  0  0  0999 V2000
  186.4120  178.1480  142.2320 C   0  0  1  0  0  3  0  0  0  0  0  0
  186.0230  177.8540  145.9700 C   0  0  0  0  0  2  0  0  0  0  0  0
  185.2310  179.0360  142.3710 C   0  0  0  0  0  0  0  0  0  0  0  0
  184.7280  179.3940  144.0460 S   0  0  0  0  0  0  0  0  0  0  0  0
  190.3460  178.3570  143.1660 C   0  0  0  0  0  2  0  0  0  0  0  0
  187.8600  177.0520  143.9690 C   0  0  1  0  0  3  0  0  0  0  0  0
  189.8170  177.3690  145.4250 C   0  0  0  0  0  0  0  0  0  0  0  0
  185.5170  177.8260  144.5200 C   0  0  1  0  0  3  0  0  0  0  0  0
  187.4910  178.2750  146.0670 C   0  0  0  0  0  2  0  0  0  0  0  0
  187.6290  178.9990  141.8320 C   0  0  0  0  0  2  0  0  0  0  0  0
  188.7530  178.1590  141.2080 C   0  0  0  0  0  2  0  0  0  0  0  0
  184.5860  179.4140  141.4080 O   0  0  0  0  0  0  0  0  0  0  0  0
  188.3580  177.4530  145.1510 C   0  0  1  0  0  3  0  0  0  0  0  0
  186.5830  177.5420  143.5520 N   0  0  1  0  0  0  0  0  0  0  0  0
  190.7190  177.7610  144.5040 C   0  0  0  0  0  3  0  0  0  0  0  0
  189.6060  177.3780  142.2270 C   0  0  2  0  0  0  0  0  0  0  0  0
  188.7320  176.4960  142.9880 N   0  0  0  0  0  2  0  0  0  0  0  0
  190.2940  176.8630  146.7290 C   0  0  0  0  0  0  0  0  0  0  0  0
  189.4700  176.5040  147.6120 O   0  0  0  0  0  0  0  0  0  0  0  0
  191.6900  176.7660  147.0040 N   0  0  0  0  0  1  0  0  0  0  0  0
  190.6220  176.5040  141.4900 C   0  0  0  0  0  2  0  0  0  0  0  0
  191.0350  177.0610  140.1310 C   0  0  0  0  0  2  0  0  0  0  0  0
  190.2020  176.4420  139.0170 C   0  0  0  0  0  2  0  0  0  0  0  0
  190.6850  176.8760  137.7120 N   0  0  0  0  0  2  0  0  0  0  0  0
  189.5270  177.1980  136.8890 C   0  0  2  0  0  3  0  0  0  0  0  0
  189.0580  178.6050  137.2040 C   0  0  0  0  0  1  0  0  0  0  0  0
  188.3970  176.2160  137.1740 C   0  0  0  0  0  2  0  0  0  0  0  0
  188.0950  173.7940  136.8340 C   0  0  0  0  0  3  0  0  0  0  0  0
  187.9660  171.5460  136.0970 O   0  0  0  0  0  0  0  0  0  0  0  0
  188.5750  174.9480  136.4090 C   0  0  0  0  0  0  0  0  0  0  0  0
  189.4740  174.9040  134.8590 S   0  0  0  0  0  0  0  0  0  0  0  0
  188.3940  172.7150  135.9180 C   0  0  0  0  0  0  0  0  0  0  0  0
  189.2030  173.1010  134.7280 C   0  0  2  0  0  3  0  0  0  0  0  0
  191.4340  173.0590  135.5910 O   0  0  0  0  0  1  0  0  0  0  0  0
  190.5510  172.3960  134.7370 C   0  0  0  0  0  2  0  0  0  0  0  0
  1 10  1  1  0  0  0
  1  3  1  0  0  0  0
  1 14  1  0  0  0  0
  2  9  1  0  0  0  0
  3  4  1  0  0  0  0
  4  8  1  0  0  0  0
  5 15  1  0  0  0  0
  6 17  1  6  0  0  0
  6 13  1  0  0  0  0
  7 18  1  0  0  0  0
  8  2  1  1  0  0  0
 11 10  1  0  0  0  0
 11 16  1  0  0  0  0
 12  3  2  0  0  0  0
 13  7  1  0  0  0  0
 13  9  1  6  0  0  0
 14  6  1  0  0  0  0
 14  8  1  0  0  0  0
 15  7  2  0  0  0  0
 16 17  1  0  0  0  0
 16  5  1  0  0  0  0
 18 20  1  0  0  0  0
 18 19  2  0  0  0  0
 21 16  1  0  0  0  0
 22 21  1  0  0  0  0
 23 22  1  0  0  0  0
 24 23  1  0  0  0  0
 25 27  1  0  0  0  0
 25 26  1  0  0  0  0
 25 24  1  0  0  0  0
 30 28  2  0  0  0  0
 30 27  1  0  0  0  0
 31 30  1  0  0  0  0
 32 29  2  0  0  0  0
 32 28  1  0  0  0  0
 33 35  1  0  0  0  0
 33 31  1  0  0  0  0
 33 32  1  0  0  0  0
 35 34  1  0  0  0  0
M  END
>  <MODEL>
7

>  <REMARK>
 VINA RESULT:      -7.1      1.904      2.802
  Name = 
  9 active torsions:
  status: ('A' for Active; 'I' for Inactive)
    1  A    between atoms: C_2  and  C_4
    2  A    between atoms: C_2  and  N_32
    3  A    between atoms: C_4  and  C_11
    4  A    between atoms: C_12  and  C_13
    5  A    between atoms: C_21  and  C_24
    6  A    between atoms: C_22  and  C_33
    7  A    between atoms: C_22  and  C_34
    8  A    between atoms: C_27  and  N_32
    9  A    between atoms: C_27  and  C_33
                            x       y       z     vdW  Elec       q    Type
                         _______ _______ _______ _____ _____    ______ ____

>  <TORSDO>
F 9

$$$$
=
 OpenBabel10222419173D

 35 39  0  0  1  0  0  0  0  0999 V2000
  186.8070  177.6280  145.9260 C   0  0  1  0  0  3  0  0  0  0  0  0
  189.8730  176.9490  143.8390 C   0  0  0  0  0  2  0  0  0  0  0  0
  187.8120  177.7910  147.0060 C   0  0  0  0  0  0  0  0  0  0  0  0
  189.5190  177.7430  146.4850 S   0  0  0  0  0  0  0  0  0  0  0  0
  185.6680  179.7290  142.6590 C   0  0  0  0  0  2  0  0  0  0  0  0
  187.0900  177.3050  143.4500 C   0  0  1  0  0  3  0  0  0  0  0  0
  187.3850  178.4730  141.3060 C   0  0  0  0  0  0  0  0  0  0  0  0
  188.9610  176.7590  145.0610 C   0  0  1  0  0  3  0  0  0  0  0  0
  189.3660  178.0450  142.8990 C   0  0  0  0  0  2  0  0  0  0  0  0
  186.1790  178.9980  145.6210 C   0  0  0  0  0  2  0  0  0  0  0  0
  184.8330  178.8770  144.8920 C   0  0  0  0  0  2  0  0  0  0  0  0
  187.4980  177.8500  148.1820 O   0  0  0  0  0  0  0  0  0  0  0  0
  187.9210  177.8290  142.5340 C   0  0  1  0  0  3  0  0  0  0  0  0
  187.5630  177.1100  144.7860 N   0  0  1  0  0  0  0  0  0  0  0  0
  186.3400  179.3210  141.3690 C   0  0  0  0  0  3  0  0  0  0  0  0
  184.9490  178.5710  143.3860 C   0  0  2  0  0  0  0  0  0  0  0  0
  185.6830  177.3240  143.2190 N   0  0  0  0  0  2  0  0  0  0  0  0
  188.0110  178.1970  139.9950 C   0  0  0  0  0  0  0  0  0  0  0  0
  187.4460  178.5650  138.9310 O   0  0  0  0  0  0  0  0  0  0  0  0
  189.2640  177.5220  139.9170 N   0  0  0  0  0  1  0  0  0  0  0  0
  183.5550  178.3740  142.7880 C   0  0  0  0  0  2  0  0  0  0  0  0
  182.4400  179.0050  143.6170 C   0  0  0  0  0  2  0  0  0  0  0  0
  181.0990  178.8800  142.9060 C   0  0  0  0  0  2  0  0  0  0  0  0
  180.8000  180.0930  142.1550 N   0  0  0  0  0  2  0  0  0  0  0  0
  180.1630  179.7010  140.9050 C   0  0  2  0  0  3  0  0  0  0  0  0
  179.5880  178.3050  141.0460 C   0  0  0  0  0  1  0  0  0  0  0  0
  181.1840  179.7120  139.7740 C   0  0  0  0  0  2  0  0  0  0  0  0
  181.1600  180.4430  137.4210 C   0  0  0  0  0  3  0  0  0  0  0  0
  180.8070  181.4170  135.2900 O   0  0  0  0  0  0  0  0  0  0  0  0
  180.7550  180.6140  138.6660 C   0  0  0  0  0  0  0  0  0  0  0  0
  179.6670  182.0080  138.9550 S   0  0  0  0  0  0  0  0  0  0  0  0
  180.6060  181.4410  136.5310 C   0  0  0  0  0  0  0  0  0  0  0  0
  179.7440  182.4650  137.1870 C   0  0  2  0  0  3  0  0  0  0  0  0
  181.6460  183.8560  137.5950 O   0  0  0  0  0  1  0  0  0  0  0  0
  180.3570  183.8510  137.0600 C   0  0  0  0  0  2  0  0  0  0  0  0
  1 10  1  6  0  0  0
  1  3  1  0  0  0  0
  3 12  2  0  0  0  0
  4  3  1  0  0  0  0
  5 16  1  0  0  0  0
  6 17  1  1  0  0  0
  6 14  1  0  0  0  0
  7 15  2  0  0  0  0
  7 13  1  0  0  0  0
  8  2  1  6  0  0  0
  8  4  1  0  0  0  0
  9  2  1  0  0  0  0
 11 10  1  0  0  0  0
 13  9  1  1  0  0  0
 13  6  1  0  0  0  0
 14  8  1  0  0  0  0
 14  1  1  0  0  0  0
 15  5  1  0  0  0  0
 16 11  1  0  0  0  0
 17 16  1  0  0  0  0
 18  7  1  0  0  0  0
 19 18  2  0  0  0  0
 20 18  1  0  0  0  0
 21 16  1  0  0  0  0
 21 22  1  0  0  0  0
 23 22  1  0  0  0  0
 24 23  1  0  0  0  0
 25 26  1  0  0  0  0
 25 24  1  0  0  0  0
 27 25  1  0  0  0  0
 28 30  2  0  0  0  0
 29 32  2  0  0  0  0
 30 31  1  0  0  0  0
 30 27  1  0  0  0  0
 32 33  1  0  0  0  0
 32 28  1  0  0  0  0
 33 31  1  0  0  0  0
 35 33  1  0  0  0  0
 35 34  1  0  0  0  0
M  END
>  <MODEL>
8

>  <REMARK>
 VINA RESULT:      -6.9      4.222      7.412
  Name = 
  9 active torsions:
  status: ('A' for Active; 'I' for Inactive)
    1  A    between atoms: C_2  and  C_4
    2  A    between atoms: C_2  and  N_32
    3  A    between atoms: C_4  and  C_11
    4  A    between atoms: C_12  and  C_13
    5  A    between atoms: C_21  and  C_24
    6  A    between atoms: C_22  and  C_33
    7  A    between atoms: C_22  and  C_34
    8  A    between atoms: C_27  and  N_32
    9  A    between atoms: C_27  and  C_33
                            x       y       z     vdW  Elec       q    Type
                         _______ _______ _______ _____ _____    ______ ____

>  <TORSDO>
F 9

$$$$
=
 OpenBabel10222419173D

 35 39  0  0  1  0  0  0  0  0999 V2000
  193.4570  174.5870  137.1420 C   0  0  1  0  0  3  0  0  0  0  0  0
  191.2040  172.3770  135.0780 C   0  0  0  0  0  2  0  0  0  0  0  0
  194.4850  174.1060  136.1860 C   0  0  0  0  0  0  0  0  0  0  0  0
  193.8760  173.1210  134.8270 S   0  0  0  0  0  0  0  0  0  0  0  0
  190.2830  177.0970  136.9960 C   0  0  0  0  0  2  0  0  0  0  0  0
  190.9640  174.2630  137.1780 C   0  0  1  0  0  3  0  0  0  0  0  0
  188.8250  175.1460  136.3450 C   0  0  0  0  0  0  0  0  0  0  0  0
  192.4690  172.6870  135.8940 C   0  0  1  0  0  3  0  0  0  0  0  0
  190.3070  173.6050  134.9050 C   0  0  0  0  0  2  0  0  0  0  0  0
  193.2040  176.0820  136.8900 C   0  0  0  0  0  2  0  0  0  0  0  0
  192.5430  176.7760  138.0910 C   0  0  0  0  0  2  0  0  0  0  0  0
  195.6770  174.2850  136.3710 O   0  0  0  0  0  0  0  0  0  0  0  0
  190.0150  174.2610  136.2270 C   0  0  1  0  0  3  0  0  0  0  0  0
  192.2710  173.7800  136.8530 N   0  0  1  0  0  0  0  0  0  0  0  0
  188.9540  176.4330  136.7200 C   0  0  0  0  0  3  0  0  0  0  0  0
  191.0300  176.5210  138.2210 C   0  0  2  0  0  0  0  0  0  0  0  0
  190.8060  175.0860  138.3310 N   0  0  0  0  0  2  0  0  0  0  0  0
  187.4800  174.6180  136.0310 C   0  0  0  0  0  0  0  0  0  0  0  0
  187.2120  173.4030  136.2270 O   0  0  0  0  0  0  0  0  0  0  0  0
  186.4660  175.4770  135.5140 N   0  0  0  0  0  1  0  0  0  0  0  0
  190.5020  177.1740  139.4990 C   0  0  0  0  0  2  0  0  0  0  0  0
  191.5290  177.2300  140.6260 C   0  0  0  0  0  2  0  0  0  0  0  0
  190.9080  176.7930  141.9460 C   0  0  0  0  0  2  0  0  0  0  0  0
  191.6670  177.3240  143.0720 N   0  0  0  0  0  2  0  0  0  0  0  0
  190.7930  178.2160  143.8210 C   0  0  2  0  0  3  0  0  0  0  0  0
  191.5640  179.4570  144.2280 C   0  0  0  0  0  1  0  0  0  0  0  0
  190.2790  177.5120  145.0710 C   0  0  0  0  0  2  0  0  0  0  0  0
  188.0230  177.6330  144.0880 C   0  0  0  0  0  3  0  0  0  0  0  0
  185.7130  177.6740  143.5600 O   0  0  0  0  0  0  0  0  0  0  0  0
  188.7920  177.5810  145.1600 C   0  0  0  0  0  0  0  0  0  0  0  0
  187.9440  177.6160  146.7390 S   0  0  0  0  0  0  0  0  0  0  0  0
  186.6190  177.6920  144.4330 C   0  0  0  0  0  0  0  0  0  0  0  0
  186.3270  177.7260  145.8950 C   0  0  2  0  0  3  0  0  0  0  0  0
  184.2880  178.8280  146.4850 O   0  0  0  0  0  1  0  0  0  0  0  0
  185.6540  179.0330  146.2820 C   0  0  0  0  0  2  0  0  0  0  0  0
  1 10  1  6  0  0  0
  3 12  2  0  0  0  0
  3  1  1  0  0  0  0
  4  8  1  0  0  0  0
  4  3  1  0  0  0  0
  5 16  1  0  0  0  0
  6 17  1  6  0  0  0
  7 15  2  0  0  0  0
  8  2  1  6  0  0  0
  8 14  1  0  0  0  0
  9  2  1  0  0  0  0
 10 11  1  0  0  0  0
 11 16  1  0  0  0  0
 13  9  1  6  0  0  0
 13  7  1  0  0  0  0
 13  6  1  0  0  0  0
 14  1  1  0  0  0  0
 14  6  1  0  0  0  0
 15  5  1  0  0  0  0
 16 17  1  0  0  0  0
 16 21  1  0  0  0  0
 18 19  2  0  0  0  0
 18  7  1  0  0  0  0
 20 18  1  0  0  0  0
 21 22  1  0  0  0  0
 22 23  1  0  0  0  0
 23 24  1  0  0  0  0
 24 25  1  0  0  0  0
 25 26  1  0  0  0  0
 25 27  1  0  0  0  0
 27 30  1  0  0  0  0
 28 32  1  0  0  0  0
 28 30  2  0  0  0  0
 29 32  2  0  0  0  0
 30 31  1  0  0  0  0
 32 33  1  0  0  0  0
 33 35  1  0  0  0  0
 33 31  1  0  0  0  0
 35 34  1  0  0  0  0
M  END
>  <MODEL>
9

>  <REMARK>
 VINA RESULT:      -6.8      3.098      9.113
  Name = 
  9 active torsions:
  status: ('A' for Active; 'I' for Inactive)
    1  A    between atoms: C_2  and  C_4
    2  A    between atoms: C_2  and  N_32
    3  A    between atoms: C_4  and  C_11
    4  A    between atoms: C_12  and  C_13
    5  A    between atoms: C_21  and  C_24
    6  A    between atoms: C_22  and  C_33
    7  A    between atoms: C_22  and  C_34
    8  A    between atoms: C_27  and  N_32
    9  A    between atoms: C_27  and  C_33
                            x       y       z     vdW  Elec       q    Type
                         _______ _______ _______ _____ _____    ______ ____

>  <TORSDO>
F 9

$$$$
