=
 OpenBabel10222420033D

 54 62  0  0  1  0  0  0  0  0999 V2000
  186.6560  178.7430  140.7920 C   0  0  0  0  0  3  0  0  0  0  0  0
  189.5490  177.0950  145.1740 N   0  0  0  0  0  0  0  0  0  0  0  0
  186.6830  177.9680  143.0640 N   0  0  0  0  0  0  0  0  0  0  0  0
  190.8980  177.7360  142.8840 C   0  0  0  0  0  3  0  0  0  0  0  0
  184.4800  179.0420  139.5070 C   0  0  2  0  0  3  0  0  0  0  0  0
  191.5690  177.3310  143.9890 N   0  0  0  0  0  0  0  0  0  0  0  0
  185.2270  178.1080  143.2100 C   0  0  0  0  0  2  0  0  0  0  0  0
  188.8310  178.2480  141.7940 C   0  0  0  0  0  0  0  0  0  0  0  0
  184.5300  178.3880  141.9030 C   0  0  0  0  0  3  0  0  0  0  0  0
  186.8320  177.1730  145.4060 N   0  0  0  0  0  1  0  0  0  0  0  0
  190.9040  177.0170  145.1280 C   0  0  0  0  0  3  0  0  0  0  0  0
  188.1650  178.7830  137.6580 C   0  0  2  0  0  3  0  0  0  0  0  0
  187.7600  178.3320  136.2750 C   0  0  0  0  0  2  0  0  0  0  0  0
  189.2540  177.4240  139.4870 C   0  0  2  0  0  3  0  0  0  0  0  0
  189.3790  177.9630  138.0670 C   0  0  0  0  0  2  0  0  0  0  0  0
  188.8230  177.4940  144.0960 C   0  0  0  0  0  0  0  0  0  0  0  0
  187.4780  177.5450  144.1870 C   0  0  0  0  0  0  0  0  0  0  0  0
  186.9320  177.9040  137.4730 C   0  0  2  0  0  3  0  0  0  0  0  0
  189.5010  177.8400  142.8940 C   0  0  0  0  0  0  0  0  0  0  0  0
  187.3590  178.3510  141.8550 C   0  0  0  0  0  0  0  0  0  0  0  0
  185.7820  178.6970  137.5200 O   0  0  0  0  0  0  0  0  0  0  0  0
  184.8960  178.0610  138.3950 C   0  0  2  0  0  3  0  0  0  0  0  0
  189.5460  178.5280  140.4970 C   0  0  0  0  0  2  0  0  0  0  0  0
  185.1920  178.7390  140.7960 C   0  0  0  0  0  0  0  0  0  0  0  0
  182.7180  179.3510  139.6990 Cl  0  0  0  0  0  0  0  0  0  0  0  0
  183.7350  177.4150  137.6310 C   0  0  0  0  0  2  0  0  0  0  0  0
  183.6420  175.9160  137.8850 C   0  0  0  0  0  2  0  0  0  0  0  0
  182.8840  175.2590  136.7480 C   0  0  0  0  0  2  0  0  0  0  0  0
  182.5670  173.8210  137.1190 C   0  0  0  0  0  2  0  0  0  0  0  0
  182.9000  172.8790  135.9730 C   0  0  1  0  0  3  0  0  0  0  0  0
  181.7210  172.4910  135.3300 O   0  0  0  0  0  0  0  0  0  0  0  0
  180.9860  171.8110  136.3030 C   0  0  0  0  0  1  0  0  0  0  0  0
  183.8160  173.5720  134.9710 C   0  0  0  0  0  2  0  0  0  0  0  0
  185.2160  173.0100  135.0520 C   0  0  0  0  0  2  0  0  0  0  0  0
  186.9550  174.7190  134.8960 O   0  0  0  0  0  0  0  0  0  0  0  0
  187.9290  174.3750  137.0820 C   0  0  0  0  0  2  0  0  0  0  0  0
  188.1810  174.7360  135.6190 C   0  0  0  0  0  2  0  0  0  0  0  0
  185.9980  173.1730  137.8640 O   0  0  0  0  0  0  0  0  0  0  0  0
  186.1090  173.9770  135.6570 N   0  0  0  0  0  0  0  0  0  0  0  0
  186.6040  173.7980  136.9580 C   0  0  0  0  0  0  0  0  0  0  0  0
  190.1900  176.2480  139.7320 C   0  0  0  0  0  2  0  0  0  0  0  0
  191.3330  176.2180  138.7270 C   0  0  0  0  0  2  0  0  0  0  0  0
  191.3150  174.9460  138.0210 N   0  0  0  0  0  2  0  0  0  0  0  0
  194.3240  176.1520  136.1460 C   0  0  1  0  0  3  0  0  0  0  0  0
  195.4940  174.1470  137.2370 C   0  0  1  0  0  0  0  0  0  0  0  0
  194.6650  177.4120  135.6530 O   0  0  0  0  0  1  0  0  0  0  0  0
  195.8180  173.2250  136.0970 C   0  0  0  0  0  2  0  0  0  0  0  0
  197.5650  174.8660  135.9790 C   0  0  0  0  0  1  0  0  0  0  0  0
  194.0810  173.6530  137.6590 C   0  0  0  0  0  2  0  0  0  0  0  0
  195.4640  175.5960  136.8880 N   0  0  1  0  0  0  0  0  0  0  0  0
  192.1750  175.0770  136.8540 C   0  0  2  0  0  3  0  0  0  0  0  0
  192.9490  173.7760  136.6420 C   0  0  0  0  0  2  0  0  0  0  0  0
  196.0610  174.6770  135.9150 C   0  0  2  0  0  0  0  0  0  0  0  0
  193.0970  176.2800  137.0370 C   0  0  0  0  0  2  0  0  0  0  0  0
  1 24  1  0  0  0  0
  1 20  2  0  0  0  0
  3  7  1  0  0  0  0
  3 17  1  0  0  0  0
  4 19  1  0  0  0  0
  4  6  2  0  0  0  0
  5 25  1  1  0  0  0
  5 24  1  0  0  0  0
  6 11  1  0  0  0  0
  8 20  1  0  0  0  0
  8 19  2  0  0  0  0
  9  7  1  0  0  0  0
 11  2  2  0  0  0  0
 12 13  1  6  0  0  0
 12 15  1  0  0  0  0
 14 41  1  6  0  0  0
 14 23  1  0  0  0  0
 15 14  1  0  0  0  0
 16 17  2  0  0  0  0
 16  2  1  0  0  0  0
 17 10  1  0  0  0  0
 18 13  1  6  0  0  0
 18 21  1  0  0  0  0
 18 12  1  0  0  0  0
 19 16  1  0  0  0  0
 20  3  1  0  0  0  0
 21 22  1  0  0  0  0
 22 26  1  6  0  0  0
 22  5  1  0  0  0  0
 23  8  1  0  0  0  0
 24  9  2  0  0  0  0
 26 27  1  0  0  0  0
 28 29  1  0  0  0  0
 28 27  1  0  0  0  0
 30 33  1  6  0  0  0
 30 29  1  0  0  0  0
 31 30  1  0  0  0  0
 31 32  1  0  0  0  0
 33 34  1  0  0  0  0
 34 39  1  0  0  0  0
 35 37  1  0  0  0  0
 35 39  1  0  0  0  0
 37 36  1  0  0  0  0
 39 40  1  0  0  0  0
 40 36  1  0  0  0  0
 40 38  2  0  0  0  0
 42 41  1  0  0  0  0
 43 42  1  0  0  0  0
 44 46  1  1  0  0  0
 44 50  1  0  0  0  0
 44 54  1  0  0  0  0
 45 47  1  1  0  0  0
 45 49  1  0  0  0  0
 50 45  1  0  0  0  0
 51 54  1  0  0  0  0
 51 43  1  0  0  0  0
 52 51  1  0  0  0  0
 52 49  1  0  0  0  0
 53 48  1  0  0  0  0
 53 47  1  0  0  0  0
 53 50  1  0  0  0  0
 53 45  1  0  0  0  0
M  END
>  <MODEL>
1

>  <REMARK>
 VINA RESULT:      -7.9      0.000      0.000
  Name = 
  13 active torsions:
  status: ('A' for Active; 'I' for Inactive)
    1  A    between atoms: O_4  and  C_12
    2  A    between atoms: C_8  and  C_23
    3  A    between atoms: C_8  and  N_43
    4  A    between atoms: C_10  and  C_16
    5  A    between atoms: C_10  and  C_29
    6  A    between atoms: C_12  and  C_17
    7  A    between atoms: C_12  and  C_23
    8  A    between atoms: C_16  and  C_17
    9  A    between atoms: N_28  and  C_34
   10  A    between atoms: N_28  and  C_42
   11  A    between atoms: C_29  and  C_46
   12  A    between atoms: C_32  and  C_52
   13  A    between atoms: C_34  and  C_52
                            x       y       z     vdW  Elec       q    Type
                         _______ _______ _______ _____ _____    ______ ____

>  <TORSDO>
F 13

$$$$
=
 OpenBabel10222420033D

 54 62  0  0  1  0  0  0  0  0999 V2000
  186.5600  178.6710  140.8790 C   0  0  0  0  0  3  0  0  0  0  0  0
  189.7900  177.2190  145.0920 N   0  0  0  0  0  0  0  0  0  0  0  0
  186.7650  177.9770  143.1680 N   0  0  0  0  0  0  0  0  0  0  0  0
  190.9590  177.7980  142.6880 C   0  0  0  0  0  3  0  0  0  0  0  0
  184.2920  178.8930  139.7480 C   0  0  2  0  0  3  0  0  0  0  0  0
  191.7140  177.4420  143.7550 N   0  0  0  0  0  0  0  0  0  0  0  0
  185.3200  178.1020  143.4160 C   0  0  0  0  0  2  0  0  0  0  0  0
  188.8100  178.2420  141.7360 C   0  0  0  0  0  0  0  0  0  0  0  0
  184.5260  178.3250  142.1540 C   0  0  0  0  0  3  0  0  0  0  0  0
  187.0960  177.2670  145.5190 N   0  0  0  0  0  1  0  0  0  0  0  0
  191.1390  177.1590  144.9500 C   0  0  0  0  0  3  0  0  0  0  0  0
  187.8360  178.6210  137.6440 C   0  0  2  0  0  3  0  0  0  0  0  0
  187.3390  178.1150  136.3100 C   0  0  0  0  0  2  0  0  0  0  0  0
  189.0780  177.3430  139.4340 C   0  0  2  0  0  3  0  0  0  0  0  0
  189.0910  177.8330  137.9910 C   0  0  0  0  0  2  0  0  0  0  0  0
  188.9810  177.5700  144.0560 C   0  0  0  0  0  0  0  0  0  0  0  0
  187.6460  177.6050  144.2440 C   0  0  0  0  0  0  0  0  0  0  0  0
  186.6080  177.7190  137.5800 C   0  0  2  0  0  3  0  0  0  0  0  0
  189.5640  177.8830  142.7980 C   0  0  0  0  0  0  0  0  0  0  0  0
  187.3440  178.3260  141.9000 C   0  0  0  0  0  0  0  0  0  0  0  0
  185.4520  178.4970  137.6840 O   0  0  0  0  0  0  0  0  0  0  0  0
  184.6420  177.8800  138.6420 C   0  0  2  0  0  3  0  0  0  0  0  0
  189.4240  178.4860  140.3820 C   0  0  0  0  0  2  0  0  0  0  0  0
  185.1000  178.6460  140.9900 C   0  0  0  0  0  0  0  0  0  0  0  0
  182.5440  179.1850  140.0570 Cl  0  0  0  0  0  0  0  0  0  0  0  0
  183.4390  177.1910  137.9870 C   0  0  0  0  0  2  0  0  0  0  0  0
  183.0290  175.9240  138.7270 C   0  0  0  0  0  2  0  0  0  0  0  0
  181.5560  175.6560  138.4870 C   0  0  0  0  0  2  0  0  0  0  0  0
  180.9550  175.0120  139.7240 C   0  0  0  0  0  2  0  0  0  0  0  0
  179.6070  175.6340  140.0580 C   0  0  1  0  0  3  0  0  0  0  0  0
  179.2810  175.3550  141.3880 O   0  0  0  0  0  0  0  0  0  0  0  0
  179.2830  173.9620  141.4770 C   0  0  0  0  0  1  0  0  0  0  0  0
  179.6590  177.1430  139.8560 C   0  0  0  0  0  2  0  0  0  0  0  0
  179.4790  177.8630  141.1720 C   0  0  0  0  0  2  0  0  0  0  0  0
  178.9310  179.7400  139.7070 O   0  0  0  0  0  0  0  0  0  0  0  0
  179.0720  181.4870  141.3730 C   0  0  0  0  0  2  0  0  0  0  0  0
  179.3010  181.0990  139.9130 C   0  0  0  0  0  2  0  0  0  0  0  0
  178.9310  179.9110  143.1840 O   0  0  0  0  0  0  0  0  0  0  0  0
  178.9310  179.1850  140.9480 N   0  0  0  0  0  0  0  0  0  0  0  0
  178.9530  180.1630  141.9530 C   0  0  0  0  0  0  0  0  0  0  0  0
  190.0480  176.1890  139.6500 C   0  0  0  0  0  2  0  0  0  0  0  0
  191.2470  176.2790  138.7150 C   0  0  0  0  0  2  0  0  0  0  0  0
  191.5050  174.9670  138.1430 N   0  0  0  0  0  2  0  0  0  0  0  0
  194.3970  176.2580  136.1450 C   0  0  1  0  0  3  0  0  0  0  0  0
  195.6120  174.1820  137.0350 C   0  0  1  0  0  0  0  0  0  0  0  0
  194.7200  177.5430  135.7050 O   0  0  0  0  0  1  0  0  0  0  0  0
  195.8490  173.3280  135.8230 C   0  0  0  0  0  2  0  0  0  0  0  0
  197.6040  174.9590  135.6850 C   0  0  0  0  0  1  0  0  0  0  0  0
  194.2250  173.6750  137.5210 C   0  0  0  0  0  2  0  0  0  0  0  0
  195.5770  175.6500  136.7750 N   0  0  1  0  0  0  0  0  0  0  0  0
  192.2870  175.1610  136.9300 C   0  0  2  0  0  3  0  0  0  0  0  0
  193.0300  173.8690  136.5910 C   0  0  0  0  0  2  0  0  0  0  0  0
  196.0970  174.7860  135.7110 C   0  0  2  0  0  0  0  0  0  0  0  0
  193.2330  176.3430  137.1220 C   0  0  0  0  0  2  0  0  0  0  0  0
  1 24  1  0  0  0  0
  1 20  2  0  0  0  0
  3  7  1  0  0  0  0
  3 17  1  0  0  0  0
  4 19  1  0  0  0  0
  4  6  2  0  0  0  0
  5 25  1  1  0  0  0
  5 24  1  0  0  0  0
  6 11  1  0  0  0  0
  8 20  1  0  0  0  0
  8 19  2  0  0  0  0
  9  7  1  0  0  0  0
 11  2  2  0  0  0  0
 12 13  1  6  0  0  0
 12 15  1  0  0  0  0
 14 41  1  6  0  0  0
 14 23  1  0  0  0  0
 15 14  1  0  0  0  0
 16 17  2  0  0  0  0
 16  2  1  0  0  0  0
 17 10  1  0  0  0  0
 18 13  1  6  0  0  0
 18 12  1  0  0  0  0
 18 21  1  0  0  0  0
 19 16  1  0  0  0  0
 20  3  1  0  0  0  0
 21 22  1  0  0  0  0
 22 26  1  6  0  0  0
 22  5  1  0  0  0  0
 23  8  1  0  0  0  0
 24  9  2  0  0  0  0
 26 27  1  0  0  0  0
 28 27  1  0  0  0  0
 28 29  1  0  0  0  0
 30 29  1  1  0  0  0
 30 31  1  0  0  0  0
 31 32  1  0  0  0  0
 33 30  1  0  0  0  0
 33 34  1  0  0  0  0
 35 37  1  0  0  0  0
 35 39  1  0  0  0  0
 36 40  1  0  0  0  0
 37 36  1  0  0  0  0
 39 34  1  0  0  0  0
 39 40  1  0  0  0  0
 40 38  2  0  0  0  0
 42 41  1  0  0  0  0
 43 42  1  0  0  0  0
 44 46  1  1  0  0  0
 44 50  1  0  0  0  0
 44 54  1  0  0  0  0
 45 47  1  1  0  0  0
 45 49  1  0  0  0  0
 48 53  1  0  0  0  0
 50 45  1  0  0  0  0
 51 54  1  0  0  0  0
 51 43  1  0  0  0  0
 52 51  1  0  0  0  0
 52 49  1  0  0  0  0
 53 47  1  0  0  0  0
 53 50  1  0  0  0  0
 53 45  1  0  0  0  0
M  END
>  <MODEL>
2

>  <REMARK>
 VINA RESULT:      -7.8      2.956      4.389
  Name = 
  13 active torsions:
  status: ('A' for Active; 'I' for Inactive)
    1  A    between atoms: O_4  and  C_12
    2  A    between atoms: C_8  and  C_23
    3  A    between atoms: C_8  and  N_43
    4  A    between atoms: C_10  and  C_16
    5  A    between atoms: C_10  and  C_29
    6  A    between atoms: C_12  and  C_17
    7  A    between atoms: C_12  and  C_23
    8  A    between atoms: C_16  and  C_17
    9  A    between atoms: N_28  and  C_34
   10  A    between atoms: N_28  and  C_42
   11  A    between atoms: C_29  and  C_46
   12  A    between atoms: C_32  and  C_52
   13  A    between atoms: C_34  and  C_52
                            x       y       z     vdW  Elec       q    Type
                         _______ _______ _______ _____ _____    ______ ____

>  <TORSDO>
F 13

$$$$
=
 OpenBabel10222420033D

 54 62  0  0  1  0  0  0  0  0999 V2000
  183.9360  175.8580  136.9240 C   0  0  0  0  0  3  0  0  0  0  0  0
  179.2920  176.3440  139.8390 N   0  0  0  0  0  0  0  0  0  0  0  0
  181.9680  174.8330  137.8430 N   0  0  0  0  0  0  0  0  0  0  0  0
  180.8770  178.5500  139.5280 C   0  0  0  0  0  3  0  0  0  0  0  0
  185.7450  174.4870  135.7750 C   0  0  2  0  0  3  0  0  0  0  0  0
  179.7210  178.6240  140.2320 N   0  0  0  0  0  0  0  0  0  0  0  0
  182.2560  173.5360  137.2110 C   0  0  0  0  0  2  0  0  0  0  0  0
  182.4280  177.2690  138.2340 C   0  0  0  0  0  0  0  0  0  0  0  0
  183.6320  173.4740  136.5980 C   0  0  0  0  0  3  0  0  0  0  0  0
  179.9020  173.8840  138.8280 N   0  0  0  0  0  1  0  0  0  0  0  0
  178.9310  177.5330  140.3840 C   0  0  0  0  0  3  0  0  0  0  0  0
  186.3750  178.3260  137.1620 C   0  0  2  0  0  3  0  0  0  0  0  0
  187.8760  178.3280  137.3270 C   0  0  0  0  0  2  0  0  0  0  0  0
  184.6060  178.2220  138.9620 C   0  0  2  0  0  3  0  0  0  0  0  0
  185.7810  179.0040  138.3880 C   0  0  0  0  0  2  0  0  0  0  0  0
  180.4410  176.2090  139.1220 C   0  0  0  0  0  0  0  0  0  0  0  0
  180.7620  175.0040  138.6090 C   0  0  0  0  0  0  0  0  0  0  0  0
  187.1030  177.0390  137.5320 C   0  0  2  0  0  3  0  0  0  0  0  0
  181.2790  177.3430  138.9400 C   0  0  0  0  0  0  0  0  0  0  0  0
  182.8080  175.9790  137.6240 C   0  0  0  0  0  0  0  0  0  0  0  0
  187.2580  176.2450  136.3920 O   0  0  0  0  0  0  0  0  0  0  0  0
  186.8450  174.9570  136.7450 C   0  0  2  0  0  3  0  0  0  0  0  0
  183.3570  178.4510  138.1180 C   0  0  0  0  0  2  0  0  0  0  0  0
  184.3860  174.5620  136.4130 C   0  0  0  0  0  0  0  0  0  0  0  0
  186.0510  172.9550  134.8820 Cl  0  0  0  0  0  0  0  0  0  0  0  0
  188.0440  174.0100  136.8750 C   0  0  0  0  0  2  0  0  0  0  0  0
  189.1120  174.2860  135.8260 C   0  0  0  0  0  2  0  0  0  0  0  0
  190.3990  173.5880  136.2220 C   0  0  0  0  0  2  0  0  0  0  0  0
  191.5580  174.5600  136.0900 C   0  0  0  0  0  2  0  0  0  0  0  0
  192.1140  174.9280  137.4580 C   0  0  1  0  0  3  0  0  0  0  0  0
  193.5110  174.8960  137.4180 O   0  0  0  0  0  0  0  0  0  0  0  0
  193.8820  176.0930  136.8030 C   0  0  0  0  0  1  0  0  0  0  0  0
  191.6520  176.3250  137.8550 C   0  0  0  0  0  2  0  0  0  0  0  0
  190.5660  176.2490  138.9020 C   0  0  0  0  0  2  0  0  0  0  0  0
  192.1370  177.3710  140.3990 O   0  0  0  0  0  0  0  0  0  0  0  0
  190.6350  177.6530  142.2730 C   0  0  0  0  0  2  0  0  0  0  0  0
  192.0710  177.3910  141.8210 C   0  0  0  0  0  2  0  0  0  0  0  0
  188.6950  177.2600  140.9070 O   0  0  0  0  0  0  0  0  0  0  0  0
  190.8580  177.1570  139.9910 N   0  0  0  0  0  0  0  0  0  0  0  0
  189.9410  177.3660  141.0320 C   0  0  0  0  0  0  0  0  0  0  0  0
  184.3220  178.6050  140.4080 C   0  0  0  0  0  2  0  0  0  0  0  0
  185.6020  178.7000  141.2280 C   0  0  0  0  0  2  0  0  0  0  0  0
  185.4640  177.8830  142.4230 N   0  0  0  0  0  2  0  0  0  0  0  0
  185.9380  178.6710  146.0530 C   0  0  1  0  0  3  0  0  0  0  0  0
  187.8500  176.9660  145.9140 C   0  0  1  0  0  0  0  0  0  0  0  0
  185.0600  179.1710  147.0150 O   0  0  0  0  0  1  0  0  0  0  0  0
  189.0990  177.7720  146.1280 C   0  0  0  0  0  2  0  0  0  0  0  0
  188.2660  177.4640  148.3570 C   0  0  0  0  0  1  0  0  0  0  0  0
  187.6870  177.0280  144.3690 C   0  0  0  0  0  2  0  0  0  0  0  0
  186.6330  177.4950  146.5950 N   0  0  1  0  0  0  0  0  0  0  0  0
  185.9630  178.6610  143.5490 C   0  0  2  0  0  3  0  0  0  0  0  0
  187.4570  178.3960  143.7310 C   0  0  0  0  0  2  0  0  0  0  0  0
  187.9300  178.0480  146.9980 C   0  0  2  0  0  0  0  0  0  0  0  0
  185.1540  178.3180  144.7980 C   0  0  0  0  0  2  0  0  0  0  0  0
  1 20  2  0  0  0  0
  2 11  2  0  0  0  0
  3 17  1  0  0  0  0
  4  6  2  0  0  0  0
  5 25  1  1  0  0  0
  5 24  1  0  0  0  0
  5 22  1  0  0  0  0
  6 11  1  0  0  0  0
  7  3  1  0  0  0  0
  8 19  2  0  0  0  0
  9  7  1  0  0  0  0
 12 13  1  1  0  0  0
 12 18  1  0  0  0  0
 12 15  1  0  0  0  0
 14 41  1  1  0  0  0
 15 14  1  0  0  0  0
 16  2  1  0  0  0  0
 17 10  1  0  0  0  0
 17 16  2  0  0  0  0
 18 13  1  6  0  0  0
 19 16  1  0  0  0  0
 19  4  1  0  0  0  0
 20  3  1  0  0  0  0
 20  8  1  0  0  0  0
 21 22  1  0  0  0  0
 21 18  1  0  0  0  0
 22 26  1  6  0  0  0
 23  8  1  0  0  0  0
 23 14  1  0  0  0  0
 24  9  2  0  0  0  0
 24  1  1  0  0  0  0
 27 28  1  0  0  0  0
 27 26  1  0  0  0  0
 29 28  1  0  0  0  0
 30 29  1  6  0  0  0
 30 33  1  0  0  0  0
 31 30  1  0  0  0  0
 32 31  1  0  0  0  0
 33 34  1  0  0  0  0
 34 39  1  0  0  0  0
 35 37  1  0  0  0  0
 37 36  1  0  0  0  0
 38 40  2  0  0  0  0
 39 35  1  0  0  0  0
 39 40  1  0  0  0  0
 40 36  1  0  0  0  0
 41 42  1  0  0  0  0
 42 43  1  0  0  0  0
 43 51  1  0  0  0  0
 44 50  1  0  0  0  0
 44 46  1  1  0  0  0
 45 49  1  6  0  0  0
 45 47  1  0  0  0  0
 45 50  1  0  0  0  0
 45 53  1  0  0  0  0
 47 53  1  0  0  0  0
 50 53  1  0  0  0  0
 51 52  1  0  0  0  0
 51 54  1  0  0  0  0
 52 49  1  0  0  0  0
 53 48  1  0  0  0  0
 54 44  1  0  0  0  0
M  END
>  <MODEL>
3

>  <REMARK>
 VINA RESULT:      -7.4      3.309      9.092
  Name = 
  13 active torsions:
  status: ('A' for Active; 'I' for Inactive)
    1  A    between atoms: O_4  and  C_12
    2  A    between atoms: C_8  and  C_23
    3  A    between atoms: C_8  and  N_43
    4  A    between atoms: C_10  and  C_16
    5  A    between atoms: C_10  and  C_29
    6  A    between atoms: C_12  and  C_17
    7  A    between atoms: C_12  and  C_23
    8  A    between atoms: C_16  and  C_17
    9  A    between atoms: N_28  and  C_34
   10  A    between atoms: N_28  and  C_42
   11  A    between atoms: C_29  and  C_46
   12  A    between atoms: C_32  and  C_52
   13  A    between atoms: C_34  and  C_52
                            x       y       z     vdW  Elec       q    Type
                         _______ _______ _______ _____ _____    ______ ____

>  <TORSDO>
F 13

$$$$
=
 OpenBabel10222420033D

 54 62  0  0  1  0  0  0  0  0999 V2000
  185.0560  177.9980  138.5060 C   0  0  0  0  0  3  0  0  0  0  0  0
  180.2340  177.8130  141.1520 N   0  0  0  0  0  0  0  0  0  0  0  0
  182.7670  177.2760  138.5580 N   0  0  0  0  0  0  0  0  0  0  0  0
  182.3410  179.0670  142.3620 C   0  0  0  0  0  3  0  0  0  0  0  0
  186.6470  177.2620  136.6610 C   0  0  2  0  0  3  0  0  0  0  0  0
  181.1330  179.0020  142.9720 N   0  0  0  0  0  0  0  0  0  0  0  0
  182.8340  176.7080  137.2040 C   0  0  0  0  0  2  0  0  0  0  0  0
  183.7340  178.5660  140.4830 C   0  0  0  0  0  0  0  0  0  0  0  0
  184.2390  176.6550  136.6590 C   0  0  0  0  0  3  0  0  0  0  0  0
  180.3900  176.5930  138.7170 N   0  0  0  0  0  1  0  0  0  0  0  0
  180.0850  178.3860  142.3740 C   0  0  0  0  0  3  0  0  0  0  0  0
  187.9450  178.8160  140.2610 C   0  0  2  0  0  3  0  0  0  0  0  0
  189.3470  178.2590  140.3250 C   0  0  0  0  0  2  0  0  0  0  0  0
  185.9150  178.0920  141.5790 C   0  0  2  0  0  3  0  0  0  0  0  0
  187.3280  178.6580  141.6440 C   0  0  0  0  0  2  0  0  0  0  0  0
  181.4220  177.8460  140.4910 C   0  0  0  0  0  0  0  0  0  0  0  0
  181.5240  177.2530  139.2840 C   0  0  0  0  0  0  0  0  0  0  0  0
  188.2570  177.4640  139.6300 C   0  0  2  0  0  3  0  0  0  0  0  0
  182.5320  178.4980  141.0950 C   0  0  0  0  0  0  0  0  0  0  0  0
  183.8870  177.9600  139.1440 C   0  0  0  0  0  0  0  0  0  0  0  0
  188.4120  177.6180  138.2490 O   0  0  0  0  0  0  0  0  0  0  0  0
  187.6390  176.6190  137.6480 C   0  0  2  0  0  3  0  0  0  0  0  0
  184.9300  179.1810  141.1640 C   0  0  0  0  0  2  0  0  0  0  0  0
  185.2580  177.3020  137.2330 C   0  0  0  0  0  0  0  0  0  0  0  0
  186.7210  176.6980  134.9550 Cl  0  0  0  0  0  0  0  0  0  0  0  0
  188.5260  175.5190  137.0540 C   0  0  0  0  0  2  0  0  0  0  0  0
  189.9620  175.9850  136.8500 C   0  0  0  0  0  2  0  0  0  0  0  0
  190.8880  174.7840  136.8650 C   0  0  0  0  0  2  0  0  0  0  0  0
  192.0010  175.0200  137.8700 C   0  0  0  0  0  2  0  0  0  0  0  0
  192.8490  176.2180  137.4690 C   0  0  1  0  0  3  0  0  0  0  0  0
  193.5440  176.6910  138.5840 O   0  0  0  0  0  0  0  0  0  0  0  0
  192.5600  177.1860  139.4410 C   0  0  0  0  0  1  0  0  0  0  0  0
  193.8430  175.8190  136.3850 C   0  0  0  0  0  2  0  0  0  0  0  0
  194.4860  174.4920  136.7160 C   0  0  0  0  0  2  0  0  0  0  0  0
  196.7330  175.4230  136.4760 O   0  0  0  0  0  0  0  0  0  0  0  0
  197.9040  173.7480  137.7680 C   0  0  0  0  0  2  0  0  0  0  0  0
  197.9540  174.6980  136.5730 C   0  0  0  0  0  2  0  0  0  0  0  0
  195.8710  172.9720  138.7930 O   0  0  0  0  0  0  0  0  0  0  0  0
  195.8370  174.6980  137.1960 N   0  0  0  0  0  0  0  0  0  0  0  0
  196.4740  173.7480  138.0100 C   0  0  0  0  0  0  0  0  0  0  0  0
  185.4820  177.4930  142.9100 C   0  0  0  0  0  2  0  0  0  0  0  0
  185.6340  178.4880  144.0520 C   0  0  0  0  0  2  0  0  0  0  0  0
  185.8710  177.7620  145.2900 N   0  0  0  0  0  2  0  0  0  0  0  0
  188.7420  177.8210  147.6930 C   0  0  1  0  0  3  0  0  0  0  0  0
  189.9330  176.4110  145.9120 C   0  0  1  0  0  0  0  0  0  0  0  0
  188.7890  178.0060  149.0760 O   0  0  0  0  0  1  0  0  0  0  0  0
  191.0390  177.2910  145.4030 C   0  0  0  0  0  2  0  0  0  0  0  0
  191.9350  176.4300  147.4560 C   0  0  0  0  0  1  0  0  0  0  0  0
  188.7640  176.7770  144.9540 C   0  0  0  0  0  2  0  0  0  0  0  0
  189.5440  176.6440  147.3330 N   0  0  1  0  0  0  0  0  0  0  0  0
  187.0500  178.3390  145.9200 C   0  0  2  0  0  3  0  0  0  0  0  0
  188.2460  178.2120  144.9770 C   0  0  0  0  0  2  0  0  0  0  0  0
  190.7980  177.2440  146.8660 C   0  0  2  0  0  0  0  0  0  0  0  0
  187.2920  177.6520  147.2620 C   0  0  0  0  0  2  0  0  0  0  0  0
  1 20  2  0  0  0  0
  2 11  2  0  0  0  0
  3 20  1  0  0  0  0
  3 17  1  0  0  0  0
  4  6  2  0  0  0  0
  5 25  1  6  0  0  0
  5 24  1  0  0  0  0
  5 22  1  0  0  0  0
  7  3  1  0  0  0  0
  8 19  2  0  0  0  0
  8 23  1  0  0  0  0
  9  7  1  0  0  0  0
  9 24  2  0  0  0  0
 10 17  1  0  0  0  0
 11  6  1  0  0  0  0
 12 13  1  1  0  0  0
 12 15  1  0  0  0  0
 14 15  1  0  0  0  0
 14 41  1  1  0  0  0
 16 19  1  0  0  0  0
 16  2  1  0  0  0  0
 17 16  2  0  0  0  0
 18 12  1  0  0  0  0
 18 13  1  1  0  0  0
 19  4  1  0  0  0  0
 20  8  1  0  0  0  0
 21 18  1  0  0  0  0
 22 26  1  6  0  0  0
 22 21  1  0  0  0  0
 23 14  1  0  0  0  0
 24  1  1  0  0  0  0
 27 28  1  0  0  0  0
 27 26  1  0  0  0  0
 28 29  1  0  0  0  0
 30 33  1  6  0  0  0
 30 29  1  0  0  0  0
 30 31  1  0  0  0  0
 31 32  1  0  0  0  0
 33 34  1  0  0  0  0
 34 39  1  0  0  0  0
 35 37  1  0  0  0  0
 35 39  1  0  0  0  0
 36 40  1  0  0  0  0
 37 36  1  0  0  0  0
 39 40  1  0  0  0  0
 40 38  2  0  0  0  0
 41 42  1  0  0  0  0
 42 43  1  0  0  0  0
 43 51  1  0  0  0  0
 44 46  1  1  0  0  0
 45 49  1  6  0  0  0
 45 53  1  0  0  0  0
 45 50  1  0  0  0  0
 47 45  1  0  0  0  0
 47 53  1  0  0  0  0
 49 52  1  0  0  0  0
 50 44  1  0  0  0  0
 51 54  1  0  0  0  0
 52 51  1  0  0  0  0
 53 50  1  0  0  0  0
 53 48  1  0  0  0  0
 54 44  1  0  0  0  0
M  END
>  <MODEL>
4

>  <REMARK>
 VINA RESULT:      -7.4      3.166      8.856
  Name = 
  13 active torsions:
  status: ('A' for Active; 'I' for Inactive)
    1  A    between atoms: O_4  and  C_12
    2  A    between atoms: C_8  and  C_23
    3  A    between atoms: C_8  and  N_43
    4  A    between atoms: C_10  and  C_16
    5  A    between atoms: C_10  and  C_29
    6  A    between atoms: C_12  and  C_17
    7  A    between atoms: C_12  and  C_23
    8  A    between atoms: C_16  and  C_17
    9  A    between atoms: N_28  and  C_34
   10  A    between atoms: N_28  and  C_42
   11  A    between atoms: C_29  and  C_46
   12  A    between atoms: C_32  and  C_52
   13  A    between atoms: C_34  and  C_52
                            x       y       z     vdW  Elec       q    Type
                         _______ _______ _______ _____ _____    ______ ____

>  <TORSDO>
F 13

$$$$
=
 OpenBabel10222420033D

 54 62  0  0  1  0  0  0  0  0999 V2000
  186.4350  178.6610  140.7440 C   0  0  0  0  0  3  0  0  0  0  0  0
  189.9710  177.3010  144.7370 N   0  0  0  0  0  0  0  0  0  0  0  0
  186.8090  178.0080  143.0240 N   0  0  0  0  0  0  0  0  0  0  0  0
  190.9590  177.8460  142.2460 C   0  0  0  0  0  3  0  0  0  0  0  0
  184.0900  178.8500  139.7760 C   0  0  2  0  0  3  0  0  0  0  0  0
  191.7920  177.5130  143.2610 N   0  0  0  0  0  0  0  0  0  0  0  0
  185.3860  178.1280  143.3730 C   0  0  0  0  0  2  0  0  0  0  0  0
  188.7440  178.2600  141.4440 C   0  0  0  0  0  0  0  0  0  0  0  0
  184.5010  178.3250  142.1690 C   0  0  0  0  0  3  0  0  0  0  0  0
  187.3150  177.3400  145.3570 N   0  0  0  0  0  1  0  0  0  0  0  0
  191.3070  177.2470  144.4990 C   0  0  0  0  0  3  0  0  0  0  0  0
  187.4750  178.5630  137.4270 C   0  0  2  0  0  3  0  0  0  0  0  0
  186.8880  178.0320  136.1420 C   0  0  0  0  0  2  0  0  0  0  0  0
  188.8520  177.3230  139.1440 C   0  0  2  0  0  3  0  0  0  0  0  0
  188.7580  177.7890  137.6960 C   0  0  0  0  0  2  0  0  0  0  0  0
  189.0870  177.6290  143.7570 C   0  0  0  0  0  0  0  0  0  0  0  0
  187.7680  177.6590  144.0400 C   0  0  0  0  0  0  0  0  0  0  0  0
  186.2530  177.6530  137.4670 C   0  0  2  0  0  3  0  0  0  0  0  0
  189.5760  177.9240  142.4540 C   0  0  0  0  0  0  0  0  0  0  0  0
  187.2930  178.3390  141.7120 C   0  0  0  0  0  0  0  0  0  0  0  0
  185.1010  178.4250  137.6410 O   0  0  0  0  0  0  0  0  0  0  0  0
  184.3670  177.8200  138.6650 C   0  0  2  0  0  3  0  0  0  0  0  0
  189.2580  178.4850  140.0450 C   0  0  0  0  0  2  0  0  0  0  0  0
  184.9880  178.6290  140.9610 C   0  0  0  0  0  0  0  0  0  0  0  0
  182.3670  179.1360  140.2060 Cl  0  0  0  0  0  0  0  0  0  0  0  0
  183.1250  177.1120  138.1110 C   0  0  0  0  0  2  0  0  0  0  0  0
  183.2330  176.8510  136.6140 C   0  0  0  0  0  2  0  0  0  0  0  0
  183.1080  175.3630  136.3530 C   0  0  0  0  0  2  0  0  0  0  0  0
  184.3040  174.8920  135.5440 C   0  0  0  0  0  2  0  0  0  0  0  0
  184.6440  173.4460  135.8710 C   0  0  1  0  0  3  0  0  0  0  0  0
  186.0310  173.3030  135.9630 O   0  0  0  0  0  0  0  0  0  0  0  0
  186.3910  173.9990  137.1180 C   0  0  0  0  0  1  0  0  0  0  0  0
  184.0050  173.0410  137.1940 C   0  0  0  0  0  2  0  0  0  0  0  0
  183.3770  171.6720  137.0850 C   0  0  0  0  0  2  0  0  0  0  0  0
  180.9940  172.1700  137.2810 O   0  0  0  0  0  0  0  0  0  0  0  0
  180.2190  170.6800  135.5410 C   0  0  0  0  0  2  0  0  0  0  0  0
  179.9240  171.3110  136.9010 C   0  0  0  0  0  2  0  0  0  0  0  0
  182.4200  170.4780  134.5940 O   0  0  0  0  0  0  0  0  0  0  0  0
  182.0480  171.7750  136.5200 N   0  0  0  0  0  0  0  0  0  0  0  0
  181.6410  170.9530  135.4580 C   0  0  0  0  0  0  0  0  0  0  0  0
  189.8440  176.1800  139.3090 C   0  0  0  0  0  2  0  0  0  0  0  0
  190.2860  175.6190  137.9640 C   0  0  0  0  0  2  0  0  0  0  0  0
  191.5990  175.0110  138.1080 N   0  0  0  0  0  2  0  0  0  0  0  0
  194.4680  176.2710  136.0580 C   0  0  1  0  0  3  0  0  0  0  0  0
  195.5900  174.0660  136.7340 C   0  0  1  0  0  0  0  0  0  0  0  0
  194.8490  177.5630  135.6950 O   0  0  0  0  0  1  0  0  0  0  0  0
  195.7140  173.2910  135.4540 C   0  0  0  0  0  2  0  0  0  0  0  0
  197.5600  174.8210  135.3400 C   0  0  0  0  0  1  0  0  0  0  0  0
  194.1990  173.6080  137.2540 C   0  0  0  0  0  2  0  0  0  0  0  0
  195.6360  175.5490  136.5810 N   0  0  1  0  0  0  0  0  0  0  0  0
  192.3330  175.2460  136.8730 C   0  0  2  0  0  3  0  0  0  0  0  0
  192.9750  173.9410  136.4040 C   0  0  0  0  0  2  0  0  0  0  0  0
  196.0490  174.7360  135.4330 C   0  0  2  0  0  0  0  0  0  0  0  0
  193.3600  176.3530  137.0990 C   0  0  0  0  0  2  0  0  0  0  0  0
  1 24  1  0  0  0  0
  1 20  2  0  0  0  0
  3  7  1  0  0  0  0
  3 17  1  0  0  0  0
  4 19  1  0  0  0  0
  4  6  2  0  0  0  0
  5 25  1  1  0  0  0
  5 24  1  0  0  0  0
  6 11  1  0  0  0  0
  8 20  1  0  0  0  0
  8 19  2  0  0  0  0
  9  7  1  0  0  0  0
 11  2  2  0  0  0  0
 12 13  1  6  0  0  0
 12 18  1  0  0  0  0
 12 15  1  0  0  0  0
 14 41  1  6  0  0  0
 14 23  1  0  0  0  0
 15 14  1  0  0  0  0
 16 17  2  0  0  0  0
 16  2  1  0  0  0  0
 17 10  1  0  0  0  0
 18 13  1  6  0  0  0
 18 21  1  0  0  0  0
 19 16  1  0  0  0  0
 20  3  1  0  0  0  0
 21 22  1  0  0  0  0
 22 26  1  6  0  0  0
 22  5  1  0  0  0  0
 23  8  1  0  0  0  0
 24  9  2  0  0  0  0
 27 26  1  0  0  0  0
 28 27  1  0  0  0  0
 29 28  1  0  0  0  0
 30 29  1  1  0  0  0
 30 31  1  0  0  0  0
 30 33  1  0  0  0  0
 31 32  1  0  0  0  0
 34 33  1  0  0  0  0
 36 37  1  0  0  0  0
 37 35  1  0  0  0  0
 38 40  2  0  0  0  0
 39 34  1  0  0  0  0
 39 35  1  0  0  0  0
 40 36  1  0  0  0  0
 40 39  1  0  0  0  0
 42 43  1  0  0  0  0
 42 41  1  0  0  0  0
 44 46  1  1  0  0  0
 44 50  1  0  0  0  0
 44 54  1  0  0  0  0
 45 47  1  1  0  0  0
 45 49  1  0  0  0  0
 48 53  1  0  0  0  0
 50 45  1  0  0  0  0
 51 54  1  0  0  0  0
 51 43  1  0  0  0  0
 52 51  1  0  0  0  0
 52 49  1  0  0  0  0
 53 47  1  0  0  0  0
 53 50  1  0  0  0  0
 53 45  1  0  0  0  0
M  END
>  <MODEL>
5

>  <REMARK>
 VINA RESULT:      -7.2      1.120      2.679
  Name = 
  13 active torsions:
  status: ('A' for Active; 'I' for Inactive)
    1  A    between atoms: O_4  and  C_12
    2  A    between atoms: C_8  and  C_23
    3  A    between atoms: C_8  and  N_43
    4  A    between atoms: C_10  and  C_16
    5  A    between atoms: C_10  and  C_29
    6  A    between atoms: C_12  and  C_17
    7  A    between atoms: C_12  and  C_23
    8  A    between atoms: C_16  and  C_17
    9  A    between atoms: N_28  and  C_34
   10  A    between atoms: N_28  and  C_42
   11  A    between atoms: C_29  and  C_46
   12  A    between atoms: C_32  and  C_52
   13  A    between atoms: C_34  and  C_52
                            x       y       z     vdW  Elec       q    Type
                         _______ _______ _______ _____ _____    ______ ____

>  <TORSDO>
F 13

$$$$
=
 OpenBabel10222420033D

 54 62  0  0  1  0  0  0  0  0999 V2000
  186.5700  178.7130  140.7970 C   0  0  0  0  0  3  0  0  0  0  0  0
  189.6360  177.1250  145.0830 N   0  0  0  0  0  0  0  0  0  0  0  0
  186.6860  177.9300  143.0640 N   0  0  0  0  0  0  0  0  0  0  0  0
  190.8980  177.8100  142.7570 C   0  0  0  0  0  3  0  0  0  0  0  0
  184.3500  178.9590  139.5800 C   0  0  2  0  0  3  0  0  0  0  0  0
  191.6120  177.4190  143.8400 N   0  0  0  0  0  0  0  0  0  0  0  0
  185.2310  178.0310  143.2540 C   0  0  0  0  0  2  0  0  0  0  0  0
  188.7860  178.2710  141.7320 C   0  0  0  0  0  0  0  0  0  0  0  0
  184.4880  178.2970  141.9700 C   0  0  0  0  0  3  0  0  0  0  0  0
  186.9260  177.1300  145.3970 N   0  0  0  0  0  1  0  0  0  0  0  0
  190.9900  177.0830  144.9970 C   0  0  0  0  0  3  0  0  0  0  0  0
  187.9830  178.8050  137.6200 C   0  0  2  0  0  3  0  0  0  0  0  0
  187.5490  178.3490  136.2480 C   0  0  0  0  0  2  0  0  0  0  0  0
  189.1620  177.4680  139.4090 C   0  0  2  0  0  3  0  0  0  0  0  0
  189.2300  178.0160  137.9890 C   0  0  0  0  0  2  0  0  0  0  0  0
  188.8670  177.5090  144.0290 C   0  0  0  0  0  0  0  0  0  0  0  0
  187.5250  177.5230  144.1610 C   0  0  0  0  0  0  0  0  0  0  0  0
  186.7690  177.8950  137.4680 C   0  0  2  0  0  3  0  0  0  0  0  0
  189.4990  177.8770  142.8100 C   0  0  0  0  0  0  0  0  0  0  0  0
  187.3140  178.3360  141.8360 C   0  0  0  0  0  0  0  0  0  0  0  0
  185.6000  178.6570  137.5530 O   0  0  0  0  0  0  0  0  0  0  0  0
  184.7580  177.9940  138.4510 C   0  0  2  0  0  3  0  0  0  0  0  0
  189.4550  178.5760  140.4160 C   0  0  0  0  0  2  0  0  0  0  0  0
  185.1080  178.6700  140.8450 C   0  0  0  0  0  0  0  0  0  0  0  0
  182.5870  179.2210  139.8250 Cl  0  0  0  0  0  0  0  0  0  0  0  0
  183.5910  177.3210  137.7180 C   0  0  0  0  0  2  0  0  0  0  0  0
  183.6230  175.8040  137.8590 C   0  0  0  0  0  2  0  0  0  0  0  0
  182.6820  175.3820  138.9700 C   0  0  0  0  0  2  0  0  0  0  0  0
  181.3620  176.1180  138.8180 C   0  0  0  0  0  2  0  0  0  0  0  0
  180.1930  175.1440  138.8340 C   0  0  1  0  0  3  0  0  0  0  0  0
  178.9920  175.8570  138.8000 O   0  0  0  0  0  0  0  0  0  0  0  0
  179.2380  177.0170  139.5360 C   0  0  0  0  0  1  0  0  0  0  0  0
  180.2650  174.2160  137.6270 C   0  0  0  0  0  2  0  0  0  0  0  0
  180.0610  172.7800  138.0470 C   0  0  0  0  0  2  0  0  0  0  0  0
  182.2900  172.2210  137.2180 O   0  0  0  0  0  0  0  0  0  0  0  0
  181.5940  170.9610  135.2760 C   0  0  0  0  0  2  0  0  0  0  0  0
  182.6300  171.9130  135.8700 C   0  0  0  0  0  2  0  0  0  0  0  0
  179.3600  170.6910  136.1250 O   0  0  0  0  0  0  0  0  0  0  0  0
  180.9700  171.9140  137.3260 N   0  0  0  0  0  0  0  0  0  0  0  0
  180.5310  171.1310  136.2480 C   0  0  0  0  0  0  0  0  0  0  0  0
  190.1350  176.3160  139.6210 C   0  0  0  0  0  2  0  0  0  0  0  0
  190.7750  175.8710  138.3120 C   0  0  0  0  0  2  0  0  0  0  0  0
  192.2150  176.0460  138.4020 N   0  0  0  0  0  2  0  0  0  0  0  0
  194.7730  175.9930  135.6670 C   0  0  1  0  0  3  0  0  0  0  0  0
  196.0690  174.4500  137.2540 C   0  0  1  0  0  0  0  0  0  0  0  0
  195.0490  176.8960  134.6390 O   0  0  0  0  0  1  0  0  0  0  0  0
  196.0860  173.1170  136.5630 C   0  0  0  0  0  2  0  0  0  0  0  0
  197.8320  174.3270  135.4460 C   0  0  0  0  0  1  0  0  0  0  0  0
  194.7680  174.3580  138.1000 C   0  0  0  0  0  2  0  0  0  0  0  0
  196.0260  175.6320  136.3450 N   0  0  1  0  0  0  0  0  0  0  0  0
  192.7940  175.5860  137.1470 C   0  0  2  0  0  3  0  0  0  0  0  0
  193.4420  174.2170  137.3560 C   0  0  0  0  0  2  0  0  0  0  0  0
  196.3460  174.3300  135.7500 C   0  0  2  0  0  0  0  0  0  0  0  0
  193.7860  176.6280  136.6360 C   0  0  0  0  0  2  0  0  0  0  0  0
  1 24  1  0  0  0  0
  1 20  2  0  0  0  0
  3  7  1  0  0  0  0
  3 17  1  0  0  0  0
  4 19  1  0  0  0  0
  4  6  2  0  0  0  0
  5 25  1  1  0  0  0
  5 24  1  0  0  0  0
  6 11  1  0  0  0  0
  8 20  1  0  0  0  0
  8 19  2  0  0  0  0
  9  7  1  0  0  0  0
 11  2  2  0  0  0  0
 12 13  1  6  0  0  0
 12 15  1  0  0  0  0
 14 41  1  6  0  0  0
 14 23  1  0  0  0  0
 15 14  1  0  0  0  0
 16 17  2  0  0  0  0
 16  2  1  0  0  0  0
 17 10  1  0  0  0  0
 18 13  1  6  0  0  0
 18 21  1  0  0  0  0
 18 12  1  0  0  0  0
 19 16  1  0  0  0  0
 20  3  1  0  0  0  0
 21 22  1  0  0  0  0
 22 26  1  6  0  0  0
 22  5  1  0  0  0  0
 23  8  1  0  0  0  0
 24  9  2  0  0  0  0
 26 27  1  0  0  0  0
 27 28  1  0  0  0  0
 29 30  1  0  0  0  0
 29 28  1  0  0  0  0
 30 33  1  6  0  0  0
 31 30  1  0  0  0  0
 31 32  1  0  0  0  0
 33 34  1  0  0  0  0
 35 39  1  0  0  0  0
 36 37  1  0  0  0  0
 36 40  1  0  0  0  0
 37 35  1  0  0  0  0
 38 40  2  0  0  0  0
 39 34  1  0  0  0  0
 40 39  1  0  0  0  0
 42 43  1  0  0  0  0
 42 41  1  0  0  0  0
 44 46  1  6  0  0  0
 44 50  1  0  0  0  0
 44 54  1  0  0  0  0
 45 47  1  1  0  0  0
 45 49  1  0  0  0  0
 48 53  1  0  0  0  0
 50 45  1  0  0  0  0
 51 52  1  0  0  0  0
 51 43  1  0  0  0  0
 52 49  1  0  0  0  0
 53 50  1  0  0  0  0
 53 47  1  0  0  0  0
 53 45  1  0  0  0  0
 54 51  1  0  0  0  0
M  END
>  <MODEL>
6

>  <REMARK>
 VINA RESULT:      -7.1      1.663      2.828
  Name = 
  13 active torsions:
  status: ('A' for Active; 'I' for Inactive)
    1  A    between atoms: O_4  and  C_12
    2  A    between atoms: C_8  and  C_23
    3  A    between atoms: C_8  and  N_43
    4  A    between atoms: C_10  and  C_16
    5  A    between atoms: C_10  and  C_29
    6  A    between atoms: C_12  and  C_17
    7  A    between atoms: C_12  and  C_23
    8  A    between atoms: C_16  and  C_17
    9  A    between atoms: N_28  and  C_34
   10  A    between atoms: N_28  and  C_42
   11  A    between atoms: C_29  and  C_46
   12  A    between atoms: C_32  and  C_52
   13  A    between atoms: C_34  and  C_52
                            x       y       z     vdW  Elec       q    Type
                         _______ _______ _______ _____ _____    ______ ____

>  <TORSDO>
F 13

$$$$
=
 OpenBabel10222420033D

 54 62  0  0  1  0  0  0  0  0999 V2000
  186.4160  178.6330  140.6590 C   0  0  0  0  0  3  0  0  0  0  0  0
  190.2580  177.1880  144.3250 N   0  0  0  0  0  0  0  0  0  0  0  0
  186.9690  177.9260  142.8850 N   0  0  0  0  0  0  0  0  0  0  0  0
  191.0450  177.7960  141.7780 C   0  0  0  0  0  3  0  0  0  0  0  0
  184.0010  178.8380  139.8830 C   0  0  2  0  0  3  0  0  0  0  0  0
  191.9560  177.4410  142.7160 N   0  0  0  0  0  0  0  0  0  0  0  0
  185.5780  178.0330  143.3480 C   0  0  0  0  0  2  0  0  0  0  0  0
  188.7730  178.2220  141.1640 C   0  0  0  0  0  0  0  0  0  0  0  0
  184.6000  178.2560  142.2220 C   0  0  0  0  0  3  0  0  0  0  0  0
  187.6580  177.2040  145.1530 N   0  0  0  0  0  1  0  0  0  0  0  0
  191.5700  177.1440  143.9820 C   0  0  0  0  0  3  0  0  0  0  0  0
  187.1910  178.6180  137.2680 C   0  0  2  0  0  3  0  0  0  0  0  0
  186.5040  178.1170  136.0200 C   0  0  0  0  0  2  0  0  0  0  0  0
  188.7010  177.3420  138.8400 C   0  0  2  0  0  3  0  0  0  0  0  0
  188.4910  177.8420  137.4160 C   0  0  0  0  0  2  0  0  0  0  0  0
  189.2980  177.5370  143.4260 C   0  0  0  0  0  0  0  0  0  0  0  0
  188.0060  177.5560  143.8130 C   0  0  0  0  0  0  0  0  0  0  0  0
  185.9760  177.7040  137.3820 C   0  0  2  0  0  3  0  0  0  0  0  0
  189.6820  177.8640  142.0970 C   0  0  0  0  0  0  0  0  0  0  0  0
  187.3480  178.2900  141.5470 C   0  0  0  0  0  0  0  0  0  0  0  0
  184.8410  178.4680  137.6650 O   0  0  0  0  0  0  0  0  0  0  0  0
  184.1910  177.8350  138.7290 C   0  0  2  0  0  3  0  0  0  0  0  0
  189.1740  178.4830  139.7350 C   0  0  0  0  0  2  0  0  0  0  0  0
  184.9900  178.5910  140.9880 C   0  0  0  0  0  0  0  0  0  0  0  0
  182.3170  179.1080  140.4540 Cl  0  0  0  0  0  0  0  0  0  0  0  0
  182.9100  177.1380  138.2570 C   0  0  0  0  0  2  0  0  0  0  0  0
  182.6220  175.8680  139.0480 C   0  0  0  0  0  2  0  0  0  0  0  0
  181.1690  175.4770  138.8590 C   0  0  0  0  0  2  0  0  0  0  0  0
  180.8280  175.5090  137.3800 C   0  0  0  0  0  2  0  0  0  0  0  0
  180.8620  174.1080  136.7850 C   0  0  1  0  0  3  0  0  0  0  0  0
  179.5840  173.5470  136.8410 O   0  0  0  0  0  0  0  0  0  0  0  0
  179.7850  172.2310  137.2610 C   0  0  0  0  0  1  0  0  0  0  0  0
  181.3260  174.1640  135.3350 C   0  0  0  0  0  2  0  0  0  0  0  0
  182.5890  173.3560  135.1490 C   0  0  0  0  0  2  0  0  0  0  0  0
  184.3300  174.5370  136.3920 O   0  0  0  0  0  0  0  0  0  0  0  0
  185.2040  172.6290  137.5930 C   0  0  0  0  0  2  0  0  0  0  0  0
  185.5220  173.9610  136.9160 C   0  0  0  0  0  2  0  0  0  0  0  0
  183.2420  171.3150  137.1360 O   0  0  0  0  0  0  0  0  0  0  0  0
  183.4510  173.5040  136.3030 N   0  0  0  0  0  0  0  0  0  0  0  0
  183.8870  172.3880  137.0340 C   0  0  0  0  0  0  0  0  0  0  0  0
  189.7040  176.1980  138.8980 C   0  0  0  0  0  2  0  0  0  0  0  0
  189.9420  175.5870  137.5240 C   0  0  0  0  0  2  0  0  0  0  0  0
  191.2800  175.9360  137.0730 N   0  0  0  0  0  2  0  0  0  0  0  0
  193.4720  172.9580  136.4790 C   0  0  1  0  0  3  0  0  0  0  0  0
  195.2530  174.7050  135.8800 C   0  0  1  0  0  0  0  0  0  0  0  0
  193.1700  171.6330  136.1640 O   0  0  0  0  0  1  0  0  0  0  0  0
  196.2900  174.5810  136.9590 C   0  0  0  0  0  2  0  0  0  0  0  0
  196.8140  172.7560  135.4920 C   0  0  0  0  0  1  0  0  0  0  0  0
  194.2930  175.7730  136.4770 C   0  0  0  0  0  2  0  0  0  0  0  0
  194.5150  173.4480  135.5660 N   0  0  1  0  0  0  0  0  0  0  0  0
  192.1750  174.8570  137.4700 C   0  0  2  0  0  3  0  0  0  0  0  0
  193.5600  175.4280  137.7720 C   0  0  0  0  0  2  0  0  0  0  0  0
  195.7300  173.3360  136.3790 C   0  0  2  0  0  0  0  0  0  0  0  0
  192.2080  173.7980  136.3710 C   0  0  0  0  0  2  0  0  0  0  0  0
  1 24  1  0  0  0  0
  1 20  2  0  0  0  0
  3  7  1  0  0  0  0
  3 17  1  0  0  0  0
  4 19  1  0  0  0  0
  4  6  2  0  0  0  0
  5 25  1  1  0  0  0
  5 24  1  0  0  0  0
  6 11  1  0  0  0  0
  8 20  1  0  0  0  0
  8 19  2  0  0  0  0
  9  7  1  0  0  0  0
 11  2  2  0  0  0  0
 12 13  1  6  0  0  0
 12 18  1  0  0  0  0
 12 15  1  0  0  0  0
 14 41  1  6  0  0  0
 14 23  1  0  0  0  0
 15 14  1  0  0  0  0
 16 17  2  0  0  0  0
 16  2  1  0  0  0  0
 17 10  1  0  0  0  0
 18 13  1  6  0  0  0
 18 21  1  0  0  0  0
 19 16  1  0  0  0  0
 20  3  1  0  0  0  0
 21 22  1  0  0  0  0
 22 26  1  6  0  0  0
 22  5  1  0  0  0  0
 23  8  1  0  0  0  0
 24  9  2  0  0  0  0
 26 27  1  0  0  0  0
 28 27  1  0  0  0  0
 29 28  1  0  0  0  0
 30 33  1  6  0  0  0
 30 31  1  0  0  0  0
 30 29  1  0  0  0  0
 31 32  1  0  0  0  0
 34 33  1  0  0  0  0
 34 39  1  0  0  0  0
 35 37  1  0  0  0  0
 37 36  1  0  0  0  0
 39 35  1  0  0  0  0
 39 40  1  0  0  0  0
 40 38  2  0  0  0  0
 40 36  1  0  0  0  0
 42 41  1  0  0  0  0
 43 51  1  0  0  0  0
 43 42  1  0  0  0  0
 44 46  1  6  0  0  0
 45 53  1  0  0  0  0
 45 49  1  1  0  0  0
 45 47  1  0  0  0  0
 48 53  1  0  0  0  0
 49 52  1  0  0  0  0
 50 45  1  0  0  0  0
 50 53  1  0  0  0  0
 50 44  1  0  0  0  0
 51 52  1  0  0  0  0
 53 47  1  0  0  0  0
 54 44  1  0  0  0  0
 54 51  1  0  0  0  0
M  END
>  <MODEL>
7

>  <REMARK>
 VINA RESULT:      -7.0      1.620      1.998
  Name = 
  13 active torsions:
  status: ('A' for Active; 'I' for Inactive)
    1  A    between atoms: O_4  and  C_12
    2  A    between atoms: C_8  and  C_23
    3  A    between atoms: C_8  and  N_43
    4  A    between atoms: C_10  and  C_16
    5  A    between atoms: C_10  and  C_29
    6  A    between atoms: C_12  and  C_17
    7  A    between atoms: C_12  and  C_23
    8  A    between atoms: C_16  and  C_17
    9  A    between atoms: N_28  and  C_34
   10  A    between atoms: N_28  and  C_42
   11  A    between atoms: C_29  and  C_46
   12  A    between atoms: C_32  and  C_52
   13  A    between atoms: C_34  and  C_52
                            x       y       z     vdW  Elec       q    Type
                         _______ _______ _______ _____ _____    ______ ____

>  <TORSDO>
F 13

$$$$
=
 OpenBabel10222420033D

 54 62  0  0  1  0  0  0  0  0999 V2000
  187.6780  174.8590  135.8100 C   0  0  0  0  0  3  0  0  0  0  0  0
  182.5870  172.7690  135.8050 N   0  0  0  0  0  0  0  0  0  0  0  0
  186.2440  172.9400  135.9680 N   0  0  0  0  0  0  0  0  0  0  0  0
  182.8880  175.4750  135.5600 C   0  0  0  0  0  3  0  0  0  0  0  0
  190.1860  174.6880  136.2000 C   0  0  2  0  0  3  0  0  0  0  0  0
  181.6540  174.9150  135.5570 N   0  0  0  0  0  0  0  0  0  0  0  0
  187.3750  172.0030  136.0300 C   0  0  0  0  0  2  0  0  0  0  0  0
  185.2650  175.2340  135.6790 C   0  0  0  0  0  0  0  0  0  0  0  0
  188.7020  172.6960  136.2070 C   0  0  0  0  0  3  0  0  0  0  0  0
  184.6690  171.0320  136.1080 N   0  0  0  0  0  1  0  0  0  0  0  0
  181.5010  173.5730  135.6740 C   0  0  0  0  0  3  0  0  0  0  0  0
  188.1310  178.2680  136.3260 C   0  0  2  0  0  3  0  0  0  0  0  0
  189.0610  179.1030  137.1730 C   0  0  0  0  0  2  0  0  0  0  0  0
  185.9150  177.2480  136.9830 C   0  0  2  0  0  3  0  0  0  0  0  0
  186.7130  178.5350  136.8100 C   0  0  0  0  0  2  0  0  0  0  0  0
  183.8500  173.2740  135.8150 C   0  0  0  0  0  0  0  0  0  0  0  0
  184.8960  172.4350  135.9590 C   0  0  0  0  0  0  0  0  0  0  0  0
  188.9760  177.6070  137.4080 C   0  0  2  0  0  3  0  0  0  0  0  0
  184.0340  174.6770  135.6810 C   0  0  0  0  0  0  0  0  0  0  0  0
  186.4450  174.3530  135.8010 C   0  0  0  0  0  0  0  0  0  0  0  0
  190.0940  177.0040  136.8250 O   0  0  0  0  0  0  0  0  0  0  0  0
  190.1690  175.7110  137.3510 C   0  0  2  0  0  3  0  0  0  0  0  0
  185.4520  176.7290  135.6260 C   0  0  0  0  0  2  0  0  0  0  0  0
  188.8510  174.0150  136.0480 C   0  0  0  0  0  0  0  0  0  0  0  0
  191.5860  173.5590  136.1380 Cl  0  0  0  0  0  0  0  0  0  0  0  0
  191.3280  175.5870  138.3480 C   0  0  0  0  0  2  0  0  0  0  0  0
  191.5740  176.8840  139.1060 C   0  0  0  0  0  2  0  0  0  0  0  0
  191.0670  176.7410  140.5280 C   0  0  0  0  0  2  0  0  0  0  0  0
  189.5990  177.1240  140.5790 C   0  0  0  0  0  2  0  0  0  0  0  0
  189.1690  177.4350  142.0050 C   0  0  1  0  0  3  0  0  0  0  0  0
  187.8380  177.0470  142.1850 O   0  0  0  0  0  0  0  0  0  0  0  0
  187.1520  178.2290  142.4680 C   0  0  0  0  0  1  0  0  0  0  0  0
  190.0520  176.6850  142.9950 C   0  0  0  0  0  2  0  0  0  0  0  0
  190.4100  177.5710  144.1650 C   0  0  0  0  0  2  0  0  0  0  0  0
  188.4120  177.1710  145.5140 O   0  0  0  0  0  0  0  0  0  0  0  0
  189.4660  177.3230  147.6850 C   0  0  0  0  0  2  0  0  0  0  0  0
  188.2110  177.5940  146.8580 C   0  0  0  0  0  2  0  0  0  0  0  0
  191.6640  177.0350  146.7510 O   0  0  0  0  0  0  0  0  0  0  0  0
  189.7620  177.0950  145.3690 N   0  0  0  0  0  0  0  0  0  0  0  0
  190.4180  177.1200  146.6090 C   0  0  0  0  0  0  0  0  0  0  0  0
  184.7100  177.4450  137.8930 C   0  0  0  0  0  2  0  0  0  0  0  0
  184.8870  178.6490  138.8090 C   0  0  0  0  0  2  0  0  0  0  0  0
  183.5780  179.1450  139.2030 N   0  0  0  0  0  2  0  0  0  0  0  0
  182.5500  178.6300  142.7670 C   0  0  1  0  0  3  0  0  0  0  0  0
  180.2490  179.4190  141.9530 C   0  0  1  0  0  0  0  0  0  0  0  0
  183.2870  178.6230  143.9520 O   0  0  0  0  0  1  0  0  0  0  0  0
  179.3620  178.2150  142.0850 C   0  0  0  0  0  2  0  0  0  0  0  0
  179.4580  179.0640  144.3270 C   0  0  0  0  0  1  0  0  0  0  0  0
  180.7950  179.2600  140.5050 C   0  0  0  0  0  2  0  0  0  0  0  0
  181.3700  179.4890  142.9350 N   0  0  1  0  0  0  0  0  0  0  0  0
  183.1340  178.3600  140.3470 C   0  0  2  0  0  3  0  0  0  0  0  0
  181.6490  178.0330  140.1960 C   0  0  0  0  0  2  0  0  0  0  0  0
  180.3020  178.5170  143.1920 C   0  0  2  0  0  0  0  0  0  0  0  0
  183.4350  179.1260  141.6330 C   0  0  0  0  0  2  0  0  0  0  0  0
  1 24  1  0  0  0  0
  2 16  1  0  0  0  0
  3  7  1  0  0  0  0
  4 19  1  0  0  0  0
  5 25  1  1  0  0  0
  5 22  1  0  0  0  0
  6  4  2  0  0  0  0
  6 11  1  0  0  0  0
  7  9  1  0  0  0  0
  8 19  2  0  0  0  0
  8 20  1  0  0  0  0
 11  2  2  0  0  0  0
 12 15  1  1  0  0  0
 12 13  1  0  0  0  0
 12 18  1  0  0  0  0
 14 41  1  1  0  0  0
 15 14  1  0  0  0  0
 16 17  2  0  0  0  0
 17  3  1  0  0  0  0
 17 10  1  0  0  0  0
 18 13  1  1  0  0  0
 19 16  1  0  0  0  0
 20  1  2  0  0  0  0
 20  3  1  0  0  0  0
 21 22  1  0  0  0  0
 21 18  1  0  0  0  0
 22 26  1  6  0  0  0
 23  8  1  0  0  0  0
 23 14  1  0  0  0  0
 24  5  1  0  0  0  0
 24  9  2  0  0  0  0
 26 27  1  0  0  0  0
 27 28  1  0  0  0  0
 28 29  1  0  0  0  0
 30 29  1  6  0  0  0
 30 31  1  0  0  0  0
 30 33  1  0  0  0  0
 31 32  1  0  0  0  0
 33 34  1  0  0  0  0
 34 39  1  0  0  0  0
 35 37  1  0  0  0  0
 37 36  1  0  0  0  0
 39 35  1  0  0  0  0
 39 40  1  0  0  0  0
 40 38  2  0  0  0  0
 40 36  1  0  0  0  0
 41 42  1  0  0  0  0
 42 43  1  0  0  0  0
 43 51  1  0  0  0  0
 44 50  1  0  0  0  0
 44 46  1  1  0  0  0
 45 49  1  6  0  0  0
 45 47  1  0  0  0  0
 45 50  1  0  0  0  0
 45 53  1  0  0  0  0
 47 53  1  0  0  0  0
 50 53  1  0  0  0  0
 51 54  1  0  0  0  0
 52 51  1  0  0  0  0
 52 49  1  0  0  0  0
 53 48  1  0  0  0  0
 54 44  1  0  0  0  0
M  END
>  <MODEL>
8

>  <REMARK>
 VINA RESULT:      -7.0      3.661     10.711
  Name = 
  13 active torsions:
  status: ('A' for Active; 'I' for Inactive)
    1  A    between atoms: O_4  and  C_12
    2  A    between atoms: C_8  and  C_23
    3  A    between atoms: C_8  and  N_43
    4  A    between atoms: C_10  and  C_16
    5  A    between atoms: C_10  and  C_29
    6  A    between atoms: C_12  and  C_17
    7  A    between atoms: C_12  and  C_23
    8  A    between atoms: C_16  and  C_17
    9  A    between atoms: N_28  and  C_34
   10  A    between atoms: N_28  and  C_42
   11  A    between atoms: C_29  and  C_46
   12  A    between atoms: C_32  and  C_52
   13  A    between atoms: C_34  and  C_52
                            x       y       z     vdW  Elec       q    Type
                         _______ _______ _______ _____ _____    ______ ____

>  <TORSDO>
F 13

$$$$
=
 OpenBabel10222420033D

 54 62  0  0  1  0  0  0  0  0999 V2000
  186.8640  175.0960  136.2500 C   0  0  0  0  0  3  0  0  0  0  0  0
  181.6220  173.6450  137.0890 N   0  0  0  0  0  0  0  0  0  0  0  0
  185.2390  173.3590  136.5780 N   0  0  0  0  0  0  0  0  0  0  0  0
  182.2310  176.3050  136.9240 C   0  0  0  0  0  3  0  0  0  0  0  0
  189.3570  174.5940  136.1590 C   0  0  2  0  0  3  0  0  0  0  0  0
  180.9530  175.9010  137.1240 N   0  0  0  0  0  0  0  0  0  0  0  0
  186.2300  172.2890  136.3840 C   0  0  0  0  0  2  0  0  0  0  0  0
  184.5380  175.7690  136.5890 C   0  0  0  0  0  0  0  0  0  0  0  0
  187.6470  172.8020  136.3450 C   0  0  0  0  0  3  0  0  0  0  0  0
  183.4750  171.6510  136.9140 N   0  0  0  0  0  1  0  0  0  0  0  0
  180.6460  174.5830  137.2010 C   0  0  0  0  0  3  0  0  0  0  0  0
  187.8500  178.3790  136.8400 C   0  0  2  0  0  3  0  0  0  0  0  0
  189.0180  179.0310  137.5390 C   0  0  0  0  0  2  0  0  0  0  0  0
  185.6710  177.5900  137.8460 C   0  0  2  0  0  3  0  0  0  0  0  0
  186.5880  178.7800  137.5910 C   0  0  0  0  0  2  0  0  0  0  0  0
  182.9220  173.9910  136.8890 C   0  0  0  0  0  0  0  0  0  0  0  0
  183.8560  173.0230  136.7950 C   0  0  0  0  0  0  0  0  0  0  0  0
  188.7790  177.5430  137.7130 C   0  0  2  0  0  3  0  0  0  0  0  0
  183.2640  175.3680  136.7920 C   0  0  0  0  0  0  0  0  0  0  0  0
  185.5930  174.7450  136.4470 C   0  0  0  0  0  0  0  0  0  0  0  0
  189.6850  176.8520  136.9030 O   0  0  0  0  0  0  0  0  0  0  0  0
  189.6800  175.5250  137.3430 C   0  0  2  0  0  3  0  0  0  0  0  0
  184.9090  177.2300  136.5750 C   0  0  0  0  0  2  0  0  0  0  0  0
  187.9390  174.1010  136.2250 C   0  0  0  0  0  0  0  0  0  0  0  0
  190.5610  173.3110  135.7840 Cl  0  0  0  0  0  0  0  0  0  0  0  0
  190.9710  175.1900  138.0990 C   0  0  0  0  0  2  0  0  0  0  0  0
  191.5620  176.4090  138.7960 C   0  0  0  0  0  2  0  0  0  0  0  0
  192.9860  176.6200  138.3190 C   0  0  0  0  0  2  0  0  0  0  0  0
  193.1730  175.9320  136.9770 C   0  0  0  0  0  2  0  0  0  0  0  0
  194.5080  175.2030  136.9240 C   0  0  1  0  0  3  0  0  0  0  0  0
  195.4690  176.0310  136.3380 O   0  0  0  0  0  0  0  0  0  0  0  0
  194.7900  176.7150  135.3290 C   0  0  0  0  0  1  0  0  0  0  0  0
  194.9560  174.8240  138.3300 C   0  0  0  0  0  2  0  0  0  0  0  0
  195.2860  173.3520  138.4050 C   0  0  0  0  0  2  0  0  0  0  0  0
  197.6470  173.9200  138.1350 O   0  0  0  0  0  0  0  0  0  0  0  0
  197.9440  172.9770  135.9280 C   0  0  0  0  0  2  0  0  0  0  0  0
  198.3310  174.0920  136.8980 C   0  0  0  0  0  2  0  0  0  0  0  0
  195.9360  171.6660  136.1070 O   0  0  0  0  0  0  0  0  0  0  0  0
  196.5980  173.1050  137.8450 N   0  0  0  0  0  0  0  0  0  0  0  0
  196.7530  172.4860  136.5950 C   0  0  0  0  0  0  0  0  0  0  0  0
  184.6840  177.8660  138.9720 C   0  0  0  0  0  2  0  0  0  0  0  0
  185.3360  178.6270  140.1190 C   0  0  0  0  0  2  0  0  0  0  0  0
  184.6960  178.2460  141.3690 N   0  0  0  0  0  2  0  0  0  0  0  0
  185.7570  178.7530  144.9240 C   0  0  1  0  0  3  0  0  0  0  0  0
  187.5140  176.9630  144.3900 C   0  0  1  0  0  0  0  0  0  0  0  0
  185.0660  179.2320  146.0380 O   0  0  0  0  0  1  0  0  0  0  0  0
  188.8290  177.6840  144.4580 C   0  0  0  0  0  2  0  0  0  0  0  0
  188.3220  177.2670  146.7660 C   0  0  0  0  0  1  0  0  0  0  0  0
  187.1260  177.1400  142.8950 C   0  0  0  0  0  2  0  0  0  0  0  0
  186.4490  177.5070  145.2810 N   0  0  1  0  0  0  0  0  0  0  0  0
  185.4060  178.9160  142.4500 C   0  0  2  0  0  3  0  0  0  0  0  0
  186.8910  178.5590  142.3840 C   0  0  0  0  0  2  0  0  0  0  0  0
  187.8230  177.9600  145.5130 C   0  0  2  0  0  0  0  0  0  0  0  0
  184.7730  178.5300  143.7850 C   0  0  0  0  0  2  0  0  0  0  0  0
  1 20  2  0  0  0  0
  2 11  2  0  0  0  0
  3 17  1  0  0  0  0
  4  6  2  0  0  0  0
  5 25  1  1  0  0  0
  5 24  1  0  0  0  0
  5 22  1  0  0  0  0
  6 11  1  0  0  0  0
  7  3  1  0  0  0  0
  8 19  2  0  0  0  0
  9  7  1  0  0  0  0
 12 13  1  1  0  0  0
 12 15  1  0  0  0  0
 12 18  1  0  0  0  0
 14 41  1  1  0  0  0
 15 14  1  0  0  0  0
 16  2  1  0  0  0  0
 17 16  2  0  0  0  0
 17 10  1  0  0  0  0
 18 13  1  1  0  0  0
 19 16  1  0  0  0  0
 19  4  1  0  0  0  0
 20  3  1  0  0  0  0
 20  8  1  0  0  0  0
 21 22  1  0  0  0  0
 21 18  1  0  0  0  0
 22 26  1  6  0  0  0
 23  8  1  0  0  0  0
 23 14  1  0  0  0  0
 24  1  1  0  0  0  0
 24  9  2  0  0  0  0
 26 27  1  0  0  0  0
 28 27  1  0  0  0  0
 29 28  1  0  0  0  0
 30 29  1  1  0  0  0
 30 33  1  0  0  0  0
 31 30  1  0  0  0  0
 32 31  1  0  0  0  0
 33 34  1  0  0  0  0
 36 40  1  0  0  0  0
 36 37  1  0  0  0  0
 37 35  1  0  0  0  0
 38 40  2  0  0  0  0
 39 35  1  0  0  0  0
 39 34  1  0  0  0  0
 40 39  1  0  0  0  0
 41 42  1  0  0  0  0
 42 43  1  0  0  0  0
 43 51  1  0  0  0  0
 44 50  1  0  0  0  0
 44 46  1  1  0  0  0
 45 49  1  6  0  0  0
 45 47  1  0  0  0  0
 45 50  1  0  0  0  0
 45 53  1  0  0  0  0
 47 53  1  0  0  0  0
 50 53  1  0  0  0  0
 51 54  1  0  0  0  0
 52 51  1  0  0  0  0
 52 49  1  0  0  0  0
 53 48  1  0  0  0  0
 54 44  1  0  0  0  0
M  END
>  <MODEL>
9

>  <REMARK>
 VINA RESULT:      -6.9      2.850      9.778
  Name = 
  13 active torsions:
  status: ('A' for Active; 'I' for Inactive)
    1  A    between atoms: O_4  and  C_12
    2  A    between atoms: C_8  and  C_23
    3  A    between atoms: C_8  and  N_43
    4  A    between atoms: C_10  and  C_16
    5  A    between atoms: C_10  and  C_29
    6  A    between atoms: C_12  and  C_17
    7  A    between atoms: C_12  and  C_23
    8  A    between atoms: C_16  and  C_17
    9  A    between atoms: N_28  and  C_34
   10  A    between atoms: N_28  and  C_42
   11  A    between atoms: C_29  and  C_46
   12  A    between atoms: C_32  and  C_52
   13  A    between atoms: C_34  and  C_52
                            x       y       z     vdW  Elec       q    Type
                         _______ _______ _______ _____ _____    ______ ____

>  <TORSDO>
F 13

$$$$
