=
 OpenBabel10222416103D

 26 31  0  0  1  0  0  0  0  0999 V2000
  188.7490  177.7710  146.7910 C   0  0  2  0  0  3  0  0  0  0  0  0
  192.0560  175.5360  143.9580 O   0  0  0  0  0  1  0  0  0  0  0  0
  189.8070  176.2040  140.3860 O   0  0  0  0  0  0  0  0  0  0  0  0
  190.0660  177.1260  147.1240 C   0  0  2  0  0  3  0  0  0  0  0  0
  192.2010  177.6820  141.6820 O   0  0  0  0  0  1  0  0  0  0  0  0
  191.0480  178.0820  146.5090 C   0  0  0  0  0  2  0  0  0  0  0  0
  189.7690  177.0690  141.4390 C   0  0  2  0  0  0  0  0  0  0  0  0
  187.5550  177.9060  148.2810 S   0  0  0  0  0  0  0  0  0  0  0  0
  191.0380  176.6360  146.0220 C   0  0  2  0  0  0  0  0  0  0  0  0
  186.8380  177.8790  143.7070 N   0  0  0  0  0  0  0  0  0  0  0  0
  186.4810  177.9270  145.9290 C   0  0  0  0  0  0  0  0  0  0  0  0
  189.3880  177.5180  139.9770 C   0  0  0  0  0  2  0  0  0  0  0  0
  190.5660  177.2820  143.5170 C   0  0  1  0  0  3  0  0  0  0  0  0
  191.1000  176.9100  142.1460 C   0  0  2  0  0  3  0  0  0  0  0  0
  189.1150  176.9190  143.6380 N   0  0  0  0  0  0  0  0  0  0  0  0
  186.1140  178.2230  147.1370 C   0  0  0  0  0  2  0  0  0  0  0  0
  188.7480  176.3780  142.3690 C   0  0  0  0  0  2  0  0  0  0  0  0
  191.5360  176.7140  144.5900 C   0  0  2  0  0  3  0  0  0  0  0  0
  187.8490  177.5450  145.6670 C   0  0  0  0  0  0  0  0  0  0  0  0
  188.0670  177.6160  144.3340 C   0  0  0  0  0  0  0  0  0  0  0  0
  185.8800  178.1230  144.5800 C   0  0  2  0  0  3  0  0  0  0  0  0
  184.4640  178.4130  142.6860 N   0  0  0  0  0  2  0  0  0  0  0  0
  184.6170  178.4770  143.9690 C   0  0  0  0  0  0  0  0  0  0  0  0
  183.5260  179.0030  144.7650 C   0  0  0  0  0  1  0  0  0  0  0  0
  191.9350  175.7990  146.9000 C   0  0  0  0  0  0  0  0  0  0  0  0
  192.7480  175.2530  147.5350 N   0  0  0  0  0  0  0  0  0  0  0  0
  1 19  1  6  0  0  0
  1  4  1  0  0  0  0
  1  8  1  0  0  0  0
  3  7  1  0  0  0  0
  4  6  1  6  0  0  0
  7 12  1  6  0  0  0
  7 14  1  0  0  0  0
  7 17  1  0  0  0  0
  9  6  1  0  0  0  0
  9 25  1  1  0  0  0
  9  4  1  0  0  0  0
 10 20  2  0  0  0  0
 10 21  1  0  0  0  0
 11 16  1  0  0  0  0
 12  3  1  0  0  0  0
 13 15  1  1  0  0  0
 13 18  1  0  0  0  0
 14  5  1  6  0  0  0
 14 13  1  0  0  0  0
 15 20  1  0  0  0  0
 16  8  1  0  0  0  0
 17 15  1  0  0  0  0
 18  2  1  6  0  0  0
 18  9  1  0  0  0  0
 19 11  2  0  0  0  0
 20 19  1  0  0  0  0
 21 23  1  6  0  0  0
 21 11  1  0  0  0  0
 22 23  2  0  0  0  0
 23 24  1  0  0  0  0
 25 26  3  0  0  0  0
M  END
>  <MODEL>
1

>  <REMARK>
 VINA RESULT:      -9.0      0.000      0.000
  Name = 
  2 active torsions:
  status: ('A' for Active; 'I' for Inactive)
    1  A    between atoms: C_7  and  C_10
    2  A    between atoms: C_21  and  C_26
                            x       y       z     vdW  Elec       q    Type
                         _______ _______ _______ _____ _____    ______ ____

>  <TORSDO>
F 2

$$$$
=
 OpenBabel10222416103D

 26 31  0  0  1  0  0  0  0  0999 V2000
  188.6760  177.1430  144.7180 C   0  0  2  0  0  3  0  0  0  0  0  0
  184.5920  179.7700  144.1120 O   0  0  0  0  0  1  0  0  0  0  0  0
  184.8780  179.6860  139.8490 O   0  0  0  0  0  0  0  0  0  0  0  0
  187.7100  177.7180  145.7160 C   0  0  2  0  0  3  0  0  0  0  0  0
  183.2650  178.0060  141.8900 O   0  0  0  0  0  1  0  0  0  0  0  0
  186.4930  176.8620  145.5040 C   0  0  0  0  0  2  0  0  0  0  0  0
  185.3420  178.6680  140.6270 C   0  0  2  0  0  0  0  0  0  0  0  0
  190.4120  176.7850  145.4400 S   0  0  0  0  0  0  0  0  0  0  0  0
  186.3730  178.3670  145.2790 C   0  0  2  0  0  0  0  0  0  0  0  0
  188.9290  177.5340  141.1180 N   0  0  0  0  0  0  0  0  0  0  0  0
  190.2700  177.1410  142.8820 C   0  0  0  0  0  0  0  0  0  0  0  0
  184.9720  178.4560  139.1100 C   0  0  0  0  0  2  0  0  0  0  0  0
  185.5860  178.1250  142.7830 C   0  0  1  0  0  3  0  0  0  0  0  0
  184.5040  178.7040  141.8900 C   0  0  2  0  0  3  0  0  0  0  0  0
  186.9490  178.4760  142.2600 N   0  0  2  0  0  0  0  0  0  0  0  0
  191.1350  176.6620  143.7230 C   0  0  0  0  0  2  0  0  0  0  0  0
  186.7220  179.2120  141.0580 C   0  0  0  0  0  2  0  0  0  0  0  0
  185.2650  178.5110  144.2530 C   0  0  2  0  0  3  0  0  0  0  0  0
  188.9660  177.5490  143.3490 C   0  0  0  0  0  0  0  0  0  0  0  0
  188.1520  177.6850  142.2780 C   0  0  2  0  0  3  0  0  0  0  0  0
  190.1630  177.1630  141.3970 C   0  0  0  0  0  0  0  0  0  0  0  0
  190.5530  176.1340  139.2830 N   0  0  0  0  0  2  0  0  0  0  0  0
  190.9730  176.9190  140.2230 C   0  0  0  0  0  0  0  0  0  0  0  0
  192.3100  177.4660  140.1130 C   0  0  0  0  0  1  0  0  0  0  0  0
  186.0430  179.0500  146.5850 C   0  0  0  0  0  0  0  0  0  0  0  0
  185.7230  179.6960  147.5020 N   0  0  0  0  0  0  0  0  0  0  0  0
  1 19  1  6  0  0  0
  1  8  1  0  0  0  0
  1  4  1  0  0  0  0
  2 18  1  0  0  0  0
  3  7  1  0  0  0  0
  4  6  1  1  0  0  0
  7 12  1  6  0  0  0
  7 17  1  0  0  0  0
  7 14  1  0  0  0  0
  9  6  1  0  0  0  0
  9  4  1  0  0  0  0
  9 25  1  1  0  0  0
 10 21  2  0  0  0  0
 10 20  1  0  0  0  0
 11 19  2  0  0  0  0
 11 16  1  0  0  0  0
 12  3  1  0  0  0  0
 13 18  1  0  0  0  0
 14  5  1  0  0  0  0
 14 13  1  0  0  0  0
 15 20  1  0  0  0  0
 15 13  1  0  0  0  0
 16  8  1  0  0  0  0
 17 15  1  0  0  0  0
 18  9  1  0  0  0  0
 20 19  1  0  0  0  0
 21 11  1  0  0  0  0
 22 23  2  0  0  0  0
 23 21  1  0  0  0  0
 24 23  1  0  0  0  0
 25 26  3  0  0  0  0
M  END
>  <MODEL>
2

>  <REMARK>
 VINA RESULT:      -8.8      3.490      5.859
  Name = 
  2 active torsions:
  status: ('A' for Active; 'I' for Inactive)
    1  A    between atoms: C_7  and  C_10
    2  A    between atoms: C_21  and  C_26
                            x       y       z     vdW  Elec       q    Type
                         _______ _______ _______ _____ _____    ______ ____

>  <TORSDO>
F 2

$$$$
=
 OpenBabel10222416103D

 26 31  0  0  1  0  0  0  0  0999 V2000
  186.4560  178.6440  142.1300 C   0  0  2  0  0  3  0  0  0  0  0  0
  184.0740  178.2970  146.3900 O   0  0  0  0  0  1  0  0  0  0  0  0
  187.6270  177.3770  148.5810 O   0  0  0  0  0  0  0  0  0  0  0  0
  185.0040  178.8290  142.4710 C   0  0  2  0  0  3  0  0  0  0  0  0
  186.0440  180.0010  148.1300 O   0  0  0  0  0  1  0  0  0  0  0  0
  185.0270  180.1090  143.2570 C   0  0  0  0  0  2  0  0  0  0  0  0
  187.6440  178.1690  147.4720 C   0  0  2  0  0  0  0  0  0  0  0  0
  186.7710  178.2400  140.2850 S   0  0  0  0  0  0  0  0  0  0  0  0
  184.5050  178.8470  143.9380 C   0  0  2  0  0  0  0  0  0  0  0  0
  189.2600  177.4700  144.1120 N   0  0  0  0  0  0  0  0  0  0  0  0
  188.5940  177.4980  141.9620 C   0  0  0  0  0  0  0  0  0  0  0  0
  188.7870  178.2270  148.5550 C   0  0  0  0  0  2  0  0  0  0  0  0
  186.2650  178.9390  145.8890 C   0  0  1  0  0  3  0  0  0  0  0  0
  186.2680  178.8010  147.4000 C   0  0  2  0  0  3  0  0  0  0  0  0
  187.1070  177.8690  145.2560 N   0  0  2  0  0  0  0  0  0  0  0  0
  188.4970  177.6480  140.6770 C   0  0  0  0  0  2  0  0  0  0  0  0
  187.6490  177.1170  146.3410 C   0  0  0  0  0  2  0  0  0  0  0  0
  184.7910  179.0630  145.4120 C   0  0  2  0  0  3  0  0  0  0  0  0
  187.4940  177.8840  142.8150 C   0  0  0  0  0  0  0  0  0  0  0  0
  187.9430  177.9540  144.0880 C   0  0  2  0  0  3  0  0  0  0  0  0
  189.7220  177.2350  142.8990 C   0  0  0  0  0  0  0  0  0  0  0  0
  191.9210  177.2630  141.9820 N   0  0  0  0  0  2  0  0  0  0  0  0
  191.1050  176.8110  142.8780 C   0  0  0  0  0  0  0  0  0  0  0  0
  191.5880  175.7980  143.7960 C   0  0  0  0  0  1  0  0  0  0  0  0
  183.0310  178.6900  143.6530 C   0  0  0  0  0  0  0  0  0  0  0  0
  181.8680  178.6530  143.5700 N   0  0  0  0  0  0  0  0  0  0  0  0
  1  8  1  6  0  0  0
  1  4  1  0  0  0  0
  1 19  1  0  0  0  0
  4  6  1  1  0  0  0
  4  9  1  0  0  0  0
  6  9  1  0  0  0  0
  7 17  1  6  0  0  0
  7 12  1  0  0  0  0
  7  3  1  0  0  0  0
  8 16  1  0  0  0  0
  9 25  1  6  0  0  0
  9 18  1  0  0  0  0
 11 19  2  0  0  0  0
 11 21  1  0  0  0  0
 12  3  1  0  0  0  0
 13 14  1  0  0  0  0
 14  7  1  0  0  0  0
 14  5  1  0  0  0  0
 15 13  1  0  0  0  0
 15 17  1  0  0  0  0
 16 11  1  0  0  0  0
 18 13  1  0  0  0  0
 18  2  1  0  0  0  0
 19 20  1  0  0  0  0
 20 10  1  0  0  0  0
 20 15  1  0  0  0  0
 21 10  2  0  0  0  0
 22 23  2  0  0  0  0
 23 21  1  0  0  0  0
 23 24  1  0  0  0  0
 26 25  3  0  0  0  0
M  END
>  <MODEL>
3

>  <REMARK>
 VINA RESULT:      -7.8      3.596      7.017
  Name = 
  2 active torsions:
  status: ('A' for Active; 'I' for Inactive)
    1  A    between atoms: C_7  and  C_10
    2  A    between atoms: C_21  and  C_26
                            x       y       z     vdW  Elec       q    Type
                         _______ _______ _______ _____ _____    ______ ____

>  <TORSDO>
F 2

$$$$
=
 OpenBabel10222416103D

 26 31  0  0  1  0  0  0  0  0999 V2000
  187.5880  178.1960  145.7560 C   0  0  2  0  0  3  0  0  0  0  0  0
  191.5340  176.0530  143.8090 O   0  0  0  0  0  1  0  0  0  0  0  0
  190.1150  176.5240  139.8050 O   0  0  0  0  0  0  0  0  0  0  0  0
  188.8230  177.6240  146.3960 C   0  0  2  0  0  3  0  0  0  0  0  0
  192.0950  178.1470  141.5480 O   0  0  0  0  0  1  0  0  0  0  0  0
  189.8770  178.6110  145.9810 C   0  0  0  0  0  2  0  0  0  0  0  0
  189.8070  177.4110  140.7920 C   0  0  2  0  0  0  0  0  0  0  0  0
  186.0870  178.3100  146.9380 S   0  0  0  0  0  0  0  0  0  0  0  0
  190.0360  177.1540  145.5550 C   0  0  2  0  0  0  0  0  0  0  0  0
  186.4120  178.1350  142.3230 N   0  0  0  0  0  0  0  0  0  0  0  0
  185.5660  178.2210  144.4070 C   0  0  0  0  0  0  0  0  0  0  0  0
  189.7430  177.8050  139.2680 C   0  0  0  0  0  2  0  0  0  0  0  0
  190.1100  177.7140  142.9870 C   0  0  1  0  0  3  0  0  0  0  0  0
  190.9510  177.3340  141.7830 C   0  0  2  0  0  3  0  0  0  0  0  0
  188.6840  177.2840  142.7940 N   0  0  2  0  0  0  0  0  0  0  0  0
  184.9260  178.5290  145.4920 C   0  0  0  0  0  2  0  0  0  0  0  0
  188.6330  176.6950  141.4950 C   0  0  0  0  0  2  0  0  0  0  0  0
  190.8370  177.2200  144.2670 C   0  0  2  0  0  3  0  0  0  0  0  0
  186.9720  177.8990  144.4690 C   0  0  0  0  0  0  0  0  0  0  0  0
  187.4790  177.9480  143.2160 C   0  0  2  0  0  3  0  0  0  0  0  0
  185.2740  178.3550  142.9520 C   0  0  0  0  0  0  0  0  0  0  0  0
  184.3680  178.8460  140.8040 N   0  0  0  0  0  2  0  0  0  0  0  0
  184.1660  178.6320  142.0640 C   0  0  0  0  0  0  0  0  0  0  0  0
  182.8180  178.7720  142.5760 C   0  0  0  0  0  1  0  0  0  0  0  0
  190.7480  176.3830  146.6390 C   0  0  0  0  0  0  0  0  0  0  0  0
  191.4030  175.7410  147.3610 N   0  0  0  0  0  0  0  0  0  0  0  0
  1 19  1  6  0  0  0
  1  4  1  0  0  0  0
  1  8  1  0  0  0  0
  2 18  1  0  0  0  0
  3  7  1  0  0  0  0
  4  6  1  1  0  0  0
  5 14  1  0  0  0  0
  7 12  1  6  0  0  0
  7 17  1  0  0  0  0
  7 14  1  0  0  0  0
  9  6  1  0  0  0  0
  9  4  1  0  0  0  0
  9 25  1  1  0  0  0
 10 21  2  0  0  0  0
 10 20  1  0  0  0  0
 11 19  2  0  0  0  0
 11 16  1  0  0  0  0
 12  3  1  0  0  0  0
 13 18  1  0  0  0  0
 14 13  1  0  0  0  0
 15 13  1  0  0  0  0
 15 20  1  0  0  0  0
 16  8  1  0  0  0  0
 17 15  1  0  0  0  0
 18  9  1  0  0  0  0
 20 19  1  0  0  0  0
 21 11  1  0  0  0  0
 22 23  2  0  0  0  0
 23 24  1  0  0  0  0
 23 21  1  0  0  0  0
 25 26  3  0  0  0  0
M  END
>  <MODEL>
4

>  <REMARK>
 VINA RESULT:      -7.7      1.217      1.419
  Name = 
  2 active torsions:
  status: ('A' for Active; 'I' for Inactive)
    1  A    between atoms: C_7  and  C_10
    2  A    between atoms: C_21  and  C_26
                            x       y       z     vdW  Elec       q    Type
                         _______ _______ _______ _____ _____    ______ ____

>  <TORSDO>
F 2

$$$$
=
 OpenBabel10222416103D

 26 31  0  0  1  0  0  0  0  0999 V2000
  183.8720  178.5280  142.5060 C   0  0  2  0  0  3  0  0  0  0  0  0
  185.9000  179.3990  138.1380 O   0  0  0  0  0  1  0  0  0  0  0  0
  189.8030  178.2530  139.4480 O   0  0  0  0  0  0  0  0  0  0  0  0
  183.2730  179.0040  141.2110 C   0  0  2  0  0  3  0  0  0  0  0  0
  187.5730  176.7610  137.9010 O   0  0  0  0  0  1  0  0  0  0  0  0
  183.3600  177.7730  140.3540 C   0  0  0  0  0  2  0  0  0  0  0  0
  188.6720  177.6960  139.9660 C   0  0  2  0  0  0  0  0  0  0  0  0
  182.8300  178.9710  144.0500 S   0  0  0  0  0  0  0  0  0  0  0  0
  184.0880  179.0330  139.8950 C   0  0  2  0  0  0  0  0  0  0  0  0
  187.3200  177.9820  143.4990 N   0  0  0  0  0  0  0  0  0  0  0  0
  185.3520  178.5480  144.4340 C   0  0  0  0  0  0  0  0  0  0  0  0
  190.0680  176.9690  140.0410 C   0  0  0  0  0  2  0  0  0  0  0  0
  186.4470  177.8750  139.8230 C   0  0  1  0  0  3  0  0  0  0  0  0
  187.6280  177.7990  138.8720 C   0  0  2  0  0  3  0  0  0  0  0  0
  186.8550  178.4960  141.1270 N   0  0  0  0  0  0  0  0  0  0  0  0
  184.2850  178.6280  145.1680 C   0  0  0  0  0  2  0  0  0  0  0  0
  188.2530  178.7590  141.0060 C   0  0  0  0  0  2  0  0  0  0  0  0
  185.2520  178.5190  139.0680 C   0  0  2  0  0  3  0  0  0  0  0  0
  185.2410  178.6170  142.9960 C   0  0  0  0  0  0  0  0  0  0  0  0
  186.4020  178.1800  142.4560 C   0  0  0  0  0  0  0  0  0  0  0  0
  186.7590  178.1270  144.6840 C   0  0  2  0  0  3  0  0  0  0  0  0
  187.2480  177.9540  147.0100 N   0  0  0  0  0  2  0  0  0  0  0  0
  187.6550  177.8510  145.7860 C   0  0  0  0  0  0  0  0  0  0  0  0
  189.0530  177.5490  145.5520 C   0  0  0  0  0  1  0  0  0  0  0  0
  183.1480  179.8990  139.0930 C   0  0  0  0  0  0  0  0  0  0  0  0
  182.3480  180.4280  138.4280 N   0  0  0  0  0  0  0  0  0  0  0  0
  1 19  1  1  0  0  0
  1  8  1  0  0  0  0
  3  7  1  0  0  0  0
  3 12  1  0  0  0  0
  4  6  1  6  0  0  0
  4  1  1  0  0  0  0
  7 12  1  1  0  0  0
  7 17  1  0  0  0  0
  8 16  1  0  0  0  0
  9 25  1  6  0  0  0
  9  6  1  0  0  0  0
  9  4  1  0  0  0  0
 10 21  1  0  0  0  0
 11 21  1  0  0  0  0
 11 16  1  0  0  0  0
 13 15  1  1  0  0  0
 14  5  1  6  0  0  0
 14 13  1  0  0  0  0
 14  7  1  0  0  0  0
 15 20  1  0  0  0  0
 17 15  1  0  0  0  0
 18  2  1  1  0  0  0
 18 13  1  0  0  0  0
 18  9  1  0  0  0  0
 19 11  2  0  0  0  0
 20 19  1  0  0  0  0
 20 10  2  0  0  0  0
 21 23  1  1  0  0  0
 23 22  2  0  0  0  0
 24 23  1  0  0  0  0
 26 25  3  0  0  0  0
M  END
>  <MODEL>
5

>  <REMARK>
 VINA RESULT:      -7.3      3.122      6.562
  Name = 
  2 active torsions:
  status: ('A' for Active; 'I' for Inactive)
    1  A    between atoms: C_7  and  C_10
    2  A    between atoms: C_21  and  C_26
                            x       y       z     vdW  Elec       q    Type
                         _______ _______ _______ _____ _____    ______ ____

>  <TORSDO>
F 2

$$$$
=
 OpenBabel10222416103D

 26 31  0  0  1  0  0  0  0  0999 V2000
  188.2830  177.5290  143.4180 C   0  0  2  0  0  3  0  0  0  0  0  0
  183.8580  179.5480  143.9570 O   0  0  0  0  0  1  0  0  0  0  0  0
  183.1840  179.7860  139.7430 O   0  0  0  0  0  0  0  0  0  0  0  0
  187.5000  177.8870  144.6510 C   0  0  2  0  0  3  0  0  0  0  0  0
  182.3080  177.7530  141.9110 O   0  0  0  0  0  1  0  0  0  0  0  0
  186.3900  176.8740  144.6230 C   0  0  0  0  0  2  0  0  0  0  0  0
  183.9410  178.8000  140.3020 C   0  0  2  0  0  0  0  0  0  0  0  0
  190.1690  177.3890  143.7140 S   0  0  0  0  0  0  0  0  0  0  0  0
  186.0250  178.3550  144.5750 C   0  0  2  0  0  0  0  0  0  0  0  0
  187.6630  178.1870  139.9030 N   0  0  0  0  0  0  0  0  0  0  0  0
  189.4080  177.8850  141.2930 C   0  0  0  0  0  0  0  0  0  0  0  0
  183.2700  178.6340  138.8860 C   0  0  0  0  0  2  0  0  0  0  0  0
  184.7340  178.1610  142.2930 C   0  0  1  0  0  3  0  0  0  0  0  0
  183.4130  178.6280  141.7120 C   0  0  2  0  0  3  0  0  0  0  0  0
  185.8860  178.7450  141.5270 N   0  0  2  0  0  0  0  0  0  0  0  0
  190.4950  177.4880  141.8790 C   0  0  0  0  0  2  0  0  0  0  0  0
  185.2980  179.5150  140.4780 C   0  0  0  0  0  2  0  0  0  0  0  0
  184.7050  178.3980  143.8280 C   0  0  2  0  0  3  0  0  0  0  0  0
  188.2000  178.0620  142.0650 C   0  0  0  0  0  0  0  0  0  0  0  0
  187.1550  178.1440  141.2110 C   0  0  2  0  0  3  0  0  0  0  0  0
  188.9670  177.9870  139.8740 C   0  0  0  0  0  0  0  0  0  0  0  0
  190.4890  177.1410  138.2470 N   0  0  0  0  0  2  0  0  0  0  0  0
  189.5160  177.9440  138.5360 C   0  0  0  0  0  0  0  0  0  0  0  0
  189.0580  178.8630  137.5130 C   0  0  0  0  0  1  0  0  0  0  0  0
  185.9110  178.8950  145.9800 C   0  0  0  0  0  0  0  0  0  0  0  0
  185.6720  179.3570  147.0240 N   0  0  0  0  0  0  0  0  0  0  0  0
  1 19  1  6  0  0  0
  1  8  1  0  0  0  0
  1  4  1  0  0  0  0
  3  7  1  0  0  0  0
  4  6  1  1  0  0  0
  7 12  1  6  0  0  0
  7 17  1  0  0  0  0
  7 14  1  0  0  0  0
  9  6  1  0  0  0  0
  9  4  1  0  0  0  0
  9 25  1  1  0  0  0
 10 20  1  0  0  0  0
 11 16  1  0  0  0  0
 11 19  2  0  0  0  0
 12  3  1  0  0  0  0
 13 18  1  0  0  0  0
 14  5  1  0  0  0  0
 14 13  1  0  0  0  0
 15 13  1  0  0  0  0
 16  8  1  0  0  0  0
 17 15  1  0  0  0  0
 18  2  1  0  0  0  0
 18  9  1  0  0  0  0
 20 15  1  0  0  0  0
 20 19  1  0  0  0  0
 21 10  2  0  0  0  0
 21 11  1  0  0  0  0
 22 23  2  0  0  0  0
 23 21  1  0  0  0  0
 24 23  1  0  0  0  0
 25 26  3  0  0  0  0
M  END
>  <MODEL>
6

>  <REMARK>
 VINA RESULT:      -7.2      4.135      6.432
  Name = 
  2 active torsions:
  status: ('A' for Active; 'I' for Inactive)
    1  A    between atoms: C_7  and  C_10
    2  A    between atoms: C_21  and  C_26
                            x       y       z     vdW  Elec       q    Type
                         _______ _______ _______ _____ _____    ______ ____

>  <TORSDO>
F 2

$$$$
=
 OpenBabel10222416103D

 26 31  0  0  1  0  0  0  0  0999 V2000
  190.3260  176.8140  140.9580 C   0  0  2  0  0  3  0  0  0  0  0  0
  188.5750  178.2980  145.2800 O   0  0  0  0  0  1  0  0  0  0  0  0
  184.8170  179.4850  143.6260 O   0  0  0  0  0  0  0  0  0  0  0  0
  190.9380  176.8040  142.3310 C   0  0  2  0  0  3  0  0  0  0  0  0
  185.7630  176.9310  145.1030 O   0  0  0  0  0  1  0  0  0  0  0  0
  190.1300  175.7450  143.0270 C   0  0  0  0  0  2  0  0  0  0  0  0
  185.5450  178.4550  143.1080 C   0  0  2  0  0  0  0  0  0  0  0  0
  191.6090  176.7530  139.5390 S   0  0  0  0  0  0  0  0  0  0  0  0
  190.1160  177.1620  143.5940 C   0  0  2  0  0  0  0  0  0  0  0  0
  187.2300  178.2440  139.7160 N   0  0  0  0  0  0  0  0  0  0  0  0
  189.2950  177.7540  138.9670 C   0  0  0  0  0  0  0  0  0  0  0  0
  183.9920  178.5820  142.8700 C   0  0  0  0  0  2  0  0  0  0  0  0
  187.5070  177.4220  143.3950 C   0  0  1  0  0  3  0  0  0  0  0  0
  186.3620  177.9100  144.2630 C   0  0  2  0  0  3  0  0  0  0  0  0
  187.6280  178.2590  142.1550 N   0  0  2  0  0  0  0  0  0  0  0  0
  190.3220  177.3130  138.3090 C   0  0  0  0  0  2  0  0  0  0  0  0
  186.5660  179.2100  142.2290 C   0  0  0  0  0  2  0  0  0  0  0  0
  188.7710  177.2810  144.2880 C   0  0  2  0  0  3  0  0  0  0  0  0
  189.2650  177.6470  140.4070 C   0  0  0  0  0  0  0  0  0  0  0  0
  187.9960  177.8510  140.8250 C   0  0  2  0  0  3  0  0  0  0  0  0
  187.9120  178.1590  138.5900 C   0  0  0  0  0  0  0  0  0  0  0  0
  187.5380  179.3780  136.5770 N   0  0  0  0  0  2  0  0  0  0  0  0
  187.1310  178.4800  137.4150 C   0  0  0  0  0  0  0  0  0  0  0  0
  185.8310  177.8780  137.1970 C   0  0  0  0  0  1  0  0  0  0  0  0
  191.2730  177.3390  144.5460 C   0  0  0  0  0  0  0  0  0  0  0  0
  192.0550  177.4920  145.3990 N   0  0  0  0  0  0  0  0  0  0  0  0
  1  8  1  6  0  0  0
  1  4  1  0  0  0  0
  4  6  1  1  0  0  0
  4  9  1  0  0  0  0
  6  9  1  0  0  0  0
  7 17  1  6  0  0  0
  7  3  1  0  0  0  0
  7 14  1  0  0  0  0
  9 18  1  0  0  0  0
  9 25  1  1  0  0  0
 10 20  1  0  0  0  0
 11 19  2  0  0  0  0
 12  7  1  0  0  0  0
 12  3  1  0  0  0  0
 13 14  1  0  0  0  0
 13 18  1  0  0  0  0
 14  5  1  0  0  0  0
 15 17  1  0  0  0  0
 15 13  1  0  0  0  0
 16 11  1  0  0  0  0
 16  8  1  0  0  0  0
 18  2  1  0  0  0  0
 19 20  1  0  0  0  0
 19  1  1  0  0  0  0
 20 15  1  0  0  0  0
 21 11  1  0  0  0  0
 21 10  2  0  0  0  0
 22 23  2  0  0  0  0
 23 21  1  0  0  0  0
 24 23  1  0  0  0  0
 25 26  3  0  0  0  0
M  END
>  <MODEL>
7

>  <REMARK>
 VINA RESULT:      -7.2      3.617      5.745
  Name = 
  2 active torsions:
  status: ('A' for Active; 'I' for Inactive)
    1  A    between atoms: C_7  and  C_10
    2  A    between atoms: C_21  and  C_26
                            x       y       z     vdW  Elec       q    Type
                         _______ _______ _______ _____ _____    ______ ____

>  <TORSDO>
F 2

$$$$
=
 OpenBabel10222416103D

 26 31  0  0  1  0  0  0  0  0999 V2000
  187.9330  177.4330  142.0130 C   0  0  2  0  0  3  0  0  0  0  0  0
  191.6670  177.6790  145.1650 O   0  0  0  0  0  1  0  0  0  0  0  0
  189.1010  178.2140  148.5410 O   0  0  0  0  0  0  0  0  0  0  0  0
  189.4170  177.3280  141.8010 C   0  0  2  0  0  3  0  0  0  0  0  0
  190.5270  175.7390  147.3430 O   0  0  0  0  0  1  0  0  0  0  0  0
  189.7320  176.0030  142.4360 C   0  0  0  0  0  2  0  0  0  0  0  0
  188.7210  177.4930  147.4490 C   0  0  2  0  0  0  0  0  0  0  0  0
  186.9600  177.9270  140.4390 S   0  0  0  0  0  0  0  0  0  0  0  0
  190.4090  177.2540  142.9880 C   0  0  2  0  0  0  0  0  0  0  0  0
  185.9790  178.2850  144.9500 N   0  0  0  0  0  0  0  0  0  0  0  0
  185.8300  178.4360  142.7090 C   0  0  0  0  0  0  0  0  0  0  0  0
  188.0460  177.2890  148.8580 C   0  0  0  0  0  2  0  0  0  0  0  0
  189.4720  176.9190  145.4220 C   0  0  1  0  0  3  0  0  0  0  0  0
  190.0050  176.9640  146.8420 C   0  0  2  0  0  3  0  0  0  0  0  0
  188.4140  177.9660  145.2200 N   0  0  2  0  0  0  0  0  0  0  0  0
  185.4660  178.3730  141.4660 C   0  0  0  0  0  2  0  0  0  0  0  0
  188.2650  178.6100  146.4840 C   0  0  0  0  0  2  0  0  0  0  0  0
  190.6800  176.9280  144.4450 C   0  0  2  0  0  3  0  0  0  0  0  0
  187.1780  178.0750  143.0810 C   0  0  0  0  0  0  0  0  0  0  0  0
  187.2190  177.8960  144.4210 C   0  0  2  0  0  3  0  0  0  0  0  0
  185.1030  178.5620  144.0030 C   0  0  0  0  0  0  0  0  0  0  0  0
  183.5790  179.0030  145.7810 N   0  0  0  0  0  2  0  0  0  0  0  0
  183.7880  178.8900  144.5090 C   0  0  0  0  0  0  0  0  0  0  0  0
  182.6530  179.0030  143.6150 C   0  0  0  0  0  1  0  0  0  0  0  0
  191.6740  177.5300  142.2130 C   0  0  0  0  0  0  0  0  0  0  0  0
  192.5830  177.6580  141.4930 N   0  0  0  0  0  0  0  0  0  0  0  0
  1  8  1  6  0  0  0
  1 19  1  0  0  0  0
  3 12  1  0  0  0  0
  4  1  1  0  0  0  0
  4  6  1  6  0  0  0
  4  9  1  0  0  0  0
  6  9  1  0  0  0  0
  7 17  1  6  0  0  0
  7  3  1  0  0  0  0
  7 12  1  0  0  0  0
  8 16  1  0  0  0  0
  9 25  1  6  0  0  0
  9 18  1  0  0  0  0
 11 19  2  0  0  0  0
 11 21  1  0  0  0  0
 13 14  1  0  0  0  0
 14  5  1  0  0  0  0
 14  7  1  0  0  0  0
 15 13  1  0  0  0  0
 15 17  1  0  0  0  0
 16 11  1  0  0  0  0
 18  2  1  0  0  0  0
 18 13  1  0  0  0  0
 19 20  1  0  0  0  0
 20 10  1  0  0  0  0
 20 15  1  0  0  0  0
 21 23  1  0  0  0  0
 21 10  2  0  0  0  0
 23 22  2  0  0  0  0
 24 23  1  0  0  0  0
 26 25  3  0  0  0  0
M  END
>  <MODEL>
8

>  <REMARK>
 VINA RESULT:      -7.2      2.659      4.694
  Name = 
  2 active torsions:
  status: ('A' for Active; 'I' for Inactive)
    1  A    between atoms: C_7  and  C_10
    2  A    between atoms: C_21  and  C_26
                            x       y       z     vdW  Elec       q    Type
                         _______ _______ _______ _____ _____    ______ ____

>  <TORSDO>
F 2

$$$$
=
 OpenBabel10222416103D

 26 31  0  0  1  0  0  0  0  0999 V2000
  185.6390  178.9380  141.8790 C   0  0  2  0  0  3  0  0  0  0  0  0
  184.4650  177.7960  146.4910 O   0  0  0  0  0  1  0  0  0  0  0  0
  188.4580  176.6360  147.4780 O   0  0  0  0  0  0  0  0  0  0  0  0
  184.3310  179.0140  142.6170 C   0  0  2  0  0  3  0  0  0  0  0  0
  186.8480  179.2450  147.9170 O   0  0  0  0  0  1  0  0  0  0  0  0
  184.5790  180.1430  143.5780 C   0  0  0  0  0  2  0  0  0  0  0  0
  188.1920  177.6040  146.5570 C   0  0  2  0  0  0  0  0  0  0  0  0
  185.4490  178.8630  139.9760 S   0  0  0  0  0  0  0  0  0  0  0  0
  184.2390  178.7670  144.1440 C   0  0  2  0  0  0  0  0  0  0  0  0
  188.8520  177.5380  142.8220 N   0  0  0  0  0  0  0  0  0  0  0  0
  187.6410  177.9080  140.9610 C   0  0  0  0  0  0  0  0  0  0  0  0
  189.5810  177.5160  147.2950 C   0  0  0  0  0  2  0  0  0  0  0  0
  186.4530  178.5860  145.5490 C   0  0  1  0  0  3  0  0  0  0  0  0
  186.8540  178.1940  146.9590 C   0  0  2  0  0  3  0  0  0  0  0  0
  187.0830  177.6670  144.5430 N   0  0  2  0  0  0  0  0  0  0  0  0
  187.2100  178.2700  139.7930 C   0  0  0  0  0  2  0  0  0  0  0  0
  187.8840  176.7600  145.3010 C   0  0  0  0  0  2  0  0  0  0  0  0
  184.9080  178.7400  145.5050 C   0  0  2  0  0  3  0  0  0  0  0  0
  186.8100  178.1080  142.1260 C   0  0  0  0  0  0  0  0  0  0  0  0
  187.5820  177.9750  143.2290 C   0  0  2  0  0  3  0  0  0  0  0  0
  188.9730  177.5280  141.5080 C   0  0  0  0  0  0  0  0  0  0  0  0
  191.3480  177.5520  141.6930 N   0  0  0  0  0  2  0  0  0  0  0  0
  190.2960  177.1590  141.0520 C   0  0  0  0  0  0  0  0  0  0  0  0
  190.4800  176.4250  139.8160 C   0  0  0  0  0  1  0  0  0  0  0  0
  182.7400  178.6120  144.2330 C   0  0  0  0  0  0  0  0  0  0  0  0
  181.5750  178.6540  144.2850 N   0  0  0  0  0  0  0  0  0  0  0  0
  1  8  1  6  0  0  0
  1 19  1  0  0  0  0
  1  4  1  0  0  0  0
  4  6  1  1  0  0  0
  4  9  1  0  0  0  0
  6  9  1  0  0  0  0
  7 17  1  6  0  0  0
  7 14  1  0  0  0  0
  7 12  1  0  0  0  0
  7  3  1  0  0  0  0
  9 25  1  1  0  0  0
  9 18  1  0  0  0  0
 10 20  1  0  0  0  0
 11 21  1  0  0  0  0
 11 19  2  0  0  0  0
 12  3  1  0  0  0  0
 13 14  1  0  0  0  0
 14  5  1  0  0  0  0
 15 17  1  0  0  0  0
 15 13  1  0  0  0  0
 16  8  1  0  0  0  0
 16 11  1  0  0  0  0
 18 13  1  0  0  0  0
 18  2  1  0  0  0  0
 19 20  1  0  0  0  0
 20 15  1  0  0  0  0
 21 10  2  0  0  0  0
 23 21  1  0  0  0  0
 23 22  2  0  0  0  0
 24 23  1  0  0  0  0
 25 26  3  0  0  0  0
M  END
>  <MODEL>
9

>  <REMARK>
 VINA RESULT:      -7.1      3.418      6.843
  Name = 
  2 active torsions:
  status: ('A' for Active; 'I' for Inactive)
    1  A    between atoms: C_7  and  C_10
    2  A    between atoms: C_21  and  C_26
                            x       y       z     vdW  Elec       q    Type
                         _______ _______ _______ _____ _____    ______ ____

>  <TORSDO>
F 2

$$$$
