=
 OpenBabel10222419563D

 37 40  0  0  1  0  0  0  0  0999 V2000
  189.6910  177.1360  137.9510 C   0  0  0  0  0  0  0  0  0  0  0  0
  190.9920  176.9050  137.4920 C   0  0  0  0  0  3  0  0  0  0  0  0
  188.5970  176.5920  137.2380 C   0  0  0  0  0  0  0  0  0  0  0  0
  187.8130  175.2160  135.3260 N   0  0  0  0  0  1  0  0  0  0  0  0
  190.1460  175.6110  135.6820 N   0  0  0  0  0  0  0  0  0  0  0  0
  191.2030  176.1340  136.3520 C   0  0  0  0  0  3  0  0  0  0  0  0
  188.8630  175.8120  136.0850 C   0  0  0  0  0  0  0  0  0  0  0  0
  189.4910  177.9930  139.1450 C   0  0  0  0  0  0  0  0  0  0  0  0
  189.1800  179.2050  138.9890 O   0  0  0  0  0  0  0  0  0  0  0  0
  188.0270  176.0720  143.4710 C   0  0  0  0  0  1  0  0  0  0  0  0
  189.6560  177.4830  140.5210 C   0  0  0  0  0  0  0  0  0  0  0  0
  191.1060  177.4080  141.3850 S   0  0  0  0  0  0  0  0  0  0  0  0
  188.6270  176.9830  141.2440 N   0  0  0  0  0  0  0  0  0  0  0  0
  190.3860  176.6900  142.7200 C   0  0  0  0  0  0  0  0  0  0  0  0
  189.0210  176.5500  142.4710 C   0  0  0  0  0  0  0  0  0  0  0  0
  191.0790  176.4090  143.9410 N   0  0  0  0  0  2  0  0  0  0  0  0
  191.8400  177.0130  146.0510 O   0  0  0  0  0  0  0  0  0  0  0  0
  190.9900  177.1860  145.1410 C   0  0  0  0  0  0  0  0  0  0  0  0
  189.8470  178.1280  145.3820 C   0  0  0  0  0  2  0  0  0  0  0  0
  187.5240  178.0020  146.2210 C   0  0  0  0  0  1  0  0  0  0  0  0
  189.3320  178.3530  147.7150 O   0  0  0  0  0  1  0  0  0  0  0  0
  189.0910  176.3140  146.7440 F   0  0  0  0  0  0  0  0  0  0  0  0
  188.9690  177.6800  146.5470 C   0  0  2  0  0  0  0  0  0  0  0  0
  187.2650  176.8190  137.7320 N   0  0  0  0  0  2  0  0  0  0  0  0
  186.4470  178.0010  137.5020 C   0  0  0  0  0  2  0  0  0  0  0  0
  183.5750  178.7550  143.4160 C   0  0  0  0  0  3  0  0  0  0  0  0
  182.7540  179.1570  139.8450 O   0  0  0  0  0  0  0  0  0  0  0  0
  182.8590  178.8960  142.2250 C   0  0  0  0  0  3  0  0  0  0  0  0
  185.7220  178.7580  139.7770 O   0  0  0  0  0  0  0  0  0  0  0  0
  184.9640  178.6570  143.3870 C   0  0  0  0  0  3  0  0  0  0  0  0
  182.9660  177.3250  138.2990 C   0  0  0  0  0  3  0  0  0  0  0  0
  184.9410  178.7880  140.9530 C   0  0  0  0  0  0  0  0  0  0  0  0
  184.2270  177.6300  138.3530 C   0  0  0  0  0  0  0  0  0  0  0  0
  183.5220  178.9300  140.9910 C   0  0  0  0  0  0  0  0  0  0  0  0
  182.0480  178.0890  139.2030 C   0  0  0  0  0  2  0  0  0  0  0  0
  185.6380  178.6760  142.1640 C   0  0  0  0  0  3  0  0  0  0  0  0
  185.4140  178.1050  138.5690 C   0  0  0  0  0  0  0  0  0  0  0  0
  1  8  1  0  0  0  0
  2  1  1  0  0  0  0
  3 24  1  0  0  0  0
  3  1  2  0  0  0  0
  4  7  1  0  0  0  0
  5  7  2  0  0  0  0
  5  6  1  0  0  0  0
  6  2  2  0  0  0  0
  7  3  1  0  0  0  0
  8 11  1  0  0  0  0
  9  8  2  0  0  0  0
 11 13  2  0  0  0  0
 11 12  1  0  0  0  0
 12 14  1  0  0  0  0
 13 15  1  0  0  0  0
 14 16  1  0  0  0  0
 15 14  2  0  0  0  0
 15 10  1  0  0  0  0
 16 18  1  0  0  0  0
 18 19  1  0  0  0  0
 18 17  2  0  0  0  0
 19 23  1  0  0  0  0
 23 20  1  6  0  0  0
 23 22  1  0  0  0  0
 23 21  1  0  0  0  0
 25 24  1  0  0  0  0
 25 37  1  0  0  0  0
 27 34  1  0  0  0  0
 28 26  2  0  0  0  0
 29 32  1  0  0  0  0
 30 26  1  0  0  0  0
 31 33  2  0  0  0  0
 31 35  1  0  0  0  0
 32 34  2  0  0  0  0
 32 36  1  0  0  0  0
 33 37  2  0  0  0  0
 34 28  1  0  0  0  0
 35 27  1  0  0  0  0
 36 30  2  0  0  0  0
 37 29  1  0  0  0  0
M  END
>  <MODEL>
1

>  <REMARK>
 VINA RESULT:      -8.8      0.000      0.000
  Name = 
  8 active torsions:
  status: ('A' for Active; 'I' for Inactive)
    1  A    between atoms: C_1  and  C_3
    2  A    between atoms: C_3  and  C_8
    3  A    between atoms: C_7  and  N_23
    4  A    between atoms: N_11  and  C_25
    5  A    between atoms: C_18  and  C_30
    6  A    between atoms: N_23  and  C_27
    7  A    between atoms: C_27  and  C_37
    8  A    between atoms: C_28  and  C_30
                            x       y       z     vdW  Elec       q    Type
                         _______ _______ _______ _____ _____    ______ ____

>  <TORSDO>
F 8

$$$$
=
 OpenBabel10222419563D

 37 40  0  0  1  0  0  0  0  0999 V2000
  189.9720  177.4740  139.3740 C   0  0  0  0  0  0  0  0  0  0  0  0
  189.2940  177.7550  138.1840 C   0  0  0  0  0  3  0  0  0  0  0  0
  189.3240  177.6980  140.6120 C   0  0  0  0  0  0  0  0  0  0  0  0
  187.2730  178.4240  141.8060 N   0  0  0  0  0  1  0  0  0  0  0  0
  187.3760  178.4430  139.4160 N   0  0  0  0  0  0  0  0  0  0  0  0
  187.9890  178.2400  138.2230 C   0  0  0  0  0  3  0  0  0  0  0  0
  187.9960  178.1900  140.6000 C   0  0  0  0  0  0  0  0  0  0  0  0
  191.3750  176.9950  139.3070 C   0  0  0  0  0  0  0  0  0  0  0  0
  192.1950  177.3670  140.1900 O   0  0  0  0  0  0  0  0  0  0  0  0
  191.2970  173.0390  136.3270 C   0  0  0  0  0  1  0  0  0  0  0  0
  191.8560  176.1050  138.2320 C   0  0  0  0  0  0  0  0  0  0  0  0
  193.2550  176.3260  137.3110 S   0  0  0  0  0  0  0  0  0  0  0  0
  191.1860  174.9940  137.8470 N   0  0  0  0  0  0  0  0  0  0  0  0
  192.9730  174.9620  136.3760 C   0  0  0  0  0  0  0  0  0  0  0  0
  191.8040  174.3470  136.8240 C   0  0  0  0  0  0  0  0  0  0  0  0
  193.8830  174.4780  135.3820 N   0  0  0  0  0  2  0  0  0  0  0  0
  195.9630  173.6830  134.7220 O   0  0  0  0  0  0  0  0  0  0  0  0
  195.1240  173.8160  135.6500 C   0  0  0  0  0  0  0  0  0  0  0  0
  195.4060  173.1860  136.9810 C   0  0  0  0  0  2  0  0  0  0  0  0
  195.8850  174.2040  139.1840 C   0  0  0  0  0  1  0  0  0  0  0  0
  196.6650  175.2190  137.1880 O   0  0  0  0  0  1  0  0  0  0  0  0
  197.6200  173.2780  137.8780 F   0  0  0  0  0  0  0  0  0  0  0  0
  196.4300  173.9800  137.7880 C   0  0  2  0  0  0  0  0  0  0  0  0
  190.0250  177.3840  141.8290 N   0  0  0  0  0  2  0  0  0  0  0  0
  189.8230  176.2120  142.6670 C   0  0  0  0  0  2  0  0  0  0  0  0
  187.1970  178.5720  148.2640 C   0  0  0  0  0  3  0  0  0  0  0  0
  189.8770  176.2810  147.1900 O   0  0  0  0  0  0  0  0  0  0  0  0
  188.3460  177.7780  148.2650 C   0  0  0  0  0  3  0  0  0  0  0  0
  188.3760  176.7470  144.6400 O   0  0  0  0  0  0  0  0  0  0  0  0
  186.4520  178.7170  147.0960 C   0  0  0  0  0  3  0  0  0  0  0  0
  191.6330  177.0130  145.7150 C   0  0  0  0  0  3  0  0  0  0  0  0
  188.0310  177.3060  145.8900 C   0  0  0  0  0  0  0  0  0  0  0  0
  190.7200  176.8550  144.8050 C   0  0  0  0  0  0  0  0  0  0  0  0
  188.7670  177.1270  147.0980 C   0  0  0  0  0  0  0  0  0  0  0  0
  191.2110  176.8000  147.1370 C   0  0  0  0  0  2  0  0  0  0  0  0
  186.8670  178.0860  145.9220 C   0  0  0  0  0  3  0  0  0  0  0  0
  189.6640  176.6360  144.0850 C   0  0  0  0  0  0  0  0  0  0  0  0
  1  3  1  0  0  0  0
  2  6  1  0  0  0  0
  2  1  2  0  0  0  0
  3 24  1  0  0  0  0
  5  7  1  0  0  0  0
  6  5  2  0  0  0  0
  7  3  2  0  0  0  0
  7  4  1  0  0  0  0
  8  1  1  0  0  0  0
  8  9  2  0  0  0  0
 10 15  1  0  0  0  0
 11  8  1  0  0  0  0
 12 11  1  0  0  0  0
 13 11  2  0  0  0  0
 14 15  2  0  0  0  0
 14 12  1  0  0  0  0
 15 13  1  0  0  0  0
 16 18  1  0  0  0  0
 16 14  1  0  0  0  0
 17 18  2  0  0  0  0
 18 19  1  0  0  0  0
 19 23  1  0  0  0  0
 21 23  1  0  0  0  0
 23 22  1  0  0  0  0
 23 20  1  1  0  0  0
 24 25  1  0  0  0  0
 25 37  1  0  0  0  0
 26 28  1  0  0  0  0
 29 32  1  0  0  0  0
 30 26  2  0  0  0  0
 31 35  1  0  0  0  0
 32 36  2  0  0  0  0
 32 34  1  0  0  0  0
 33 31  2  0  0  0  0
 34 27  1  0  0  0  0
 34 28  2  0  0  0  0
 35 27  1  0  0  0  0
 36 30  1  0  0  0  0
 37 29  1  0  0  0  0
 37 33  2  0  0  0  0
M  END
>  <MODEL>
2

>  <REMARK>
 VINA RESULT:      -8.7      3.977      7.979
  Name = 
  8 active torsions:
  status: ('A' for Active; 'I' for Inactive)
    1  A    between atoms: C_1  and  C_3
    2  A    between atoms: C_3  and  C_8
    3  A    between atoms: C_7  and  N_23
    4  A    between atoms: N_11  and  C_25
    5  A    between atoms: C_18  and  C_30
    6  A    between atoms: N_23  and  C_27
    7  A    between atoms: C_27  and  C_37
    8  A    between atoms: C_28  and  C_30
                            x       y       z     vdW  Elec       q    Type
                         _______ _______ _______ _____ _____    ______ ____

>  <TORSDO>
F 8

$$$$
=
 OpenBabel10222419563D

 37 40  0  0  1  0  0  0  0  0999 V2000
  187.0560  178.3620  138.9700 C   0  0  0  0  0  0  0  0  0  0  0  0
  185.8980  178.2830  138.1890 C   0  0  0  0  0  3  0  0  0  0  0  0
  186.9390  178.5300  140.3700 C   0  0  0  0  0  0  0  0  0  0  0  0
  185.4440  178.7470  142.3390 N   0  0  0  0  0  1  0  0  0  0  0  0
  184.5460  178.5100  140.1350 N   0  0  0  0  0  0  0  0  0  0  0  0
  184.6460  178.3570  138.7910 C   0  0  0  0  0  3  0  0  0  0  0  0
  185.6420  178.5970  140.9360 C   0  0  0  0  0  0  0  0  0  0  0  0
  188.3800  178.3200  138.3010 C   0  0  0  0  0  0  0  0  0  0  0  0
  188.9300  179.4000  137.9550 O   0  0  0  0  0  0  0  0  0  0  0  0
  188.8660  173.7190  136.5290 C   0  0  0  0  0  1  0  0  0  0  0  0
  189.0790  177.0520  138.0100 C   0  0  0  0  0  0  0  0  0  0  0  0
  190.6680  176.6720  138.4370 S   0  0  0  0  0  0  0  0  0  0  0  0
  188.4990  176.0390  137.3240 N   0  0  0  0  0  0  0  0  0  0  0  0
  190.6120  175.1680  137.6950 C   0  0  0  0  0  0  0  0  0  0  0  0
  189.3390  174.9840  137.1540 C   0  0  0  0  0  0  0  0  0  0  0  0
  191.6780  174.2130  137.7530 N   0  0  0  0  0  2  0  0  0  0  0  0
  193.4210  173.0270  136.7780 O   0  0  0  0  0  0  0  0  0  0  0  0
  192.7070  174.0630  136.7680 C   0  0  0  0  0  0  0  0  0  0  0  0
  193.0230  175.1560  135.7910 C   0  0  0  0  0  2  0  0  0  0  0  0
  194.7530  176.7990  135.1390 C   0  0  0  0  0  1  0  0  0  0  0  0
  195.0720  175.3900  137.0190 O   0  0  0  0  0  1  0  0  0  0  0  0
  193.5360  177.0580  137.1450 F   0  0  0  0  0  0  0  0  0  0  0  0
  194.0990  176.1030  136.3160 C   0  0  2  0  0  0  0  0  0  0  0  0
  188.1370  178.5880  141.1650 N   0  0  0  0  0  2  0  0  0  0  0  0
  188.9270  177.4550  141.6250 C   0  0  0  0  0  2  0  0  0  0  0  0
  187.7210  178.1290  148.0960 C   0  0  0  0  0  3  0  0  0  0  0  0
  190.2520  176.6350  145.8710 O   0  0  0  0  0  0  0  0  0  0  0  0
  188.9130  177.5780  147.6210 C   0  0  0  0  0  3  0  0  0  0  0  0
  188.0430  177.3110  143.9630 O   0  0  0  0  0  0  0  0  0  0  0  0
  186.6630  178.3620  147.2200 C   0  0  0  0  0  3  0  0  0  0  0  0
  191.4110  177.9580  144.2290 C   0  0  0  0  0  3  0  0  0  0  0  0
  188.0000  177.5360  145.3570 C   0  0  0  0  0  0  0  0  0  0  0  0
  190.3050  177.8170  143.5640 C   0  0  0  0  0  0  0  0  0  0  0  0
  189.0650  177.2610  146.2650 C   0  0  0  0  0  0  0  0  0  0  0  0
  191.4400  177.3930  145.6160 C   0  0  0  0  0  2  0  0  0  0  0  0
  186.8040  178.0640  145.8630 C   0  0  0  0  0  3  0  0  0  0  0  0
  189.1250  177.5530  143.0960 C   0  0  0  0  0  0  0  0  0  0  0  0
  1  3  1  0  0  0  0
  2  6  1  0  0  0  0
  2  1  2  0  0  0  0
  3  7  2  0  0  0  0
  3 24  1  0  0  0  0
  5  7  1  0  0  0  0
  6  5  2  0  0  0  0
  7  4  1  0  0  0  0
  8  1  1  0  0  0  0
  9  8  2  0  0  0  0
 10 15  1  0  0  0  0
 11  8  1  0  0  0  0
 11 12  1  0  0  0  0
 13 11  2  0  0  0  0
 14 16  1  0  0  0  0
 14 12  1  0  0  0  0
 15 13  1  0  0  0  0
 15 14  2  0  0  0  0
 18 17  2  0  0  0  0
 18 16  1  0  0  0  0
 19 23  1  0  0  0  0
 19 18  1  0  0  0  0
 23 20  1  6  0  0  0
 23 21  1  0  0  0  0
 23 22  1  0  0  0  0
 24 25  1  0  0  0  0
 25 37  1  0  0  0  0
 27 34  1  0  0  0  0
 28 26  1  0  0  0  0
 29 32  1  0  0  0  0
 30 26  2  0  0  0  0
 31 35  1  0  0  0  0
 32 36  2  0  0  0  0
 32 34  1  0  0  0  0
 33 31  2  0  0  0  0
 34 28  2  0  0  0  0
 35 27  1  0  0  0  0
 36 30  1  0  0  0  0
 37 33  2  0  0  0  0
 37 29  1  0  0  0  0
M  END
>  <MODEL>
3

>  <REMARK>
 VINA RESULT:      -8.7      3.170      7.490
  Name = 
  8 active torsions:
  status: ('A' for Active; 'I' for Inactive)
    1  A    between atoms: C_1  and  C_3
    2  A    between atoms: C_3  and  C_8
    3  A    between atoms: C_7  and  N_23
    4  A    between atoms: N_11  and  C_25
    5  A    between atoms: C_18  and  C_30
    6  A    between atoms: N_23  and  C_27
    7  A    between atoms: C_27  and  C_37
    8  A    between atoms: C_28  and  C_30
                            x       y       z     vdW  Elec       q    Type
                         _______ _______ _______ _____ _____    ______ ____

>  <TORSDO>
F 8

$$$$
=
 OpenBabel10222419563D

 37 40  0  0  1  0  0  0  0  0999 V2000
  189.2330  177.3530  137.3530 C   0  0  0  0  0  0  0  0  0  0  0  0
  189.2460  177.3780  135.9550 C   0  0  0  0  0  3  0  0  0  0  0  0
  189.9680  176.3550  138.0360 C   0  0  0  0  0  0  0  0  0  0  0  0
  191.4870  174.3980  137.8900 N   0  0  0  0  0  1  0  0  0  0  0  0
  190.6950  175.4890  135.9150 N   0  0  0  0  0  0  0  0  0  0  0  0
  189.9870  176.4350  135.2480 C   0  0  0  0  0  3  0  0  0  0  0  0
  190.7090  175.4200  137.2720 C   0  0  0  0  0  0  0  0  0  0  0  0
  188.4040  178.3430  138.0840 C   0  0  0  0  0  0  0  0  0  0  0  0
  188.9630  179.3360  138.6230 O   0  0  0  0  0  0  0  0  0  0  0  0
  184.0130  178.6440  140.3590 C   0  0  0  0  0  1  0  0  0  0  0  0
  186.9400  178.2040  138.2170 C   0  0  0  0  0  0  0  0  0  0  0  0
  185.8900  177.5880  137.0460 S   0  0  0  0  0  0  0  0  0  0  0  0
  186.2660  178.5940  139.3240 N   0  0  0  0  0  0  0  0  0  0  0  0
  184.5260  177.8540  137.9880 C   0  0  0  0  0  0  0  0  0  0  0  0
  184.9260  178.3930  139.2100 C   0  0  0  0  0  0  0  0  0  0  0  0
  183.2060  177.4530  137.6060 N   0  0  0  0  0  2  0  0  0  0  0  0
  181.6760  175.8580  136.8930 O   0  0  0  0  0  0  0  0  0  0  0  0
  182.7540  176.0980  137.4940 C   0  0  0  0  0  0  0  0  0  0  0  0
  183.4800  174.9710  138.1670 C   0  0  0  0  0  2  0  0  0  0  0  0
  185.0070  173.0600  137.8070 C   0  0  0  0  0  1  0  0  0  0  0  0
  184.4000  174.4760  136.0060 O   0  0  0  0  0  1  0  0  0  0  0  0
  182.8410  173.0680  136.8680 F   0  0  0  0  0  0  0  0  0  0  0  0
  183.9100  173.8930  137.1760 C   0  0  2  0  0  0  0  0  0  0  0  0
  189.9630  176.3530  139.4750 N   0  0  0  0  0  2  0  0  0  0  0  0
  190.9180  177.0240  140.3450 C   0  0  0  0  0  2  0  0  0  0  0  0
  186.4200  178.0300  145.0930 C   0  0  0  0  0  3  0  0  0  0  0  0
  189.8360  176.6960  144.7250 O   0  0  0  0  0  0  0  0  0  0  0  0
  187.7150  177.5960  145.3840 C   0  0  0  0  0  3  0  0  0  0  0  0
  188.9390  176.9490  141.8780 O   0  0  0  0  0  0  0  0  0  0  0  0
  185.9760  178.0650  143.7730 C   0  0  0  0  0  3  0  0  0  0  0  0
  191.6020  178.0240  143.7710 C   0  0  0  0  0  3  0  0  0  0  0  0
  188.1480  177.2710  143.0030 C   0  0  0  0  0  0  0  0  0  0  0  0
  191.0300  177.6980  142.6530 C   0  0  0  0  0  0  0  0  0  0  0  0
  188.5840  177.1990  144.3590 C   0  0  0  0  0  0  0  0  0  0  0  0
  190.9270  177.5730  145.0300 C   0  0  0  0  0  2  0  0  0  0  0  0
  186.8350  177.6850  142.7400 C   0  0  0  0  0  3  0  0  0  0  0  0
  190.2970  177.2560  141.6780 C   0  0  0  0  0  0  0  0  0  0  0  0
  1  3  1  0  0  0  0
  1  8  1  0  0  0  0
  2  1  2  0  0  0  0
  3 24  1  0  0  0  0
  5  7  1  0  0  0  0
  6  5  2  0  0  0  0
  6  2  1  0  0  0  0
  7  4  1  0  0  0  0
  7  3  2  0  0  0  0
  8 11  1  0  0  0  0
  8  9  2  0  0  0  0
 11 13  2  0  0  0  0
 12 14  1  0  0  0  0
 12 11  1  0  0  0  0
 14 15  2  0  0  0  0
 15 13  1  0  0  0  0
 15 10  1  0  0  0  0
 16 14  1  0  0  0  0
 17 18  2  0  0  0  0
 18 16  1  0  0  0  0
 18 19  1  0  0  0  0
 21 23  1  0  0  0  0
 22 23  1  0  0  0  0
 23 20  1  1  0  0  0
 23 19  1  0  0  0  0
 24 25  1  0  0  0  0
 25 37  1  0  0  0  0
 26 28  1  0  0  0  0
 27 35  1  0  0  0  0
 29 32  1  0  0  0  0
 30 26  2  0  0  0  0
 31 35  1  0  0  0  0
 32 34  1  0  0  0  0
 33 31  2  0  0  0  0
 34 27  1  0  0  0  0
 34 28  2  0  0  0  0
 36 32  2  0  0  0  0
 36 30  1  0  0  0  0
 37 29  1  0  0  0  0
 37 33  2  0  0  0  0
M  END
>  <MODEL>
4

>  <REMARK>
 VINA RESULT:      -8.7      3.210      7.109
  Name = 
  8 active torsions:
  status: ('A' for Active; 'I' for Inactive)
    1  A    between atoms: C_1  and  C_3
    2  A    between atoms: C_3  and  C_8
    3  A    between atoms: C_7  and  N_23
    4  A    between atoms: N_11  and  C_25
    5  A    between atoms: C_18  and  C_30
    6  A    between atoms: N_23  and  C_27
    7  A    between atoms: C_27  and  C_37
    8  A    between atoms: C_28  and  C_30
                            x       y       z     vdW  Elec       q    Type
                         _______ _______ _______ _____ _____    ______ ____

>  <TORSDO>
F 8

$$$$
=
 OpenBabel10222419563D

 37 40  0  0  1  0  0  0  0  0999 V2000
  191.2370  175.3400  137.1640 C   0  0  0  0  0  0  0  0  0  0  0  0
  192.1000  175.2790  136.0650 C   0  0  0  0  0  3  0  0  0  0  0  0
  191.6630  175.9920  138.3450 C   0  0  0  0  0  0  0  0  0  0  0  0
  193.4450  177.2650  139.5130 N   0  0  0  0  0  1  0  0  0  0  0  0
  193.7540  176.4950  137.2700 N   0  0  0  0  0  0  0  0  0  0  0  0
  193.3600  175.8660  136.1350 C   0  0  0  0  0  3  0  0  0  0  0  0
  192.9540  176.5760  138.3660 C   0  0  0  0  0  0  0  0  0  0  0  0
  189.9150  174.6730  137.0790 C   0  0  0  0  0  0  0  0  0  0  0  0
  189.8340  173.4350  137.3050 O   0  0  0  0  0  0  0  0  0  0  0  0
  187.2190  178.2360  134.9380 C   0  0  0  0  0  1  0  0  0  0  0  0
  188.6820  175.4040  136.7230 C   0  0  0  0  0  0  0  0  0  0  0  0
  187.1160  175.0130  137.2210 S   0  0  0  0  0  0  0  0  0  0  0  0
  188.6830  176.4870  135.9110 N   0  0  0  0  0  0  0  0  0  0  0  0
  186.4200  176.2640  136.3460 C   0  0  0  0  0  0  0  0  0  0  0  0
  187.4320  176.9780  135.7050 C   0  0  0  0  0  0  0  0  0  0  0  0
  185.0250  176.5840  136.3900 N   0  0  0  0  0  2  0  0  0  0  0  0
  183.1430  177.3990  137.4810 O   0  0  0  0  0  0  0  0  0  0  0  0
  184.3970  177.4100  137.3770 C   0  0  0  0  0  0  0  0  0  0  0  0
  185.1890  178.3640  138.2200 C   0  0  0  0  0  2  0  0  0  0  0  0
  183.3590  179.8120  139.0410 C   0  0  0  0  0  1  0  0  0  0  0  0
  185.2820  179.4220  140.3730 O   0  0  0  0  0  1  0  0  0  0  0  0
  183.8010  177.7290  140.0600 F   0  0  0  0  0  0  0  0  0  0  0  0
  184.4190  178.8130  139.4590 C   0  0  2  0  0  0  0  0  0  0  0  0
  190.7580  176.0670  139.4610 N   0  0  0  0  0  2  0  0  0  0  0  0
  189.8590  177.1680  139.7740 C   0  0  0  0  0  2  0  0  0  0  0  0
  187.1380  177.7780  145.7750 C   0  0  0  0  0  3  0  0  0  0  0  0
  190.1930  176.4210  144.2230 O   0  0  0  0  0  0  0  0  0  0  0  0
  188.4350  177.2910  145.5990 C   0  0  0  0  0  3  0  0  0  0  0  0
  188.4610  176.9770  141.8430 O   0  0  0  0  0  0  0  0  0  0  0  0
  186.3040  177.9540  144.6730 C   0  0  0  0  0  3  0  0  0  0  0  0
  191.6350  177.8040  142.8800 C   0  0  0  0  0  3  0  0  0  0  0  0
  188.0810  177.2000  143.1850 C   0  0  0  0  0  0  0  0  0  0  0  0
  190.7240  177.6030  141.9770 C   0  0  0  0  0  0  0  0  0  0  0  0
  188.9160  176.9830  144.3200 C   0  0  0  0  0  0  0  0  0  0  0  0
  191.3670  177.2410  144.2430 C   0  0  0  0  0  2  0  0  0  0  0  0
  186.7750  177.6640  143.3910 C   0  0  0  0  0  3  0  0  0  0  0  0
  189.7010  177.2770  141.2500 C   0  0  0  0  0  0  0  0  0  0  0  0
  1  3  1  0  0  0  0
  2  6  1  0  0  0  0
  2  1  2  0  0  0  0
  3  7  2  0  0  0  0
  3 24  1  0  0  0  0
  5  7  1  0  0  0  0
  6  5  2  0  0  0  0
  7  4  1  0  0  0  0
  8  1  1  0  0  0  0
  8  9  2  0  0  0  0
 10 15  1  0  0  0  0
 11  8  1  0  0  0  0
 11 12  1  0  0  0  0
 13 11  2  0  0  0  0
 14 16  1  0  0  0  0
 14 12  1  0  0  0  0
 15 13  1  0  0  0  0
 15 14  2  0  0  0  0
 16 18  1  0  0  0  0
 18 17  2  0  0  0  0
 18 19  1  0  0  0  0
 19 23  1  0  0  0  0
 23 20  1  6  0  0  0
 23 22  1  0  0  0  0
 23 21  1  0  0  0  0
 24 25  1  0  0  0  0
 25 37  1  0  0  0  0
 27 35  1  0  0  0  0
 27 34  1  0  0  0  0
 28 26  1  0  0  0  0
 29 32  1  0  0  0  0
 30 26  2  0  0  0  0
 31 35  1  0  0  0  0
 32 36  2  0  0  0  0
 32 34  1  0  0  0  0
 33 31  2  0  0  0  0
 34 28  2  0  0  0  0
 36 30  1  0  0  0  0
 37 29  1  0  0  0  0
 37 33  2  0  0  0  0
M  END
>  <MODEL>
5

>  <REMARK>
 VINA RESULT:      -8.6      2.856      6.793
  Name = 
  8 active torsions:
  status: ('A' for Active; 'I' for Inactive)
    1  A    between atoms: C_1  and  C_3
    2  A    between atoms: C_3  and  C_8
    3  A    between atoms: C_7  and  N_23
    4  A    between atoms: N_11  and  C_25
    5  A    between atoms: C_18  and  C_30
    6  A    between atoms: N_23  and  C_27
    7  A    between atoms: C_27  and  C_37
    8  A    between atoms: C_28  and  C_30
                            x       y       z     vdW  Elec       q    Type
                         _______ _______ _______ _____ _____    ______ ____

>  <TORSDO>
F 8

$$$$
=
 OpenBabel10222419563D

 37 40  0  0  1  0  0  0  0  0999 V2000
  186.2440  177.3810  136.7050 C   0  0  0  0  0  0  0  0  0  0  0  0
  186.2890  176.6930  135.4880 C   0  0  0  0  0  3  0  0  0  0  0  0
  185.1030  177.2540  137.5320 C   0  0  0  0  0  0  0  0  0  0  0  0
  182.8740  176.2230  137.8880 N   0  0  0  0  0  1  0  0  0  0  0  0
  184.1400  175.7620  135.9120 N   0  0  0  0  0  0  0  0  0  0  0  0
  185.2240  175.8830  135.1060 C   0  0  0  0  0  3  0  0  0  0  0  0
  184.0460  176.4150  137.1010 C   0  0  0  0  0  0  0  0  0  0  0  0
  187.3740  178.2700  137.0730 C   0  0  0  0  0  0  0  0  0  0  0  0
  187.3470  179.4790  136.7170 O   0  0  0  0  0  0  0  0  0  0  0  0
  191.2590  175.3500  138.0330 C   0  0  0  0  0  1  0  0  0  0  0  0
  188.5450  177.7870  137.8310 C   0  0  0  0  0  0  0  0  0  0  0  0
  189.1170  178.4230  139.2880 S   0  0  0  0  0  0  0  0  0  0  0  0
  189.3200  176.7620  137.4060 N   0  0  0  0  0  0  0  0  0  0  0  0
  190.4130  177.3600  139.3570 C   0  0  0  0  0  0  0  0  0  0  0  0
  190.3540  176.5110  138.2520 C   0  0  0  0  0  0  0  0  0  0  0  0
  191.3250  177.2900  140.4590 N   0  0  0  0  0  2  0  0  0  0  0  0
  191.9050  177.7110  142.6680 O   0  0  0  0  0  0  0  0  0  0  0  0
  190.9860  177.5290  141.8290 C   0  0  0  0  0  0  0  0  0  0  0  0
  189.5660  177.4650  142.3090 C   0  0  0  0  0  2  0  0  0  0  0  0
  189.4890  176.7410  144.6720 C   0  0  0  0  0  1  0  0  0  0  0  0
  190.2500  175.2650  142.9800 O   0  0  0  0  0  1  0  0  0  0  0  0
  188.0420  175.7870  143.0680 F   0  0  0  0  0  0  0  0  0  0  0  0
  189.3250  176.2790  143.2380 C   0  0  2  0  0  0  0  0  0  0  0  0
  185.0780  177.9500  138.7920 N   0  0  0  0  0  2  0  0  0  0  0  0
  184.1560  179.0080  139.1780 C   0  0  0  0  0  2  0  0  0  0  0  0
  184.9680  178.2780  145.7040 C   0  0  0  0  0  3  0  0  0  0  0  0
  182.6110  179.8490  143.3460 O   0  0  0  0  0  0  0  0  0  0  0  0
  183.8210  178.8640  145.1640 C   0  0  0  0  0  3  0  0  0  0  0  0
  184.9060  179.1190  141.5640 O   0  0  0  0  0  0  0  0  0  0  0  0
  186.0680  178.0190  144.8900 C   0  0  0  0  0  3  0  0  0  0  0  0
  181.5130  178.5640  141.6320 C   0  0  0  0  0  3  0  0  0  0  0  0
  184.8630  178.8880  142.9570 C   0  0  0  0  0  0  0  0  0  0  0  0
  182.6580  178.6770  141.0330 C   0  0  0  0  0  0  0  0  0  0  0  0
  183.7560  179.1890  143.8030 C   0  0  0  0  0  0  0  0  0  0  0  0
  181.4190  179.1240  143.0180 C   0  0  0  0  0  2  0  0  0  0  0  0
  186.0130  178.3260  143.5280 C   0  0  0  0  0  3  0  0  0  0  0  0
  183.8710  178.9100  140.6350 C   0  0  0  0  0  0  0  0  0  0  0  0
  1  8  1  0  0  0  0
  1  3  1  0  0  0  0
  2  1  2  0  0  0  0
  3 24  1  0  0  0  0
  5  7  1  0  0  0  0
  6  2  1  0  0  0  0
  6  5  2  0  0  0  0
  7  3  2  0  0  0  0
  7  4  1  0  0  0  0
  8 11  1  0  0  0  0
  9  8  2  0  0  0  0
 10 15  1  0  0  0  0
 11 12  1  0  0  0  0
 12 14  1  0  0  0  0
 13 11  2  0  0  0  0
 13 15  1  0  0  0  0
 14 16  1  0  0  0  0
 15 14  2  0  0  0  0
 16 18  1  0  0  0  0
 18 19  1  0  0  0  0
 18 17  2  0  0  0  0
 19 23  1  0  0  0  0
 21 23  1  0  0  0  0
 22 23  1  0  0  0  0
 23 20  1  1  0  0  0
 24 25  1  0  0  0  0
 25 37  1  0  0  0  0
 27 34  1  0  0  0  0
 28 26  1  0  0  0  0
 29 32  1  0  0  0  0
 30 26  2  0  0  0  0
 31 35  1  0  0  0  0
 32 36  2  0  0  0  0
 32 34  1  0  0  0  0
 33 31  2  0  0  0  0
 34 28  2  0  0  0  0
 35 27  1  0  0  0  0
 36 30  1  0  0  0  0
 37 33  2  0  0  0  0
 37 29  1  0  0  0  0
M  END
>  <MODEL>
6

>  <REMARK>
 VINA RESULT:      -8.4      2.268      3.808
  Name = 
  8 active torsions:
  status: ('A' for Active; 'I' for Inactive)
    1  A    between atoms: C_1  and  C_3
    2  A    between atoms: C_3  and  C_8
    3  A    between atoms: C_7  and  N_23
    4  A    between atoms: N_11  and  C_25
    5  A    between atoms: C_18  and  C_30
    6  A    between atoms: N_23  and  C_27
    7  A    between atoms: C_27  and  C_37
    8  A    between atoms: C_28  and  C_30
                            x       y       z     vdW  Elec       q    Type
                         _______ _______ _______ _____ _____    ______ ____

>  <TORSDO>
F 8

$$$$
=
 OpenBabel10222419563D

 37 40  0  0  1  0  0  0  0  0999 V2000
  183.1440  178.8120  141.5300 C   0  0  0  0  0  0  0  0  0  0  0  0
  181.7490  178.7240  141.5710 C   0  0  0  0  0  3  0  0  0  0  0  0
  183.8690  178.9190  142.7410 C   0  0  0  0  0  0  0  0  0  0  0  0
  183.8110  179.0030  145.2200 N   0  0  0  0  0  1  0  0  0  0  0  0
  181.7930  178.8230  143.9490 N   0  0  0  0  0  0  0  0  0  0  0  0
  181.0860  178.7290  142.7950 C   0  0  0  0  0  3  0  0  0  0  0  0
  183.1490  178.9170  143.9610 C   0  0  0  0  0  0  0  0  0  0  0  0
  183.8250  178.8450  140.2120 C   0  0  0  0  0  0  0  0  0  0  0  0
  184.5690  179.8220  139.9270 O   0  0  0  0  0  0  0  0  0  0  0  0
  184.1570  176.7350  135.7420 C   0  0  0  0  0  1  0  0  0  0  0  0
  183.6540  177.7770  139.2070 C   0  0  0  0  0  0  0  0  0  0  0  0
  182.9280  176.2740  139.4690 S   0  0  0  0  0  0  0  0  0  0  0  0
  184.1000  177.8920  137.9340 N   0  0  0  0  0  0  0  0  0  0  0  0
  183.2200  175.7510  137.9010 C   0  0  0  0  0  0  0  0  0  0  0  0
  183.8530  176.7760  137.1980 C   0  0  0  0  0  0  0  0  0  0  0  0
  182.7550  174.5000  137.3810 N   0  0  0  0  0  2  0  0  0  0  0  0
  183.1210  172.4200  136.4140 O   0  0  0  0  0  0  0  0  0  0  0  0
  183.5770  173.3570  137.1180 C   0  0  0  0  0  0  0  0  0  0  0  0
  184.9300  173.2030  137.7470 C   0  0  0  0  0  2  0  0  0  0  0  0
  187.0520  172.4270  136.7400 C   0  0  0  0  0  1  0  0  0  0  0  0
  186.7100  174.7240  137.2180 O   0  0  0  0  0  1  0  0  0  0  0  0
  185.5530  173.7740  135.5110 F   0  0  0  0  0  0  0  0  0  0  0  0
  186.0560  173.5690  136.7840 C   0  0  2  0  0  0  0  0  0  0  0  0
  185.3050  178.9880  142.6850 N   0  0  0  0  0  2  0  0  0  0  0  0
  186.2170  177.8780  142.4490 C   0  0  0  0  0  2  0  0  0  0  0  0
  189.0550  177.9410  148.4260 C   0  0  0  0  0  3  0  0  0  0  0  0
  189.7270  176.6680  145.0330 O   0  0  0  0  0  0  0  0  0  0  0  0
  189.7140  177.4400  147.3010 C   0  0  0  0  0  3  0  0  0  0  0  0
  186.8590  177.5140  144.8410 O   0  0  0  0  0  0  0  0  0  0  0  0
  187.6990  178.2520  148.3580 C   0  0  0  0  0  3  0  0  0  0  0  0
  189.7770  178.1420  143.1300 C   0  0  0  0  0  3  0  0  0  0  0  0
  187.6500  177.6080  146.0080 C   0  0  0  0  0  0  0  0  0  0  0  0
  188.4850  178.0610  143.2320 C   0  0  0  0  0  0  0  0  0  0  0  0
  189.0280  177.2520  146.0940 C   0  0  0  0  0  0  0  0  0  0  0  0
  190.5800  177.4500  144.1880 C   0  0  0  0  0  2  0  0  0  0  0  0
  187.0050  178.0830  147.1580 C   0  0  0  0  0  3  0  0  0  0  0  0
  187.2420  177.8380  143.5270 C   0  0  0  0  0  0  0  0  0  0  0  0
  1  2  2  0  0  0  0
  1  3  1  0  0  0  0
  2  6  1  0  0  0  0
  3  7  2  0  0  0  0
  5  7  1  0  0  0  0
  6  5  2  0  0  0  0
  7  4  1  0  0  0  0
  8  1  1  0  0  0  0
  9  8  2  0  0  0  0
 10 15  1  0  0  0  0
 11 12  1  0  0  0  0
 11  8  1  0  0  0  0
 13 11  2  0  0  0  0
 14 12  1  0  0  0  0
 15 14  2  0  0  0  0
 15 13  1  0  0  0  0
 16 14  1  0  0  0  0
 17 18  2  0  0  0  0
 18 16  1  0  0  0  0
 18 19  1  0  0  0  0
 22 23  1  0  0  0  0
 23 20  1  6  0  0  0
 23 21  1  0  0  0  0
 23 19  1  0  0  0  0
 24  3  1  0  0  0  0
 25 24  1  0  0  0  0
 25 37  1  0  0  0  0
 27 34  1  0  0  0  0
 28 26  2  0  0  0  0
 29 32  1  0  0  0  0
 30 26  1  0  0  0  0
 31 33  2  0  0  0  0
 31 35  1  0  0  0  0
 32 34  2  0  0  0  0
 32 36  1  0  0  0  0
 33 37  2  0  0  0  0
 34 28  1  0  0  0  0
 35 27  1  0  0  0  0
 36 30  2  0  0  0  0
 37 29  1  0  0  0  0
M  END
>  <MODEL>
7

>  <REMARK>
 VINA RESULT:      -8.3      3.987      8.870
  Name = 
  8 active torsions:
  status: ('A' for Active; 'I' for Inactive)
    1  A    between atoms: C_1  and  C_3
    2  A    between atoms: C_3  and  C_8
    3  A    between atoms: C_7  and  N_23
    4  A    between atoms: N_11  and  C_25
    5  A    between atoms: C_18  and  C_30
    6  A    between atoms: N_23  and  C_27
    7  A    between atoms: C_27  and  C_37
    8  A    between atoms: C_28  and  C_30
                            x       y       z     vdW  Elec       q    Type
                         _______ _______ _______ _____ _____    ______ ____

>  <TORSDO>
F 8

$$$$
=
 OpenBabel10222419563D

 37 40  0  0  1  0  0  0  0  0999 V2000
  183.3700  179.0470  140.7590 C   0  0  0  0  0  0  0  0  0  0  0  0
  181.9790  178.8990  140.7670 C   0  0  0  0  0  3  0  0  0  0  0  0
  184.0800  178.9950  141.9820 C   0  0  0  0  0  0  0  0  0  0  0  0
  183.9990  178.6940  144.4440 N   0  0  0  0  0  1  0  0  0  0  0  0
  182.0000  178.6320  143.1320 N   0  0  0  0  0  0  0  0  0  0  0  0
  181.3070  178.6890  141.9680 C   0  0  0  0  0  3  0  0  0  0  0  0
  183.3510  178.7770  143.1770 C   0  0  0  0  0  0  0  0  0  0  0  0
  184.0590  179.3090  139.4710 C   0  0  0  0  0  0  0  0  0  0  0  0
  184.2230  180.5010  139.0920 O   0  0  0  0  0  0  0  0  0  0  0  0
  183.9970  174.8410  137.3320 C   0  0  0  0  0  1  0  0  0  0  0  0
  184.5500  178.2210  138.6020 C   0  0  0  0  0  0  0  0  0  0  0  0
  185.9660  178.2490  137.6820 S   0  0  0  0  0  0  0  0  0  0  0  0
  183.8770  177.0600  138.4330 N   0  0  0  0  0  0  0  0  0  0  0  0
  185.6880  176.7270  137.0300 C   0  0  0  0  0  0  0  0  0  0  0  0
  184.5070  176.2190  137.5700 C   0  0  0  0  0  0  0  0  0  0  0  0
  186.6110  176.0510  136.1690 N   0  0  0  0  0  2  0  0  0  0  0  0
  188.7650  175.5860  135.4350 O   0  0  0  0  0  0  0  0  0  0  0  0
  188.0240  175.9580  136.3810 C   0  0  0  0  0  0  0  0  0  0  0  0
  188.6320  176.1930  137.7320 C   0  0  0  0  0  2  0  0  0  0  0  0
  189.8290  177.8760  139.0930 C   0  0  0  0  0  1  0  0  0  0  0  0
  189.3230  178.3010  136.8160 O   0  0  0  0  0  1  0  0  0  0  0  0
  190.9160  176.7620  137.3170 F   0  0  0  0  0  0  0  0  0  0  0  0
  189.6940  177.2880  137.7020 C   0  0  2  0  0  0  0  0  0  0  0  0
  185.5120  179.1280  141.9580 N   0  0  0  0  0  2  0  0  0  0  0  0
  186.4760  178.0700  141.6930 C   0  0  0  0  0  2  0  0  0  0  0  0
  188.7650  177.6380  147.8860 C   0  0  0  0  0  3  0  0  0  0  0  0
  189.7400  176.6340  144.4760 O   0  0  0  0  0  0  0  0  0  0  0  0
  189.5230  177.2230  146.7890 C   0  0  0  0  0  3  0  0  0  0  0  0
  186.9010  177.5120  144.0970 O   0  0  0  0  0  0  0  0  0  0  0  0
  187.4210  177.9630  147.7220 C   0  0  0  0  0  3  0  0  0  0  0  0
  189.9600  178.2550  142.7100 C   0  0  0  0  0  3  0  0  0  0  0  0
  187.5830  177.5070  145.3330 C   0  0  0  0  0  0  0  0  0  0  0  0
  188.6640  178.1740  142.6880 C   0  0  0  0  0  0  0  0  0  0  0  0
  188.9480  177.1360  145.5140 C   0  0  0  0  0  0  0  0  0  0  0  0
  190.6660  177.4750  143.7770 C   0  0  0  0  0  2  0  0  0  0  0  0
  186.8380  177.8940  146.4550 C   0  0  0  0  0  3  0  0  0  0  0  0
  187.4000  177.9380  142.8520 C   0  0  0  0  0  0  0  0  0  0  0  0
  1  2  2  0  0  0  0
  1  3  1  0  0  0  0
  2  6  1  0  0  0  0
  3  7  2  0  0  0  0
  5  7  1  0  0  0  0
  6  5  2  0  0  0  0
  7  4  1  0  0  0  0
  8  1  1  0  0  0  0
  9  8  2  0  0  0  0
 10 15  1  0  0  0  0
 11  8  1  0  0  0  0
 12 11  1  0  0  0  0
 13 11  2  0  0  0  0
 14 15  2  0  0  0  0
 14 12  1  0  0  0  0
 15 13  1  0  0  0  0
 16 18  1  0  0  0  0
 16 14  1  0  0  0  0
 17 18  2  0  0  0  0
 18 19  1  0  0  0  0
 21 23  1  0  0  0  0
 22 23  1  0  0  0  0
 23 19  1  0  0  0  0
 23 20  1  1  0  0  0
 24  3  1  0  0  0  0
 25 24  1  0  0  0  0
 25 37  1  0  0  0  0
 27 34  1  0  0  0  0
 28 26  2  0  0  0  0
 29 32  1  0  0  0  0
 30 26  1  0  0  0  0
 31 35  1  0  0  0  0
 32 34  2  0  0  0  0
 32 36  1  0  0  0  0
 33 31  2  0  0  0  0
 33 37  2  0  0  0  0
 34 28  1  0  0  0  0
 35 27  1  0  0  0  0
 36 30  2  0  0  0  0
 37 29  1  0  0  0  0
M  END
>  <MODEL>
8

>  <REMARK>
 VINA RESULT:      -8.3      3.098      7.865
  Name = 
  8 active torsions:
  status: ('A' for Active; 'I' for Inactive)
    1  A    between atoms: C_1  and  C_3
    2  A    between atoms: C_3  and  C_8
    3  A    between atoms: C_7  and  N_23
    4  A    between atoms: N_11  and  C_25
    5  A    between atoms: C_18  and  C_30
    6  A    between atoms: N_23  and  C_27
    7  A    between atoms: C_27  and  C_37
    8  A    between atoms: C_28  and  C_30
                            x       y       z     vdW  Elec       q    Type
                         _______ _______ _______ _____ _____    ______ ____

>  <TORSDO>
F 8

$$$$
=
 OpenBabel10222419563D

 37 40  0  0  1  0  0  0  0  0999 V2000
  189.1200  177.4340  138.0200 C   0  0  0  0  0  0  0  0  0  0  0  0
  190.1140  177.1590  137.0750 C   0  0  0  0  0  3  0  0  0  0  0  0
  189.3600  177.1440  139.3840 C   0  0  0  0  0  0  0  0  0  0  0  0
  190.9360  176.2950  141.1030 N   0  0  0  0  0  1  0  0  0  0  0  0
  191.5520  176.3520  138.7930 N   0  0  0  0  0  0  0  0  0  0  0  0
  191.3310  176.6180  137.4810 C   0  0  0  0  0  3  0  0  0  0  0  0
  190.6150  176.5960  139.7480 C   0  0  0  0  0  0  0  0  0  0  0  0
  187.8180  177.9740  137.5580 C   0  0  0  0  0  0  0  0  0  0  0  0
  187.7130  179.2080  137.3200 O   0  0  0  0  0  0  0  0  0  0  0  0
  185.3470  173.7600  136.7330 C   0  0  0  0  0  1  0  0  0  0  0  0
  186.6260  177.1210  137.3790 C   0  0  0  0  0  0  0  0  0  0  0  0
  185.0190  177.6380  137.4160 S   0  0  0  0  0  0  0  0  0  0  0  0
  186.7080  175.7840  137.1820 N   0  0  0  0  0  0  0  0  0  0  0  0
  184.4130  176.0890  137.1960 C   0  0  0  0  0  0  0  0  0  0  0  0
  185.4840  175.2040  137.0690 C   0  0  0  0  0  0  0  0  0  0  0  0
  183.0200  175.7950  137.0370 N   0  0  0  0  0  2  0  0  0  0  0  0
  180.9920  174.9900  137.8340 O   0  0  0  0  0  0  0  0  0  0  0  0
  182.1110  175.4970  138.1030 C   0  0  0  0  0  0  0  0  0  0  0  0
  182.4190  175.8690  139.5230 C   0  0  0  0  0  2  0  0  0  0  0  0
  182.9680  177.9720  140.7040 C   0  0  0  0  0  1  0  0  0  0  0  0
  180.7330  177.1850  140.6130 O   0  0  0  0  0  1  0  0  0  0  0  0
  181.6870  177.9990  138.7200 F   0  0  0  0  0  0  0  0  0  0  0  0
  181.9150  177.2670  139.8730 C   0  0  2  0  0  0  0  0  0  0  0  0
  188.3370  177.4510  140.3480 N   0  0  0  0  0  2  0  0  0  0  0  0
  188.3010  178.6050  141.2340 C   0  0  0  0  0  2  0  0  0  0  0  0
  190.7810  176.5550  147.0160 C   0  0  0  0  0  3  0  0  0  0  0  0
  187.8000  178.2920  145.7190 O   0  0  0  0  0  0  0  0  0  0  0  0
  189.4960  177.0920  146.9130 C   0  0  0  0  0  3  0  0  0  0  0  0
  189.6180  178.2800  143.3380 O   0  0  0  0  0  0  0  0  0  0  0  0
  191.6560  176.6290  145.9340 C   0  0  0  0  0  3  0  0  0  0  0  0
  186.4000  177.2880  144.0380 C   0  0  0  0  0  3  0  0  0  0  0  0
  189.9450  177.7420  144.6030 C   0  0  0  0  0  0  0  0  0  0  0  0
  187.3470  177.6800  143.2400 C   0  0  0  0  0  0  0  0  0  0  0  0
  189.0680  177.7010  145.7260 C   0  0  0  0  0  0  0  0  0  0  0  0
  186.6190  177.5100  145.5030 C   0  0  0  0  0  2  0  0  0  0  0  0
  191.2380  177.2200  144.7400 C   0  0  0  0  0  3  0  0  0  0  0  0
  188.4000  178.1500  142.6470 C   0  0  0  0  0  0  0  0  0  0  0  0
  1  3  1  0  0  0  0
  2  6  1  0  0  0  0
  2  1  2  0  0  0  0
  3  7  2  0  0  0  0
  3 24  1  0  0  0  0
  5  7  1  0  0  0  0
  6  5  2  0  0  0  0
  7  4  1  0  0  0  0
  8  1  1  0  0  0  0
  9  8  2  0  0  0  0
 10 15  1  0  0  0  0
 11 12  1  0  0  0  0
 11  8  1  0  0  0  0
 13 11  2  0  0  0  0
 14 12  1  0  0  0  0
 15 13  1  0  0  0  0
 15 14  2  0  0  0  0
 16 14  1  0  0  0  0
 16 18  1  0  0  0  0
 17 18  2  0  0  0  0
 18 19  1  0  0  0  0
 19 23  1  0  0  0  0
 22 23  1  0  0  0  0
 23 21  1  0  0  0  0
 23 20  1  1  0  0  0
 24 25  1  0  0  0  0
 25 37  1  0  0  0  0
 27 34  1  0  0  0  0
 28 26  1  0  0  0  0
 29 32  1  0  0  0  0
 30 26  2  0  0  0  0
 31 35  1  0  0  0  0
 32 36  2  0  0  0  0
 32 34  1  0  0  0  0
 33 31  2  0  0  0  0
 34 28  2  0  0  0  0
 35 27  1  0  0  0  0
 36 30  1  0  0  0  0
 37 33  2  0  0  0  0
 37 29  1  0  0  0  0
M  END
>  <MODEL>
9

>  <REMARK>
 VINA RESULT:      -8.3      3.051      7.136
  Name = 
  8 active torsions:
  status: ('A' for Active; 'I' for Inactive)
    1  A    between atoms: C_1  and  C_3
    2  A    between atoms: C_3  and  C_8
    3  A    between atoms: C_7  and  N_23
    4  A    between atoms: N_11  and  C_25
    5  A    between atoms: C_18  and  C_30
    6  A    between atoms: N_23  and  C_27
    7  A    between atoms: C_27  and  C_37
    8  A    between atoms: C_28  and  C_30
                            x       y       z     vdW  Elec       q    Type
                         _______ _______ _______ _____ _____    ______ ____

>  <TORSDO>
F 8

$$$$
