=
 OpenBabel10222416393D

 30 31  0  0  1  0  0  0  0  0999 V2000
  189.0380  178.3310  141.0870 C   0  0  2  0  0  3  0  0  0  0  0  0
  189.1030  177.9990  139.6690 N   0  0  0  0  0  0  0  0  0  0  0  0
  189.7620  177.1760  141.7870 C   0  0  1  0  0  3  0  0  0  0  0  0
  190.1740  176.3430  140.7170 O   0  0  0  0  0  0  0  0  0  0  0  0
  189.7400  176.8910  139.5290 C   0  0  0  0  0  0  0  0  0  0  0  0
  190.8440  175.1040  138.3650 N   0  0  0  0  0  1  0  0  0  0  0  0
  190.0040  176.2780  138.2000 C   0  0  0  0  0  2  0  0  0  0  0  0
  192.1650  177.3030  141.9840 O   0  0  0  0  0  1  0  0  0  0  0  0
  190.9650  177.6950  142.5810 C   0  0  2  0  0  3  0  0  0  0  0  0
  190.9390  177.2480  144.0400 C   0  0  2  0  0  3  0  0  0  0  0  0
  190.5490  175.9240  144.1490 F   0  0  0  0  0  0  0  0  0  0  0  0
  190.0240  178.1440  144.8650 C   0  0  0  0  0  2  0  0  0  0  0  0
  189.0590  177.3170  145.7020 C   0  0  0  0  0  2  0  0  0  0  0  0
  188.6450  177.5790  148.1790 N   0  0  0  0  0  1  0  0  0  0  0  0
  190.6860  176.8210  147.3720 O   0  0  0  0  0  0  0  0  0  0  0  0
  189.5240  177.2290  147.1160 C   0  0  0  0  0  0  0  0  0  0  0  0
  187.5930  178.3750  141.5450 C   0  0  0  0  0  2  0  0  0  0  0  0
  186.7230  178.6890  140.4160 N   0  0  0  0  0  2  0  0  0  0  0  0
  185.3840  179.0650  140.8830 C   0  0  1  0  0  3  0  0  0  0  0  0
  184.2800  180.4030  139.0660 O   0  0  0  0  0  0  0  0  0  0  0  0
  184.3970  179.2030  139.7570 C   0  0  0  0  0  0  0  0  0  0  0  0
  183.6150  178.2550  139.4840 O   0  0  0  0  0  1  0  0  0  0  0  0
  184.7840  177.9560  142.2110 S   0  0  0  0  0  0  0  0  0  0  0  0
  185.6030  178.6620  146.9080 C   0  0  0  0  0  1  0  0  0  0  0  0
  184.6310  179.3110  143.4150 C   0  0  2  0  0  3  0  0  0  0  0  0
  184.9140  178.9110  145.6160 C   0  0  0  0  0  0  0  0  0  0  0  0
  185.5650  179.0930  144.5100 N   0  0  0  0  0  0  0  0  0  0  0  0
  182.2020  179.3770  143.5810 O   0  0  0  0  0  0  0  0  0  0  0  0
  183.4980  178.9700  145.5040 N   0  0  0  0  0  2  0  0  0  0  0  0
  183.3280  179.2250  144.1220 C   0  0  0  0  0  0  0  0  0  0  0  0
  1 17  1  1  0  0  0
  1  3  1  0  0  0  0
  2  1  1  0  0  0  0
  3  9  1  6  0  0  0
  4  3  1  0  0  0  0
  5  2  2  0  0  0  0
  5  4  1  0  0  0  0
  7  6  1  0  0  0  0
  7  5  1  0  0  0  0
  9  8  1  6  0  0  0
  9 10  1  0  0  0  0
 10 11  1  6  0  0  0
 10 12  1  0  0  0  0
 12 13  1  0  0  0  0
 13 16  1  0  0  0  0
 16 15  2  0  0  0  0
 16 14  1  0  0  0  0
 18 19  1  0  0  0  0
 18 17  1  0  0  0  0
 19 21  1  6  0  0  0
 19 23  1  0  0  0  0
 20 21  2  0  0  0  0
 22 21  1  0  0  0  0
 25 23  1  6  0  0  0
 25 30  1  0  0  0  0
 25 27  1  0  0  0  0
 26 24  1  0  0  0  0
 27 26  2  0  0  0  0
 28 30  2  0  0  0  0
 29 26  1  0  0  0  0
 30 29  1  0  0  0  0
M  END
>  <MODEL>
1

>  <REMARK>
 VINA RESULT:      -7.5      0.000      0.000
  Name = 
  12 active torsions:
  status: ('A' for Active; 'I' for Inactive)
    1  A    between atoms: C_1  and  C_6
    2  A    between atoms: C_1  and  C_19
    3  A    between atoms: S_2  and  C_5
    4  A    between atoms: S_2  and  C_21
    5  A    between atoms: C_4  and  C_20
    6  A    between atoms: C_6  and  C_25
    7  A    between atoms: C_12  and  C_19
    8  A    between atoms: N_16  and  C_20
    9  A    between atoms: N_16  and  C_21
   10  A    between atoms: C_21  and  C_23
   11  A    between atoms: C_22  and  C_28
   12  A    between atoms: C_25  and  C_26
                            x       y       z     vdW  Elec       q    Type
                         _______ _______ _______ _____ _____    ______ ____

>  <TORSDO>
F 12

$$$$
=
 OpenBabel10222416393D

 30 31  0  0  1  0  0  0  0  0999 V2000
  188.7450  178.5110  140.8260 C   0  0  2  0  0  3  0  0  0  0  0  0
  188.7790  178.6780  139.3780 N   0  0  0  0  0  0  0  0  0  0  0  0
  189.4870  177.1940  141.0790 C   0  0  1  0  0  3  0  0  0  0  0  0
  189.8760  176.7750  139.7820 O   0  0  0  0  0  0  0  0  0  0  0  0
  189.4140  177.6880  138.8590 C   0  0  0  0  0  0  0  0  0  0  0  0
  190.8240  176.7420  137.1610 N   0  0  0  0  0  1  0  0  0  0  0  0
  189.6490  177.5620  137.3960 C   0  0  0  0  0  2  0  0  0  0  0  0
  191.8870  177.4170  141.2290 O   0  0  0  0  0  1  0  0  0  0  0  0
  190.7070  177.4260  141.9770 C   0  0  2  0  0  3  0  0  0  0  0  0
  190.8010  176.4060  143.1090 C   0  0  2  0  0  3  0  0  0  0  0  0
  190.0660  175.2690  142.8180 F   0  0  0  0  0  0  0  0  0  0  0  0
  190.3430  177.0160  144.4260 C   0  0  0  0  0  2  0  0  0  0  0  0
  191.5040  177.1470  145.4020 C   0  0  0  0  0  2  0  0  0  0  0  0
  192.0640  176.5770  147.7960 N   0  0  0  0  0  1  0  0  0  0  0  0
  189.8660  176.6100  147.0490 O   0  0  0  0  0  0  0  0  0  0  0  0
  191.0860  176.7570  146.7790 C   0  0  0  0  0  0  0  0  0  0  0  0
  187.3100  178.3830  141.3020 C   0  0  0  0  0  2  0  0  0  0  0  0
  186.3960  178.7340  140.2200 N   0  0  0  0  0  2  0  0  0  0  0  0
  185.0990  179.1610  140.7570 C   0  0  1  0  0  3  0  0  0  0  0  0
  183.1260  178.4110  139.3950 O   0  0  0  0  0  1  0  0  0  0  0  0
  184.0740  179.3870  139.6800 C   0  0  0  0  0  0  0  0  0  0  0  0
  184.1160  180.4300  138.9770 O   0  0  0  0  0  0  0  0  0  0  0  0
  184.4990  178.0380  142.0740 S   0  0  0  0  0  0  0  0  0  0  0  0
  185.6780  178.6970  146.7010 C   0  0  0  0  0  1  0  0  0  0  0  0
  184.4070  179.3700  143.3090 C   0  0  2  0  0  3  0  0  0  0  0  0
  184.8800  178.9460  145.4730 C   0  0  0  0  0  0  0  0  0  0  0  0
  185.4330  179.1620  144.3210 N   0  0  0  0  0  0  0  0  0  0  0  0
  181.9990  179.3640  143.6740 O   0  0  0  0  0  0  0  0  0  0  0  0
  183.4580  178.9650  145.4770 N   0  0  0  0  0  2  0  0  0  0  0  0
  183.1690  179.2360  144.1180 C   0  0  0  0  0  0  0  0  0  0  0  0
  1  3  1  0  0  0  0
  1 17  1  6  0  0  0
  2  1  1  0  0  0  0
  3  9  1  1  0  0  0
  4  3  1  0  0  0  0
  5  2  2  0  0  0  0
  5  4  1  0  0  0  0
  6  7  1  0  0  0  0
  7  5  1  0  0  0  0
  9  8  1  6  0  0  0
  9 10  1  0  0  0  0
 10 11  1  6  0  0  0
 10 12  1  0  0  0  0
 12 13  1  0  0  0  0
 13 16  1  0  0  0  0
 16 15  2  0  0  0  0
 16 14  1  0  0  0  0
 18 19  1  0  0  0  0
 18 17  1  0  0  0  0
 19 21  1  6  0  0  0
 19 23  1  0  0  0  0
 20 21  1  0  0  0  0
 22 21  2  0  0  0  0
 25 23  1  6  0  0  0
 25 30  1  0  0  0  0
 25 27  1  0  0  0  0
 26 29  1  0  0  0  0
 26 24  1  0  0  0  0
 27 26  2  0  0  0  0
 28 30  2  0  0  0  0
 30 29  1  0  0  0  0
M  END
>  <MODEL>
2

>  <REMARK>
 VINA RESULT:      -7.4      1.112      1.306
  Name = 
  12 active torsions:
  status: ('A' for Active; 'I' for Inactive)
    1  A    between atoms: C_1  and  C_6
    2  A    between atoms: C_1  and  C_19
    3  A    between atoms: S_2  and  C_5
    4  A    between atoms: S_2  and  C_21
    5  A    between atoms: C_4  and  C_20
    6  A    between atoms: C_6  and  C_25
    7  A    between atoms: C_12  and  C_19
    8  A    between atoms: N_16  and  C_20
    9  A    between atoms: N_16  and  C_21
   10  A    between atoms: C_21  and  C_23
   11  A    between atoms: C_22  and  C_28
   12  A    between atoms: C_25  and  C_26
                            x       y       z     vdW  Elec       q    Type
                         _______ _______ _______ _____ _____    ______ ____

>  <TORSDO>
F 12

$$$$
=
 OpenBabel10222416393D

 30 31  0  0  1  0  0  0  0  0999 V2000
  189.2810  177.9320  140.9800 C   0  0  2  0  0  3  0  0  0  0  0  0
  188.1630  178.5290  141.7010 N   0  0  0  0  0  0  0  0  0  0  0  0
  188.7090  177.5830  139.6020 C   0  0  1  0  0  3  0  0  0  0  0  0
  187.3660  178.0310  139.6740 O   0  0  0  0  0  0  0  0  0  0  0  0
  187.1340  178.5530  140.9290 C   0  0  0  0  0  0  0  0  0  0  0  0
  185.0420  179.4600  140.1750 N   0  0  0  0  0  1  0  0  0  0  0  0
  185.8260  179.1220  141.3500 C   0  0  0  0  0  2  0  0  0  0  0  0
  188.7020  179.3330  137.9370 O   0  0  0  0  0  1  0  0  0  0  0  0
  189.4790  178.3150  138.4980 C   0  0  2  0  0  3  0  0  0  0  0  0
  189.9680  177.3710  137.4030 C   0  0  2  0  0  3  0  0  0  0  0  0
  188.9050  176.7660  136.7540 F   0  0  0  0  0  0  0  0  0  0  0  0
  190.9120  176.3220  137.9750 C   0  0  0  0  0  2  0  0  0  0  0  0
  192.2580  176.3500  137.2640 C   0  0  0  0  0  2  0  0  0  0  0  0
  193.3580  177.1270  139.3990 N   0  0  0  0  0  1  0  0  0  0  0  0
  194.3280  175.4870  138.0710 O   0  0  0  0  0  0  0  0  0  0  0  0
  193.3780  176.2920  138.2470 C   0  0  0  0  0  0  0  0  0  0  0  0
  189.7310  176.6620  141.6780 C   0  0  0  0  0  2  0  0  0  0  0  0
  190.8430  176.9560  142.5760 N   0  0  0  0  0  2  0  0  0  0  0  0
  190.4680  176.6890  143.9680 C   0  0  1  0  0  3  0  0  0  0  0  0
  192.0240  176.6970  145.9410 O   0  0  0  0  0  1  0  0  0  0  0  0
  191.5950  176.0920  144.7650 C   0  0  0  0  0  0  0  0  0  0  0  0
  192.2090  175.0820  144.3320 O   0  0  0  0  0  0  0  0  0  0  0  0
  189.7390  178.1610  144.7770 S   0  0  0  0  0  0  0  0  0  0  0  0
  185.0790  178.9460  145.7310 C   0  0  0  0  0  1  0  0  0  0  0  0
  188.3230  177.2260  145.4340 C   0  0  2  0  0  3  0  0  0  0  0  0
  186.3940  178.2840  145.9280 C   0  0  0  0  0  0  0  0  0  0  0  0
  187.0850  177.8120  144.9390 N   0  0  0  0  0  0  0  0  0  0  0  0
  189.0250  177.0880  147.7620 O   0  0  0  0  0  0  0  0  0  0  0  0
  186.9830  178.1220  147.2120 N   0  0  0  0  0  2  0  0  0  0  0  0
  188.1890  177.4540  146.8940 C   0  0  0  0  0  0  0  0  0  0  0  0
  1 17  1  1  0  0  0
  1  2  1  0  0  0  0
  3  9  1  6  0  0  0
  3  4  1  0  0  0  0
  3  1  1  0  0  0  0
  4  5  1  0  0  0  0
  5  7  1  0  0  0  0
  5  2  2  0  0  0  0
  6  7  1  0  0  0  0
  9  8  1  6  0  0  0
 10 11  1  1  0  0  0
 10 12  1  0  0  0  0
 10  9  1  0  0  0  0
 13 12  1  0  0  0  0
 13 16  1  0  0  0  0
 15 16  2  0  0  0  0
 16 14  1  0  0  0  0
 17 18  1  0  0  0  0
 19 18  1  6  0  0  0
 19 21  1  0  0  0  0
 19 23  1  0  0  0  0
 21 20  1  0  0  0  0
 22 21  2  0  0  0  0
 24 26  1  0  0  0  0
 25 23  1  6  0  0  0
 25 30  1  0  0  0  0
 26 29  1  0  0  0  0
 27 25  1  0  0  0  0
 27 26  2  0  0  0  0
 30 29  1  0  0  0  0
 30 28  2  0  0  0  0
M  END
>  <MODEL>
3

>  <REMARK>
 VINA RESULT:      -7.2      2.955      6.532
  Name = 
  12 active torsions:
  status: ('A' for Active; 'I' for Inactive)
    1  A    between atoms: C_1  and  C_6
    2  A    between atoms: C_1  and  C_19
    3  A    between atoms: S_2  and  C_5
    4  A    between atoms: S_2  and  C_21
    5  A    between atoms: C_4  and  C_20
    6  A    between atoms: C_6  and  C_25
    7  A    between atoms: C_12  and  C_19
    8  A    between atoms: N_16  and  C_20
    9  A    between atoms: N_16  and  C_21
   10  A    between atoms: C_21  and  C_23
   11  A    between atoms: C_22  and  C_28
   12  A    between atoms: C_25  and  C_26
                            x       y       z     vdW  Elec       q    Type
                         _______ _______ _______ _____ _____    ______ ____

>  <TORSDO>
F 12

$$$$
=
 OpenBabel10222416393D

 30 31  0  0  1  0  0  0  0  0999 V2000
  188.5940  177.5430  141.4870 C   0  0  2  0  0  3  0  0  0  0  0  0
  189.2680  177.1560  140.2530 N   0  0  0  0  0  0  0  0  0  0  0  0
  187.7920  178.7940  141.1130 C   0  0  1  0  0  3  0  0  0  0  0  0
  188.0670  178.9670  139.7330 O   0  0  0  0  0  0  0  0  0  0  0  0
  188.9390  177.9810  139.3230 C   0  0  0  0  0  0  0  0  0  0  0  0
  190.5660  176.9450  137.8920 N   0  0  0  0  0  1  0  0  0  0  0  0
  189.4370  177.8580  137.9270 C   0  0  0  0  0  2  0  0  0  0  0  0
  185.5300  179.5140  140.6700 O   0  0  0  0  0  1  0  0  0  0  0  0
  186.2960  178.5680  141.3550 C   0  0  2  0  0  3  0  0  0  0  0  0
  185.9370  178.5830  142.8390 C   0  0  2  0  0  3  0  0  0  0  0  0
  185.7240  177.3000  143.3130 F   0  0  0  0  0  0  0  0  0  0  0  0
  184.7140  179.4550  143.0910 C   0  0  0  0  0  2  0  0  0  0  0  0
  183.5010  178.6080  143.4460 C   0  0  0  0  0  2  0  0  0  0  0  0
  182.1930  178.4860  141.2900 N   0  0  0  0  0  1  0  0  0  0  0  0
  181.4340  179.7410  143.0910 O   0  0  0  0  0  0  0  0  0  0  0  0
  182.3240  178.9910  142.6140 C   0  0  0  0  0  0  0  0  0  0  0  0
  189.6180  177.8980  142.5490 C   0  0  0  0  0  2  0  0  0  0  0  0
  190.3010  176.6900  143.0020 N   0  0  0  0  0  2  0  0  0  0  0  0
  190.2810  176.6040  144.4670 C   0  0  1  0  0  3  0  0  0  0  0  0
  192.2640  175.0610  144.4520 O   0  0  0  0  0  0  0  0  0  0  0  0
  191.5900  176.1280  145.0350 C   0  0  0  0  0  0  0  0  0  0  0  0
  192.0450  176.6430  146.0900 O   0  0  0  0  0  1  0  0  0  0  0  0
  189.7070  178.1620  145.2380 S   0  0  0  0  0  0  0  0  0  0  0  0
  185.1300  178.4840  146.7180 C   0  0  0  0  0  1  0  0  0  0  0  0
  188.6040  177.3000  146.4000 C   0  0  2  0  0  3  0  0  0  0  0  0
  186.5690  178.1460  146.8740 C   0  0  0  0  0  0  0  0  0  0  0  0
  187.2220  177.4770  145.9770 N   0  0  0  0  0  0  0  0  0  0  0  0
  189.5870  178.0850  148.4860 O   0  0  0  0  0  0  0  0  0  0  0  0
  187.3240  178.5310  148.0150 N   0  0  0  0  0  2  0  0  0  0  0  0
  188.5970  177.9930  147.7130 C   0  0  0  0  0  0  0  0  0  0  0  0
  1 17  1  1  0  0  0
  2  1  1  0  0  0  0
  3  9  1  6  0  0  0
  3  1  1  0  0  0  0
  4  3  1  0  0  0  0
  5  4  1  0  0  0  0
  5  2  2  0  0  0  0
  6  7  1  0  0  0  0
  7  5  1  0  0  0  0
  9  8  1  6  0  0  0
  9 10  1  0  0  0  0
 10 12  1  0  0  0  0
 10 11  1  6  0  0  0
 12 13  1  0  0  0  0
 14 16  1  0  0  0  0
 16 15  2  0  0  0  0
 16 13  1  0  0  0  0
 17 18  1  0  0  0  0
 19 18  1  6  0  0  0
 19 21  1  0  0  0  0
 19 23  1  0  0  0  0
 20 21  2  0  0  0  0
 21 22  1  0  0  0  0
 24 26  1  0  0  0  0
 25 23  1  6  0  0  0
 25 30  1  0  0  0  0
 26 29  1  0  0  0  0
 27 25  1  0  0  0  0
 27 26  2  0  0  0  0
 30 29  1  0  0  0  0
 30 28  2  0  0  0  0
M  END
>  <MODEL>
4

>  <REMARK>
 VINA RESULT:      -7.2      2.364      6.123
  Name = 
  12 active torsions:
  status: ('A' for Active; 'I' for Inactive)
    1  A    between atoms: C_1  and  C_6
    2  A    between atoms: C_1  and  C_19
    3  A    between atoms: S_2  and  C_5
    4  A    between atoms: S_2  and  C_21
    5  A    between atoms: C_4  and  C_20
    6  A    between atoms: C_6  and  C_25
    7  A    between atoms: C_12  and  C_19
    8  A    between atoms: N_16  and  C_20
    9  A    between atoms: N_16  and  C_21
   10  A    between atoms: C_21  and  C_23
   11  A    between atoms: C_22  and  C_28
   12  A    between atoms: C_25  and  C_26
                            x       y       z     vdW  Elec       q    Type
                         _______ _______ _______ _____ _____    ______ ____

>  <TORSDO>
F 12

$$$$
=
 OpenBabel10222416393D

 30 31  0  0  1  0  0  0  0  0999 V2000
  184.7330  178.4570  142.3150 C   0  0  2  0  0  3  0  0  0  0  0  0
  183.4390  178.3300  141.6560 N   0  0  0  0  0  0  0  0  0  0  0  0
  184.4280  179.1880  143.6270 C   0  0  1  0  0  3  0  0  0  0  0  0
  183.0230  179.3720  143.5880 O   0  0  0  0  0  0  0  0  0  0  0  0
  182.5360  178.8560  142.4060 C   0  0  0  0  0  0  0  0  0  0  0  0
  180.5050  180.1360  142.4460 N   0  0  0  0  0  1  0  0  0  0  0  0
  181.0950  178.8730  142.0380 C   0  0  0  0  0  2  0  0  0  0  0  0
  184.4920  178.9560  146.0300 O   0  0  0  0  0  1  0  0  0  0  0  0
  184.8420  178.3330  144.8290 C   0  0  2  0  0  3  0  0  0  0  0  0
  186.3340  178.0080  144.8280 C   0  0  2  0  0  3  0  0  0  0  0  0
  186.5620  176.7190  144.3770 F   0  0  0  0  0  0  0  0  0  0  0  0
  186.9320  178.2030  146.2140 C   0  0  0  0  0  2  0  0  0  0  0  0
  188.4180  177.8720  146.2210 C   0  0  0  0  0  2  0  0  0  0  0  0
  188.0430  177.7470  148.7140 N   0  0  0  0  0  1  0  0  0  0  0  0
  189.9630  176.8770  147.7400 O   0  0  0  0  0  0  0  0  0  0  0  0
  188.8670  177.4750  147.5860 C   0  0  0  0  0  0  0  0  0  0  0  0
  185.6660  179.3040  141.4700 C   0  0  0  0  0  2  0  0  0  0  0  0
  185.8670  178.6730  140.1680 N   0  0  0  0  0  2  0  0  0  0  0  0
  187.1720  178.0050  140.1140 C   0  0  1  0  0  3  0  0  0  0  0  0
  187.6340  176.9080  137.9020 O   0  0  0  0  0  0  0  0  0  0  0  0
  187.7670  178.0140  138.7330 C   0  0  0  0  0  0  0  0  0  0  0  0
  188.4570  178.9950  138.3480 O   0  0  0  0  0  1  0  0  0  0  0  0
  188.3270  178.6510  141.3800 S   0  0  0  0  0  0  0  0  0  0  0  0
  191.3000  176.4820  144.4920 C   0  0  0  0  0  1  0  0  0  0  0  0
  189.2340  177.0790  141.5010 C   0  0  2  0  0  3  0  0  0  0  0  0
  190.7490  176.7670  143.1430 C   0  0  0  0  0  0  0  0  0  0  0  0
  189.4750  176.7670  142.9030 N   0  0  0  0  0  0  0  0  0  0  0  0
  190.9300  177.5050  139.8060 O   0  0  0  0  0  0  0  0  0  0  0  0
  191.5770  177.0560  142.0240 N   0  0  0  0  0  2  0  0  0  0  0  0
  190.6210  177.2460  140.9980 C   0  0  0  0  0  0  0  0  0  0  0  0
  1 17  1  6  0  0  0
  1  3  1  0  0  0  0
  2  1  1  0  0  0  0
  2  5  2  0  0  0  0
  3  9  1  1  0  0  0
  4  3  1  0  0  0  0
  5  4  1  0  0  0  0
  7  5  1  0  0  0  0
  7  6  1  0  0  0  0
  9  8  1  1  0  0  0
 10 11  1  1  0  0  0
 10  9  1  0  0  0  0
 10 12  1  0  0  0  0
 12 13  1  0  0  0  0
 13 16  1  0  0  0  0
 16 15  2  0  0  0  0
 16 14  1  0  0  0  0
 18 17  1  0  0  0  0
 19 21  1  6  0  0  0
 19 18  1  0  0  0  0
 19 23  1  0  0  0  0
 20 21  2  0  0  0  0
 22 21  1  0  0  0  0
 25 23  1  1  0  0  0
 25 27  1  0  0  0  0
 26 24  1  0  0  0  0
 27 26  2  0  0  0  0
 28 30  2  0  0  0  0
 29 26  1  0  0  0  0
 30 25  1  0  0  0  0
 30 29  1  0  0  0  0
M  END
>  <MODEL>
5

>  <REMARK>
 VINA RESULT:      -7.0      2.396      6.108
  Name = 
  12 active torsions:
  status: ('A' for Active; 'I' for Inactive)
    1  A    between atoms: C_1  and  C_6
    2  A    between atoms: C_1  and  C_19
    3  A    between atoms: S_2  and  C_5
    4  A    between atoms: S_2  and  C_21
    5  A    between atoms: C_4  and  C_20
    6  A    between atoms: C_6  and  C_25
    7  A    between atoms: C_12  and  C_19
    8  A    between atoms: N_16  and  C_20
    9  A    between atoms: N_16  and  C_21
   10  A    between atoms: C_21  and  C_23
   11  A    between atoms: C_22  and  C_28
   12  A    between atoms: C_25  and  C_26
                            x       y       z     vdW  Elec       q    Type
                         _______ _______ _______ _____ _____    ______ ____

>  <TORSDO>
F 12

$$$$
=
 OpenBabel10222416393D

 30 31  0  0  1  0  0  0  0  0999 V2000
  188.4530  178.4530  141.4170 C   0  0  2  0  0  3  0  0  0  0  0  0
  188.4170  178.8640  140.0180 N   0  0  0  0  0  0  0  0  0  0  0  0
  189.2480  177.1430  141.4140 C   0  0  1  0  0  3  0  0  0  0  0  0
  189.5940  176.9650  140.0500 O   0  0  0  0  0  0  0  0  0  0  0  0
  189.0610  178.0010  139.3140 C   0  0  0  0  0  0  0  0  0  0  0  0
  188.6630  179.3920  137.3970 N   0  0  0  0  0  1  0  0  0  0  0  0
  189.2360  178.1340  137.8430 C   0  0  0  0  0  2  0  0  0  0  0  0
  191.6600  177.1750  141.5210 O   0  0  0  0  0  1  0  0  0  0  0  0
  190.4980  177.2680  142.2910 C   0  0  2  0  0  3  0  0  0  0  0  0
  190.5310  176.2330  143.4120 C   0  0  2  0  0  3  0  0  0  0  0  0
  189.2560  175.9630  143.8790 F   0  0  0  0  0  0  0  0  0  0  0  0
  191.4300  176.6960  144.5500 C   0  0  0  0  0  2  0  0  0  0  0  0
  190.6550  177.5420  145.5500 C   0  0  0  0  0  2  0  0  0  0  0  0
  191.7900  176.8680  147.7020 N   0  0  0  0  0  1  0  0  0  0  0  0
  189.5570  176.3670  147.3110 O   0  0  0  0  0  0  0  0  0  0  0  0
  190.6230  176.8850  146.8890 C   0  0  0  0  0  0  0  0  0  0  0  0
  187.0450  178.1890  141.9180 C   0  0  0  0  0  2  0  0  0  0  0  0
  187.0750  177.8840  143.3450 N   0  0  0  0  0  2  0  0  0  0  0  0
  185.7560  178.1050  143.9480 C   0  0  1  0  0  3  0  0  0  0  0  0
  184.7100  178.7580  146.1370 O   0  0  0  0  0  1  0  0  0  0  0  0
  185.8320  178.3390  145.4320 C   0  0  0  0  0  0  0  0  0  0  0  0
  186.9340  178.2310  146.0320 O   0  0  0  0  0  0  0  0  0  0  0  0
  184.8150  179.4130  143.0790 S   0  0  0  0  0  0  0  0  0  0  0  0
  182.0670  178.7570  139.1730 C   0  0  0  0  0  1  0  0  0  0  0  0
  183.5280  178.2560  142.5170 C   0  0  2  0  0  3  0  0  0  0  0  0
  182.3760  178.6710  140.6230 C   0  0  0  0  0  0  0  0  0  0  0  0
  183.5100  178.2210  141.0620 N   0  0  0  0  0  0  0  0  0  0  0  0
  181.7150  178.9970  143.9650 O   0  0  0  0  0  0  0  0  0  0  0  0
  181.4530  179.0710  141.6270 N   0  0  0  0  0  2  0  0  0  0  0  0
  182.1800  178.8050  142.8110 C   0  0  0  0  0  0  0  0  0  0  0  0
  1 17  1  6  0  0  0
  2  1  1  0  0  0  0
  3  1  1  0  0  0  0
  3  9  1  1  0  0  0
  4  3  1  0  0  0  0
  5  2  2  0  0  0  0
  5  4  1  0  0  0  0
  6  7  1  0  0  0  0
  7  5  1  0  0  0  0
  9  8  1  6  0  0  0
  9 10  1  0  0  0  0
 10 11  1  1  0  0  0
 10 12  1  0  0  0  0
 12 13  1  0  0  0  0
 13 16  1  0  0  0  0
 16 15  2  0  0  0  0
 16 14  1  0  0  0  0
 17 18  1  0  0  0  0
 18 19  1  0  0  0  0
 19 23  1  6  0  0  0
 19 21  1  0  0  0  0
 21 22  2  0  0  0  0
 21 20  1  0  0  0  0
 24 26  1  0  0  0  0
 25 30  1  0  0  0  0
 25 23  1  6  0  0  0
 26 27  2  0  0  0  0
 26 29  1  0  0  0  0
 27 25  1  0  0  0  0
 29 30  1  0  0  0  0
 30 28  2  0  0  0  0
M  END
>  <MODEL>
6

>  <REMARK>
 VINA RESULT:      -6.8      2.308      3.510
  Name = 
  12 active torsions:
  status: ('A' for Active; 'I' for Inactive)
    1  A    between atoms: C_1  and  C_6
    2  A    between atoms: C_1  and  C_19
    3  A    between atoms: S_2  and  C_5
    4  A    between atoms: S_2  and  C_21
    5  A    between atoms: C_4  and  C_20
    6  A    between atoms: C_6  and  C_25
    7  A    between atoms: C_12  and  C_19
    8  A    between atoms: N_16  and  C_20
    9  A    between atoms: N_16  and  C_21
   10  A    between atoms: C_21  and  C_23
   11  A    between atoms: C_22  and  C_28
   12  A    between atoms: C_25  and  C_26
                            x       y       z     vdW  Elec       q    Type
                         _______ _______ _______ _____ _____    ______ ____

>  <TORSDO>
F 12

$$$$
=
 OpenBabel10222416393D

 30 31  0  0  1  0  0  0  0  0999 V2000
  190.5560  177.4380  139.1650 C   0  0  2  0  0  3  0  0  0  0  0  0
  189.4090  178.2990  138.9030 N   0  0  0  0  0  0  0  0  0  0  0  0
  190.0820  176.0350  138.7700 C   0  0  1  0  0  3  0  0  0  0  0  0
  188.7570  176.2460  138.3130 O   0  0  0  0  0  0  0  0  0  0  0  0
  188.4470  177.5830  138.4370 C   0  0  0  0  0  0  0  0  0  0  0  0
  186.3330  177.1390  137.3890 N   0  0  0  0  0  1  0  0  0  0  0  0
  187.1340  178.1590  138.0430 C   0  0  0  0  0  2  0  0  0  0  0  0
  190.7620  174.0840  137.5190 O   0  0  0  0  0  1  0  0  0  0  0  0
  190.9670  175.4590  137.6600 C   0  0  2  0  0  3  0  0  0  0  0  0
  192.4490  175.7440  137.8870 C   0  0  2  0  0  3  0  0  0  0  0  0
  192.9150  176.6980  136.9990 F   0  0  0  0  0  0  0  0  0  0  0  0
  193.2690  174.4660  137.7790 C   0  0  0  0  0  2  0  0  0  0  0  0
  194.7590  174.7740  137.7330 C   0  0  0  0  0  2  0  0  0  0  0  0
  196.3040  174.9130  139.7250 N   0  0  0  0  0  1  0  0  0  0  0  0
  195.3080  172.9070  139.1110 O   0  0  0  0  0  0  0  0  0  0  0  0
  195.4680  174.1330  138.8780 C   0  0  0  0  0  0  0  0  0  0  0  0
  190.8960  177.4600  140.6430 C   0  0  0  0  0  2  0  0  0  0  0  0
  190.5120  176.1940  141.2600 N   0  0  0  0  0  2  0  0  0  0  0  0
  190.1210  176.3990  142.6590 C   0  0  1  0  0  3  0  0  0  0  0  0
  191.8260  177.5620  144.0930 O   0  0  0  0  0  1  0  0  0  0  0  0
  191.2970  176.3760  143.5960 C   0  0  0  0  0  0  0  0  0  0  0  0
  191.8600  175.2850  143.8750 O   0  0  0  0  0  0  0  0  0  0  0  0
  189.0850  177.8940  142.8700 S   0  0  0  0  0  0  0  0  0  0  0  0
  184.7100  178.7440  144.7080 C   0  0  0  0  0  1  0  0  0  0  0  0
  187.8770  177.0330  143.9240 C   0  0  2  0  0  3  0  0  0  0  0  0
  186.0610  178.1250  144.6940 C   0  0  0  0  0  0  0  0  0  0  0  0
  186.5420  177.5400  143.6420 N   0  0  0  0  0  0  0  0  0  0  0  0
  189.0640  177.1940  146.0440 O   0  0  0  0  0  0  0  0  0  0  0  0
  186.9150  178.1300  145.8300 N   0  0  0  0  0  2  0  0  0  0  0  0
  188.0500  177.4400  145.3410 C   0  0  0  0  0  0  0  0  0  0  0  0
  1 17  1  1  0  0  0
  2  1  1  0  0  0  0
  3  9  1  6  0  0  0
  3  1  1  0  0  0  0
  4  5  1  0  0  0  0
  4  3  1  0  0  0  0
  5  2  2  0  0  0  0
  6  7  1  0  0  0  0
  7  5  1  0  0  0  0
  9  8  1  1  0  0  0
  9 10  1  0  0  0  0
 10 11  1  6  0  0  0
 12 10  1  0  0  0  0
 13 12  1  0  0  0  0
 13 16  1  0  0  0  0
 16 15  2  0  0  0  0
 16 14  1  0  0  0  0
 17 18  1  0  0  0  0
 19 18  1  6  0  0  0
 19 23  1  0  0  0  0
 19 21  1  0  0  0  0
 21 22  2  0  0  0  0
 21 20  1  0  0  0  0
 25 23  1  6  0  0  0
 25 30  1  0  0  0  0
 26 24  1  0  0  0  0
 26 29  1  0  0  0  0
 27 25  1  0  0  0  0
 27 26  2  0  0  0  0
 30 29  1  0  0  0  0
 30 28  2  0  0  0  0
M  END
>  <MODEL>
7

>  <REMARK>
 VINA RESULT:      -6.7      3.318      6.396
  Name = 
  12 active torsions:
  status: ('A' for Active; 'I' for Inactive)
    1  A    between atoms: C_1  and  C_6
    2  A    between atoms: C_1  and  C_19
    3  A    between atoms: S_2  and  C_5
    4  A    between atoms: S_2  and  C_21
    5  A    between atoms: C_4  and  C_20
    6  A    between atoms: C_6  and  C_25
    7  A    between atoms: C_12  and  C_19
    8  A    between atoms: N_16  and  C_20
    9  A    between atoms: N_16  and  C_21
   10  A    between atoms: C_21  and  C_23
   11  A    between atoms: C_22  and  C_28
   12  A    between atoms: C_25  and  C_26
                            x       y       z     vdW  Elec       q    Type
                         _______ _______ _______ _____ _____    ______ ____

>  <TORSDO>
F 12

$$$$
=
 OpenBabel10222416393D

 30 31  0  0  1  0  0  0  0  0999 V2000
  189.1700  178.0810  140.4150 C   0  0  2  0  0  3  0  0  0  0  0  0
  188.2710  178.6670  139.4280 N   0  0  0  0  0  0  0  0  0  0  0  0
  189.4740  176.6790  139.8750 C   0  0  1  0  0  3  0  0  0  0  0  0
  188.7530  176.6270  138.6550 O   0  0  0  0  0  0  0  0  0  0  0  0
  188.0780  177.8160  138.4830 C   0  0  0  0  0  0  0  0  0  0  0  0
  187.5080  179.4460  136.8140 N   0  0  0  0  0  1  0  0  0  0  0  0
  187.2230  178.1070  137.3010 C   0  0  0  0  0  2  0  0  0  0  0  0
  191.6810  177.6470  140.0340 O   0  0  0  0  0  1  0  0  0  0  0  0
  190.9780  176.5060  139.6390 C   0  0  2  0  0  3  0  0  0  0  0  0
  191.3050  176.1700  138.1860 C   0  0  2  0  0  3  0  0  0  0  0  0
  191.1140  174.8220  137.9310 F   0  0  0  0  0  0  0  0  0  0  0  0
  192.7300  176.5810  137.8430 C   0  0  0  0  0  2  0  0  0  0  0  0
  193.3820  175.5720  136.9090 C   0  0  0  0  0  2  0  0  0  0  0  0
  194.8230  173.5100  137.1240 N   0  0  0  0  0  1  0  0  0  0  0  0
  194.9640  175.2440  138.6630 O   0  0  0  0  0  0  0  0  0  0  0  0
  194.4220  174.7790  137.6270 C   0  0  0  0  0  0  0  0  0  0  0  0
  188.4680  177.9670  141.7550 C   0  0  0  0  0  2  0  0  0  0  0  0
  189.3790  178.3560  142.8270 N   0  0  0  0  0  2  0  0  0  0  0  0
  189.4440  177.3100  143.8540 C   0  0  1  0  0  3  0  0  0  0  0  0
  190.3100  175.1810  142.8380 O   0  0  0  0  0  0  0  0  0  0  0  0
  190.5470  176.3200  143.5990 C   0  0  0  0  0  0  0  0  0  0  0  0
  191.6730  176.4760  144.1400 O   0  0  0  0  0  1  0  0  0  0  0  0
  189.5070  178.0120  145.5450 S   0  0  0  0  0  0  0  0  0  0  0  0
  184.8250  179.0550  145.0700 C   0  0  0  0  0  1  0  0  0  0  0  0
  187.9100  177.2790  146.0180 C   0  0  2  0  0  3  0  0  0  0  0  0
  186.0010  178.4470  145.7450 C   0  0  0  0  0  0  0  0  0  0  0  0
  186.8760  177.7400  145.1020 N   0  0  0  0  0  0  0  0  0  0  0  0
  188.0100  177.7040  148.4130 O   0  0  0  0  0  0  0  0  0  0  0  0
  186.2440  178.5960  147.1370 N   0  0  0  0  0  2  0  0  0  0  0  0
  187.4400  177.8570  147.3020 C   0  0  0  0  0  0  0  0  0  0  0  0
  1 17  1  1  0  0  0
  2  1  1  0  0  0  0
  3  9  1  6  0  0  0
  3  1  1  0  0  0  0
  4  3  1  0  0  0  0
  5  4  1  0  0  0  0
  5  2  2  0  0  0  0
  6  7  1  0  0  0  0
  7  5  1  0  0  0  0
  9  8  1  6  0  0  0
 10 11  1  1  0  0  0
 10  9  1  0  0  0  0
 12 10  1  0  0  0  0
 13 16  1  0  0  0  0
 13 12  1  0  0  0  0
 14 16  1  0  0  0  0
 16 15  2  0  0  0  0
 17 18  1  0  0  0  0
 19 18  1  6  0  0  0
 19 23  1  0  0  0  0
 20 21  2  0  0  0  0
 21 19  1  0  0  0  0
 21 22  1  0  0  0  0
 24 26  1  0  0  0  0
 25 23  1  6  0  0  0
 25 30  1  0  0  0  0
 26 29  1  0  0  0  0
 27 26  2  0  0  0  0
 27 25  1  0  0  0  0
 29 30  1  0  0  0  0
 30 28  2  0  0  0  0
M  END
>  <MODEL>
8

>  <REMARK>
 VINA RESULT:      -6.6      3.234      6.157
  Name = 
  12 active torsions:
  status: ('A' for Active; 'I' for Inactive)
    1  A    between atoms: C_1  and  C_6
    2  A    between atoms: C_1  and  C_19
    3  A    between atoms: S_2  and  C_5
    4  A    between atoms: S_2  and  C_21
    5  A    between atoms: C_4  and  C_20
    6  A    between atoms: C_6  and  C_25
    7  A    between atoms: C_12  and  C_19
    8  A    between atoms: N_16  and  C_20
    9  A    between atoms: N_16  and  C_21
   10  A    between atoms: C_21  and  C_23
   11  A    between atoms: C_22  and  C_28
   12  A    between atoms: C_25  and  C_26
                            x       y       z     vdW  Elec       q    Type
                         _______ _______ _______ _____ _____    ______ ____

>  <TORSDO>
F 12

$$$$
=
 OpenBabel10222416393D

 30 31  0  0  1  0  0  0  0  0999 V2000
  186.1460  178.9580  141.7310 C   0  0  2  0  0  3  0  0  0  0  0  0
  185.3130  179.2750  142.8850 N   0  0  0  0  0  0  0  0  0  0  0  0
  185.1840  178.3160  140.7260 C   0  0  1  0  0  3  0  0  0  0  0  0
  183.9310  178.3580  141.3880 O   0  0  0  0  0  0  0  0  0  0  0  0
  184.1030  178.9180  142.6360 C   0  0  0  0  0  0  0  0  0  0  0  0
  183.4920  178.9840  144.9580 N   0  0  0  0  0  1  0  0  0  0  0  0
  182.9910  179.1220  143.6020 C   0  0  0  0  0  2  0  0  0  0  0  0
  184.1540  180.1000  139.4660 O   0  0  0  0  0  1  0  0  0  0  0  0
  185.1490  179.1210  139.4220 C   0  0  2  0  0  3  0  0  0  0  0  0
  184.9550  178.2350  138.1940 C   0  0  2  0  0  3  0  0  0  0  0  0
  184.5970  176.9490  138.5590 F   0  0  0  0  0  0  0  0  0  0  0  0
  186.2130  178.2170  137.3360 C   0  0  0  0  0  2  0  0  0  0  0  0
  187.3970  177.6580  138.1120 C   0  0  0  0  0  2  0  0  0  0  0  0
  189.4350  177.7010  136.6230 N   0  0  0  0  0  1  0  0  0  0  0  0
  189.0570  179.3670  138.1970 O   0  0  0  0  0  0  0  0  0  0  0  0
  188.6700  178.2930  137.6670 C   0  0  0  0  0  0  0  0  0  0  0  0
  187.2150  177.9540  142.1210 C   0  0  0  0  0  2  0  0  0  0  0  0
  188.5280  178.4430  141.7110 N   0  0  0  0  0  2  0  0  0  0  0  0
  189.5870  177.5600  142.2120 C   0  0  1  0  0  3  0  0  0  0  0  0
  191.8430  177.5010  141.1060 O   0  0  0  0  0  1  0  0  0  0  0  0
  190.5140  177.0940  141.1230 C   0  0  0  0  0  0  0  0  0  0  0  0
  190.0710  176.3930  140.1760 O   0  0  0  0  0  0  0  0  0  0  0  0
  190.4840  178.3010  143.6270 S   0  0  0  0  0  0  0  0  0  0  0  0
  187.2710  177.8610  147.1940 C   0  0  0  0  0  1  0  0  0  0  0  0
  189.9270  177.0140  144.7860 C   0  0  2  0  0  3  0  0  0  0  0  0
  188.5320  177.5360  146.4780 C   0  0  0  0  0  0  0  0  0  0  0  0
  188.5620  177.2980  145.2050 N   0  0  0  0  0  0  0  0  0  0  0  0
  191.8920  176.9410  146.2220 O   0  0  0  0  0  0  0  0  0  0  0  0
  189.7880  177.4620  147.1400 N   0  0  0  0  0  2  0  0  0  0  0  0
  190.6570  177.1300  146.0730 C   0  0  0  0  0  0  0  0  0  0  0  0
  1 17  1  1  0  0  0
  1  2  1  0  0  0  0
  3  9  1  6  0  0  0
  3  4  1  0  0  0  0
  3  1  1  0  0  0  0
  4  5  1  0  0  0  0
  5  2  2  0  0  0  0
  5  7  1  0  0  0  0
  7  6  1  0  0  0  0
  9  8  1  1  0  0  0
 10 11  1  1  0  0  0
 10  9  1  0  0  0  0
 12 13  1  0  0  0  0
 12 10  1  0  0  0  0
 14 16  1  0  0  0  0
 16 13  1  0  0  0  0
 16 15  2  0  0  0  0
 18 17  1  0  0  0  0
 18 19  1  0  0  0  0
 19 21  1  6  0  0  0
 19 23  1  0  0  0  0
 20 21  1  0  0  0  0
 22 21  2  0  0  0  0
 25 23  1  6  0  0  0
 25 27  1  0  0  0  0
 25 30  1  0  0  0  0
 26 29  1  0  0  0  0
 26 24  1  0  0  0  0
 27 26  2  0  0  0  0
 30 28  2  0  0  0  0
 30 29  1  0  0  0  0
M  END
>  <MODEL>
9

>  <REMARK>
 VINA RESULT:      -6.6      2.568      7.215
  Name = 
  12 active torsions:
  status: ('A' for Active; 'I' for Inactive)
    1  A    between atoms: C_1  and  C_6
    2  A    between atoms: C_1  and  C_19
    3  A    between atoms: S_2  and  C_5
    4  A    between atoms: S_2  and  C_21
    5  A    between atoms: C_4  and  C_20
    6  A    between atoms: C_6  and  C_25
    7  A    between atoms: C_12  and  C_19
    8  A    between atoms: N_16  and  C_20
    9  A    between atoms: N_16  and  C_21
   10  A    between atoms: C_21  and  C_23
   11  A    between atoms: C_22  and  C_28
   12  A    between atoms: C_25  and  C_26
                            x       y       z     vdW  Elec       q    Type
                         _______ _______ _______ _____ _____    ______ ____

>  <TORSDO>
F 12

$$$$
