=
 OpenBabel10222421063D

 29 32  0  0  1  0  0  0  0  0999 V2000
  187.7680  177.8130  146.9500 C   0  0  0  0  0  3  0  0  0  0  0  0
  187.6680  177.5190  144.5650 C   0  0  0  0  0  3  0  0  0  0  0  0
  187.0320  177.8270  145.7690 C   0  0  0  0  0  0  0  0  0  0  0  0
  189.7390  177.1970  145.7290 N   0  0  0  0  0  0  0  0  0  0  0  0
  191.4440  176.7970  145.7330 Cl  0  0  0  0  0  0  0  0  0  0  0  0
  189.1260  177.4950  146.9160 C   0  0  0  0  0  0  0  0  0  0  0  0
  189.0340  177.2040  144.5520 C   0  0  0  0  0  0  0  0  0  0  0  0
  189.7800  177.4840  147.9930 O   0  0  0  0  0  0  0  0  0  0  0  0
  189.7040  176.8790  143.2770 C   0  0  0  0  0  3  0  0  0  0  0  0
  189.6690  177.6820  142.2150 C   0  0  0  0  0  3  0  0  0  0  0  0
  193.1530  176.8090  138.8860 C   0  0  0  0  0  3  0  0  0  0  0  0
  191.8780  176.1890  136.8910 C   0  0  0  0  0  3  0  0  0  0  0  0
  191.9370  176.9670  139.5460 C   0  0  0  0  0  0  0  0  0  0  0  0
  189.7350  176.9880  139.8280 C   0  0  0  0  0  3  0  0  0  0  0  0
  190.7390  176.7490  138.9180 C   0  0  0  0  0  0  0  0  0  0  0  0
  190.6660  176.3580  137.5850 C   0  0  0  0  0  3  0  0  0  0  0  0
  190.3310  177.3450  140.9930 N   0  0  0  0  0  0  0  0  0  0  0  0
  193.1150  176.4140  137.5360 C   0  0  0  0  0  0  0  0  0  0  0  0
  194.3000  176.2430  136.8340 O   0  0  0  0  0  1  0  0  0  0  0  0
  191.6760  177.3390  140.8440 C   0  0  0  0  0  3  0  0  0  0  0  0
  185.6370  178.1430  145.8140 N   0  0  0  0  0  2  0  0  0  0  0  0
  185.1400  178.4570  143.5380 O   0  0  0  0  0  0  0  0  0  0  0  0
  181.4440  178.7360  143.8030 C   0  0  0  0  0  1  0  0  0  0  0  0
  183.8800  178.4360  143.0290 N   0  0  0  0  0  0  0  0  0  0  0  0
  184.9750  179.0000  144.8390 C   0  0  1  0  0  3  0  0  0  0  0  0
  182.9200  178.7470  144.0110 C   0  0  0  0  0  0  0  0  0  0  0  0
  183.5060  179.0700  145.1260 C   0  0  0  0  0  3  0  0  0  0  0  0
  183.6440  178.6620  141.6110 C   0  0  0  0  0  2  0  0  0  0  0  0
  184.9520  178.9970  140.9200 C   0  0  0  0  0  1  0  0  0  0  0  0
  2  3  1  0  0  0  0
  3 21  1  0  0  0  0
  3  1  2  0  0  0  0
  4  5  1  0  0  0  0
  4  6  1  0  0  0  0
  6  1  1  0  0  0  0
  6  8  2  0  0  0  0
  7  2  2  0  0  0  0
  7  4  1  0  0  0  0
  9  7  1  0  0  0  0
 10  9  2  0  0  0  0
 11 13  1  0  0  0  0
 12 18  1  0  0  0  0
 12 16  2  0  0  0  0
 13 20  2  0  0  0  0
 14 17  1  0  0  0  0
 15 13  1  0  0  0  0
 15 14  2  0  0  0  0
 16 15  1  0  0  0  0
 17 10  1  0  0  0  0
 18 11  2  0  0  0  0
 19 18  1  0  0  0  0
 20 17  1  0  0  0  0
 22 25  1  0  0  0  0
 23 26  1  0  0  0  0
 24 22  1  0  0  0  0
 24 26  1  0  0  0  0
 25 27  1  0  0  0  0
 25 21  1  1  0  0  0
 26 27  2  0  0  0  0
 28 24  1  0  0  0  0
 29 28  1  0  0  0  0
M  END
>  <MODEL>
1

>  <REMARK>
 VINA RESULT:      -9.3      0.000      0.000
  Name = 
  5 active torsions:
  status: ('A' for Active; 'I' for Inactive)
    1  A    between atoms: C_2  and  C_22
    2  A    between atoms: C_7  and  N_18
    3  A    between atoms: C_10  and  N_17
    4  A    between atoms: C_11  and  N_26
    5  A    between atoms: C_24  and  N_26
                            x       y       z     vdW  Elec       q    Type
                         _______ _______ _______ _____ _____    ______ ____

>  <TORSDO>
F 5

$$$$
=
 OpenBabel10222421063D

 29 32  0  0  1  0  0  0  0  0999 V2000
  191.3060  176.6040  137.0570 C   0  0  0  0  0  3  0  0  0  0  0  0
  191.4190  176.8760  139.4450 C   0  0  0  0  0  3  0  0  0  0  0  0
  192.0490  176.5810  138.2340 C   0  0  0  0  0  0  0  0  0  0  0  0
  189.3420  177.2100  138.2940 N   0  0  0  0  0  0  0  0  0  0  0  0
  187.6340  177.5960  138.3040 Cl  0  0  0  0  0  0  0  0  0  0  0  0
  189.9480  176.9210  137.1020 C   0  0  0  0  0  0  0  0  0  0  0  0
  190.0530  177.1940  139.4670 C   0  0  0  0  0  0  0  0  0  0  0  0
  189.2870  176.9360  136.0290 O   0  0  0  0  0  0  0  0  0  0  0  0
  189.3900  177.5050  140.7490 C   0  0  0  0  0  3  0  0  0  0  0  0
  189.4280  176.6910  141.8020 C   0  0  0  0  0  3  0  0  0  0  0  0
  186.0480  178.0490  145.0760 C   0  0  0  0  0  3  0  0  0  0  0  0
  187.2530  177.9370  147.2030 C   0  0  0  0  0  3  0  0  0  0  0  0
  187.2230  177.6360  144.4520 C   0  0  0  0  0  0  0  0  0  0  0  0
  189.3410  176.9960  144.2680 C   0  0  0  0  0  3  0  0  0  0  0  0
  188.3680  177.3810  145.1610 C   0  0  0  0  0  0  0  0  0  0  0  0
  188.4240  177.5210  146.5440 C   0  0  0  0  0  3  0  0  0  0  0  0
  188.7810  177.0210  143.0330 N   0  0  0  0  0  0  0  0  0  0  0  0
  186.0720  178.2000  146.4740 C   0  0  0  0  0  0  0  0  0  0  0  0
  184.9260  178.6110  147.1420 O   0  0  0  0  0  1  0  0  0  0  0  0
  187.4870  177.4080  143.1210 C   0  0  0  0  0  3  0  0  0  0  0  0
  193.4390  176.2440  138.1820 N   0  0  0  0  0  2  0  0  0  0  0  0
  195.3330  175.7470  136.8820 O   0  0  0  0  0  0  0  0  0  0  0  0
  195.8370  172.2240  137.9490 C   0  0  0  0  0  1  0  0  0  0  0  0
  196.0680  174.6120  137.0190 N   0  0  0  0  0  0  0  0  0  0  0  0
  194.0100  175.3380  137.1940 C   0  0  1  0  0  3  0  0  0  0  0  0
  195.3120  173.5720  137.5920 C   0  0  0  0  0  0  0  0  0  0  0  0
  194.0760  173.9470  137.7460 C   0  0  0  0  0  3  0  0  0  0  0  0
  197.2160  174.3590  136.1620 C   0  0  0  0  0  2  0  0  0  0  0  0
  197.5840  175.6220  135.4080 C   0  0  0  0  0  1  0  0  0  0  0  0
  1  6  1  0  0  0  0
  1  3  2  0  0  0  0
  2  7  2  0  0  0  0
  3  2  1  0  0  0  0
  4  5  1  0  0  0  0
  4  7  1  0  0  0  0
  6  4  1  0  0  0  0
  7  9  1  0  0  0  0
  8  6  2  0  0  0  0
  9 10  2  0  0  0  0
 10 17  1  0  0  0  0
 11 18  2  0  0  0  0
 13 11  1  0  0  0  0
 13 15  1  0  0  0  0
 14 15  2  0  0  0  0
 15 16  1  0  0  0  0
 16 12  2  0  0  0  0
 17 20  1  0  0  0  0
 17 14  1  0  0  0  0
 18 19  1  0  0  0  0
 18 12  1  0  0  0  0
 20 13  2  0  0  0  0
 21  3  1  0  0  0  0
 22 24  1  0  0  0  0
 22 25  1  0  0  0  0
 24 26  1  0  0  0  0
 25 27  1  0  0  0  0
 25 21  1  1  0  0  0
 26 27  2  0  0  0  0
 26 23  1  0  0  0  0
 28 24  1  0  0  0  0
 29 28  1  0  0  0  0
M  END
>  <MODEL>
2

>  <REMARK>
 VINA RESULT:      -8.8      3.269     10.474
  Name = 
  5 active torsions:
  status: ('A' for Active; 'I' for Inactive)
    1  A    between atoms: C_2  and  C_22
    2  A    between atoms: C_7  and  N_18
    3  A    between atoms: C_10  and  N_17
    4  A    between atoms: C_11  and  N_26
    5  A    between atoms: C_24  and  N_26
                            x       y       z     vdW  Elec       q    Type
                         _______ _______ _______ _____ _____    ______ ____

>  <TORSDO>
F 5

$$$$
=
 OpenBabel10222421063D

 29 32  0  0  1  0  0  0  0  0999 V2000
  182.2580  178.6450  140.0390 C   0  0  0  0  0  3  0  0  0  0  0  0
  184.4800  178.2400  140.8670 C   0  0  0  0  0  3  0  0  0  0  0  0
  183.5950  178.3480  139.7920 C   0  0  0  0  0  0  0  0  0  0  0  0
  182.6980  178.7240  142.3960 N   0  0  0  0  0  0  0  0  0  0  0  0
  182.1040  178.9580  144.0270 Cl  0  0  0  0  0  0  0  0  0  0  0  0
  181.8210  178.8310  141.3510 C   0  0  0  0  0  0  0  0  0  0  0  0
  184.0200  178.4320  142.1780 C   0  0  0  0  0  0  0  0  0  0  0  0
  180.6070  179.0960  141.5610 O   0  0  0  0  0  0  0  0  0  0  0  0
  184.9580  178.3170  143.3120 C   0  0  0  0  0  3  0  0  0  0  0  0
  186.1930  177.8330  143.1860 C   0  0  0  0  0  3  0  0  0  0  0  0
  190.1930  177.0800  145.9090 C   0  0  0  0  0  3  0  0  0  0  0  0
  189.4390  177.6230  148.1730 C   0  0  0  0  0  3  0  0  0  0  0  0
  188.9080  177.3840  145.4680 C   0  0  0  0  0  0  0  0  0  0  0  0
  186.7820  178.0110  145.5950 C   0  0  0  0  0  3  0  0  0  0  0  0
  187.9240  177.7910  146.3300 C   0  0  0  0  0  0  0  0  0  0  0  0
  188.1500  177.9220  147.6970 C   0  0  0  0  0  3  0  0  0  0  0  0
  187.0830  177.7380  144.3010 N   0  0  0  0  0  0  0  0  0  0  0  0
  190.4550  177.2030  147.2860 C   0  0  0  0  0  0  0  0  0  0  0  0
  191.7210  176.9100  147.7750 O   0  0  0  0  0  1  0  0  0  0  0  0
  188.3760  177.3540  144.1990 C   0  0  0  0  0  3  0  0  0  0  0  0
  184.0330  178.1480  138.4450 N   0  0  0  0  0  2  0  0  0  0  0  0
  186.2210  178.7280  139.0790 O   0  0  0  0  0  0  0  0  0  0  0  0
  188.0670  176.1240  137.1780 C   0  0  0  0  0  1  0  0  0  0  0  0
  187.3140  177.9690  138.8070 N   0  0  0  0  0  0  0  0  0  0  0  0
  185.3630  178.5050  137.9700 C   0  0  1  0  0  3  0  0  0  0  0  0
  187.1000  177.1340  137.6930 C   0  0  0  0  0  0  0  0  0  0  0  0
  185.9410  177.3860  137.1590 C   0  0  0  0  0  3  0  0  0  0  0  0
  188.6430  178.4030  139.2100 C   0  0  0  0  0  2  0  0  0  0  0  0
  189.0510  177.6940  140.4870 C   0  0  0  0  0  1  0  0  0  0  0  0
  1  6  1  0  0  0  0
  2  7  2  0  0  0  0
  3  1  2  0  0  0  0
  3  2  1  0  0  0  0
  4  5  1  0  0  0  0
  6  8  2  0  0  0  0
  6  4  1  0  0  0  0
  7  4  1  0  0  0  0
  7  9  1  0  0  0  0
 10  9  2  0  0  0  0
 10 17  1  0  0  0  0
 11 18  2  0  0  0  0
 13 11  1  0  0  0  0
 13 15  1  0  0  0  0
 14 15  2  0  0  0  0
 15 16  1  0  0  0  0
 16 12  2  0  0  0  0
 17 14  1  0  0  0  0
 18 19  1  0  0  0  0
 18 12  1  0  0  0  0
 20 17  1  0  0  0  0
 20 13  2  0  0  0  0
 21  3  1  0  0  0  0
 23 26  1  0  0  0  0
 24 22  1  0  0  0  0
 24 28  1  0  0  0  0
 25 21  1  1  0  0  0
 25 22  1  0  0  0  0
 26 24  1  0  0  0  0
 27 26  2  0  0  0  0
 27 25  1  0  0  0  0
 28 29  1  0  0  0  0
M  END
>  <MODEL>
3

>  <REMARK>
 VINA RESULT:      -8.8      3.470      7.777
  Name = 
  5 active torsions:
  status: ('A' for Active; 'I' for Inactive)
    1  A    between atoms: C_2  and  C_22
    2  A    between atoms: C_7  and  N_18
    3  A    between atoms: C_10  and  N_17
    4  A    between atoms: C_11  and  N_26
    5  A    between atoms: C_24  and  N_26
                            x       y       z     vdW  Elec       q    Type
                         _______ _______ _______ _____ _____    ______ ____

>  <TORSDO>
F 5

$$$$
=
 OpenBabel10222421063D

 29 32  0  0  1  0  0  0  0  0999 V2000
  188.3300  177.7610  136.9150 C   0  0  0  0  0  3  0  0  0  0  0  0
  187.9180  178.0110  139.2720 C   0  0  0  0  0  3  0  0  0  0  0  0
  187.4760  178.1230  137.9520 C   0  0  0  0  0  0  0  0  0  0  0  0
  190.0320  177.1820  138.5040 N   0  0  0  0  0  0  0  0  0  0  0  0
  191.6510  176.5930  138.8230 Cl  0  0  0  0  0  0  0  0  0  0  0  0
  189.6110  177.2900  137.2060 C   0  0  0  0  0  0  0  0  0  0  0  0
  189.2080  177.5340  139.5420 C   0  0  0  0  0  0  0  0  0  0  0  0
  190.3750  176.9670  136.2570 O   0  0  0  0  0  0  0  0  0  0  0  0
  189.6720  177.4160  140.9390 C   0  0  0  0  0  3  0  0  0  0  0  0
  188.8410  177.3650  141.9780 C   0  0  0  0  0  3  0  0  0  0  0  0
  191.7120  176.4780  145.8450 C   0  0  0  0  0  3  0  0  0  0  0  0
  190.2910  177.0760  147.7460 C   0  0  0  0  0  3  0  0  0  0  0  0
  190.6520  176.8300  145.0130 C   0  0  0  0  0  0  0  0  0  0  0  0
  188.6270  177.5450  144.4490 C   0  0  0  0  0  3  0  0  0  0  0  0
  189.4600  177.2860  145.5120 C   0  0  0  0  0  0  0  0  0  0  0  0
  189.2380  177.4230  146.8790 C   0  0  0  0  0  3  0  0  0  0  0  0
  189.3180  177.2460  143.3200 N   0  0  0  0  0  0  0  0  0  0  0  0
  191.5200  176.6050  147.2330 C   0  0  0  0  0  0  0  0  0  0  0  0
  192.5460  176.2660  148.1040 O   0  0  0  0  0  1  0  0  0  0  0  0
  190.5570  176.8070  143.6410 C   0  0  0  0  0  3  0  0  0  0  0  0
  186.1670  178.6150  137.6450 N   0  0  0  0  0  2  0  0  0  0  0  0
  184.3490  179.4610  138.8720 O   0  0  0  0  0  0  0  0  0  0  0  0
  181.5960  177.7800  137.0270 C   0  0  0  0  0  1  0  0  0  0  0  0
  183.0500  179.3070  138.5030 N   0  0  0  0  0  0  0  0  0  0  0  0
  184.9790  178.2740  138.4150 C   0  0  1  0  0  3  0  0  0  0  0  0
  182.8790  178.1850  137.6680 C   0  0  0  0  0  0  0  0  0  0  0  0
  184.0000  177.5350  137.5540 C   0  0  0  0  0  3  0  0  0  0  0  0
  181.9730  179.8370  139.3250 C   0  0  0  0  0  2  0  0  0  0  0  0
  181.8110  178.9870  140.5700 C   0  0  0  0  0  1  0  0  0  0  0  0
  1  6  1  0  0  0  0
  1  3  2  0  0  0  0
  2  7  2  0  0  0  0
  3  2  1  0  0  0  0
  4  5  1  0  0  0  0
  4  7  1  0  0  0  0
  6  4  1  0  0  0  0
  7  9  1  0  0  0  0
  8  6  2  0  0  0  0
  9 10  2  0  0  0  0
 10 17  1  0  0  0  0
 11 18  2  0  0  0  0
 13 15  1  0  0  0  0
 13 11  1  0  0  0  0
 14 15  2  0  0  0  0
 15 16  1  0  0  0  0
 16 12  2  0  0  0  0
 17 20  1  0  0  0  0
 17 14  1  0  0  0  0
 18 12  1  0  0  0  0
 18 19  1  0  0  0  0
 20 13  2  0  0  0  0
 21  3  1  0  0  0  0
 23 26  1  0  0  0  0
 24 22  1  0  0  0  0
 24 28  1  0  0  0  0
 25 21  1  6  0  0  0
 25 22  1  0  0  0  0
 26 24  1  0  0  0  0
 27 26  2  0  0  0  0
 27 25  1  0  0  0  0
 28 29  1  0  0  0  0
M  END
>  <MODEL>
4

>  <REMARK>
 VINA RESULT:      -8.5      3.152      7.145
  Name = 
  5 active torsions:
  status: ('A' for Active; 'I' for Inactive)
    1  A    between atoms: C_2  and  C_22
    2  A    between atoms: C_7  and  N_18
    3  A    between atoms: C_10  and  N_17
    4  A    between atoms: C_11  and  N_26
    5  A    between atoms: C_24  and  N_26
                            x       y       z     vdW  Elec       q    Type
                         _______ _______ _______ _____ _____    ______ ____

>  <TORSDO>
F 5

$$$$
=
 OpenBabel10222421063D

 29 32  0  0  1  0  0  0  0  0999 V2000
  190.0530  176.9770  137.1240 C   0  0  0  0  0  3  0  0  0  0  0  0
  188.3070  177.5300  138.6830 C   0  0  0  0  0  3  0  0  0  0  0  0
  188.7110  177.2450  137.3780 C   0  0  0  0  0  0  0  0  0  0  0  0
  190.5650  177.2740  139.4480 N   0  0  0  0  0  0  0  0  0  0  0  0
  191.7560  177.2930  140.7330 Cl  0  0  0  0  0  0  0  0  0  0  0  0
  190.9730  176.9950  138.1720 C   0  0  0  0  0  0  0  0  0  0  0  0
  189.2480  177.5420  139.7230 C   0  0  0  0  0  0  0  0  0  0  0  0
  192.1850  176.7530  137.9270 O   0  0  0  0  0  0  0  0  0  0  0  0
  188.8180  177.8430  141.1030 C   0  0  0  0  0  3  0  0  0  0  0  0
  188.6750  176.9060  142.0390 C   0  0  0  0  0  3  0  0  0  0  0  0
  188.6710  177.5500  146.8940 C   0  0  0  0  0  3  0  0  0  0  0  0
  186.4210  178.4030  147.3430 C   0  0  0  0  0  3  0  0  0  0  0  0
  188.3210  177.4950  145.5470 C   0  0  0  0  0  0  0  0  0  0  0  0
  187.0470  177.7040  143.7410 C   0  0  0  0  0  3  0  0  0  0  0  0
  187.0800  177.8740  145.1050 C   0  0  0  0  0  0  0  0  0  0  0  0
  186.0970  178.3350  145.9760 C   0  0  0  0  0  3  0  0  0  0  0  0
  188.2610  177.2270  143.3690 N   0  0  0  0  0  0  0  0  0  0  0  0
  187.7000  178.0120  147.8010 C   0  0  0  0  0  0  0  0  0  0  0  0
  188.0000  178.0850  149.1540 O   0  0  0  0  0  1  0  0  0  0  0  0
  189.0560  177.0920  144.4560 C   0  0  0  0  0  3  0  0  0  0  0  0
  187.7750  177.2350  136.2950 N   0  0  0  0  0  2  0  0  0  0  0  0
  187.4120  174.9430  136.6720 O   0  0  0  0  0  0  0  0  0  0  0  0
  183.8110  175.0850  137.5750 C   0  0  0  0  0  1  0  0  0  0  0  0
  186.2760  174.4370  137.2190 N   0  0  0  0  0  0  0  0  0  0  0  0
  186.9670  176.0760  135.9410 C   0  0  1  0  0  3  0  0  0  0  0  0
  185.1820  175.3040  137.0330 C   0  0  0  0  0  0  0  0  0  0  0  0
  185.5310  176.3180  136.2970 C   0  0  0  0  0  3  0  0  0  0  0  0
  186.1100  173.0030  137.4000 C   0  0  0  0  0  2  0  0  0  0  0  0
  185.9240  172.3320  136.0530 C   0  0  0  0  0  1  0  0  0  0  0  0
  1  3  2  0  0  0  0
  1  6  1  0  0  0  0
  2  7  2  0  0  0  0
  3  2  1  0  0  0  0
  4  7  1  0  0  0  0
  4  5  1  0  0  0  0
  6  4  1  0  0  0  0
  7  9  1  0  0  0  0
  8  6  2  0  0  0  0
  9 10  2  0  0  0  0
 10 17  1  0  0  0  0
 11 18  2  0  0  0  0
 12 18  1  0  0  0  0
 13 11  1  0  0  0  0
 14 15  2  0  0  0  0
 15 13  1  0  0  0  0
 15 16  1  0  0  0  0
 16 12  2  0  0  0  0
 17 14  1  0  0  0  0
 17 20  1  0  0  0  0
 18 19  1  0  0  0  0
 20 13  2  0  0  0  0
 21  3  1  0  0  0  0
 22 24  1  0  0  0  0
 24 28  1  0  0  0  0
 25 21  1  1  0  0  0
 25 27  1  0  0  0  0
 25 22  1  0  0  0  0
 26 24  1  0  0  0  0
 26 23  1  0  0  0  0
 27 26  2  0  0  0  0
 29 28  1  0  0  0  0
M  END
>  <MODEL>
5

>  <REMARK>
 VINA RESULT:      -8.5      3.518      8.206
  Name = 
  5 active torsions:
  status: ('A' for Active; 'I' for Inactive)
    1  A    between atoms: C_2  and  C_22
    2  A    between atoms: C_7  and  N_18
    3  A    between atoms: C_10  and  N_17
    4  A    between atoms: C_11  and  N_26
    5  A    between atoms: C_24  and  N_26
                            x       y       z     vdW  Elec       q    Type
                         _______ _______ _______ _____ _____    ______ ____

>  <TORSDO>
F 5

$$$$
=
 OpenBabel10222421063D

 29 32  0  0  1  0  0  0  0  0999 V2000
  191.2430  176.9190  145.4390 C   0  0  0  0  0  3  0  0  0  0  0  0
  189.4210  177.2140  143.8970 C   0  0  0  0  0  3  0  0  0  0  0  0
  190.7740  176.9600  144.1300 C   0  0  0  0  0  0  0  0  0  0  0  0
  189.0340  177.3780  146.2570 N   0  0  0  0  0  0  0  0  0  0  0  0
  187.9620  177.6450  147.6160 Cl  0  0  0  0  0  0  0  0  0  0  0  0
  190.3580  177.1320  146.4980 C   0  0  0  0  0  0  0  0  0  0  0  0
  188.5490  177.4230  144.9750 C   0  0  0  0  0  0  0  0  0  0  0  0
  190.7970  177.0950  147.6790 O   0  0  0  0  0  0  0  0  0  0  0  0
  187.1190  177.6910  144.7250 C   0  0  0  0  0  3  0  0  0  0  0  0
  186.6400  178.0110  143.5240 C   0  0  0  0  0  3  0  0  0  0  0  0
  182.2950  178.6390  141.3530 C   0  0  0  0  0  3  0  0  0  0  0  0
  180.7970  179.1170  143.2270 C   0  0  0  0  0  3  0  0  0  0  0  0
  183.3290  178.5310  142.2790 C   0  0  0  0  0  0  0  0  0  0  0  0
  184.3250  178.5350  144.2630 C   0  0  0  0  0  3  0  0  0  0  0  0
  183.1200  178.7050  143.6220 C   0  0  0  0  0  0  0  0  0  0  0  0
  181.8620  179.0020  144.1380 C   0  0  0  0  0  3  0  0  0  0  0  0
  185.2490  178.2610  143.3090 N   0  0  0  0  0  0  0  0  0  0  0  0
  181.0110  178.9380  141.8430 C   0  0  0  0  0  0  0  0  0  0  0  0
  179.9470  179.0580  140.9590 O   0  0  0  0  0  1  0  0  0  0  0  0
  184.6630  178.2530  142.0890 C   0  0  0  0  0  3  0  0  0  0  0  0
  191.6890  176.7520  143.0490 N   0  0  0  0  0  2  0  0  0  0  0  0
  192.7390  177.1280  140.9800 O   0  0  0  0  0  0  0  0  0  0  0  0
  189.8390  176.4780  138.7510 C   0  0  0  0  0  1  0  0  0  0  0  0
  192.1690  176.8460  139.7790 N   0  0  0  0  0  0  0  0  0  0  0  0
  191.6430  177.5020  141.8010 C   0  0  1  0  0  3  0  0  0  0  0  0
  190.7630  176.8290  139.8660 C   0  0  0  0  0  0  0  0  0  0  0  0
  190.3810  177.1890  141.0560 C   0  0  0  0  0  3  0  0  0  0  0  0
  192.8690  177.1280  138.5360 C   0  0  0  0  0  2  0  0  0  0  0  0
  193.4460  175.8470  137.9680 C   0  0  0  0  0  1  0  0  0  0  0  0
  1  6  1  0  0  0  0
  2  3  1  0  0  0  0
  2  7  2  0  0  0  0
  3  1  2  0  0  0  0
  4  6  1  0  0  0  0
  4  5  1  0  0  0  0
  6  8  2  0  0  0  0
  7  4  1  0  0  0  0
  9  7  1  0  0  0  0
 10  9  2  0  0  0  0
 11 18  2  0  0  0  0
 11 13  1  0  0  0  0
 12 16  2  0  0  0  0
 13 15  1  0  0  0  0
 15 16  1  0  0  0  0
 15 14  2  0  0  0  0
 17 10  1  0  0  0  0
 17 14  1  0  0  0  0
 18 12  1  0  0  0  0
 19 18  1  0  0  0  0
 20 13  2  0  0  0  0
 20 17  1  0  0  0  0
 21  3  1  0  0  0  0
 22 25  1  0  0  0  0
 23 26  1  0  0  0  0
 24 26  1  0  0  0  0
 24 22  1  0  0  0  0
 25 21  1  1  0  0  0
 26 27  2  0  0  0  0
 27 25  1  0  0  0  0
 28 24  1  0  0  0  0
 29 28  1  0  0  0  0
M  END
>  <MODEL>
6

>  <REMARK>
 VINA RESULT:      -8.4      1.995      8.089
  Name = 
  5 active torsions:
  status: ('A' for Active; 'I' for Inactive)
    1  A    between atoms: C_2  and  C_22
    2  A    between atoms: C_7  and  N_18
    3  A    between atoms: C_10  and  N_17
    4  A    between atoms: C_11  and  N_26
    5  A    between atoms: C_24  and  N_26
                            x       y       z     vdW  Elec       q    Type
                         _______ _______ _______ _____ _____    ______ ____

>  <TORSDO>
F 5

$$$$
=
 OpenBabel10222421063D

 29 32  0  0  1  0  0  0  0  0999 V2000
  189.6860  177.0320  136.3520 C   0  0  0  0  0  3  0  0  0  0  0  0
  190.6090  176.6860  138.5460 C   0  0  0  0  0  3  0  0  0  0  0  0
  190.7360  176.6030  137.1580 C   0  0  0  0  0  0  0  0  0  0  0  0
  188.4130  177.6170  138.2990 N   0  0  0  0  0  0  0  0  0  0  0  0
  186.9350  178.2520  138.9920 Cl  0  0  0  0  0  0  0  0  0  0  0  0
  188.5250  177.5380  136.9380 C   0  0  0  0  0  0  0  0  0  0  0  0
  189.4340  177.2000  139.1150 C   0  0  0  0  0  0  0  0  0  0  0  0
  187.5810  177.9200  136.1960 O   0  0  0  0  0  0  0  0  0  0  0  0
  189.3030  177.2870  140.5830 C   0  0  0  0  0  3  0  0  0  0  0  0
  190.2050  176.7830  141.4230 C   0  0  0  0  0  3  0  0  0  0  0  0
  188.2860  177.5200  145.8680 C   0  0  0  0  0  3  0  0  0  0  0  0
  190.1570  177.0420  147.3710 C   0  0  0  0  0  3  0  0  0  0  0  0
  189.1380  177.2300  144.8060 C   0  0  0  0  0  0  0  0  0  0  0  0
  191.0140  176.6470  143.7700 C   0  0  0  0  0  3  0  0  0  0  0  0
  190.4430  176.8620  145.0030 C   0  0  0  0  0  0  0  0  0  0  0  0
  190.9930  176.7560  146.2770 C   0  0  0  0  0  3  0  0  0  0  0  0
  190.0550  176.8860  142.8410 N   0  0  0  0  0  0  0  0  0  0  0  0
  188.8110  177.4220  147.1690 C   0  0  0  0  0  0  0  0  0  0  0  0
  188.0020  177.7010  148.2620 O   0  0  0  0  0  1  0  0  0  0  0  0
  188.9010  177.2430  143.4500 C   0  0  0  0  0  3  0  0  0  0  0  0
  191.9190  176.0750  136.5500 N   0  0  0  0  0  2  0  0  0  0  0  0
  193.3380  174.8120  137.9350 O   0  0  0  0  0  0  0  0  0  0  0  0
  196.3360  174.7300  135.7430 C   0  0  0  0  0  1  0  0  0  0  0  0
  194.5380  174.3160  137.5370 N   0  0  0  0  0  0  0  0  0  0  0  0
  193.2140  176.0300  137.2160 C   0  0  1  0  0  3  0  0  0  0  0  0
  195.0730  175.0550  136.4640 C   0  0  0  0  0  0  0  0  0  0  0  0
  194.3180  176.0810  136.2040 C   0  0  0  0  0  3  0  0  0  0  0  0
  195.3760  173.5620  138.4570 C   0  0  0  0  0  2  0  0  0  0  0  0
  196.0180  174.5040  139.4580 C   0  0  0  0  0  1  0  0  0  0  0  0
  1  6  1  0  0  0  0
  1  3  2  0  0  0  0
  2  7  2  0  0  0  0
  3  2  1  0  0  0  0
  4  5  1  0  0  0  0
  4  7  1  0  0  0  0
  6  4  1  0  0  0  0
  7  9  1  0  0  0  0
  8  6  2  0  0  0  0
  9 10  2  0  0  0  0
 10 17  1  0  0  0  0
 11 18  2  0  0  0  0
 13 15  1  0  0  0  0
 13 11  1  0  0  0  0
 14 15  2  0  0  0  0
 15 16  1  0  0  0  0
 16 12  2  0  0  0  0
 17 20  1  0  0  0  0
 17 14  1  0  0  0  0
 18 12  1  0  0  0  0
 18 19  1  0  0  0  0
 20 13  2  0  0  0  0
 21  3  1  0  0  0  0
 23 26  1  0  0  0  0
 24 22  1  0  0  0  0
 24 28  1  0  0  0  0
 25 21  1  6  0  0  0
 25 22  1  0  0  0  0
 26 24  1  0  0  0  0
 27 26  2  0  0  0  0
 27 25  1  0  0  0  0
 28 29  1  0  0  0  0
M  END
>  <MODEL>
7

>  <REMARK>
 VINA RESULT:      -8.3      3.668      9.995
  Name = 
  5 active torsions:
  status: ('A' for Active; 'I' for Inactive)
    1  A    between atoms: C_2  and  C_22
    2  A    between atoms: C_7  and  N_18
    3  A    between atoms: C_10  and  N_17
    4  A    between atoms: C_11  and  N_26
    5  A    between atoms: C_24  and  N_26
                            x       y       z     vdW  Elec       q    Type
                         _______ _______ _______ _____ _____    ______ ____

>  <TORSDO>
F 5

$$$$
=
 OpenBabel10222421063D

 29 32  0  0  1  0  0  0  0  0999 V2000
  191.4520  177.0860  142.8270 C   0  0  0  0  0  3  0  0  0  0  0  0
  189.2670  177.3630  141.8590 C   0  0  0  0  0  3  0  0  0  0  0  0
  190.6420  177.1770  141.6990 C   0  0  0  0  0  0  0  0  0  0  0  0
  189.5340  177.3580  144.2420 N   0  0  0  0  0  0  0  0  0  0  0  0
  188.8630  177.4760  145.8560 Cl  0  0  0  0  0  0  0  0  0  0  0  0
  190.8820  177.1790  144.0980 C   0  0  0  0  0  0  0  0  0  0  0  0
  188.7150  177.4520  143.1450 C   0  0  0  0  0  0  0  0  0  0  0  0
  191.6280  177.0970  145.1100 O   0  0  0  0  0  0  0  0  0  0  0  0
  187.2610  177.6470  143.3110 C   0  0  0  0  0  3  0  0  0  0  0  0
  186.5020  178.2530  142.4000 C   0  0  0  0  0  3  0  0  0  0  0  0
  181.7040  178.7030  141.5250 C   0  0  0  0  0  3  0  0  0  0  0  0
  180.7540  179.0020  143.7600 C   0  0  0  0  0  3  0  0  0  0  0  0
  182.9560  178.6190  142.1290 C   0  0  0  0  0  0  0  0  0  0  0  0
  184.4540  178.5970  143.7670 C   0  0  0  0  0  3  0  0  0  0  0  0
  183.1130  178.7190  143.4860 C   0  0  0  0  0  0  0  0  0  0  0  0
  182.0310  178.9130  144.3400 C   0  0  0  0  0  3  0  0  0  0  0  0
  185.0950  178.4250  142.5840 N   0  0  0  0  0  0  0  0  0  0  0  0
  180.5890  178.8990  142.3600 C   0  0  0  0  0  0  0  0  0  0  0  0
  179.3210  178.9910  141.8060 O   0  0  0  0  0  1  0  0  0  0  0  0
  184.1990  178.4340  141.5690 C   0  0  0  0  0  3  0  0  0  0  0  0
  191.2340  177.0920  140.3990 N   0  0  0  0  0  2  0  0  0  0  0  0
  189.8510  177.4200  138.5280 O   0  0  0  0  0  0  0  0  0  0  0  0
  192.0870  176.0030  135.9200 C   0  0  0  0  0  1  0  0  0  0  0  0
  190.2590  177.2400  137.2440 N   0  0  0  0  0  0  0  0  0  0  0  0
  190.5880  176.4540  139.2610 C   0  0  1  0  0  3  0  0  0  0  0  0
  191.3520  176.3550  137.1680 C   0  0  0  0  0  0  0  0  0  0  0  0
  191.6170  175.8660  138.3440 C   0  0  0  0  0  3  0  0  0  0  0  0
  189.3400  177.4380  136.1340 C   0  0  0  0  0  2  0  0  0  0  0  0
  188.1820  178.3120  136.5740 C   0  0  0  0  0  1  0  0  0  0  0  0
  1  6  1  0  0  0  0
  2  7  2  0  0  0  0
  3  2  1  0  0  0  0
  3  1  2  0  0  0  0
  4  5  1  0  0  0  0
  6  4  1  0  0  0  0
  6  8  2  0  0  0  0
  7  9  1  0  0  0  0
  7  4  1  0  0  0  0
 10 17  1  0  0  0  0
 10  9  2  0  0  0  0
 11 13  1  0  0  0  0
 11 18  2  0  0  0  0
 12 16  2  0  0  0  0
 13 15  1  0  0  0  0
 15 14  2  0  0  0  0
 15 16  1  0  0  0  0
 17 14  1  0  0  0  0
 18 12  1  0  0  0  0
 19 18  1  0  0  0  0
 20 13  2  0  0  0  0
 20 17  1  0  0  0  0
 21  3  1  0  0  0  0
 22 25  1  0  0  0  0
 23 26  1  0  0  0  0
 24 22  1  0  0  0  0
 25 21  1  1  0  0  0
 26 24  1  0  0  0  0
 26 27  2  0  0  0  0
 27 25  1  0  0  0  0
 28 29  1  0  0  0  0
 28 24  1  0  0  0  0
M  END
>  <MODEL>
8

>  <REMARK>
 VINA RESULT:      -8.3      2.296      8.505
  Name = 
  5 active torsions:
  status: ('A' for Active; 'I' for Inactive)
    1  A    between atoms: C_2  and  C_22
    2  A    between atoms: C_7  and  N_18
    3  A    between atoms: C_10  and  N_17
    4  A    between atoms: C_11  and  N_26
    5  A    between atoms: C_24  and  N_26
                            x       y       z     vdW  Elec       q    Type
                         _______ _______ _______ _____ _____    ______ ____

>  <TORSDO>
F 5

$$$$
=
 OpenBabel10222421063D

 29 32  0  0  1  0  0  0  0  0999 V2000
  185.5460  178.3630  146.3840 C   0  0  0  0  0  3  0  0  0  0  0  0
  185.8580  177.9650  144.0320 C   0  0  0  0  0  3  0  0  0  0  0  0
  185.0240  178.3200  145.0950 C   0  0  0  0  0  0  0  0  0  0  0  0
  187.6980  177.7090  145.5480 N   0  0  0  0  0  0  0  0  0  0  0  0
  189.3770  177.3220  145.8630 Cl  0  0  0  0  0  0  0  0  0  0  0  0
  186.8900  178.0530  146.5980 C   0  0  0  0  0  0  0  0  0  0  0  0
  187.2060  177.6600  144.2680 C   0  0  0  0  0  0  0  0  0  0  0  0
  187.3490  178.0940  147.7710 O   0  0  0  0  0  0  0  0  0  0  0  0
  188.0850  177.2860  143.1430 C   0  0  0  0  0  3  0  0  0  0  0  0
  188.2340  178.0420  142.0570 C   0  0  0  0  0  3  0  0  0  0  0  0
  189.8850  176.8160  137.6120 C   0  0  0  0  0  3  0  0  0  0  0  0
  192.2750  176.4440  137.9860 C   0  0  0  0  0  3  0  0  0  0  0  0
  189.7760  177.1160  138.9680 C   0  0  0  0  0  0  0  0  0  0  0  0
  190.4300  177.4250  141.0670 C   0  0  0  0  0  3  0  0  0  0  0  0
  190.8600  177.0850  139.8050 C   0  0  0  0  0  0  0  0  0  0  0  0
  192.1330  176.7510  139.3510 C   0  0  0  0  0  3  0  0  0  0  0  0
  189.0960  177.6580  140.9830 N   0  0  0  0  0  0  0  0  0  0  0  0
  191.1580  176.4750  137.1210 C   0  0  0  0  0  0  0  0  0  0  0  0
  191.3180  176.1670  135.7770 O   0  0  0  0  0  1  0  0  0  0  0  0
  188.6750  177.4750  139.7100 C   0  0  0  0  0  3  0  0  0  0  0  0
  183.6420  178.6280  144.8850 N   0  0  0  0  0  2  0  0  0  0  0  0
  183.8110  178.8580  142.5520 O   0  0  0  0  0  0  0  0  0  0  0  0
  180.2410  178.3190  141.6750 C   0  0  0  0  0  1  0  0  0  0  0  0
  182.8020  178.5690  141.6880 N   0  0  0  0  0  0  0  0  0  0  0  0
  183.1450  179.3330  143.7120 C   0  0  1  0  0  3  0  0  0  0  0  0
  181.5450  178.6490  142.3170 C   0  0  0  0  0  0  0  0  0  0  0  0
  181.6780  179.0780  143.5380 C   0  0  0  0  0  3  0  0  0  0  0  0
  182.9700  178.7590  140.2560 C   0  0  0  0  0  2  0  0  0  0  0  0
  184.4230  179.0570  139.9430 C   0  0  0  0  0  1  0  0  0  0  0  0
  1  6  1  0  0  0  0
  2  7  2  0  0  0  0
  2  3  1  0  0  0  0
  3  1  2  0  0  0  0
  4  5  1  0  0  0  0
  4  6  1  0  0  0  0
  6  8  2  0  0  0  0
  7  4  1  0  0  0  0
  9  7  1  0  0  0  0
 10  9  2  0  0  0  0
 11 13  1  0  0  0  0
 12 16  2  0  0  0  0
 13 20  2  0  0  0  0
 13 15  1  0  0  0  0
 15 14  2  0  0  0  0
 16 15  1  0  0  0  0
 17 14  1  0  0  0  0
 17 10  1  0  0  0  0
 18 11  2  0  0  0  0
 18 12  1  0  0  0  0
 19 18  1  0  0  0  0
 20 17  1  0  0  0  0
 21  3  1  0  0  0  0
 22 25  1  0  0  0  0
 23 26  1  0  0  0  0
 24 26  1  0  0  0  0
 24 22  1  0  0  0  0
 25 21  1  1  0  0  0
 26 27  2  0  0  0  0
 27 25  1  0  0  0  0
 28 24  1  0  0  0  0
 29 28  1  0  0  0  0
M  END
>  <MODEL>
9

>  <REMARK>
 VINA RESULT:      -8.2      1.525      2.139
  Name = 
  5 active torsions:
  status: ('A' for Active; 'I' for Inactive)
    1  A    between atoms: C_2  and  C_22
    2  A    between atoms: C_7  and  N_18
    3  A    between atoms: C_10  and  N_17
    4  A    between atoms: C_11  and  N_26
    5  A    between atoms: C_24  and  N_26
                            x       y       z     vdW  Elec       q    Type
                         _______ _______ _______ _____ _____    ______ ____

>  <TORSDO>
F 5

$$$$
