=
 OpenBabel10222418473D

 29 31  0  0  1  0  0  0  0  0999 V2000
  189.2340  176.9710  144.3900 C   0  0  1  0  0  3  0  0  0  0  0  0
  188.0020  177.8000  144.8110 C   0  0  1  0  0  3  0  0  0  0  0  0
  184.5540  178.5320  143.6840 C   0  0  0  0  0  1  0  0  0  0  0  0
  185.5710  178.0770  144.6160 N   0  0  0  0  0  0  0  0  0  0  0  0
  186.7170  177.3220  144.1190 C   0  0  0  0  0  2  0  0  0  0  0  0
  187.8170  177.7920  146.3120 C   0  0  0  0  0  3  0  0  0  0  0  0
  184.4150  178.8100  146.5210 O   0  0  0  0  0  0  0  0  0  0  0  0
  185.4770  178.3550  146.0200 C   0  0  0  0  0  0  0  0  0  0  0  0
  186.6440  178.0930  146.8730 C   0  0  0  0  0  3  0  0  0  0  0  0
  189.2430  176.5350  142.9180 C   0  0  2  0  0  3  0  0  0  0  0  0
  189.9560  175.3450  142.7440 O   0  0  0  0  0  1  0  0  0  0  0  0
  189.8050  177.6340  142.0270 C   0  0  0  0  0  2  0  0  0  0  0  0
  188.8790  177.9320  140.8930 C   0  0  0  0  0  0  0  0  0  0  0  0
  187.8320  178.5300  141.0950 O   0  0  0  0  0  0  0  0  0  0  0  0
  189.2590  177.5300  139.5080 C   0  0  0  0  0  2  0  0  0  0  0  0
  189.0440  178.6880  138.5490 C   0  0  0  0  0  2  0  0  0  0  0  0
  186.8820  175.8070  136.6300 O   0  0  0  0  0  0  0  0  0  0  0  0
  189.0030  176.8960  136.8100 C   0  0  0  0  0  2  0  0  0  0  0  0
  186.8690  178.0430  137.4910 C   0  0  0  0  0  0  0  0  0  0  0  0
  188.0520  176.1080  135.9110 C   0  0  0  0  0  2  0  0  0  0  0  0
  186.2440  178.8250  138.1900 O   0  0  0  0  0  0  0  0  0  0  0  0
  186.1320  176.9950  136.7020 C   0  0  0  0  0  2  0  0  0  0  0  0
  188.3560  178.2080  137.2790 C   0  0  1  0  0  3  0  0  0  0  0  0
  190.5560  177.6590  144.7440 C   0  0  0  0  0  2  0  0  0  0  0  0
  191.6010  176.6790  145.2560 C   0  0  0  0  0  2  0  0  0  0  0  0
  192.9200  175.8690  148.6730 C   0  0  0  0  0  1  0  0  0  0  0  0
  192.3080  175.5760  147.3200 C   0  0  2  0  0  3  0  0  0  0  0  0
  191.7270  176.8120  146.7580 C   0  0  2  0  0  3  0  0  0  0  0  0
  190.9260  175.8340  147.3750 O   0  0  0  0  0  0  0  0  0  0  0  0
  1 24  1  6  0  0  0
  2  1  1  1  0  0  0
  2  6  1  0  0  0  0
  3  4  1  0  0  0  0
  4  8  1  0  0  0  0
  5  4  1  0  0  0  0
  5  2  1  0  0  0  0
  6  9  2  0  0  0  0
  8  7  2  0  0  0  0
  8  9  1  0  0  0  0
 10 11  1  1  0  0  0
 10  1  1  0  0  0  0
 12 10  1  0  0  0  0
 13 14  2  0  0  0  0
 13 12  1  0  0  0  0
 15 13  1  0  0  0  0
 16 15  1  0  0  0  0
 17 22  1  0  0  0  0
 18 23  1  0  0  0  0
 19 21  2  0  0  0  0
 20 17  1  0  0  0  0
 20 18  1  0  0  0  0
 22 19  1  0  0  0  0
 23 19  1  0  0  0  0
 23 16  1  1  0  0  0
 24 25  1  0  0  0  0
 27 29  1  0  0  0  0
 27 26  1  1  0  0  0
 28 25  1  6  0  0  0
 28 27  1  0  0  0  0
 28 29  1  0  0  0  0
M  END
>  <MODEL>
1

>  <REMARK>
 VINA RESULT:      -8.0      0.000      0.000
  Name = 
  10 active torsions:
  status: ('A' for Active; 'I' for Inactive)
    1  A    between atoms: C_2  and  C_9
    2  A    between atoms: C_8  and  C_14
    3  A    between atoms: C_8  and  C_16
    4  A    between atoms: C_9  and  C_11
    5  A    between atoms: C_9  and  C_28
    6  A    between atoms: C_11  and  C_25
    7  A    between atoms: C_14  and  C_29
    8  A    between atoms: C_16  and  C_25
    9  A    between atoms: C_20  and  C_27
   10  A    between atoms: C_27  and  C_28
                            x       y       z     vdW  Elec       q    Type
                         _______ _______ _______ _____ _____    ______ ____

>  <TORSDO>
F 10

$$$$
=
 OpenBabel10222418473D

 29 31  0  0  1  0  0  0  0  0999 V2000
  189.1920  176.9740  144.0500 C   0  0  1  0  0  3  0  0  0  0  0  0
  188.0230  177.7880  144.6430 C   0  0  1  0  0  3  0  0  0  0  0  0
  184.4820  178.5990  143.9380 C   0  0  0  0  0  1  0  0  0  0  0  0
  185.5890  178.0900  144.7300 N   0  0  0  0  0  0  0  0  0  0  0  0
  186.6650  177.3540  144.0730 C   0  0  0  0  0  2  0  0  0  0  0  0
  188.0030  177.7060  146.1540 C   0  0  0  0  0  3  0  0  0  0  0  0
  184.6570  178.7350  146.7840 O   0  0  0  0  0  0  0  0  0  0  0  0
  185.6520  178.2980  146.1470 C   0  0  0  0  0  0  0  0  0  0  0  0
  186.9020  177.9860  146.8540 C   0  0  0  0  0  3  0  0  0  0  0  0
  189.1230  176.7640  142.5310 C   0  0  2  0  0  3  0  0  0  0  0  0
  190.0900  175.8510  142.0980 O   0  0  0  0  0  1  0  0  0  0  0  0
  189.2640  178.0870  141.7900 C   0  0  0  0  0  2  0  0  0  0  0  0
  188.2140  178.2260  140.7370 C   0  0  0  0  0  0  0  0  0  0  0  0
  187.2020  178.8750  140.9580 O   0  0  0  0  0  0  0  0  0  0  0  0
  188.4270  177.6010  139.3990 C   0  0  0  0  0  2  0  0  0  0  0  0
  189.7860  177.9950  138.8480 C   0  0  0  0  0  2  0  0  0  0  0  0
  192.9230  176.3580  136.8150 O   0  0  0  0  0  0  0  0  0  0  0  0
  190.5450  176.5640  136.9470 C   0  0  0  0  0  2  0  0  0  0  0  0
  192.0080  176.8500  138.9740 C   0  0  0  0  0  0  0  0  0  0  0  0
  191.7210  175.7150  136.4700 C   0  0  0  0  0  2  0  0  0  0  0  0
  192.2590  177.3550  140.0570 O   0  0  0  0  0  0  0  0  0  0  0  0
  193.1030  176.1700  138.1970 C   0  0  0  0  0  2  0  0  0  0  0  0
  190.5870  176.7570  138.4700 C   0  0  1  0  0  3  0  0  0  0  0  0
  190.5620  177.5360  144.4430 C   0  0  0  0  0  2  0  0  0  0  0  0
  191.4770  176.4740  145.0350 C   0  0  0  0  0  2  0  0  0  0  0  0
  192.8680  175.8980  148.4710 C   0  0  0  0  0  1  0  0  0  0  0  0
  192.1220  175.5450  147.2030 C   0  0  2  0  0  3  0  0  0  0  0  0
  191.7280  176.7800  146.4960 C   0  0  2  0  0  3  0  0  0  0  0  0
  190.8140  176.0550  147.2810 O   0  0  0  0  0  0  0  0  0  0  0  0
  1 24  1  6  0  0  0
  2  1  1  6  0  0  0
  2  6  1  0  0  0  0
  3  4  1  0  0  0  0
  4  8  1  0  0  0  0
  5  2  1  0  0  0  0
  5  4  1  0  0  0  0
  6  9  2  0  0  0  0
  8  7  2  0  0  0  0
  8  9  1  0  0  0  0
 10 11  1  6  0  0  0
 10  1  1  0  0  0  0
 12 10  1  0  0  0  0
 13 14  2  0  0  0  0
 13 12  1  0  0  0  0
 15 13  1  0  0  0  0
 16 15  1  0  0  0  0
 17 22  1  0  0  0  0
 18 23  1  0  0  0  0
 19 21  2  0  0  0  0
 20 17  1  0  0  0  0
 20 18  1  0  0  0  0
 22 19  1  0  0  0  0
 23 16  1  6  0  0  0
 23 19  1  0  0  0  0
 24 25  1  0  0  0  0
 27 29  1  0  0  0  0
 27 26  1  1  0  0  0
 28 25  1  6  0  0  0
 28 27  1  0  0  0  0
 28 29  1  0  0  0  0
M  END
>  <MODEL>
2

>  <REMARK>
 VINA RESULT:      -7.9      1.858      2.563
  Name = 
  10 active torsions:
  status: ('A' for Active; 'I' for Inactive)
    1  A    between atoms: C_2  and  C_9
    2  A    between atoms: C_8  and  C_14
    3  A    between atoms: C_8  and  C_16
    4  A    between atoms: C_9  and  C_11
    5  A    between atoms: C_9  and  C_28
    6  A    between atoms: C_11  and  C_25
    7  A    between atoms: C_14  and  C_29
    8  A    between atoms: C_16  and  C_25
    9  A    between atoms: C_20  and  C_27
   10  A    between atoms: C_27  and  C_28
                            x       y       z     vdW  Elec       q    Type
                         _______ _______ _______ _____ _____    ______ ____

>  <TORSDO>
F 10

$$$$
=
 OpenBabel10222418473D

 29 31  0  0  1  0  0  0  0  0999 V2000
  187.9940  177.2720  144.4160 C   0  0  1  0  0  3  0  0  0  0  0  0
  186.7020  178.1130  144.3560 C   0  0  1  0  0  3  0  0  0  0  0  0
  183.8240  178.7400  142.1160 C   0  0  0  0  0  1  0  0  0  0  0  0
  184.4730  178.3540  143.3560 N   0  0  0  0  0  0  0  0  0  0  0  0
  185.7110  177.5800  143.3120 C   0  0  0  0  0  2  0  0  0  0  0  0
  186.0340  178.1970  145.7110 C   0  0  0  0  0  3  0  0  0  0  0  0
  182.7640  179.1940  144.7270 O   0  0  0  0  0  0  0  0  0  0  0  0
  183.9270  178.7180  144.6310 C   0  0  0  0  0  0  0  0  0  0  0  0
  184.7450  178.5220  145.8360 C   0  0  0  0  0  3  0  0  0  0  0  0
  188.5070  176.7830  143.0540 C   0  0  2  0  0  3  0  0  0  0  0  0
  189.3460  175.6730  143.1940 O   0  0  0  0  0  1  0  0  0  0  0  0
  189.2170  177.9030  142.3040 C   0  0  0  0  0  2  0  0  0  0  0  0
  188.7990  177.9370  140.8700 C   0  0  0  0  0  0  0  0  0  0  0  0
  188.0200  178.7930  140.4770 O   0  0  0  0  0  0  0  0  0  0  0  0
  189.3690  176.9440  139.9140 C   0  0  0  0  0  2  0  0  0  0  0  0
  190.1210  177.6580  138.8050 C   0  0  0  0  0  2  0  0  0  0  0  0
  186.6170  177.3280  136.7390 O   0  0  0  0  0  0  0  0  0  0  0  0
  188.5670  176.1860  137.5170 C   0  0  0  0  0  2  0  0  0  0  0  0
  188.5620  178.6720  137.1300 C   0  0  0  0  0  0  0  0  0  0  0  0
  187.4500  176.2270  136.4760 C   0  0  0  0  0  2  0  0  0  0  0  0
  188.9390  179.8030  137.3940 O   0  0  0  0  0  0  0  0  0  0  0  0
  187.3120  178.4750  136.3150 C   0  0  0  0  0  2  0  0  0  0  0  0
  189.4100  177.4700  137.4720 C   0  0  1  0  0  3  0  0  0  0  0  0
  189.1200  177.9740  145.1820 C   0  0  0  0  0  2  0  0  0  0  0  0
  189.4140  177.3100  146.5190 C   0  0  0  0  0  2  0  0  0  0  0  0
  192.4980  175.5580  147.7380 C   0  0  0  0  0  1  0  0  0  0  0  0
  191.5500  176.7230  147.5530 C   0  0  2  0  0  3  0  0  0  0  0  0
  190.6630  176.4640  146.4000 C   0  0  2  0  0  3  0  0  0  0  0  0
  191.7820  177.3090  146.2960 O   0  0  0  0  0  0  0  0  0  0  0  0
  1 24  1  6  0  0  0
  2  1  1  1  0  0  0
  2  6  1  0  0  0  0
  3  4  1  0  0  0  0
  4  8  1  0  0  0  0
  5  4  1  0  0  0  0
  5  2  1  0  0  0  0
  6  9  2  0  0  0  0
  8  7  2  0  0  0  0
  8  9  1  0  0  0  0
 10 11  1  1  0  0  0
 10  1  1  0  0  0  0
 12 10  1  0  0  0  0
 13 12  1  0  0  0  0
 14 13  2  0  0  0  0
 15 13  1  0  0  0  0
 16 15  1  0  0  0  0
 19 21  2  0  0  0  0
 19 23  1  0  0  0  0
 20 17  1  0  0  0  0
 20 18  1  0  0  0  0
 22 17  1  0  0  0  0
 22 19  1  0  0  0  0
 23 18  1  0  0  0  0
 23 16  1  1  0  0  0
 24 25  1  0  0  0  0
 27 26  1  6  0  0  0
 28 25  1  1  0  0  0
 28 27  1  0  0  0  0
 29 28  1  0  0  0  0
 29 27  1  0  0  0  0
M  END
>  <MODEL>
3

>  <REMARK>
 VINA RESULT:      -7.8      1.286      1.609
  Name = 
  10 active torsions:
  status: ('A' for Active; 'I' for Inactive)
    1  A    between atoms: C_2  and  C_9
    2  A    between atoms: C_8  and  C_14
    3  A    between atoms: C_8  and  C_16
    4  A    between atoms: C_9  and  C_11
    5  A    between atoms: C_9  and  C_28
    6  A    between atoms: C_11  and  C_25
    7  A    between atoms: C_14  and  C_29
    8  A    between atoms: C_16  and  C_25
    9  A    between atoms: C_20  and  C_27
   10  A    between atoms: C_27  and  C_28
                            x       y       z     vdW  Elec       q    Type
                         _______ _______ _______ _____ _____    ______ ____

>  <TORSDO>
F 10

$$$$
=
 OpenBabel10222418473D

 29 31  0  0  1  0  0  0  0  0999 V2000
  189.0980  177.0780  144.2570 C   0  0  1  0  0  3  0  0  0  0  0  0
  187.8500  177.9020  144.6380 C   0  0  1  0  0  3  0  0  0  0  0  0
  184.4790  178.7120  143.3440 C   0  0  0  0  0  1  0  0  0  0  0  0
  185.4370  178.2120  144.3150 N   0  0  0  0  0  0  0  0  0  0  0  0
  186.6040  177.4640  143.8550 C   0  0  0  0  0  2  0  0  0  0  0  0
  187.5790  177.8400  146.1240 C   0  0  0  0  0  3  0  0  0  0  0  0
  184.1790  178.8840  146.1780 O   0  0  0  0  0  0  0  0  0  0  0  0
  185.2640  178.4370  145.7200 C   0  0  0  0  0  0  0  0  0  0  0  0
  186.3780  178.1320  146.6290 C   0  0  0  0  0  3  0  0  0  0  0  0
  189.1470  176.6280  142.7900 C   0  0  2  0  0  3  0  0  0  0  0  0
  189.8000  175.3980  142.6570 O   0  0  0  0  0  1  0  0  0  0  0  0
  189.8080  177.6850  141.9160 C   0  0  0  0  0  2  0  0  0  0  0  0
  189.0900  177.8310  140.6140 C   0  0  0  0  0  0  0  0  0  0  0  0
  187.9000  178.1110  140.5960 O   0  0  0  0  0  0  0  0  0  0  0  0
  189.8430  177.6710  139.3370 C   0  0  0  0  0  2  0  0  0  0  0  0
  190.7540  176.4590  139.4150 C   0  0  0  0  0  2  0  0  0  0  0  0
  193.5470  174.4210  137.2470 O   0  0  0  0  0  0  0  0  0  0  0  0
  192.9560  176.5150  138.2370 C   0  0  0  0  0  2  0  0  0  0  0  0
  191.2090  174.8320  137.5680 C   0  0  0  0  0  0  0  0  0  0  0  0
  193.7610  175.8070  137.1500 C   0  0  0  0  0  2  0  0  0  0  0  0
  190.1250  174.2890  137.7170 O   0  0  0  0  0  0  0  0  0  0  0  0
  192.2650  174.1700  136.7260 C   0  0  0  0  0  2  0  0  0  0  0  0
  191.4540  176.2310  138.0830 C   0  0  1  0  0  3  0  0  0  0  0  0
  190.4060  177.7790  144.6370 C   0  0  0  0  0  2  0  0  0  0  0  0
  191.4810  176.7970  145.0830 C   0  0  0  0  0  2  0  0  0  0  0  0
  192.8280  175.8290  148.4470 C   0  0  0  0  0  1  0  0  0  0  0  0
  192.1290  175.6150  147.1220 C   0  0  2  0  0  3  0  0  0  0  0  0
  191.6840  176.9140  146.5780 C   0  0  2  0  0  3  0  0  0  0  0  0
  190.7940  176.0440  147.2320 O   0  0  0  0  0  0  0  0  0  0  0  0
  1 24  1  6  0  0  0
  2  1  1  1  0  0  0
  2  6  1  0  0  0  0
  3  4  1  0  0  0  0
  4  8  1  0  0  0  0
  5  4  1  0  0  0  0
  5  2  1  0  0  0  0
  6  9  2  0  0  0  0
  8  7  2  0  0  0  0
  8  9  1  0  0  0  0
 10 11  1  1  0  0  0
 10  1  1  0  0  0  0
 12 10  1  0  0  0  0
 13 12  1  0  0  0  0
 14 13  2  0  0  0  0
 15 16  1  0  0  0  0
 15 13  1  0  0  0  0
 19 21  2  0  0  0  0
 19 23  1  0  0  0  0
 20 17  1  0  0  0  0
 20 18  1  0  0  0  0
 22 17  1  0  0  0  0
 22 19  1  0  0  0  0
 23 18  1  0  0  0  0
 23 16  1  1  0  0  0
 24 25  1  0  0  0  0
 27 29  1  0  0  0  0
 27 26  1  1  0  0  0
 28 25  1  6  0  0  0
 28 27  1  0  0  0  0
 28 29  1  0  0  0  0
M  END
>  <MODEL>
4

>  <REMARK>
 VINA RESULT:      -7.8      2.196      2.844
  Name = 
  10 active torsions:
  status: ('A' for Active; 'I' for Inactive)
    1  A    between atoms: C_2  and  C_9
    2  A    between atoms: C_8  and  C_14
    3  A    between atoms: C_8  and  C_16
    4  A    between atoms: C_9  and  C_11
    5  A    between atoms: C_9  and  C_28
    6  A    between atoms: C_11  and  C_25
    7  A    between atoms: C_14  and  C_29
    8  A    between atoms: C_16  and  C_25
    9  A    between atoms: C_20  and  C_27
   10  A    between atoms: C_27  and  C_28
                            x       y       z     vdW  Elec       q    Type
                         _______ _______ _______ _____ _____    ______ ____

>  <TORSDO>
F 10

$$$$
=
 OpenBabel10222418473D

 29 31  0  0  1  0  0  0  0  0999 V2000
  187.8080  177.8380  143.3020 C   0  0  1  0  0  3  0  0  0  0  0  0
  187.8790  177.4400  144.7910 C   0  0  1  0  0  3  0  0  0  0  0  0
  190.3620  177.0320  147.5050 C   0  0  0  0  0  1  0  0  0  0  0  0
  189.1700  177.5720  146.8750 N   0  0  0  0  0  0  0  0  0  0  0  0
  189.1900  177.8930  145.4510 C   0  0  0  0  0  2  0  0  0  0  0  0
  186.6960  177.9780  145.5640 C   0  0  0  0  0  3  0  0  0  0  0  0
  187.9620  177.7380  148.8800 O   0  0  0  0  0  0  0  0  0  0  0  0
  187.9660  177.7960  147.6210 C   0  0  0  0  0  0  0  0  0  0  0  0
  186.7270  178.1030  146.8930 C   0  0  0  0  0  3  0  0  0  0  0  0
  188.5800  176.9120  142.3510 C   0  0  2  0  0  3  0  0  0  0  0  0
  188.6800  175.6170  142.8720 O   0  0  0  0  0  1  0  0  0  0  0  0
  189.9600  177.4750  142.0410 C   0  0  0  0  0  2  0  0  0  0  0  0
  190.2940  177.3110  140.5940 C   0  0  0  0  0  0  0  0  0  0  0  0
  191.4540  177.1510  140.2450 O   0  0  0  0  0  0  0  0  0  0  0  0
  189.1970  177.3030  139.5830 C   0  0  0  0  0  2  0  0  0  0  0  0
  189.1270  178.6460  138.8770 C   0  0  0  0  0  2  0  0  0  0  0  0
  188.1860  176.3260  135.6540 O   0  0  0  0  0  0  0  0  0  0  0  0
  189.9490  177.2040  137.0100 C   0  0  0  0  0  2  0  0  0  0  0  0
  187.7240  178.3650  136.8240 C   0  0  0  0  0  0  0  0  0  0  0  0
  189.5510  176.6630  135.6380 C   0  0  0  0  0  2  0  0  0  0  0  0
  186.8270  179.0520  137.2870 O   0  0  0  0  0  0  0  0  0  0  0  0
  187.4680  177.5340  135.5960 C   0  0  0  0  0  2  0  0  0  0  0  0
  189.1310  178.4540  137.3670 C   0  0  1  0  0  3  0  0  0  0  0  0
  186.3690  178.0190  142.8080 C   0  0  0  0  0  2  0  0  0  0  0  0
  186.3010  178.7620  141.4820 C   0  0  0  0  0  2  0  0  0  0  0  0
  183.0350  178.2310  139.7150 C   0  0  0  0  0  1  0  0  0  0  0  0
  184.5320  178.4280  139.8280 C   0  0  2  0  0  3  0  0  0  0  0  0
  184.8550  179.0420  141.1320 C   0  0  2  0  0  3  0  0  0  0  0  0
  184.8070  179.8010  139.9500 O   0  0  0  0  0  0  0  0  0  0  0  0
  1 24  1  6  0  0  0
  2  1  1  6  0  0  0
  2  5  1  0  0  0  0
  2  6  1  0  0  0  0
  4  3  1  0  0  0  0
  4  8  1  0  0  0  0
  5  4  1  0  0  0  0
  6  9  2  0  0  0  0
  8  7  2  0  0  0  0
  9  8  1  0  0  0  0
 10 11  1  1  0  0  0
 10  1  1  0  0  0  0
 12 10  1  0  0  0  0
 13 12  1  0  0  0  0
 14 13  2  0  0  0  0
 15 13  1  0  0  0  0
 16 15  1  0  0  0  0
 18 23  1  0  0  0  0
 19 21  2  0  0  0  0
 19 23  1  0  0  0  0
 20 17  1  0  0  0  0
 20 18  1  0  0  0  0
 22 17  1  0  0  0  0
 22 19  1  0  0  0  0
 23 16  1  1  0  0  0
 25 24  1  0  0  0  0
 27 26  1  1  0  0  0
 27 29  1  0  0  0  0
 27 28  1  0  0  0  0
 28 25  1  6  0  0  0
 29 28  1  0  0  0  0
M  END
>  <MODEL>
5

>  <REMARK>
 VINA RESULT:      -7.8      2.058      4.962
  Name = 
  10 active torsions:
  status: ('A' for Active; 'I' for Inactive)
    1  A    between atoms: C_2  and  C_9
    2  A    between atoms: C_8  and  C_14
    3  A    between atoms: C_8  and  C_16
    4  A    between atoms: C_9  and  C_11
    5  A    between atoms: C_9  and  C_28
    6  A    between atoms: C_11  and  C_25
    7  A    between atoms: C_14  and  C_29
    8  A    between atoms: C_16  and  C_25
    9  A    between atoms: C_20  and  C_27
   10  A    between atoms: C_27  and  C_28
                            x       y       z     vdW  Elec       q    Type
                         _______ _______ _______ _____ _____    ______ ____

>  <TORSDO>
F 10

$$$$
=
 OpenBabel10222418473D

 29 31  0  0  1  0  0  0  0  0999 V2000
  188.9020  178.0350  143.6110 C   0  0  1  0  0  3  0  0  0  0  0  0
  189.5710  177.3880  142.3800 C   0  0  1  0  0  3  0  0  0  0  0  0
  188.9970  176.9190  138.7540 C   0  0  0  0  0  1  0  0  0  0  0  0
  189.7300  177.3530  139.9310 N   0  0  0  0  0  0  0  0  0  0  0  0
  189.0050  177.9290  141.0600 C   0  0  0  0  0  2  0  0  0  0  0  0
  191.0730  177.5630  142.4110 C   0  0  0  0  0  3  0  0  0  0  0  0
  191.8410  176.9380  138.9940 O   0  0  0  0  0  0  0  0  0  0  0  0
  191.1560  177.2260  140.0120 C   0  0  0  0  0  0  0  0  0  0  0  0
  191.8140  177.4450  141.3070 C   0  0  0  0  0  3  0  0  0  0  0  0
  187.7030  177.2580  144.1720 C   0  0  2  0  0  3  0  0  0  0  0  0
  187.6030  175.9880  143.5950 O   0  0  0  0  0  1  0  0  0  0  0  0
  186.4090  178.0390  143.9810 C   0  0  0  0  0  2  0  0  0  0  0  0
  185.7200  178.2620  145.2880 C   0  0  0  0  0  0  0  0  0  0  0  0
  186.2960  178.0160  146.3370 O   0  0  0  0  0  0  0  0  0  0  0  0
  184.3380  178.8260  145.3030 C   0  0  0  0  0  2  0  0  0  0  0  0
  184.0240  179.4770  143.9680 C   0  0  0  0  0  2  0  0  0  0  0  0
  180.9870  179.3200  141.2470 O   0  0  0  0  0  0  0  0  0  0  0  0
  181.5920  179.0960  143.5490 C   0  0  0  0  0  2  0  0  0  0  0  0
  183.2640  178.7290  141.7040 C   0  0  0  0  0  0  0  0  0  0  0  0
  180.6030  178.7070  142.4520 C   0  0  0  0  0  2  0  0  0  0  0  0
  184.4000  178.7700  141.2580 O   0  0  0  0  0  0  0  0  0  0  0  0
  182.0970  178.6040  140.7620 C   0  0  0  0  0  2  0  0  0  0  0  0
  183.0160  178.6430  143.1920 C   0  0  1  0  0  3  0  0  0  0  0  0
  189.9010  178.3440  144.7310 C   0  0  0  0  0  2  0  0  0  0  0  0
  189.6680  177.4870  145.9670 C   0  0  0  0  0  2  0  0  0  0  0  0
  192.2800  175.4930  147.7760 C   0  0  0  0  0  1  0  0  0  0  0  0
  191.5360  176.7430  147.3580 C   0  0  2  0  0  3  0  0  0  0  0  0
  190.7950  176.4850  146.1070 C   0  0  2  0  0  3  0  0  0  0  0  0
  192.0220  177.1720  146.1100 O   0  0  0  0  0  0  0  0  0  0  0  0
  1 10  1  0  0  0  0
  1 24  1  1  0  0  0
  2  6  1  0  0  0  0
  2  1  1  1  0  0  0
  3  4  1  0  0  0  0
  4  8  1  0  0  0  0
  4  5  1  0  0  0  0
  5  2  1  0  0  0  0
  7  8  2  0  0  0  0
  8  9  1  0  0  0  0
  9  6  2  0  0  0  0
 10 11  1  6  0  0  0
 12 10  1  0  0  0  0
 12 13  1  0  0  0  0
 13 15  1  0  0  0  0
 13 14  2  0  0  0  0
 16 15  1  0  0  0  0
 17 20  1  0  0  0  0
 19 23  1  0  0  0  0
 20 18  1  0  0  0  0
 21 19  2  0  0  0  0
 22 17  1  0  0  0  0
 22 19  1  0  0  0  0
 23 18  1  0  0  0  0
 23 16  1  1  0  0  0
 24 25  1  0  0  0  0
 27 26  1  6  0  0  0
 28 25  1  1  0  0  0
 28 29  1  0  0  0  0
 28 27  1  0  0  0  0
 29 27  1  0  0  0  0
M  END
>  <MODEL>
6

>  <REMARK>
 VINA RESULT:      -7.6      2.610      5.926
  Name = 
  10 active torsions:
  status: ('A' for Active; 'I' for Inactive)
    1  A    between atoms: C_2  and  C_9
    2  A    between atoms: C_8  and  C_14
    3  A    between atoms: C_8  and  C_16
    4  A    between atoms: C_9  and  C_11
    5  A    between atoms: C_9  and  C_28
    6  A    between atoms: C_11  and  C_25
    7  A    between atoms: C_14  and  C_29
    8  A    between atoms: C_16  and  C_25
    9  A    between atoms: C_20  and  C_27
   10  A    between atoms: C_27  and  C_28
                            x       y       z     vdW  Elec       q    Type
                         _______ _______ _______ _____ _____    ______ ____

>  <TORSDO>
F 10

$$$$
=
 OpenBabel10222418473D

 29 31  0  0  1  0  0  0  0  0999 V2000
  185.2000  178.9500  142.1100 C   0  0  1  0  0  3  0  0  0  0  0  0
  184.1460  178.5460  141.0590 C   0  0  1  0  0  3  0  0  0  0  0  0
  180.5670  177.6320  140.8330 C   0  0  0  0  0  1  0  0  0  0  0  0
  181.7550  178.4070  140.5210 N   0  0  0  0  0  0  0  0  0  0  0  0
  182.7120  178.7170  141.5800 C   0  0  0  0  0  2  0  0  0  0  0  0
  184.3260  179.3170  139.7700 C   0  0  0  0  0  3  0  0  0  0  0  0
  181.1260  178.8190  138.2980 O   0  0  0  0  0  0  0  0  0  0  0  0
  182.0140  178.8750  139.1900 C   0  0  0  0  0  0  0  0  0  0  0  0
  183.3380  179.4320  138.8800 C   0  0  0  0  0  3  0  0  0  0  0  0
  184.6800  179.0040  143.5540 C   0  0  2  0  0  3  0  0  0  0  0  0
  184.8010  180.2900  144.0910 O   0  0  0  0  0  1  0  0  0  0  0  0
  185.3980  177.9860  144.4310 C   0  0  0  0  0  2  0  0  0  0  0  0
  185.4370  178.4380  145.8540 C   0  0  0  0  0  0  0  0  0  0  0  0
  184.4100  178.7810  146.4200 O   0  0  0  0  0  0  0  0  0  0  0  0
  186.7340  178.4290  146.5930 C   0  0  0  0  0  2  0  0  0  0  0  0
  187.6920  177.4390  145.9550 C   0  0  0  0  0  2  0  0  0  0  0  0
  191.6180  176.3290  146.0670 O   0  0  0  0  0  0  0  0  0  0  0  0
  189.6530  176.7770  147.3530 C   0  0  0  0  0  2  0  0  0  0  0  0
  190.0100  177.8110  145.0870 C   0  0  0  0  0  0  0  0  0  0  0  0
  191.1790  176.7230  147.3440 C   0  0  0  0  0  2  0  0  0  0  0  0
  189.5920  178.2470  144.0260 O   0  0  0  0  0  0  0  0  0  0  0  0
  191.4630  177.4430  145.2220 C   0  0  0  0  0  2  0  0  0  0  0  0
  189.1300  177.7820  146.3150 C   0  0  1  0  0  3  0  0  0  0  0  0
  186.4660  178.0900  142.0380 C   0  0  0  0  0  2  0  0  0  0  0  0
  187.5800  178.7630  141.2500 C   0  0  0  0  0  2  0  0  0  0  0  0
  189.7530  177.5660  138.4370 C   0  0  0  0  0  1  0  0  0  0  0  0
  188.9900  178.5800  139.2610 C   0  0  2  0  0  3  0  0  0  0  0  0
  187.9680  177.8920  140.0750 C   0  0  2  0  0  3  0  0  0  0  0  0
  187.6360  178.5560  138.8810 O   0  0  0  0  0  0  0  0  0  0  0  0
  1 24  1  1  0  0  0
  1 10  1  0  0  0  0
  2  5  1  0  0  0  0
  2  1  1  1  0  0  0
  4  3  1  0  0  0  0
  4  5  1  0  0  0  0
  6  2  1  0  0  0  0
  7  8  2  0  0  0  0
  8  4  1  0  0  0  0
  9  8  1  0  0  0  0
  9  6  2  0  0  0  0
 10 11  1  1  0  0  0
 10 12  1  0  0  0  0
 12 13  1  0  0  0  0
 13 14  2  0  0  0  0
 13 15  1  0  0  0  0
 16 15  1  0  0  0  0
 17 20  1  0  0  0  0
 19 22  1  0  0  0  0
 19 23  1  0  0  0  0
 20 18  1  0  0  0  0
 21 19  2  0  0  0  0
 22 17  1  0  0  0  0
 23 16  1  6  0  0  0
 23 18  1  0  0  0  0
 25 24  1  0  0  0  0
 27 26  1  6  0  0  0
 27 28  1  0  0  0  0
 28 25  1  1  0  0  0
 29 27  1  0  0  0  0
 29 28  1  0  0  0  0
M  END
>  <MODEL>
7

>  <REMARK>
 VINA RESULT:      -7.4      2.636      7.834
  Name = 
  10 active torsions:
  status: ('A' for Active; 'I' for Inactive)
    1  A    between atoms: C_2  and  C_9
    2  A    between atoms: C_8  and  C_14
    3  A    between atoms: C_8  and  C_16
    4  A    between atoms: C_9  and  C_11
    5  A    between atoms: C_9  and  C_28
    6  A    between atoms: C_11  and  C_25
    7  A    between atoms: C_14  and  C_29
    8  A    between atoms: C_16  and  C_25
    9  A    between atoms: C_20  and  C_27
   10  A    between atoms: C_27  and  C_28
                            x       y       z     vdW  Elec       q    Type
                         _______ _______ _______ _____ _____    ______ ____

>  <TORSDO>
F 10

$$$$
=
 OpenBabel10222418473D

 29 31  0  0  1  0  0  0  0  0999 V2000
  188.8480  176.9990  143.8510 C   0  0  1  0  0  3  0  0  0  0  0  0
  187.3380  177.3040  143.7530 C   0  0  1  0  0  3  0  0  0  0  0  0
  184.5590  178.5810  145.8360 C   0  0  0  0  0  1  0  0  0  0  0  0
  185.4500  178.5620  144.6890 N   0  0  0  0  0  0  0  0  0  0  0  0
  186.8600  178.2340  144.8770 C   0  0  0  0  0  2  0  0  0  0  0  0
  186.9790  177.8910  142.4060 C   0  0  0  0  0  3  0  0  0  0  0  0
  183.8290  179.3480  143.1850 O   0  0  0  0  0  0  0  0  0  0  0  0
  184.9750  178.8560  143.3680 C   0  0  0  0  0  0  0  0  0  0  0  0
  185.8520  178.5810  142.2220 C   0  0  0  0  0  3  0  0  0  0  0  0
  189.4700  176.4190  142.5720 C   0  0  2  0  0  3  0  0  0  0  0  0
  190.1810  175.2440  142.8400 O   0  0  0  0  0  1  0  0  0  0  0  0
  190.3630  177.4440  141.8860 C   0  0  0  0  0  2  0  0  0  0  0  0
  190.4550  177.1780  140.4190 C   0  0  0  0  0  0  0  0  0  0  0  0
  191.5280  176.8880  139.9120 O   0  0  0  0  0  0  0  0  0  0  0  0
  189.2200  177.2300  139.5830 C   0  0  0  0  0  2  0  0  0  0  0  0
  189.0400  178.6220  139.0020 C   0  0  0  0  0  2  0  0  0  0  0  0
  187.5940  176.3820  135.9130 O   0  0  0  0  0  0  0  0  0  0  0  0
  189.4980  177.5160  136.8100 C   0  0  0  0  0  2  0  0  0  0  0  0
  187.1510  178.1930  137.4170 C   0  0  0  0  0  0  0  0  0  0  0  0
  188.8040  176.9990  135.5510 C   0  0  0  0  0  2  0  0  0  0  0  0
  186.3300  178.6430  138.2010 O   0  0  0  0  0  0  0  0  0  0  0  0
  186.6870  177.4120  136.2180 C   0  0  0  0  0  2  0  0  0  0  0  0
  188.6170  178.5390  137.5430 C   0  0  1  0  0  3  0  0  0  0  0  0
  189.6630  178.2020  144.3340 C   0  0  0  0  0  2  0  0  0  0  0  0
  190.5160  177.8730  145.5520 C   0  0  0  0  0  2  0  0  0  0  0  0
  188.2070  177.3600  148.4640 C   0  0  0  0  0  1  0  0  0  0  0  0
  189.4180  177.9040  147.7360 C   0  0  2  0  0  3  0  0  0  0  0  0
  189.6950  177.0770  146.5440 C   0  0  2  0  0  3  0  0  0  0  0  0
  190.4300  176.9280  147.7330 O   0  0  0  0  0  0  0  0  0  0  0  0
  1 24  1  6  0  0  0
  2  1  1  6  0  0  0
  2  5  1  0  0  0  0
  4  5  1  0  0  0  0
  4  3  1  0  0  0  0
  6  2  1  0  0  0  0
  7  8  2  0  0  0  0
  8  4  1  0  0  0  0
  9  6  2  0  0  0  0
  9  8  1  0  0  0  0
 10 11  1  1  0  0  0
 10  1  1  0  0  0  0
 12 10  1  0  0  0  0
 13 12  1  0  0  0  0
 14 13  2  0  0  0  0
 15 13  1  0  0  0  0
 16 15  1  0  0  0  0
 17 22  1  0  0  0  0
 18 23  1  0  0  0  0
 19 23  1  0  0  0  0
 19 21  2  0  0  0  0
 20 17  1  0  0  0  0
 20 18  1  0  0  0  0
 22 19  1  0  0  0  0
 23 16  1  1  0  0  0
 24 25  1  0  0  0  0
 27 26  1  1  0  0  0
 28 25  1  6  0  0  0
 28 29  1  0  0  0  0
 28 27  1  0  0  0  0
 29 27  1  0  0  0  0
M  END
>  <MODEL>
8

>  <REMARK>
 VINA RESULT:      -7.4      1.625      2.205
  Name = 
  10 active torsions:
  status: ('A' for Active; 'I' for Inactive)
    1  A    between atoms: C_2  and  C_9
    2  A    between atoms: C_8  and  C_14
    3  A    between atoms: C_8  and  C_16
    4  A    between atoms: C_9  and  C_11
    5  A    between atoms: C_9  and  C_28
    6  A    between atoms: C_11  and  C_25
    7  A    between atoms: C_14  and  C_29
    8  A    between atoms: C_16  and  C_25
    9  A    between atoms: C_20  and  C_27
   10  A    between atoms: C_27  and  C_28
                            x       y       z     vdW  Elec       q    Type
                         _______ _______ _______ _____ _____    ______ ____

>  <TORSDO>
F 10

$$$$
=
 OpenBabel10222418473D

 29 31  0  0  1  0  0  0  0  0999 V2000
  187.6140  177.7890  143.2720 C   0  0  1  0  0  3  0  0  0  0  0  0
  187.7430  177.4080  144.7620 C   0  0  1  0  0  3  0  0  0  0  0  0
  190.3330  176.9920  147.3720 C   0  0  0  0  0  1  0  0  0  0  0  0
  189.1240  177.5430  146.7870 N   0  0  0  0  0  0  0  0  0  0  0  0
  189.0880  177.8470  145.3590 C   0  0  0  0  0  2  0  0  0  0  0  0
  186.6020  177.9740  145.5780 C   0  0  0  0  0  3  0  0  0  0  0  0
  188.0060  177.7530  148.8400 O   0  0  0  0  0  0  0  0  0  0  0  0
  187.9570  177.7960  147.5810 C   0  0  0  0  0  0  0  0  0  0  0  0
  186.6930  178.1140  146.9030 C   0  0  0  0  0  3  0  0  0  0  0  0
  188.3280  176.8390  142.3010 C   0  0  2  0  0  3  0  0  0  0  0  0
  188.6590  175.6300  142.9230 O   0  0  0  0  0  1  0  0  0  0  0  0
  189.5670  177.4950  141.7080 C   0  0  0  0  0  2  0  0  0  0  0  0
  189.4760  177.5640  140.2180 C   0  0  0  0  0  0  0  0  0  0  0  0
  188.5910  178.2170  139.6850 O   0  0  0  0  0  0  0  0  0  0  0  0
  190.4960  176.8630  139.3850 C   0  0  0  0  0  2  0  0  0  0  0  0
  190.4460  177.3740  137.9560 C   0  0  0  0  0  2  0  0  0  0  0  0
  189.8560  173.3980  137.2500 O   0  0  0  0  0  0  0  0  0  0  0  0
  191.4680  175.1530  137.4450 C   0  0  0  0  0  2  0  0  0  0  0  0
  189.0790  175.6210  136.8070 C   0  0  0  0  0  0  0  0  0  0  0  0
  191.1460  173.7850  136.8460 C   0  0  0  0  0  2  0  0  0  0  0  0
  188.0870  176.3330  136.7990 O   0  0  0  0  0  0  0  0  0  0  0  0
  188.9470  174.1560  136.4900 C   0  0  0  0  0  2  0  0  0  0  0  0
  190.4590  176.2120  136.9740 C   0  0  1  0  0  3  0  0  0  0  0  0
  186.1580  177.9880  142.8390 C   0  0  0  0  0  2  0  0  0  0  0  0
  186.0220  179.0080  141.7170 C   0  0  0  0  0  2  0  0  0  0  0  0
  184.1420  177.8040  138.7030 C   0  0  0  0  0  1  0  0  0  0  0  0
  185.1700  178.6170  139.4590 C   0  0  2  0  0  3  0  0  0  0  0  0
  184.7980  178.6860  140.8870 C   0  0  2  0  0  3  0  0  0  0  0  0
  184.5470  179.7530  140.0060 O   0  0  0  0  0  0  0  0  0  0  0  0
  1 24  1  6  0  0  0
  2  1  1  6  0  0  0
  2  5  1  0  0  0  0
  2  6  1  0  0  0  0
  4  3  1  0  0  0  0
  4  8  1  0  0  0  0
  5  4  1  0  0  0  0
  6  9  2  0  0  0  0
  8  7  2  0  0  0  0
  9  8  1  0  0  0  0
 10 11  1  1  0  0  0
 10  1  1  0  0  0  0
 12 10  1  0  0  0  0
 13 12  1  0  0  0  0
 14 13  2  0  0  0  0
 15 13  1  0  0  0  0
 16 15  1  0  0  0  0
 19 23  1  0  0  0  0
 20 17  1  0  0  0  0
 20 18  1  0  0  0  0
 21 19  2  0  0  0  0
 22 19  1  0  0  0  0
 22 17  1  0  0  0  0
 23 18  1  0  0  0  0
 23 16  1  1  0  0  0
 25 24  1  0  0  0  0
 27 26  1  6  0  0  0
 27 29  1  0  0  0  0
 27 28  1  0  0  0  0
 28 25  1  1  0  0  0
 29 28  1  0  0  0  0
M  END
>  <MODEL>
9

>  <REMARK>
 VINA RESULT:      -7.2      2.214      5.189
  Name = 
  10 active torsions:
  status: ('A' for Active; 'I' for Inactive)
    1  A    between atoms: C_2  and  C_9
    2  A    between atoms: C_8  and  C_14
    3  A    between atoms: C_8  and  C_16
    4  A    between atoms: C_9  and  C_11
    5  A    between atoms: C_9  and  C_28
    6  A    between atoms: C_11  and  C_25
    7  A    between atoms: C_14  and  C_29
    8  A    between atoms: C_16  and  C_25
    9  A    between atoms: C_20  and  C_27
   10  A    between atoms: C_27  and  C_28
                            x       y       z     vdW  Elec       q    Type
                         _______ _______ _______ _____ _____    ______ ____

>  <TORSDO>
F 10

$$$$
