=
 OpenBabel10222419003D

 38 43  0  0  1  0  0  0  0  0999 V2000
  186.8440  178.1680  144.1000 C   0  0  0  0  0  0  0  0  0  0  0  0
  185.0740  178.2720  146.3190 C   0  0  0  0  0  3  0  0  0  0  0  0
  189.9380  177.7090  146.1690 C   0  0  0  0  0  2  0  0  0  0  0  0
  186.4340  178.0700  146.5650 C   0  0  0  0  0  0  0  0  0  0  0  0
  187.3210  178.0560  145.4140 C   0  0  0  0  0  0  0  0  0  0  0  0
  184.5940  178.4710  145.0230 C   0  0  0  0  0  0  0  0  0  0  0  0
  188.6000  177.8840  145.8330 C   0  0  0  0  0  0  0  0  0  0  0  0
  188.2450  177.6630  148.3060 N   0  0  0  0  0  0  0  0  0  0  0  0
  185.4720  178.3710  143.9160 C   0  0  0  0  0  3  0  0  0  0  0  0
  186.9070  177.8580  147.9480 C   0  0  0  0  0  3  0  0  0  0  0  0
  189.0070  177.7090  147.2010 C   0  0  0  0  0  0  0  0  0  0  0  0
  181.8260  178.8850  142.6170 C   0  0  0  0  0  0  0  0  0  0  0  0
  182.0520  178.0090  141.4610 C   0  0  0  0  0  3  0  0  0  0  0  0
  179.1380  178.9520  139.3550 O   0  0  0  0  0  1  0  0  0  0  0  0
  180.8240  179.9960  142.5470 C   0  0  2  0  0  3  0  0  0  0  0  0
  183.1480  178.6210  144.8600 C   0  0  0  0  0  3  0  0  0  0  0  0
  182.5290  178.7310  143.7120 C   0  0  0  0  0  0  0  0  0  0  0  0
  180.0960  180.0830  143.7190 F   0  0  0  0  0  0  0  0  0  0  0  0
  180.0640  178.9790  140.3910 C   0  0  0  0  0  0  0  0  0  0  0  0
  181.2410  178.0470  140.3970 C   0  0  0  0  0  0  0  0  0  0  0  0
  179.8680  179.8480  141.3890 C   0  0  0  0  0  3  0  0  0  0  0  0
  181.5210  177.1710  139.3340 O   0  0  0  0  0  0  0  0  0  0  0  0
  182.3810  176.0430  139.4350 C   0  0  0  0  0  1  0  0  0  0  0  0
  187.4710  178.2790  141.6370 C   0  0  0  0  0  0  0  0  0  0  0  0
  188.2960  177.8440  140.5920 C   0  0  0  0  0  3  0  0  0  0  0  0
  187.7000  177.8060  142.9440 C   0  0  0  0  0  0  0  0  0  0  0  0
  189.5630  176.4740  142.1230 C   0  0  0  0  0  3  0  0  0  0  0  0
  188.7540  176.9150  143.1720 C   0  0  0  0  0  3  0  0  0  0  0  0
  189.3480  176.9400  140.8300 C   0  0  0  0  0  0  0  0  0  0  0  0
  186.3780  179.2550  141.3490 C   0  0  0  0  0  1  0  0  0  0  0  0
  190.1090  176.3650  139.7620 N   0  0  0  0  0  2  0  0  0  0  0  0
  192.1570  177.4920  140.0200 O   0  0  0  0  0  0  0  0  0  0  0  0
  191.4110  176.7710  139.3040 C   0  0  0  0  0  0  0  0  0  0  0  0
  192.4570  174.0470  137.0620 C   0  0  0  0  0  2  0  0  0  0  0  0
  193.7120  174.9080  137.0930 C   0  0  0  0  0  2  0  0  0  0  0  0
  191.3310  174.9080  137.6070 C   0  0  0  0  0  2  0  0  0  0  0  0
  191.9570  176.2430  138.0090 C   0  0  0  0  0  3  0  0  0  0  0  0
  193.4370  175.9820  138.1250 C   0  0  0  0  0  2  0  0  0  0  0  0
  1  5  1  0  0  0  0
  2  4  1  0  0  0  0
  3 11  1  0  0  0  0
  4 10  1  0  0  0  0
  5  7  1  0  0  0  0
  5  4  2  0  0  0  0
  6  2  2  0  0  0  0
  7  3  1  0  0  0  0
  7 11  2  0  0  0  0
  9  1  2  0  0  0  0
  9  6  1  0  0  0  0
 10  8  2  0  0  0  0
 11  8  1  0  0  0  0
 12 17  2  0  0  0  0
 13 12  1  0  0  0  0
 14 19  1  0  0  0  0
 15 12  1  0  0  0  0
 15 18  1  1  0  0  0
 16  6  1  0  0  0  0
 17 16  2  0  0  0  0
 19 20  1  0  0  0  0
 19 21  2  0  0  0  0
 20 13  2  0  0  0  0
 21 15  1  0  0  0  0
 22 23  1  0  0  0  0
 22 20  1  0  0  0  0
 24 26  1  0  0  0  0
 25 29  1  0  0  0  0
 25 24  2  0  0  0  0
 26 28  2  0  0  0  0
 26  1  1  0  0  0  0
 27 28  1  0  0  0  0
 29 27  2  0  0  0  0
 30 24  1  0  0  0  0
 31 29  1  0  0  0  0
 33 31  1  0  0  0  0
 33 32  2  0  0  0  0
 34 35  1  0  0  0  0
 34 36  1  0  0  0  0
 35 38  1  0  0  0  0
 36 37  1  0  0  0  0
 37 38  1  0  0  0  0
 37 33  1  0  0  0  0
M  END
>  <MODEL>
1

>  <REMARK>
 VINA RESULT:     -10.4      0.000      0.000
  Name = 
  5 active torsions:
  status: ('A' for Active; 'I' for Inactive)
    1  A    between atoms: N_2  and  C_35
    2  A    between atoms: C_3  and  C_14
    3  A    between atoms: O_12  and  C_30
    4  A    between atoms: C_17  and  C_23
    5  A    between atoms: C_19  and  C_25
                            x       y       z     vdW  Elec       q    Type
                         _______ _______ _______ _____ _____    ______ ____

>  <TORSDO>
F 5

$$$$
=
 OpenBabel10222419003D

 38 43  0  0  1  0  0  0  0  0999 V2000
  183.1590  178.2710  141.5210 C   0  0  0  0  0  0  0  0  0  0  0  0
  182.1610  179.3770  143.9410 C   0  0  0  0  0  3  0  0  0  0  0  0
  179.8930  178.4880  139.6910 C   0  0  0  0  0  2  0  0  0  0  0  0
  181.2890  179.2610  142.8550 C   0  0  0  0  0  0  0  0  0  0  0  0
  181.8170  178.6590  141.6420 C   0  0  0  0  0  0  0  0  0  0  0  0
  183.4770  178.9160  143.8640 C   0  0  0  0  0  0  0  0  0  0  0  0
  180.8340  178.5940  140.7080 C   0  0  0  0  0  0  0  0  0  0  0  0
  178.9480  179.6810  141.9530 N   0  0  0  0  0  0  0  0  0  0  0  0
  183.9840  178.4090  142.6420 C   0  0  0  0  0  3  0  0  0  0  0  0
  179.9050  179.7620  142.9690 C   0  0  0  0  0  3  0  0  0  0  0  0
  179.4910  179.0760  140.8840 C   0  0  0  0  0  0  0  0  0  0  0  0
  186.6340  177.9950  145.5410 C   0  0  0  0  0  0  0  0  0  0  0  0
  187.7060  177.9070  144.5430 C   0  0  0  0  0  3  0  0  0  0  0  0
  190.5180  176.8080  146.7100 O   0  0  0  0  0  1  0  0  0  0  0  0
  186.8140  177.4100  146.9070 C   0  0  2  0  0  3  0  0  0  0  0  0
  184.3310  179.1290  145.0330 C   0  0  0  0  0  3  0  0  0  0  0  0
  185.4880  178.5510  145.2340 C   0  0  0  0  0  0  0  0  0  0  0  0
  186.2990  178.2480  147.8790 F   0  0  0  0  0  0  0  0  0  0  0  0
  189.2280  177.1280  146.3080 C   0  0  0  0  0  0  0  0  0  0  0  0
  188.9320  177.4890  144.8810 C   0  0  0  0  0  0  0  0  0  0  0  0
  188.2590  177.1190  147.2310 C   0  0  0  0  0  3  0  0  0  0  0  0
  189.9060  177.4410  143.8680 O   0  0  0  0  0  0  0  0  0  0  0  0
  190.1940  176.2850  143.0930 C   0  0  0  0  0  1  0  0  0  0  0  0
  183.4080  176.8730  139.4110 C   0  0  0  0  0  0  0  0  0  0  0  0
  184.0600  176.6550  138.1900 C   0  0  0  0  0  3  0  0  0  0  0  0
  183.7550  177.9930  140.1930 C   0  0  0  0  0  0  0  0  0  0  0  0
  185.3990  178.6370  138.5180 C   0  0  0  0  0  3  0  0  0  0  0  0
  184.7430  178.8690  139.7280 C   0  0  0  0  0  3  0  0  0  0  0  0
  185.0580  177.5370  137.7370 C   0  0  0  0  0  0  0  0  0  0  0  0
  182.3390  175.9270  139.8490 C   0  0  0  0  0  1  0  0  0  0  0  0
  185.8430  177.2590  136.5720 N   0  0  0  0  0  2  0  0  0  0  0  0
  186.8420  175.2200  137.1870 O   0  0  0  0  0  0  0  0  0  0  0  0
  186.8150  176.2100  136.4060 C   0  0  0  0  0  0  0  0  0  0  0  0
  189.8290  175.1060  134.6080 C   0  0  0  0  0  2  0  0  0  0  0  0
  190.0090  176.6180  134.5940 C   0  0  0  0  0  2  0  0  0  0  0  0
  188.3770  174.8490  134.9700 C   0  0  0  0  0  2  0  0  0  0  0  0
  187.7410  176.2150  135.2250 C   0  0  0  0  0  3  0  0  0  0  0  0
  188.8890  177.1630  135.4570 C   0  0  0  0  0  2  0  0  0  0  0  0
  1  5  2  0  0  0  0
  1  9  1  0  0  0  0
  3  7  1  0  0  0  0
  3 11  1  0  0  0  0
  4 10  1  0  0  0  0
  4  2  2  0  0  0  0
  5  4  1  0  0  0  0
  6  2  1  0  0  0  0
  6 16  1  0  0  0  0
  7 11  2  0  0  0  0
  7  5  1  0  0  0  0
  8 10  2  0  0  0  0
  9  6  2  0  0  0  0
 11  8  1  0  0  0  0
 12 15  1  0  0  0  0
 13 20  2  0  0  0  0
 13 12  1  0  0  0  0
 15 21  1  0  0  0  0
 15 18  1  1  0  0  0
 16 17  2  0  0  0  0
 17 12  2  0  0  0  0
 19 14  1  0  0  0  0
 19 21  2  0  0  0  0
 20 19  1  0  0  0  0
 22 20  1  0  0  0  0
 23 22  1  0  0  0  0
 24 30  1  0  0  0  0
 24 26  1  0  0  0  0
 25 24  2  0  0  0  0
 26  1  1  0  0  0  0
 27 28  1  0  0  0  0
 28 26  2  0  0  0  0
 29 25  1  0  0  0  0
 29 27  2  0  0  0  0
 31 29  1  0  0  0  0
 33 31  1  0  0  0  0
 33 32  2  0  0  0  0
 34 36  1  0  0  0  0
 35 34  1  0  0  0  0
 35 38  1  0  0  0  0
 36 37  1  0  0  0  0
 37 38  1  0  0  0  0
 37 33  1  0  0  0  0
M  END
>  <MODEL>
2

>  <REMARK>
 VINA RESULT:     -10.3      3.670      7.217
  Name = 
  5 active torsions:
  status: ('A' for Active; 'I' for Inactive)
    1  A    between atoms: N_2  and  C_35
    2  A    between atoms: C_3  and  C_14
    3  A    between atoms: O_12  and  C_30
    4  A    between atoms: C_17  and  C_23
    5  A    between atoms: C_19  and  C_25
                            x       y       z     vdW  Elec       q    Type
                         _______ _______ _______ _____ _____    ______ ____

>  <TORSDO>
F 5

$$$$
=
 OpenBabel10222419003D

 38 43  0  0  1  0  0  0  0  0999 V2000
  188.3100  177.8800  143.4840 C   0  0  0  0  0  0  0  0  0  0  0  0
  186.7560  177.5870  145.8440 C   0  0  0  0  0  3  0  0  0  0  0  0
  191.6080  177.3890  145.1990 C   0  0  0  0  0  2  0  0  0  0  0  0
  188.1430  177.4520  145.9410 C   0  0  0  0  0  0  0  0  0  0  0  0
  188.9160  177.6420  144.7250 C   0  0  0  0  0  0  0  0  0  0  0  0
  186.1450  177.9090  144.6300 C   0  0  0  0  0  0  0  0  0  0  0  0
  190.2370  177.5090  145.0060 C   0  0  0  0  0  0  0  0  0  0  0  0
  190.1320  176.9640  147.4520 N   0  0  0  0  0  0  0  0  0  0  0  0
  186.9170  178.0070  143.4470 C   0  0  0  0  0  3  0  0  0  0  0  0
  188.7580  177.1070  147.2400 C   0  0  0  0  0  3  0  0  0  0  0  0
  190.7820  177.1980  146.2990 C   0  0  0  0  0  0  0  0  0  0  0  0
  183.1430  178.5000  142.5640 C   0  0  0  0  0  0  0  0  0  0  0  0
  183.3130  177.8410  141.2630 C   0  0  0  0  0  3  0  0  0  0  0  0
  180.1640  178.8940  139.5920 O   0  0  0  0  0  1  0  0  0  0  0  0
  182.0760  179.5310  142.7640 C   0  0  2  0  0  3  0  0  0  0  0  0
  184.6830  177.9770  144.6150 C   0  0  0  0  0  3  0  0  0  0  0  0
  183.9540  178.2250  143.5560 C   0  0  0  0  0  0  0  0  0  0  0  0
  181.4570  179.3740  143.9900 F   0  0  0  0  0  0  0  0  0  0  0  0
  181.1790  178.8210  140.5380 C   0  0  0  0  0  0  0  0  0  0  0  0
  182.4040  177.9900  140.2910 C   0  0  0  0  0  0  0  0  0  0  0  0
  181.0260  179.5010  141.6800 C   0  0  0  0  0  3  0  0  0  0  0  0
  182.6350  177.3190  139.0780 O   0  0  0  0  0  0  0  0  0  0  0  0
  182.8170  175.9140  138.9640 C   0  0  0  0  0  1  0  0  0  0  0  0
  188.5470  178.0560  140.9570 C   0  0  0  0  0  0  0  0  0  0  0  0
  189.3140  177.8250  139.8080 C   0  0  0  0  0  3  0  0  0  0  0  0
  189.0710  177.7230  142.2210 C   0  0  0  0  0  0  0  0  0  0  0  0
  191.1090  176.9300  141.1520 C   0  0  0  0  0  3  0  0  0  0  0  0
  190.3550  177.1720  142.3020 C   0  0  0  0  0  3  0  0  0  0  0  0
  190.6010  177.2620  139.9000 C   0  0  0  0  0  0  0  0  0  0  0  0
  187.1940  178.6750  140.8210 C   0  0  0  0  0  1  0  0  0  0  0  0
  191.3450  176.8770  138.7390 N   0  0  0  0  0  2  0  0  0  0  0  0
  190.2170  174.9060  138.1230 O   0  0  0  0  0  0  0  0  0  0  0  0
  191.2290  175.6490  137.9980 C   0  0  0  0  0  0  0  0  0  0  0  0
  194.2950  173.9350  136.9030 C   0  0  0  0  0  2  0  0  0  0  0  0
  194.6030  175.3750  136.5160 C   0  0  0  0  0  2  0  0  0  0  0  0
  192.7990  173.8660  137.1530 C   0  0  0  0  0  2  0  0  0  0  0  0
  192.2600  175.2850  136.9690 C   0  0  0  0  0  3  0  0  0  0  0  0
  193.4570  176.1940  137.0750 C   0  0  0  0  0  2  0  0  0  0  0  0
  1  5  1  0  0  0  0
  2  4  1  0  0  0  0
  3 11  1  0  0  0  0
  4 10  1  0  0  0  0
  5  7  1  0  0  0  0
  5  4  2  0  0  0  0
  6  2  2  0  0  0  0
  7  3  1  0  0  0  0
  7 11  2  0  0  0  0
  9  1  2  0  0  0  0
  9  6  1  0  0  0  0
 10  8  2  0  0  0  0
 11  8  1  0  0  0  0
 12 15  1  0  0  0  0
 12 17  2  0  0  0  0
 13 12  1  0  0  0  0
 14 19  1  0  0  0  0
 15 18  1  1  0  0  0
 16  6  1  0  0  0  0
 17 16  2  0  0  0  0
 19 21  2  0  0  0  0
 20 19  1  0  0  0  0
 20 13  2  0  0  0  0
 21 15  1  0  0  0  0
 22 20  1  0  0  0  0
 23 22  1  0  0  0  0
 24 26  1  0  0  0  0
 25 29  1  0  0  0  0
 25 24  2  0  0  0  0
 26 28  2  0  0  0  0
 26  1  1  0  0  0  0
 27 28  1  0  0  0  0
 29 27  2  0  0  0  0
 30 24  1  0  0  0  0
 31 29  1  0  0  0  0
 33 32  2  0  0  0  0
 33 31  1  0  0  0  0
 34 36  1  0  0  0  0
 35 34  1  0  0  0  0
 35 38  1  0  0  0  0
 37 38  1  0  0  0  0
 37 36  1  0  0  0  0
 37 33  1  0  0  0  0
M  END
>  <MODEL>
3

>  <REMARK>
 VINA RESULT:      -9.8      1.298      1.678
  Name = 
  5 active torsions:
  status: ('A' for Active; 'I' for Inactive)
    1  A    between atoms: N_2  and  C_35
    2  A    between atoms: C_3  and  C_14
    3  A    between atoms: O_12  and  C_30
    4  A    between atoms: C_17  and  C_23
    5  A    between atoms: C_19  and  C_25
                            x       y       z     vdW  Elec       q    Type
                         _______ _______ _______ _____ _____    ______ ____

>  <TORSDO>
F 5

$$$$
=
 OpenBabel10222419003D

 38 43  0  0  1  0  0  0  0  0999 V2000
  189.7620  176.7220  138.3170 C   0  0  0  0  0  0  0  0  0  0  0  0
  187.4100  178.3010  138.5270 C   0  0  0  0  0  3  0  0  0  0  0  0
  189.5420  176.2990  134.5970 C   0  0  0  0  0  2  0  0  0  0  0  0
  187.8140  177.8790  137.2580 C   0  0  0  0  0  0  0  0  0  0  0  0
  189.0000  177.0430  137.1840 C   0  0  0  0  0  0  0  0  0  0  0  0
  188.1080  177.9180  139.6740 C   0  0  0  0  0  0  0  0  0  0  0  0
  189.2290  176.7000  135.8910 C   0  0  0  0  0  0  0  0  0  0  0  0
  187.3620  177.9290  134.7550 N   0  0  0  0  0  0  0  0  0  0  0  0
  189.3060  177.1710  139.5610 C   0  0  0  0  0  3  0  0  0  0  0  0
  187.0550  178.3060  136.0650 C   0  0  0  0  0  3  0  0  0  0  0  0
  188.4380  177.1250  134.7690 C   0  0  0  0  0  0  0  0  0  0  0  0
  188.3490  177.6750  143.3490 C   0  0  0  0  0  0  0  0  0  0  0  0
  189.7530  177.4810  143.7310 C   0  0  0  0  0  3  0  0  0  0  0  0
  189.3770  177.1350  147.4130 O   0  0  0  0  0  1  0  0  0  0  0  0
  187.2480  177.4100  144.3290 C   0  0  2  0  0  3  0  0  0  0  0  0
  187.6410  178.4520  140.9520 C   0  0  0  0  0  3  0  0  0  0  0  0
  188.0400  178.0420  142.1300 C   0  0  0  0  0  0  0  0  0  0  0  0
  186.2670  178.3810  144.2480 F   0  0  0  0  0  0  0  0  0  0  0  0
  189.0380  177.2390  146.0700 C   0  0  0  0  0  0  0  0  0  0  0  0
  190.0970  177.2620  145.0070 C   0  0  0  0  0  0  0  0  0  0  0  0
  187.7420  177.3320  145.7530 C   0  0  0  0  0  3  0  0  0  0  0  0
  191.4630  177.0950  145.2920 O   0  0  0  0  0  0  0  0  0  0  0  0
  191.9940  176.0160  146.0490 C   0  0  0  0  0  1  0  0  0  0  0  0
  191.4030  174.8590  137.7640 C   0  0  0  0  0  0  0  0  0  0  0  0
  192.7280  174.4060  137.7180 C   0  0  0  0  0  3  0  0  0  0  0  0
  191.1340  176.1760  138.1840 C   0  0  0  0  0  0  0  0  0  0  0  0
  193.5180  176.5460  138.5080 C   0  0  0  0  0  3  0  0  0  0  0  0
  192.2000  177.0090  138.5410 C   0  0  0  0  0  3  0  0  0  0  0  0
  193.7930  175.2480  138.0880 C   0  0  0  0  0  0  0  0  0  0  0  0
  190.3020  173.9420  137.3430 C   0  0  0  0  0  1  0  0  0  0  0  0
  195.1370  174.7680  138.1950 N   0  0  0  0  0  2  0  0  0  0  0  0
  196.0660  175.6050  136.2020 O   0  0  0  0  0  0  0  0  0  0  0  0
  196.1650  174.8260  137.1890 C   0  0  0  0  0  0  0  0  0  0  0  0
  198.9960  172.8660  135.8940 C   0  0  0  0  0  2  0  0  0  0  0  0
  198.4210  171.9110  136.9300 C   0  0  0  0  0  2  0  0  0  0  0  0
  198.4010  174.2310  136.1880 C   0  0  0  0  0  2  0  0  0  0  0  0
  197.4350  174.0440  137.3580 C   0  0  0  0  0  3  0  0  0  0  0  0
  197.1430  172.5660  137.4130 C   0  0  0  0  0  2  0  0  0  0  0  0
  1  9  1  0  0  0  0
  2  6  1  0  0  0  0
  3 11  1  0  0  0  0
  3  7  1  0  0  0  0
  4  2  2  0  0  0  0
  5  4  1  0  0  0  0
  5  1  2  0  0  0  0
  6 16  1  0  0  0  0
  7  5  1  0  0  0  0
  8 11  1  0  0  0  0
  8 10  2  0  0  0  0
  9  6  2  0  0  0  0
 10  4  1  0  0  0  0
 11  7  2  0  0  0  0
 12 13  1  0  0  0  0
 12 15  1  0  0  0  0
 13 20  2  0  0  0  0
 15 18  1  1  0  0  0
 15 21  1  0  0  0  0
 16 17  2  0  0  0  0
 17 12  2  0  0  0  0
 19 14  1  0  0  0  0
 20 22  1  0  0  0  0
 20 19  1  0  0  0  0
 21 19  2  0  0  0  0
 22 23  1  0  0  0  0
 24 26  1  0  0  0  0
 25 24  2  0  0  0  0
 25 29  1  0  0  0  0
 26  1  1  0  0  0  0
 26 28  2  0  0  0  0
 27 28  1  0  0  0  0
 29 31  1  0  0  0  0
 29 27  2  0  0  0  0
 30 24  1  0  0  0  0
 32 33  2  0  0  0  0
 33 37  1  0  0  0  0
 33 31  1  0  0  0  0
 34 36  1  0  0  0  0
 34 35  1  0  0  0  0
 35 38  1  0  0  0  0
 36 37  1  0  0  0  0
 37 38  1  0  0  0  0
M  END
>  <MODEL>
4

>  <REMARK>
 VINA RESULT:      -9.6      5.029      8.332
  Name = 
  5 active torsions:
  status: ('A' for Active; 'I' for Inactive)
    1  A    between atoms: N_2  and  C_35
    2  A    between atoms: C_3  and  C_14
    3  A    between atoms: O_12  and  C_30
    4  A    between atoms: C_17  and  C_23
    5  A    between atoms: C_19  and  C_25
                            x       y       z     vdW  Elec       q    Type
                         _______ _______ _______ _____ _____    ______ ____

>  <TORSDO>
F 5

$$$$
=
 OpenBabel10222419003D

 38 43  0  0  1  0  0  0  0  0999 V2000
  187.6760  177.6850  143.0650 C   0  0  0  0  0  0  0  0  0  0  0  0
  190.4360  177.6320  143.7360 C   0  0  0  0  0  3  0  0  0  0  0  0
  186.4770  177.7920  146.6170 C   0  0  0  0  0  2  0  0  0  0  0  0
  189.5030  177.7090  144.7730 C   0  0  0  0  0  0  0  0  0  0  0  0
  188.0980  177.6980  144.4030 C   0  0  0  0  0  0  0  0  0  0  0  0
  190.0310  177.5310  142.4040 C   0  0  0  0  0  0  0  0  0  0  0  0
  187.3360  177.7450  145.5250 C   0  0  0  0  0  0  0  0  0  0  0  0
  189.1200  177.8850  147.2820 N   0  0  0  0  0  0  0  0  0  0  0  0
  188.6560  177.6060  142.0700 C   0  0  0  0  0  3  0  0  0  0  0  0
  189.9660  177.8190  146.1710 C   0  0  0  0  0  3  0  0  0  0  0  0
  187.8430  177.8250  146.8670 C   0  0  0  0  0  0  0  0  0  0  0  0
  190.8310  176.8350  138.8680 C   0  0  0  0  0  0  0  0  0  0  0  0
  189.7550  177.3550  138.0160 C   0  0  0  0  0  3  0  0  0  0  0  0
  190.9760  176.2440  134.6860 O   0  0  0  0  0  1  0  0  0  0  0  0
  191.8330  175.8640  138.3240 C   0  0  2  0  0  3  0  0  0  0  0  0
  191.0800  177.5100  141.3850 C   0  0  0  0  0  3  0  0  0  0  0  0
  190.9020  177.1820  140.1300 C   0  0  0  0  0  0  0  0  0  0  0  0
  193.1070  176.1630  138.7710 F   0  0  0  0  0  0  0  0  0  0  0  0
  190.8860  176.3780  136.0650 C   0  0  0  0  0  0  0  0  0  0  0  0
  189.7560  177.1400  136.6940 C   0  0  0  0  0  0  0  0  0  0  0  0
  191.8430  175.8200  136.8160 C   0  0  0  0  0  3  0  0  0  0  0  0
  188.6950  177.6790  135.9470 O   0  0  0  0  0  0  0  0  0  0  0  0
  187.5860  178.3640  136.5150 C   0  0  0  0  0  1  0  0  0  0  0  0
  185.9070  178.5050  141.4320 C   0  0  0  0  0  0  0  0  0  0  0  0
  184.5720  178.8540  141.1900 C   0  0  0  0  0  3  0  0  0  0  0  0
  186.2790  178.0240  142.7030 C   0  0  0  0  0  0  0  0  0  0  0  0
  183.9760  178.2630  143.4540 C   0  0  0  0  0  3  0  0  0  0  0  0
  185.3020  177.8990  143.6970 C   0  0  0  0  0  3  0  0  0  0  0  0
  183.5990  178.7330  142.1990 C   0  0  0  0  0  0  0  0  0  0  0  0
  186.9070  178.6270  140.3290 C   0  0  0  0  0  1  0  0  0  0  0  0
  182.2640  179.2210  142.0270 N   0  0  0  0  0  2  0  0  0  0  0  0
  181.3410  177.5240  140.6840 O   0  0  0  0  0  0  0  0  0  0  0  0
  181.2470  178.6890  141.1590 C   0  0  0  0  0  0  0  0  0  0  0  0
  179.4270  181.6290  139.9010 C   0  0  0  0  0  2  0  0  0  0  0  0
  178.9310  181.5620  141.3390 C   0  0  0  0  0  2  0  0  0  0  0  0
  180.0680  180.2850  139.6040 C   0  0  0  0  0  2  0  0  0  0  0  0
  179.9920  179.4700  140.8940 C   0  0  0  0  0  3  0  0  0  0  0  0
  179.7500  180.4700  141.9950 C   0  0  0  0  0  2  0  0  0  0  0  0
  1  5  1  0  0  0  0
  2  4  1  0  0  0  0
  3 11  1  0  0  0  0
  4 10  1  0  0  0  0
  5  4  2  0  0  0  0
  5  7  1  0  0  0  0
  6  2  2  0  0  0  0
  7  3  1  0  0  0  0
  7 11  2  0  0  0  0
  9  6  1  0  0  0  0
  9  1  2  0  0  0  0
 10  8  2  0  0  0  0
 11  8  1  0  0  0  0
 12 17  2  0  0  0  0
 13 12  1  0  0  0  0
 14 19  1  0  0  0  0
 15 18  1  6  0  0  0
 15 12  1  0  0  0  0
 16  6  1  0  0  0  0
 17 16  2  0  0  0  0
 19 20  1  0  0  0  0
 19 21  2  0  0  0  0
 20 13  2  0  0  0  0
 21 15  1  0  0  0  0
 22 23  1  0  0  0  0
 22 20  1  0  0  0  0
 24 26  1  0  0  0  0
 25 24  2  0  0  0  0
 25 29  1  0  0  0  0
 26  1  1  0  0  0  0
 26 28  2  0  0  0  0
 27 28  1  0  0  0  0
 29 27  2  0  0  0  0
 30 24  1  0  0  0  0
 31 29  1  0  0  0  0
 32 33  2  0  0  0  0
 33 31  1  0  0  0  0
 34 35  1  0  0  0  0
 35 38  1  0  0  0  0
 36 34  1  0  0  0  0
 36 37  1  0  0  0  0
 37 33  1  0  0  0  0
 37 38  1  0  0  0  0
M  END
>  <MODEL>
5

>  <REMARK>
 VINA RESULT:      -9.5      3.362      8.866
  Name = 
  5 active torsions:
  status: ('A' for Active; 'I' for Inactive)
    1  A    between atoms: N_2  and  C_35
    2  A    between atoms: C_3  and  C_14
    3  A    between atoms: O_12  and  C_30
    4  A    between atoms: C_17  and  C_23
    5  A    between atoms: C_19  and  C_25
                            x       y       z     vdW  Elec       q    Type
                         _______ _______ _______ _____ _____    ______ ____

>  <TORSDO>
F 5

$$$$
=
 OpenBabel10222419003D

 38 43  0  0  1  0  0  0  0  0999 V2000
  187.8490  178.0700  142.6560 C   0  0  0  0  0  0  0  0  0  0  0  0
  185.9640  177.9720  144.7790 C   0  0  0  0  0  3  0  0  0  0  0  0
  190.8440  177.5440  144.8510 C   0  0  0  0  0  2  0  0  0  0  0  0
  187.3160  177.7870  145.0830 C   0  0  0  0  0  0  0  0  0  0  0  0
  188.2610  177.8780  143.9830 C   0  0  0  0  0  0  0  0  0  0  0  0
  185.5470  178.2500  143.4760 C   0  0  0  0  0  0  0  0  0  0  0  0
  189.5210  177.7080  144.4570 C   0  0  0  0  0  0  0  0  0  0  0  0
  189.0440  177.3050  146.8860 N   0  0  0  0  0  0  0  0  0  0  0  0
  186.4830  178.2510  142.4130 C   0  0  0  0  0  3  0  0  0  0  0  0
  187.7220  177.4900  146.4720 C   0  0  0  0  0  3  0  0  0  0  0  0
  189.8610  177.4470  145.8290 C   0  0  0  0  0  0  0  0  0  0  0  0
  182.8480  178.2110  140.9580 C   0  0  0  0  0  0  0  0  0  0  0  0
  183.0950  177.1280  139.9990 C   0  0  0  0  0  3  0  0  0  0  0  0
  180.2490  177.6670  137.6700 O   0  0  0  0  0  1  0  0  0  0  0  0
  181.8620  179.2950  140.6480 C   0  0  2  0  0  3  0  0  0  0  0  0
  184.1080  178.3760  143.2460 C   0  0  0  0  0  3  0  0  0  0  0  0
  183.5210  178.2670  142.0810 C   0  0  0  0  0  0  0  0  0  0  0  0
  181.1040  179.6100  141.7610 F   0  0  0  0  0  0  0  0  0  0  0  0
  181.1470  177.8860  138.7060 C   0  0  0  0  0  0  0  0  0  0  0  0
  182.3130  176.9650  138.9240 C   0  0  0  0  0  0  0  0  0  0  0  0
  180.9350  178.9320  139.5130 C   0  0  0  0  0  3  0  0  0  0  0  0
  182.6110  175.9000  138.0580 O   0  0  0  0  0  0  0  0  0  0  0  0
  183.9270  175.5450  137.6530 C   0  0  0  0  0  1  0  0  0  0  0  0
  188.3770  177.8700  140.1760 C   0  0  0  0  0  0  0  0  0  0  0  0
  189.3010  177.5590  139.1700 C   0  0  0  0  0  3  0  0  0  0  0  0
  188.7740  177.8130  141.5260 C   0  0  0  0  0  0  0  0  0  0  0  0
  191.0030  177.1270  140.8290 C   0  0  0  0  0  3  0  0  0  0  0  0
  190.0900  177.4500  141.8350 C   0  0  0  0  0  3  0  0  0  0  0  0
  190.6200  177.1870  139.4920 C   0  0  0  0  0  0  0  0  0  0  0  0
  186.9920  178.2810  139.7950 C   0  0  0  0  0  1  0  0  0  0  0  0
  191.5390  176.7210  138.4980 N   0  0  0  0  0  2  0  0  0  0  0  0
  190.5970  174.6310  137.9690 O   0  0  0  0  0  0  0  0  0  0  0  0
  191.5840  175.4130  137.8980 C   0  0  0  0  0  0  0  0  0  0  0  0
  193.9070  172.9050  136.5400 C   0  0  0  0  0  2  0  0  0  0  0  0
  194.8720  173.8780  137.2020 C   0  0  0  0  0  2  0  0  0  0  0  0
  192.5780  173.6290  136.4210 C   0  0  0  0  0  2  0  0  0  0  0  0
  192.7670  174.9980  137.0720 C   0  0  0  0  0  3  0  0  0  0  0  0
  193.9970  174.8740  137.9350 C   0  0  0  0  0  2  0  0  0  0  0  0
  1  5  1  0  0  0  0
  2  4  1  0  0  0  0
  3 11  1  0  0  0  0
  4 10  1  0  0  0  0
  5  7  1  0  0  0  0
  5  4  2  0  0  0  0
  6  2  2  0  0  0  0
  7  3  1  0  0  0  0
  7 11  2  0  0  0  0
  9  1  2  0  0  0  0
  9  6  1  0  0  0  0
 10  8  2  0  0  0  0
 11  8  1  0  0  0  0
 12 17  2  0  0  0  0
 13 12  1  0  0  0  0
 14 19  1  0  0  0  0
 15 12  1  0  0  0  0
 15 18  1  1  0  0  0
 16  6  1  0  0  0  0
 17 16  2  0  0  0  0
 19 20  1  0  0  0  0
 19 21  2  0  0  0  0
 20 13  2  0  0  0  0
 21 15  1  0  0  0  0
 22 20  1  0  0  0  0
 23 22  1  0  0  0  0
 24 26  1  0  0  0  0
 25 29  1  0  0  0  0
 25 24  2  0  0  0  0
 26 28  2  0  0  0  0
 26  1  1  0  0  0  0
 27 28  1  0  0  0  0
 29 27  2  0  0  0  0
 30 24  1  0  0  0  0
 31 29  1  0  0  0  0
 33 32  2  0  0  0  0
 33 31  1  0  0  0  0
 34 35  1  0  0  0  0
 35 38  1  0  0  0  0
 36 34  1  0  0  0  0
 36 37  1  0  0  0  0
 37 33  1  0  0  0  0
 37 38  1  0  0  0  0
M  END
>  <MODEL>
6

>  <REMARK>
 VINA RESULT:      -9.4      1.549      2.002
  Name = 
  5 active torsions:
  status: ('A' for Active; 'I' for Inactive)
    1  A    between atoms: N_2  and  C_35
    2  A    between atoms: C_3  and  C_14
    3  A    between atoms: O_12  and  C_30
    4  A    between atoms: C_17  and  C_23
    5  A    between atoms: C_19  and  C_25
                            x       y       z     vdW  Elec       q    Type
                         _______ _______ _______ _____ _____    ______ ____

>  <TORSDO>
F 5

$$$$
=
 OpenBabel10222419003D

 38 43  0  0  1  0  0  0  0  0999 V2000
  188.4200  176.6250  137.9420 C   0  0  0  0  0  0  0  0  0  0  0  0
  190.1170  177.6010  140.0000 C   0  0  0  0  0  3  0  0  0  0  0  0
  191.2170  175.3990  135.7650 C   0  0  0  0  0  2  0  0  0  0  0  0
  190.7040  176.9790  138.8960 C   0  0  0  0  0  0  0  0  0  0  0  0
  189.8150  176.5210  137.8420 C   0  0  0  0  0  0  0  0  0  0  0  0
  188.7360  177.7890  140.0750 C   0  0  0  0  0  0  0  0  0  0  0  0
  190.5490  175.9760  136.8390 C   0  0  0  0  0  0  0  0  0  0  0  0
  192.8590  176.2000  137.7890 N   0  0  0  0  0  0  0  0  0  0  0  0
  187.8900  177.2590  139.0700 C   0  0  0  0  0  3  0  0  0  0  0  0
  192.1690  176.7930  138.8510 C   0  0  0  0  0  3  0  0  0  0  0  0
  191.9800  175.8450  136.8370 C   0  0  0  0  0  0  0  0  0  0  0  0
  188.7220  177.7100  143.7650 C   0  0  0  0  0  0  0  0  0  0  0  0
  190.0870  177.4760  144.2510 C   0  0  0  0  0  3  0  0  0  0  0  0
  189.4540  177.3200  147.9100 O   0  0  0  0  0  1  0  0  0  0  0  0
  187.5480  177.5370  144.6790 C   0  0  2  0  0  3  0  0  0  0  0  0
  188.2090  178.4020  141.2940 C   0  0  0  0  0  3  0  0  0  0  0  0
  188.5110  178.0310  142.5130 C   0  0  0  0  0  0  0  0  0  0  0  0
  186.6180  178.5430  144.4890 F   0  0  0  0  0  0  0  0  0  0  0  0
  189.2090  177.3740  146.5440 C   0  0  0  0  0  0  0  0  0  0  0  0
  190.3360  177.3040  145.5550 C   0  0  0  0  0  0  0  0  0  0  0  0
  187.9420  177.5060  146.1350 C   0  0  0  0  0  3  0  0  0  0  0  0
  191.6720  177.0940  145.9390 O   0  0  0  0  0  0  0  0  0  0  0  0
  192.1410  175.9160  146.5820 C   0  0  0  0  0  1  0  0  0  0  0  0
  186.8160  176.4360  135.9770 C   0  0  0  0  0  0  0  0  0  0  0  0
  185.9550  175.6420  135.2070 C   0  0  0  0  0  3  0  0  0  0  0  0
  187.5320  175.8520  137.0410 C   0  0  0  0  0  0  0  0  0  0  0  0
  186.5000  173.7050  136.5410 C   0  0  0  0  0  3  0  0  0  0  0  0
  187.3710  174.4870  137.3030 C   0  0  0  0  0  3  0  0  0  0  0  0
  185.7940  174.2720  135.4850 C   0  0  0  0  0  0  0  0  0  0  0  0
  186.9770  177.8810  135.6390 C   0  0  0  0  0  1  0  0  0  0  0  0
  184.8130  173.4740  134.8140 N   0  0  0  0  0  2  0  0  0  0  0  0
  182.9650  173.7480  136.2440 O   0  0  0  0  0  0  0  0  0  0  0  0
  183.5040  173.1170  135.2940 C   0  0  0  0  0  0  0  0  0  0  0  0
  180.8180  170.6060  135.1500 C   0  0  0  0  0  2  0  0  0  0  0  0
  182.0280  169.7730  134.7510 C   0  0  0  0  0  2  0  0  0  0  0  0
  181.2320  172.0600  135.0130 C   0  0  0  0  0  2  0  0  0  0  0  0
  182.7020  172.0590  134.5940 C   0  0  0  0  0  3  0  0  0  0  0  0
  183.2230  170.6870  134.9360 C   0  0  0  0  0  2  0  0  0  0  0  0
  1  9  1  0  0  0  0
  2  6  1  0  0  0  0
  3 11  1  0  0  0  0
  3  7  1  0  0  0  0
  4  2  2  0  0  0  0
  5  1  2  0  0  0  0
  5  4  1  0  0  0  0
  6 16  1  0  0  0  0
  7  5  1  0  0  0  0
  8 10  2  0  0  0  0
  9  6  2  0  0  0  0
 10  4  1  0  0  0  0
 11  7  2  0  0  0  0
 11  8  1  0  0  0  0
 12 13  1  0  0  0  0
 12 15  1  0  0  0  0
 13 20  2  0  0  0  0
 15 18  1  1  0  0  0
 15 21  1  0  0  0  0
 16 17  2  0  0  0  0
 17 12  2  0  0  0  0
 19 14  1  0  0  0  0
 20 22  1  0  0  0  0
 20 19  1  0  0  0  0
 21 19  2  0  0  0  0
 22 23  1  0  0  0  0
 24 26  1  0  0  0  0
 25 29  1  0  0  0  0
 25 24  2  0  0  0  0
 26 28  2  0  0  0  0
 26  1  1  0  0  0  0
 27 28  1  0  0  0  0
 29 27  2  0  0  0  0
 30 24  1  0  0  0  0
 31 33  1  0  0  0  0
 31 29  1  0  0  0  0
 33 32  2  0  0  0  0
 35 38  1  0  0  0  0
 35 34  1  0  0  0  0
 36 34  1  0  0  0  0
 37 38  1  0  0  0  0
 37 36  1  0  0  0  0
 37 33  1  0  0  0  0
M  END
>  <MODEL>
7

>  <REMARK>
 VINA RESULT:      -9.4      4.457      9.239
  Name = 
  5 active torsions:
  status: ('A' for Active; 'I' for Inactive)
    1  A    between atoms: N_2  and  C_35
    2  A    between atoms: C_3  and  C_14
    3  A    between atoms: O_12  and  C_30
    4  A    between atoms: C_17  and  C_23
    5  A    between atoms: C_19  and  C_25
                            x       y       z     vdW  Elec       q    Type
                         _______ _______ _______ _____ _____    ______ ____

>  <TORSDO>
F 5

$$$$
=
 OpenBabel10222419003D

 38 43  0  0  1  0  0  0  0  0999 V2000
  186.8470  177.1760  138.0580 C   0  0  0  0  0  0  0  0  0  0  0  0
  184.3070  178.2600  138.7230 C   0  0  0  0  0  3  0  0  0  0  0  0
  185.7130  175.6360  134.8330 C   0  0  0  0  0  2  0  0  0  0  0  0
  184.4380  177.5680  137.5170 C   0  0  0  0  0  0  0  0  0  0  0  0
  185.7390  176.9940  137.2190 C   0  0  0  0  0  0  0  0  0  0  0  0
  185.3800  178.3770  139.6100 C   0  0  0  0  0  0  0  0  0  0  0  0
  185.6790  176.3340  136.0350 C   0  0  0  0  0  0  0  0  0  0  0  0
  183.3010  176.7860  135.3790 N   0  0  0  0  0  0  0  0  0  0  0  0
  186.6560  177.8770  139.2540 C   0  0  0  0  0  3  0  0  0  0  0  0
  183.2840  177.4670  136.5990 C   0  0  0  0  0  3  0  0  0  0  0  0
  184.5170  176.2450  135.1930 C   0  0  0  0  0  0  0  0  0  0  0  0
  185.6950  178.4620  143.2870 C   0  0  0  0  0  0  0  0  0  0  0  0
  186.9810  177.8720  143.6770 C   0  0  0  0  0  3  0  0  0  0  0  0
  186.6790  178.0560  147.3770 O   0  0  0  0  0  1  0  0  0  0  0  0
  184.6110  178.6680  144.3000 C   0  0  2  0  0  3  0  0  0  0  0  0
  185.1620  179.1650  140.8230 C   0  0  0  0  0  3  0  0  0  0  0  0
  185.4630  178.7760  142.0360 C   0  0  0  0  0  0  0  0  0  0  0  0
  183.9850  179.8870  144.1160 F   0  0  0  0  0  0  0  0  0  0  0  0
  186.3310  178.1200  146.0340 C   0  0  0  0  0  0  0  0  0  0  0  0
  187.2950  177.6910  144.9660 C   0  0  0  0  0  0  0  0  0  0  0  0
  185.1180  178.5880  145.7190 C   0  0  0  0  0  3  0  0  0  0  0  0
  188.5490  177.1270  145.2570 O   0  0  0  0  0  0  0  0  0  0  0  0
  189.7570  177.8710  145.3420 C   0  0  0  0  0  1  0  0  0  0  0  0
  189.0430  177.8630  136.9710 C   0  0  0  0  0  0  0  0  0  0  0  0
  190.3090  177.4960  136.4970 C   0  0  0  0  0  3  0  0  0  0  0  0
  188.2220  176.8920  137.5790 C   0  0  0  0  0  0  0  0  0  0  0  0
  189.9500  175.2180  137.2130 C   0  0  0  0  0  3  0  0  0  0  0  0
  188.6930  175.5800  137.7020 C   0  0  0  0  0  3  0  0  0  0  0  0
  190.7700  176.1720  136.6170 C   0  0  0  0  0  0  0  0  0  0  0  0
  188.5970  179.2820  136.8450 C   0  0  0  0  0  1  0  0  0  0  0  0
  191.9910  175.7370  136.0100 N   0  0  0  0  0  2  0  0  0  0  0  0
  193.5690  176.5540  137.5520 O   0  0  0  0  0  0  0  0  0  0  0  0
  193.3320  176.0760  136.4090 C   0  0  0  0  0  0  0  0  0  0  0  0
  196.9090  175.5030  135.7700 C   0  0  0  0  0  2  0  0  0  0  0  0
  196.5980  176.6000  134.7620 C   0  0  0  0  0  2  0  0  0  0  0  0
  195.5740  174.9380  136.2190 C   0  0  0  0  0  2  0  0  0  0  0  0
  194.4930  175.7570  135.5130 C   0  0  0  0  0  3  0  0  0  0  0  0
  195.1730  177.0230  135.0570 C   0  0  0  0  0  2  0  0  0  0  0  0
  1  9  1  0  0  0  0
  2  6  1  0  0  0  0
  3 11  1  0  0  0  0
  3  7  1  0  0  0  0
  4  2  2  0  0  0  0
  5  4  1  0  0  0  0
  5  1  2  0  0  0  0
  6 16  1  0  0  0  0
  7  5  1  0  0  0  0
  8 10  2  0  0  0  0
  9  6  2  0  0  0  0
 10  4  1  0  0  0  0
 11  8  1  0  0  0  0
 11  7  2  0  0  0  0
 12 13  1  0  0  0  0
 12 15  1  0  0  0  0
 13 20  2  0  0  0  0
 15 18  1  6  0  0  0
 15 21  1  0  0  0  0
 16 17  2  0  0  0  0
 17 12  2  0  0  0  0
 19 14  1  0  0  0  0
 20 22  1  0  0  0  0
 20 19  1  0  0  0  0
 21 19  2  0  0  0  0
 22 23  1  0  0  0  0
 24 26  1  0  0  0  0
 25 29  1  0  0  0  0
 25 24  2  0  0  0  0
 26 28  2  0  0  0  0
 26  1  1  0  0  0  0
 27 28  1  0  0  0  0
 29 27  2  0  0  0  0
 30 24  1  0  0  0  0
 31 33  1  0  0  0  0
 31 29  1  0  0  0  0
 33 32  2  0  0  0  0
 34 36  1  0  0  0  0
 35 38  1  0  0  0  0
 35 34  1  0  0  0  0
 37 36  1  0  0  0  0
 37 33  1  0  0  0  0
 38 37  1  0  0  0  0
M  END
>  <MODEL>
8

>  <REMARK>
 VINA RESULT:      -9.0      4.012      7.176
  Name = 
  5 active torsions:
  status: ('A' for Active; 'I' for Inactive)
    1  A    between atoms: N_2  and  C_35
    2  A    between atoms: C_3  and  C_14
    3  A    between atoms: O_12  and  C_30
    4  A    between atoms: C_17  and  C_23
    5  A    between atoms: C_19  and  C_25
                            x       y       z     vdW  Elec       q    Type
                         _______ _______ _______ _____ _____    ______ ____

>  <TORSDO>
F 5

$$$$
=
 OpenBabel10222419003D

 38 43  0  0  1  0  0  0  0  0999 V2000
  185.1540  178.5410  141.7990 C   0  0  0  0  0  0  0  0  0  0  0  0
  183.1950  178.4970  139.7430 C   0  0  0  0  0  3  0  0  0  0  0  0
  182.6910  179.0030  144.5890 C   0  0  0  0  0  2  0  0  0  0  0  0
  182.7650  178.6270  141.0660 C   0  0  0  0  0  0  0  0  0  0  0  0
  183.7900  178.6820  142.0940 C   0  0  0  0  0  0  0  0  0  0  0  0
  184.5540  178.4420  139.4260 C   0  0  0  0  0  0  0  0  0  0  0  0
  183.2030  178.8410  143.3070 C   0  0  0  0  0  0  0  0  0  0  0  0
  180.7830  178.8220  142.6490 N   0  0  0  0  0  0  0  0  0  0  0  0
  185.5250  178.4160  140.4560 C   0  0  0  0  0  3  0  0  0  0  0  0
  181.3200  178.6770  141.3660 C   0  0  0  0  0  3  0  0  0  0  0  0
  181.7860  178.9120  143.5380 C   0  0  0  0  0  0  0  0  0  0  0  0
  187.2100  177.4710  137.0530 C   0  0  0  0  0  0  0  0  0  0  0  0
  187.9330  176.3090  137.5830 C   0  0  0  0  0  3  0  0  0  0  0  0
  190.5210  175.9010  134.9460 O   0  0  0  0  0  1  0  0  0  0  0  0
  187.7840  178.2810  135.9320 C   0  0  2  0  0  3  0  0  0  0  0  0
  184.9060  178.2520  138.0190 C   0  0  0  0  0  3  0  0  0  0  0  0
  186.0700  177.8400  137.5840 C   0  0  0  0  0  0  0  0  0  0  0  0
  186.8060  178.6290  135.0180 F   0  0  0  0  0  0  0  0  0  0  0  0
  189.4800  176.4570  135.6790 C   0  0  0  0  0  0  0  0  0  0  0  0
  189.0130  175.8230  136.9580 C   0  0  0  0  0  0  0  0  0  0  0  0
  188.8970  177.5640  135.2060 C   0  0  0  0  0  3  0  0  0  0  0  0
  189.6440  174.7040  137.5250 O   0  0  0  0  0  0  0  0  0  0  0  0
  189.5190  173.3790  137.0250 C   0  0  0  0  0  1  0  0  0  0  0  0
  187.4820  177.9130  142.6100 C   0  0  0  0  0  0  0  0  0  0  0  0
  188.3330  177.6010  143.6780 C   0  0  0  0  0  3  0  0  0  0  0  0
  186.1390  178.2510  142.8690 C   0  0  0  0  0  0  0  0  0  0  0  0
  186.5340  177.9460  145.2510 C   0  0  0  0  0  3  0  0  0  0  0  0
  185.6840  178.2730  144.1930 C   0  0  0  0  0  3  0  0  0  0  0  0
  187.8640  177.6170  145.0050 C   0  0  0  0  0  0  0  0  0  0  0  0
  188.0220  177.9060  141.2180 C   0  0  0  0  0  1  0  0  0  0  0  0
  188.6660  177.1590  146.0980 N   0  0  0  0  0  2  0  0  0  0  0  0
  190.7980  177.8860  145.4200 O   0  0  0  0  0  0  0  0  0  0  0  0
  190.1030  177.1680  146.1890 C   0  0  0  0  0  0  0  0  0  0  0  0
  192.6260  176.8390  148.8450 C   0  0  0  0  0  2  0  0  0  0  0  0
  192.9430  175.6280  147.9800 C   0  0  0  0  0  2  0  0  0  0  0  0
  191.2460  177.3150  148.4310 C   0  0  0  0  0  2  0  0  0  0  0  0
  190.7980  176.4110  147.2830 C   0  0  0  0  0  3  0  0  0  0  0  0
  192.0540  175.7620  146.7610 C   0  0  0  0  0  2  0  0  0  0  0  0
  1  5  1  0  0  0  0
  1 26  1  0  0  0  0
  2  4  1  0  0  0  0
  4 10  2  0  0  0  0
  4  5  1  0  0  0  0
  5  7  2  0  0  0  0
  6  2  2  0  0  0  0
  6  9  1  0  0  0  0
  7 11  1  0  0  0  0
  7  3  1  0  0  0  0
  8 11  2  0  0  0  0
  9  1  2  0  0  0  0
 10  8  1  0  0  0  0
 11  3  1  0  0  0  0
 12 13  1  0  0  0  0
 12 17  2  0  0  0  0
 14 19  1  0  0  0  0
 15 18  1  6  0  0  0
 15 12  1  0  0  0  0
 16  6  1  0  0  0  0
 17 16  2  0  0  0  0
 19 20  1  0  0  0  0
 20 22  1  0  0  0  0
 20 13  2  0  0  0  0
 21 19  2  0  0  0  0
 21 15  1  0  0  0  0
 23 22  1  0  0  0  0
 24 26  2  0  0  0  0
 24 25  1  0  0  0  0
 25 29  2  0  0  0  0
 26 28  1  0  0  0  0
 28 27  2  0  0  0  0
 29 27  1  0  0  0  0
 29 31  1  0  0  0  0
 30 24  1  0  0  0  0
 31 33  1  0  0  0  0
 32 33  2  0  0  0  0
 33 37  1  0  0  0  0
 35 34  1  0  0  0  0
 36 34  1  0  0  0  0
 37 36  1  0  0  0  0
 38 37  1  0  0  0  0
 38 35  1  0  0  0  0
M  END
>  <MODEL>
9

>  <REMARK>
 VINA RESULT:      -8.8      3.734      7.761
  Name = 
  5 active torsions:
  status: ('A' for Active; 'I' for Inactive)
    1  A    between atoms: N_2  and  C_35
    2  A    between atoms: C_3  and  C_14
    3  A    between atoms: O_12  and  C_30
    4  A    between atoms: C_17  and  C_23
    5  A    between atoms: C_19  and  C_25
                            x       y       z     vdW  Elec       q    Type
                         _______ _______ _______ _____ _____    ______ ____

>  <TORSDO>
F 5

$$$$
