=
 OpenBabel10222415323D

 54 61  0  0  1  0  0  0  0  0999 V2000
  190.1870  176.6320  134.8770 N   0  0  0  0  0  0  0  0  0  0  0  0
  190.1360  176.6750  137.2880 C   0  0  0  0  0  0  0  0  0  0  0  0
  184.7130  178.8370  141.4900 C   0  0  2  0  0  3  0  0  0  0  0  0
  188.8710  177.1330  134.8420 N   0  0  0  0  0  2  0  0  0  0  0  0
  190.5980  176.5180  143.5580 C   0  0  0  0  0  2  0  0  0  0  0  0
  185.3040  179.1460  140.0970 C   0  0  0  0  0  2  0  0  0  0  0  0
  190.7250  176.3590  138.5240 C   0  0  0  0  0  3  0  0  0  0  0  0
  190.0890  176.6840  139.7270 C   0  0  0  0  0  0  0  0  0  0  0  0
  190.3110  177.2130  142.2050 C   0  0  2  0  0  3  0  0  0  0  0  0
  186.8120  177.9820  138.4480 C   0  0  0  0  0  0  0  0  0  0  0  0
  188.1360  177.0080  144.2130 C   0  0  2  0  0  3  0  0  0  0  0  0
  189.6340  176.9760  144.6790 C   0  0  2  0  0  3  0  0  0  0  0  0
  185.5370  178.2180  144.1410 S   0  0  0  0  0  0  0  0  0  0  0  0
  188.8310  177.6000  142.1580 C   0  0  2  0  0  3  0  0  0  0  0  0
  190.8120  176.3820  135.9840 C   0  0  0  0  0  0  0  0  0  0  0  0
  184.7750  178.6270  137.0660 C   0  0  0  0  0  1  0  0  0  0  0  0
  188.1980  177.4650  136.0500 C   0  0  0  0  0  0  0  0  0  0  0  0
  188.8470  177.3320  139.7000 C   0  0  0  0  0  0  0  0  0  0  0  0
  188.0330  176.6680  142.8470 O   0  0  0  0  0  0  0  0  0  0  0  0
  186.8970  177.9650  136.0120 C   0  0  0  0  0  3  0  0  0  0  0  0
  190.7180  176.2870  141.0410 C   0  0  0  0  0  2  0  0  0  0  0  0
  185.8130  178.1980  142.3390 C   0  0  0  0  0  2  0  0  0  0  0  0
  186.0690  178.0270  139.6380 O   0  0  0  0  0  0  0  0  0  0  0  0
  187.3410  178.3010  144.5450 C   0  0  0  0  0  2  0  0  0  0  0  0
  192.1750  175.9390  135.8840 N   0  0  0  0  0  2  0  0  0  0  0  0
  188.1660  177.5300  138.4830 C   0  0  0  0  0  0  0  0  0  0  0  0
  188.3140  177.8550  140.8700 O   0  0  0  0  0  0  0  0  0  0  0  0
  186.2080  178.2340  137.1990 C   0  0  0  0  0  0  0  0  0  0  0  0
  188.8390  177.2360  137.2740 C   0  0  0  0  0  0  0  0  0  0  0  0
  193.7740  174.8220  137.2080 C   0  0  0  0  0  0  0  0  0  0  0  0
  194.7410  174.8420  138.3280 C   0  0  0  0  0  3  0  0  0  0  0  0
  193.0580  175.8790  136.9730 N   0  0  0  0  0  0  0  0  0  0  0  0
  195.7160  172.7180  137.5270 C   0  0  0  0  0  2  0  0  0  0  0  0
  195.6220  173.8490  138.5010 C   0  0  0  0  0  3  0  0  0  0  0  0
  193.7190  173.6200  136.2900 C   0  0  0  0  0  2  0  0  0  0  0  0
  194.3220  172.3840  136.9730 C   0  0  0  0  0  2  0  0  0  0  0  0
  190.1200  178.1850  145.4160 C   0  0  0  0  0  0  0  0  0  0  0  0
  190.8900  179.0230  144.8580 O   0  0  0  0  0  0  0  0  0  0  0  0
  189.6380  178.4170  146.7130 O   0  0  0  0  0  0  0  0  0  0  0  0
  190.5150  176.3690  147.3470 O   0  0  0  0  0  1  0  0  0  0  0  0
  189.6940  177.4260  147.7440 C   0  0  2  0  0  3  0  0  0  0  0  0
  187.3170  177.9720  148.0780 N   0  0  0  0  0  1  0  0  0  0  0  0
  188.3040  176.8960  148.0920 C   0  0  0  0  0  2  0  0  0  0  0  0
  183.5620  177.8510  141.3260 C   0  0  0  0  0  2  0  0  0  0  0  0
  181.3580  178.8180  140.4240 C   0  0  0  0  0  0  0  0  0  0  0  0
  178.9310  180.9470  142.0980 O   0  0  0  0  0  0  0  0  0  0  0  0
  181.6630  178.4100  139.2670 O   0  0  0  0  0  0  0  0  0  0  0  0
  179.8550  180.1010  141.9390 C   0  0  0  0  0  0  0  0  0  0  0  0
  179.3570  179.9990  139.4770 C   0  0  0  0  0  1  0  0  0  0  0  0
  180.5880  179.5710  143.1450 C   0  0  2  0  0  3  0  0  0  0  0  0
  180.1810  179.6220  140.6200 N   0  0  0  0  0  0  0  0  0  0  0  0
  182.2410  178.5140  141.5670 C   0  0  0  0  0  0  0  0  0  0  0  0
  181.8960  178.8990  142.8070 C   0  0  0  0  0  3  0  0  0  0  0  0
  179.6930  178.6130  143.9170 C   0  0  0  0  0  1  0  0  0  0  0  0
  1 15  2  0  0  0  0
  2  7  1  0  0  0  0
  3 44  1  6  0  0  0
  3 22  1  0  0  0  0
  4  1  1  0  0  0  0
  4 17  1  0  0  0  0
  5 12  1  0  0  0  0
  6  3  1  0  0  0  0
  7  8  2  0  0  0  0
  8 21  1  0  0  0  0
  9 21  1  6  0  0  0
  9  5  1  0  0  0  0
 10 26  1  0  0  0  0
 10 23  1  0  0  0  0
 11 24  1  6  0  0  0
 11 12  1  0  0  0  0
 12 37  1  6  0  0  0
 13 24  1  0  0  0  0
 14 27  1  6  0  0  0
 14  9  1  0  0  0  0
 14 19  1  0  0  0  0
 15  2  1  0  0  0  0
 16 28  1  0  0  0  0
 17 29  1  0  0  0  0
 18  8  1  0  0  0  0
 18 27  1  0  0  0  0
 19 11  1  0  0  0  0
 20 17  2  0  0  0  0
 20 28  1  0  0  0  0
 22 13  1  0  0  0  0
 23  6  1  0  0  0  0
 25 15  1  0  0  0  0
 25 32  1  0  0  0  0
 26 18  2  0  0  0  0
 28 10  2  0  0  0  0
 29  2  2  0  0  0  0
 29 26  1  0  0  0  0
 30 31  1  0  0  0  0
 31 34  2  0  0  0  0
 32 30  2  0  0  0  0
 33 34  1  0  0  0  0
 35 36  1  0  0  0  0
 35 30  1  0  0  0  0
 36 33  1  0  0  0  0
 37 39  1  0  0  0  0
 38 37  2  0  0  0  0
 39 41  1  0  0  0  0
 41 40  1  6  0  0  0
 41 43  1  0  0  0  0
 42 43  1  0  0  0  0
 44 52  1  0  0  0  0
 45 51  1  0  0  0  0
 45 52  1  0  0  0  0
 47 45  2  0  0  0  0
 48 46  2  0  0  0  0
 48 50  1  0  0  0  0
 49 51  1  0  0  0  0
 50 54  1  6  0  0  0
 51 48  1  0  0  0  0
 52 53  2  0  0  0  0
 53 50  1  0  0  0  0
M  END
>  <MODEL>
1

>  <REMARK>
 VINA RESULT:      -9.6      0.000      0.000
  Name = 
  7 active torsions:
  status: ('A' for Active; 'I' for Inactive)
    1  A    between atoms: C_4  and  C_45
    2  A    between atoms: C_10  and  C_15
    3  A    between atoms: N_11  and  N_46
    4  A    between atoms: C_14  and  C_23
    5  A    between atoms: C_14  and  O_42
    6  A    between atoms: C_15  and  O_42
    7  A    between atoms: C_45  and  C_47
                            x       y       z     vdW  Elec       q    Type
                         _______ _______ _______ _____ _____    ______ ____

>  <TORSDO>
F 7

$$$$
=
 OpenBabel10222415323D

 54 61  0  0  1  0  0  0  0  0999 V2000
  180.0460  179.5100  141.9630 N   0  0  0  0  0  0  0  0  0  0  0  0
  181.9680  178.9290  140.6260 C   0  0  0  0  0  0  0  0  0  0  0  0
  188.6810  177.7640  142.9330 C   0  0  2  0  0  3  0  0  0  0  0  0
  180.8420  179.4690  143.1240 N   0  0  0  0  0  2  0  0  0  0  0  0
  186.5780  177.4030  136.6300 C   0  0  0  0  0  2  0  0  0  0  0  0
  187.4470  178.6100  143.3160 C   0  0  0  0  0  2  0  0  0  0  0  0
  182.5260  178.5620  139.3900 C   0  0  0  0  0  3  0  0  0  0  0  0
  183.8960  178.3120  139.2650 C   0  0  0  0  0  0  0  0  0  0  0  0
  185.9460  178.2520  137.7600 C   0  0  2  0  0  3  0  0  0  0  0  0
  184.9710  178.5510  142.8500 C   0  0  0  0  0  0  0  0  0  0  0  0
  188.4440  176.7480  138.3080 C   0  0  2  0  0  3  0  0  0  0  0  0
  188.0940  177.1690  136.8380 C   0  0  2  0  0  3  0  0  0  0  0  0
  190.1060  176.8640  140.6420 S   0  0  0  0  0  0  0  0  0  0  0  0
  186.7620  178.0490  139.0380 C   0  0  2  0  0  3  0  0  0  0  0  0
  180.5130  179.2470  140.7830 C   0  0  0  0  0  0  0  0  0  0  0  0
  185.1140  178.7020  145.3860 C   0  0  0  0  0  1  0  0  0  0  0  0
  182.2380  179.2100  143.0270 C   0  0  0  0  0  0  0  0  0  0  0  0
  184.7260  178.4290  140.3890 C   0  0  0  0  0  0  0  0  0  0  0  0
  187.2850  176.7460  139.1140 O   0  0  0  0  0  0  0  0  0  0  0  0
  183.0240  179.1740  144.1780 C   0  0  0  0  0  3  0  0  0  0  0  0
  184.4630  177.8690  137.9380 C   0  0  0  0  0  2  0  0  0  0  0  0
  188.5630  177.3980  141.4530 C   0  0  0  0  0  2  0  0  0  0  0  0
  186.2650  178.0150  142.7680 O   0  0  0  0  0  0  0  0  0  0  0  0
  189.6120  177.5180  138.9840 C   0  0  0  0  0  2  0  0  0  0  0  0
  179.6130  179.3920  139.6720 N   0  0  0  0  0  2  0  0  0  0  0  0
  184.1770  178.6510  141.6670 C   0  0  0  0  0  0  0  0  0  0  0  0
  186.1050  178.4020  140.2360 O   0  0  0  0  0  0  0  0  0  0  0  0
  184.3840  178.8580  144.0940 C   0  0  0  0  0  0  0  0  0  0  0  0
  182.7970  178.9430  141.7710 C   0  0  0  0  0  0  0  0  0  0  0  0
  180.0360  180.4940  137.6310 C   0  0  0  0  0  0  0  0  0  0  0  0
  180.5480  180.4560  136.2430 C   0  0  0  0  0  3  0  0  0  0  0  0
  180.0240  179.4010  138.3310 N   0  0  0  0  0  0  0  0  0  0  0  0
  180.5270  182.9250  136.1650 C   0  0  0  0  0  2  0  0  0  0  0  0
  180.7440  181.5810  135.5450 C   0  0  0  0  0  3  0  0  0  0  0  0
  179.6460  181.8200  138.2470 C   0  0  0  0  0  2  0  0  0  0  0  0
  179.3550  182.8630  137.1580 C   0  0  0  0  0  2  0  0  0  0  0  0
  188.9430  178.2480  136.2410 C   0  0  0  0  0  0  0  0  0  0  0  0
  189.1220  179.3470  136.8460 O   0  0  0  0  0  0  0  0  0  0  0  0
  189.6090  177.9840  135.0350 O   0  0  0  0  0  0  0  0  0  0  0  0
  189.2820  175.7290  134.6190 O   0  0  0  0  0  1  0  0  0  0  0  0
  190.2440  176.7300  134.7640 C   0  0  2  0  0  3  0  0  0  0  0  0
  190.9880  174.9770  136.3220 N   0  0  0  0  0  1  0  0  0  0  0  0
  191.2250  176.3450  135.8710 C   0  0  0  0  0  2  0  0  0  0  0  0
  188.6820  176.4920  143.7710 C   0  0  0  0  0  2  0  0  0  0  0  0
  188.7650  177.0630  146.2760 C   0  0  0  0  0  0  0  0  0  0  0  0
  191.6410  177.8610  148.3530 O   0  0  0  0  0  0  0  0  0  0  0  0
  187.5020  177.1210  146.2960 O   0  0  0  0  0  0  0  0  0  0  0  0
  190.9620  177.3810  147.4030 C   0  0  0  0  0  0  0  0  0  0  0  0
  188.8370  177.8990  148.6410 C   0  0  0  0  0  1  0  0  0  0  0  0
  191.6720  176.7260  146.2450 C   0  0  2  0  0  3  0  0  0  0  0  0
  189.5230  177.4270  147.4430 N   0  0  0  0  0  0  0  0  0  0  0  0
  189.4640  176.6740  145.0350 C   0  0  0  0  0  0  0  0  0  0  0  0
  190.8020  176.5610  145.0230 C   0  0  0  0  0  3  0  0  0  0  0  0
  192.2310  175.3770  146.6740 C   0  0  0  0  0  1  0  0  0  0  0  0
  1  4  1  0  0  0  0
  2 15  1  0  0  0  0
  2 29  1  0  0  0  0
  3  6  1  0  0  0  0
  3 44  1  1  0  0  0
  5 12  1  0  0  0  0
  7  2  2  0  0  0  0
  8  7  1  0  0  0  0
  8 18  2  0  0  0  0
  9  5  1  6  0  0  0
  9 21  1  0  0  0  0
  9 14  1  0  0  0  0
 10 28  1  0  0  0  0
 11 24  1  1  0  0  0
 11 19  1  0  0  0  0
 12 37  1  1  0  0  0
 12 11  1  0  0  0  0
 13 22  1  0  0  0  0
 14 19  1  1  0  0  0
 14 27  1  0  0  0  0
 15  1  2  0  0  0  0
 17  4  1  0  0  0  0
 17 20  1  0  0  0  0
 18 26  1  0  0  0  0
 21  8  1  0  0  0  0
 22  3  1  0  0  0  0
 23 10  1  0  0  0  0
 23  6  1  0  0  0  0
 24 13  1  0  0  0  0
 25 15  1  0  0  0  0
 26 29  1  0  0  0  0
 26 10  2  0  0  0  0
 27 18  1  0  0  0  0
 28 20  2  0  0  0  0
 28 16  1  0  0  0  0
 29 17  2  0  0  0  0
 30 35  1  0  0  0  0
 30 32  2  0  0  0  0
 31 30  1  0  0  0  0
 32 25  1  0  0  0  0
 33 36  1  0  0  0  0
 34 33  1  0  0  0  0
 34 31  2  0  0  0  0
 36 35  1  0  0  0  0
 37 38  2  0  0  0  0
 39 37  1  0  0  0  0
 41 40  1  1  0  0  0
 41 39  1  0  0  0  0
 41 43  1  0  0  0  0
 43 42  1  0  0  0  0
 44 52  1  0  0  0  0
 45 47  2  0  0  0  0
 45 51  1  0  0  0  0
 48 51  1  0  0  0  0
 48 46  2  0  0  0  0
 50 54  1  1  0  0  0
 50 48  1  0  0  0  0
 51 49  1  0  0  0  0
 52 45  1  0  0  0  0
 53 52  2  0  0  0  0
 53 50  1  0  0  0  0
M  END
>  <MODEL>
2

>  <REMARK>
 VINA RESULT:      -9.5      2.657     10.398
  Name = 
  7 active torsions:
  status: ('A' for Active; 'I' for Inactive)
    1  A    between atoms: C_4  and  C_45
    2  A    between atoms: C_10  and  C_15
    3  A    between atoms: N_11  and  N_46
    4  A    between atoms: C_14  and  C_23
    5  A    between atoms: C_14  and  O_42
    6  A    between atoms: C_15  and  O_42
    7  A    between atoms: C_45  and  C_47
                            x       y       z     vdW  Elec       q    Type
                         _______ _______ _______ _____ _____    ______ ____

>  <TORSDO>
F 7

$$$$
=
 OpenBabel10222415323D

 54 61  0  0  1  0  0  0  0  0999 V2000
  190.5680  176.4830  134.7100 N   0  0  0  0  0  0  0  0  0  0  0  0
  190.3840  176.5720  137.1140 C   0  0  0  0  0  0  0  0  0  0  0  0
  184.6900  178.6860  140.9690 C   0  0  2  0  0  3  0  0  0  0  0  0
  189.2450  176.9520  134.5940 N   0  0  0  0  0  2  0  0  0  0  0  0
  190.5040  176.5470  143.4020 C   0  0  0  0  0  2  0  0  0  0  0  0
  185.3500  178.9820  139.6040 C   0  0  0  0  0  2  0  0  0  0  0  0
  190.9110  176.2940  138.3860 C   0  0  0  0  0  3  0  0  0  0  0  0
  190.2030  176.6270  139.5460 C   0  0  0  0  0  0  0  0  0  0  0  0
  190.2760  177.2090  142.0210 C   0  0  2  0  0  3  0  0  0  0  0  0
  186.9730  177.8210  138.0640 C   0  0  0  0  0  0  0  0  0  0  0  0
  188.0000  176.9920  143.9120 C   0  0  2  0  0  3  0  0  0  0  0  0
  189.4700  177.0040  144.4590 C   0  0  2  0  0  3  0  0  0  0  0  0
  185.3820  178.1380  143.6730 S   0  0  0  0  0  0  0  0  0  0  0  0
  188.7930  177.5590  141.8860 C   0  0  2  0  0  3  0  0  0  0  0  0
  191.1370  176.2690  135.8540 C   0  0  0  0  0  0  0  0  0  0  0  0
  185.0000  178.3910  136.5600 C   0  0  0  0  0  1  0  0  0  0  0  0
  188.4990  177.2910  135.7570 C   0  0  0  0  0  0  0  0  0  0  0  0
  188.9490  177.2450  139.4380 C   0  0  0  0  0  0  0  0  0  0  0  0
  187.9800  176.6230  142.5490 O   0  0  0  0  0  0  0  0  0  0  0  0
  187.1910  177.7590  135.6370 C   0  0  0  0  0  3  0  0  0  0  0  0
  190.7670  176.2710  140.9000 C   0  0  0  0  0  2  0  0  0  0  0  0
  185.7560  178.0890  141.8900 C   0  0  0  0  0  2  0  0  0  0  0  0
  186.1650  177.8720  139.2100 O   0  0  0  0  0  0  0  0  0  0  0  0
  187.1590  178.2720  144.1730 C   0  0  0  0  0  2  0  0  0  0  0  0
  192.5130  175.8570  135.8380 N   0  0  0  0  0  2  0  0  0  0  0  0
  188.3320  177.4020  138.1820 C   0  0  0  0  0  0  0  0  0  0  0  0
  188.3410  177.7770  140.5660 O   0  0  0  0  0  0  0  0  0  0  0  0
  186.4320  178.0350  136.7790 C   0  0  0  0  0  0  0  0  0  0  0  0
  189.0770  177.1010  137.0180 C   0  0  0  0  0  0  0  0  0  0  0  0
  194.0310  174.7900  137.2920 C   0  0  0  0  0  0  0  0  0  0  0  0
  194.9380  174.8530  138.4600 C   0  0  0  0  0  3  0  0  0  0  0  0
  193.3360  175.8390  136.9740 N   0  0  0  0  0  0  0  0  0  0  0  0
  195.9400  172.6930  137.8020 C   0  0  0  0  0  2  0  0  0  0  0  0
  195.8010  173.8640  138.7220 C   0  0  0  0  0  3  0  0  0  0  0  0
  194.0180  173.5510  136.4230 C   0  0  0  0  0  2  0  0  0  0  0  0
  194.5750  172.3420  137.1890 C   0  0  0  0  0  2  0  0  0  0  0  0
  189.8880  178.2390  145.1960 C   0  0  0  0  0  0  0  0  0  0  0  0
  190.5480  179.1520  144.6170 O   0  0  0  0  0  0  0  0  0  0  0  0
  189.4600  178.4030  146.5220 O   0  0  0  0  0  0  0  0  0  0  0  0
  189.1180  177.7880  148.7290 O   0  0  0  0  0  1  0  0  0  0  0  0
  189.3570  177.3090  147.4390 C   0  0  2  0  0  3  0  0  0  0  0  0
  191.7680  177.2100  147.9220 N   0  0  0  0  0  1  0  0  0  0  0  0
  190.6200  176.4500  147.4350 C   0  0  0  0  0  2  0  0  0  0  0  0
  183.5740  177.6700  140.7630 C   0  0  0  0  0  2  0  0  0  0  0  0
  182.3190  177.0810  138.5980 C   0  0  0  0  0  0  0  0  0  0  0  0
  180.7940  179.3000  136.1540 O   0  0  0  0  0  0  0  0  0  0  0  0
  182.6680  175.8730  138.7340 O   0  0  0  0  0  0  0  0  0  0  0  0
  181.2480  178.8840  137.2560 C   0  0  0  0  0  0  0  0  0  0  0  0
  181.3470  176.5420  136.3490 C   0  0  0  0  0  1  0  0  0  0  0  0
  181.3590  179.8400  138.4170 C   0  0  2  0  0  3  0  0  0  0  0  0
  181.6210  177.5020  137.4130 N   0  0  0  0  0  0  0  0  0  0  0  0
  182.6770  178.0710  139.6330 C   0  0  0  0  0  0  0  0  0  0  0  0
  182.2640  179.3440  139.5190 C   0  0  0  0  0  3  0  0  0  0  0  0
  179.9770  180.1450  138.9740 C   0  0  0  0  0  1  0  0  0  0  0  0
  1 15  2  0  0  0  0
  2  7  1  0  0  0  0
  3 44  1  6  0  0  0
  3 22  1  0  0  0  0
  4  1  1  0  0  0  0
  4 17  1  0  0  0  0
  5 12  1  0  0  0  0
  6  3  1  0  0  0  0
  7  8  2  0  0  0  0
  8 21  1  0  0  0  0
  9 21  1  6  0  0  0
  9  5  1  0  0  0  0
 10 26  1  0  0  0  0
 10 23  1  0  0  0  0
 11 24  1  6  0  0  0
 11 12  1  0  0  0  0
 12 37  1  6  0  0  0
 13 24  1  0  0  0  0
 14 27  1  6  0  0  0
 14  9  1  0  0  0  0
 14 19  1  0  0  0  0
 15  2  1  0  0  0  0
 16 28  1  0  0  0  0
 17 29  1  0  0  0  0
 18  8  1  0  0  0  0
 18 27  1  0  0  0  0
 19 11  1  0  0  0  0
 20 17  2  0  0  0  0
 20 28  1  0  0  0  0
 22 13  1  0  0  0  0
 23  6  1  0  0  0  0
 25 15  1  0  0  0  0
 25 32  1  0  0  0  0
 26 18  2  0  0  0  0
 28 10  2  0  0  0  0
 29  2  2  0  0  0  0
 29 26  1  0  0  0  0
 30 31  1  0  0  0  0
 31 34  2  0  0  0  0
 32 30  2  0  0  0  0
 33 34  1  0  0  0  0
 35 36  1  0  0  0  0
 35 30  1  0  0  0  0
 36 33  1  0  0  0  0
 37 39  1  0  0  0  0
 38 37  2  0  0  0  0
 39 41  1  0  0  0  0
 41 40  1  1  0  0  0
 43 41  1  0  0  0  0
 43 42  1  0  0  0  0
 45 47  2  0  0  0  0
 45 52  1  0  0  0  0
 46 48  2  0  0  0  0
 48 51  1  0  0  0  0
 48 50  1  0  0  0  0
 49 51  1  0  0  0  0
 50 54  1  1  0  0  0
 50 53  1  0  0  0  0
 51 45  1  0  0  0  0
 52 44  1  0  0  0  0
 53 52  2  0  0  0  0
M  END
>  <MODEL>
3

>  <REMARK>
 VINA RESULT:      -8.7      1.749      2.055
  Name = 
  7 active torsions:
  status: ('A' for Active; 'I' for Inactive)
    1  A    between atoms: C_4  and  C_45
    2  A    between atoms: C_10  and  C_15
    3  A    between atoms: N_11  and  N_46
    4  A    between atoms: C_14  and  C_23
    5  A    between atoms: C_14  and  O_42
    6  A    between atoms: C_15  and  O_42
    7  A    between atoms: C_45  and  C_47
                            x       y       z     vdW  Elec       q    Type
                         _______ _______ _______ _____ _____    ______ ____

>  <TORSDO>
F 7

$$$$
=
 OpenBabel10222415323D

 54 61  0  0  1  0  0  0  0  0999 V2000
  186.7150  178.2260  147.9570 N   0  0  0  0  0  0  0  0  0  0  0  0
  187.6790  177.9100  145.7680 C   0  0  0  0  0  0  0  0  0  0  0  0
  184.3820  178.6310  139.4150 C   0  0  2  0  0  3  0  0  0  0  0  0
  185.4800  178.5550  147.3640 N   0  0  0  0  0  2  0  0  0  0  0  0
  190.7580  176.9780  140.3650 C   0  0  0  0  0  2  0  0  0  0  0  0
  184.0420  178.2260  140.8670 C   0  0  0  0  0  2  0  0  0  0  0  0
  188.8000  177.6820  144.9530 C   0  0  0  0  0  3  0  0  0  0  0  0
  188.6750  177.6170  143.5610 C   0  0  0  0  0  0  0  0  0  0  0  0
  189.5930  176.7420  141.3560 C   0  0  2  0  0  3  0  0  0  0  0  0
  185.0670  178.5480  143.1460 C   0  0  0  0  0  0  0  0  0  0  0  0
  189.0020  177.8680  138.6750 C   0  0  2  0  0  3  0  0  0  0  0  0
  190.2900  176.9980  138.8890 C   0  0  2  0  0  3  0  0  0  0  0  0
  186.4410  178.3380  137.4750 S   0  0  0  0  0  0  0  0  0  0  0  0
  188.2990  177.2580  140.7220 C   0  0  2  0  0  3  0  0  0  0  0  0
  187.7710  177.9400  147.2630 C   0  0  0  0  0  0  0  0  0  0  0  0
  182.6640  179.3350  143.4380 C   0  0  0  0  0  1  0  0  0  0  0  0
  185.3280  178.5050  145.9510 C   0  0  0  0  0  0  0  0  0  0  0  0
  187.4150  177.7830  142.9710 C   0  0  0  0  0  0  0  0  0  0  0  0
  188.5370  178.3800  139.9060 O   0  0  0  0  0  0  0  0  0  0  0  0
  184.1030  178.8270  145.3680 C   0  0  0  0  0  3  0  0  0  0  0  0
  189.9030  177.4220  142.7040 C   0  0  0  0  0  2  0  0  0  0  0  0
  185.8840  178.4320  139.2090 C   0  0  0  0  0  2  0  0  0  0  0  0
  185.0160  178.7740  141.7620 O   0  0  0  0  0  0  0  0  0  0  0  0
  187.8570  177.2110  137.8560 C   0  0  0  0  0  2  0  0  0  0  0  0
  188.9500  177.5530  147.9880 N   0  0  0  0  0  2  0  0  0  0  0  0
  186.3020  178.1580  143.7480 C   0  0  0  0  0  0  0  0  0  0  0  0
  187.2410  177.5030  141.6220 O   0  0  0  0  0  0  0  0  0  0  0  0
  183.9650  178.8390  143.9760 C   0  0  0  0  0  0  0  0  0  0  0  0
  186.4330  178.1770  145.1560 C   0  0  0  0  0  0  0  0  0  0  0  0
  191.2220  176.9250  148.0010 C   0  0  0  0  0  0  0  0  0  0  0  0
  192.3580  176.2330  147.3530 C   0  0  0  0  0  3  0  0  0  0  0  0
  190.0770  176.9700  147.3910 N   0  0  0  0  0  0  0  0  0  0  0  0
  193.6480  176.3770  149.4540 C   0  0  0  0  0  2  0  0  0  0  0  0
  193.5010  176.0080  148.0120 C   0  0  0  0  0  3  0  0  0  0  0  0
  191.3800  177.4640  149.4060 C   0  0  0  0  0  2  0  0  0  0  0  0
  192.8630  177.6640  149.7500 C   0  0  0  0  0  2  0  0  0  0  0  0
  190.2810  175.6410  138.2570 C   0  0  0  0  0  0  0  0  0  0  0  0
  189.2680  175.2260  137.6200 O   0  0  0  0  0  0  0  0  0  0  0  0
  191.4520  174.8710  138.3100 O   0  0  0  0  0  0  0  0  0  0  0  0
  192.6390  173.5430  136.8290 O   0  0  0  0  0  1  0  0  0  0  0  0
  192.4130  174.8550  137.2500 C   0  0  2  0  0  3  0  0  0  0  0  0
  193.9670  176.7410  136.9550 N   0  0  0  0  0  1  0  0  0  0  0  0
  193.7340  175.4930  137.6770 C   0  0  0  0  0  2  0  0  0  0  0  0
  184.0350  180.1030  139.2240 C   0  0  0  0  0  2  0  0  0  0  0  0
  182.1690  181.6070  138.2960 C   0  0  0  0  0  0  0  0  0  0  0  0
  178.9330  180.6680  136.9280 O   0  0  0  0  0  0  0  0  0  0  0  0
  182.7920  182.6240  138.7150 O   0  0  0  0  0  0  0  0  0  0  0  0
  180.1450  180.5810  137.2700 C   0  0  0  0  0  0  0  0  0  0  0  0
  180.2290  183.0640  137.6550 C   0  0  0  0  0  1  0  0  0  0  0  0
  180.8490  179.2520  137.1650 C   0  0  2  0  0  3  0  0  0  0  0  0
  180.8570  181.7490  137.7220 N   0  0  0  0  0  0  0  0  0  0  0  0
  182.7650  180.2650  138.4480 C   0  0  0  0  0  0  0  0  0  0  0  0
  182.1310  179.1860  137.9590 C   0  0  0  0  0  3  0  0  0  0  0  0
  181.1220  178.9230  135.7050 C   0  0  0  0  0  1  0  0  0  0  0  0
  2 15  1  0  0  0  0
  3 44  1  1  0  0  0
  3  6  1  0  0  0  0
  4  1  1  0  0  0  0
  6 23  1  0  0  0  0
  7  2  2  0  0  0  0
  8  7  1  0  0  0  0
  9  5  1  6  0  0  0
  9 21  1  0  0  0  0
 10 26  2  0  0  0  0
 10 28  1  0  0  0  0
 11 24  1  1  0  0  0
 11 12  1  0  0  0  0
 11 19  1  0  0  0  0
 12 37  1  1  0  0  0
 12  5  1  0  0  0  0
 13 24  1  0  0  0  0
 13 22  1  0  0  0  0
 14 19  1  1  0  0  0
 14  9  1  0  0  0  0
 14 27  1  0  0  0  0
 15  1  2  0  0  0  0
 15 25  1  0  0  0  0
 16 28  1  0  0  0  0
 17  4  1  0  0  0  0
 18  8  2  0  0  0  0
 18 26  1  0  0  0  0
 20 17  1  0  0  0  0
 21  8  1  0  0  0  0
 22  3  1  0  0  0  0
 23 10  1  0  0  0  0
 26 29  1  0  0  0  0
 27 18  1  0  0  0  0
 28 20  2  0  0  0  0
 29  2  1  0  0  0  0
 29 17  2  0  0  0  0
 30 35  1  0  0  0  0
 31 30  1  0  0  0  0
 31 34  2  0  0  0  0
 32 25  1  0  0  0  0
 32 30  2  0  0  0  0
 33 36  1  0  0  0  0
 34 33  1  0  0  0  0
 35 36  1  0  0  0  0
 37 39  1  0  0  0  0
 38 37  2  0  0  0  0
 41 40  1  1  0  0  0
 41 43  1  0  0  0  0
 41 39  1  0  0  0  0
 42 43  1  0  0  0  0
 45 52  1  0  0  0  0
 45 47  2  0  0  0  0
 46 48  2  0  0  0  0
 48 51  1  0  0  0  0
 49 51  1  0  0  0  0
 50 54  1  6  0  0  0
 50 48  1  0  0  0  0
 50 53  1  0  0  0  0
 51 45  1  0  0  0  0
 52 44  1  0  0  0  0
 53 52  2  0  0  0  0
M  END
>  <MODEL>
4

>  <REMARK>
 VINA RESULT:      -8.4      2.761      8.007
  Name = 
  7 active torsions:
  status: ('A' for Active; 'I' for Inactive)
    1  A    between atoms: C_4  and  C_45
    2  A    between atoms: C_10  and  C_15
    3  A    between atoms: N_11  and  N_46
    4  A    between atoms: C_14  and  C_23
    5  A    between atoms: C_14  and  O_42
    6  A    between atoms: C_15  and  O_42
    7  A    between atoms: C_45  and  C_47
                            x       y       z     vdW  Elec       q    Type
                         _______ _______ _______ _____ _____    ______ ____

>  <TORSDO>
F 7

$$$$
=
 OpenBabel10222415323D

 54 61  0  0  1  0  0  0  0  0999 V2000
  186.0800  178.4810  147.0830 N   0  0  0  0  0  0  0  0  0  0  0  0
  186.4510  178.3470  144.7030 C   0  0  0  0  0  0  0  0  0  0  0  0
  181.5020  178.7250  139.4960 C   0  0  2  0  0  3  0  0  0  0  0  0
  184.6990  178.6450  146.8560 N   0  0  0  0  0  2  0  0  0  0  0  0
  188.0570  177.9630  138.6340 C   0  0  0  0  0  2  0  0  0  0  0  0
  181.6200  178.2470  140.9610 C   0  0  0  0  0  2  0  0  0  0  0  0
  187.3320  178.2940  143.6090 C   0  0  0  0  0  3  0  0  0  0  0  0
  186.8470  178.2400  142.2980 C   0  0  0  0  0  0  0  0  0  0  0  0
  187.2420  177.5460  139.8830 C   0  0  2  0  0  3  0  0  0  0  0  0
  183.1710  178.6650  142.9030 C   0  0  0  0  0  0  0  0  0  0  0  0
  185.8110  178.6310  137.5210 C   0  0  2  0  0  3  0  0  0  0  0  0
  187.2100  177.9460  137.3390 C   0  0  2  0  0  3  0  0  0  0  0  0
  182.9830  178.7620  137.0690 S   0  0  0  0  0  0  0  0  0  0  0  0
  185.7700  177.8890  139.6430 C   0  0  2  0  0  3  0  0  0  0  0  0
  186.9380  178.3600  146.1200 C   0  0  0  0  0  0  0  0  0  0  0  0
  180.8540  179.1000  143.8630 C   0  0  0  0  0  1  0  0  0  0  0  0
  184.1800  178.6020  145.5320 C   0  0  0  0  0  0  0  0  0  0  0  0
  185.4630  178.2400  142.0720 C   0  0  0  0  0  0  0  0  0  0  0  0
  185.6320  179.0480  138.8580 O   0  0  0  0  0  0  0  0  0  0  0  0
  182.8120  178.7610  145.3130 C   0  0  0  0  0  3  0  0  0  0  0  0
  187.8130  178.2360  141.1380 C   0  0  0  0  0  2  0  0  0  0  0  0
  182.9060  178.7420  138.8900 C   0  0  0  0  0  2  0  0  0  0  0  0
  182.7200  178.9080  141.5970 O   0  0  0  0  0  0  0  0  0  0  0  0
  184.5830  177.8370  136.9980 C   0  0  0  0  0  2  0  0  0  0  0  0
  188.3080  178.1280  146.4850 N   0  0  0  0  0  2  0  0  0  0  0  0
  184.5620  178.4390  143.1340 C   0  0  0  0  0  0  0  0  0  0  0  0
  184.9700  177.9650  140.8030 O   0  0  0  0  0  0  0  0  0  0  0  0
  182.3040  178.7820  144.0090 C   0  0  0  0  0  0  0  0  0  0  0  0
  185.0630  178.4490  144.4570 C   0  0  0  0  0  0  0  0  0  0  0  0
  190.3350  177.0410  145.9660 C   0  0  0  0  0  0  0  0  0  0  0  0
  191.3110  176.5760  144.9560 C   0  0  0  0  0  3  0  0  0  0  0  0
  189.2990  177.7200  145.5790 N   0  0  0  0  0  0  0  0  0  0  0  0
  192.4000  175.1550  146.6580 C   0  0  0  0  0  2  0  0  0  0  0  0
  192.2940  175.7280  145.2800 C   0  0  0  0  0  3  0  0  0  0  0  0
  190.4970  176.6190  147.4110 C   0  0  0  0  0  2  0  0  0  0  0  0
  191.9450  176.1940  147.6950 C   0  0  0  0  0  2  0  0  0  0  0  0
  187.2080  176.6140  136.6550 C   0  0  0  0  0  0  0  0  0  0  0  0
  187.7230  176.4700  135.5070 O   0  0  0  0  0  0  0  0  0  0  0  0
  186.6970  175.5070  137.3490 O   0  0  0  0  0  0  0  0  0  0  0  0
  184.9000  174.0520  137.2170 O   0  0  0  0  0  1  0  0  0  0  0  0
  186.1510  174.3650  136.6820 C   0  0  2  0  0  3  0  0  0  0  0  0
  188.1020  173.1850  135.7550 N   0  0  0  0  0  1  0  0  0  0  0  0
  187.0750  173.1530  136.7930 C   0  0  0  0  0  2  0  0  0  0  0  0
  180.9290  180.1370  139.4870 C   0  0  0  0  0  2  0  0  0  0  0  0
  181.0130  181.8450  137.5680 C   0  0  0  0  0  0  0  0  0  0  0  0
  178.9310  182.0610  134.5950 O   0  0  0  0  0  0  0  0  0  0  0  0
  181.8440  182.5330  138.2280 O   0  0  0  0  0  0  0  0  0  0  0  0
  179.5260  181.5640  135.5910 C   0  0  0  0  0  0  0  0  0  0  0  0
  180.8910  183.6590  135.8400 C   0  0  0  0  0  1  0  0  0  0  0  0
  179.2450  180.1350  135.9830 C   0  0  2  0  0  3  0  0  0  0  0  0
  180.4900  182.3430  136.3240 N   0  0  0  0  0  0  0  0  0  0  0  0
  180.5370  180.5540  138.1030 C   0  0  0  0  0  0  0  0  0  0  0  0
  179.6940  179.7960  137.3830 C   0  0  0  0  0  3  0  0  0  0  0  0
  179.8900  179.1860  134.9840 C   0  0  0  0  0  1  0  0  0  0  0  0
  2 15  1  0  0  0  0
  3 44  1  1  0  0  0
  3  6  1  0  0  0  0
  4  1  1  0  0  0  0
  6 23  1  0  0  0  0
  7  2  2  0  0  0  0
  8  7  1  0  0  0  0
  9  5  1  6  0  0  0
  9 21  1  0  0  0  0
 10 26  2  0  0  0  0
 10 28  1  0  0  0  0
 11 24  1  1  0  0  0
 11 19  1  0  0  0  0
 12 37  1  1  0  0  0
 12 11  1  0  0  0  0
 12  5  1  0  0  0  0
 13 22  1  0  0  0  0
 14 19  1  1  0  0  0
 14  9  1  0  0  0  0
 14 27  1  0  0  0  0
 15 25  1  0  0  0  0
 15  1  2  0  0  0  0
 16 28  1  0  0  0  0
 17  4  1  0  0  0  0
 18  8  2  0  0  0  0
 18 26  1  0  0  0  0
 20 17  1  0  0  0  0
 21  8  1  0  0  0  0
 22  3  1  0  0  0  0
 23 10  1  0  0  0  0
 24 13  1  0  0  0  0
 26 29  1  0  0  0  0
 27 18  1  0  0  0  0
 28 20  2  0  0  0  0
 29  2  1  0  0  0  0
 29 17  2  0  0  0  0
 30 35  1  0  0  0  0
 31 34  2  0  0  0  0
 31 30  1  0  0  0  0
 32 30  2  0  0  0  0
 32 25  1  0  0  0  0
 33 36  1  0  0  0  0
 34 33  1  0  0  0  0
 35 36  1  0  0  0  0
 37 39  1  0  0  0  0
 38 37  2  0  0  0  0
 41 43  1  0  0  0  0
 41 40  1  1  0  0  0
 41 39  1  0  0  0  0
 42 43  1  0  0  0  0
 45 52  1  0  0  0  0
 45 47  2  0  0  0  0
 46 48  2  0  0  0  0
 48 50  1  0  0  0  0
 48 51  1  0  0  0  0
 49 51  1  0  0  0  0
 50 54  1  6  0  0  0
 50 53  1  0  0  0  0
 51 45  1  0  0  0  0
 52 44  1  0  0  0  0
 53 52  2  0  0  0  0
M  END
>  <MODEL>
5

>  <REMARK>
 VINA RESULT:      -8.3      3.989      8.164
  Name = 
  7 active torsions:
  status: ('A' for Active; 'I' for Inactive)
    1  A    between atoms: C_4  and  C_45
    2  A    between atoms: C_10  and  C_15
    3  A    between atoms: N_11  and  N_46
    4  A    between atoms: C_14  and  C_23
    5  A    between atoms: C_14  and  O_42
    6  A    between atoms: C_15  and  O_42
    7  A    between atoms: C_45  and  C_47
                            x       y       z     vdW  Elec       q    Type
                         _______ _______ _______ _____ _____    ______ ____

>  <TORSDO>
F 7

$$$$
=
 OpenBabel10222415323D

 54 61  0  0  1  0  0  0  0  0999 V2000
  180.4550  179.3610  143.0480 N   0  0  0  0  0  0  0  0  0  0  0  0
  182.2700  178.8840  141.5320 C   0  0  0  0  0  0  0  0  0  0  0  0
  189.1710  177.7610  143.2230 C   0  0  2  0  0  3  0  0  0  0  0  0
  181.3460  179.2850  144.1360 N   0  0  0  0  0  2  0  0  0  0  0  0
  186.5580  177.6400  137.1040 C   0  0  0  0  0  2  0  0  0  0  0  0
  187.9580  178.5610  143.7450 C   0  0  0  0  0  2  0  0  0  0  0  0
  182.7290  178.5850  140.2390 C   0  0  0  0  0  3  0  0  0  0  0  0
  184.0890  178.3710  139.9900 C   0  0  0  0  0  0  0  0  0  0  0  0
  186.0080  178.4230  138.3200 C   0  0  2  0  0  3  0  0  0  0  0  0
  185.4530  178.4700  143.4810 C   0  0  0  0  0  0  0  0  0  0  0  0
  188.5690  176.9500  138.5900 C   0  0  2  0  0  3  0  0  0  0  0  0
  188.0900  177.4300  137.1760 C   0  0  2  0  0  3  0  0  0  0  0  0
  190.4160  176.9960  140.7830 S   0  0  0  0  0  0  0  0  0  0  0  0
  186.9300  178.1810  139.5160 C   0  0  2  0  0  3  0  0  0  0  0  0
  180.8270  179.1630  141.8230 C   0  0  0  0  0  0  0  0  0  0  0  0
  185.8030  178.5090  146.0020 C   0  0  0  0  0  1  0  0  0  0  0  0
  182.7330  179.0610  143.9130 C   0  0  0  0  0  0  0  0  0  0  0  0
  185.0070  178.4540  141.0460 C   0  0  0  0  0  0  0  0  0  0  0  0
  187.4810  176.8860  139.4880 O   0  0  0  0  0  0  0  0  0  0  0  0
  183.6120  178.9900  144.9920 C   0  0  0  0  0  3  0  0  0  0  0  0
  184.5510  178.0010  138.6010 C   0  0  0  0  0  2  0  0  0  0  0  0
  188.9370  177.4600  141.7420 C   0  0  0  0  0  2  0  0  0  0  0  0
  186.7450  177.9660  143.2690 O   0  0  0  0  0  0  0  0  0  0  0  0
  189.7750  177.7140  139.2030 C   0  0  0  0  0  2  0  0  0  0  0  0
  179.8360  179.3380  140.7970 N   0  0  0  0  0  2  0  0  0  0  0  0
  184.5620  178.6060  142.3740 C   0  0  0  0  0  0  0  0  0  0  0  0
  186.3690  178.4640  140.7800 O   0  0  0  0  0  0  0  0  0  0  0  0
  184.9660  178.7080  144.7830 C   0  0  0  0  0  0  0  0  0  0  0  0
  183.1900  178.8630  142.6040 C   0  0  0  0  0  0  0  0  0  0  0  0
  180.0250  178.3840  138.6500 C   0  0  0  0  0  0  0  0  0  0  0  0
  180.2820  178.5430  137.2020 C   0  0  0  0  0  3  0  0  0  0  0  0
  180.1340  179.4170  139.4290 N   0  0  0  0  0  0  0  0  0  0  0  0
  179.3690  176.2850  136.7880 C   0  0  0  0  0  2  0  0  0  0  0  0
  180.0130  177.5580  136.3370 C   0  0  0  0  0  3  0  0  0  0  0  0
  179.5270  177.0560  139.1780 C   0  0  0  0  0  2  0  0  0  0  0  0
  179.8580  175.9210  138.1990 C   0  0  0  0  0  2  0  0  0  0  0  0
  188.8680  178.5530  136.5620 C   0  0  0  0  0  0  0  0  0  0  0  0
  189.0630  179.6320  137.1950 O   0  0  0  0  0  0  0  0  0  0  0  0
  189.4520  178.3520  135.3030 O   0  0  0  0  0  0  0  0  0  0  0  0
  188.7200  176.2390  134.6960 O   0  0  0  0  0  1  0  0  0  0  0  0
  189.8430  177.0580  134.8320 C   0  0  2  0  0  3  0  0  0  0  0  0
  191.9340  175.7740  135.0200 N   0  0  0  0  0  1  0  0  0  0  0  0
  190.8500  176.3970  135.7730 C   0  0  0  0  0  2  0  0  0  0  0  0
  189.2640  176.4520  143.9970 C   0  0  0  0  0  2  0  0  0  0  0  0
  189.1420  177.0500  146.4950 C   0  0  0  0  0  0  0  0  0  0  0  0
  191.8400  177.8760  148.7900 O   0  0  0  0  0  0  0  0  0  0  0  0
  187.8820  177.1060  146.4110 O   0  0  0  0  0  0  0  0  0  0  0  0
  191.2400  177.3840  147.7920 C   0  0  0  0  0  0  0  0  0  0  0  0
  189.0210  177.9110  148.8480 C   0  0  0  0  0  1  0  0  0  0  0  0
  192.0430  176.7180  146.7030 C   0  0  2  0  0  3  0  0  0  0  0  0
  189.8030  177.4280  147.7150 N   0  0  0  0  0  0  0  0  0  0  0  0
  189.9400  176.6490  145.3190 C   0  0  0  0  0  0  0  0  0  0  0  0
  191.2750  176.5380  145.4160 C   0  0  0  0  0  3  0  0  0  0  0  0
  192.5670  175.3760  147.1910 C   0  0  0  0  0  1  0  0  0  0  0  0
  1  4  1  0  0  0  0
  2 15  1  0  0  0  0
  2 29  1  0  0  0  0
  3  6  1  0  0  0  0
  3 44  1  1  0  0  0
  5 12  1  0  0  0  0
  7  2  2  0  0  0  0
  8  7  1  0  0  0  0
  8 18  2  0  0  0  0
  9  5  1  6  0  0  0
  9 21  1  0  0  0  0
  9 14  1  0  0  0  0
 10 28  1  0  0  0  0
 11 24  1  1  0  0  0
 11 19  1  0  0  0  0
 12 37  1  1  0  0  0
 12 11  1  0  0  0  0
 13 22  1  0  0  0  0
 14 19  1  1  0  0  0
 14 27  1  0  0  0  0
 15  1  2  0  0  0  0
 17  4  1  0  0  0  0
 17 20  1  0  0  0  0
 18 26  1  0  0  0  0
 21  8  1  0  0  0  0
 22  3  1  0  0  0  0
 23 10  1  0  0  0  0
 23  6  1  0  0  0  0
 24 13  1  0  0  0  0
 25 15  1  0  0  0  0
 26 29  1  0  0  0  0
 26 10  2  0  0  0  0
 27 18  1  0  0  0  0
 28 20  2  0  0  0  0
 28 16  1  0  0  0  0
 29 17  2  0  0  0  0
 30 35  1  0  0  0  0
 30 32  2  0  0  0  0
 31 30  1  0  0  0  0
 32 25  1  0  0  0  0
 33 36  1  0  0  0  0
 34 33  1  0  0  0  0
 34 31  2  0  0  0  0
 36 35  1  0  0  0  0
 37 38  2  0  0  0  0
 39 37  1  0  0  0  0
 41 40  1  1  0  0  0
 41 39  1  0  0  0  0
 41 43  1  0  0  0  0
 42 43  1  0  0  0  0
 44 52  1  0  0  0  0
 45 51  1  0  0  0  0
 47 45  2  0  0  0  0
 48 46  2  0  0  0  0
 50 54  1  1  0  0  0
 50 48  1  0  0  0  0
 51 48  1  0  0  0  0
 51 49  1  0  0  0  0
 52 53  2  0  0  0  0
 52 45  1  0  0  0  0
 53 50  1  0  0  0  0
M  END
>  <MODEL>
6

>  <REMARK>
 VINA RESULT:      -8.0      2.742     10.309
  Name = 
  7 active torsions:
  status: ('A' for Active; 'I' for Inactive)
    1  A    between atoms: C_4  and  C_45
    2  A    between atoms: C_10  and  C_15
    3  A    between atoms: N_11  and  N_46
    4  A    between atoms: C_14  and  C_23
    5  A    between atoms: C_14  and  O_42
    6  A    between atoms: C_15  and  O_42
    7  A    between atoms: C_45  and  C_47
                            x       y       z     vdW  Elec       q    Type
                         _______ _______ _______ _____ _____    ______ ____

>  <TORSDO>
F 7

$$$$
=
 OpenBabel10222415323D

 54 61  0  0  1  0  0  0  0  0999 V2000
  186.3960  178.2090  147.6560 N   0  0  0  0  0  0  0  0  0  0  0  0
  187.3860  177.9510  145.4710 C   0  0  0  0  0  0  0  0  0  0  0  0
  184.1470  178.7770  139.1010 C   0  0  2  0  0  3  0  0  0  0  0  0
  185.1640  178.5380  147.0570 N   0  0  0  0  0  2  0  0  0  0  0  0
  190.5310  177.1700  140.0820 C   0  0  0  0  0  2  0  0  0  0  0  0
  183.7970  178.3360  140.5400 C   0  0  0  0  0  2  0  0  0  0  0  0
  188.5180  177.7520  144.6630 C   0  0  0  0  0  3  0  0  0  0  0  0
  188.4080  177.7170  143.2690 C   0  0  0  0  0  0  0  0  0  0  0  0
  189.3580  176.9000  141.0550 C   0  0  2  0  0  3  0  0  0  0  0  0
  184.7950  178.6190  142.8360 C   0  0  0  0  0  0  0  0  0  0  0  0
  188.7830  178.0780  138.3930 C   0  0  2  0  0  3  0  0  0  0  0  0
  190.0780  177.2170  138.6020 C   0  0  2  0  0  3  0  0  0  0  0  0
  186.2290  178.5480  137.1770 S   0  0  0  0  0  0  0  0  0  0  0  0
  188.0660  177.4160  140.4190 C   0  0  2  0  0  3  0  0  0  0  0  0
  187.4620  177.9490  146.9680 C   0  0  0  0  0  0  0  0  0  0  0  0
  182.3810  179.3740  143.1200 C   0  0  0  0  0  1  0  0  0  0  0  0
  185.0270  178.5170  145.6420 C   0  0  0  0  0  0  0  0  0  0  0  0
  187.1520  177.8830  142.6690 C   0  0  0  0  0  0  0  0  0  0  0  0
  188.3000  178.5580  139.6300 O   0  0  0  0  0  0  0  0  0  0  0  0
  183.8050  178.8390  145.0530 C   0  0  0  0  0  3  0  0  0  0  0  0
  189.6470  177.5530  142.4210 C   0  0  0  0  0  2  0  0  0  0  0  0
  185.6540  178.5970  138.9060 C   0  0  0  0  0  2  0  0  0  0  0  0
  184.7550  178.8750  141.4570 O   0  0  0  0  0  0  0  0  0  0  0  0
  187.6540  177.4270  137.5480 C   0  0  0  0  0  2  0  0  0  0  0  0
  188.6370  177.5590  147.6960 N   0  0  0  0  0  2  0  0  0  0  0  0
  186.0270  178.2280  143.4420 C   0  0  0  0  0  0  0  0  0  0  0  0
  186.9950  177.6300  141.3130 O   0  0  0  0  0  0  0  0  0  0  0  0
  183.6810  178.8810  143.6600 C   0  0  0  0  0  0  0  0  0  0  0  0
  186.1440  178.2190  144.8520 C   0  0  0  0  0  0  0  0  0  0  0  0
  190.9080  176.9250  147.7310 C   0  0  0  0  0  0  0  0  0  0  0  0
  192.0570  176.2610  147.0780 C   0  0  0  0  0  3  0  0  0  0  0  0
  189.7770  177.0010  147.0980 N   0  0  0  0  0  0  0  0  0  0  0  0
  193.3000  176.3050  149.2120 C   0  0  0  0  0  2  0  0  0  0  0  0
  193.1840  176.0030  147.7510 C   0  0  0  0  0  3  0  0  0  0  0  0
  191.0350  177.3990  149.1630 C   0  0  0  0  0  2  0  0  0  0  0  0
  192.5100  177.5790  149.5490 C   0  0  0  0  0  2  0  0  0  0  0  0
  190.0900  175.8740  137.9400 C   0  0  0  0  0  0  0  0  0  0  0  0
  190.8620  174.9550  138.3440 O   0  0  0  0  0  0  0  0  0  0  0  0
  189.1650  175.6260  136.9150 O   0  0  0  0  0  0  0  0  0  0  0  0
  189.6180  176.3560  134.7640 O   0  0  0  0  0  1  0  0  0  0  0  0
  189.5620  175.2370  135.5970 C   0  0  2  0  0  3  0  0  0  0  0  0
  187.4580  173.9910  135.8780 N   0  0  0  0  0  1  0  0  0  0  0  0
  188.6070  174.2020  135.0030 C   0  0  0  0  0  2  0  0  0  0  0  0
  183.7870  180.2480  138.9380 C   0  0  0  0  0  2  0  0  0  0  0  0
  181.8740  179.3880  137.4520 C   0  0  0  0  0  0  0  0  0  0  0  0
  178.9310  181.1530  136.2510 O   0  0  0  0  0  0  0  0  0  0  0  0
  182.5260  178.3240  137.2450 O   0  0  0  0  0  0  0  0  0  0  0  0
  179.9170  180.8520  136.9800 C   0  0  0  0  0  0  0  0  0  0  0  0
  180.1550  178.6580  135.7780 C   0  0  0  0  0  1  0  0  0  0  0  0
  180.3070  181.7700  138.1110 C   0  0  2  0  0  3  0  0  0  0  0  0
  180.6390  179.6270  136.7540 N   0  0  0  0  0  0  0  0  0  0  0  0
  182.4110  180.4110  138.3710 C   0  0  0  0  0  0  0  0  0  0  0  0
  181.6990  181.5190  138.6360 C   0  0  0  0  0  3  0  0  0  0  0  0
  179.2950  181.6590  139.2420 C   0  0  0  0  0  1  0  0  0  0  0  0
  2 15  1  0  0  0  0
  3 44  1  1  0  0  0
  3  6  1  0  0  0  0
  4  1  1  0  0  0  0
  6 23  1  0  0  0  0
  7  2  2  0  0  0  0
  8  7  1  0  0  0  0
  9  5  1  6  0  0  0
  9 21  1  0  0  0  0
 10 26  2  0  0  0  0
 10 28  1  0  0  0  0
 11 24  1  1  0  0  0
 11 12  1  0  0  0  0
 11 19  1  0  0  0  0
 12 37  1  1  0  0  0
 12  5  1  0  0  0  0
 13 24  1  0  0  0  0
 13 22  1  0  0  0  0
 14 19  1  1  0  0  0
 14  9  1  0  0  0  0
 14 27  1  0  0  0  0
 15  1  2  0  0  0  0
 15 25  1  0  0  0  0
 16 28  1  0  0  0  0
 17  4  1  0  0  0  0
 18  8  2  0  0  0  0
 18 26  1  0  0  0  0
 20 17  1  0  0  0  0
 21  8  1  0  0  0  0
 22  3  1  0  0  0  0
 23 10  1  0  0  0  0
 26 29  1  0  0  0  0
 27 18  1  0  0  0  0
 28 20  2  0  0  0  0
 29  2  1  0  0  0  0
 29 17  2  0  0  0  0
 30 35  1  0  0  0  0
 31 30  1  0  0  0  0
 31 34  2  0  0  0  0
 32 25  1  0  0  0  0
 32 30  2  0  0  0  0
 33 36  1  0  0  0  0
 34 33  1  0  0  0  0
 35 36  1  0  0  0  0
 37 38  2  0  0  0  0
 39 37  1  0  0  0  0
 41 40  1  6  0  0  0
 41 39  1  0  0  0  0
 43 41  1  0  0  0  0
 43 42  1  0  0  0  0
 45 52  1  0  0  0  0
 46 48  2  0  0  0  0
 47 45  2  0  0  0  0
 48 50  1  0  0  0  0
 49 51  1  0  0  0  0
 50 53  1  0  0  0  0
 50 54  1  1  0  0  0
 51 48  1  0  0  0  0
 51 45  1  0  0  0  0
 52 53  2  0  0  0  0
 52 44  1  0  0  0  0
M  END
>  <MODEL>
7

>  <REMARK>
 VINA RESULT:      -7.6      3.245      8.019
  Name = 
  7 active torsions:
  status: ('A' for Active; 'I' for Inactive)
    1  A    between atoms: C_4  and  C_45
    2  A    between atoms: C_10  and  C_15
    3  A    between atoms: N_11  and  N_46
    4  A    between atoms: C_14  and  C_23
    5  A    between atoms: C_14  and  O_42
    6  A    between atoms: C_15  and  O_42
    7  A    between atoms: C_45  and  C_47
                            x       y       z     vdW  Elec       q    Type
                         _______ _______ _______ _____ _____    ______ ____

>  <TORSDO>
F 7

$$$$
=
 OpenBabel10222415323D

 54 61  0  0  1  0  0  0  0  0999 V2000
  180.0530  179.6020  141.3710 N   0  0  0  0  0  0  0  0  0  0  0  0
  182.0100  178.9180  140.1370 C   0  0  0  0  0  0  0  0  0  0  0  0
  188.6270  177.8130  142.7330 C   0  0  2  0  0  3  0  0  0  0  0  0
  180.8110  179.6210  142.5580 N   0  0  0  0  0  2  0  0  0  0  0  0
  186.7260  177.0980  136.3950 C   0  0  0  0  0  2  0  0  0  0  0  0
  187.3930  178.6950  143.0230 C   0  0  0  0  0  2  0  0  0  0  0  0
  182.6030  178.4710  138.9440 C   0  0  0  0  0  3  0  0  0  0  0  0
  183.9730  178.1970  138.8810 C   0  0  0  0  0  0  0  0  0  0  0  0
  186.0700  178.0210  137.4510 C   0  0  2  0  0  3  0  0  0  0  0  0
  184.9330  178.6380  142.4780 C   0  0  0  0  0  0  0  0  0  0  0  0
  188.5270  176.5230  138.1710 C   0  0  2  0  0  3  0  0  0  0  0  0
  188.2310  176.8590  136.6680 C   0  0  2  0  0  3  0  0  0  0  0  0
  190.1130  176.7590  140.5480 S   0  0  0  0  0  0  0  0  0  0  0  0
  186.8400  177.8860  138.7650 C   0  0  2  0  0  3  0  0  0  0  0  0
  180.5550  179.2630  140.2250 C   0  0  0  0  0  0  0  0  0  0  0  0
  184.9950  178.9400  145.0040 C   0  0  0  0  0  1  0  0  0  0  0  0
  182.2050  179.3400  142.5240 C   0  0  0  0  0  0  0  0  0  0  0  0
  184.7670  178.3710  140.0230 C   0  0  0  0  0  0  0  0  0  0  0  0
  187.3420  176.5830  138.9370 O   0  0  0  0  0  0  0  0  0  0  0  0
  182.9520  179.3640  143.7000 C   0  0  0  0  0  3  0  0  0  0  0  0
  184.5760  177.6680  137.6010 C   0  0  0  0  0  2  0  0  0  0  0  0
  188.5520  177.3600  141.2740 C   0  0  0  0  0  2  0  0  0  0  0  0
  186.2210  178.0830  142.4720 O   0  0  0  0  0  0  0  0  0  0  0  0
  189.6830  177.3180  138.8380 C   0  0  0  0  0  2  0  0  0  0  0  0
  179.6950  179.3510  139.0780 N   0  0  0  0  0  2  0  0  0  0  0  0
  184.1800  178.6760  141.2660 C   0  0  0  0  0  0  0  0  0  0  0  0
  186.1500  178.3190  139.9180 O   0  0  0  0  0  0  0  0  0  0  0  0
  184.3100  179.0270  143.6820 C   0  0  0  0  0  0  0  0  0  0  0  0
  182.8010  178.9910  141.3060 C   0  0  0  0  0  0  0  0  0  0  0  0
  180.1310  178.1570  137.0930 C   0  0  0  0  0  0  0  0  0  0  0  0
  180.5550  178.1500  135.6760 C   0  0  0  0  0  3  0  0  0  0  0  0
  180.1500  179.2740  137.7530 N   0  0  0  0  0  0  0  0  0  0  0  0
  179.6980  175.8470  135.4270 C   0  0  0  0  0  2  0  0  0  0  0  0
  180.3890  177.0670  134.9070 C   0  0  0  0  0  3  0  0  0  0  0  0
  179.5760  176.8920  137.7120 C   0  0  0  0  0  2  0  0  0  0  0  0
  180.0200  175.6560  136.9180 C   0  0  0  0  0  2  0  0  0  0  0  0
  189.1150  177.8890  136.0360 C   0  0  0  0  0  0  0  0  0  0  0  0
  188.8940  179.1260  136.2000 O   0  0  0  0  0  0  0  0  0  0  0  0
  190.2460  177.4570  135.3280 O   0  0  0  0  0  0  0  0  0  0  0  0
  189.1330  175.5330  134.6760 O   0  0  0  0  0  1  0  0  0  0  0  0
  190.3900  176.1150  134.8520 C   0  0  2  0  0  3  0  0  0  0  0  0
  192.2870  176.0540  136.4190 N   0  0  0  0  0  1  0  0  0  0  0  0
  191.2210  175.2630  135.8100 C   0  0  0  0  0  2  0  0  0  0  0  0
  188.5820  176.5930  143.6450 C   0  0  0  0  0  2  0  0  0  0  0  0
  190.0460  177.0100  145.7160 C   0  0  0  0  0  0  0  0  0  0  0  0
  189.0490  177.3800  149.1940 O   0  0  0  0  0  0  0  0  0  0  0  0
  191.0800  176.8180  145.0140 O   0  0  0  0  0  0  0  0  0  0  0  0
  188.9780  177.3900  147.9330 C   0  0  0  0  0  0  0  0  0  0  0  0
  191.4730  177.1290  147.7760 C   0  0  0  0  0  1  0  0  0  0  0  0
  187.6480  177.6440  147.2700 C   0  0  2  0  0  3  0  0  0  0  0  0
  190.1640  177.1960  147.1380 N   0  0  0  0  0  0  0  0  0  0  0  0
  188.7130  176.9860  145.0840 C   0  0  0  0  0  0  0  0  0  0  0  0
  187.6150  177.2400  145.8160 C   0  0  0  0  0  3  0  0  0  0  0  0
  187.2670  179.1090  147.4140 C   0  0  0  0  0  1  0  0  0  0  0  0
  1  4  1  0  0  0  0
  2 15  1  0  0  0  0
  2 29  1  0  0  0  0
  3  6  1  0  0  0  0
  3 44  1  1  0  0  0
  5 12  1  0  0  0  0
  7  2  2  0  0  0  0
  8  7  1  0  0  0  0
  8 18  2  0  0  0  0
  9  5  1  6  0  0  0
  9 21  1  0  0  0  0
  9 14  1  0  0  0  0
 10 28  1  0  0  0  0
 11 24  1  1  0  0  0
 11 19  1  0  0  0  0
 12 37  1  1  0  0  0
 12 11  1  0  0  0  0
 13 22  1  0  0  0  0
 14 19  1  1  0  0  0
 14 27  1  0  0  0  0
 15  1  2  0  0  0  0
 17  4  1  0  0  0  0
 17 20  1  0  0  0  0
 18 26  1  0  0  0  0
 21  8  1  0  0  0  0
 22  3  1  0  0  0  0
 23 10  1  0  0  0  0
 23  6  1  0  0  0  0
 24 13  1  0  0  0  0
 25 15  1  0  0  0  0
 26 29  1  0  0  0  0
 26 10  2  0  0  0  0
 27 18  1  0  0  0  0
 28 20  2  0  0  0  0
 28 16  1  0  0  0  0
 29 17  2  0  0  0  0
 30 35  1  0  0  0  0
 30 32  2  0  0  0  0
 31 30  1  0  0  0  0
 32 25  1  0  0  0  0
 33 36  1  0  0  0  0
 34 33  1  0  0  0  0
 34 31  2  0  0  0  0
 36 35  1  0  0  0  0
 37 38  2  0  0  0  0
 39 37  1  0  0  0  0
 41 40  1  1  0  0  0
 41 39  1  0  0  0  0
 41 43  1  0  0  0  0
 43 42  1  0  0  0  0
 44 52  1  0  0  0  0
 45 51  1  0  0  0  0
 47 45  2  0  0  0  0
 48 46  2  0  0  0  0
 50 54  1  6  0  0  0
 50 48  1  0  0  0  0
 51 49  1  0  0  0  0
 51 48  1  0  0  0  0
 52 45  1  0  0  0  0
 52 53  2  0  0  0  0
 53 50  1  0  0  0  0
M  END
>  <MODEL>
8

>  <REMARK>
 VINA RESULT:      -6.9      2.588      9.877
  Name = 
  7 active torsions:
  status: ('A' for Active; 'I' for Inactive)
    1  A    between atoms: C_4  and  C_45
    2  A    between atoms: C_10  and  C_15
    3  A    between atoms: N_11  and  N_46
    4  A    between atoms: C_14  and  C_23
    5  A    between atoms: C_14  and  O_42
    6  A    between atoms: C_15  and  O_42
    7  A    between atoms: C_45  and  C_47
                            x       y       z     vdW  Elec       q    Type
                         _______ _______ _______ _____ _____    ______ ____

>  <TORSDO>
F 7

$$$$
=
 OpenBabel10222415323D

 54 61  0  0  1  0  0  0  0  0999 V2000
  183.3600  177.5030  135.8830 N   0  0  0  0  0  0  0  0  0  0  0  0
  184.9190  177.8150  137.6980 C   0  0  0  0  0  0  0  0  0  0  0  0
  191.7470  175.5720  138.0060 C   0  0  2  0  0  3  0  0  0  0  0  0
  184.3520  176.8230  135.1500 N   0  0  0  0  0  2  0  0  0  0  0  0
  188.5150  178.9740  142.7250 C   0  0  0  0  0  2  0  0  0  0  0  0
  190.4050  175.1430  137.3710 C   0  0  0  0  0  2  0  0  0  0  0  0
  185.2450  178.3920  138.9370 C   0  0  0  0  0  3  0  0  0  0  0  0
  186.4920  178.1660  139.5280 C   0  0  0  0  0  0  0  0  0  0  0  0
  187.8750  178.0500  141.6610 C   0  0  2  0  0  3  0  0  0  0  0  0
  188.2110  176.2460  136.8050 C   0  0  0  0  0  0  0  0  0  0  0  0
  190.8320  178.2480  141.8110 C   0  0  2  0  0  3  0  0  0  0  0  0
  189.9630  178.5590  143.0800 C   0  0  2  0  0  3  0  0  0  0  0  0
  192.7860  176.6910  140.4050 S   0  0  0  0  0  0  0  0  0  0  0  0
  188.9880  177.4580  140.7940 C   0  0  2  0  0  3  0  0  0  0  0  0
  183.5760  178.0010  137.0600 C   0  0  0  0  0  0  0  0  0  0  0  0
  188.9120  175.1230  134.6310 C   0  0  0  0  0  1  0  0  0  0  0  0
  185.6320  176.5860  135.7250 C   0  0  0  0  0  0  0  0  0  0  0  0
  187.4310  177.3530  138.8760 C   0  0  0  0  0  0  0  0  0  0  0  0
  190.0550  178.3620  140.6370 O   0  0  0  0  0  0  0  0  0  0  0  0
  186.6100  175.9090  134.9980 C   0  0  0  0  0  3  0  0  0  0  0  0
  186.8390  178.8380  140.8350 C   0  0  0  0  0  2  0  0  0  0  0  0
  191.4370  176.4790  139.1980 C   0  0  0  0  0  2  0  0  0  0  0  0
  189.5370  176.2770  137.2630 O   0  0  0  0  0  0  0  0  0  0  0  0
  191.6400  176.9220  141.8390 C   0  0  0  0  0  2  0  0  0  0  0  0
  182.4610  178.6090  137.7320 N   0  0  0  0  0  2  0  0  0  0  0  0
  187.1890  176.8830  137.5720 C   0  0  0  0  0  0  0  0  0  0  0  0
  188.5750  176.9430  139.5470 O   0  0  0  0  0  0  0  0  0  0  0  0
  187.8900  175.7280  135.5330 C   0  0  0  0  0  0  0  0  0  0  0  0
  185.9090  177.0830  137.0040 C   0  0  0  0  0  0  0  0  0  0  0  0
  181.4980  178.6000  139.8830 C   0  0  0  0  0  0  0  0  0  0  0  0
  181.5890  178.9300  141.3230 C   0  0  0  0  0  3  0  0  0  0  0  0
  182.4630  178.9550  139.0910 N   0  0  0  0  0  0  0  0  0  0  0  0
  179.6510  177.4690  141.7830 C   0  0  0  0  0  2  0  0  0  0  0  0
  180.7110  178.4360  142.2050 C   0  0  0  0  0  3  0  0  0  0  0  0
  180.3450  177.7570  139.3820 C   0  0  0  0  0  2  0  0  0  0  0  0
  179.1660  177.8060  140.3640 C   0  0  0  0  0  2  0  0  0  0  0  0
  190.0330  177.5540  144.1880 C   0  0  0  0  0  0  0  0  0  0  0  0
  191.1480  177.1550  144.6370 O   0  0  0  0  0  0  0  0  0  0  0  0
  188.8350  177.1260  144.7790 O   0  0  0  0  0  0  0  0  0  0  0  0
  189.0310  176.7780  147.0610 O   0  0  0  0  0  1  0  0  0  0  0  0
  188.4190  177.5590  146.0780 C   0  0  2  0  0  3  0  0  0  0  0  0
  186.2710  178.7210  145.7760 N   0  0  0  0  0  1  0  0  0  0  0  0
  186.9010  177.4870  146.2370 C   0  0  0  0  0  2  0  0  0  0  0  0
  192.5500  176.3520  136.9720 C   0  0  0  0  0  2  0  0  0  0  0  0
  194.8830  176.4060  135.8940 C   0  0  0  0  0  0  0  0  0  0  0  0
  197.2440  173.6850  135.3950 O   0  0  0  0  0  0  0  0  0  0  0  0
  194.6730  177.5950  135.5200 O   0  0  0  0  0  0  0  0  0  0  0  0
  196.2950  174.3550  135.8910 C   0  0  0  0  0  0  0  0  0  0  0  0
  197.0290  176.3800  134.5950 C   0  0  0  0  0  1  0  0  0  0  0  0
  195.4180  173.7270  136.9440 C   0  0  2  0  0  3  0  0  0  0  0  0
  196.0760  175.7180  135.4790 N   0  0  0  0  0  0  0  0  0  0  0  0
  193.8750  175.7040  136.7120 C   0  0  0  0  0  0  0  0  0  0  0  0
  194.1150  174.4590  137.1560 C   0  0  0  0  0  3  0  0  0  0  0  0
  196.1780  173.6220  138.2570 C   0  0  0  0  0  1  0  0  0  0  0  0
  1 15  2  0  0  0  0
  2  7  1  0  0  0  0
  3 44  1  6  0  0  0
  3 22  1  0  0  0  0
  4 17  1  0  0  0  0
  4  1  1  0  0  0  0
  5 12  1  0  0  0  0
  6  3  1  0  0  0  0
  7  8  2  0  0  0  0
  8 21  1  0  0  0  0
  9 21  1  6  0  0  0
  9  5  1  0  0  0  0
 10 23  1  0  0  0  0
 10 26  1  0  0  0  0
 11 24  1  1  0  0  0
 11 12  1  0  0  0  0
 12 37  1  1  0  0  0
 13 24  1  0  0  0  0
 14 27  1  6  0  0  0
 14  9  1  0  0  0  0
 15  2  1  0  0  0  0
 15 25  1  0  0  0  0
 16 28  1  0  0  0  0
 17 29  1  0  0  0  0
 18  8  1  0  0  0  0
 18 27  1  0  0  0  0
 19 14  1  0  0  0  0
 19 11  1  0  0  0  0
 20 28  1  0  0  0  0
 20 17  2  0  0  0  0
 22 13  1  0  0  0  0
 23  6  1  0  0  0  0
 25 32  1  0  0  0  0
 26 18  2  0  0  0  0
 28 10  2  0  0  0  0
 29 26  1  0  0  0  0
 29  2  2  0  0  0  0
 30 31  1  0  0  0  0
 31 34  2  0  0  0  0
 32 30  2  0  0  0  0
 33 34  1  0  0  0  0
 35 30  1  0  0  0  0
 35 36  1  0  0  0  0
 36 33  1  0  0  0  0
 37 38  2  0  0  0  0
 37 39  1  0  0  0  0
 39 41  1  0  0  0  0
 41 43  1  0  0  0  0
 41 40  1  1  0  0  0
 42 43  1  0  0  0  0
 45 52  1  0  0  0  0
 46 48  2  0  0  0  0
 47 45  2  0  0  0  0
 48 50  1  0  0  0  0
 49 51  1  0  0  0  0
 50 53  1  0  0  0  0
 50 54  1  1  0  0  0
 51 48  1  0  0  0  0
 51 45  1  0  0  0  0
 52 44  1  0  0  0  0
 52 53  2  0  0  0  0
M  END
>  <MODEL>
9

>  <REMARK>
 VINA RESULT:      -6.7      3.062      9.822
  Name = 
  7 active torsions:
  status: ('A' for Active; 'I' for Inactive)
    1  A    between atoms: C_4  and  C_45
    2  A    between atoms: C_10  and  C_15
    3  A    between atoms: N_11  and  N_46
    4  A    between atoms: C_14  and  C_23
    5  A    between atoms: C_14  and  O_42
    6  A    between atoms: C_15  and  O_42
    7  A    between atoms: C_45  and  C_47
                            x       y       z     vdW  Elec       q    Type
                         _______ _______ _______ _____ _____    ______ ____

>  <TORSDO>
F 7

$$$$
