=
 OpenBabel10222419093D

 50 54  0  0  1  0  0  0  0  0999 V2000
  188.7190  177.6850  140.0570 C   0  0  2  0  0  3  0  0  0  0  0  0
  190.8060  177.3390  138.5800 C   0  0  2  0  0  3  0  0  0  0  0  0
  189.8530  177.7470  141.0770 C   0  0  2  0  0  3  0  0  0  0  0  0
  191.4690  177.4660  140.2710 S   0  0  0  0  0  0  0  0  0  0  0  0
  189.2960  178.3250  138.4610 S   0  0  0  0  0  0  0  0  0  0  0  0
  186.3600  178.5620  139.7960 C   0  0  0  0  0  0  0  0  0  0  0  0
  185.9710  177.7440  138.4010 S   0  0  0  0  0  0  0  0  0  0  0  0
  184.3910  178.2540  138.3030 N   0  0  0  0  0  0  0  0  0  0  0  0
  184.2140  179.0700  139.3800 C   0  0  0  0  0  0  0  0  0  0  0  0
  185.2760  179.2340  140.2320 N   0  0  0  0  0  0  0  0  0  0  0  0
  187.5850  178.4720  140.5240 N   0  0  0  0  0  2  0  0  0  0  0  0
  182.8860  179.6680  139.6700 C   0  0  0  0  0  2  0  0  0  0  0  0
  182.2620  178.9820  140.8790 C   0  0  0  0  0  2  0  0  0  0  0  0
  180.2780  179.5160  139.6240 O   0  0  0  0  0  1  0  0  0  0  0  0
  180.7270  178.9480  140.8220 C   0  0  2  0  0  0  0  0  0  0  0  0
  180.1670  179.7670  141.9840 C   0  0  0  0  0  2  0  0  0  0  0  0
  179.6750  180.9950  141.5350 O   0  0  0  0  0  1  0  0  0  0  0  0
  178.9430  177.4900  141.5610 O   0  0  0  0  0  1  0  0  0  0  0  0
  180.1870  177.5110  140.9230 C   0  0  1  0  0  3  0  0  0  0  0  0
  180.0930  176.8160  139.5690 C   0  0  0  0  0  2  0  0  0  0  0  0
  181.1150  175.7020  139.4890 C   0  0  0  0  0  1  0  0  0  0  0  0
  190.0550  175.6130  142.1680 O   0  0  0  0  0  0  0  0  0  0  0  0
  189.6290  176.8020  142.2380 C   0  0  0  0  0  0  0  0  0  0  0  0
  188.8630  177.2050  143.4350 C   0  0  0  0  0  0  0  0  0  0  0  0
  187.5900  176.7960  143.7860 C   0  0  0  0  0  3  0  0  0  0  0  0
  187.3450  177.4770  144.9620 C   0  0  0  0  0  0  0  0  0  0  0  0
  189.3160  178.0830  144.4050 C   0  0  0  0  0  3  0  0  0  0  0  0
  188.3720  178.2130  145.3060 O   0  0  0  0  0  0  0  0  0  0  0  0
  186.0720  177.4160  145.7380 C   0  0  0  0  0  2  0  0  0  0  0  0
  185.3510  178.7570  145.7550 C   0  0  0  0  0  0  0  0  0  0  0  0
  184.0400  178.5540  146.1550 F   0  0  0  0  0  0  0  0  0  0  0  0
  185.9670  179.6180  146.6470 F   0  0  0  0  0  0  0  0  0  0  0  0
  185.3570  179.3240  144.4920 F   0  0  0  0  0  0  0  0  0  0  0  0
  190.5350  175.8870  138.2030 C   0  0  0  0  0  2  0  0  0  0  0  0
  192.7630  176.2820  137.2850 N   0  0  0  0  0  2  0  0  0  0  0  0
  192.7390  173.7530  135.8960 C   0  0  2  0  0  3  0  0  0  0  0  0
  194.6730  176.9290  136.1300 O   0  0  0  0  0  0  0  0  0  0  0  0
  191.4650  174.4480  136.3740 C   0  0  0  0  0  2  0  0  0  0  0  0
  191.7900  175.2530  137.6200 C   0  0  2  0  0  3  0  0  0  0  0  0
  193.8440  174.7670  135.5260 C   0  0  1  0  0  3  0  0  0  0  0  0
  193.8150  176.0350  136.3430 C   0  0  0  0  0  0  0  0  0  0  0  0
  192.1490  171.4630  135.0970 C   0  0  0  0  0  2  0  0  0  0  0  0
  193.4020  171.8540  134.5960 O   0  0  0  0  0  0  0  0  0  0  0  0
  192.4230  172.8650  134.6890 C   0  0  2  0  0  3  0  0  0  0  0  0
  195.2310  174.1330  135.6230 C   0  0  0  0  0  2  0  0  0  0  0  0
  195.6130  173.7830  137.0490 C   0  0  0  0  0  2  0  0  0  0  0  0
  197.1250  173.6690  137.1870 C   0  0  0  0  0  2  0  0  0  0  0  0
  198.2250  175.3090  138.7290 O   0  0  0  0  0  1  0  0  0  0  0  0
  197.7170  175.0100  137.4560 C   0  0  0  0  0  0  0  0  0  0  0  0
  197.8030  175.8540  136.5260 O   0  0  0  0  0  0  0  0  0  0  0  0
  1 11  1  1  0  0  0
  1  3  1  0  0  0  0
  2 34  1  1  0  0  0
  2  4  1  0  0  0  0
  3 23  1  1  0  0  0
  4  3  1  0  0  0  0
  5  2  1  0  0  0  0
  5  1  1  0  0  0  0
  6 10  2  0  0  0  0
  6 11  1  0  0  0  0
  7  6  1  0  0  0  0
  8  7  1  0  0  0  0
  8  9  2  0  0  0  0
  9 12  1  0  0  0  0
  9 10  1  0  0  0  0
 12 13  1  0  0  0  0
 15 14  1  6  0  0  0
 15 13  1  0  0  0  0
 15 19  1  0  0  0  0
 15 16  1  0  0  0  0
 17 16  1  0  0  0  0
 19 18  1  6  0  0  0
 20 19  1  0  0  0  0
 21 20  1  0  0  0  0
 22 23  2  0  0  0  0
 23 24  1  0  0  0  0
 24 25  1  0  0  0  0
 24 27  2  0  0  0  0
 25 26  2  0  0  0  0
 26 28  1  0  0  0  0
 26 29  1  0  0  0  0
 27 28  1  0  0  0  0
 29 30  1  0  0  0  0
 30 31  1  0  0  0  0
 30 32  1  0  0  0  0
 33 30  1  0  0  0  0
 35 39  1  0  0  0  0
 36 38  1  6  0  0  0
 37 41  2  0  0  0  0
 38 39  1  0  0  0  0
 39 34  1  6  0  0  0
 40 45  1  1  0  0  0
 40 36  1  0  0  0  0
 40 41  1  0  0  0  0
 41 35  1  0  0  0  0
 43 44  1  0  0  0  0
 43 42  1  0  0  0  0
 44 42  1  1  0  0  0
 44 36  1  0  0  0  0
 45 46  1  0  0  0  0
 46 47  1  0  0  0  0
 47 49  1  0  0  0  0
 49 48  1  0  0  0  0
 50 49  2  0  0  0  0
M  END
>  <MODEL>
1

>  <REMARK>
 VINA RESULT:      -7.5      0.000      0.000
  Name = 
  18 active torsions:
  status: ('A' for Active; 'I' for Inactive)
    1  A    between atoms: C_2  and  N_40
    2  A    between atoms: C_3  and  C_25
    3  A    between atoms: C_3  and  C_44
    4  A    between atoms: C_4  and  C_19
    5  A    between atoms: C_4  and  C_35
    6  A    between atoms: C_7  and  C_9
    7  A    between atoms: C_7  and  C_43
    8  A    between atoms: C_10  and  C_17
    9  A    between atoms: C_11  and  C_46
   10  A    between atoms: C_12  and  C_35
   11  A    between atoms: C_13  and  C_37
   12  A    between atoms: C_13  and  C_44
   13  A    between atoms: C_17  and  C_38
   14  A    between atoms: C_18  and  C_44
   15  A    between atoms: C_19  and  C_39
   16  A    between atoms: C_21  and  C_48
   17  A    between atoms: C_24  and  C_48
   18  A    between atoms: C_25  and  C_33
                            x       y       z     vdW  Elec       q    Type
                         _______ _______ _______ _____ _____    ______ ____

>  <TORSDO>
F 18

$$$$
=
 OpenBabel10222419093D

 50 54  0  0  1  0  0  0  0  0999 V2000
  189.8430  176.9180  138.3870 C   0  0  2  0  0  3  0  0  0  0  0  0
  188.1870  177.7210  136.5780 C   0  0  2  0  0  3  0  0  0  0  0  0
  190.4600  176.3550  137.1090 C   0  0  2  0  0  3  0  0  0  0  0  0
  189.4200  176.7470  135.6580 S   0  0  0  0  0  0  0  0  0  0  0  0
  188.9810  178.4710  138.0190 S   0  0  0  0  0  0  0  0  0  0  0  0
  190.5960  177.3000  140.7720 C   0  0  0  0  0  0  0  0  0  0  0  0
  189.1110  177.1340  141.5040 S   0  0  0  0  0  0  0  0  0  0  0  0
  189.6420  177.2890  143.0720 N   0  0  0  0  0  0  0  0  0  0  0  0
  190.9880  177.4780  142.9750 C   0  0  0  0  0  0  0  0  0  0  0  0
  191.5410  177.4600  141.7200 N   0  0  0  0  0  0  0  0  0  0  0  0
  190.8820  177.1530  139.3810 N   0  0  0  0  0  2  0  0  0  0  0  0
  191.8310  177.5870  144.1920 C   0  0  0  0  0  2  0  0  0  0  0  0
  191.0050  178.1390  145.3470 C   0  0  0  0  0  2  0  0  0  0  0  0
  191.4780  177.5700  147.6390 O   0  0  0  0  0  1  0  0  0  0  0  0
  190.8190  177.1250  146.4880 C   0  0  2  0  0  0  0  0  0  0  0  0
  191.4270  175.7870  146.0690 C   0  0  0  0  0  2  0  0  0  0  0  0
  192.4700  175.4250  146.9250 O   0  0  0  0  0  1  0  0  0  0  0  0
  189.0830  177.1630  148.1720 O   0  0  0  0  0  1  0  0  0  0  0  0
  189.3310  176.9110  146.8190 C   0  0  1  0  0  3  0  0  0  0  0  0
  188.4030  177.7520  145.9500 C   0  0  0  0  0  2  0  0  0  0  0  0
  186.9630  177.5020  146.3410 C   0  0  0  0  0  1  0  0  0  0  0  0
  189.7950  174.0700  137.4510 O   0  0  0  0  0  0  0  0  0  0  0  0
  190.7430  174.8720  137.2160 C   0  0  0  0  0  0  0  0  0  0  0  0
  192.1150  174.3320  137.1220 C   0  0  0  0  0  0  0  0  0  0  0  0
  193.2470  174.8190  137.7490 C   0  0  0  0  0  3  0  0  0  0  0  0
  194.2470  173.9740  137.3100 C   0  0  0  0  0  0  0  0  0  0  0  0
  192.4810  173.2320  136.3660 C   0  0  0  0  0  3  0  0  0  0  0  0
  193.7720  173.0510  136.5130 O   0  0  0  0  0  0  0  0  0  0  0  0
  195.6910  174.0990  137.6670 C   0  0  0  0  0  2  0  0  0  0  0  0
  196.5150  174.6620  136.5170 C   0  0  0  0  0  0  0  0  0  0  0  0
  196.7280  173.6580  135.5870 F   0  0  0  0  0  0  0  0  0  0  0  0
  195.8340  175.7030  135.9090 F   0  0  0  0  0  0  0  0  0  0  0  0
  197.7370  175.1200  136.9790 F   0  0  0  0  0  0  0  0  0  0  0  0
  187.0070  176.8550  137.0010 C   0  0  0  0  0  2  0  0  0  0  0  0
  185.8970  178.4250  138.5060 N   0  0  0  0  0  2  0  0  0  0  0  0
  183.3100  177.8120  137.3860 C   0  0  2  0  0  3  0  0  0  0  0  0
  184.8970  179.6020  140.2420 O   0  0  0  0  0  0  0  0  0  0  0  0
  184.5130  176.8800  137.2500 C   0  0  0  0  0  2  0  0  0  0  0  0
  185.7780  177.7210  137.2370 C   0  0  2  0  0  3  0  0  0  0  0  0
  183.3510  178.6180  138.7020 C   0  0  1  0  0  3  0  0  0  0  0  0
  184.7440  178.9430  139.1820 C   0  0  0  0  0  0  0  0  0  0  0  0
  181.6850  176.6100  135.9200 C   0  0  0  0  0  2  0  0  0  0  0  0
  181.0690  177.7070  136.5440 O   0  0  0  0  0  0  0  0  0  0  0  0
  182.0140  176.9990  137.3150 C   0  0  2  0  0  3  0  0  0  0  0  0
  182.5410  179.9080  138.5860 C   0  0  0  0  0  2  0  0  0  0  0  0
  181.2930  179.8910  139.4510 C   0  0  0  0  0  2  0  0  0  0  0  0
  181.4040  178.8270  140.5330 C   0  0  0  0  0  2  0  0  0  0  0  0
  181.4750  178.8330  143.0370 O   0  0  0  0  0  1  0  0  0  0  0  0
  180.9820  179.3880  141.8470 C   0  0  0  0  0  0  0  0  0  0  0  0
  180.2220  180.3910  141.8850 O   0  0  0  0  0  0  0  0  0  0  0  0
  1 11  1  1  0  0  0
  2 34  1  1  0  0  0
  2  5  1  0  0  0  0
  3 23  1  1  0  0  0
  3  1  1  0  0  0  0
  4  2  1  0  0  0  0
  4  3  1  0  0  0  0
  5  1  1  0  0  0  0
  6  7  1  0  0  0  0
  6 10  2  0  0  0  0
  7  8  1  0  0  0  0
  9  8  2  0  0  0  0
  9 12  1  0  0  0  0
 10  9  1  0  0  0  0
 11  6  1  0  0  0  0
 12 13  1  0  0  0  0
 13 15  1  0  0  0  0
 15 19  1  0  0  0  0
 15 14  1  1  0  0  0
 16 15  1  0  0  0  0
 16 17  1  0  0  0  0
 19 18  1  1  0  0  0
 20 21  1  0  0  0  0
 20 19  1  0  0  0  0
 23 22  2  0  0  0  0
 24 23  1  0  0  0  0
 24 25  1  0  0  0  0
 26 29  1  0  0  0  0
 26 25  2  0  0  0  0
 27 28  1  0  0  0  0
 27 24  2  0  0  0  0
 28 26  1  0  0  0  0
 30 33  1  0  0  0  0
 30 29  1  0  0  0  0
 31 30  1  0  0  0  0
 32 30  1  0  0  0  0
 35 41  1  0  0  0  0
 36 38  1  1  0  0  0
 36 40  1  0  0  0  0
 39 34  1  1  0  0  0
 39 38  1  0  0  0  0
 39 35  1  0  0  0  0
 40 45  1  6  0  0  0
 40 41  1  0  0  0  0
 41 37  2  0  0  0  0
 42 43  1  0  0  0  0
 43 44  1  0  0  0  0
 44 42  1  6  0  0  0
 44 36  1  0  0  0  0
 45 46  1  0  0  0  0
 46 47  1  0  0  0  0
 47 49  1  0  0  0  0
 49 50  2  0  0  0  0
 49 48  1  0  0  0  0
M  END
>  <MODEL>
2

>  <REMARK>
 VINA RESULT:      -7.0      4.433     11.082
  Name = 
  18 active torsions:
  status: ('A' for Active; 'I' for Inactive)
    1  A    between atoms: C_2  and  N_40
    2  A    between atoms: C_3  and  C_25
    3  A    between atoms: C_3  and  C_44
    4  A    between atoms: C_4  and  C_19
    5  A    between atoms: C_4  and  C_35
    6  A    between atoms: C_7  and  C_9
    7  A    between atoms: C_7  and  C_43
    8  A    between atoms: C_10  and  C_17
    9  A    between atoms: C_11  and  C_46
   10  A    between atoms: C_12  and  C_35
   11  A    between atoms: C_13  and  C_37
   12  A    between atoms: C_13  and  C_44
   13  A    between atoms: C_17  and  C_38
   14  A    between atoms: C_18  and  C_44
   15  A    between atoms: C_19  and  C_39
   16  A    between atoms: C_21  and  C_48
   17  A    between atoms: C_24  and  C_48
   18  A    between atoms: C_25  and  C_33
                            x       y       z     vdW  Elec       q    Type
                         _______ _______ _______ _____ _____    ______ ____

>  <TORSDO>
F 18

$$$$
=
 OpenBabel10222419093D

 50 54  0  0  1  0  0  0  0  0999 V2000
  189.2380  176.2520  138.0720 C   0  0  2  0  0  3  0  0  0  0  0  0
  189.0720  178.5640  139.2060 C   0  0  2  0  0  3  0  0  0  0  0  0
  189.1920  177.1980  136.8750 C   0  0  2  0  0  3  0  0  0  0  0  0
  189.0130  178.9320  137.4240 S   0  0  0  0  0  0  0  0  0  0  0  0
  190.0560  177.0700  139.4690 S   0  0  0  0  0  0  0  0  0  0  0  0
  191.3410  175.0400  137.3610 C   0  0  0  0  0  0  0  0  0  0  0  0
  192.3690  176.3480  137.3800 S   0  0  0  0  0  0  0  0  0  0  0  0
  193.7600  175.5150  137.0090 N   0  0  0  0  0  0  0  0  0  0  0  0
  193.3710  174.2160  136.8710 C   0  0  0  0  0  0  0  0  0  0  0  0
  192.0480  173.9250  137.0870 N   0  0  0  0  0  0  0  0  0  0  0  0
  189.9600  175.0360  137.7200 N   0  0  0  0  0  2  0  0  0  0  0  0
  194.3670  173.1480  136.6050 C   0  0  0  0  0  2  0  0  0  0  0  0
  195.7690  173.7430  136.5690 C   0  0  0  0  0  2  0  0  0  0  0  0
  195.8890  172.5960  138.6830 O   0  0  0  0  0  1  0  0  0  0  0  0
  196.6660  173.2290  137.7070 C   0  0  2  0  0  0  0  0  0  0  0  0
  197.3810  174.4160  138.3520 C   0  0  0  0  0  2  0  0  0  0  0  0
  197.7600  175.3520  137.3870 O   0  0  0  0  0  1  0  0  0  0  0  0
  197.4050  170.9290  137.5750 O   0  0  0  0  0  1  0  0  0  0  0  0
  197.7220  172.2350  137.1910 C   0  0  1  0  0  3  0  0  0  0  0  0
  197.9160  172.3050  135.6810 C   0  0  0  0  0  2  0  0  0  0  0  0
  197.5880  170.9660  135.0560 C   0  0  0  0  0  1  0  0  0  0  0  0
  188.3830  176.8250  134.6420 O   0  0  0  0  0  0  0  0  0  0  0  0
  188.1210  176.8080  135.8790 C   0  0  0  0  0  0  0  0  0  0  0  0
  186.7480  176.4710  136.3030 C   0  0  0  0  0  0  0  0  0  0  0  0
  185.7020  177.3500  136.5160 C   0  0  0  0  0  3  0  0  0  0  0  0
  184.6660  176.5280  136.9150 C   0  0  0  0  0  0  0  0  0  0  0  0
  186.2930  175.1890  136.5650 C   0  0  0  0  0  3  0  0  0  0  0  0
  185.0340  175.2720  136.9260 O   0  0  0  0  0  0  0  0  0  0  0  0
  183.3060  176.9960  137.3120 C   0  0  0  0  0  2  0  0  0  0  0  0
  183.1590  177.1000  138.8250 C   0  0  0  0  0  0  0  0  0  0  0  0
  183.0990  175.8230  139.3560 F   0  0  0  0  0  0  0  0  0  0  0  0
  184.2480  177.7630  139.3650 F   0  0  0  0  0  0  0  0  0  0  0  0
  181.9990  177.7820  139.1510 F   0  0  0  0  0  0  0  0  0  0  0  0
  187.6700  178.3960  139.7800 C   0  0  0  0  0  2  0  0  0  0  0  0
  188.4430  177.1060  141.7030 N   0  0  0  0  0  2  0  0  0  0  0  0
  186.4590  178.3060  143.4200 C   0  0  2  0  0  3  0  0  0  0  0  0
  188.9600  175.5450  143.3450 O   0  0  0  0  0  0  0  0  0  0  0  0
  186.3350  178.2870  141.8980 C   0  0  0  0  0  2  0  0  0  0  0  0
  187.7310  178.3090  141.2980 C   0  0  2  0  0  3  0  0  0  0  0  0
  187.2180  177.0690  143.9510 C   0  0  1  0  0  3  0  0  0  0  0  0
  188.2760  176.5460  143.0120 C   0  0  0  0  0  0  0  0  0  0  0  0
  184.5590  179.7660  144.1180 C   0  0  0  0  0  2  0  0  0  0  0  0
  185.1350  179.1390  145.2350 O   0  0  0  0  0  0  0  0  0  0  0  0
  185.0660  178.3720  144.0530 C   0  0  2  0  0  3  0  0  0  0  0  0
  187.8440  177.3490  145.3160 C   0  0  0  0  0  2  0  0  0  0  0  0
  189.3040  177.7520  145.2160 C   0  0  0  0  0  2  0  0  0  0  0  0
  190.0450  177.4110  146.5010 C   0  0  0  0  0  2  0  0  0  0  0  0
  191.7290  176.5690  144.8480 O   0  0  0  0  0  0  0  0  0  0  0  0
  191.3700  176.8080  146.1830 C   0  0  0  0  0  0  0  0  0  0  0  0
  192.1830  176.5600  147.1110 O   0  0  0  0  0  1  0  0  0  0  0  0
  1 11  1  6  0  0  0
  1  5  1  0  0  0  0
  2  5  1  0  0  0  0
  2 34  1  6  0  0  0
  3 23  1  6  0  0  0
  3  4  1  0  0  0  0
  3  1  1  0  0  0  0
  4  2  1  0  0  0  0
  6  7  1  0  0  0  0
  6 11  1  0  0  0  0
  8  7  1  0  0  0  0
  9  8  2  0  0  0  0
  9 10  1  0  0  0  0
 10  6  2  0  0  0  0
 12  9  1  0  0  0  0
 13 12  1  0  0  0  0
 13 15  1  0  0  0  0
 15 16  1  0  0  0  0
 15 14  1  1  0  0  0
 17 16  1  0  0  0  0
 19 18  1  6  0  0  0
 19 15  1  0  0  0  0
 20 19  1  0  0  0  0
 21 20  1  0  0  0  0
 22 23  2  0  0  0  0
 23 24  1  0  0  0  0
 24 25  1  0  0  0  0
 24 27  2  0  0  0  0
 25 26  2  0  0  0  0
 26 28  1  0  0  0  0
 26 29  1  0  0  0  0
 27 28  1  0  0  0  0
 29 30  1  0  0  0  0
 30 33  1  0  0  0  0
 30 31  1  0  0  0  0
 30 32  1  0  0  0  0
 35 41  1  0  0  0  0
 36 38  1  6  0  0  0
 36 40  1  0  0  0  0
 36 44  1  0  0  0  0
 39 34  1  6  0  0  0
 39 35  1  0  0  0  0
 39 38  1  0  0  0  0
 40 45  1  1  0  0  0
 41 37  2  0  0  0  0
 41 40  1  0  0  0  0
 42 43  1  0  0  0  0
 44 42  1  6  0  0  0
 44 43  1  0  0  0  0
 46 45  1  0  0  0  0
 46 47  1  0  0  0  0
 48 49  2  0  0  0  0
 49 47  1  0  0  0  0
 49 50  1  0  0  0  0
M  END
>  <MODEL>
3

>  <REMARK>
 VINA RESULT:      -7.0      3.320     11.219
  Name = 
  18 active torsions:
  status: ('A' for Active; 'I' for Inactive)
    1  A    between atoms: C_2  and  N_40
    2  A    between atoms: C_3  and  C_25
    3  A    between atoms: C_3  and  C_44
    4  A    between atoms: C_4  and  C_19
    5  A    between atoms: C_4  and  C_35
    6  A    between atoms: C_7  and  C_9
    7  A    between atoms: C_7  and  C_43
    8  A    between atoms: C_10  and  C_17
    9  A    between atoms: C_11  and  C_46
   10  A    between atoms: C_12  and  C_35
   11  A    between atoms: C_13  and  C_37
   12  A    between atoms: C_13  and  C_44
   13  A    between atoms: C_17  and  C_38
   14  A    between atoms: C_18  and  C_44
   15  A    between atoms: C_19  and  C_39
   16  A    between atoms: C_21  and  C_48
   17  A    between atoms: C_24  and  C_48
   18  A    between atoms: C_25  and  C_33
                            x       y       z     vdW  Elec       q    Type
                         _______ _______ _______ _____ _____    ______ ____

>  <TORSDO>
F 18

$$$$
=
 OpenBabel10222419093D

 50 54  0  0  1  0  0  0  0  0999 V2000
  188.3470  177.7910  140.2570 C   0  0  2  0  0  3  0  0  0  0  0  0
  190.6270  177.3180  139.1440 C   0  0  2  0  0  3  0  0  0  0  0  0
  189.2890  177.7360  141.4570 C   0  0  2  0  0  3  0  0  0  0  0  0
  190.9950  177.3480  140.9270 S   0  0  0  0  0  0  0  0  0  0  0  0
  189.2370  178.4240  138.8080 S   0  0  0  0  0  0  0  0  0  0  0  0
  186.0710  178.7440  139.7000 C   0  0  0  0  0  0  0  0  0  0  0  0
  185.7850  177.8500  138.3260 S   0  0  0  0  0  0  0  0  0  0  0  0
  184.2490  178.4160  138.0340 N   0  0  0  0  0  0  0  0  0  0  0  0
  184.0040  179.3100  139.0330 C   0  0  0  0  0  0  0  0  0  0  0  0
  184.9820  179.4870  139.9780 N   0  0  0  0  0  0  0  0  0  0  0  0
  187.2110  178.6530  140.5540 N   0  0  0  0  0  2  0  0  0  0  0  0
  182.6830  179.9790  139.1480 C   0  0  0  0  0  2  0  0  0  0  0  0
  181.5850  179.0500  138.6480 C   0  0  0  0  0  2  0  0  0  0  0  0
  179.3270  179.3750  137.8770 O   0  0  0  0  0  1  0  0  0  0  0  0
  180.6590  179.7170  137.6180 C   0  0  2  0  0  0  0  0  0  0  0  0
  181.0240  179.2160  136.2210 C   0  0  0  0  0  2  0  0  0  0  0  0
  179.8760  178.9720  135.4650 O   0  0  0  0  0  1  0  0  0  0  0  0
  180.7620  181.7740  136.3500 O   0  0  0  0  0  1  0  0  0  0  0  0
  180.7920  181.2500  137.6450 C   0  0  1  0  0  3  0  0  0  0  0  0
  179.7300  181.9220  138.5080 C   0  0  0  0  0  2  0  0  0  0  0  0
  179.2500  183.1920  137.8380 C   0  0  0  0  0  1  0  0  0  0  0  0
  188.9800  175.5390  142.3830 O   0  0  0  0  0  0  0  0  0  0  0  0
  188.7990  176.7820  142.5250 C   0  0  0  0  0  0  0  0  0  0  0  0
  188.0490  177.2540  143.7060 C   0  0  0  0  0  0  0  0  0  0  0  0
  186.8650  177.9680  143.7100 C   0  0  0  0  0  3  0  0  0  0  0  0
  186.6130  178.1680  145.0540 C   0  0  0  0  0  0  0  0  0  0  0  0
  188.4340  177.0510  145.0200 C   0  0  0  0  0  3  0  0  0  0  0  0
  187.5390  177.6150  145.7960 O   0  0  0  0  0  0  0  0  0  0  0  0
  185.4580  178.9350  145.6040 C   0  0  0  0  0  2  0  0  0  0  0  0
  184.3010  179.0080  144.6150 C   0  0  0  0  0  0  0  0  0  0  0  0
  183.1160  179.1150  145.3220 F   0  0  0  0  0  0  0  0  0  0  0  0
  184.4420  180.1180  143.7990 F   0  0  0  0  0  0  0  0  0  0  0  0
  184.2630  177.8660  143.8340 F   0  0  0  0  0  0  0  0  0  0  0  0
  190.3190  175.9020  138.6700 C   0  0  0  0  0  2  0  0  0  0  0  0
  192.5160  176.3560  137.7060 N   0  0  0  0  0  2  0  0  0  0  0  0
  192.3280  174.0600  135.9690 C   0  0  2  0  0  3  0  0  0  0  0  0
  194.3950  177.1030  136.5620 O   0  0  0  0  0  0  0  0  0  0  0  0
  191.1060  174.7180  136.6070 C   0  0  0  0  0  2  0  0  0  0  0  0
  191.5190  175.3210  137.9390 C   0  0  2  0  0  3  0  0  0  0  0  0
  193.4540  175.0810  135.6940 C   0  0  1  0  0  3  0  0  0  0  0  0
  193.5130  176.2150  136.6860 C   0  0  0  0  0  0  0  0  0  0  0  0
  191.1920  172.1020  134.9190 C   0  0  0  0  0  2  0  0  0  0  0  0
  192.5580  172.1110  134.5950 O   0  0  0  0  0  0  0  0  0  0  0  0
  191.9230  173.3690  134.6640 C   0  0  2  0  0  3  0  0  0  0  0  0
  194.8180  174.3950  135.6260 C   0  0  0  0  0  2  0  0  0  0  0  0
  195.1590  173.6500  136.9040 C   0  0  0  0  0  2  0  0  0  0  0  0
  196.6530  173.7260  137.1870 C   0  0  0  0  0  2  0  0  0  0  0  0
  197.8010  175.4640  138.5780 O   0  0  0  0  0  0  0  0  0  0  0  0
  196.8920  174.3990  138.4950 C   0  0  0  0  0  0  0  0  0  0  0  0
  196.2420  174.0400  139.5110 O   0  0  0  0  0  1  0  0  0  0  0  0
  1 11  1  1  0  0  0
  1  3  1  0  0  0  0
  2 34  1  1  0  0  0
  2  4  1  0  0  0  0
  3 23  1  1  0  0  0
  4  3  1  0  0  0  0
  5  2  1  0  0  0  0
  5  1  1  0  0  0  0
  6 10  2  0  0  0  0
  6 11  1  0  0  0  0
  7  6  1  0  0  0  0
  8  7  1  0  0  0  0
  8  9  2  0  0  0  0
  9 12  1  0  0  0  0
  9 10  1  0  0  0  0
 13 12  1  0  0  0  0
 15 19  1  0  0  0  0
 15 14  1  1  0  0  0
 15 13  1  0  0  0  0
 16 15  1  0  0  0  0
 17 16  1  0  0  0  0
 19 18  1  6  0  0  0
 19 20  1  0  0  0  0
 21 20  1  0  0  0  0
 22 23  2  0  0  0  0
 23 24  1  0  0  0  0
 24 25  1  0  0  0  0
 24 27  2  0  0  0  0
 25 26  2  0  0  0  0
 26 29  1  0  0  0  0
 26 28  1  0  0  0  0
 27 28  1  0  0  0  0
 30 31  1  0  0  0  0
 30 29  1  0  0  0  0
 32 30  1  0  0  0  0
 33 30  1  0  0  0  0
 35 39  1  0  0  0  0
 36 38  1  6  0  0  0
 37 41  2  0  0  0  0
 38 39  1  0  0  0  0
 39 34  1  6  0  0  0
 40 45  1  1  0  0  0
 40 36  1  0  0  0  0
 40 41  1  0  0  0  0
 41 35  1  0  0  0  0
 43 44  1  0  0  0  0
 43 42  1  0  0  0  0
 44 42  1  1  0  0  0
 44 36  1  0  0  0  0
 45 46  1  0  0  0  0
 46 47  1  0  0  0  0
 47 49  1  0  0  0  0
 49 48  2  0  0  0  0
 49 50  1  0  0  0  0
M  END
>  <MODEL>
4

>  <REMARK>
 VINA RESULT:      -6.9      1.766      2.511
  Name = 
  18 active torsions:
  status: ('A' for Active; 'I' for Inactive)
    1  A    between atoms: C_2  and  N_40
    2  A    between atoms: C_3  and  C_25
    3  A    between atoms: C_3  and  C_44
    4  A    between atoms: C_4  and  C_19
    5  A    between atoms: C_4  and  C_35
    6  A    between atoms: C_7  and  C_9
    7  A    between atoms: C_7  and  C_43
    8  A    between atoms: C_10  and  C_17
    9  A    between atoms: C_11  and  C_46
   10  A    between atoms: C_12  and  C_35
   11  A    between atoms: C_13  and  C_37
   12  A    between atoms: C_13  and  C_44
   13  A    between atoms: C_17  and  C_38
   14  A    between atoms: C_18  and  C_44
   15  A    between atoms: C_19  and  C_39
   16  A    between atoms: C_21  and  C_48
   17  A    between atoms: C_24  and  C_48
   18  A    between atoms: C_25  and  C_33
                            x       y       z     vdW  Elec       q    Type
                         _______ _______ _______ _____ _____    ______ ____

>  <TORSDO>
F 18

$$$$
=
 OpenBabel10222419093D

 50 54  0  0  1  0  0  0  0  0999 V2000
  189.5210  177.0260  137.8870 C   0  0  2  0  0  3  0  0  0  0  0  0
  187.6440  178.0540  136.4460 C   0  0  2  0  0  3  0  0  0  0  0  0
  190.1020  176.9290  136.4790 C   0  0  2  0  0  3  0  0  0  0  0  0
  188.9130  177.5540  135.2400 S   0  0  0  0  0  0  0  0  0  0  0  0
  188.4470  178.4830  138.0070 S   0  0  0  0  0  0  0  0  0  0  0  0
  190.3530  177.2870  140.2620 C   0  0  0  0  0  0  0  0  0  0  0  0
  188.8710  177.2910  141.0180 S   0  0  0  0  0  0  0  0  0  0  0  0
  189.4420  177.3620  142.5790 N   0  0  0  0  0  0  0  0  0  0  0  0
  190.7990  177.3900  142.4590 C   0  0  0  0  0  0  0  0  0  0  0  0
  191.3260  177.3210  141.1950 N   0  0  0  0  0  0  0  0  0  0  0  0
  190.5970  177.1230  138.8650 N   0  0  0  0  0  2  0  0  0  0  0  0
  191.6690  177.3820  143.6630 C   0  0  0  0  0  2  0  0  0  0  0  0
  191.0820  176.4570  144.7210 C   0  0  0  0  0  2  0  0  0  0  0  0
  190.5660  178.5960  145.7000 O   0  0  0  0  0  1  0  0  0  0  0  0
  190.5050  177.2160  145.9270 C   0  0  2  0  0  0  0  0  0  0  0  0
  191.3400  176.8930  147.1650 C   0  0  0  0  0  2  0  0  0  0  0  0
  192.2850  175.9040  146.8830 O   0  0  0  0  0  1  0  0  0  0  0  0
  188.8240  176.6350  147.5660 O   0  0  0  0  0  1  0  0  0  0  0  0
  189.0420  176.8220  146.1980 C   0  0  1  0  0  3  0  0  0  0  0  0
  188.0430  177.8290  145.6400 C   0  0  0  0  0  2  0  0  0  0  0  0
  186.7240  177.7080  146.3720 C   0  0  0  0  0  1  0  0  0  0  0  0
  191.8140  175.2880  136.0820 O   0  0  0  0  0  0  0  0  0  0  0  0
  190.5750  175.5290  136.1510 C   0  0  0  0  0  0  0  0  0  0  0  0
  189.6280  174.4400  135.8400 C   0  0  0  0  0  0  0  0  0  0  0  0
  188.7540  173.8200  136.7140 C   0  0  0  0  0  3  0  0  0  0  0  0
  188.1270  172.8740  135.9270 C   0  0  0  0  0  0  0  0  0  0  0  0
  189.4750  173.8570  134.5940 C   0  0  0  0  0  3  0  0  0  0  0  0
  188.5590  172.9230  134.6930 O   0  0  0  0  0  0  0  0  0  0  0  0
  187.1080  171.8970  136.4120 C   0  0  0  0  0  2  0  0  0  0  0  0
  185.7710  172.5660  136.7030 C   0  0  0  0  0  0  0  0  0  0  0  0
  185.7490  172.9570  138.0320 F   0  0  0  0  0  0  0  0  0  0  0  0
  185.6130  173.6840  135.9020 F   0  0  0  0  0  0  0  0  0  0  0  0
  184.7300  171.6840  136.4720 F   0  0  0  0  0  0  0  0  0  0  0  0
  186.6160  176.9480  136.6530 C   0  0  0  0  0  2  0  0  0  0  0  0
  185.5860  178.4880  138.2430 N   0  0  0  0  0  2  0  0  0  0  0  0
  183.0750  177.0730  138.1280 C   0  0  2  0  0  3  0  0  0  0  0  0
  184.8350  179.7280  140.0590 O   0  0  0  0  0  0  0  0  0  0  0  0
  184.4020  176.4400  137.7120 C   0  0  0  0  0  2  0  0  0  0  0  0
  185.3130  177.5330  137.1790 C   0  0  2  0  0  3  0  0  0  0  0  0
  183.2610  178.1180  139.2500 C   0  0  1  0  0  3  0  0  0  0  0  0
  184.5790  178.8500  139.1960 C   0  0  0  0  0  0  0  0  0  0  0  0
  181.2010  175.5510  137.4920 C   0  0  0  0  0  2  0  0  0  0  0  0
  180.7830  176.4650  138.4730 O   0  0  0  0  0  0  0  0  0  0  0  0
  182.1040  175.9830  138.5890 C   0  0  2  0  0  3  0  0  0  0  0  0
  182.1170  179.1310  139.2570 C   0  0  0  0  0  2  0  0  0  0  0  0
  181.9280  179.8050  137.9100 C   0  0  0  0  0  2  0  0  0  0  0  0
  180.4690  179.7440  137.4800 C   0  0  0  0  0  2  0  0  0  0  0  0
  179.3560  178.1870  135.8640 O   0  0  0  0  0  1  0  0  0  0  0  0
  180.3600  179.1310  136.1260 C   0  0  0  0  0  0  0  0  0  0  0  0
  181.1390  179.4980  135.2080 O   0  0  0  0  0  0  0  0  0  0  0  0
  1  5  1  0  0  0  0
  1 11  1  1  0  0  0
  2 34  1  1  0  0  0
  2  5  1  0  0  0  0
  3 23  1  6  0  0  0
  3  1  1  0  0  0  0
  4  2  1  0  0  0  0
  4  3  1  0  0  0  0
  6  7  1  0  0  0  0
  6 10  2  0  0  0  0
  7  8  1  0  0  0  0
  9  8  2  0  0  0  0
  9 12  1  0  0  0  0
 10  9  1  0  0  0  0
 11  6  1  0  0  0  0
 12 13  1  0  0  0  0
 13 15  1  0  0  0  0
 15 14  1  6  0  0  0
 15 19  1  0  0  0  0
 15 16  1  0  0  0  0
 17 16  1  0  0  0  0
 19 18  1  1  0  0  0
 20 19  1  0  0  0  0
 20 21  1  0  0  0  0
 22 23  2  0  0  0  0
 24 23  1  0  0  0  0
 24 25  1  0  0  0  0
 26 29  1  0  0  0  0
 26 25  2  0  0  0  0
 27 28  1  0  0  0  0
 27 24  2  0  0  0  0
 28 26  1  0  0  0  0
 29 30  1  0  0  0  0
 30 31  1  0  0  0  0
 32 30  1  0  0  0  0
 33 30  1  0  0  0  0
 35 41  1  0  0  0  0
 36 38  1  1  0  0  0
 36 44  1  0  0  0  0
 36 40  1  0  0  0  0
 39 34  1  1  0  0  0
 39 38  1  0  0  0  0
 39 35  1  0  0  0  0
 40 45  1  6  0  0  0
 41 40  1  0  0  0  0
 41 37  2  0  0  0  0
 42 43  1  0  0  0  0
 43 44  1  0  0  0  0
 44 42  1  6  0  0  0
 46 45  1  0  0  0  0
 47 46  1  0  0  0  0
 48 49  1  0  0  0  0
 49 47  1  0  0  0  0
 50 49  2  0  0  0  0
M  END
>  <MODEL>
5

>  <REMARK>
 VINA RESULT:      -6.5      4.036     10.541
  Name = 
  18 active torsions:
  status: ('A' for Active; 'I' for Inactive)
    1  A    between atoms: C_2  and  N_40
    2  A    between atoms: C_3  and  C_25
    3  A    between atoms: C_3  and  C_44
    4  A    between atoms: C_4  and  C_19
    5  A    between atoms: C_4  and  C_35
    6  A    between atoms: C_7  and  C_9
    7  A    between atoms: C_7  and  C_43
    8  A    between atoms: C_10  and  C_17
    9  A    between atoms: C_11  and  C_46
   10  A    between atoms: C_12  and  C_35
   11  A    between atoms: C_13  and  C_37
   12  A    between atoms: C_13  and  C_44
   13  A    between atoms: C_17  and  C_38
   14  A    between atoms: C_18  and  C_44
   15  A    between atoms: C_19  and  C_39
   16  A    between atoms: C_21  and  C_48
   17  A    between atoms: C_24  and  C_48
   18  A    between atoms: C_25  and  C_33
                            x       y       z     vdW  Elec       q    Type
                         _______ _______ _______ _____ _____    ______ ____

>  <TORSDO>
F 18

$$$$
=
 OpenBabel10222419093D

 50 55  0  0  1  0  0  0  0  0999 V2000
  190.3090  177.9490  141.1210 C   0  0  2  0  0  3  0  0  0  0  0  0
  187.7580  177.5650  141.1670 C   0  0  2  0  0  3  0  0  0  0  0  0
  190.1280  177.1170  142.3890 C   0  0  2  0  0  3  0  0  0  0  0  0
  188.3610  176.7550  142.6810 S   0  0  0  0  0  0  0  0  0  0  0  0
  189.0470  177.4890  139.9020 S   0  0  2  0  0  3  0  0  0  0  0  0
  191.8590  176.9410  139.3950 C   0  0  0  0  0  0  0  0  0  0  0  0
  190.6960  176.2480  138.4280 S   0  0  2  0  0  3  0  0  0  0  0  0
  191.7250  175.6790  137.2520 N   0  0  0  0  0  0  0  0  0  0  0  0
  192.9720  176.0470  137.6620 C   0  0  0  0  0  0  0  0  0  0  0  0
  193.0690  176.7670  138.8260 N   0  0  0  0  0  0  0  0  0  0  0  0
  191.6380  177.7280  140.5650 N   0  0  0  0  0  2  0  0  0  0  0  0
  194.1620  175.7710  136.8190 C   0  0  0  0  0  2  0  0  0  0  0  0
  194.5090  174.2890  136.8800 C   0  0  0  0  0  2  0  0  0  0  0  0
  196.1280  174.8820  138.5610 O   0  0  0  0  0  1  0  0  0  0  0  0
  195.8990  174.0230  137.4800 C   0  0  2  0  0  0  0  0  0  0  0  0
  196.9610  174.2930  136.4150 C   0  0  0  0  0  2  0  0  0  0  0  0
  197.5930  175.5170  136.6420 O   0  0  0  0  0  1  0  0  0  0  0  0
  195.0460  172.2570  138.8960 O   0  0  0  0  0  1  0  0  0  0  0  0
  196.0390  172.5690  137.9630 C   0  0  1  0  0  3  0  0  0  0  0  0
  196.0210  171.5600  136.8210 C   0  0  0  0  0  2  0  0  0  0  0  0
  196.2490  170.1640  137.3610 C   0  0  0  0  0  1  0  0  0  0  0  0
  191.6250  178.6870  143.4260 O   0  0  0  0  0  0  0  0  0  0  0  0
  190.7790  177.7620  143.5930 C   0  0  0  0  0  0  0  0  0  0  0  0
  190.5080  177.2970  144.9680 C   0  0  0  0  0  0  0  0  0  0  0  0
  189.3140  177.3910  145.6590 C   0  0  0  0  0  3  0  0  0  0  0  0
  189.6080  176.8330  146.8890 C   0  0  0  0  0  0  0  0  0  0  0  0
  191.4370  176.6870  145.7940 C   0  0  0  0  0  3  0  0  0  0  0  0
  190.8500  176.4220  146.9370 O   0  0  0  0  0  0  0  0  0  0  0  0
  188.6550  176.7300  148.0320 C   0  0  0  0  0  2  0  0  0  0  0  0
  188.3470  178.0930  148.6400 C   0  0  0  0  0  0  0  0  0  0  0  0
  189.5200  178.8240  148.7140 F   0  0  0  0  0  0  0  0  0  0  0  0
  187.4400  178.7740  147.8460 F   0  0  0  0  0  0  0  0  0  0  0  0
  187.8230  177.9450  149.9130 F   0  0  0  0  0  0  0  0  0  0  0  0
  187.3510  179.0080  141.4400 C   0  0  0  0  0  2  0  0  0  0  0  0
  185.2410  178.9970  142.6680 N   0  0  0  0  0  2  0  0  0  0  0  0
  183.7480  178.3800  140.2770 C   0  0  2  0  0  3  0  0  0  0  0  0
  183.3650  178.5880  143.9780 O   0  0  0  0  0  0  0  0  0  0  0  0
  185.2480  178.1190  140.4080 C   0  0  0  0  0  2  0  0  0  0  0  0
  185.8390  179.1530  141.3500 C   0  0  2  0  0  3  0  0  0  0  0  0
  183.0210  178.2500  141.6330 C   0  0  1  0  0  3  0  0  0  0  0  0
  183.8590  178.6490  142.8220 C   0  0  0  0  0  0  0  0  0  0  0  0
  183.5190  177.7520  137.8720 C   0  0  0  0  0  2  0  0  0  0  0  0
  182.2730  178.1160  138.4080 O   0  0  0  0  0  0  0  0  0  0  0  0
  183.1390  177.4050  139.2650 C   0  0  2  0  0  3  0  0  0  0  0  0
  181.7170  179.0470  141.6400 C   0  0  0  0  0  2  0  0  0  0  0  0
  180.4910  178.1600  141.5290 C   0  0  0  0  0  2  0  0  0  0  0  0
  179.2560  178.8840  142.0440 C   0  0  0  0  0  2  0  0  0  0  0  0
  179.6850  177.8950  144.3050 O   0  0  0  0  0  1  0  0  0  0  0  0
  179.3120  179.0020  143.5280 C   0  0  0  0  0  0  0  0  0  0  0  0
  179.0730  180.1090  144.0770 O   0  0  0  0  0  0  0  0  0  0  0  0
  1 11  1  6  0  0  0
  1  3  1  0  0  0  0
  2 34  1  1  0  0  0
  2  4  1  0  0  0  0
  3  4  1  0  0  0  0
  3 23  1  1  0  0  0
  5  1  1  0  0  0  0
  5  2  1  0  0  0  0
  6 11  1  0  0  0  0
  7  6  1  0  0  0  0
  7  5  1  0  0  0  0
  8  9  2  0  0  0  0
  8  7  1  0  0  0  0
  9 10  1  0  0  0  0
 10  6  2  0  0  0  0
 12 13  1  0  0  0  0
 12  9  1  0  0  0  0
 13 15  1  0  0  0  0
 15 19  1  0  0  0  0
 15 14  1  0  0  0  0
 16 17  1  0  0  0  0
 16 15  1  0  0  0  0
 19 18  1  0  0  0  0
 20 21  1  0  0  0  0
 20 19  1  0  0  0  0
 22 23  2  0  0  0  0
 23 24  1  0  0  0  0
 24 25  1  0  0  0  0
 24 27  2  0  0  0  0
 25 26  2  0  0  0  0
 26 28  1  0  0  0  0
 26 29  1  0  0  0  0
 27 28  1  0  0  0  0
 29 30  1  0  0  0  0
 30 31  1  0  0  0  0
 30 33  1  0  0  0  0
 32 30  1  0  0  0  0
 35 41  1  0  0  0  0
 36 38  1  0  0  0  0
 36 40  1  0  0  0  0
 38 39  1  0  0  0  0
 39 34  1  0  0  0  0
 39 35  1  0  0  0  0
 40 45  1  0  0  0  0
 40 41  1  0  0  0  0
 41 37  2  0  0  0  0
 42 43  1  0  0  0  0
 42 44  1  0  0  0  0
 43 44  1  0  0  0  0
 44 36  1  0  0  0  0
 46 45  1  0  0  0  0
 46 47  1  0  0  0  0
 47 49  1  0  0  0  0
 49 50  2  0  0  0  0
 49 48  1  0  0  0  0
M  END
>  <MODEL>
6

>  <REMARK>
 VINA RESULT:      -6.5      2.448     11.507
  Name = 
  18 active torsions:
  status: ('A' for Active; 'I' for Inactive)
    1  A    between atoms: C_2  and  N_40
    2  A    between atoms: C_3  and  C_25
    3  A    between atoms: C_3  and  C_44
    4  A    between atoms: C_4  and  C_19
    5  A    between atoms: C_4  and  C_35
    6  A    between atoms: C_7  and  C_9
    7  A    between atoms: C_7  and  C_43
    8  A    between atoms: C_10  and  C_17
    9  A    between atoms: C_11  and  C_46
   10  A    between atoms: C_12  and  C_35
   11  A    between atoms: C_13  and  C_37
   12  A    between atoms: C_13  and  C_44
   13  A    between atoms: C_17  and  C_38
   14  A    between atoms: C_18  and  C_44
   15  A    between atoms: C_19  and  C_39
   16  A    between atoms: C_21  and  C_48
   17  A    between atoms: C_24  and  C_48
   18  A    between atoms: C_25  and  C_33
                            x       y       z     vdW  Elec       q    Type
                         _______ _______ _______ _____ _____    ______ ____

>  <TORSDO>
F 18

$$$$
=
 OpenBabel10222419093D

 50 54  0  0  1  0  0  0  0  0999 V2000
  189.2340  176.4010  138.0560 C   0  0  2  0  0  3  0  0  0  0  0  0
  189.0660  178.5600  139.4600 C   0  0  2  0  0  3  0  0  0  0  0  0
  189.2430  177.4880  136.9830 C   0  0  2  0  0  3  0  0  0  0  0  0
  189.0730  179.1450  137.7360 S   0  0  0  0  0  0  0  0  0  0  0  0
  190.0170  177.0270  139.5680 S   0  0  0  0  0  0  0  0  0  0  0  0
  191.3380  175.2500  137.2500 C   0  0  0  0  0  0  0  0  0  0  0  0
  192.3800  176.5330  137.4390 S   0  0  0  0  0  0  0  0  0  0  0  0
  193.7690  175.7290  137.0010 N   0  0  0  0  0  0  0  0  0  0  0  0
  193.3670  174.4600  136.7060 C   0  0  0  0  0  0  0  0  0  0  0  0
  192.0370  174.1650  136.8630 N   0  0  0  0  0  0  0  0  0  0  0  0
  189.9490  175.2240  137.5790 N   0  0  0  0  0  2  0  0  0  0  0  0
  194.3560  173.4160  136.3380 C   0  0  0  0  0  2  0  0  0  0  0  0
  195.7460  174.0300  136.2350 C   0  0  0  0  0  2  0  0  0  0  0  0
  197.8770  172.9090  136.2280 O   0  0  0  0  0  1  0  0  0  0  0  0
  196.8010  173.2640  137.0490 C   0  0  2  0  0  0  0  0  0  0  0  0
  196.1720  171.9850  137.6010 C   0  0  0  0  0  2  0  0  0  0  0  0
  196.9510  170.8710  137.2830 O   0  0  0  0  0  1  0  0  0  0  0  0
  197.6990  175.3820  137.7960 O   0  0  0  0  0  1  0  0  0  0  0  0
  197.3310  174.1040  138.2250 C   0  0  1  0  0  3  0  0  0  0  0  0
  196.3380  174.2030  139.3770 C   0  0  0  0  0  2  0  0  0  0  0  0
  196.7920  175.2610  140.3600 C   0  0  0  0  0  1  0  0  0  0  0  0
  187.9870  178.1270  135.0350 O   0  0  0  0  0  0  0  0  0  0  0  0
  188.2010  177.2430  135.9130 C   0  0  0  0  0  0  0  0  0  0  0  0
  187.3690  176.0230  135.9010 C   0  0  0  0  0  0  0  0  0  0  0  0
  186.0930  175.8790  136.4150 C   0  0  0  0  0  3  0  0  0  0  0  0
  185.7920  174.5540  136.1630 C   0  0  0  0  0  0  0  0  0  0  0  0
  187.7570  174.8080  135.3630 C   0  0  0  0  0  3  0  0  0  0  0  0
  186.7750  173.9550  135.5400 O   0  0  0  0  0  0  0  0  0  0  0  0
  184.5270  173.8730  136.5660 C   0  0  0  0  0  2  0  0  0  0  0  0
  184.7890  172.4980  137.1690 C   0  0  0  0  0  0  0  0  0  0  0  0
  185.6520  172.6390  138.2420 F   0  0  0  0  0  0  0  0  0  0  0  0
  183.6030  171.9400  137.6130 F   0  0  0  0  0  0  0  0  0  0  0  0
  185.3660  171.6620  136.2280 F   0  0  0  0  0  0  0  0  0  0  0  0
  187.6430  178.3500  139.9640 C   0  0  0  0  0  2  0  0  0  0  0  0
  188.3150  177.0520  141.9190 N   0  0  0  0  0  2  0  0  0  0  0  0
  186.2630  178.2650  143.5440 C   0  0  2  0  0  3  0  0  0  0  0  0
  188.7420  175.4840  143.5810 O   0  0  0  0  0  0  0  0  0  0  0  0
  186.2100  178.2500  142.0170 C   0  0  0  0  0  2  0  0  0  0  0  0
  187.6320  178.2600  141.4830 C   0  0  2  0  0  3  0  0  0  0  0  0
  186.9860  177.0220  144.1070 C   0  0  1  0  0  3  0  0  0  0  0  0
  188.0820  176.4910  143.2180 C   0  0  0  0  0  0  0  0  0  0  0  0
  184.3330  179.7370  144.1260 C   0  0  0  0  0  2  0  0  0  0  0  0
  184.8580  179.1320  145.2800 O   0  0  0  0  0  0  0  0  0  0  0  0
  184.8430  178.3420  144.1110 C   0  0  2  0  0  3  0  0  0  0  0  0
  187.5510  177.2950  145.5010 C   0  0  0  0  0  2  0  0  0  0  0  0
  188.9000  177.9890  145.4570 C   0  0  0  0  0  2  0  0  0  0  0  0
  189.7570  177.5720  146.6430 C   0  0  0  0  0  2  0  0  0  0  0  0
  192.0690  176.7140  147.0850 O   0  0  0  0  0  1  0  0  0  0  0  0
  191.0480  177.0020  146.1660 C   0  0  0  0  0  0  0  0  0  0  0  0
  191.2020  176.7350  144.9460 O   0  0  0  0  0  0  0  0  0  0  0  0
  1 11  1  6  0  0  0
  1  5  1  0  0  0  0
  2  5  1  0  0  0  0
  2 34  1  6  0  0  0
  3 23  1  6  0  0  0
  3  4  1  0  0  0  0
  3  1  1  0  0  0  0
  4  2  1  0  0  0  0
  6  7  1  0  0  0  0
  6 11  1  0  0  0  0
  8  7  1  0  0  0  0
  9 10  1  0  0  0  0
  9  8  2  0  0  0  0
 10  6  2  0  0  0  0
 12  9  1  0  0  0  0
 13 12  1  0  0  0  0
 13 15  1  0  0  0  0
 15 14  1  6  0  0  0
 15 16  1  0  0  0  0
 15 19  1  0  0  0  0
 17 16  1  0  0  0  0
 19 18  1  6  0  0  0
 19 20  1  0  0  0  0
 20 21  1  0  0  0  0
 22 23  2  0  0  0  0
 24 23  1  0  0  0  0
 24 25  1  0  0  0  0
 26 25  2  0  0  0  0
 26 29  1  0  0  0  0
 27 28  1  0  0  0  0
 27 24  2  0  0  0  0
 28 26  1  0  0  0  0
 29 30  1  0  0  0  0
 30 32  1  0  0  0  0
 30 31  1  0  0  0  0
 33 30  1  0  0  0  0
 35 41  1  0  0  0  0
 36 38  1  6  0  0  0
 36 40  1  0  0  0  0
 36 44  1  0  0  0  0
 39 34  1  6  0  0  0
 39 35  1  0  0  0  0
 39 38  1  0  0  0  0
 40 45  1  1  0  0  0
 41 37  2  0  0  0  0
 41 40  1  0  0  0  0
 42 43  1  0  0  0  0
 44 42  1  6  0  0  0
 44 43  1  0  0  0  0
 46 45  1  0  0  0  0
 46 47  1  0  0  0  0
 49 47  1  0  0  0  0
 49 48  1  0  0  0  0
 50 49  2  0  0  0  0
M  END
>  <MODEL>
7

>  <REMARK>
 VINA RESULT:      -6.4      4.028     11.506
  Name = 
  18 active torsions:
  status: ('A' for Active; 'I' for Inactive)
    1  A    between atoms: C_2  and  N_40
    2  A    between atoms: C_3  and  C_25
    3  A    between atoms: C_3  and  C_44
    4  A    between atoms: C_4  and  C_19
    5  A    between atoms: C_4  and  C_35
    6  A    between atoms: C_7  and  C_9
    7  A    between atoms: C_7  and  C_43
    8  A    between atoms: C_10  and  C_17
    9  A    between atoms: C_11  and  C_46
   10  A    between atoms: C_12  and  C_35
   11  A    between atoms: C_13  and  C_37
   12  A    between atoms: C_13  and  C_44
   13  A    between atoms: C_17  and  C_38
   14  A    between atoms: C_18  and  C_44
   15  A    between atoms: C_19  and  C_39
   16  A    between atoms: C_21  and  C_48
   17  A    between atoms: C_24  and  C_48
   18  A    between atoms: C_25  and  C_33
                            x       y       z     vdW  Elec       q    Type
                         _______ _______ _______ _____ _____    ______ ____

>  <TORSDO>
F 18

$$$$
=
 OpenBabel10222419093D

 50 54  0  0  1  0  0  0  0  0999 V2000
  189.3770  177.0960  137.6470 C   0  0  2  0  0  3  0  0  0  0  0  0
  187.4980  178.1710  136.2430 C   0  0  2  0  0  3  0  0  0  0  0  0
  189.9090  176.9470  136.2240 C   0  0  2  0  0  3  0  0  0  0  0  0
  188.7070  177.5950  135.0090 S   0  0  0  0  0  0  0  0  0  0  0  0
  188.3670  178.5980  137.7690 S   0  0  0  0  0  0  0  0  0  0  0  0
  190.2920  177.2530  140.0000 C   0  0  0  0  0  0  0  0  0  0  0  0
  188.8400  177.1810  140.8090 S   0  0  0  0  0  0  0  0  0  0  0  0
  189.4680  177.1850  142.3490 N   0  0  0  0  0  0  0  0  0  0  0  0
  190.8190  177.2520  142.1820 C   0  0  0  0  0  0  0  0  0  0  0  0
  191.2980  177.2630  140.8970 N   0  0  0  0  0  0  0  0  0  0  0  0
  190.4870  177.1680  138.5890 N   0  0  0  0  0  2  0  0  0  0  0  0
  191.7330  177.2040  143.3510 C   0  0  0  0  0  2  0  0  0  0  0  0
  191.1810  176.2500  144.4030 C   0  0  0  0  0  2  0  0  0  0  0  0
  191.7740  178.1220  145.7960 O   0  0  0  0  0  1  0  0  0  0  0  0
  191.2160  176.8390  145.8220 C   0  0  2  0  0  0  0  0  0  0  0  0
  192.0870  175.9510  146.7090 C   0  0  0  0  0  2  0  0  0  0  0  0
  192.5250  174.8250  146.0070 O   0  0  0  0  0  1  0  0  0  0  0  0
  189.8660  177.3920  147.7520 O   0  0  0  0  0  1  0  0  0  0  0  0
  189.8070  176.9240  146.4360 C   0  0  1  0  0  3  0  0  0  0  0  0
  188.8530  177.7840  145.6160 C   0  0  0  0  0  2  0  0  0  0  0  0
  187.4770  177.7750  146.2470 C   0  0  0  0  0  1  0  0  0  0  0  0
  189.4560  174.7140  135.4560 O   0  0  0  0  0  0  0  0  0  0  0  0
  190.3140  175.5220  135.9110 C   0  0  0  0  0  0  0  0  0  0  0  0
  191.6760  175.0210  136.1880 C   0  0  0  0  0  0  0  0  0  0  0  0
  192.8690  175.6780  135.9500 C   0  0  0  0  0  3  0  0  0  0  0  0
  193.8250  174.7690  136.3640 C   0  0  0  0  0  0  0  0  0  0  0  0
  191.9670  173.7830  136.7340 C   0  0  0  0  0  3  0  0  0  0  0  0
  193.2710  173.6770  136.8260 O   0  0  0  0  0  0  0  0  0  0  0  0
  195.2990  174.9800  136.2770 C   0  0  0  0  0  2  0  0  0  0  0  0
  196.0300  174.3870  137.4750 C   0  0  0  0  0  0  0  0  0  0  0  0
  195.3950  174.8010  138.6340 F   0  0  0  0  0  0  0  0  0  0  0  0
  196.0030  173.0050  137.4140 F   0  0  0  0  0  0  0  0  0  0  0  0
  197.3450  174.8200  137.4990 F   0  0  0  0  0  0  0  0  0  0  0  0
  186.4330  177.1120  136.5050 C   0  0  0  0  0  2  0  0  0  0  0  0
  185.5950  178.5550  138.2870 N   0  0  0  0  0  2  0  0  0  0  0  0
  182.9620  177.3850  138.1200 C   0  0  2  0  0  3  0  0  0  0  0  0
  185.0130  179.6510  140.2520 O   0  0  0  0  0  0  0  0  0  0  0  0
  184.2140  176.6880  137.5890 C   0  0  0  0  0  2  0  0  0  0  0  0
  185.2060  177.7480  137.1400 C   0  0  2  0  0  3  0  0  0  0  0  0
  183.2760  178.2820  139.3380 C   0  0  1  0  0  3  0  0  0  0  0  0
  184.6520  178.8970  139.3120 C   0  0  0  0  0  0  0  0  0  0  0  0
  181.1530  175.8670  137.3140 C   0  0  0  0  0  2  0  0  0  0  0  0
  180.6300  176.8410  138.1800 O   0  0  0  0  0  0  0  0  0  0  0  0
  181.9100  176.3410  138.5010 C   0  0  2  0  0  3  0  0  0  0  0  0
  182.2300  179.3850  139.4960 C   0  0  0  0  0  2  0  0  0  0  0  0
  181.9890  180.1480  138.2070 C   0  0  0  0  0  2  0  0  0  0  0  0
  181.9960  181.6490  138.4620 C   0  0  0  0  0  2  0  0  0  0  0  0
  179.8530  181.6500  137.1640 O   0  0  0  0  0  0  0  0  0  0  0  0
  181.0160  182.3250  137.5660 C   0  0  0  0  0  0  0  0  0  0  0  0
  181.2100  183.5170  137.2120 O   0  0  0  0  0  1  0  0  0  0  0  0
  1  5  1  0  0  0  0
  1 11  1  1  0  0  0
  2 34  1  1  0  0  0
  2  5  1  0  0  0  0
  3 23  1  6  0  0  0
  3  1  1  0  0  0  0
  4  3  1  0  0  0  0
  4  2  1  0  0  0  0
  6  7  1  0  0  0  0
  6 10  2  0  0  0  0
  7  8  1  0  0  0  0
  9  8  2  0  0  0  0
  9 12  1  0  0  0  0
 10  9  1  0  0  0  0
 11  6  1  0  0  0  0
 12 13  1  0  0  0  0
 13 15  1  0  0  0  0
 15 14  1  6  0  0  0
 15 19  1  0  0  0  0
 15 16  1  0  0  0  0
 17 16  1  0  0  0  0
 19 18  1  1  0  0  0
 20 21  1  0  0  0  0
 20 19  1  0  0  0  0
 22 23  2  0  0  0  0
 23 24  1  0  0  0  0
 24 27  2  0  0  0  0
 25 24  1  0  0  0  0
 25 26  2  0  0  0  0
 26 28  1  0  0  0  0
 27 28  1  0  0  0  0
 29 26  1  0  0  0  0
 29 30  1  0  0  0  0
 30 33  1  0  0  0  0
 30 31  1  0  0  0  0
 32 30  1  0  0  0  0
 35 41  1  0  0  0  0
 36 38  1  1  0  0  0
 36 44  1  0  0  0  0
 36 40  1  0  0  0  0
 39 34  1  1  0  0  0
 39 38  1  0  0  0  0
 39 35  1  0  0  0  0
 40 45  1  6  0  0  0
 41 40  1  0  0  0  0
 41 37  2  0  0  0  0
 42 43  1  0  0  0  0
 43 44  1  0  0  0  0
 44 42  1  6  0  0  0
 46 47  1  0  0  0  0
 46 45  1  0  0  0  0
 48 49  2  0  0  0  0
 49 47  1  0  0  0  0
 50 49  1  0  0  0  0
M  END
>  <MODEL>
8

>  <REMARK>
 VINA RESULT:      -6.4      4.279     11.118
  Name = 
  18 active torsions:
  status: ('A' for Active; 'I' for Inactive)
    1  A    between atoms: C_2  and  N_40
    2  A    between atoms: C_3  and  C_25
    3  A    between atoms: C_3  and  C_44
    4  A    between atoms: C_4  and  C_19
    5  A    between atoms: C_4  and  C_35
    6  A    between atoms: C_7  and  C_9
    7  A    between atoms: C_7  and  C_43
    8  A    between atoms: C_10  and  C_17
    9  A    between atoms: C_11  and  C_46
   10  A    between atoms: C_12  and  C_35
   11  A    between atoms: C_13  and  C_37
   12  A    between atoms: C_13  and  C_44
   13  A    between atoms: C_17  and  C_38
   14  A    between atoms: C_18  and  C_44
   15  A    between atoms: C_19  and  C_39
   16  A    between atoms: C_21  and  C_48
   17  A    between atoms: C_24  and  C_48
   18  A    between atoms: C_25  and  C_33
                            x       y       z     vdW  Elec       q    Type
                         _______ _______ _______ _____ _____    ______ ____

>  <TORSDO>
F 18

$$$$
=
 OpenBabel10222419093D

 50 55  0  0  1  0  0  0  0  0999 V2000
  190.8590  177.5890  141.1110 C   0  0  2  0  0  3  0  0  0  0  0  0
  188.3990  176.8470  141.3500 C   0  0  2  0  0  3  0  0  0  0  0  0
  190.8840  176.7950  142.4150 C   0  0  2  0  0  3  0  0  0  0  0  0
  189.2120  176.1970  142.8440 S   0  0  0  0  0  0  0  0  0  0  0  0
  189.6000  176.9020  140.0010 S   0  0  2  0  0  3  0  0  0  0  0  0
  192.4140  176.7680  139.2920 C   0  0  0  0  0  0  0  0  0  0  0  0
  191.2910  175.9150  138.4080 S   0  0  2  0  0  3  0  0  0  0  0  0
  192.3080  175.4690  137.1700 N   0  0  0  0  0  0  0  0  0  0  0  0
  193.5190  176.0030  137.4940 C   0  0  0  0  0  0  0  0  0  0  0  0
  193.5960  176.7460  138.6450 N   0  0  0  0  0  0  0  0  0  0  0  0
  192.1670  177.5350  140.4700 N   0  0  0  0  0  2  0  0  0  0  0  0
  194.6790  175.8730  136.5760 C   0  0  0  0  0  2  0  0  0  0  0  0
  195.4190  174.5720  136.8560 C   0  0  0  0  0  2  0  0  0  0  0  0
  197.2910  176.0020  136.3580 O   0  0  0  0  0  1  0  0  0  0  0  0
  196.9470  174.7410  136.8580 C   0  0  2  0  0  0  0  0  0  0  0  0
  197.5670  173.6760  135.9540 C   0  0  0  0  0  2  0  0  0  0  0  0
  198.3030  172.7560  136.7030 O   0  0  0  0  0  1  0  0  0  0  0  0
  198.4350  175.6230  138.5490 O   0  0  0  0  0  1  0  0  0  0  0  0
  197.5320  174.5920  138.2740 C   0  0  1  0  0  3  0  0  0  0  0  0
  196.4600  174.5300  139.3550 C   0  0  0  0  0  2  0  0  0  0  0  0
  196.9380  175.2520  140.5970 C   0  0  0  0  0  1  0  0  0  0  0  0
  192.4350  178.4060  143.3000 O   0  0  0  0  0  0  0  0  0  0  0  0
  191.5130  177.5780  143.5490 C   0  0  0  0  0  0  0  0  0  0  0  0
  191.1280  177.3540  144.9570 C   0  0  0  0  0  0  0  0  0  0  0  0
  190.1800  178.0510  145.6820 C   0  0  0  0  0  3  0  0  0  0  0  0
  190.2310  177.4620  146.9310 C   0  0  0  0  0  0  0  0  0  0  0  0
  191.6810  176.3910  145.7840 C   0  0  0  0  0  3  0  0  0  0  0  0
  191.1080  176.4910  146.9600 O   0  0  0  0  0  0  0  0  0  0  0  0
  189.4210  177.8840  148.1100 C   0  0  0  0  0  2  0  0  0  0  0  0
  187.9920  177.3610  148.0350 C   0  0  0  0  0  0  0  0  0  0  0  0
  187.2720  177.8760  149.1000 F   0  0  0  0  0  0  0  0  0  0  0  0
  187.3980  177.7640  146.8520 F   0  0  0  0  0  0  0  0  0  0  0  0
  187.9820  175.9780  148.1060 F   0  0  0  0  0  0  0  0  0  0  0  0
  187.8070  178.2290  141.6040 C   0  0  0  0  0  2  0  0  0  0  0  0
  185.9110  178.9010  140.2200 N   0  0  0  0  0  2  0  0  0  0  0  0
  184.0870  178.6600  142.4430 C   0  0  2  0  0  3  0  0  0  0  0  0
  184.2700  179.9490  138.9510 O   0  0  0  0  0  0  0  0  0  0  0  0
  185.5950  178.8210  142.6230 C   0  0  0  0  0  2  0  0  0  0  0  0
  186.2950  178.1910  141.4310 C   0  0  2  0  0  3  0  0  0  0  0  0
  183.5800  179.3730  141.1690 C   0  0  1  0  0  3  0  0  0  0  0  0
  184.5790  179.3990  140.0400 C   0  0  0  0  0  0  0  0  0  0  0  0
  184.2740  179.3720  144.8280 C   0  0  0  0  0  2  0  0  0  0  0  0
  183.4260  178.2590  144.7100 O   0  0  0  0  0  0  0  0  0  0  0  0
  183.3570  179.2110  143.6710 C   0  0  2  0  0  3  0  0  0  0  0  0
  182.2710  178.7570  140.6750 C   0  0  0  0  0  2  0  0  0  0  0  0
  182.4120  177.2840  140.3360 C   0  0  0  0  0  2  0  0  0  0  0  0
  181.4160  176.8840  139.2570 C   0  0  0  0  0  2  0  0  0  0  0  0
  179.7050  176.4560  141.0360 O   0  0  0  0  0  1  0  0  0  0  0  0
  180.3300  176.0520  139.8470 C   0  0  0  0  0  0  0  0  0  0  0  0
  179.9430  175.0130  139.2500 O   0  0  0  0  0  0  0  0  0  0  0  0
  1 11  1  6  0  0  0
  1  3  1  0  0  0  0
  2 34  1  1  0  0  0
  2  4  1  0  0  0  0
  3  4  1  0  0  0  0
  3 23  1  1  0  0  0
  5  1  1  0  0  0  0
  5  2  1  0  0  0  0
  6 11  1  0  0  0  0
  7  6  1  0  0  0  0
  7  5  1  0  0  0  0
  8  9  2  0  0  0  0
  8  7  1  0  0  0  0
  9 10  1  0  0  0  0
 10  6  2  0  0  0  0
 12 13  1  0  0  0  0
 12  9  1  0  0  0  0
 13 15  1  0  0  0  0
 14 15  1  0  0  0  0
 15 19  1  0  0  0  0
 16 17  1  0  0  0  0
 16 15  1  0  0  0  0
 19 18  1  0  0  0  0
 19 20  1  0  0  0  0
 20 21  1  0  0  0  0
 22 23  2  0  0  0  0
 23 24  1  0  0  0  0
 24 25  1  0  0  0  0
 24 27  2  0  0  0  0
 25 26  2  0  0  0  0
 26 28  1  0  0  0  0
 26 29  1  0  0  0  0
 27 28  1  0  0  0  0
 30 33  1  0  0  0  0
 30 29  1  0  0  0  0
 30 31  1  0  0  0  0
 32 30  1  0  0  0  0
 35 39  1  0  0  0  0
 36 38  1  0  0  0  0
 36 44  1  0  0  0  0
 37 41  2  0  0  0  0
 39 34  1  0  0  0  0
 39 38  1  0  0  0  0
 40 36  1  0  0  0  0
 41 35  1  0  0  0  0
 41 40  1  0  0  0  0
 43 42  1  0  0  0  0
 44 43  1  0  0  0  0
 44 42  1  0  0  0  0
 45 40  1  0  0  0  0
 46 45  1  0  0  0  0
 47 49  1  0  0  0  0
 47 46  1  0  0  0  0
 49 48  1  0  0  0  0
 50 49  2  0  0  0  0
M  END
>  <MODEL>
9

>  <REMARK>
 VINA RESULT:      -6.2      2.454     11.549
  Name = 
  18 active torsions:
  status: ('A' for Active; 'I' for Inactive)
    1  A    between atoms: C_2  and  N_40
    2  A    between atoms: C_3  and  C_25
    3  A    between atoms: C_3  and  C_44
    4  A    between atoms: C_4  and  C_19
    5  A    between atoms: C_4  and  C_35
    6  A    between atoms: C_7  and  C_9
    7  A    between atoms: C_7  and  C_43
    8  A    between atoms: C_10  and  C_17
    9  A    between atoms: C_11  and  C_46
   10  A    between atoms: C_12  and  C_35
   11  A    between atoms: C_13  and  C_37
   12  A    between atoms: C_13  and  C_44
   13  A    between atoms: C_17  and  C_38
   14  A    between atoms: C_18  and  C_44
   15  A    between atoms: C_19  and  C_39
   16  A    between atoms: C_21  and  C_48
   17  A    between atoms: C_24  and  C_48
   18  A    between atoms: C_25  and  C_33
                            x       y       z     vdW  Elec       q    Type
                         _______ _______ _______ _____ _____    ______ ____

>  <TORSDO>
F 18

$$$$
