=
 OpenBabel10222419443D

 54 58  0  0  1  0  0  0  0  0999 V2000
  187.8780  177.0730  143.2830 C   0  0  1  0  0  3  0  0  0  0  0  0
  188.8750  178.4320  139.9630 C   0  0  2  0  0  3  0  0  0  0  0  0
  189.5190  178.2490  141.3610 C   0  0  0  0  0  2  0  0  0  0  0  0
  187.5880  177.7410  140.5120 C   0  0  0  0  0  2  0  0  0  0  0  0
  188.2730  177.6010  141.8300 C   0  0  2  0  0  3  0  0  0  0  0  0
  189.5690  177.7010  138.7760 C   0  0  0  0  0  0  0  0  0  0  0  0
  190.6990  175.8250  136.9440 C   0  0  0  0  0  3  0  0  0  0  0  0
  190.6880  176.8800  139.0940 C   0  0  0  0  0  3  0  0  0  0  0  0
  191.2470  175.9640  138.2060 C   0  0  0  0  0  3  0  0  0  0  0  0
  189.0590  177.6200  137.4470 C   0  0  0  0  0  0  0  0  0  0  0  0
  189.6090  176.6490  136.5670 C   0  0  0  0  0  3  0  0  0  0  0  0
  187.8410  178.7660  136.6550 S   0  0  0  0  0  0  0  0  0  0  0  0
  186.4040  177.7260  137.1910 C   0  0  0  0  0  2  0  0  0  0  0  0
  186.3820  176.1780  137.2530 C   0  0  0  0  0  2  0  0  0  0  0  0
  185.6310  175.4780  136.0570 C   0  0  0  0  0  2  0  0  0  0  0  0
  185.2210  173.7090  136.6580 P   0  0  2  0  0  0  0  0  0  0  0  0
  185.8630  173.0810  137.8930 O   0  0  0  0  0  0  0  0  0  0  0  0
  187.7970  173.3260  135.4190 O   0  0  0  0  0  1  0  0  0  0  0  0
  186.1920  172.6560  135.0070 P   0  0  0  0  0  0  0  0  0  0  0  0
  186.4840  170.9730  135.4820 O   0  0  0  0  0  1  0  0  0  0  0  0
  183.5560  173.9230  137.3230 C   0  0  0  0  0  2  0  0  0  0  0  0
  182.9740  175.2810  137.0390 N   0  0  0  0  0  0  0  0  0  0  0  0
  181.0650  177.5000  137.5320 C   0  0  0  0  0  2  0  0  0  0  0  0
  182.0910  178.0080  135.3430 O   0  0  0  0  0  1  0  0  0  0  0  0
  182.3150  175.5150  138.3350 C   0  0  0  0  0  2  0  0  0  0  0  0
  181.9010  175.5500  136.0460 C   0  0  0  0  0  2  0  0  0  0  0  0
  182.1070  177.0370  138.5290 C   0  0  0  0  0  2  0  0  0  0  0  0
  181.3890  177.0060  136.1450 C   0  0  1  0  0  3  0  0  0  0  0  0
  189.0140  176.3760  143.9630 N   0  0  0  0  0  2  0  0  0  0  0  0
  189.5520  177.0370  144.9490 C   0  0  0  0  0  2  0  0  0  0  0  0
  191.5890  175.6640  145.7920 C   0  0  0  0  0  3  0  0  0  0  0  0
  190.6480  177.3140  147.1850 C   0  0  0  0  0  3  0  0  0  0  0  0
  191.5180  177.0820  148.1950 N   0  0  0  0  0  0  0  0  0  0  0  0
  192.4900  176.1080  147.9970 C   0  0  0  0  0  3  0  0  0  0  0  0
  192.5370  175.3870  146.8330 C   0  0  0  0  0  3  0  0  0  0  0  0
  190.6130  176.6580  145.9510 C   0  0  0  0  0  0  0  0  0  0  0  0
  187.3450  178.1470  144.0860 N   0  0  0  0  0  2  0  0  0  0  0  0
  185.9930  177.7860  144.4670 C   0  0  0  0  0  2  0  0  0  0  0  0
  185.0560  178.9930  143.9830 C   0  0  0  0  0  2  0  0  0  0  0  0
  182.6060  178.8730  144.4970 N   0  0  0  0  0  0  0  0  0  0  0  0
  183.8440  178.9250  144.8680 C   0  0  0  0  0  3  0  0  0  0  0  0
  181.9310  178.8540  143.2030 C   0  0  0  0  0  0  0  0  0  0  0  0
  182.6490  178.8450  142.1800 O   0  0  0  0  0  0  0  0  0  0  0  0
  180.1030  179.0090  143.2110 S   0  0  0  0  0  0  0  0  0  0  0  0
  179.9370  180.8600  141.1110 N   0  0  0  0  0  2  0  0  0  0  0  0
  179.1900  178.6510  140.5870 N   0  0  0  0  0  2  0  0  0  0  0  0
  179.6520  179.5020  141.4790 C   0  0  0  0  0  0  0  0  0  0  0  0
  181.1350  181.6290  137.6210 C   0  0  0  0  0  3  0  0  0  0  0  0
  179.9550  181.3730  139.7810 C   0  0  0  0  0  0  0  0  0  0  0  0
  178.9420  182.7380  137.9330 C   0  0  0  0  0  2  0  0  0  0  0  0
  180.3580  182.8810  137.3410 C   0  0  2  0  0  3  0  0  0  0  0  0
  179.0220  182.2170  139.3870 C   0  0  0  0  0  3  0  0  0  0  0  0
  180.9910  180.9700  138.7930 C   0  0  0  0  0  3  0  0  0  0  0  0
  180.3090  183.1240  136.0040 F   0  0  0  0  0  0  0  0  0  0  0  0
  1 29  1  1  0  0  0
  1 37  1  0  0  0  0
  2  6  1  6  0  0  0
  2  4  1  0  0  0  0
  2  3  1  0  0  0  0
  3  5  1  0  0  0  0
  4  5  1  0  0  0  0
  5  1  1  1  0  0  0
  6  8  1  0  0  0  0
  7  9  1  0  0  0  0
  9  8  2  0  0  0  0
 10  6  2  0  0  0  0
 11  7  2  0  0  0  0
 11 10  1  0  0  0  0
 12 13  1  0  0  0  0
 12 10  1  0  0  0  0
 13 14  1  0  0  0  0
 15 16  1  0  0  0  0
 15 14  1  0  0  0  0
 16 21  1  0  0  0  0
 16 17  2  1  0  0  0
 19 18  1  0  0  0  0
 19 20  1  0  0  0  0
 19 16  1  0  0  0  0
 22 21  1  0  0  0  0
 22 25  1  0  0  0  0
 23 27  1  0  0  0  0
 25 27  1  0  0  0  0
 26 28  1  0  0  0  0
 26 22  1  0  0  0  0
 28 24  1  1  0  0  0
 28 23  1  0  0  0  0
 29 30  1  0  0  0  0
 30 36  1  0  0  0  0
 31 36  2  0  0  0  0
 31 35  1  0  0  0  0
 32 33  2  0  0  0  0
 34 33  1  0  0  0  0
 35 34  2  0  0  0  0
 36 32  1  0  0  0  0
 37 38  1  0  0  0  0
 39 38  1  0  0  0  0
 39 41  1  0  0  0  0
 40 41  2  0  0  0  0
 42 44  1  0  0  0  0
 42 40  1  0  0  0  0
 43 42  2  0  0  0  0
 45 47  1  0  0  0  0
 46 47  2  0  0  0  0
 47 44  1  0  0  0  0
 48 53  2  0  0  0  0
 49 45  1  0  0  0  0
 50 52  1  0  0  0  0
 51 54  1  6  0  0  0
 51 48  1  0  0  0  0
 51 50  1  0  0  0  0
 52 49  2  0  0  0  0
 53 49  1  0  0  0  0
M  END
>  <MODEL>
1

>  <REMARK>
 VINA RESULT:      -6.3      0.000      0.000
  Name = 
  20 active torsions:
  status: ('A' for Active; 'I' for Inactive)
    1  A    between atoms: C_3  and  N_5
    2  A    between atoms: C_3  and  P_11
    3  A    between atoms: N_6  and  C_10
    4  A    between atoms: N_8  and  C_13
    5  A    between atoms: C_9  and  C_22
    6  A    between atoms: C_10  and  S_53
    7  A    between atoms: P_11  and  P_25
    8  A    between atoms: P_11  and  C_35
    9  A    between atoms: C_15  and  N_17
   10  A    between atoms: C_15  and  N_29
   11  A    between atoms: C_15  and  C_48
   12  A    between atoms: N_17  and  C_23
   13  A    between atoms: C_20  and  S_33
   14  A    between atoms: C_20  and  C_34
   15  A    between atoms: C_23  and  C_39
   16  A    between atoms: S_33  and  C_37
   17  A    between atoms: C_34  and  C_35
   18  A    between atoms: C_39  and  C_51
   19  A    between atoms: C_42  and  S_53
   20  A    between atoms: C_45  and  C_47
                            x       y       z     vdW  Elec       q    Type
                         _______ _______ _______ _____ _____    ______ ____

>  <TORSDO>
F 20

$$$$
=
 OpenBabel10222419443D

 54 58  0  0  1  0  0  0  0  0999 V2000
  185.0090  179.2100  141.3370 C   0  0  1  0  0  3  0  0  0  0  0  0
  181.5220  178.7500  140.1200 C   0  0  2  0  0  3  0  0  0  0  0  0
  182.8980  179.1350  139.5190 C   0  0  0  0  0  2  0  0  0  0  0  0
  182.2210  178.5760  141.5040 C   0  0  0  0  0  2  0  0  0  0  0  0
  183.5100  178.9560  140.8560 C   0  0  2  0  0  3  0  0  0  0  0  0
  180.8460  177.4690  139.5480 C   0  0  0  0  0  0  0  0  0  0  0  0
  179.0820  175.3470  138.8110 C   0  0  0  0  0  3  0  0  0  0  0  0
  180.2740  176.5690  140.4920 C   0  0  0  0  0  3  0  0  0  0  0  0
  179.4150  175.5310  140.1420 C   0  0  0  0  0  3  0  0  0  0  0  0
  180.5740  177.2260  138.1700 C   0  0  0  0  0  0  0  0  0  0  0  0
  179.6600  176.1920  137.8300 C   0  0  0  0  0  3  0  0  0  0  0  0
  181.4110  178.0120  136.7180 S   0  0  0  0  0  0  0  0  0  0  0  0
  181.1250  176.5220  135.6540 C   0  0  0  0  0  2  0  0  0  0  0  0
  182.2070  175.5040  135.2150 C   0  0  0  0  0  2  0  0  0  0  0  0
  182.9720  174.7980  136.3990 C   0  0  0  0  0  2  0  0  0  0  0  0
  182.9020  172.9230  136.0240 P   0  0  2  0  0  0  0  0  0  0  0  0
  183.1450  172.3440  134.6320 O   0  0  0  0  0  0  0  0  0  0  0  0
  180.6420  171.4460  135.0120 O   0  0  0  0  0  1  0  0  0  0  0  0
  180.7430  172.6990  136.2830 P   0  0  0  0  0  0  0  0  0  0  0  0
  180.4300  171.6660  137.6890 O   0  0  0  0  0  1  0  0  0  0  0  0
  184.4190  172.3350  136.8070 C   0  0  0  0  0  2  0  0  0  0  0  0
  185.6660  172.9110  136.1930 N   0  0  0  0  0  0  0  0  0  0  0  0
  188.5220  172.7940  135.3920 C   0  0  0  0  0  2  0  0  0  0  0  0
  187.8920  175.1720  135.1820 O   0  0  0  0  0  1  0  0  0  0  0  0
  186.3880  171.6540  135.9380 C   0  0  0  0  0  2  0  0  0  0  0  0
  186.6580  173.7460  136.9180 C   0  0  0  0  0  2  0  0  0  0  0  0
  187.4430  171.8910  134.8300 C   0  0  0  0  0  2  0  0  0  0  0  0
  187.9180  174.0030  136.0600 C   0  0  1  0  0  3  0  0  0  0  0  0
  185.1050  179.4100  142.8170 N   0  0  0  0  0  2  0  0  0  0  0  0
  185.7410  178.4690  143.4580 C   0  0  0  0  0  2  0  0  0  0  0  0
  187.1330  177.4710  145.4100 C   0  0  0  0  0  3  0  0  0  0  0  0
  185.5200  179.1270  145.8650 C   0  0  0  0  0  3  0  0  0  0  0  0
  185.7620  179.1200  147.1960 N   0  0  0  0  0  0  0  0  0  0  0  0
  186.7520  178.2650  147.6670 C   0  0  0  0  0  3  0  0  0  0  0  0
  187.4280  177.4340  146.8140 C   0  0  0  0  0  3  0  0  0  0  0  0
  186.1580  178.3420  144.9010 C   0  0  0  0  0  0  0  0  0  0  0  0
  185.8760  178.1520  140.8770 N   0  0  0  0  0  2  0  0  0  0  0  0
  187.2400  178.5260  141.2000 C   0  0  0  0  0  2  0  0  0  0  0  0
  187.9720  178.7930  139.7990 C   0  0  0  0  0  2  0  0  0  0  0  0
  188.2250  177.0350  138.0310 N   0  0  0  0  0  0  0  0  0  0  0  0
  187.5170  177.6780  138.9030 C   0  0  0  0  0  3  0  0  0  0  0  0
  189.6170  177.1070  137.5980 C   0  0  0  0  0  0  0  0  0  0  0  0
  189.8780  177.8420  136.6220 O   0  0  0  0  0  0  0  0  0  0  0  0
  190.8100  175.9870  138.4270 S   0  0  0  0  0  0  0  0  0  0  0  0
  190.2640  176.4480  141.1380 N   0  0  0  0  0  2  0  0  0  0  0  0
  192.2190  177.5320  140.2910 N   0  0  0  0  0  2  0  0  0  0  0  0
  191.1600  176.7820  140.0680 C   0  0  0  0  0  0  0  0  0  0  0  0
  190.5370  178.2770  144.4230 C   0  0  0  0  0  3  0  0  0  0  0  0
  190.5000  176.6920  142.5230 C   0  0  0  0  0  0  0  0  0  0  0  0
  191.2640  175.9380  144.7930 C   0  0  0  0  0  2  0  0  0  0  0  0
  191.5450  177.4170  145.1260 C   0  0  2  0  0  3  0  0  0  0  0  0
  191.0640  175.7630  143.2700 C   0  0  0  0  0  3  0  0  0  0  0  0
  190.1070  177.9680  143.1790 C   0  0  0  0  0  3  0  0  0  0  0  0
  191.5060  177.6350  146.4680 F   0  0  0  0  0  0  0  0  0  0  0  0
  1 37  1  1  0  0  0
  1 29  1  0  0  0  0
  2  6  1  6  0  0  0
  2  4  1  0  0  0  0
  3  2  1  0  0  0  0
  3  5  1  0  0  0  0
  5  1  1  1  0  0  0
  5  4  1  0  0  0  0
  6  8  1  0  0  0  0
  7  9  1  0  0  0  0
  9  8  2  0  0  0  0
 10  6  2  0  0  0  0
 11 10  1  0  0  0  0
 11  7  2  0  0  0  0
 12 10  1  0  0  0  0
 13 12  1  0  0  0  0
 14 13  1  0  0  0  0
 14 15  1  0  0  0  0
 16 17  2  6  0  0  0
 16 19  1  0  0  0  0
 16 15  1  0  0  0  0
 16 21  1  0  0  0  0
 18 19  1  0  0  0  0
 19 20  1  0  0  0  0
 22 21  1  0  0  0  0
 22 26  1  0  0  0  0
 23 28  1  0  0  0  0
 25 22  1  0  0  0  0
 27 23  1  0  0  0  0
 27 25  1  0  0  0  0
 28 24  1  6  0  0  0
 28 26  1  0  0  0  0
 29 30  1  0  0  0  0
 30 36  1  0  0  0  0
 31 35  1  0  0  0  0
 32 33  2  0  0  0  0
 33 34  1  0  0  0  0
 35 34  2  0  0  0  0
 36 31  2  0  0  0  0
 36 32  1  0  0  0  0
 37 38  1  0  0  0  0
 39 38  1  0  0  0  0
 40 41  2  0  0  0  0
 41 39  1  0  0  0  0
 42 40  1  0  0  0  0
 42 44  1  0  0  0  0
 43 42  2  0  0  0  0
 44 47  1  0  0  0  0
 45 49  1  0  0  0  0
 47 46  2  0  0  0  0
 47 45  1  0  0  0  0
 48 51  1  0  0  0  0
 49 53  1  0  0  0  0
 49 52  2  0  0  0  0
 50 51  1  0  0  0  0
 51 54  1  1  0  0  0
 52 50  1  0  0  0  0
 53 48  2  0  0  0  0
M  END
>  <MODEL>
2

>  <REMARK>
 VINA RESULT:      -6.2      3.938      8.495
  Name = 
  20 active torsions:
  status: ('A' for Active; 'I' for Inactive)
    1  A    between atoms: C_3  and  N_5
    2  A    between atoms: C_3  and  P_11
    3  A    between atoms: N_6  and  C_10
    4  A    between atoms: N_8  and  C_13
    5  A    between atoms: C_9  and  C_22
    6  A    between atoms: C_10  and  S_53
    7  A    between atoms: P_11  and  P_25
    8  A    between atoms: P_11  and  C_35
    9  A    between atoms: C_15  and  N_17
   10  A    between atoms: C_15  and  N_29
   11  A    between atoms: C_15  and  C_48
   12  A    between atoms: N_17  and  C_23
   13  A    between atoms: C_20  and  S_33
   14  A    between atoms: C_20  and  C_34
   15  A    between atoms: C_23  and  C_39
   16  A    between atoms: S_33  and  C_37
   17  A    between atoms: C_34  and  C_35
   18  A    between atoms: C_39  and  C_51
   19  A    between atoms: C_42  and  S_53
   20  A    between atoms: C_45  and  C_47
                            x       y       z     vdW  Elec       q    Type
                         _______ _______ _______ _____ _____    ______ ____

>  <TORSDO>
F 20

$$$$
=
 OpenBabel10222419443D

 54 58  0  0  1  0  0  0  0  0999 V2000
  188.1830  177.7010  138.3320 C   0  0  1  0  0  3  0  0  0  0  0  0
  184.8320  177.6170  136.7110 C   0  0  2  0  0  3  0  0  0  0  0  0
  186.2670  177.1260  136.3900 C   0  0  0  0  0  2  0  0  0  0  0  0
  185.3650  178.1500  138.0770 C   0  0  0  0  0  2  0  0  0  0  0  0
  186.7190  177.6510  137.6990 C   0  0  2  0  0  3  0  0  0  0  0  0
  183.7270  176.5250  136.8060 C   0  0  0  0  0  0  0  0  0  0  0  0
  181.9340  174.4430  137.5860 C   0  0  0  0  0  3  0  0  0  0  0  0
  184.1560  175.2030  137.1150 C   0  0  0  0  0  3  0  0  0  0  0  0
  183.2890  174.1810  137.4940 C   0  0  0  0  0  3  0  0  0  0  0  0
  182.3230  176.7720  136.8150 C   0  0  0  0  0  0  0  0  0  0  0  0
  181.4540  175.7340  137.2480 C   0  0  0  0  0  3  0  0  0  0  0  0
  181.4560  178.2710  136.1630 S   0  0  0  0  0  0  0  0  0  0  0  0
  179.9060  177.8700  137.0950 C   0  0  0  0  0  2  0  0  0  0  0  0
  179.1570  178.8240  138.0580 C   0  0  0  0  0  2  0  0  0  0  0  0
  180.0870  179.7700  138.9090 C   0  0  0  0  0  2  0  0  0  0  0  0
  180.6270  178.7450  140.4310 P   0  0  2  0  0  0  0  0  0  0  0  0
  180.3950  177.2400  140.5440 O   0  0  0  0  0  0  0  0  0  0  0  0
  179.2740  178.1630  142.9100 O   0  0  0  0  0  1  0  0  0  0  0  0
  179.1590  179.5750  141.8220 P   0  0  0  0  0  0  0  0  0  0  0  0
  179.9540  180.7690  142.8630 O   0  0  0  0  0  1  0  0  0  0  0  0
  182.4200  178.7080  140.2320 C   0  0  0  0  0  2  0  0  0  0  0  0
  183.1650  178.9490  141.5170 N   0  0  0  0  0  0  0  0  0  0  0  0
  185.0370  178.1630  143.6830 C   0  0  0  0  0  2  0  0  0  0  0  0
  183.8710  180.1650  144.5360 O   0  0  0  0  0  1  0  0  0  0  0  0
  184.2320  177.9500  141.3460 C   0  0  0  0  0  2  0  0  0  0  0  0
  182.6280  178.6630  142.8730 C   0  0  0  0  0  2  0  0  0  0  0  0
  185.4390  178.3410  142.2330 C   0  0  0  0  0  2  0  0  0  0  0  0
  183.7140  178.8300  143.9600 C   0  0  1  0  0  3  0  0  0  0  0  0
  188.1540  177.7990  139.8250 N   0  0  0  0  0  2  0  0  0  0  0  0
  189.2400  177.3950  140.4220 C   0  0  0  0  0  2  0  0  0  0  0  0
  188.8210  177.3350  142.9850 C   0  0  0  0  0  3  0  0  0  0  0  0
  191.0160  177.6150  142.1750 C   0  0  0  0  0  3  0  0  0  0  0  0
  191.5560  177.6900  143.4130 N   0  0  0  0  0  0  0  0  0  0  0  0
  190.6980  177.5630  144.5000 C   0  0  0  0  0  3  0  0  0  0  0  0
  189.3500  177.4040  144.3170 C   0  0  0  0  0  3  0  0  0  0  0  0
  189.6650  177.4350  141.8680 C   0  0  0  0  0  0  0  0  0  0  0  0
  188.9700  176.5800  137.8790 N   0  0  0  0  0  2  0  0  0  0  0  0
  189.8940  177.0670  136.8710 C   0  0  0  0  0  2  0  0  0  0  0  0
  191.3090  176.3910  137.2020 C   0  0  0  0  0  2  0  0  0  0  0  0
  191.8570  174.2590  136.0030 N   0  0  0  0  0  0  0  0  0  0  0  0
  191.1440  174.9430  136.8390 C   0  0  0  0  0  3  0  0  0  0  0  0
  193.0030  174.5660  135.1540 C   0  0  0  0  0  0  0  0  0  0  0  0
  193.1400  175.7500  134.7770 O   0  0  0  0  0  0  0  0  0  0  0  0
  194.0310  173.1540  134.5940 S   0  0  0  0  0  0  0  0  0  0  0  0
  195.9690  174.1870  136.3370 N   0  0  0  0  0  2  0  0  0  0  0  0
  195.6510  171.8210  136.4500 N   0  0  0  0  0  2  0  0  0  0  0  0
  195.3510  172.9730  135.8880 C   0  0  0  0  0  0  0  0  0  0  0  0
  196.9280  174.7560  139.9380 C   0  0  0  0  0  3  0  0  0  0  0  0
  196.7740  174.3250  137.5060 C   0  0  0  0  0  0  0  0  0  0  0  0
  199.0120  174.4340  138.6390 C   0  0  0  0  0  2  0  0  0  0  0  0
  198.3370  175.2390  139.7670 C   0  0  2  0  0  3  0  0  0  0  0  0
  198.0880  174.3730  137.4010 C   0  0  0  0  0  3  0  0  0  0  0  0
  196.1820  174.3970  138.8690 C   0  0  0  0  0  3  0  0  0  0  0  0
  199.0270  175.1230  140.9330 F   0  0  0  0  0  0  0  0  0  0  0  0
  1 37  1  1  0  0  0
  1 29  1  0  0  0  0
  2  6  1  1  0  0  0
  2  4  1  0  0  0  0
  3  2  1  0  0  0  0
  3  5  1  0  0  0  0
  5  4  1  0  0  0  0
  5  1  1  6  0  0  0
  6 10  2  0  0  0  0
  6  8  1  0  0  0  0
  8  9  2  0  0  0  0
  9  7  1  0  0  0  0
 10 11  1  0  0  0  0
 11  7  2  0  0  0  0
 12 10  1  0  0  0  0
 12 13  1  0  0  0  0
 13 14  1  0  0  0  0
 14 15  1  0  0  0  0
 15 16  1  0  0  0  0
 16 17  2  6  0  0  0
 16 19  1  0  0  0  0
 19 20  1  0  0  0  0
 19 18  1  0  0  0  0
 21 16  1  0  0  0  0
 21 22  1  0  0  0  0
 22 26  1  0  0  0  0
 23 28  1  0  0  0  0
 25 22  1  0  0  0  0
 25 27  1  0  0  0  0
 26 28  1  0  0  0  0
 27 23  1  0  0  0  0
 28 24  1  6  0  0  0
 29 30  1  0  0  0  0
 30 36  1  0  0  0  0
 31 35  1  0  0  0  0
 32 33  2  0  0  0  0
 33 34  1  0  0  0  0
 35 34  2  0  0  0  0
 36 32  1  0  0  0  0
 36 31  2  0  0  0  0
 38 39  1  0  0  0  0
 38 37  1  0  0  0  0
 40 41  2  0  0  0  0
 41 39  1  0  0  0  0
 42 40  1  0  0  0  0
 43 42  2  0  0  0  0
 44 42  1  0  0  0  0
 44 47  1  0  0  0  0
 45 49  1  0  0  0  0
 47 45  1  0  0  0  0
 47 46  2  0  0  0  0
 49 53  1  0  0  0  0
 50 51  1  0  0  0  0
 51 48  1  0  0  0  0
 51 54  1  1  0  0  0
 52 49  2  0  0  0  0
 52 50  1  0  0  0  0
 53 48  2  0  0  0  0
M  END
>  <MODEL>
3

>  <REMARK>
 VINA RESULT:      -6.1      5.337     11.094
  Name = 
  20 active torsions:
  status: ('A' for Active; 'I' for Inactive)
    1  A    between atoms: C_3  and  N_5
    2  A    between atoms: C_3  and  P_11
    3  A    between atoms: N_6  and  C_10
    4  A    between atoms: N_8  and  C_13
    5  A    between atoms: C_9  and  C_22
    6  A    between atoms: C_10  and  S_53
    7  A    between atoms: P_11  and  P_25
    8  A    between atoms: P_11  and  C_35
    9  A    between atoms: C_15  and  N_17
   10  A    between atoms: C_15  and  N_29
   11  A    between atoms: C_15  and  C_48
   12  A    between atoms: N_17  and  C_23
   13  A    between atoms: C_20  and  S_33
   14  A    between atoms: C_20  and  C_34
   15  A    between atoms: C_23  and  C_39
   16  A    between atoms: S_33  and  C_37
   17  A    between atoms: C_34  and  C_35
   18  A    between atoms: C_39  and  C_51
   19  A    between atoms: C_42  and  S_53
   20  A    between atoms: C_45  and  C_47
                            x       y       z     vdW  Elec       q    Type
                         _______ _______ _______ _____ _____    ______ ____

>  <TORSDO>
F 20

$$$$
=
 OpenBabel10222419443D

 54 58  0  0  1  0  0  0  0  0999 V2000
  187.0920  177.9250  139.7750 C   0  0  1  0  0  3  0  0  0  0  0  0
  184.4610  177.8910  137.1410 C   0  0  2  0  0  3  0  0  0  0  0  0
  185.9950  177.6840  137.2240 C   0  0  0  0  0  2  0  0  0  0  0  0
  184.4450  178.0840  138.6890 C   0  0  0  0  0  2  0  0  0  0  0  0
  185.9230  177.8760  138.6900 C   0  0  2  0  0  3  0  0  0  0  0  0
  183.6240  176.6900  136.6100 C   0  0  0  0  0  0  0  0  0  0  0  0
  182.1380  174.2770  136.2540 C   0  0  0  0  0  3  0  0  0  0  0  0
  184.1960  175.3940  136.7570 C   0  0  0  0  0  3  0  0  0  0  0  0
  183.4800  174.2130  136.5830 C   0  0  0  0  0  3  0  0  0  0  0  0
  182.2650  176.7560  136.1860 C   0  0  0  0  0  0  0  0  0  0  0  0
  181.5330  175.5440  136.0570 C   0  0  0  0  0  3  0  0  0  0  0  0
  181.3540  178.2620  135.6120 S   0  0  0  0  0  0  0  0  0  0  0  0
  179.8510  177.8190  136.6010 C   0  0  0  0  0  2  0  0  0  0  0  0
  179.8050  177.6230  138.1370 C   0  0  0  0  0  2  0  0  0  0  0  0
  178.9360  178.6840  138.9150 C   0  0  0  0  0  2  0  0  0  0  0  0
  180.0870  180.1790  139.2280 P   0  0  2  0  0  0  0  0  0  0  0  0
  181.3810  180.4090  138.4500 O   0  0  0  0  0  0  0  0  0  0  0  0
  179.1590  179.0720  141.7240 O   0  0  0  0  0  1  0  0  0  0  0  0
  180.8000  179.5340  141.1910 P   0  0  0  0  0  0  0  0  0  0  0  0
  181.4950  177.9090  141.0530 O   0  0  0  0  0  1  0  0  0  0  0  0
  179.1280  181.5360  138.5250 C   0  0  0  0  0  2  0  0  0  0  0  0
  179.9590  182.7490  138.2070 N   0  0  0  0  0  0  0  0  0  0  0  0
  180.5530  185.2310  136.6910 C   0  0  0  0  0  2  0  0  0  0  0  0
  182.6330  184.7140  137.9180 O   0  0  0  0  0  1  0  0  0  0  0  0
  178.9310  183.5510  137.5240 C   0  0  0  0  0  2  0  0  0  0  0  0
  181.1040  182.7650  137.2590 C   0  0  0  0  0  2  0  0  0  0  0  0
  179.3370  185.0440  137.5750 C   0  0  0  0  0  2  0  0  0  0  0  0
  181.6100  184.2030  137.0060 C   0  0  1  0  0  3  0  0  0  0  0  0
  188.4440  178.0600  139.1480 N   0  0  0  0  0  2  0  0  0  0  0  0
  189.0710  176.9350  138.9480 C   0  0  0  0  0  2  0  0  0  0  0  0
  191.6060  176.3750  138.8660 C   0  0  0  0  0  3  0  0  0  0  0  0
  190.3990  176.5850  136.8530 C   0  0  0  0  0  3  0  0  0  0  0  0
  191.4800  176.3370  136.0780 N   0  0  0  0  0  0  0  0  0  0  0  0
  192.6860  176.0730  136.7180 C   0  0  0  0  0  3  0  0  0  0  0  0
  192.7780  176.1010  138.0850 C   0  0  0  0  0  3  0  0  0  0  0  0
  190.3690  176.6200  138.2500 C   0  0  0  0  0  0  0  0  0  0  0  0
  186.8400  178.9620  140.7460 N   0  0  0  0  0  2  0  0  0  0  0  0
  186.2670  178.3370  141.9240 C   0  0  0  0  0  2  0  0  0  0  0  0
  185.1390  179.3420  142.4580 C   0  0  0  0  0  2  0  0  0  0  0  0
  184.2800  178.4300  144.6280 N   0  0  0  0  0  0  0  0  0  0  0  0
  184.2550  178.5050  143.3370 C   0  0  0  0  0  3  0  0  0  0  0  0
  185.0860  179.0630  145.6690 C   0  0  0  0  0  0  0  0  0  0  0  0
  185.3590  180.2740  145.5290 O   0  0  0  0  0  0  0  0  0  0  0  0
  185.7500  177.9750  146.9880 S   0  0  0  0  0  0  0  0  0  0  0  0
  187.6060  177.4810  144.9450 N   0  0  0  0  0  2  0  0  0  0  0  0
  188.3940  177.0670  147.1630 N   0  0  0  0  0  2  0  0  0  0  0  0
  187.4070  177.4150  146.3650 C   0  0  0  0  0  0  0  0  0  0  0  0
  190.9050  178.5070  143.4370 C   0  0  0  0  0  3  0  0  0  0  0  0
  188.8630  177.3900  144.2790 C   0  0  0  0  0  0  0  0  0  0  0  0
  190.5930  176.0870  143.0090 C   0  0  0  0  0  2  0  0  0  0  0  0
  191.0810  177.4230  142.4150 C   0  0  2  0  0  3  0  0  0  0  0  0
  189.2090  176.2700  143.6730 C   0  0  0  0  0  3  0  0  0  0  0  0
  189.8290  178.5200  144.2570 C   0  0  0  0  0  3  0  0  0  0  0  0
  192.3800  177.3420  142.0240 F   0  0  0  0  0  0  0  0  0  0  0  0
  1 29  1  6  0  0  0
  1 37  1  0  0  0  0
  2  6  1  1  0  0  0
  2  3  1  0  0  0  0
  2  4  1  0  0  0  0
  3  5  1  0  0  0  0
  4  5  1  0  0  0  0
  5  1  1  6  0  0  0
  6  8  1  0  0  0  0
  7  9  1  0  0  0  0
  9  8  2  0  0  0  0
 10  6  2  0  0  0  0
 11 10  1  0  0  0  0
 11  7  2  0  0  0  0
 12 10  1  0  0  0  0
 12 13  1  0  0  0  0
 13 14  1  0  0  0  0
 14 15  1  0  0  0  0
 15 16  1  0  0  0  0
 16 17  2  6  0  0  0
 16 19  1  0  0  0  0
 19 18  1  0  0  0  0
 20 19  1  0  0  0  0
 21 16  1  0  0  0  0
 22 21  1  0  0  0  0
 23 28  1  0  0  0  0
 23 27  1  0  0  0  0
 25 27  1  0  0  0  0
 25 22  1  0  0  0  0
 26 22  1  0  0  0  0
 28 26  1  0  0  0  0
 28 24  1  1  0  0  0
 30 29  1  0  0  0  0
 32 36  2  0  0  0  0
 33 34  2  0  0  0  0
 33 32  1  0  0  0  0
 34 35  1  0  0  0  0
 35 31  2  0  0  0  0
 36 31  1  0  0  0  0
 36 30  1  0  0  0  0
 37 38  1  0  0  0  0
 38 39  1  0  0  0  0
 39 41  1  0  0  0  0
 40 42  1  0  0  0  0
 41 40  2  0  0  0  0
 42 44  1  0  0  0  0
 43 42  2  0  0  0  0
 45 47  1  0  0  0  0
 47 44  1  0  0  0  0
 47 46  2  0  0  0  0
 48 53  2  0  0  0  0
 49 45  1  0  0  0  0
 50 52  1  0  0  0  0
 51 54  1  1  0  0  0
 51 50  1  0  0  0  0
 51 48  1  0  0  0  0
 52 49  2  0  0  0  0
 53 49  1  0  0  0  0
M  END
>  <MODEL>
4

>  <REMARK>
 VINA RESULT:      -6.1      4.307      8.428
  Name = 
  20 active torsions:
  status: ('A' for Active; 'I' for Inactive)
    1  A    between atoms: C_3  and  N_5
    2  A    between atoms: C_3  and  P_11
    3  A    between atoms: N_6  and  C_10
    4  A    between atoms: N_8  and  C_13
    5  A    between atoms: C_9  and  C_22
    6  A    between atoms: C_10  and  S_53
    7  A    between atoms: P_11  and  P_25
    8  A    between atoms: P_11  and  C_35
    9  A    between atoms: C_15  and  N_17
   10  A    between atoms: C_15  and  N_29
   11  A    between atoms: C_15  and  C_48
   12  A    between atoms: N_17  and  C_23
   13  A    between atoms: C_20  and  S_33
   14  A    between atoms: C_20  and  C_34
   15  A    between atoms: C_23  and  C_39
   16  A    between atoms: S_33  and  C_37
   17  A    between atoms: C_34  and  C_35
   18  A    between atoms: C_39  and  C_51
   19  A    between atoms: C_42  and  S_53
   20  A    between atoms: C_45  and  C_47
                            x       y       z     vdW  Elec       q    Type
                         _______ _______ _______ _____ _____    ______ ____

>  <TORSDO>
F 20

$$$$
=
 OpenBabel10222419443D

 54 58  0  0  1  0  0  0  0  0999 V2000
  185.4180  179.3200  140.7070 C   0  0  1  0  0  3  0  0  0  0  0  0
  185.3030  177.6060  137.4040 C   0  0  2  0  0  3  0  0  0  0  0  0
  186.3360  177.8280  138.5390 C   0  0  0  0  0  2  0  0  0  0  0  0
  184.2580  178.3890  138.2580 C   0  0  0  0  0  2  0  0  0  0  0  0
  185.3050  178.5630  139.3070 C   0  0  2  0  0  3  0  0  0  0  0  0
  184.9300  176.1290  137.0810 C   0  0  0  0  0  0  0  0  0  0  0  0
  183.6730  173.6830  136.3140 C   0  0  0  0  0  3  0  0  0  0  0  0
  183.7960  175.5930  137.7540 C   0  0  0  0  0  3  0  0  0  0  0  0
  183.1770  174.4000  137.3880 C   0  0  0  0  0  3  0  0  0  0  0  0
  185.4930  175.3480  136.0300 C   0  0  0  0  0  0  0  0  0  0  0  0
  184.8250  174.1560  135.6380 C   0  0  0  0  0  3  0  0  0  0  0  0
  187.1220  175.6210  135.1960 S   0  0  0  0  0  0  0  0  0  0  0  0
  187.2720  173.8310  134.7420 C   0  0  0  0  0  2  0  0  0  0  0  0
  188.0330  172.7530  135.5530 C   0  0  0  0  0  2  0  0  0  0  0  0
  189.3240  172.1830  134.8500 C   0  0  0  0  0  2  0  0  0  0  0  0
  190.7790  173.2550  135.4770 P   0  0  2  0  0  0  0  0  0  0  0  0
  191.0710  174.6560  134.9420 O   0  0  0  0  0  0  0  0  0  0  0  0
  193.6020  173.3120  134.8890 O   0  0  0  0  0  1  0  0  0  0  0  0
  192.3740  172.0480  134.5950 P   0  0  0  0  0  0  0  0  0  0  0  0
  192.9330  170.8620  135.7870 O   0  0  0  0  0  1  0  0  0  0  0  0
  190.2050  173.7300  137.1210 C   0  0  0  0  0  2  0  0  0  0  0  0
  190.3440  175.2020  137.3970 N   0  0  0  0  0  0  0  0  0  0  0  0
  191.2630  177.5210  139.0060 C   0  0  0  0  0  2  0  0  0  0  0  0
  189.6560  178.4610  137.3840 O   0  0  0  0  0  1  0  0  0  0  0  0
  191.4860  175.1470  138.3240 C   0  0  0  0  0  2  0  0  0  0  0  0
  189.3420  176.0260  138.1210 C   0  0  0  0  0  2  0  0  0  0  0  0
  192.1910  176.5260  138.3420 C   0  0  0  0  0  2  0  0  0  0  0  0
  189.8790  177.4460  138.4130 C   0  0  1  0  0  3  0  0  0  0  0  0
  184.4960  178.7500  141.7380 N   0  0  0  0  0  2  0  0  0  0  0  0
  183.2850  179.2310  141.7190 C   0  0  0  0  0  2  0  0  0  0  0  0
  181.9210  178.7700  143.8800 C   0  0  0  0  0  3  0  0  0  0  0  0
  180.8830  178.5230  141.7800 C   0  0  0  0  0  3  0  0  0  0  0  0
  179.6970  178.1480  142.3140 N   0  0  0  0  0  0  0  0  0  0  0  0
  179.6000  178.0980  143.7000 C   0  0  0  0  0  3  0  0  0  0  0  0
  180.6820  178.3830  144.4910 C   0  0  0  0  0  3  0  0  0  0  0  0
  182.0430  178.8550  142.4850 C   0  0  0  0  0  0  0  0  0  0  0  0
  186.7870  179.3460  141.1600 N   0  0  0  0  0  2  0  0  0  0  0  0
  187.1340  178.0070  141.5970 C   0  0  0  0  0  2  0  0  0  0  0  0
  188.7240  178.0030  141.8030 C   0  0  0  0  0  2  0  0  0  0  0  0
  190.1320  176.1080  142.6430 N   0  0  0  0  0  0  0  0  0  0  0  0
  189.0830  176.5640  142.0380 C   0  0  0  0  0  3  0  0  0  0  0  0
  191.2840  176.7280  143.2900 C   0  0  0  0  0  0  0  0  0  0  0  0
  192.0410  177.4220  142.5770 O   0  0  0  0  0  0  0  0  0  0  0  0
  191.5930  176.2920  145.0450 S   0  0  0  0  0  0  0  0  0  0  0  0
  189.1650  177.6840  145.2160 N   0  0  0  0  0  2  0  0  0  0  0  0
  189.8050  176.5010  147.1910 N   0  0  0  0  0  2  0  0  0  0  0  0
  190.0860  176.8760  145.9610 C   0  0  0  0  0  0  0  0  0  0  0  0
  186.2440  178.7330  147.3550 C   0  0  0  0  0  3  0  0  0  0  0  0
  187.8280  177.9910  145.6050 C   0  0  0  0  0  0  0  0  0  0  0  0
  185.3640  178.0900  145.1310 C   0  0  0  0  0  2  0  0  0  0  0  0
  185.1270  178.0200  146.6520 C   0  0  2  0  0  3  0  0  0  0  0  0
  186.8240  177.7030  144.7990 C   0  0  0  0  0  3  0  0  0  0  0  0
  187.5140  178.6560  146.8970 C   0  0  0  0  0  3  0  0  0  0  0  0
  183.9270  178.5640  146.9880 F   0  0  0  0  0  0  0  0  0  0  0  0
  1 37  1  1  0  0  0
  1 29  1  0  0  0  0
  2  6  1  1  0  0  0
  2  4  1  0  0  0  0
  2  3  1  0  0  0  0
  3  5  1  0  0  0  0
  4  5  1  0  0  0  0
  5  1  1  6  0  0  0
  6  8  1  0  0  0  0
  7  9  1  0  0  0  0
  9  8  2  0  0  0  0
 10  6  2  0  0  0  0
 11 10  1  0  0  0  0
 11  7  2  0  0  0  0
 12 10  1  0  0  0  0
 13 12  1  0  0  0  0
 13 14  1  0  0  0  0
 15 16  1  0  0  0  0
 15 14  1  0  0  0  0
 16 17  2  6  0  0  0
 16 21  1  0  0  0  0
 19 18  1  0  0  0  0
 19 16  1  0  0  0  0
 19 20  1  0  0  0  0
 21 22  1  0  0  0  0
 22 26  1  0  0  0  0
 22 25  1  0  0  0  0
 25 27  1  0  0  0  0
 26 28  1  0  0  0  0
 27 23  1  0  0  0  0
 28 24  1  6  0  0  0
 28 23  1  0  0  0  0
 30 29  1  0  0  0  0
 30 36  1  0  0  0  0
 31 35  1  0  0  0  0
 32 33  2  0  0  0  0
 32 36  1  0  0  0  0
 33 34  1  0  0  0  0
 34 35  2  0  0  0  0
 36 31  2  0  0  0  0
 37 38  1  0  0  0  0
 38 39  1  0  0  0  0
 39 41  1  0  0  0  0
 40 42  1  0  0  0  0
 41 40  2  0  0  0  0
 42 44  1  0  0  0  0
 43 42  2  0  0  0  0
 44 47  1  0  0  0  0
 45 49  1  0  0  0  0
 45 47  1  0  0  0  0
 47 46  2  0  0  0  0
 49 53  1  0  0  0  0
 50 51  1  0  0  0  0
 51 54  1  6  0  0  0
 51 48  1  0  0  0  0
 52 50  1  0  0  0  0
 52 49  2  0  0  0  0
 53 48  2  0  0  0  0
M  END
>  <MODEL>
5

>  <REMARK>
 VINA RESULT:      -6.0      4.026      8.460
  Name = 
  20 active torsions:
  status: ('A' for Active; 'I' for Inactive)
    1  A    between atoms: C_3  and  N_5
    2  A    between atoms: C_3  and  P_11
    3  A    between atoms: N_6  and  C_10
    4  A    between atoms: N_8  and  C_13
    5  A    between atoms: C_9  and  C_22
    6  A    between atoms: C_10  and  S_53
    7  A    between atoms: P_11  and  P_25
    8  A    between atoms: P_11  and  C_35
    9  A    between atoms: C_15  and  N_17
   10  A    between atoms: C_15  and  N_29
   11  A    between atoms: C_15  and  C_48
   12  A    between atoms: N_17  and  C_23
   13  A    between atoms: C_20  and  S_33
   14  A    between atoms: C_20  and  C_34
   15  A    between atoms: C_23  and  C_39
   16  A    between atoms: S_33  and  C_37
   17  A    between atoms: C_34  and  C_35
   18  A    between atoms: C_39  and  C_51
   19  A    between atoms: C_42  and  S_53
   20  A    between atoms: C_45  and  C_47
                            x       y       z     vdW  Elec       q    Type
                         _______ _______ _______ _____ _____    ______ ____

>  <TORSDO>
F 20

$$$$
=
 OpenBabel10222419443D

 54 58  0  0  1  0  0  0  0  0999 V2000
  188.6710  176.3920  142.8850 C   0  0  1  0  0  3  0  0  0  0  0  0
  190.1380  177.8550  139.7920 C   0  0  2  0  0  3  0  0  0  0  0  0
  190.6470  177.1200  141.0580 C   0  0  0  0  0  2  0  0  0  0  0  0
  188.6830  177.6910  140.3320 C   0  0  0  0  0  2  0  0  0  0  0  0
  189.2460  176.9920  141.5230 C   0  0  2  0  0  3  0  0  0  0  0  0
  190.4240  177.1660  138.4250 C   0  0  0  0  0  0  0  0  0  0  0  0
  190.8350  175.3550  136.2550 C   0  0  0  0  0  3  0  0  0  0  0  0
  191.4840  176.2170  138.3940 C   0  0  0  0  0  3  0  0  0  0  0  0
  191.6940  175.3310  137.3400 C   0  0  0  0  0  3  0  0  0  0  0  0
  189.5930  177.2510  137.2700 C   0  0  0  0  0  0  0  0  0  0  0  0
  189.7890  176.3110  136.2210 C   0  0  0  0  0  3  0  0  0  0  0  0
  188.3560  178.5740  136.8880 S   0  0  0  0  0  0  0  0  0  0  0  0
  187.1830  177.3590  136.1260 C   0  0  0  0  0  2  0  0  0  0  0  0
  185.7590  177.0320  136.6420 C   0  0  0  0  0  2  0  0  0  0  0  0
  184.7970  176.3900  135.5700 C   0  0  0  0  0  2  0  0  0  0  0  0
  183.8430  175.0060  136.4840 P   0  0  2  0  0  0  0  0  0  0  0  0
  184.0700  174.6720  137.9560 O   0  0  0  0  0  0  0  0  0  0  0  0
  186.3980  173.7210  136.1130 O   0  0  0  0  0  1  0  0  0  0  0  0
  184.7870  173.3290  135.4470 P   0  0  0  0  0  0  0  0  0  0  0  0
  184.4860  171.8390  136.3570 O   0  0  0  0  0  1  0  0  0  0  0  0
  182.2000  175.7360  136.6430 C   0  0  0  0  0  2  0  0  0  0  0  0
  181.2290  174.8570  137.3840 N   0  0  0  0  0  0  0  0  0  0  0  0
  179.1870  172.7090  137.5390 C   0  0  0  0  0  2  0  0  0  0  0  0
  179.0790  173.8580  139.7230 O   0  0  0  0  0  1  0  0  0  0  0  0
  181.1130  173.7730  136.3950 C   0  0  0  0  0  2  0  0  0  0  0  0
  179.8180  175.2170  137.6790 C   0  0  0  0  0  2  0  0  0  0  0  0
  180.6220  172.4890  137.1080 C   0  0  0  0  0  2  0  0  0  0  0  0
  179.0390  174.0190  138.2700 C   0  0  1  0  0  3  0  0  0  0  0  0
  189.2950  177.0200  144.0910 N   0  0  0  0  0  2  0  0  0  0  0  0
  188.5410  177.0370  145.1540 C   0  0  0  0  0  2  0  0  0  0  0  0
  187.8670  177.8730  147.5190 C   0  0  0  0  0  3  0  0  0  0  0  0
  190.1370  177.4710  147.0350 C   0  0  0  0  0  3  0  0  0  0  0  0
  190.5540  177.8360  148.2690 N   0  0  0  0  0  0  0  0  0  0  0  0
  189.5860  178.2210  149.1900 C   0  0  0  0  0  3  0  0  0  0  0  0
  188.2620  178.2630  148.8420 C   0  0  0  0  0  3  0  0  0  0  0  0
  188.8170  177.4550  146.5760 C   0  0  0  0  0  0  0  0  0  0  0  0
  187.2310  176.4850  142.9120 N   0  0  0  0  0  2  0  0  0  0  0  0
  186.8790  177.8930  142.9150 C   0  0  0  0  0  2  0  0  0  0  0  0
  185.3160  177.9610  142.5660 C   0  0  0  0  0  2  0  0  0  0  0  0
  184.0220  179.7790  143.7070 N   0  0  0  0  0  0  0  0  0  0  0  0
  184.9120  179.3780  142.8580 C   0  0  0  0  0  3  0  0  0  0  0  0
  183.1310  179.1020  144.6450 C   0  0  0  0  0  0  0  0  0  0  0  0
  183.5210  178.9840  145.8260 O   0  0  0  0  0  0  0  0  0  0  0  0
  181.6070  178.3500  143.9550 S   0  0  0  0  0  0  0  0  0  0  0  0
  181.7550  178.8590  141.2020 N   0  0  0  0  0  2  0  0  0  0  0  0
  180.4160  180.3930  142.4530 N   0  0  0  0  0  2  0  0  0  0  0  0
  181.2180  179.3490  142.4390 C   0  0  0  0  0  0  0  0  0  0  0  0
  181.4740  180.9450  138.0740 C   0  0  0  0  0  3  0  0  0  0  0  0
  181.3540  179.2780  139.9000 C   0  0  0  0  0  0  0  0  0  0  0  0
  179.9700  178.9930  137.8240 C   0  0  0  0  0  2  0  0  0  0  0  0
  180.1270  180.5070  137.5810 C   0  0  2  0  0  3  0  0  0  0  0  0
  180.3870  178.6380  139.2700 C   0  0  0  0  0  3  0  0  0  0  0  0
  182.0080  180.4150  139.1980 C   0  0  0  0  0  3  0  0  0  0  0  0
  179.9790  180.8110  136.2640 F   0  0  0  0  0  0  0  0  0  0  0  0
  1 37  1  1  0  0  0
  1 29  1  0  0  0  0
  2  6  1  6  0  0  0
  2  4  1  0  0  0  0
  2  3  1  0  0  0  0
  3  5  1  0  0  0  0
  4  5  1  0  0  0  0
  5  1  1  1  0  0  0
  7  9  1  0  0  0  0
  8  6  1  0  0  0  0
  9  8  2  0  0  0  0
 10  6  2  0  0  0  0
 11  7  2  0  0  0  0
 11 10  1  0  0  0  0
 12 10  1  0  0  0  0
 13 14  1  0  0  0  0
 13 12  1  0  0  0  0
 15 16  1  0  0  0  0
 15 14  1  0  0  0  0
 16 21  1  0  0  0  0
 16 17  2  1  0  0  0
 19 18  1  0  0  0  0
 19 20  1  0  0  0  0
 19 16  1  0  0  0  0
 21 22  1  0  0  0  0
 22 26  1  0  0  0  0
 23 28  1  0  0  0  0
 25 27  1  0  0  0  0
 25 22  1  0  0  0  0
 26 28  1  0  0  0  0
 27 23  1  0  0  0  0
 28 24  1  1  0  0  0
 29 30  1  0  0  0  0
 30 36  1  0  0  0  0
 31 35  1  0  0  0  0
 32 33  2  0  0  0  0
 33 34  1  0  0  0  0
 35 34  2  0  0  0  0
 36 32  1  0  0  0  0
 36 31  2  0  0  0  0
 37 38  1  0  0  0  0
 39 41  1  0  0  0  0
 39 38  1  0  0  0  0
 40 42  1  0  0  0  0
 41 40  2  0  0  0  0
 42 43  2  0  0  0  0
 44 42  1  0  0  0  0
 45 47  1  0  0  0  0
 47 46  2  0  0  0  0
 47 44  1  0  0  0  0
 48 53  2  0  0  0  0
 49 45  1  0  0  0  0
 50 52  1  0  0  0  0
 51 54  1  6  0  0  0
 51 50  1  0  0  0  0
 51 48  1  0  0  0  0
 52 49  2  0  0  0  0
 53 49  1  0  0  0  0
M  END
>  <MODEL>
6

>  <REMARK>
 VINA RESULT:      -5.7      2.064      2.591
  Name = 
  20 active torsions:
  status: ('A' for Active; 'I' for Inactive)
    1  A    between atoms: C_3  and  N_5
    2  A    between atoms: C_3  and  P_11
    3  A    between atoms: N_6  and  C_10
    4  A    between atoms: N_8  and  C_13
    5  A    between atoms: C_9  and  C_22
    6  A    between atoms: C_10  and  S_53
    7  A    between atoms: P_11  and  P_25
    8  A    between atoms: P_11  and  C_35
    9  A    between atoms: C_15  and  N_17
   10  A    between atoms: C_15  and  N_29
   11  A    between atoms: C_15  and  C_48
   12  A    between atoms: N_17  and  C_23
   13  A    between atoms: C_20  and  S_33
   14  A    between atoms: C_20  and  C_34
   15  A    between atoms: C_23  and  C_39
   16  A    between atoms: S_33  and  C_37
   17  A    between atoms: C_34  and  C_35
   18  A    between atoms: C_39  and  C_51
   19  A    between atoms: C_42  and  S_53
   20  A    between atoms: C_45  and  C_47
                            x       y       z     vdW  Elec       q    Type
                         _______ _______ _______ _____ _____    ______ ____

>  <TORSDO>
F 20

$$$$
=
 OpenBabel10222419443D

 54 58  0  0  1  0  0  0  0  0999 V2000
  186.3010  178.4910  137.1150 C   0  0  1  0  0  3  0  0  0  0  0  0
  189.5150  177.4290  138.6640 C   0  0  2  0  0  3  0  0  0  0  0  0
  188.8480  178.7550  138.2160 C   0  0  0  0  0  2  0  0  0  0  0  0
  188.2190  176.6780  138.2280 C   0  0  0  0  0  2  0  0  0  0  0  0
  187.6420  177.9920  137.8190 C   0  0  2  0  0  3  0  0  0  0  0  0
  189.8800  177.3080  140.1730 C   0  0  0  0  0  0  0  0  0  0  0  0
  190.2380  176.5140  142.8930 C   0  0  0  0  0  3  0  0  0  0  0  0
  188.7980  177.1400  141.0830 C   0  0  0  0  0  3  0  0  0  0  0  0
  188.9640  176.7550  142.4120 C   0  0  0  0  0  3  0  0  0  0  0  0
  191.1980  177.1460  140.6910 C   0  0  0  0  0  0  0  0  0  0  0  0
  191.3510  176.7090  142.0350 C   0  0  0  0  0  3  0  0  0  0  0  0
  192.7840  177.6010  139.8520 S   0  0  0  0  0  0  0  0  0  0  0  0
  192.5520  176.3010  138.5520 C   0  0  0  0  0  2  0  0  0  0  0  0
  193.6690  175.7120  137.6530 C   0  0  0  0  0  2  0  0  0  0  0  0
  193.8190  174.1450  137.7250 C   0  0  0  0  0  2  0  0  0  0  0  0
  194.0960  173.5620  135.9240 P   0  0  2  0  0  0  0  0  0  0  0  0
  193.5190  172.2590  135.3730 O   0  0  0  0  0  0  0  0  0  0  0  0
  196.4090  174.2360  137.5090 O   0  0  0  0  0  1  0  0  0  0  0  0
  196.2240  173.1070  136.1360 P   0  0  0  0  0  0  0  0  0  0  0  0
  196.4080  171.5850  137.0270 O   0  0  0  0  0  1  0  0  0  0  0  0
  193.0520  174.7090  135.0010 C   0  0  0  0  0  2  0  0  0  0  0  0
  191.6080  174.2880  134.9500 N   0  0  0  0  0  0  0  0  0  0  0  0
  188.7160  174.6700  135.4970 C   0  0  0  0  0  2  0  0  0  0  0  0
  188.9370  172.3020  134.8320 O   0  0  0  0  0  1  0  0  0  0  0  0
  190.9850  175.6070  135.1460 C   0  0  0  0  0  2  0  0  0  0  0  0
  190.9420  173.4300  135.9640 C   0  0  0  0  0  2  0  0  0  0  0  0
  189.5380  175.5700  134.5970 C   0  0  0  0  0  2  0  0  0  0  0  0
  189.4150  173.3550  135.7280 C   0  0  1  0  0  3  0  0  0  0  0  0
  185.5450  177.3710  136.4720 N   0  0  0  0  0  2  0  0  0  0  0  0
  185.6140  176.2310  137.0990 C   0  0  0  0  0  2  0  0  0  0  0  0
  185.4050  173.6450  137.2230 C   0  0  0  0  0  3  0  0  0  0  0  0
  183.6890  174.8990  136.2080 C   0  0  0  0  0  3  0  0  0  0  0  0
  182.9500  173.8070  135.9070 N   0  0  0  0  0  0  0  0  0  0  0  0
  183.4440  172.5670  136.2960 C   0  0  0  0  0  3  0  0  0  0  0  0
  184.6530  172.4590  136.9290 C   0  0  0  0  0  3  0  0  0  0  0  0
  184.9220  174.9130  136.8660 C   0  0  0  0  0  0  0  0  0  0  0  0
  185.4830  179.2300  138.0470 N   0  0  0  0  0  2  0  0  0  0  0  0
  185.1610  178.3450  139.1510 C   0  0  0  0  0  2  0  0  0  0  0  0
  185.0590  179.2750  140.4520 C   0  0  0  0  0  2  0  0  0  0  0  0
  184.7420  178.0450  142.6120 N   0  0  0  0  0  0  0  0  0  0  0  0
  185.4640  178.3910  141.5960 C   0  0  0  0  0  3  0  0  0  0  0  0
  183.3730  178.3290  143.0320 C   0  0  0  0  0  0  0  0  0  0  0  0
  182.4770  178.2510  142.1630 O   0  0  0  0  0  0  0  0  0  0  0  0
  183.1320  178.9290  144.7480 S   0  0  0  0  0  0  0  0  0  0  0  0
  185.3530  178.1310  146.2620 N   0  0  0  0  0  2  0  0  0  0  0  0
  185.6110  180.1900  145.0780 N   0  0  0  0  0  2  0  0  0  0  0  0
  184.8460  179.1750  145.4190 C   0  0  0  0  0  0  0  0  0  0  0  0
  189.0680  177.5560  145.9830 C   0  0  0  0  0  3  0  0  0  0  0  0
  186.7160  177.9590  146.6410 C   0  0  0  0  0  0  0  0  0  0  0  0
  188.5030  177.7240  148.3890 C   0  0  0  0  0  2  0  0  0  0  0  0
  189.3520  176.9800  147.3390 C   0  0  2  0  0  3  0  0  0  0  0  0
  187.0360  177.8260  147.9140 C   0  0  0  0  0  3  0  0  0  0  0  0
  187.8190  177.9460  145.6430 C   0  0  0  0  0  3  0  0  0  0  0  0
  190.6780  177.0690  147.6270 F   0  0  0  0  0  0  0  0  0  0  0  0
  1 29  1  1  0  0  0
  1 37  1  0  0  0  0
  2  6  1  1  0  0  0
  3  2  1  0  0  0  0
  4  2  1  0  0  0  0
  5  1  1  6  0  0  0
  5  3  1  0  0  0  0
  5  4  1  0  0  0  0
  6 10  2  0  0  0  0
  6  8  1  0  0  0  0
  8  9  2  0  0  0  0
  9  7  1  0  0  0  0
 10 11  1  0  0  0  0
 11  7  2  0  0  0  0
 12 10  1  0  0  0  0
 13 12  1  0  0  0  0
 14 15  1  0  0  0  0
 14 13  1  0  0  0  0
 16 17  2  6  0  0  0
 16 19  1  0  0  0  0
 16 15  1  0  0  0  0
 19 20  1  0  0  0  0
 19 18  1  0  0  0  0
 21 16  1  0  0  0  0
 22 21  1  0  0  0  0
 22 25  1  0  0  0  0
 22 26  1  0  0  0  0
 23 28  1  0  0  0  0
 27 25  1  0  0  0  0
 27 23  1  0  0  0  0
 28 24  1  6  0  0  0
 28 26  1  0  0  0  0
 29 30  1  0  0  0  0
 32 36  1  0  0  0  0
 33 32  2  0  0  0  0
 33 34  1  0  0  0  0
 34 35  2  0  0  0  0
 35 31  1  0  0  0  0
 36 30  1  0  0  0  0
 36 31  2  0  0  0  0
 37 38  1  0  0  0  0
 38 39  1  0  0  0  0
 39 41  1  0  0  0  0
 40 42  1  0  0  0  0
 41 40  2  0  0  0  0
 42 44  1  0  0  0  0
 43 42  2  0  0  0  0
 44 47  1  0  0  0  0
 45 49  1  0  0  0  0
 46 47  2  0  0  0  0
 47 45  1  0  0  0  0
 48 51  1  0  0  0  0
 49 52  2  0  0  0  0
 51 54  1  1  0  0  0
 51 50  1  0  0  0  0
 52 50  1  0  0  0  0
 53 48  2  0  0  0  0
 53 49  1  0  0  0  0
M  END
>  <MODEL>
7

>  <REMARK>
 VINA RESULT:      -5.5      4.456      8.809
  Name = 
  20 active torsions:
  status: ('A' for Active; 'I' for Inactive)
    1  A    between atoms: C_3  and  N_5
    2  A    between atoms: C_3  and  P_11
    3  A    between atoms: N_6  and  C_10
    4  A    between atoms: N_8  and  C_13
    5  A    between atoms: C_9  and  C_22
    6  A    between atoms: C_10  and  S_53
    7  A    between atoms: P_11  and  P_25
    8  A    between atoms: P_11  and  C_35
    9  A    between atoms: C_15  and  N_17
   10  A    between atoms: C_15  and  N_29
   11  A    between atoms: C_15  and  C_48
   12  A    between atoms: N_17  and  C_23
   13  A    between atoms: C_20  and  S_33
   14  A    between atoms: C_20  and  C_34
   15  A    between atoms: C_23  and  C_39
   16  A    between atoms: S_33  and  C_37
   17  A    between atoms: C_34  and  C_35
   18  A    between atoms: C_39  and  C_51
   19  A    between atoms: C_42  and  S_53
   20  A    between atoms: C_45  and  C_47
                            x       y       z     vdW  Elec       q    Type
                         _______ _______ _______ _____ _____    ______ ____

>  <TORSDO>
F 20

$$$$
=
 OpenBabel10222419443D

 54 58  0  0  1  0  0  0  0  0999 V2000
  186.5540  177.8360  136.2950 C   0  0  1  0  0  3  0  0  0  0  0  0
  189.7840  177.6030  138.1300 C   0  0  2  0  0  3  0  0  0  0  0  0
  188.8340  178.7210  137.6310 C   0  0  0  0  0  2  0  0  0  0  0  0
  188.7760  176.5530  137.5690 C   0  0  0  0  0  2  0  0  0  0  0  0
  187.9120  177.6820  137.1180 C   0  0  2  0  0  3  0  0  0  0  0  0
  190.0340  177.5340  139.6660 C   0  0  0  0  0  0  0  0  0  0  0  0
  190.1350  176.8620  142.4390 C   0  0  0  0  0  3  0  0  0  0  0  0
  188.8820  177.5060  140.5020 C   0  0  0  0  0  3  0  0  0  0  0  0
  188.9220  177.1810  141.8560 C   0  0  0  0  0  3  0  0  0  0  0  0
  191.2940  177.2910  140.2850 C   0  0  0  0  0  0  0  0  0  0  0  0
  191.3160  176.9160  141.6560 C   0  0  0  0  0  3  0  0  0  0  0  0
  192.9670  177.5650  139.5420 S   0  0  0  0  0  0  0  0  0  0  0  0
  192.7830  176.1090  138.4110 C   0  0  0  0  0  2  0  0  0  0  0  0
  192.5790  176.1770  136.8760 C   0  0  0  0  0  2  0  0  0  0  0  0
  193.8900  175.9780  136.0240 C   0  0  0  0  0  2  0  0  0  0  0  0
  194.0920  174.0890  135.8040 P   0  0  2  0  0  0  0  0  0  0  0  0
  195.1920  173.4640  134.9490 O   0  0  0  0  0  0  0  0  0  0  0  0
  191.5350  172.7540  135.8370 O   0  0  0  0  0  1  0  0  0  0  0  0
  192.2960  173.7890  134.5940 P   0  0  0  0  0  0  0  0  0  0  0  0
  191.2420  175.2050  134.7550 O   0  0  0  0  0  1  0  0  0  0  0  0
  194.7210  173.5950  137.4220 C   0  0  0  0  0  2  0  0  0  0  0  0
  196.0860  174.1500  137.7230 N   0  0  0  0  0  0  0  0  0  0  0  0
  199.0330  173.9300  138.0040 C   0  0  0  0  0  2  0  0  0  0  0  0
  198.4460  176.0860  139.0570 O   0  0  0  0  0  1  0  0  0  0  0  0
  196.8960  173.1370  137.0260 C   0  0  0  0  0  2  0  0  0  0  0  0
  196.6930  174.2150  139.0780 C   0  0  0  0  0  2  0  0  0  0  0  0
  198.2860  173.7370  136.7000 C   0  0  0  0  0  2  0  0  0  0  0  0
  198.1760  174.6490  139.0150 C   0  0  1  0  0  3  0  0  0  0  0  0
  186.0970  176.5390  135.7040 N   0  0  0  0  0  2  0  0  0  0  0  0
  185.9300  175.5730  136.5640 C   0  0  0  0  0  2  0  0  0  0  0  0
  184.0950  173.7480  136.7770 C   0  0  0  0  0  3  0  0  0  0  0  0
  186.2010  173.1750  135.8900 C   0  0  0  0  0  3  0  0  0  0  0  0
  185.8680  171.8770  135.7070 N   0  0  0  0  0  0  0  0  0  0  0  0
  184.5800  171.4870  136.0540 C   0  0  0  0  0  3  0  0  0  0  0  0
  183.6960  172.3820  136.5950 C   0  0  0  0  0  3  0  0  0  0  0  0
  185.3800  174.1780  136.4120 C   0  0  0  0  0  0  0  0  0  0  0  0
  185.5330  178.4470  137.1100 N   0  0  0  0  0  2  0  0  0  0  0  0
  185.8170  178.1200  138.4950 C   0  0  0  0  0  2  0  0  0  0  0  0
  184.5630  178.6460  139.3440 C   0  0  0  0  0  2  0  0  0  0  0  0
  184.5170  179.0860  141.8110 N   0  0  0  0  0  0  0  0  0  0  0  0
  185.1340  179.0460  140.6740 C   0  0  0  0  0  3  0  0  0  0  0  0
  183.1540  178.7850  142.2400 C   0  0  0  0  0  0  0  0  0  0  0  0
  182.2770  178.6980  141.3530 O   0  0  0  0  0  0  0  0  0  0  0  0
  182.8390  178.7300  144.0460 S   0  0  0  0  0  0  0  0  0  0  0  0
  185.0010  178.0750  145.7070 N   0  0  0  0  0  2  0  0  0  0  0  0
  185.1960  180.1580  144.5500 N   0  0  0  0  0  2  0  0  0  0  0  0
  184.4810  179.0890  144.8350 C   0  0  0  0  0  0  0  0  0  0  0  0
  188.6750  177.2360  145.8310 C   0  0  0  0  0  3  0  0  0  0  0  0
  186.3450  177.9960  146.1780 C   0  0  0  0  0  0  0  0  0  0  0  0
  188.0840  178.3820  147.9470 C   0  0  0  0  0  2  0  0  0  0  0  0
  188.8990  177.2370  147.3150 C   0  0  2  0  0  3  0  0  0  0  0  0
  186.6340  178.3660  147.4110 C   0  0  0  0  0  3  0  0  0  0  0  0
  187.4590  177.5250  145.3130 C   0  0  0  0  0  3  0  0  0  0  0  0
  190.2230  177.3610  147.5970 F   0  0  0  0  0  0  0  0  0  0  0  0
  1 29  1  1  0  0  0
  1 37  1  0  0  0  0
  2  6  1  1  0  0  0
  3  2  1  0  0  0  0
  4  2  1  0  0  0  0
  5  1  1  6  0  0  0
  5  4  1  0  0  0  0
  5  3  1  0  0  0  0
  6 10  2  0  0  0  0
  6  8  1  0  0  0  0
  8  9  2  0  0  0  0
  9  7  1  0  0  0  0
 10 11  1  0  0  0  0
 11  7  2  0  0  0  0
 12 10  1  0  0  0  0
 13 12  1  0  0  0  0
 14 13  1  0  0  0  0
 15 14  1  0  0  0  0
 16 17  2  6  0  0  0
 16 15  1  0  0  0  0
 16 21  1  0  0  0  0
 19 20  1  0  0  0  0
 19 16  1  0  0  0  0
 19 18  1  0  0  0  0
 21 22  1  0  0  0  0
 22 26  1  0  0  0  0
 23 28  1  0  0  0  0
 25 22  1  0  0  0  0
 27 25  1  0  0  0  0
 27 23  1  0  0  0  0
 28 24  1  6  0  0  0
 28 26  1  0  0  0  0
 29 30  1  0  0  0  0
 32 36  1  0  0  0  0
 33 32  2  0  0  0  0
 33 34  1  0  0  0  0
 34 35  2  0  0  0  0
 35 31  1  0  0  0  0
 36 30  1  0  0  0  0
 36 31  2  0  0  0  0
 37 38  1  0  0  0  0
 38 39  1  0  0  0  0
 39 41  1  0  0  0  0
 40 42  1  0  0  0  0
 41 40  2  0  0  0  0
 42 44  1  0  0  0  0
 43 42  2  0  0  0  0
 44 47  1  0  0  0  0
 45 49  1  0  0  0  0
 46 47  2  0  0  0  0
 47 45  1  0  0  0  0
 48 51  1  0  0  0  0
 49 52  2  0  0  0  0
 51 54  1  6  0  0  0
 51 50  1  0  0  0  0
 52 50  1  0  0  0  0
 53 48  2  0  0  0  0
 53 49  1  0  0  0  0
M  END
>  <MODEL>
8

>  <REMARK>
 VINA RESULT:      -5.4      4.670      9.876
  Name = 
  20 active torsions:
  status: ('A' for Active; 'I' for Inactive)
    1  A    between atoms: C_3  and  N_5
    2  A    between atoms: C_3  and  P_11
    3  A    between atoms: N_6  and  C_10
    4  A    between atoms: N_8  and  C_13
    5  A    between atoms: C_9  and  C_22
    6  A    between atoms: C_10  and  S_53
    7  A    between atoms: P_11  and  P_25
    8  A    between atoms: P_11  and  C_35
    9  A    between atoms: C_15  and  N_17
   10  A    between atoms: C_15  and  N_29
   11  A    between atoms: C_15  and  C_48
   12  A    between atoms: N_17  and  C_23
   13  A    between atoms: C_20  and  S_33
   14  A    between atoms: C_20  and  C_34
   15  A    between atoms: C_23  and  C_39
   16  A    between atoms: S_33  and  C_37
   17  A    between atoms: C_34  and  C_35
   18  A    between atoms: C_39  and  C_51
   19  A    between atoms: C_42  and  S_53
   20  A    between atoms: C_45  and  C_47
                            x       y       z     vdW  Elec       q    Type
                         _______ _______ _______ _____ _____    ______ ____

>  <TORSDO>
F 20

$$$$
=
 OpenBabel10222419443D

 54 58  0  0  1  0  0  0  0  0999 V2000
  191.1870  176.1400  137.9380 C   0  0  1  0  0  3  0  0  0  0  0  0
  189.4020  178.1500  140.5130 C   0  0  2  0  0  3  0  0  0  0  0  0
  189.1410  177.6590  139.0660 C   0  0  0  0  0  2  0  0  0  0  0  0
  190.7630  177.3890  140.4810 C   0  0  0  0  0  2  0  0  0  0  0  0
  190.4430  176.9560  139.0900 C   0  0  2  0  0  3  0  0  0  0  0  0
  188.3960  177.6720  141.6030 C   0  0  0  0  0  0  0  0  0  0  0  0
  186.9520  177.1190  144.0030 C   0  0  0  0  0  3  0  0  0  0  0  0
  188.9280  176.8920  142.6680 C   0  0  0  0  0  3  0  0  0  0  0  0
  188.2310  176.6150  143.8420 C   0  0  0  0  0  3  0  0  0  0  0  0
  187.0480  178.1170  141.7320 C   0  0  0  0  0  0  0  0  0  0  0  0
  186.3640  177.8670  142.9520 C   0  0  0  0  0  3  0  0  0  0  0  0
  185.9950  178.8640  140.4050 S   0  0  0  0  0  0  0  0  0  0  0  0
  184.4440  178.1710  141.1450 C   0  0  0  0  0  2  0  0  0  0  0  0
  183.1730  177.7620  140.3610 C   0  0  0  0  0  2  0  0  0  0  0  0
  182.0060  178.8210  140.3920 C   0  0  0  0  0  2  0  0  0  0  0  0
  180.8370  178.3560  138.9510 P   0  0  2  0  0  0  0  0  0  0  0  0
  181.0510  177.1270  138.0700 O   0  0  0  0  0  0  0  0  0  0  0  0
  181.2600  178.9950  136.1710 O   0  0  0  0  0  1  0  0  0  0  0  0
  181.3960  180.0100  137.6360 P   0  0  0  0  0  0  0  0  0  0  0  0
  179.9820  181.0440  137.3670 O   0  0  0  0  0  1  0  0  0  0  0  0
  179.3730  177.7780  139.8360 C   0  0  0  0  0  2  0  0  0  0  0  0
  179.2610  178.3380  141.2280 N   0  0  0  0  0  0  0  0  0  0  0  0
  179.7650  180.4010  143.3020 C   0  0  0  0  0  2  0  0  0  0  0  0
  178.9490  178.4280  144.5420 O   0  0  0  0  0  1  0  0  0  0  0  0
  179.5290  179.7520  140.9190 C   0  0  0  0  0  2  0  0  0  0  0  0
  180.2000  178.0360  142.3390 C   0  0  0  0  0  2  0  0  0  0  0  0
  178.9460  180.6360  142.0490 C   0  0  0  0  0  2  0  0  0  0  0  0
  179.9230  178.9270  143.5730 C   0  0  1  0  0  3  0  0  0  0  0  0
  192.6700  176.1050  138.1330 N   0  0  0  0  0  2  0  0  0  0  0  0
  193.2570  175.0270  137.6920 C   0  0  0  0  0  2  0  0  0  0  0  0
  195.6150  174.5060  138.6480 C   0  0  0  0  0  3  0  0  0  0  0  0
  195.2660  174.4350  136.3190 C   0  0  0  0  0  3  0  0  0  0  0  0
  196.5510  174.1090  136.0490 N   0  0  0  0  0  0  0  0  0  0  0  0
  197.4160  173.9510  137.1260 C   0  0  0  0  0  3  0  0  0  0  0  0
  196.9850  174.1550  138.4100 C   0  0  0  0  0  3  0  0  0  0  0  0
  194.7110  174.6480  137.5840 C   0  0  0  0  0  0  0  0  0  0  0  0
  190.6270  174.8170  137.8100 N   0  0  0  0  0  2  0  0  0  0  0  0
  189.2790  174.9550  137.2920 C   0  0  0  0  0  2  0  0  0  0  0  0
  189.4300  175.5530  135.8130 C   0  0  0  0  0  2  0  0  0  0  0  0
  187.0560  175.6300  135.0140 N   0  0  0  0  0  0  0  0  0  0  0  0
  188.2190  175.0660  135.0700 C   0  0  0  0  0  3  0  0  0  0  0  0
  186.4870  176.8490  135.5810 C   0  0  0  0  0  0  0  0  0  0  0  0
  186.9130  177.9400  135.1440 O   0  0  0  0  0  0  0  0  0  0  0  0
  185.3270  176.6540  136.9880 S   0  0  0  0  0  0  0  0  0  0  0  0
  183.7780  174.3200  137.0960 N   0  0  0  0  0  2  0  0  0  0  0  0
  183.1930  175.8540  135.3600 N   0  0  0  0  0  2  0  0  0  0  0  0
  183.9870  175.5330  136.3600 C   0  0  0  0  0  0  0  0  0  0  0  0
  180.2530  173.0400  137.4820 C   0  0  0  0  0  3  0  0  0  0  0  0
  182.6400  173.4680  136.9860 C   0  0  0  0  0  0  0  0  0  0  0  0
  181.5630  171.3100  136.2890 C   0  0  0  0  0  2  0  0  0  0  0  0
  180.4900  171.5640  137.3650 C   0  0  2  0  0  3  0  0  0  0  0  0
  182.7740  172.2450  136.5110 C   0  0  0  0  0  3  0  0  0  0  0  0
  181.2760  173.9180  137.3720 C   0  0  0  0  0  3  0  0  0  0  0  0
  179.3320  170.9170  137.0660 F   0  0  0  0  0  0  0  0  0  0  0  0
  1 37  1  1  0  0  0
  1 29  1  0  0  0  0
  2  6  1  1  0  0  0
  3  5  1  0  0  0  0
  3  2  1  0  0  0  0
  4  2  1  0  0  0  0
  5  1  1  6  0  0  0
  5  4  1  0  0  0  0
  6 10  2  0  0  0  0
  6  8  1  0  0  0  0
  8  9  2  0  0  0  0
  9  7  1  0  0  0  0
 10 11  1  0  0  0  0
 11  7  2  0  0  0  0
 12 13  1  0  0  0  0
 12 10  1  0  0  0  0
 14 15  1  0  0  0  0
 14 13  1  0  0  0  0
 16 17  2  6  0  0  0
 16 21  1  0  0  0  0
 16 15  1  0  0  0  0
 18 19  1  0  0  0  0
 19 16  1  0  0  0  0
 20 19  1  0  0  0  0
 21 22  1  0  0  0  0
 22 26  1  0  0  0  0
 23 28  1  0  0  0  0
 25 22  1  0  0  0  0
 25 27  1  0  0  0  0
 26 28  1  0  0  0  0
 27 23  1  0  0  0  0
 28 24  1  6  0  0  0
 30 29  1  0  0  0  0
 32 36  1  0  0  0  0
 33 32  2  0  0  0  0
 33 34  1  0  0  0  0
 34 35  2  0  0  0  0
 35 31  1  0  0  0  0
 36 30  1  0  0  0  0
 36 31  2  0  0  0  0
 38 37  1  0  0  0  0
 39 38  1  0  0  0  0
 40 41  2  0  0  0  0
 40 42  1  0  0  0  0
 41 39  1  0  0  0  0
 42 44  1  0  0  0  0
 43 42  2  0  0  0  0
 46 47  2  0  0  0  0
 47 44  1  0  0  0  0
 47 45  1  0  0  0  0
 49 45  1  0  0  0  0
 49 53  1  0  0  0  0
 50 52  1  0  0  0  0
 50 51  1  0  0  0  0
 51 54  1  6  0  0  0
 51 48  1  0  0  0  0
 52 49  2  0  0  0  0
 53 48  2  0  0  0  0
M  END
>  <MODEL>
9

>  <REMARK>
 VINA RESULT:      -5.0      4.205      8.217
  Name = 
  20 active torsions:
  status: ('A' for Active; 'I' for Inactive)
    1  A    between atoms: C_3  and  N_5
    2  A    between atoms: C_3  and  P_11
    3  A    between atoms: N_6  and  C_10
    4  A    between atoms: N_8  and  C_13
    5  A    between atoms: C_9  and  C_22
    6  A    between atoms: C_10  and  S_53
    7  A    between atoms: P_11  and  P_25
    8  A    between atoms: P_11  and  C_35
    9  A    between atoms: C_15  and  N_17
   10  A    between atoms: C_15  and  N_29
   11  A    between atoms: C_15  and  C_48
   12  A    between atoms: N_17  and  C_23
   13  A    between atoms: C_20  and  S_33
   14  A    between atoms: C_20  and  C_34
   15  A    between atoms: C_23  and  C_39
   16  A    between atoms: S_33  and  C_37
   17  A    between atoms: C_34  and  C_35
   18  A    between atoms: C_39  and  C_51
   19  A    between atoms: C_42  and  S_53
   20  A    between atoms: C_45  and  C_47
                            x       y       z     vdW  Elec       q    Type
                         _______ _______ _______ _____ _____    ______ ____

>  <TORSDO>
F 20

$$$$
