=
 OpenBabel10222417243D

 57 64  0  0  1  0  0  0  0  0999 V2000
  186.6130  175.8900  135.1220 O   0  0  0  0  0  0  0  0  0  0  0  0
  189.2170  179.1470  136.8580 C   0  0  0  0  0  1  0  0  0  0  0  0
  188.9630  177.2420  138.4480 C   0  0  1  0  0  3  0  0  0  0  0  0
  188.2220  175.9080  138.4810 C   0  0  0  0  0  2  0  0  0  0  0  0
  185.6540  177.5730  138.5320 O   0  0  0  0  0  0  0  0  0  0  0  0
  183.6990  176.6840  136.3550 C   0  0  2  0  0  0  0  0  0  0  0  0
  187.2950  174.1390  137.1340 O   0  0  0  0  0  0  0  0  0  0  0  0
  185.9460  174.5150  137.0960 C   0  0  0  0  0  2  0  0  0  0  0  0
  185.6400  175.0290  135.6940 C   0  0  1  0  0  3  0  0  0  0  0  0
  188.2170  178.3020  137.6250 C   0  0  2  0  0  3  0  0  0  0  0  0
  184.2040  175.5230  135.4800 C   0  0  0  0  0  2  0  0  0  0  0  0
  187.1550  177.7390  136.6630 C   0  0  1  0  0  3  0  0  0  0  0  0
  184.6760  177.7330  136.4480 O   0  0  0  0  0  0  0  0  0  0  0  0
  187.5510  176.3700  136.0700 C   0  0  1  0  0  3  0  0  0  0  0  0
  188.1180  175.2940  137.0740 C   0  0  1  0  0  0  0  0  0  0  0  0
  185.7930  177.6970  137.2850 C   0  0  0  0  0  0  0  0  0  0  0  0
  183.3230  176.1460  137.7290 C   0  0  0  0  0  1  0  0  0  0  0  0
  190.7090  175.6900  137.0540 C   0  0  2  0  0  3  0  0  0  0  0  0
  191.0390  173.2330  135.5280 C   0  0  0  0  0  3  0  0  0  0  0  0
  189.7000  173.6870  135.9330 C   0  0  0  0  0  0  0  0  0  0  0  0
  192.0730  175.2320  136.5430 C   0  0  1  0  0  0  0  0  0  0  0  0
  189.5180  174.8380  136.6380 C   0  0  0  0  0  0  0  0  0  0  0  0
  188.5630  172.8140  135.5170 C   0  0  0  0  0  1  0  0  0  0  0  0
  192.1340  173.9320  135.8000 C   0  0  0  0  0  3  0  0  0  0  0  0
  191.3350  176.3430  135.8200 C   0  0  0  0  0  2  0  0  0  0  0  0
  193.2760  175.6850  137.3320 C   0  0  0  0  0  0  0  0  0  0  0  0
  193.5080  176.8760  137.4530 O   0  0  0  0  0  0  0  0  0  0  0  0
  194.2160  174.7050  137.9570 C   0  0  0  0  0  1  0  0  0  0  0  0
  189.1590  177.7040  139.7540 O   0  0  0  0  0  0  0  0  0  0  0  0
  191.4590  177.3450  140.2920 C   0  0  0  0  0  1  0  0  0  0  0  0
  190.0420  176.7910  140.3440 C   0  0  1  0  0  3  0  0  0  0  0  0
  189.6080  176.4760  141.7780 C   0  0  1  0  0  3  0  0  0  0  0  0
  190.5530  175.6610  142.4040 O   0  0  0  0  0  1  0  0  0  0  0  0
  189.4090  177.6970  142.5550 N   0  0  0  0  0  2  0  0  0  0  0  0
  187.9040  177.6060  144.5090 C   0  0  2  0  0  3  0  0  0  0  0  0
  186.7300  178.4150  145.0970 C   0  0  0  0  0  2  0  0  0  0  0  0
  184.9400  178.0870  143.3680 C   0  0  0  0  0  3  0  0  0  0  0  0
  187.1170  178.8130  142.3490 C   0  0  0  0  0  2  0  0  0  0  0  0
  188.0180  177.7430  142.9940 C   0  0  1  0  0  0  0  0  0  0  0  0
  185.6620  178.4520  142.3050 C   0  0  0  0  0  3  0  0  0  0  0  0
  185.4390  177.9720  144.6740 O   0  0  0  0  0  0  0  0  0  0  0  0
  187.4730  176.4580  143.5960 C   0  0  0  0  0  2  0  0  0  0  0  0
  182.4660  177.2070  135.7540 N   0  0  0  0  0  2  0  0  0  0  0  0
  180.2920  176.9610  136.4220 C   0  0  0  0  0  1  0  0  0  0  0  0
  181.5590  177.5910  136.7590 N   0  0  0  0  0  0  0  0  0  0  0  0
  181.3660  179.0330  136.6410 C   0  0  0  0  0  2  0  0  0  0  0  0
  180.9440  179.6790  137.9820 C   0  0  2  0  0  0  0  0  0  0  0  0
  181.9080  180.8090  138.3620 C   0  0  0  0  0  1  0  0  0  0  0  0
  180.6200  179.0180  140.4960 C   0  0  2  0  0  0  0  0  0  0  0  0
  182.6900  177.7960  140.6650 O   0  0  0  0  0  1  0  0  0  0  0  0
  182.1090  178.9670  140.1790 C   0  0  1  0  0  3  0  0  0  0  0  0
  180.1440  177.9630  141.2780 O   0  0  0  0  0  1  0  0  0  0  0  0
  181.0780  178.6140  139.0980 C   0  0  2  0  0  3  0  0  0  0  0  0
  180.0660  180.3770  140.7770 C   0  0  0  0  0  3  0  0  0  0  0  0
  179.9130  180.7520  141.9260 O   0  0  0  0  0  0  0  0  0  0  0  0
  179.5950  181.4500  137.3130 C   0  0  0  0  0  1  0  0  0  0  0  0
  179.6120  180.1740  137.9110 O   0  0  0  0  0  0  0  0  0  0  0  0
  1  9  1  0  0  0  0
  3  4  1  0  0  0  0
  3 29  1  1  0  0  0
  6 13  1  0  0  0  0
  6 17  1  1  0  0  0
  8  7  1  0  0  0  0
  9 11  1  1  0  0  0
  9  8  1  0  0  0  0
 10  2  1  6  0  0  0
 10  3  1  0  0  0  0
 11  6  1  0  0  0  0
 12 16  1  1  0  0  0
 12 10  1  0  0  0  0
 13 16  1  0  0  0  0
 14  1  1  1  0  0  0
 14 12  1  0  0  0  0
 14 15  1  0  0  0  0
 15 22  1  6  0  0  0
 15  7  1  0  0  0  0
 15  4  1  0  0  0  0
 16  5  2  0  0  0  0
 18 25  1  6  0  0  0
 19 24  2  0  0  0  0
 19 20  1  0  0  0  0
 20 22  2  0  0  0  0
 21 18  1  0  0  0  0
 21 26  1  1  0  0  0
 22 18  1  0  0  0  0
 23 20  1  0  0  0  0
 24 21  1  0  0  0  0
 25 21  1  0  0  0  0
 26 27  2  0  0  0  0
 26 28  1  0  0  0  0
 29 31  1  0  0  0  0
 31 30  1  1  0  0  0
 31 32  1  0  0  0  0
 32 33  1  1  0  0  0
 32 34  1  0  0  0  0
 35 42  1  6  0  0  0
 35 36  1  0  0  0  0
 37 41  1  0  0  0  0
 38 39  1  0  0  0  0
 39 34  1  6  0  0  0
 39 42  1  0  0  0  0
 39 35  1  0  0  0  0
 40 38  1  0  0  0  0
 40 37  2  0  0  0  0
 41 36  1  0  0  0  0
 43  6  1  0  0  0  0
 43 45  1  0  0  0  0
 44 45  1  0  0  0  0
 46 45  1  0  0  0  0
 46 47  1  0  0  0  0
 47 48  1  1  0  0  0
 49 54  1  0  0  0  0
 49 52  1  1  0  0  0
 51 49  1  0  0  0  0
 51 50  1  1  0  0  0
 53 47  1  6  0  0  0
 53 51  1  0  0  0  0
 53 49  1  0  0  0  0
 54 55  2  0  0  0  0
 56 57  1  0  0  0  0
 57 47  1  0  0  0  0
M  END
>  <MODEL>
1

>  <REMARK>
 VINA RESULT:      -6.7      0.000      0.000
  Name = 
  14 active torsions:
  status: ('A' for Active; 'I' for Inactive)
    1  A    between atoms: C_1  and  C_10
    2  A    between atoms: C_8  and  O_46
    3  A    between atoms: N_9  and  C_16
    4  A    between atoms: N_9  and  C_33
    5  A    between atoms: C_16  and  C_43
    6  A    between atoms: C_18  and  N_35
    7  A    between atoms: C_18  and  C_54
    8  A    between atoms: C_19  and  N_49
    9  A    between atoms: C_25  and  C_42
   10  A    between atoms: O_28  and  C_54
   11  A    between atoms: C_29  and  C_54
   12  A    between atoms: N_35  and  N_49
   13  A    between atoms: C_37  and  C_45
   14  A    between atoms: C_43  and  O_46
                            x       y       z     vdW  Elec       q    Type
                         _______ _______ _______ _____ _____    ______ ____

>  <TORSDO>
F 14

$$$$
=
 OpenBabel10222417243D

 57 64  0  0  1  0  0  0  0  0999 V2000
  186.1920  174.7740  134.8960 O   0  0  0  0  0  0  0  0  0  0  0  0
  189.1090  178.2200  135.0060 C   0  0  0  0  0  1  0  0  0  0  0  0
  189.0850  176.9800  137.1700 C   0  0  1  0  0  3  0  0  0  0  0  0
  188.3340  175.7920  137.7680 C   0  0  0  0  0  2  0  0  0  0  0  0
  185.8430  177.5650  137.6290 O   0  0  0  0  0  0  0  0  0  0  0  0
  183.5380  176.1490  136.2030 C   0  0  2  0  0  0  0  0  0  0  0  0
  187.1640  173.7490  137.2610 O   0  0  0  0  0  0  0  0  0  0  0  0
  185.8340  174.1900  137.2980 C   0  0  0  0  0  2  0  0  0  0  0  0
  185.3100  174.2280  135.8670 C   0  0  1  0  0  3  0  0  0  0  0  0
  188.2350  177.7570  136.1560 C   0  0  2  0  0  3  0  0  0  0  0  0
  183.8690  174.7270  135.7130 C   0  0  0  0  0  2  0  0  0  0  0  0
  187.0170  176.9850  135.6140 C   0  0  1  0  0  3  0  0  0  0  0  0
  184.5370  177.0920  135.7860 O   0  0  0  0  0  0  0  0  0  0  0  0
  187.2830  175.4720  135.4720 C   0  0  1  0  0  3  0  0  0  0  0  0
  187.9870  174.7530  136.6870 C   0  0  1  0  0  0  0  0  0  0  0  0
  185.7760  177.2550  136.4080 C   0  0  0  0  0  0  0  0  0  0  0  0
  183.3840  176.1300  137.7190 C   0  0  0  0  0  1  0  0  0  0  0  0
  190.5990  174.8090  136.4690 C   0  0  2  0  0  3  0  0  0  0  0  0
  190.5180  172.1720  135.2370 C   0  0  0  0  0  3  0  0  0  0  0  0
  189.2770  172.8380  135.6610 C   0  0  0  0  0  0  0  0  0  0  0  0
  191.8570  174.1240  135.9390 C   0  0  1  0  0  0  0  0  0  0  0  0
  189.2870  174.0750  136.2300 C   0  0  0  0  0  0  0  0  0  0  0  0
  188.0160  172.0760  135.4220 C   0  0  0  0  0  1  0  0  0  0  0  0
  191.7070  172.7520  135.3580 C   0  0  0  0  0  3  0  0  0  0  0  0
  191.2080  175.2310  135.1300 C   0  0  0  0  0  2  0  0  0  0  0  0
  193.1600  174.5060  136.5960 C   0  0  0  0  0  0  0  0  0  0  0  0
  193.6330  173.7900  137.4640 O   0  0  0  0  0  0  0  0  0  0  0  0
  193.8830  175.7610  136.2290 C   0  0  0  0  0  1  0  0  0  0  0  0
  189.5040  177.8360  138.1950 O   0  0  0  0  0  0  0  0  0  0  0  0
  191.3960  176.7210  139.1360 C   0  0  0  0  0  1  0  0  0  0  0  0
  189.9030  176.9960  139.2430 C   0  0  1  0  0  3  0  0  0  0  0  0
  189.5330  177.6130  140.5940 C   0  0  1  0  0  3  0  0  0  0  0  0
  188.5760  178.6150  140.4250 O   0  0  0  0  0  1  0  0  0  0  0  0
  189.0370  176.6010  141.5240 N   0  0  0  0  0  2  0  0  0  0  0  0
  191.0900  177.3250  142.6860 C   0  0  2  0  0  3  0  0  0  0  0  0
  191.4940  178.3060  143.8060 C   0  0  0  0  0  2  0  0  0  0  0  0
  190.3900  177.2970  145.8210 C   0  0  0  0  0  3  0  0  0  0  0  0
  188.8000  177.5360  143.8920 C   0  0  0  0  0  2  0  0  0  0  0  0
  189.6550  176.8260  142.8260 C   0  0  1  0  0  0  0  0  0  0  0  0
  189.1620  177.1900  145.3060 C   0  0  0  0  0  3  0  0  0  0  0  0
  191.5210  177.7300  145.1120 O   0  0  0  0  0  0  0  0  0  0  0  0
  190.8130  175.9040  143.1750 C   0  0  0  0  0  2  0  0  0  0  0  0
  182.2320  176.5320  135.6510 N   0  0  0  0  0  2  0  0  0  0  0  0
  180.2620  175.6120  136.3600 C   0  0  0  0  0  1  0  0  0  0  0  0
  181.2720  176.6080  136.6770 N   0  0  0  0  0  0  0  0  0  0  0  0
  180.6330  177.9160  136.5750 C   0  0  0  0  0  2  0  0  0  0  0  0
  180.6220  178.6700  137.9270 C   0  0  2  0  0  0  0  0  0  0  0  0
  179.3380  179.4940  138.0730 C   0  0  0  0  0  1  0  0  0  0  0  0
  182.6610  179.7460  139.1690 C   0  0  2  0  0  0  0  0  0  0  0  0
  182.2020  181.9920  138.4300 O   0  0  0  0  0  1  0  0  0  0  0  0
  181.6190  180.8320  138.9380 C   0  0  1  0  0  3  0  0  0  0  0  0
  183.9830  180.1330  138.9330 O   0  0  0  0  0  1  0  0  0  0  0  0
  181.7850  179.6930  137.9220 C   0  0  2  0  0  3  0  0  0  0  0  0
  182.4130  178.8510  140.3410 C   0  0  0  0  0  3  0  0  0  0  0  0
  183.3350  178.2400  140.8520 O   0  0  0  0  0  0  0  0  0  0  0  0
  179.4810  177.4480  139.5420 C   0  0  0  0  0  1  0  0  0  0  0  0
  180.7490  177.7620  139.0150 O   0  0  0  0  0  0  0  0  0  0  0  0
  1  9  1  0  0  0  0
  3  4  1  0  0  0  0
  3 29  1  1  0  0  0
  6 17  1  1  0  0  0
  7  8  1  0  0  0  0
  9 11  1  1  0  0  0
  9  8  1  0  0  0  0
 10  2  1  6  0  0  0
 10  3  1  0  0  0  0
 11  6  1  0  0  0  0
 12 10  1  0  0  0  0
 12 16  1  1  0  0  0
 13  6  1  0  0  0  0
 13 16  1  0  0  0  0
 14  1  1  1  0  0  0
 14 12  1  0  0  0  0
 14 15  1  0  0  0  0
 15 22  1  6  0  0  0
 15  7  1  0  0  0  0
 15  4  1  0  0  0  0
 16  5  2  0  0  0  0
 18 25  1  6  0  0  0
 19 24  2  0  0  0  0
 19 20  1  0  0  0  0
 20 22  2  0  0  0  0
 21 18  1  0  0  0  0
 21 26  1  1  0  0  0
 22 18  1  0  0  0  0
 23 20  1  0  0  0  0
 24 21  1  0  0  0  0
 25 21  1  0  0  0  0
 26 27  2  0  0  0  0
 28 26  1  0  0  0  0
 29 31  1  0  0  0  0
 31 30  1  1  0  0  0
 31 32  1  0  0  0  0
 32 33  1  6  0  0  0
 32 34  1  0  0  0  0
 35 39  1  0  0  0  0
 35 42  1  1  0  0  0
 35 36  1  0  0  0  0
 36 41  1  0  0  0  0
 38 40  1  0  0  0  0
 39 34  1  6  0  0  0
 39 42  1  0  0  0  0
 39 38  1  0  0  0  0
 40 37  2  0  0  0  0
 41 37  1  0  0  0  0
 43  6  1  0  0  0  0
 43 45  1  0  0  0  0
 44 45  1  0  0  0  0
 46 45  1  0  0  0  0
 46 47  1  0  0  0  0
 47 48  1  1  0  0  0
 47 57  1  0  0  0  0
 49 52  1  6  0  0  0
 49 54  1  0  0  0  0
 51 50  1  6  0  0  0
 51 49  1  0  0  0  0
 53 47  1  1  0  0  0
 53 51  1  0  0  0  0
 53 49  1  0  0  0  0
 54 55  2  0  0  0  0
 57 56  1  0  0  0  0
M  END
>  <MODEL>
2

>  <REMARK>
 VINA RESULT:      -6.6      1.774      2.521
  Name = 
  14 active torsions:
  status: ('A' for Active; 'I' for Inactive)
    1  A    between atoms: C_1  and  C_10
    2  A    between atoms: C_8  and  O_46
    3  A    between atoms: N_9  and  C_16
    4  A    between atoms: N_9  and  C_33
    5  A    between atoms: C_16  and  C_43
    6  A    between atoms: C_18  and  N_35
    7  A    between atoms: C_18  and  C_54
    8  A    between atoms: C_19  and  N_49
    9  A    between atoms: C_25  and  C_42
   10  A    between atoms: O_28  and  C_54
   11  A    between atoms: C_29  and  C_54
   12  A    between atoms: N_35  and  N_49
   13  A    between atoms: C_37  and  C_45
   14  A    between atoms: C_43  and  O_46
                            x       y       z     vdW  Elec       q    Type
                         _______ _______ _______ _____ _____    ______ ____

>  <TORSDO>
F 14

$$$$
=
 OpenBabel10222417243D

 57 64  0  0  1  0  0  0  0  0999 V2000
  187.0160  175.7040  134.7740 O   0  0  0  0  0  0  0  0  0  0  0  0
  189.3660  178.9530  136.8520 C   0  0  0  0  0  1  0  0  0  0  0  0
  189.0130  176.9880  138.3480 C   0  0  1  0  0  3  0  0  0  0  0  0
  188.3050  175.6380  138.2680 C   0  0  0  0  0  2  0  0  0  0  0  0
  185.7030  177.2450  138.1330 O   0  0  0  0  0  0  0  0  0  0  0  0
  183.9810  176.3910  135.7550 C   0  0  2  0  0  0  0  0  0  0  0  0
  187.5510  173.8970  136.7830 O   0  0  0  0  0  0  0  0  0  0  0  0
  186.2020  174.2450  136.6310 C   0  0  0  0  0  2  0  0  0  0  0  0
  186.0150  174.8020  135.2240 C   0  0  1  0  0  3  0  0  0  0  0  0
  188.3210  178.0600  137.4940 C   0  0  2  0  0  3  0  0  0  0  0  0
  184.5940  175.2720  134.8930 C   0  0  0  0  0  2  0  0  0  0  0  0
  187.3670  177.5080  136.4200 C   0  0  1  0  0  3  0  0  0  0  0  0
  184.9190  177.4560  135.9730 O   0  0  0  0  0  0  0  0  0  0  0  0
  187.8490  176.1700  135.8210 C   0  0  1  0  0  3  0  0  0  0  0  0
  188.3470  175.0710  136.8380 C   0  0  1  0  0  0  0  0  0  0  0  0
  185.9540  177.4160  136.9090 C   0  0  0  0  0  0  0  0  0  0  0  0
  183.4930  175.7970  137.0690 C   0  0  0  0  0  1  0  0  0  0  0  0
  190.9050  175.6430  136.8590 C   0  0  2  0  0  3  0  0  0  0  0  0
  191.4640  173.0340  135.6960 C   0  0  0  0  0  3  0  0  0  0  0  0
  190.0810  173.4430  135.9870 C   0  0  0  0  0  0  0  0  0  0  0  0
  192.3180  175.2180  136.4650 C   0  0  1  0  0  0  0  0  0  0  0  0
  189.7930  174.6610  136.5200 C   0  0  0  0  0  0  0  0  0  0  0  0
  189.0240  172.4430  135.6520 C   0  0  0  0  0  1  0  0  0  0  0  0
  192.4980  173.8390  135.9110 C   0  0  0  0  0  3  0  0  0  0  0  0
  191.5440  176.1670  135.5710 C   0  0  0  0  0  2  0  0  0  0  0  0
  193.4520  175.8570  137.2290 C   0  0  0  0  0  0  0  0  0  0  0  0
  193.8900  176.9370  136.8720 O   0  0  0  0  0  0  0  0  0  0  0  0
  194.0760  175.1850  138.4090 C   0  0  0  0  0  1  0  0  0  0  0  0
  189.0750  177.4080  139.6810 O   0  0  0  0  0  0  0  0  0  0  0  0
  191.4620  177.3850  139.7890 C   0  0  0  0  0  1  0  0  0  0  0  0
  190.1660  176.7260  140.2370 C   0  0  1  0  0  3  0  0  0  0  0  0
  190.0480  176.6810  141.7630 C   0  0  1  0  0  3  0  0  0  0  0  0
  190.1320  175.3640  142.2180 O   0  0  0  0  0  1  0  0  0  0  0  0
  191.0800  177.4950  142.4000 N   0  0  0  0  0  2  0  0  0  0  0  0
  189.4470  177.9540  144.1930 C   0  0  2  0  0  3  0  0  0  0  0  0
  188.8690  177.2430  145.4340 C   0  0  0  0  0  2  0  0  0  0  0  0
  190.8740  177.0800  146.9350 C   0  0  0  0  0  3  0  0  0  0  0  0
  191.3600  176.2500  144.6160 C   0  0  0  0  0  2  0  0  0  0  0  0
  190.8540  177.4810  143.8420 C   0  0  1  0  0  0  0  0  0  0  0  0
  191.7030  176.5190  146.0510 C   0  0  0  0  0  3  0  0  0  0  0  0
  189.5710  177.5140  146.6480 O   0  0  0  0  0  0  0  0  0  0  0  0
  190.6550  178.8410  144.4920 C   0  0  0  0  0  2  0  0  0  0  0  0
  182.7960  176.9080  135.0590 N   0  0  0  0  0  2  0  0  0  0  0  0
  180.6090  176.2480  134.9590 C   0  0  0  0  0  1  0  0  0  0  0  0
  181.6480  176.7310  135.8530 N   0  0  0  0  0  0  0  0  0  0  0  0
  181.2350  178.0520  136.3170 C   0  0  0  0  0  2  0  0  0  0  0  0
  180.4180  177.9820  137.6290 C   0  0  2  0  0  0  0  0  0  0  0  0
  178.9690  178.4200  137.3850 C   0  0  0  0  0  1  0  0  0  0  0  0
  181.0370  180.4670  138.1780 C   0  0  2  0  0  0  0  0  0  0  0  0
  183.1220  179.9360  139.2610 O   0  0  0  0  0  1  0  0  0  0  0  0
  182.3230  179.6520  138.1540 C   0  0  1  0  0  3  0  0  0  0  0  0
  180.9420  181.3960  139.2170 O   0  0  0  0  0  1  0  0  0  0  0  0
  181.0100  179.0100  138.6260 C   0  0  2  0  0  3  0  0  0  0  0  0
  180.5140  180.8870  136.8420 C   0  0  0  0  0  3  0  0  0  0  0  0
  180.7430  182.0060  136.4170 O   0  0  0  0  0  0  0  0  0  0  0  0
  179.9880  176.6830  139.5090 C   0  0  0  0  0  1  0  0  0  0  0  0
  180.4480  176.6690  138.1770 O   0  0  0  0  0  0  0  0  0  0  0  0
  1  9  1  0  0  0  0
  3 29  1  1  0  0  0
  4  3  1  0  0  0  0
  6 13  1  0  0  0  0
  6 17  1  1  0  0  0
  7 15  1  0  0  0  0
  8  7  1  0  0  0  0
  9 11  1  1  0  0  0
  9  8  1  0  0  0  0
 10  2  1  6  0  0  0
 10  3  1  0  0  0  0
 11  6  1  0  0  0  0
 12 16  1  1  0  0  0
 12 10  1  0  0  0  0
 13 16  1  0  0  0  0
 14  1  1  1  0  0  0
 14 12  1  0  0  0  0
 14 15  1  0  0  0  0
 15 22  1  6  0  0  0
 15  4  1  0  0  0  0
 16  5  2  0  0  0  0
 18 25  1  6  0  0  0
 19 24  2  0  0  0  0
 19 20  1  0  0  0  0
 20 22  2  0  0  0  0
 21 18  1  0  0  0  0
 21 26  1  1  0  0  0
 22 18  1  0  0  0  0
 23 20  1  0  0  0  0
 24 21  1  0  0  0  0
 25 21  1  0  0  0  0
 26 28  1  0  0  0  0
 27 26  2  0  0  0  0
 29 31  1  0  0  0  0
 31 30  1  1  0  0  0
 31 32  1  0  0  0  0
 32 33  1  1  0  0  0
 32 34  1  0  0  0  0
 35 42  1  1  0  0  0
 35 36  1  0  0  0  0
 36 41  1  0  0  0  0
 38 40  1  0  0  0  0
 39 34  1  6  0  0  0
 39 35  1  0  0  0  0
 39 42  1  0  0  0  0
 39 38  1  0  0  0  0
 40 37  2  0  0  0  0
 41 37  1  0  0  0  0
 43  6  1  0  0  0  0
 43 45  1  0  0  0  0
 44 45  1  0  0  0  0
 45 46  1  0  0  0  0
 46 47  1  0  0  0  0
 47 48  1  6  0  0  0
 47 57  1  0  0  0  0
 49 53  1  0  0  0  0
 49 52  1  1  0  0  0
 51 49  1  0  0  0  0
 51 53  1  0  0  0  0
 51 50  1  1  0  0  0
 53 47  1  6  0  0  0
 54 49  1  0  0  0  0
 55 54  2  0  0  0  0
 57 56  1  0  0  0  0
M  END
>  <MODEL>
3

>  <REMARK>
 VINA RESULT:      -5.8      1.638      2.475
  Name = 
  14 active torsions:
  status: ('A' for Active; 'I' for Inactive)
    1  A    between atoms: C_1  and  C_10
    2  A    between atoms: C_8  and  O_46
    3  A    between atoms: N_9  and  C_16
    4  A    between atoms: N_9  and  C_33
    5  A    between atoms: C_16  and  C_43
    6  A    between atoms: C_18  and  N_35
    7  A    between atoms: C_18  and  C_54
    8  A    between atoms: C_19  and  N_49
    9  A    between atoms: C_25  and  C_42
   10  A    between atoms: O_28  and  C_54
   11  A    between atoms: C_29  and  C_54
   12  A    between atoms: N_35  and  N_49
   13  A    between atoms: C_37  and  C_45
   14  A    between atoms: C_43  and  O_46
                            x       y       z     vdW  Elec       q    Type
                         _______ _______ _______ _____ _____    ______ ____

>  <TORSDO>
F 14

$$$$
=
 OpenBabel10222417243D

 57 64  0  0  1  0  0  0  0  0999 V2000
  188.4350  176.2700  138.5680 O   0  0  0  0  0  0  0  0  0  0  0  0
  188.6660  175.7250  143.0460 C   0  0  0  0  0  1  0  0  0  0  0  0
  188.9930  178.1130  142.4020 C   0  0  1  0  0  3  0  0  0  0  0  0
  189.0580  178.9210  141.1090 C   0  0  0  0  0  2  0  0  0  0  0  0
  191.6430  177.3890  140.5260 O   0  0  0  0  0  0  0  0  0  0  0  0
  191.5890  176.1150  137.7470 C   0  0  2  0  0  0  0  0  0  0  0  0
  188.3480  179.0120  138.8090 O   0  0  0  0  0  0  0  0  0  0  0  0
  189.4810  178.5010  138.1620 C   0  0  0  0  0  2  0  0  0  0  0  0
  189.1470  177.1000  137.6620 C   0  0  1  0  0  3  0  0  0  0  0  0
  189.5090  176.6790  142.2200 C   0  0  2  0  0  3  0  0  0  0  0  0
  190.2930  176.3690  136.9540 C   0  0  0  0  0  2  0  0  0  0  0  0
  189.5690  176.1990  140.7580 C   0  0  1  0  0  3  0  0  0  0  0  0
  191.3070  175.6310  139.0700 O   0  0  0  0  0  0  0  0  0  0  0  0
  188.4300  176.7760  139.8920 C   0  0  1  0  0  3  0  0  0  0  0  0
  188.1390  178.3210  140.0300 C   0  0  1  0  0  0  0  0  0  0  0  0
  190.9100  176.4400  140.1370 C   0  0  0  0  0  0  0  0  0  0  0  0
  192.4110  177.3960  137.7840 C   0  0  0  0  0  1  0  0  0  0  0  0
  186.3850  178.7640  141.9270 C   0  0  2  0  0  3  0  0  0  0  0  0
  184.2850  178.8640  139.9140 C   0  0  0  0  0  3  0  0  0  0  0  0
  185.6810  178.6200  139.5250 C   0  0  0  0  0  0  0  0  0  0  0  0
  184.9130  178.9310  142.3000 C   0  0  1  0  0  0  0  0  0  0  0  0
  186.6800  178.5570  140.4480 C   0  0  0  0  0  0  0  0  0  0  0  0
  185.9280  178.4370  138.0640 C   0  0  0  0  0  1  0  0  0  0  0  0
  183.9190  179.0080  141.1830 C   0  0  0  0  0  3  0  0  0  0  0  0
  185.5810  177.5790  142.4650 C   0  0  0  0  0  2  0  0  0  0  0  0
  184.6230  179.6520  143.5930 C   0  0  0  0  0  0  0  0  0  0  0  0
  185.4020  180.4970  144.0030 O   0  0  0  0  0  0  0  0  0  0  0  0
  183.4100  179.3400  144.4080 C   0  0  0  0  0  1  0  0  0  0  0  0
  189.7300  178.7610  143.3990 O   0  0  0  0  0  0  0  0  0  0  0  0
  192.0770  178.9150  143.8200 C   0  0  0  0  0  1  0  0  0  0  0  0
  190.8930  177.9950  143.5610 C   0  0  1  0  0  3  0  0  0  0  0  0
  190.7090  176.9730  144.6860 C   0  0  1  0  0  3  0  0  0  0  0  0
  191.7200  176.0120  144.6380 O   0  0  0  0  0  1  0  0  0  0  0  0
  190.6970  177.6200  145.9960 N   0  0  0  0  0  2  0  0  0  0  0  0
  189.3140  177.8540  148.0260 C   0  0  2  0  0  3  0  0  0  0  0  0
  188.0310  178.5890  148.4670 C   0  0  0  0  0  2  0  0  0  0  0  0
  186.2700  177.4680  147.0730 C   0  0  0  0  0  3  0  0  0  0  0  0
  188.2300  178.2210  145.6950 C   0  0  0  0  0  2  0  0  0  0  0  0
  189.3410  177.5570  146.5300 C   0  0  1  0  0  0  0  0  0  0  0  0
  186.8690  177.6200  145.8890 C   0  0  0  0  0  3  0  0  0  0  0  0
  186.8320  177.8280  148.3070 O   0  0  0  0  0  0  0  0  0  0  0  0
  189.0720  176.4330  147.5180 C   0  0  0  0  0  2  0  0  0  0  0  0
  192.3860  175.1220  137.0160 N   0  0  0  0  0  2  0  0  0  0  0  0
  194.0280  176.0860  135.7490 C   0  0  0  0  0  1  0  0  0  0  0  0
  193.7470  175.4770  137.0390 N   0  0  0  0  0  0  0  0  0  0  0  0
  194.5170  174.2390  137.1060 C   0  0  0  0  0  2  0  0  0  0  0  0
  195.5520  174.2540  138.2560 C   0  0  2  0  0  0  0  0  0  0  0  0
  195.0100  175.0350  139.4590 C   0  0  0  0  0  1  0  0  0  0  0  0
  197.4150  174.5960  136.4470 C   0  0  2  0  0  0  0  0  0  0  0  0
  199.1800  175.0120  138.0320 O   0  0  0  0  0  1  0  0  0  0  0  0
  198.0880  174.1920  137.7520 C   0  0  1  0  0  3  0  0  0  0  0  0
  198.0550  175.6170  135.7410 O   0  0  0  0  0  1  0  0  0  0  0  0
  196.8030  175.0310  137.7740 C   0  0  2  0  0  3  0  0  0  0  0  0
  196.8350  173.4750  135.6460 C   0  0  0  0  0  3  0  0  0  0  0  0
  197.3670  172.3780  135.6500 O   0  0  0  0  0  0  0  0  0  0  0  0
  194.8850  172.0270  138.2620 C   0  0  0  0  0  1  0  0  0  0  0  0
  195.8960  172.9300  138.6470 O   0  0  0  0  0  0  0  0  0  0  0  0
  3 29  1  1  0  0  0
  4  3  1  0  0  0  0
  6 17  1  1  0  0  0
  6 13  1  0  0  0  0
  7 15  1  0  0  0  0
  8  7  1  0  0  0  0
  9 11  1  1  0  0  0
  9  8  1  0  0  0  0
  9  1  1  0  0  0  0
 10  3  1  0  0  0  0
 10  2  1  1  0  0  0
 11  6  1  0  0  0  0
 12 16  1  6  0  0  0
 12 10  1  0  0  0  0
 13 16  1  0  0  0  0
 14  1  1  6  0  0  0
 14 15  1  0  0  0  0
 14 12  1  0  0  0  0
 15 22  1  1  0  0  0
 15  4  1  0  0  0  0
 16  5  2  0  0  0  0
 18 21  1  0  0  0  0
 18 25  1  1  0  0  0
 19 24  2  0  0  0  0
 20 19  1  0  0  0  0
 20 22  2  0  0  0  0
 21 25  1  0  0  0  0
 21 26  1  1  0  0  0
 22 18  1  0  0  0  0
 23 20  1  0  0  0  0
 24 21  1  0  0  0  0
 26 27  2  0  0  0  0
 26 28  1  0  0  0  0
 29 31  1  0  0  0  0
 31 30  1  1  0  0  0
 31 32  1  0  0  0  0
 32 33  1  1  0  0  0
 32 34  1  0  0  0  0
 35 42  1  1  0  0  0
 35 36  1  0  0  0  0
 37 41  1  0  0  0  0
 38 40  1  0  0  0  0
 38 39  1  0  0  0  0
 39 34  1  6  0  0  0
 39 42  1  0  0  0  0
 39 35  1  0  0  0  0
 40 37  2  0  0  0  0
 41 36  1  0  0  0  0
 43 45  1  0  0  0  0
 43  6  1  0  0  0  0
 44 45  1  0  0  0  0
 45 46  1  0  0  0  0
 46 47  1  0  0  0  0
 47 57  1  0  0  0  0
 47 48  1  1  0  0  0
 49 52  1  6  0  0  0
 49 51  1  0  0  0  0
 49 53  1  0  0  0  0
 51 53  1  0  0  0  0
 51 50  1  6  0  0  0
 53 47  1  1  0  0  0
 54 55  2  0  0  0  0
 54 49  1  0  0  0  0
 56 57  1  0  0  0  0
M  END
>  <MODEL>
4

>  <REMARK>
 VINA RESULT:      -5.0      3.790     10.084
  Name = 
  14 active torsions:
  status: ('A' for Active; 'I' for Inactive)
    1  A    between atoms: C_1  and  C_10
    2  A    between atoms: C_8  and  O_46
    3  A    between atoms: N_9  and  C_16
    4  A    between atoms: N_9  and  C_33
    5  A    between atoms: C_16  and  C_43
    6  A    between atoms: C_18  and  N_35
    7  A    between atoms: C_18  and  C_54
    8  A    between atoms: C_19  and  N_49
    9  A    between atoms: C_25  and  C_42
   10  A    between atoms: O_28  and  C_54
   11  A    between atoms: C_29  and  C_54
   12  A    between atoms: N_35  and  N_49
   13  A    between atoms: C_37  and  C_45
   14  A    between atoms: C_43  and  O_46
                            x       y       z     vdW  Elec       q    Type
                         _______ _______ _______ _____ _____    ______ ____

>  <TORSDO>
F 14

$$$$
=
 OpenBabel10222417243D

 57 64  0  0  1  0  0  0  0  0999 V2000
  184.7330  175.6270  135.7460 O   0  0  0  0  0  0  0  0  0  0  0  0
  183.0680  176.1490  139.9120 C   0  0  0  0  0  1  0  0  0  0  0  0
  182.1030  177.8210  138.3320 C   0  0  1  0  0  3  0  0  0  0  0  0
  182.2640  178.1840  136.8580 C   0  0  0  0  0  2  0  0  0  0  0  0
  185.1010  179.0640  137.5990 O   0  0  0  0  0  0  0  0  0  0  0  0
  187.1860  177.7770  135.7710 C   0  0  2  0  0  0  0  0  0  0  0  0
  182.8680  177.3500  134.6810 O   0  0  0  0  0  0  0  0  0  0  0  0
  184.1990  177.7770  134.5940 C   0  0  0  0  0  2  0  0  0  0  0  0
  185.0970  176.5530  134.7330 C   0  0  1  0  0  3  0  0  0  0  0  0
  183.3990  177.2650  138.9390 C   0  0  2  0  0  3  0  0  0  0  0  0
  186.6020  176.8400  134.6970 C   0  0  0  0  0  2  0  0  0  0  0  0
  184.4330  176.7760  137.9090 C   0  0  1  0  0  3  0  0  0  0  0  0
  186.6760  177.4610  137.0750 O   0  0  0  0  0  0  0  0  0  0  0  0
  183.7820  176.1520  136.6570 C   0  0  1  0  0  3  0  0  0  0  0  0
  182.5790  176.9410  136.0080 C   0  0  1  0  0  0  0  0  0  0  0  0
  185.4180  177.8440  137.5440 C   0  0  0  0  0  0  0  0  0  0  0  0
  186.8880  179.2200  135.3880 C   0  0  0  0  0  1  0  0  0  0  0  0
  181.4280  174.6360  136.4900 C   0  0  2  0  0  3  0  0  0  0  0  0
  178.9310  175.7040  135.4420 C   0  0  0  0  0  3  0  0  0  0  0  0
  180.1420  176.5360  135.4800 C   0  0  0  0  0  0  0  0  0  0  0  0
  180.1730  173.7760  136.3570 C   0  0  1  0  0  0  0  0  0  0  0  0
  181.3240  176.0570  135.9550 C   0  0  0  0  0  0  0  0  0  0  0  0
  179.9920  177.9270  134.9600 C   0  0  0  0  0  1  0  0  0  0  0  0
  178.9310  174.4370  135.8410 C   0  0  0  0  0  3  0  0  0  0  0  0
  181.2890  173.6380  135.3390 C   0  0  0  0  0  2  0  0  0  0  0  0
  180.0450  172.6170  137.3130 C   0  0  0  0  0  0  0  0  0  0  0  0
  180.3940  172.7480  138.4740 O   0  0  0  0  0  0  0  0  0  0  0  0
  179.5200  171.2900  136.8680 C   0  0  0  0  0  1  0  0  0  0  0  0
  181.6840  178.9450  139.0510 O   0  0  0  0  0  0  0  0  0  0  0  0
  179.6100  178.3060  140.0500 C   0  0  0  0  0  1  0  0  0  0  0  0
  180.2950  179.0000  138.8810 C   0  0  1  0  0  3  0  0  0  0  0  0
  179.8300  180.4510  138.7310 C   0  0  1  0  0  3  0  0  0  0  0  0
  179.2860  180.9140  139.9300 O   0  0  0  0  0  1  0  0  0  0  0  0
  180.9280  181.3210  138.3130 N   0  0  0  0  0  2  0  0  0  0  0  0
  180.9130  183.6210  137.4190 C   0  0  2  0  0  3  0  0  0  0  0  0
  181.1880  184.3380  136.0810 C   0  0  0  0  0  2  0  0  0  0  0  0
  179.3340  183.4750  134.6250 C   0  0  0  0  0  3  0  0  0  0  0  0
  180.5530  181.6220  135.8010 C   0  0  0  0  0  2  0  0  0  0  0  0
  180.4510  182.1790  137.2330 C   0  0  1  0  0  0  0  0  0  0  0  0
  179.5340  182.1740  134.8490 C   0  0  0  0  0  3  0  0  0  0  0  0
  180.0330  184.5140  135.2590 O   0  0  0  0  0  0  0  0  0  0  0  0
  179.4470  183.2480  137.6340 C   0  0  0  0  0  2  0  0  0  0  0  0
  188.6470  177.6300  135.7600 N   0  0  0  0  0  2  0  0  0  0  0  0
  189.4230  178.8600  137.5260 C   0  0  0  0  0  1  0  0  0  0  0  0
  189.1340  177.5080  137.0750 N   0  0  0  0  0  0  0  0  0  0  0  0
  190.4080  176.7990  137.0010 C   0  0  0  0  0  2  0  0  0  0  0  0
  190.4180  175.5210  137.8740 C   0  0  2  0  0  0  0  0  0  0  0  0
  190.9070  175.8410  139.2910 C   0  0  0  0  0  1  0  0  0  0  0  0
  192.9260  174.8700  137.4930 C   0  0  2  0  0  0  0  0  0  0  0  0
  192.6100  174.1110  135.2290 O   0  0  0  0  0  1  0  0  0  0  0  0
  192.2890  175.1230  136.1330 C   0  0  1  0  0  3  0  0  0  0  0  0
  193.7710  173.7590  137.5550 O   0  0  0  0  0  1  0  0  0  0  0  0
  191.4540  174.5350  137.2790 C   0  0  2  0  0  3  0  0  0  0  0  0
  193.3520  176.0910  138.2440 C   0  0  0  0  0  3  0  0  0  0  0  0
  193.6810  177.0970  137.6410 O   0  0  0  0  0  0  0  0  0  0  0  0
  188.9160  174.1120  136.7950 C   0  0  0  0  0  1  0  0  0  0  0  0
  189.1250  174.9300  137.9240 O   0  0  0  0  0  0  0  0  0  0  0  0
  3 10  1  0  0  0  0
  3 29  1  1  0  0  0
  4  3  1  0  0  0  0
  6 17  1  6  0  0  0
  6 13  1  0  0  0  0
  7 15  1  0  0  0  0
  8  7  1  0  0  0  0
  9  8  1  1  0  0  0
  9  1  1  0  0  0  0
 10  2  1  1  0  0  0
 11  9  1  0  0  0  0
 11  6  1  0  0  0  0
 12 16  1  6  0  0  0
 12 10  1  0  0  0  0
 13 16  1  0  0  0  0
 14  1  1  6  0  0  0
 14 12  1  0  0  0  0
 15 22  1  6  0  0  0
 15 14  1  0  0  0  0
 15  4  1  0  0  0  0
 16  5  2  0  0  0  0
 18 25  1  6  0  0  0
 19 20  1  0  0  0  0
 19 24  2  0  0  0  0
 20 22  2  0  0  0  0
 21 18  1  0  0  0  0
 21 26  1  1  0  0  0
 22 18  1  0  0  0  0
 23 20  1  0  0  0  0
 24 21  1  0  0  0  0
 25 21  1  0  0  0  0
 26 27  2  0  0  0  0
 28 26  1  0  0  0  0
 31 29  1  0  0  0  0
 31 30  1  1  0  0  0
 32 31  1  0  0  0  0
 32 33  1  1  0  0  0
 34 32  1  0  0  0  0
 35 36  1  6  0  0  0
 35 42  1  0  0  0  0
 37 40  2  0  0  0  0
 37 41  1  0  0  0  0
 38 39  1  0  0  0  0
 39 35  1  0  0  0  0
 39 42  1  0  0  0  0
 39 34  1  1  0  0  0
 40 38  1  0  0  0  0
 41 36  1  0  0  0  0
 43  6  1  0  0  0  0
 43 45  1  0  0  0  0
 45 44  1  0  0  0  0
 46 45  1  0  0  0  0
 46 47  1  0  0  0  0
 47 57  1  0  0  0  0
 47 48  1  1  0  0  0
 49 52  1  1  0  0  0
 49 54  1  0  0  0  0
 51 50  1  6  0  0  0
 51 53  1  0  0  0  0
 51 49  1  0  0  0  0
 53 49  1  0  0  0  0
 53 47  1  1  0  0  0
 55 54  2  0  0  0  0
 56 57  1  0  0  0  0
M  END
>  <MODEL>
5

>  <REMARK>
 VINA RESULT:      -4.4      2.908      9.894
  Name = 
  14 active torsions:
  status: ('A' for Active; 'I' for Inactive)
    1  A    between atoms: C_1  and  C_10
    2  A    between atoms: C_8  and  O_46
    3  A    between atoms: N_9  and  C_16
    4  A    between atoms: N_9  and  C_33
    5  A    between atoms: C_16  and  C_43
    6  A    between atoms: C_18  and  N_35
    7  A    between atoms: C_18  and  C_54
    8  A    between atoms: C_19  and  N_49
    9  A    between atoms: C_25  and  C_42
   10  A    between atoms: O_28  and  C_54
   11  A    between atoms: C_29  and  C_54
   12  A    between atoms: N_35  and  N_49
   13  A    between atoms: C_37  and  C_45
   14  A    between atoms: C_43  and  O_46
                            x       y       z     vdW  Elec       q    Type
                         _______ _______ _______ _____ _____    ______ ____

>  <TORSDO>
F 14

$$$$
