=
 OpenBabel10222415513D

 29 33  0  0  1  0  0  0  0  0999 V2000
  190.9050  177.1450  143.1800 C   0  0  1  0  0  0  0  0  0  0  0  0
  191.3820  176.3370  144.2210 C   0  0  0  0  0  0  0  0  0  0  0  0
  190.5790  176.6130  140.9540 C   0  0  0  0  0  0  0  0  0  0  0  0
  190.7390  177.1440  146.7490 C   0  0  0  0  0  0  0  0  0  0  0  0
  190.5880  177.5370  144.4890 C   0  0  0  0  0  0  0  0  0  0  0  0
  192.0250  177.8130  142.3990 C   0  0  0  0  0  2  0  0  0  0  0  0
  191.8920  175.4830  145.1490 C   0  0  0  0  0  3  0  0  0  0  0  0
  190.1520  176.1200  139.8730 O   0  0  0  0  0  0  0  0  0  0  0  0
  191.7700  177.3880  141.0320 N   0  0  0  0  0  0  0  0  0  0  0  0
  190.2220  178.0100  145.7110 C   0  0  0  0  0  3  0  0  0  0  0  0
  191.5340  175.9460  146.4630 C   0  0  0  0  0  3  0  0  0  0  0  0
  189.9040  176.4340  142.2690 C   0  0  2  0  0  3  0  0  0  0  0  0
  188.5530  177.0960  142.2840 C   0  0  0  0  0  0  0  0  0  0  0  0
  186.9630  178.7150  141.4200 C   0  0  0  0  0  3  0  0  0  0  0  0
  186.3780  177.3450  143.3280 C   0  0  0  0  0  3  0  0  0  0  0  0
  187.6330  176.7310  143.2710 C   0  0  0  0  0  3  0  0  0  0  0  0
  186.0300  178.3280  142.3910 C   0  0  0  0  0  0  0  0  0  0  0  0
  188.2140  178.1010  141.3640 C   0  0  0  0  0  3  0  0  0  0  0  0
  184.6680  179.8840  143.6790 N   0  0  0  0  0  2  0  0  0  0  0  0
  183.9760  178.5880  143.6720 C   0  0  0  0  0  2  0  0  0  0  0  0
  184.7080  179.0240  142.4810 C   0  0  2  0  0  3  0  0  0  0  0  0
  192.5620  177.8070  139.8900 C   0  0  0  0  0  2  0  0  0  0  0  0
  193.3980  176.7640  139.4920 O   0  0  0  0  0  0  0  0  0  0  0  0
  193.1240  176.5930  138.1320 C   0  0  0  0  0  2  0  0  0  0  0  0
  194.3630  174.4460  137.8440 C   0  0  0  0  0  1  0  0  0  0  0  0
  193.0000  175.1140  137.8110 C   0  0  0  0  0  2  0  0  0  0  0  0
  190.4860  177.4370  148.0920 O   0  0  0  0  0  0  0  0  0  0  0  0
  188.1260  177.4160  148.4860 C   0  0  0  0  0  1  0  0  0  0  0  0
  189.3940  178.2440  148.5160 C   0  0  0  0  0  2  0  0  0  0  0  0
  1  6  1  6  0  0  0
  1  2  1  0  0  0  0
  1  5  1  0  0  0  0
  2  5  2  0  0  0  0
  2  7  1  0  0  0  0
  3  9  1  0  0  0  0
  3 12  1  0  0  0  0
  4 27  1  0  0  0  0
  5 10  1  0  0  0  0
  7 11  2  0  0  0  0
  8  3  2  0  0  0  0
  9  6  1  0  0  0  0
 10  4  2  0  0  0  0
 11  4  1  0  0  0  0
 12 13  1  6  0  0  0
 12  1  1  0  0  0  0
 13 16  1  0  0  0  0
 14 17  2  0  0  0  0
 16 15  2  0  0  0  0
 17 15  1  0  0  0  0
 18 14  1  0  0  0  0
 18 13  2  0  0  0  0
 20 19  1  0  0  0  0
 21 17  1  1  0  0  0
 21 20  1  0  0  0  0
 21 19  1  0  0  0  0
 22  9  1  0  0  0  0
 23 22  1  0  0  0  0
 24 23  1  0  0  0  0
 26 25  1  0  0  0  0
 26 24  1  0  0  0  0
 27 29  1  0  0  0  0
 28 29  1  0  0  0  0
M  END
>  <MODEL>
1

>  <REMARK>
 VINA RESULT:      -7.5      0.000      0.000
  Name = 
  8 active torsions:
  status: ('A' for Active; 'I' for Inactive)
    1  A    between atoms: C_3  and  C_28
    2  A    between atoms: O_7  and  C_15
    3  A    between atoms: O_7  and  C_26
    4  A    between atoms: C_9  and  O_24
    5  A    between atoms: C_15  and  N_19
    6  A    between atoms: C_18  and  O_24
    7  A    between atoms: C_21  and  C_23
    8  A    between atoms: C_26  and  C_29
                            x       y       z     vdW  Elec       q    Type
                         _______ _______ _______ _____ _____    ______ ____

>  <TORSDO>
F 8

$$$$
=
 OpenBabel10222415513D

 29 33  0  0  1  0  0  0  0  0999 V2000
  185.1590  178.3010  142.4830 C   0  0  1  0  0  0  0  0  0  0  0  0
  185.1850  178.8540  143.7700 C   0  0  0  0  0  0  0  0  0  0  0  0
  184.5270  179.2830  140.4870 C   0  0  0  0  0  0  0  0  0  0  0  0
  186.8150  177.6080  145.5710 C   0  0  0  0  0  0  0  0  0  0  0  0
  185.9900  177.6800  143.4270 C   0  0  0  0  0  0  0  0  0  0  0  0
  183.7990  177.7280  142.1200 C   0  0  0  0  0  2  0  0  0  0  0  0
  185.1340  179.4720  144.9810 C   0  0  0  0  0  3  0  0  0  0  0  0
  184.4700  180.0070  139.4550 O   0  0  0  0  0  0  0  0  0  0  0  0
  183.4630  178.4300  140.8930 N   0  0  0  0  0  0  0  0  0  0  0  0
  186.8250  177.0010  144.2580 C   0  0  0  0  0  3  0  0  0  0  0  0
  186.0030  178.7840  145.8980 C   0  0  0  0  0  3  0  0  0  0  0  0
  185.6980  179.2440  141.4060 C   0  0  2  0  0  3  0  0  0  0  0  0
  186.9140  178.6830  140.7180 C   0  0  0  0  0  0  0  0  0  0  0  0
  189.2840  178.1600  140.6690 C   0  0  0  0  0  3  0  0  0  0  0  0
  187.9070  177.7130  138.7300 C   0  0  0  0  0  3  0  0  0  0  0  0
  186.7920  178.2170  139.4060 C   0  0  0  0  0  3  0  0  0  0  0  0
  189.1560  177.6660  139.3650 C   0  0  0  0  0  0  0  0  0  0  0  0
  188.1700  178.6620  141.3430 C   0  0  0  0  0  3  0  0  0  0  0  0
  190.6720  175.7890  139.0260 N   0  0  0  0  0  2  0  0  0  0  0  0
  191.4620  176.9100  139.5540 C   0  0  0  0  0  2  0  0  0  0  0  0
  190.3620  177.1750  138.6260 C   0  0  2  0  0  3  0  0  0  0  0  0
  182.2530  178.1940  140.1260 C   0  0  0  0  0  2  0  0  0  0  0  0
  181.3520  179.2360  140.3390 O   0  0  0  0  0  0  0  0  0  0  0  0
  180.4220  178.7170  141.2440 C   0  0  0  0  0  2  0  0  0  0  0  0
  180.3240  178.4890  143.7280 C   0  0  0  0  0  1  0  0  0  0  0  0
  180.5260  179.4510  142.5710 C   0  0  0  0  0  2  0  0  0  0  0  0
  187.6050  177.0730  146.5940 O   0  0  0  0  0  0  0  0  0  0  0  0
  188.6480  178.1420  148.4630 C   0  0  0  0  0  1  0  0  0  0  0  0
  188.8170  177.6750  147.0320 C   0  0  0  0  0  2  0  0  0  0  0  0
  1  6  1  6  0  0  0
  1  5  1  0  0  0  0
  1  2  1  0  0  0  0
  2  7  1  0  0  0  0
  3  9  1  0  0  0  0
  3 12  1  0  0  0  0
  4 11  1  0  0  0  0
  4 27  1  0  0  0  0
  5  2  2  0  0  0  0
  5 10  1  0  0  0  0
  7 11  2  0  0  0  0
  8  3  2  0  0  0  0
  9  6  1  0  0  0  0
 10  4  2  0  0  0  0
 12 13  1  6  0  0  0
 12  1  1  0  0  0  0
 13 18  1  0  0  0  0
 14 18  2  0  0  0  0
 15 17  2  0  0  0  0
 15 16  1  0  0  0  0
 16 13  2  0  0  0  0
 17 14  1  0  0  0  0
 19 20  1  0  0  0  0
 21 19  1  0  0  0  0
 21 17  1  1  0  0  0
 21 20  1  0  0  0  0
 22 23  1  0  0  0  0
 22  9  1  0  0  0  0
 23 24  1  0  0  0  0
 24 26  1  0  0  0  0
 26 25  1  0  0  0  0
 27 29  1  0  0  0  0
 29 28  1  0  0  0  0
M  END
>  <MODEL>
2

>  <REMARK>
 VINA RESULT:      -7.4      3.192      7.564
  Name = 
  8 active torsions:
  status: ('A' for Active; 'I' for Inactive)
    1  A    between atoms: C_3  and  C_28
    2  A    between atoms: O_7  and  C_15
    3  A    between atoms: O_7  and  C_26
    4  A    between atoms: C_9  and  O_24
    5  A    between atoms: C_15  and  N_19
    6  A    between atoms: C_18  and  O_24
    7  A    between atoms: C_21  and  C_23
    8  A    between atoms: C_26  and  C_29
                            x       y       z     vdW  Elec       q    Type
                         _______ _______ _______ _____ _____    ______ ____

>  <TORSDO>
F 8

$$$$
=
 OpenBabel10222415513D

 29 33  0  0  1  0  0  0  0  0999 V2000
  185.1390  178.3090  142.4490 C   0  0  1  0  0  0  0  0  0  0  0  0
  185.1330  178.8660  143.7350 C   0  0  0  0  0  0  0  0  0  0  0  0
  184.5490  179.2830  140.4370 C   0  0  0  0  0  0  0  0  0  0  0  0
  186.7270  177.6320  145.5760 C   0  0  0  0  0  0  0  0  0  0  0  0
  185.9500  177.6950  143.4140 C   0  0  0  0  0  0  0  0  0  0  0  0
  183.7900  177.7290  142.0570 C   0  0  0  0  0  2  0  0  0  0  0  0
  185.0520  179.4870  144.9430 C   0  0  0  0  0  3  0  0  0  0  0  0
  184.5120  180.0040  139.4010 O   0  0  0  0  0  0  0  0  0  0  0  0
  183.4790  178.4270  140.8210 N   0  0  0  0  0  0  0  0  0  0  0  0
  186.7690  177.0210  144.2650 C   0  0  0  0  0  3  0  0  0  0  0  0
  185.9020  178.8050  145.8820 C   0  0  0  0  0  3  0  0  0  0  0  0
  185.6980  179.2510  141.3820 C   0  0  2  0  0  3  0  0  0  0  0  0
  186.9320  178.6930  140.7240 C   0  0  0  0  0  0  0  0  0  0  0  0
  189.3030  178.1710  140.7350 C   0  0  0  0  0  3  0  0  0  0  0  0
  187.9770  177.7330  138.7580 C   0  0  0  0  0  3  0  0  0  0  0  0
  186.8450  178.2340  139.4060 C   0  0  0  0  0  3  0  0  0  0  0  0
  189.2090  177.6830  139.4250 C   0  0  0  0  0  0  0  0  0  0  0  0
  188.1710  178.6700  141.3810 C   0  0  0  0  0  3  0  0  0  0  0  0
  190.7400  175.8120  139.1270 N   0  0  0  0  0  2  0  0  0  0  0  0
  191.5140  176.9370  139.6700 C   0  0  0  0  0  2  0  0  0  0  0  0
  190.4340  177.1950  138.7160 C   0  0  2  0  0  3  0  0  0  0  0  0
  182.2880  178.1830  140.0270 C   0  0  0  0  0  2  0  0  0  0  0  0
  182.5760  177.2610  139.0210 O   0  0  0  0  0  0  0  0  0  0  0  0
  182.1540  177.8830  137.8430 C   0  0  0  0  0  2  0  0  0  0  0  0
  184.3580  176.9340  137.1570 C   0  0  0  0  0  1  0  0  0  0  0  0
  182.9980  177.4040  136.6740 C   0  0  0  0  0  2  0  0  0  0  0  0
  187.4950  177.1030  146.6190 O   0  0  0  0  0  0  0  0  0  0  0  0
  188.5830  178.1330  148.4850 C   0  0  0  0  0  1  0  0  0  0  0  0
  188.7220  177.6810  147.0460 C   0  0  0  0  0  2  0  0  0  0  0  0
  1  6  1  6  0  0  0
  1  5  1  0  0  0  0
  1  2  1  0  0  0  0
  2  7  1  0  0  0  0
  3  9  1  0  0  0  0
  3 12  1  0  0  0  0
  4 11  1  0  0  0  0
  4 27  1  0  0  0  0
  5  2  2  0  0  0  0
  5 10  1  0  0  0  0
  7 11  2  0  0  0  0
  8  3  2  0  0  0  0
  9  6  1  0  0  0  0
 10  4  2  0  0  0  0
 12 13  1  6  0  0  0
 12  1  1  0  0  0  0
 13 18  1  0  0  0  0
 14 18  2  0  0  0  0
 15 16  1  0  0  0  0
 15 17  2  0  0  0  0
 16 13  2  0  0  0  0
 17 14  1  0  0  0  0
 19 20  1  0  0  0  0
 21 19  1  0  0  0  0
 21 17  1  1  0  0  0
 21 20  1  0  0  0  0
 22  9  1  0  0  0  0
 23 22  1  0  0  0  0
 24 23  1  0  0  0  0
 26 25  1  0  0  0  0
 26 24  1  0  0  0  0
 27 29  1  0  0  0  0
 29 28  1  0  0  0  0
M  END
>  <MODEL>
3

>  <REMARK>
 VINA RESULT:      -7.2      3.243      6.805
  Name = 
  8 active torsions:
  status: ('A' for Active; 'I' for Inactive)
    1  A    between atoms: C_3  and  C_28
    2  A    between atoms: O_7  and  C_15
    3  A    between atoms: O_7  and  C_26
    4  A    between atoms: C_9  and  O_24
    5  A    between atoms: C_15  and  N_19
    6  A    between atoms: C_18  and  O_24
    7  A    between atoms: C_21  and  C_23
    8  A    between atoms: C_26  and  C_29
                            x       y       z     vdW  Elec       q    Type
                         _______ _______ _______ _____ _____    ______ ____

>  <TORSDO>
F 8

$$$$
=
 OpenBabel10222415513D

 29 33  0  0  1  0  0  0  0  0999 V2000
  188.7070  177.5090  141.7900 C   0  0  1  0  0  0  0  0  0  0  0  0
  187.6850  178.4480  141.5920 C   0  0  0  0  0  0  0  0  0  0  0  0
  190.9500  177.6610  141.2480 C   0  0  0  0  0  0  0  0  0  0  0  0
  185.4800  178.1620  143.1760 C   0  0  0  0  0  0  0  0  0  0  0  0
  187.5630  177.3860  142.5920 C   0  0  0  0  0  0  0  0  0  0  0  0
  188.9290  176.6210  140.5770 C   0  0  0  0  0  2  0  0  0  0  0  0
  186.7610  179.4070  141.3170 C   0  0  0  0  0  3  0  0  0  0  0  0
  192.1680  177.9870  141.2000 O   0  0  0  0  0  0  0  0  0  0  0  0
  190.3380  176.8150  140.2810 N   0  0  0  0  0  0  0  0  0  0  0  0
  186.5060  177.1710  143.4200 C   0  0  0  0  0  3  0  0  0  0  0  0
  185.6180  179.2190  142.1690 C   0  0  0  0  0  3  0  0  0  0  0  0
  190.0090  178.1280  142.3020 C   0  0  2  0  0  3  0  0  0  0  0  0
  190.3960  177.5950  143.6550 C   0  0  0  0  0  0  0  0  0  0  0  0
  191.6140  176.0360  145.0630 C   0  0  0  0  0  3  0  0  0  0  0  0
  190.1260  177.6620  146.0640 C   0  0  0  0  0  3  0  0  0  0  0  0
  189.8070  178.1510  144.7940 C   0  0  0  0  0  3  0  0  0  0  0  0
  191.0450  176.6130  146.2070 C   0  0  0  0  0  0  0  0  0  0  0  0
  191.2940  176.5260  143.7960 C   0  0  0  0  0  3  0  0  0  0  0  0
  192.3530  176.8940  148.2420 N   0  0  0  0  0  2  0  0  0  0  0  0
  192.7450  175.6140  147.6350 C   0  0  0  0  0  2  0  0  0  0  0  0
  191.3500  176.0530  147.5610 C   0  0  2  0  0  3  0  0  0  0  0  0
  191.0450  176.1340  139.2110 C   0  0  0  0  0  2  0  0  0  0  0  0
  190.1660  175.8720  138.1600 O   0  0  0  0  0  0  0  0  0  0  0  0
  190.3260  176.9530  137.2910 C   0  0  0  0  0  2  0  0  0  0  0  0
  189.0040  179.0700  137.2750 C   0  0  0  0  0  1  0  0  0  0  0  0
  188.9750  177.5800  136.9880 C   0  0  0  0  0  2  0  0  0  0  0  0
  184.2940  178.1360  143.9160 O   0  0  0  0  0  0  0  0  0  0  0  0
  184.9120  178.6540  146.1700 C   0  0  0  0  0  1  0  0  0  0  0  0
  184.0340  179.0280  144.9930 C   0  0  0  0  0  2  0  0  0  0  0  0
  1  6  1  6  0  0  0
  1 12  1  0  0  0  0
  1  5  1  0  0  0  0
  2  1  1  0  0  0  0
  2  5  1  0  0  0  0
  3 12  1  0  0  0  0
  4 10  1  0  0  0  0
  4 27  1  0  0  0  0
  5 10  2  0  0  0  0
  7  2  2  0  0  0  0
  7 11  1  0  0  0  0
  8  3  2  0  0  0  0
  9  6  1  0  0  0  0
  9  3  1  0  0  0  0
 11  4  2  0  0  0  0
 12 13  1  1  0  0  0
 13 18  2  0  0  0  0
 13 16  1  0  0  0  0
 14 17  2  0  0  0  0
 15 17  1  0  0  0  0
 16 15  2  0  0  0  0
 18 14  1  0  0  0  0
 20 19  1  0  0  0  0
 21 17  1  6  0  0  0
 21 20  1  0  0  0  0
 21 19  1  0  0  0  0
 22  9  1  0  0  0  0
 23 22  1  0  0  0  0
 24 23  1  0  0  0  0
 26 25  1  0  0  0  0
 26 24  1  0  0  0  0
 27 29  1  0  0  0  0
 29 28  1  0  0  0  0
M  END
>  <MODEL>
4

>  <REMARK>
 VINA RESULT:      -7.1      2.602      5.512
  Name = 
  8 active torsions:
  status: ('A' for Active; 'I' for Inactive)
    1  A    between atoms: C_3  and  C_28
    2  A    between atoms: O_7  and  C_15
    3  A    between atoms: O_7  and  C_26
    4  A    between atoms: C_9  and  O_24
    5  A    between atoms: C_15  and  N_19
    6  A    between atoms: C_18  and  O_24
    7  A    between atoms: C_21  and  C_23
    8  A    between atoms: C_26  and  C_29
                            x       y       z     vdW  Elec       q    Type
                         _______ _______ _______ _____ _____    ______ ____

>  <TORSDO>
F 8

$$$$
=
 OpenBabel10222415513D

 29 33  0  0  1  0  0  0  0  0999 V2000
  189.2840  177.4880  141.0750 C   0  0  1  0  0  0  0  0  0  0  0  0
  189.5090  176.8440  139.8510 C   0  0  0  0  0  0  0  0  0  0  0  0
  187.5250  177.2320  142.5540 C   0  0  0  0  0  0  0  0  0  0  0  0
  192.0920  176.8340  138.9670 C   0  0  0  0  0  0  0  0  0  0  0  0
  190.6020  177.4680  140.5990 C   0  0  0  0  0  0  0  0  0  0  0  0
  188.4050  178.7210  140.9340 C   0  0  0  0  0  2  0  0  0  0  0  0
  189.6130  176.1940  138.6610 C   0  0  0  0  0  3  0  0  0  0  0  0
  186.7080  176.7780  143.4020 O   0  0  0  0  0  0  0  0  0  0  0  0
  187.3130  178.4520  141.8540 N   0  0  0  0  0  0  0  0  0  0  0  0
  191.9120  177.5090  140.2340 C   0  0  0  0  0  3  0  0  0  0  0  0
  190.9860  176.2150  138.2310 C   0  0  0  0  0  3  0  0  0  0  0  0
  188.7900  176.5470  142.1750 C   0  0  2  0  0  3  0  0  0  0  0  0
  189.7460  176.4830  143.3360 C   0  0  0  0  0  0  0  0  0  0  0  0
  191.6790  175.5320  144.4560 C   0  0  0  0  0  3  0  0  0  0  0  0
  190.3720  177.2500  145.5500 C   0  0  0  0  0  3  0  0  0  0  0  0
  189.5180  177.3030  144.4440 C   0  0  0  0  0  3  0  0  0  0  0  0
  191.4680  176.3760  145.5540 C   0  0  0  0  0  0  0  0  0  0  0  0
  190.8260  175.5870  143.3530 C   0  0  0  0  0  3  0  0  0  0  0  0
  191.7980  175.3080  147.7180 N   0  0  0  0  0  2  0  0  0  0  0  0
  191.6530  176.7510  147.9520 C   0  0  0  0  0  2  0  0  0  0  0  0
  192.3540  176.2790  146.7570 C   0  0  2  0  0  3  0  0  0  0  0  0
  186.2180  179.3740  142.1070 C   0  0  0  0  0  2  0  0  0  0  0  0
  185.2780  179.2770  141.0810 O   0  0  0  0  0  0  0  0  0  0  0  0
  184.1870  178.6280  141.6640 C   0  0  0  0  0  2  0  0  0  0  0  0
  182.6480  179.0030  143.5920 C   0  0  0  0  0  1  0  0  0  0  0  0
  184.0950  178.9920  143.1370 C   0  0  0  0  0  2  0  0  0  0  0  0
  193.3650  176.7520  138.3940 O   0  0  0  0  0  0  0  0  0  0  0  0
  194.3700  174.6320  137.9240 C   0  0  0  0  0  1  0  0  0  0  0  0
  193.6840  175.8500  137.3420 C   0  0  0  0  0  2  0  0  0  0  0  0
  1  6  1  6  0  0  0
  1 12  1  0  0  0  0
  2  5  1  0  0  0  0
  2  1  1  0  0  0  0
  3  8  2  0  0  0  0
  4 10  1  0  0  0  0
  5  1  1  0  0  0  0
  6  9  1  0  0  0  0
  7  2  2  0  0  0  0
  9 22  1  0  0  0  0
  9  3  1  0  0  0  0
 10  5  2  0  0  0  0
 11  7  1  0  0  0  0
 11  4  2  0  0  0  0
 12  3  1  0  0  0  0
 12 13  1  1  0  0  0
 13 18  2  0  0  0  0
 13 16  1  0  0  0  0
 14 17  2  0  0  0  0
 15 17  1  0  0  0  0
 16 15  2  0  0  0  0
 18 14  1  0  0  0  0
 19 20  1  0  0  0  0
 21 17  1  6  0  0  0
 21 19  1  0  0  0  0
 21 20  1  0  0  0  0
 23 24  1  0  0  0  0
 23 22  1  0  0  0  0
 24 26  1  0  0  0  0
 26 25  1  0  0  0  0
 27  4  1  0  0  0  0
 29 28  1  0  0  0  0
 29 27  1  0  0  0  0
M  END
>  <MODEL>
5

>  <REMARK>
 VINA RESULT:      -6.9      2.335      7.565
  Name = 
  8 active torsions:
  status: ('A' for Active; 'I' for Inactive)
    1  A    between atoms: C_3  and  C_28
    2  A    between atoms: O_7  and  C_15
    3  A    between atoms: O_7  and  C_26
    4  A    between atoms: C_9  and  O_24
    5  A    between atoms: C_15  and  N_19
    6  A    between atoms: C_18  and  O_24
    7  A    between atoms: C_21  and  C_23
    8  A    between atoms: C_26  and  C_29
                            x       y       z     vdW  Elec       q    Type
                         _______ _______ _______ _____ _____    ______ ____

>  <TORSDO>
F 8

$$$$
=
 OpenBabel10222415513D

 29 33  0  0  1  0  0  0  0  0999 V2000
  189.2580  177.6470  141.3120 C   0  0  1  0  0  0  0  0  0  0  0  0
  189.7190  178.2350  142.4980 C   0  0  0  0  0  0  0  0  0  0  0  0
  188.7140  178.6540  139.3030 C   0  0  0  0  0  0  0  0  0  0  0  0
  191.0330  176.5730  144.2200 C   0  0  0  0  0  0  0  0  0  0  0  0
  189.9370  176.8150  142.2140 C   0  0  0  0  0  0  0  0  0  0  0  0
  187.7410  177.6430  141.2130 C   0  0  0  0  0  2  0  0  0  0  0  0
  190.1220  178.9060  143.6100 C   0  0  0  0  0  3  0  0  0  0  0  0
  188.7590  179.2640  138.1980 O   0  0  0  0  0  0  0  0  0  0  0  0
  187.4920  178.3310  139.9570 N   0  0  0  0  0  0  0  0  0  0  0  0
  190.5790  175.9200  143.0110 C   0  0  0  0  0  3  0  0  0  0  0  0
  190.8050  177.9960  144.4890 C   0  0  0  0  0  3  0  0  0  0  0  0
  189.9200  178.2140  140.0560 C   0  0  2  0  0  3  0  0  0  0  0  0
  190.6860  177.1650  139.2950 C   0  0  0  0  0  0  0  0  0  0  0  0
  190.7710  175.1830  137.8950 C   0  0  0  0  0  3  0  0  0  0  0  0
  192.8230  176.1940  138.6850 C   0  0  0  0  0  3  0  0  0  0  0  0
  192.0830  177.1700  139.3600 C   0  0  0  0  0  3  0  0  0  0  0  0
  192.1710  175.2060  137.9350 C   0  0  0  0  0  0  0  0  0  0  0  0
  190.0330  176.1580  138.5680 C   0  0  0  0  0  3  0  0  0  0  0  0
  193.0400  174.4000  135.8070 N   0  0  0  0  0  2  0  0  0  0  0  0
  192.1130  173.3830  136.3220 C   0  0  0  0  0  2  0  0  0  0  0  0
  192.9580  174.1300  137.2540 C   0  0  2  0  0  3  0  0  0  0  0  0
  186.1700  178.5450  139.3960 C   0  0  0  0  0  2  0  0  0  0  0  0
  185.4260  179.3610  140.2480 O   0  0  0  0  0  0  0  0  0  0  0  0
  184.2640  178.6300  140.5080 C   0  0  0  0  0  2  0  0  0  0  0  0
  184.9550  179.3740  142.7880 C   0  0  0  0  0  1  0  0  0  0  0  0
  184.1440  178.3620  141.9990 C   0  0  0  0  0  2  0  0  0  0  0  0
  191.7210  175.8410  145.1920 O   0  0  0  0  0  0  0  0  0  0  0  0
  192.0580  175.2510  147.4870 C   0  0  0  0  0  1  0  0  0  0  0  0
  192.0550  176.3730  146.4690 C   0  0  0  0  0  2  0  0  0  0  0  0
  1  6  1  6  0  0  0
  1  5  1  0  0  0  0
  1  2  1  0  0  0  0
  2  7  1  0  0  0  0
  3  9  1  0  0  0  0
  3 12  1  0  0  0  0
  4 11  1  0  0  0  0
  4 27  1  0  0  0  0
  5  2  2  0  0  0  0
  5 10  1  0  0  0  0
  7 11  2  0  0  0  0
  8  3  2  0  0  0  0
  9  6  1  0  0  0  0
 10  4  2  0  0  0  0
 12 13  1  6  0  0  0
 12  1  1  0  0  0  0
 13 16  1  0  0  0  0
 14 17  2  0  0  0  0
 14 18  1  0  0  0  0
 15 16  2  0  0  0  0
 17 15  1  0  0  0  0
 18 13  2  0  0  0  0
 19 20  1  0  0  0  0
 19 21  1  0  0  0  0
 20 21  1  0  0  0  0
 21 17  1  1  0  0  0
 22  9  1  0  0  0  0
 22 23  1  0  0  0  0
 23 24  1  0  0  0  0
 24 26  1  0  0  0  0
 26 25  1  0  0  0  0
 27 29  1  0  0  0  0
 29 28  1  0  0  0  0
M  END
>  <MODEL>
6

>  <REMARK>
 VINA RESULT:      -6.7      2.480      6.685
  Name = 
  8 active torsions:
  status: ('A' for Active; 'I' for Inactive)
    1  A    between atoms: C_3  and  C_28
    2  A    between atoms: O_7  and  C_15
    3  A    between atoms: O_7  and  C_26
    4  A    between atoms: C_9  and  O_24
    5  A    between atoms: C_15  and  N_19
    6  A    between atoms: C_18  and  O_24
    7  A    between atoms: C_21  and  C_23
    8  A    between atoms: C_26  and  C_29
                            x       y       z     vdW  Elec       q    Type
                         _______ _______ _______ _____ _____    ______ ____

>  <TORSDO>
F 8

$$$$
=
 OpenBabel10222415513D

 29 33  0  0  1  0  0  0  0  0999 V2000
  188.0330  177.5350  142.6130 C   0  0  1  0  0  0  0  0  0  0  0  0
  188.9450  177.8630  143.6250 C   0  0  0  0  0  0  0  0  0  0  0  0
  186.5150  178.8980  141.5220 C   0  0  0  0  0  0  0  0  0  0  0  0
  191.0590  176.1620  143.9210 C   0  0  0  0  0  0  0  0  0  0  0  0
  189.1290  176.6780  142.7860 C   0  0  0  0  0  0  0  0  0  0  0  0
  186.6560  177.1880  143.1570 C   0  0  0  0  0  2  0  0  0  0  0  0
  189.7640  178.2750  144.6300 C   0  0  0  0  0  3  0  0  0  0  0  0
  185.9790  179.7830  140.8000 O   0  0  0  0  0  0  0  0  0  0  0  0
  185.7830  178.1160  142.4590 N   0  0  0  0  0  0  0  0  0  0  0  0
  190.1480  175.7810  142.8640 C   0  0  0  0  0  3  0  0  0  0  0  0
  190.8600  177.3520  144.7540 C   0  0  0  0  0  3  0  0  0  0  0  0
  187.9680  178.5750  141.4940 C   0  0  2  0  0  3  0  0  0  0  0  0
  188.3740  178.0010  140.1630 C   0  0  0  0  0  0  0  0  0  0  0  0
  187.8300  177.0400  138.0010 C   0  0  0  0  0  3  0  0  0  0  0  0
  190.1430  177.2720  138.6720 C   0  0  0  0  0  3  0  0  0  0  0  0
  189.7340  177.8260  139.8890 C   0  0  0  0  0  3  0  0  0  0  0  0
  189.1930  176.8920  137.7140 C   0  0  0  0  0  0  0  0  0  0  0  0
  187.4230  177.5930  139.2150 C   0  0  0  0  0  3  0  0  0  0  0  0
  190.2440  174.9400  136.7050 N   0  0  0  0  0  2  0  0  0  0  0  0
  191.0830  176.1060  136.3960 C   0  0  0  0  0  2  0  0  0  0  0  0
  189.6260  176.2520  136.4330 C   0  0  2  0  0  3  0  0  0  0  0  0
  184.3390  178.1470  142.6140 C   0  0  0  0  0  2  0  0  0  0  0  0
  183.9730  179.2660  143.3620 O   0  0  0  0  0  0  0  0  0  0  0  0
  183.8160  178.7810  144.6630 C   0  0  0  0  0  2  0  0  0  0  0  0
  185.1840  178.2990  146.6940 C   0  0  0  0  0  1  0  0  0  0  0  0
  184.9670  179.2540  145.5340 C   0  0  0  0  0  2  0  0  0  0  0  0
  192.1880  175.3790  144.1850 O   0  0  0  0  0  0  0  0  0  0  0  0
  192.3270  175.3130  146.5740 C   0  0  0  0  0  1  0  0  0  0  0  0
  192.2750  174.4970  145.2980 C   0  0  0  0  0  2  0  0  0  0  0  0
  1  5  1  0  0  0  0
  1  6  1  1  0  0  0
  1  2  1  0  0  0  0
  2  7  1  0  0  0  0
  3  9  1  0  0  0  0
  4 27  1  0  0  0  0
  4 11  1  0  0  0  0
  5 10  1  0  0  0  0
  5  2  2  0  0  0  0
  7 11  2  0  0  0  0
  8  3  2  0  0  0  0
  9 22  1  0  0  0  0
  9  6  1  0  0  0  0
 10  4  2  0  0  0  0
 12 13  1  6  0  0  0
 12  3  1  0  0  0  0
 12  1  1  0  0  0  0
 14 18  1  0  0  0  0
 15 16  2  0  0  0  0
 16 13  1  0  0  0  0
 17 14  2  0  0  0  0
 17 15  1  0  0  0  0
 18 13  2  0  0  0  0
 20 21  1  0  0  0  0
 20 19  1  0  0  0  0
 21 19  1  0  0  0  0
 21 17  1  1  0  0  0
 22 23  1  0  0  0  0
 23 24  1  0  0  0  0
 24 26  1  0  0  0  0
 26 25  1  0  0  0  0
 27 29  1  0  0  0  0
 29 28  1  0  0  0  0
M  END
>  <MODEL>
7

>  <REMARK>
 VINA RESULT:      -6.5      2.855      6.716
  Name = 
  8 active torsions:
  status: ('A' for Active; 'I' for Inactive)
    1  A    between atoms: C_3  and  C_28
    2  A    between atoms: O_7  and  C_15
    3  A    between atoms: O_7  and  C_26
    4  A    between atoms: C_9  and  O_24
    5  A    between atoms: C_15  and  N_19
    6  A    between atoms: C_18  and  O_24
    7  A    between atoms: C_21  and  C_23
    8  A    between atoms: C_26  and  C_29
                            x       y       z     vdW  Elec       q    Type
                         _______ _______ _______ _____ _____    ______ ____

>  <TORSDO>
F 8

$$$$
=
 OpenBabel10222415513D

 29 33  0  0  1  0  0  0  0  0999 V2000
  190.1940  177.0520  140.1520 C   0  0  1  0  0  0  0  0  0  0  0  0
  191.5520  177.3920  140.2190 C   0  0  0  0  0  0  0  0  0  0  0  0
  188.3560  178.2370  140.9040 C   0  0  0  0  0  0  0  0  0  0  0  0
  193.1880  176.1240  138.4400 C   0  0  0  0  0  0  0  0  0  0  0  0
  191.0560  176.4150  139.2480 C   0  0  0  0  0  0  0  0  0  0  0  0
  189.7030  176.3540  141.4100 C   0  0  0  0  0  2  0  0  0  0  0  0
  192.8420  177.7960  140.3710 C   0  0  0  0  0  3  0  0  0  0  0  0
  187.4470  179.0990  141.0580 O   0  0  0  0  0  0  0  0  0  0  0  0
  188.5900  177.1870  141.8340 N   0  0  0  0  0  0  0  0  0  0  0  0
  191.7980  175.7400  138.3290 C   0  0  0  0  0  3  0  0  0  0  0  0
  193.6680  177.1030  139.4200 C   0  0  0  0  0  3  0  0  0  0  0  0
  189.2940  178.2210  139.7480 C   0  0  2  0  0  3  0  0  0  0  0  0
  188.5670  177.9570  138.4570 C   0  0  0  0  0  0  0  0  0  0  0  0
  187.9470  178.5800  136.1940 C   0  0  0  0  0  3  0  0  0  0  0  0
  187.0370  176.5690  137.1860 C   0  0  0  0  0  3  0  0  0  0  0  0
  187.7470  176.8290  138.3630 C   0  0  0  0  0  3  0  0  0  0  0  0
  187.1480  177.4340  136.0890 C   0  0  0  0  0  0  0  0  0  0  0  0
  188.6540  178.8390  137.3690 C   0  0  0  0  0  3  0  0  0  0  0  0
  184.9080  177.2740  135.1460 N   0  0  0  0  0  2  0  0  0  0  0  0
  185.5550  175.9640  134.9810 C   0  0  0  0  0  2  0  0  0  0  0  0
  186.3500  177.1860  134.8470 C   0  0  2  0  0  3  0  0  0  0  0  0
  187.7570  176.9030  142.9900 C   0  0  0  0  0  2  0  0  0  0  0  0
  188.5640  176.6010  144.0870 O   0  0  0  0  0  0  0  0  0  0  0  0
  188.8340  177.8390  144.6750 C   0  0  0  0  0  2  0  0  0  0  0  0
  190.9200  178.9490  143.8740 C   0  0  0  0  0  1  0  0  0  0  0  0
  190.3300  177.9930  144.8940 C   0  0  0  0  0  2  0  0  0  0  0  0
  194.1400  175.5530  137.5900 O   0  0  0  0  0  0  0  0  0  0  0  0
  195.4330  173.8800  138.7120 C   0  0  0  0  0  1  0  0  0  0  0  0
  194.4490  174.1640  137.5960 C   0  0  0  0  0  2  0  0  0  0  0  0
  1  2  1  0  0  0  0
  1  6  1  1  0  0  0
  2  7  1  0  0  0  0
  3  8  2  0  0  0  0
  3  9  1  0  0  0  0
  4 11  1  0  0  0  0
  5  1  1  0  0  0  0
  5  2  2  0  0  0  0
  6  9  1  0  0  0  0
  9 22  1  0  0  0  0
 10  4  2  0  0  0  0
 10  5  1  0  0  0  0
 11  7  2  0  0  0  0
 12 13  1  6  0  0  0
 12  1  1  0  0  0  0
 12  3  1  0  0  0  0
 14 18  1  0  0  0  0
 15 16  2  0  0  0  0
 16 13  1  0  0  0  0
 17 14  2  0  0  0  0
 17 15  1  0  0  0  0
 18 13  2  0  0  0  0
 20 19  1  0  0  0  0
 21 20  1  0  0  0  0
 21 19  1  0  0  0  0
 21 17  1  1  0  0  0
 22 23  1  0  0  0  0
 23 24  1  0  0  0  0
 24 26  1  0  0  0  0
 25 26  1  0  0  0  0
 27 29  1  0  0  0  0
 27  4  1  0  0  0  0
 29 28  1  0  0  0  0
M  END
>  <MODEL>
8

>  <REMARK>
 VINA RESULT:      -6.3      3.563      7.075
  Name = 
  8 active torsions:
  status: ('A' for Active; 'I' for Inactive)
    1  A    between atoms: C_3  and  C_28
    2  A    between atoms: O_7  and  C_15
    3  A    between atoms: O_7  and  C_26
    4  A    between atoms: C_9  and  O_24
    5  A    between atoms: C_15  and  N_19
    6  A    between atoms: C_18  and  O_24
    7  A    between atoms: C_21  and  C_23
    8  A    between atoms: C_26  and  C_29
                            x       y       z     vdW  Elec       q    Type
                         _______ _______ _______ _____ _____    ______ ____

>  <TORSDO>
F 8

$$$$
=
 OpenBabel10222415513D

 29 33  0  0  1  0  0  0  0  0999 V2000
  190.8220  176.7460  143.4120 C   0  0  1  0  0  0  0  0  0  0  0  0
  191.5460  175.8080  144.1610 C   0  0  0  0  0  0  0  0  0  0  0  0
  189.7510  176.4740  141.3810 C   0  0  0  0  0  0  0  0  0  0  0  0
  191.8240  176.3650  146.8190 C   0  0  0  0  0  0  0  0  0  0  0  0
  190.9800  177.0080  144.7810 C   0  0  0  0  0  0  0  0  0  0  0  0
  191.6770  177.4430  142.3650 C   0  0  0  0  0  2  0  0  0  0  0  0
  192.2610  174.8370  144.7890 C   0  0  0  0  0  3  0  0  0  0  0  0
  188.9590  176.1220  140.4640 O   0  0  0  0  0  0  0  0  0  0  0  0
  190.9600  177.1810  141.1290 N   0  0  0  0  0  0  0  0  0  0  0  0
  191.0690  177.3610  146.0910 C   0  0  0  0  0  3  0  0  0  0  0  0
  192.3860  175.1700  146.1830 C   0  0  0  0  0  3  0  0  0  0  0  0
  189.5280  176.1840  142.8240 C   0  0  2  0  0  3  0  0  0  0  0  0
  188.3110  176.9020  143.3430 C   0  0  0  0  0  0  0  0  0  0  0  0
  186.7020  177.3750  145.0990 C   0  0  0  0  0  3  0  0  0  0  0  0
  186.4500  178.3990  142.9210 C   0  0  0  0  0  3  0  0  0  0  0  0
  187.5990  177.7370  142.4770 C   0  0  0  0  0  3  0  0  0  0  0  0
  186.0060  178.2350  144.2410 C   0  0  0  0  0  0  0  0  0  0  0  0
  187.8490  176.7160  144.6550 C   0  0  0  0  0  3  0  0  0  0  0  0
  183.6100  178.4690  143.8700 N   0  0  0  0  0  2  0  0  0  0  0  0
  184.2220  179.7890  143.6640 C   0  0  0  0  0  2  0  0  0  0  0  0
  184.7480  178.9020  144.7030 C   0  0  2  0  0  3  0  0  0  0  0  0
  191.3690  177.6850  139.8290 C   0  0  0  0  0  2  0  0  0  0  0  0
  192.0380  176.6820  139.1270 O   0  0  0  0  0  0  0  0  0  0  0  0
  191.4180  176.6570  137.8760 C   0  0  0  0  0  2  0  0  0  0  0  0
  193.5370  176.1830  136.6470 C   0  0  0  0  0  1  0  0  0  0  0  0
  192.1390  175.6820  136.9600 C   0  0  0  0  0  2  0  0  0  0  0  0
  192.0450  176.5220  148.1910 O   0  0  0  0  0  0  0  0  0  0  0  0
  193.6600  176.9140  149.9130 C   0  0  0  0  0  1  0  0  0  0  0  0
  193.1540  175.9420  148.8670 C   0  0  0  0  0  2  0  0  0  0  0  0
  1  6  1  6  0  0  0
  1  2  1  0  0  0  0
  1  5  1  0  0  0  0
  2  5  2  0  0  0  0
  2  7  1  0  0  0  0
  3 12  1  0  0  0  0
  4 27  1  0  0  0  0
  5 10  1  0  0  0  0
  7 11  2  0  0  0  0
  8  3  2  0  0  0  0
  9  3  1  0  0  0  0
  9  6  1  0  0  0  0
 10  4  2  0  0  0  0
 11  4  1  0  0  0  0
 12 13  1  1  0  0  0
 12  1  1  0  0  0  0
 13 18  1  0  0  0  0
 15 17  2  0  0  0  0
 16 15  1  0  0  0  0
 16 13  2  0  0  0  0
 17 14  1  0  0  0  0
 18 14  2  0  0  0  0
 19 21  1  0  0  0  0
 20 19  1  0  0  0  0
 20 21  1  0  0  0  0
 21 17  1  6  0  0  0
 22  9  1  0  0  0  0
 23 22  1  0  0  0  0
 24 23  1  0  0  0  0
 25 26  1  0  0  0  0
 26 24  1  0  0  0  0
 27 29  1  0  0  0  0
 29 28  1  0  0  0  0
M  END
>  <MODEL>
9

>  <REMARK>
 VINA RESULT:      -6.3      1.482      2.075
  Name = 
  8 active torsions:
  status: ('A' for Active; 'I' for Inactive)
    1  A    between atoms: C_3  and  C_28
    2  A    between atoms: O_7  and  C_15
    3  A    between atoms: O_7  and  C_26
    4  A    between atoms: C_9  and  O_24
    5  A    between atoms: C_15  and  N_19
    6  A    between atoms: C_18  and  O_24
    7  A    between atoms: C_21  and  C_23
    8  A    between atoms: C_26  and  C_29
                            x       y       z     vdW  Elec       q    Type
                         _______ _______ _______ _____ _____    ______ ____

>  <TORSDO>
F 8

$$$$
