=
 OpenBabel10222419323D

 26 27  0  0  1  0  0  0  0  0999 V2000
  186.9630  178.5550  139.4140 N   0  0  0  0  0  2  0  0  0  0  0  0
  186.5970  178.5110  140.7970 C   0  0  0  0  0  0  0  0  0  0  0  0
  188.1580  177.9950  138.8530 C   0  0  0  0  0  0  0  0  0  0  0  0
  185.3200  179.1230  141.3150 C   0  0  0  0  0  2  0  0  0  0  0  0
  184.6040  179.0330  143.8170 C   0  0  0  0  0  3  0  0  0  0  0  0
  186.6350  178.1040  142.9250 C   0  0  0  0  0  0  0  0  0  0  0  0
  187.4840  178.7620  136.5520 C   0  0  0  0  0  1  0  0  0  0  0  0
  188.4090  178.0980  137.4530 N   0  0  0  0  0  2  0  0  0  0  0  0
  187.3320  177.9420  141.7040 N   0  0  0  0  0  0  0  0  0  0  0  0
  184.9950  178.5630  145.0830 C   0  0  0  0  0  3  0  0  0  0  0  0
  185.4620  178.7800  142.7510 C   0  0  0  0  0  0  0  0  0  0  0  0
  187.0150  177.6490  144.1860 C   0  0  0  0  0  0  0  0  0  0  0  0
  186.1740  177.8850  145.2390 N   0  0  0  0  0  0  0  0  0  0  0  0
  188.9990  177.4070  139.5850 O   0  0  0  0  0  0  0  0  0  0  0  0
  188.2780  176.8690  144.3670 C   0  0  1  0  0  3  0  0  0  0  0  0
  188.3920  175.8630  143.4030 O   0  0  0  0  0  1  0  0  0  0  0  0
  189.5070  177.7870  144.3870 C   0  0  2  0  0  3  0  0  0  0  0  0
  190.6730  177.2780  143.5380 C   0  0  0  0  0  2  0  0  0  0  0  0
  191.8430  177.9910  143.8060 O   0  0  0  0  0  1  0  0  0  0  0  0
  189.9480  178.1090  145.8100 C   0  0  0  0  0  2  0  0  0  0  0  0
  189.9740  176.8510  146.6750 C   0  0  1  0  0  3  0  0  0  0  0  0
  192.1530  175.4680  146.5860 C   0  0  0  0  0  1  0  0  0  0  0  0
  191.8330  177.2380  148.0950 O   0  0  0  0  0  0  0  0  0  0  0  0
  191.3540  176.5690  147.1930 C   0  0  0  0  0  0  0  0  0  0  0  0
  188.4650  178.2770  148.1440 C   0  0  0  0  0  1  0  0  0  0  0  0
  188.9230  176.8700  147.7910 C   0  0  0  0  0  2  0  0  0  0  0  0
  1  2  1  0  0  0  0
  2  4  1  0  0  0  0
  2  9  2  0  0  0  0
  3  1  1  0  0  0  0
  3 14  2  0  0  0  0
  4 11  1  0  0  0  0
  5 10  1  0  0  0  0
  6 12  2  0  0  0  0
  7  8  1  0  0  0  0
  8  3  1  0  0  0  0
  9  6  1  0  0  0  0
 10 13  2  0  0  0  0
 11  6  1  0  0  0  0
 11  5  2  0  0  0  0
 12 15  1  0  0  0  0
 12 13  1  0  0  0  0
 15 16  1  6  0  0  0
 15 17  1  0  0  0  0
 17 18  1  6  0  0  0
 17 20  1  0  0  0  0
 18 19  1  0  0  0  0
 21 20  1  1  0  0  0
 21 24  1  0  0  0  0
 21 26  1  0  0  0  0
 22 24  1  0  0  0  0
 24 23  2  0  0  0  0
 26 25  1  0  0  0  0
M  END
>  <MODEL>
1

>  <REMARK>
 VINA RESULT:      -8.2      0.000      0.000
  Name = 
  7 active torsions:
  status: ('A' for Active; 'I' for Inactive)
    1  A    between atoms: C_10  and  C_16
    2  A    between atoms: C_10  and  C_18
    3  A    between atoms: C_11  and  C_16
    4  A    between atoms: C_13  and  C_16
    5  A    between atoms: C_13  and  C_23
    6  A    between atoms: C_17  and  C_18
    7  A    between atoms: C_18  and  C_26
                            x       y       z     vdW  Elec       q    Type
                         _______ _______ _______ _____ _____    ______ ____

>  <TORSDO>
F 7

$$$$
=
 OpenBabel10222419323D

 26 27  0  0  1  0  0  0  0  0999 V2000
  184.2170  178.5930  144.5370 N   0  0  0  0  0  2  0  0  0  0  0  0
  185.4290  178.3930  145.2720 C   0  0  0  0  0  0  0  0  0  0  0  0
  184.1200  178.7160  143.1110 C   0  0  0  0  0  0  0  0  0  0  0  0
  185.4530  178.2710  146.7750 C   0  0  0  0  0  2  0  0  0  0  0  0
  187.6330  177.8730  148.1420 C   0  0  0  0  0  3  0  0  0  0  0  0
  187.5220  178.1040  145.7510 C   0  0  0  0  0  0  0  0  0  0  0  0
  181.6220  178.9840  143.2650 C   0  0  0  0  0  1  0  0  0  0  0  0
  182.8490  178.9080  142.4930 N   0  0  0  0  0  2  0  0  0  0  0  0
  186.5920  178.3000  144.7020 N   0  0  0  0  0  0  0  0  0  0  0  0
  189.0210  177.6950  148.0190 C   0  0  0  0  0  3  0  0  0  0  0  0
  186.9100  178.0770  146.9700 C   0  0  0  0  0  0  0  0  0  0  0  0
  188.9010  177.9330  145.6420 C   0  0  0  0  0  0  0  0  0  0  0  0
  189.6190  177.7230  146.7870 N   0  0  0  0  0  0  0  0  0  0  0  0
  185.1510  178.6580  142.3900 O   0  0  0  0  0  0  0  0  0  0  0  0
  189.5630  177.9160  144.3010 C   0  0  1  0  0  3  0  0  0  0  0  0
  190.5470  178.9060  144.2120 O   0  0  0  0  0  1  0  0  0  0  0  0
  190.1150  176.5260  143.9640 C   0  0  2  0  0  3  0  0  0  0  0  0
  191.6350  176.4130  144.1010 C   0  0  0  0  0  2  0  0  0  0  0  0
  192.0430  175.0790  144.1260 O   0  0  0  0  0  1  0  0  0  0  0  0
  189.6380  176.0450  142.5990 C   0  0  0  0  0  2  0  0  0  0  0  0
  189.7400  177.1570  141.5580 C   0  0  1  0  0  3  0  0  0  0  0  0
  192.0730  177.5460  140.5230 C   0  0  0  0  0  1  0  0  0  0  0  0
  190.5410  175.9930  139.6540 O   0  0  0  0  0  0  0  0  0  0  0  0
  190.7640  176.8360  140.5090 C   0  0  0  0  0  0  0  0  0  0  0  0
  188.5090  178.4960  139.7790 C   0  0  0  0  0  1  0  0  0  0  0  0
  188.3830  177.5370  140.9540 C   0  0  0  0  0  2  0  0  0  0  0  0
  1  2  1  0  0  0  0
  2  4  1  0  0  0  0
  3  1  1  0  0  0  0
  4 11  1  0  0  0  0
  6 11  1  0  0  0  0
  8  3  1  0  0  0  0
  8  7  1  0  0  0  0
  9  2  2  0  0  0  0
  9  6  1  0  0  0  0
 10  5  1  0  0  0  0
 11  5  2  0  0  0  0
 12  6  2  0  0  0  0
 12 13  1  0  0  0  0
 13 10  2  0  0  0  0
 14  3  2  0  0  0  0
 15 16  1  1  0  0  0
 15 12  1  0  0  0  0
 17 20  1  6  0  0  0
 17 18  1  0  0  0  0
 17 15  1  0  0  0  0
 18 19  1  0  0  0  0
 21 26  1  6  0  0  0
 21 20  1  0  0  0  0
 23 24  2  0  0  0  0
 24 22  1  0  0  0  0
 24 21  1  0  0  0  0
 25 26  1  0  0  0  0
M  END
>  <MODEL>
2

>  <REMARK>
 VINA RESULT:      -7.9      2.723      5.350
  Name = 
  7 active torsions:
  status: ('A' for Active; 'I' for Inactive)
    1  A    between atoms: C_10  and  C_16
    2  A    between atoms: C_10  and  C_18
    3  A    between atoms: C_11  and  C_16
    4  A    between atoms: C_13  and  C_16
    5  A    between atoms: C_13  and  C_23
    6  A    between atoms: C_17  and  C_18
    7  A    between atoms: C_18  and  C_26
                            x       y       z     vdW  Elec       q    Type
                         _______ _______ _______ _____ _____    ______ ____

>  <TORSDO>
F 7

$$$$
=
 OpenBabel10222419323D

 26 27  0  0  1  0  0  0  0  0999 V2000
  184.2310  178.6150  144.2410 N   0  0  0  0  0  2  0  0  0  0  0  0
  185.4680  178.2920  144.8860 C   0  0  0  0  0  0  0  0  0  0  0  0
  183.9400  178.4100  142.8520 C   0  0  0  0  0  0  0  0  0  0  0  0
  185.7010  178.5350  146.3560 C   0  0  0  0  0  2  0  0  0  0  0  0
  187.9240  177.9300  147.5690 C   0  0  0  0  0  3  0  0  0  0  0  0
  187.4910  177.5960  145.2280 C   0  0  0  0  0  0  0  0  0  0  0  0
  181.6220  179.3440  143.1600 C   0  0  0  0  0  1  0  0  0  0  0  0
  182.6630  178.7690  142.3270 N   0  0  0  0  0  2  0  0  0  0  0  0
  186.4750  177.7670  144.2570 N   0  0  0  0  0  0  0  0  0  0  0  0
  189.1990  177.3750  147.3700 C   0  0  0  0  0  3  0  0  0  0  0  0
  187.0890  178.0240  146.4590 C   0  0  0  0  0  0  0  0  0  0  0  0
  188.7610  177.0540  145.0410 C   0  0  0  0  0  0  0  0  0  0  0  0
  189.5850  176.9490  146.1270 N   0  0  0  0  0  0  0  0  0  0  0  0
  184.8040  177.9150  142.0800 O   0  0  0  0  0  0  0  0  0  0  0  0
  189.1820  176.5430  143.6990 C   0  0  1  0  0  3  0  0  0  0  0  0
  188.1300  175.8850  143.0560 O   0  0  0  0  0  1  0  0  0  0  0  0
  189.7740  177.6620  142.8340 C   0  0  2  0  0  3  0  0  0  0  0  0
  190.3370  178.8350  143.6390 C   0  0  0  0  0  2  0  0  0  0  0  0
  191.7050  178.6820  143.8670 O   0  0  0  0  0  1  0  0  0  0  0  0
  188.7900  178.1330  141.7690 C   0  0  0  0  0  2  0  0  0  0  0  0
  189.1120  177.5150  140.4110 C   0  0  1  0  0  3  0  0  0  0  0  0
  187.1540  177.9250  138.7780 C   0  0  0  0  0  1  0  0  0  0  0  0
  189.0870  179.2570  138.8020 O   0  0  0  0  0  0  0  0  0  0  0  0
  188.5000  178.3030  139.2900 C   0  0  0  0  0  0  0  0  0  0  0  0
  190.9010  176.3370  139.0390 C   0  0  0  0  0  1  0  0  0  0  0  0
  190.6110  177.2710  140.2050 C   0  0  0  0  0  2  0  0  0  0  0  0
  1  2  1  0  0  0  0
  2  4  1  0  0  0  0
  3  1  1  0  0  0  0
  4 11  1  0  0  0  0
  6 11  1  0  0  0  0
  8  3  1  0  0  0  0
  8  7  1  0  0  0  0
  9  2  2  0  0  0  0
  9  6  1  0  0  0  0
 10  5  1  0  0  0  0
 11  5  2  0  0  0  0
 12  6  2  0  0  0  0
 12 13  1  0  0  0  0
 13 10  2  0  0  0  0
 14  3  2  0  0  0  0
 15 16  1  6  0  0  0
 15 12  1  0  0  0  0
 17 20  1  6  0  0  0
 17 18  1  0  0  0  0
 17 15  1  0  0  0  0
 18 19  1  0  0  0  0
 21 26  1  6  0  0  0
 21 20  1  0  0  0  0
 22 24  1  0  0  0  0
 23 24  2  0  0  0  0
 24 21  1  0  0  0  0
 25 26  1  0  0  0  0
M  END
>  <MODEL>
3

>  <REMARK>
 VINA RESULT:      -7.7      2.496      5.714
  Name = 
  7 active torsions:
  status: ('A' for Active; 'I' for Inactive)
    1  A    between atoms: C_10  and  C_16
    2  A    between atoms: C_10  and  C_18
    3  A    between atoms: C_11  and  C_16
    4  A    between atoms: C_13  and  C_16
    5  A    between atoms: C_13  and  C_23
    6  A    between atoms: C_17  and  C_18
    7  A    between atoms: C_18  and  C_26
                            x       y       z     vdW  Elec       q    Type
                         _______ _______ _______ _____ _____    ______ ____

>  <TORSDO>
F 7

$$$$
=
 OpenBabel10222419323D

 26 27  0  0  1  0  0  0  0  0999 V2000
  185.0510  178.6300  142.5930 N   0  0  0  0  0  2  0  0  0  0  0  0
  186.3100  178.3430  141.9750 C   0  0  0  0  0  0  0  0  0  0  0  0
  184.7190  178.3660  143.9640 C   0  0  0  0  0  0  0  0  0  0  0  0
  186.5880  178.6510  140.5250 C   0  0  0  0  0  2  0  0  0  0  0  0
  188.8750  178.1740  139.3760 C   0  0  0  0  0  3  0  0  0  0  0  0
  188.3530  177.6870  141.6720 C   0  0  0  0  0  0  0  0  0  0  0  0
  182.4140  179.3200  143.6290 C   0  0  0  0  0  1  0  0  0  0  0  0
  183.4280  178.7050  144.4660 N   0  0  0  0  0  2  0  0  0  0  0  0
  187.3030  177.8010  142.6130 N   0  0  0  0  0  0  0  0  0  0  0  0
  190.1650  177.6640  139.6040 C   0  0  0  0  0  3  0  0  0  0  0  0
  187.9880  178.1680  140.4480 C   0  0  0  0  0  0  0  0  0  0  0  0
  189.6320  177.1770  141.8840 C   0  0  0  0  0  0  0  0  0  0  0  0
  190.5140  177.1870  140.8390 N   0  0  0  0  0  0  0  0  0  0  0  0
  185.5590  177.8330  144.7380 O   0  0  0  0  0  0  0  0  0  0  0  0
  190.0440  176.6920  143.2380 C   0  0  1  0  0  3  0  0  0  0  0  0
  191.3940  176.3270  143.2540 O   0  0  0  0  0  1  0  0  0  0  0  0
  189.7140  177.7200  144.3270 C   0  0  2  0  0  3  0  0  0  0  0  0
  190.9100  178.5720  144.7570 C   0  0  0  0  0  2  0  0  0  0  0  0
  191.0930  179.6570  143.8990 O   0  0  0  0  0  1  0  0  0  0  0  0
  189.0270  177.0730  145.5240 C   0  0  0  0  0  2  0  0  0  0  0  0
  189.8230  177.3050  146.8070 C   0  0  1  0  0  3  0  0  0  0  0  0
  187.5070  178.0250  147.6920 C   0  0  0  0  0  1  0  0  0  0  0  0
  189.5000  178.4490  148.8580 O   0  0  0  0  0  0  0  0  0  0  0  0
  188.9850  177.9680  147.8600 C   0  0  0  0  0  0  0  0  0  0  0  0
  192.0230  176.0700  147.1280 C   0  0  0  0  0  1  0  0  0  0  0  0
  190.5140  176.0370  147.3200 C   0  0  0  0  0  2  0  0  0  0  0  0
  1  3  1  0  0  0  0
  2  1  1  0  0  0  0
  2  9  2  0  0  0  0
  3  8  1  0  0  0  0
  3 14  2  0  0  0  0
  4  2  1  0  0  0  0
  5 10  2  0  0  0  0
  5 11  1  0  0  0  0
  6 12  1  0  0  0  0
  6  9  1  0  0  0  0
  7  8  1  0  0  0  0
 10 13  1  0  0  0  0
 11  4  1  0  0  0  0
 11  6  2  0  0  0  0
 12 15  1  0  0  0  0
 13 12  2  0  0  0  0
 15 16  1  6  0  0  0
 15 17  1  0  0  0  0
 17 18  1  1  0  0  0
 17 20  1  0  0  0  0
 19 18  1  0  0  0  0
 21 20  1  6  0  0  0
 21 26  1  0  0  0  0
 21 24  1  0  0  0  0
 22 24  1  0  0  0  0
 24 23  2  0  0  0  0
 25 26  1  0  0  0  0
M  END
>  <MODEL>
4

>  <REMARK>
 VINA RESULT:      -7.6      2.041      4.382
  Name = 
  7 active torsions:
  status: ('A' for Active; 'I' for Inactive)
    1  A    between atoms: C_10  and  C_16
    2  A    between atoms: C_10  and  C_18
    3  A    between atoms: C_11  and  C_16
    4  A    between atoms: C_13  and  C_16
    5  A    between atoms: C_13  and  C_23
    6  A    between atoms: C_17  and  C_18
    7  A    between atoms: C_18  and  C_26
                            x       y       z     vdW  Elec       q    Type
                         _______ _______ _______ _____ _____    ______ ____

>  <TORSDO>
F 7

$$$$
=
 OpenBabel10222419323D

 26 27  0  0  1  0  0  0  0  0999 V2000
  186.8000  178.5390  140.4000 N   0  0  0  0  0  2  0  0  0  0  0  0
  185.8560  178.6330  141.4710 C   0  0  0  0  0  0  0  0  0  0  0  0
  188.2250  178.6320  140.5380 C   0  0  0  0  0  0  0  0  0  0  0  0
  184.3680  178.5240  141.2490 C   0  0  0  0  0  2  0  0  0  0  0  0
  182.6220  178.6550  143.1760 C   0  0  0  0  0  3  0  0  0  0  0  0
  185.0030  178.8470  143.4520 C   0  0  0  0  0  0  0  0  0  0  0  0
  188.5250  178.3030  138.0600 C   0  0  0  0  0  1  0  0  0  0  0  0
  189.0650  178.5160  139.3910 N   0  0  0  0  0  2  0  0  0  0  0  0
  186.2070  178.8150  142.7080 N   0  0  0  0  0  0  0  0  0  0  0  0
  182.4910  178.8100  144.5670 C   0  0  0  0  0  3  0  0  0  0  0  0
  183.9110  178.6800  142.6520 C   0  0  0  0  0  0  0  0  0  0  0  0
  184.8600  179.0060  144.8290 C   0  0  0  0  0  0  0  0  0  0  0  0
  183.5990  178.9750  145.3550 N   0  0  0  0  0  0  0  0  0  0  0  0
  188.7510  178.8170  141.6680 O   0  0  0  0  0  0  0  0  0  0  0  0
  186.0620  179.1430  145.7090 C   0  0  1  0  0  3  0  0  0  0  0  0
  185.6930  179.4480  147.0220 O   0  0  0  0  0  1  0  0  0  0  0  0
  186.9550  177.8990  145.6380 C   0  0  2  0  0  3  0  0  0  0  0  0
  187.1460  177.1960  146.9830 C   0  0  0  0  0  2  0  0  0  0  0  0
  187.9860  177.9310  147.8230 O   0  0  0  0  0  1  0  0  0  0  0  0
  188.2910  178.2000  144.9680 C   0  0  0  0  0  2  0  0  0  0  0  0
  189.1780  176.9580  144.9290 C   0  0  1  0  0  3  0  0  0  0  0  0
  190.3570  175.9900  142.8460 C   0  0  0  0  0  1  0  0  0  0  0  0
  188.0270  175.9280  143.1300 O   0  0  0  0  0  0  0  0  0  0  0  0
  189.1030  176.2710  143.5970 C   0  0  0  0  0  0  0  0  0  0  0  0
  191.0410  176.4330  146.5790 C   0  0  0  0  0  1  0  0  0  0  0  0
  190.6220  177.2410  145.3600 C   0  0  0  0  0  2  0  0  0  0  0  0
  1  3  1  0  0  0  0
  1  2  1  0  0  0  0
  2  9  2  0  0  0  0
  3 14  2  0  0  0  0
  4  2  1  0  0  0  0
  4 11  1  0  0  0  0
  5 10  1  0  0  0  0
  6 12  2  0  0  0  0
  7  8  1  0  0  0  0
  8  3  1  0  0  0  0
  9  6  1  0  0  0  0
 10 13  2  0  0  0  0
 11  5  2  0  0  0  0
 11  6  1  0  0  0  0
 12 13  1  0  0  0  0
 12 15  1  0  0  0  0
 15 16  1  1  0  0  0
 17 20  1  1  0  0  0
 17 15  1  0  0  0  0
 17 18  1  0  0  0  0
 18 19  1  0  0  0  0
 21 20  1  6  0  0  0
 21 26  1  0  0  0  0
 22 24  1  0  0  0  0
 23 24  2  0  0  0  0
 24 21  1  0  0  0  0
 26 25  1  0  0  0  0
M  END
>  <MODEL>
5

>  <REMARK>
 VINA RESULT:      -7.4      2.017      3.218
  Name = 
  7 active torsions:
  status: ('A' for Active; 'I' for Inactive)
    1  A    between atoms: C_10  and  C_16
    2  A    between atoms: C_10  and  C_18
    3  A    between atoms: C_11  and  C_16
    4  A    between atoms: C_13  and  C_16
    5  A    between atoms: C_13  and  C_23
    6  A    between atoms: C_17  and  C_18
    7  A    between atoms: C_18  and  C_26
                            x       y       z     vdW  Elec       q    Type
                         _______ _______ _______ _____ _____    ______ ____

>  <TORSDO>
F 7

$$$$
=
 OpenBabel10222419323D

 26 27  0  0  1  0  0  0  0  0999 V2000
  183.4390  178.8560  144.4650 N   0  0  0  0  0  2  0  0  0  0  0  0
  184.6940  178.5550  145.0850 C   0  0  0  0  0  0  0  0  0  0  0  0
  183.1340  178.6710  143.0760 C   0  0  0  0  0  0  0  0  0  0  0  0
  184.9410  178.7760  146.5570 C   0  0  0  0  0  2  0  0  0  0  0  0
  187.1980  178.2090  147.7260 C   0  0  0  0  0  3  0  0  0  0  0  0
  186.7410  177.9100  145.3850 C   0  0  0  0  0  0  0  0  0  0  0  0
  180.7960  179.5320  143.4350 C   0  0  0  0  0  1  0  0  0  0  0  0
  181.8400  179.0030  142.5760 N   0  0  0  0  0  2  0  0  0  0  0  0
  185.7060  178.0710  144.4320 N   0  0  0  0  0  0  0  0  0  0  0  0
  188.4860  177.6940  147.4980 C   0  0  0  0  0  3  0  0  0  0  0  0
  186.3450  178.3020  146.6310 C   0  0  0  0  0  0  0  0  0  0  0  0
  188.0220  177.4070  145.1690 C   0  0  0  0  0  0  0  0  0  0  0  0
  188.8650  177.3040  146.2410 N   0  0  0  0  0  0  0  0  0  0  0  0
  184.0000  178.2160  142.2820 O   0  0  0  0  0  0  0  0  0  0  0  0
  188.4380  176.9360  143.8120 C   0  0  1  0  0  3  0  0  0  0  0  0
  187.6180  175.8950  143.3660 O   0  0  0  0  0  1  0  0  0  0  0  0
  188.4940  178.0930  142.8080 C   0  0  2  0  0  3  0  0  0  0  0  0
  187.6510  177.8650  141.5520 C   0  0  0  0  0  2  0  0  0  0  0  0
  187.4280  179.0610  140.8680 O   0  0  0  0  0  1  0  0  0  0  0  0
  189.9300  178.4690  142.4590 C   0  0  0  0  0  2  0  0  0  0  0  0
  190.7680  177.2250  142.1710 C   0  0  1  0  0  3  0  0  0  0  0  0
  190.5240  176.7100  139.6530 C   0  0  0  0  0  1  0  0  0  0  0  0
  192.4370  177.7240  140.5620 O   0  0  0  0  0  0  0  0  0  0  0  0
  191.3320  177.2520  140.7800 C   0  0  0  0  0  0  0  0  0  0  0  0
  191.6720  175.6290  143.9330 C   0  0  0  0  0  1  0  0  0  0  0  0
  191.8440  176.9700  143.2330 C   0  0  0  0  0  2  0  0  0  0  0  0
  1  2  1  0  0  0  0
  2  4  1  0  0  0  0
  3  1  1  0  0  0  0
  4 11  1  0  0  0  0
  6 11  1  0  0  0  0
  8  3  1  0  0  0  0
  8  7  1  0  0  0  0
  9  2  2  0  0  0  0
  9  6  1  0  0  0  0
 10  5  1  0  0  0  0
 11  5  2  0  0  0  0
 12  6  2  0  0  0  0
 12 13  1  0  0  0  0
 13 10  2  0  0  0  0
 14  3  2  0  0  0  0
 15 16  1  6  0  0  0
 15 12  1  0  0  0  0
 17 18  1  6  0  0  0
 17 15  1  0  0  0  0
 19 18  1  0  0  0  0
 20 17  1  0  0  0  0
 21 20  1  1  0  0  0
 21 26  1  0  0  0  0
 22 24  1  0  0  0  0
 23 24  2  0  0  0  0
 24 21  1  0  0  0  0
 26 25  1  0  0  0  0
M  END
>  <MODEL>
6

>  <REMARK>
 VINA RESULT:      -7.2      3.020      5.213
  Name = 
  7 active torsions:
  status: ('A' for Active; 'I' for Inactive)
    1  A    between atoms: C_10  and  C_16
    2  A    between atoms: C_10  and  C_18
    3  A    between atoms: C_11  and  C_16
    4  A    between atoms: C_13  and  C_16
    5  A    between atoms: C_13  and  C_23
    6  A    between atoms: C_17  and  C_18
    7  A    between atoms: C_18  and  C_26
                            x       y       z     vdW  Elec       q    Type
                         _______ _______ _______ _____ _____    ______ ____

>  <TORSDO>
F 7

$$$$
=
 OpenBabel10222419323D

 26 27  0  0  1  0  0  0  0  0999 V2000
  184.3500  178.7580  141.6420 N   0  0  0  0  0  2  0  0  0  0  0  0
  185.2340  178.4790  142.7340 C   0  0  0  0  0  0  0  0  0  0  0  0
  184.7540  178.9990  140.2870 C   0  0  0  0  0  0  0  0  0  0  0  0
  184.7350  178.2330  144.1350 C   0  0  0  0  0  2  0  0  0  0  0  0
  186.3080  177.6900  146.1380 C   0  0  0  0  0  3  0  0  0  0  0  0
  187.0340  178.1180  143.8850 C   0  0  0  0  0  0  0  0  0  0  0  0
  182.3550  179.2920  139.5840 C   0  0  0  0  0  1  0  0  0  0  0  0
  183.7750  179.2600  139.2830 N   0  0  0  0  0  2  0  0  0  0  0  0
  186.5240  178.4140  142.5990 N   0  0  0  0  0  0  0  0  0  0  0  0
  187.6560  177.5010  146.4910 C   0  0  0  0  0  3  0  0  0  0  0  0
  186.0360  178.0010  144.8090 C   0  0  0  0  0  0  0  0  0  0  0  0
  188.3660  177.9350  144.2490 C   0  0  0  0  0  0  0  0  0  0  0  0
  188.6440  177.6200  145.5500 N   0  0  0  0  0  0  0  0  0  0  0  0
  185.9730  178.9840  139.9670 O   0  0  0  0  0  0  0  0  0  0  0  0
  189.4540  178.0180  143.2260 C   0  0  1  0  0  3  0  0  0  0  0  0
  190.3720  179.0230  143.5460 O   0  0  0  0  0  1  0  0  0  0  0  0
  190.1370  176.6610  143.0200 C   0  0  2  0  0  3  0  0  0  0  0  0
  191.6030  176.6330  143.4570 C   0  0  0  0  0  2  0  0  0  0  0  0
  191.8150  175.6840  144.4580 O   0  0  0  0  0  1  0  0  0  0  0  0
  189.9670  176.1540  141.5920 C   0  0  0  0  0  2  0  0  0  0  0  0
  190.1960  177.2750  140.5810 C   0  0  1  0  0  3  0  0  0  0  0  0
  191.5450  176.2630  138.6260 C   0  0  0  0  0  1  0  0  0  0  0  0
  192.5140  177.6530  140.2520 O   0  0  0  0  0  0  0  0  0  0  0  0
  191.4980  177.1030  139.8550 C   0  0  0  0  0  0  0  0  0  0  0  0
  189.1660  178.6980  138.7410 C   0  0  0  0  0  1  0  0  0  0  0  0
  189.0140  177.4680  139.6240 C   0  0  0  0  0  2  0  0  0  0  0  0
  1  2  1  0  0  0  0
  2  4  1  0  0  0  0
  3  1  1  0  0  0  0
  4 11  1  0  0  0  0
  5 10  1  0  0  0  0
  6 12  2  0  0  0  0
  6 11  1  0  0  0  0
  8  7  1  0  0  0  0
  8  3  1  0  0  0  0
  9  2  2  0  0  0  0
  9  6  1  0  0  0  0
 11  5  2  0  0  0  0
 12 13  1  0  0  0  0
 13 10  2  0  0  0  0
 14  3  2  0  0  0  0
 15 16  1  1  0  0  0
 15 12  1  0  0  0  0
 17 20  1  6  0  0  0
 17 15  1  0  0  0  0
 17 18  1  0  0  0  0
 18 19  1  0  0  0  0
 21 26  1  6  0  0  0
 21 20  1  0  0  0  0
 22 24  1  0  0  0  0
 24 23  2  0  0  0  0
 24 21  1  0  0  0  0
 25 26  1  0  0  0  0
M  END
>  <MODEL>
7

>  <REMARK>
 VINA RESULT:      -7.1      2.428      4.705
  Name = 
  7 active torsions:
  status: ('A' for Active; 'I' for Inactive)
    1  A    between atoms: C_10  and  C_16
    2  A    between atoms: C_10  and  C_18
    3  A    between atoms: C_11  and  C_16
    4  A    between atoms: C_13  and  C_16
    5  A    between atoms: C_13  and  C_23
    6  A    between atoms: C_17  and  C_18
    7  A    between atoms: C_18  and  C_26
                            x       y       z     vdW  Elec       q    Type
                         _______ _______ _______ _____ _____    ______ ____

>  <TORSDO>
F 7

$$$$
=
 OpenBabel10222419323D

 26 27  0  0  1  0  0  0  0  0999 V2000
  192.2170  176.6850  137.6700 N   0  0  0  0  0  2  0  0  0  0  0  0
  191.1720  177.0740  138.5670 C   0  0  0  0  0  0  0  0  0  0  0  0
  193.5100  176.2010  138.0600 C   0  0  0  0  0  0  0  0  0  0  0  0
  189.8340  177.5730  138.0820 C   0  0  0  0  0  2  0  0  0  0  0  0
  187.8980  178.2560  139.6830 C   0  0  0  0  0  3  0  0  0  0  0  0
  190.0620  177.4790  140.3840 C   0  0  0  0  0  0  0  0  0  0  0  0
  194.1830  175.9390  135.6480 C   0  0  0  0  0  1  0  0  0  0  0  0
  194.4690  175.8380  137.0680 N   0  0  0  0  0  2  0  0  0  0  0  0
  191.2960  177.0240  139.8590 N   0  0  0  0  0  0  0  0  0  0  0  0
  187.5430  178.3610  141.0390 C   0  0  0  0  0  3  0  0  0  0  0  0
  189.1820  177.8060  139.3940 C   0  0  0  0  0  0  0  0  0  0  0  0
  189.7010  177.5930  141.7250 C   0  0  0  0  0  0  0  0  0  0  0  0
  188.4380  178.0260  142.0190 N   0  0  0  0  0  0  0  0  0  0  0  0
  193.8150  176.0930  139.2780 O   0  0  0  0  0  0  0  0  0  0  0  0
  190.6520  177.1910  142.8070 C   0  0  1  0  0  3  0  0  0  0  0  0
  191.9590  177.5790  142.5010 O   0  0  0  0  0  1  0  0  0  0  0  0
  190.2010  177.7180  144.1750 C   0  0  2  0  0  3  0  0  0  0  0  0
  191.3390  177.8690  145.1860 C   0  0  0  0  0  2  0  0  0  0  0  0
  191.7170  176.6330  145.7110 O   0  0  0  0  0  1  0  0  0  0  0  0
  189.0500  176.8960  144.7450 C   0  0  0  0  0  2  0  0  0  0  0  0
  188.2990  177.6760  145.8220 C   0  0  1  0  0  3  0  0  0  0  0  0
  185.9620  178.6290  146.3660 C   0  0  0  0  0  1  0  0  0  0  0  0
  186.3710  177.2510  144.5100 O   0  0  0  0  0  0  0  0  0  0  0  0
  186.8410  177.8040  145.4920 C   0  0  0  0  0  0  0  0  0  0  0  0
  189.0420  178.1830  148.2020 C   0  0  0  0  0  1  0  0  0  0  0  0
  188.5340  177.1240  147.2330 C   0  0  0  0  0  2  0  0  0  0  0  0
  1  3  1  0  0  0  0
  1  2  1  0  0  0  0
  2  9  2  0  0  0  0
  3 14  2  0  0  0  0
  4  2  1  0  0  0  0
  4 11  1  0  0  0  0
  5 10  1  0  0  0  0
  6 12  2  0  0  0  0
  7  8  1  0  0  0  0
  8  3  1  0  0  0  0
  9  6  1  0  0  0  0
 10 13  2  0  0  0  0
 11  5  2  0  0  0  0
 11  6  1  0  0  0  0
 12 13  1  0  0  0  0
 12 15  1  0  0  0  0
 15 16  1  6  0  0  0
 15 17  1  0  0  0  0
 17 20  1  1  0  0  0
 17 18  1  0  0  0  0
 18 19  1  0  0  0  0
 21 20  1  6  0  0  0
 21 26  1  0  0  0  0
 23 24  2  0  0  0  0
 24 21  1  0  0  0  0
 24 22  1  0  0  0  0
 26 25  1  0  0  0  0
M  END
>  <MODEL>
8

>  <REMARK>
 VINA RESULT:      -7.0      3.023      4.607
  Name = 
  7 active torsions:
  status: ('A' for Active; 'I' for Inactive)
    1  A    between atoms: C_10  and  C_16
    2  A    between atoms: C_10  and  C_18
    3  A    between atoms: C_11  and  C_16
    4  A    between atoms: C_13  and  C_16
    5  A    between atoms: C_13  and  C_23
    6  A    between atoms: C_17  and  C_18
    7  A    between atoms: C_18  and  C_26
                            x       y       z     vdW  Elec       q    Type
                         _______ _______ _______ _____ _____    ______ ____

>  <TORSDO>
F 7

$$$$
=
 OpenBabel10222419323D

 26 27  0  0  1  0  0  0  0  0999 V2000
  191.7990  176.7500  137.9700 N   0  0  0  0  0  2  0  0  0  0  0  0
  190.8160  177.2160  138.9010 C   0  0  0  0  0  0  0  0  0  0  0  0
  193.1820  176.5170  138.2710 C   0  0  0  0  0  0  0  0  0  0  0  0
  189.3760  177.4370  138.5120 C   0  0  0  0  0  2  0  0  0  0  0  0
  187.5530  178.2500  140.1840 C   0  0  0  0  0  3  0  0  0  0  0  0
  189.8690  177.9000  140.7260 C   0  0  0  0  0  0  0  0  0  0  0  0
  193.6130  175.7850  135.9010 C   0  0  0  0  0  1  0  0  0  0  0  0
  194.0660  176.0450  137.2560 N   0  0  0  0  0  2  0  0  0  0  0  0
  191.0880  177.4780  140.1430 N   0  0  0  0  0  0  0  0  0  0  0  0
  187.3390  178.6220  141.5230 C   0  0  0  0  0  3  0  0  0  0  0  0
  188.8480  177.8910  139.8220 C   0  0  0  0  0  0  0  0  0  0  0  0
  189.6470  178.2780  142.0490 C   0  0  0  0  0  0  0  0  0  0  0  0
  188.3760  178.6240  142.4170 N   0  0  0  0  0  0  0  0  0  0  0  0
  193.6330  176.7250  139.4290 O   0  0  0  0  0  0  0  0  0  0  0  0
  190.7590  178.2440  143.0490 C   0  0  1  0  0  3  0  0  0  0  0  0
  190.9850  179.5100  143.5960 O   0  0  0  0  0  1  0  0  0  0  0  0
  190.5070  177.1870  144.1310 C   0  0  2  0  0  3  0  0  0  0  0  0
  189.6350  176.0200  143.6660 C   0  0  0  0  0  2  0  0  0  0  0  0
  190.3410  175.1660  142.8170 O   0  0  0  0  0  1  0  0  0  0  0  0
  189.9720  177.8100  145.4150 C   0  0  0  0  0  2  0  0  0  0  0  0
  189.8710  176.7710  146.5300 C   0  0  1  0  0  3  0  0  0  0  0  0
  192.0590  175.4320  146.8170 C   0  0  0  0  0  1  0  0  0  0  0  0
  191.5640  177.3420  148.0890 O   0  0  0  0  0  0  0  0  0  0  0  0
  191.1900  176.5730  147.2170 C   0  0  0  0  0  0  0  0  0  0  0  0
  187.5530  177.7650  146.8640 C   0  0  0  0  0  1  0  0  0  0  0  0
  188.7340  177.0620  147.5170 C   0  0  0  0  0  2  0  0  0  0  0  0
  1  3  1  0  0  0  0
  1  2  1  0  0  0  0
  2  9  2  0  0  0  0
  3 14  2  0  0  0  0
  4  2  1  0  0  0  0
  4 11  1  0  0  0  0
  5 10  1  0  0  0  0
  6 12  2  0  0  0  0
  7  8  1  0  0  0  0
  8  3  1  0  0  0  0
  9  6  1  0  0  0  0
 10 13  2  0  0  0  0
 11  5  2  0  0  0  0
 11  6  1  0  0  0  0
 12 13  1  0  0  0  0
 12 15  1  0  0  0  0
 15 16  1  1  0  0  0
 15 17  1  0  0  0  0
 17 18  1  6  0  0  0
 17 20  1  0  0  0  0
 19 18  1  0  0  0  0
 21 20  1  6  0  0  0
 21 24  1  0  0  0  0
 21 26  1  0  0  0  0
 22 24  1  0  0  0  0
 24 23  2  0  0  0  0
 25 26  1  0  0  0  0
M  END
>  <MODEL>
9

>  <REMARK>
 VINA RESULT:      -7.0      2.768      3.819
  Name = 
  7 active torsions:
  status: ('A' for Active; 'I' for Inactive)
    1  A    between atoms: C_10  and  C_16
    2  A    between atoms: C_10  and  C_18
    3  A    between atoms: C_11  and  C_16
    4  A    between atoms: C_13  and  C_16
    5  A    between atoms: C_13  and  C_23
    6  A    between atoms: C_17  and  C_18
    7  A    between atoms: C_18  and  C_26
                            x       y       z     vdW  Elec       q    Type
                         _______ _______ _______ _____ _____    ______ ____

>  <TORSDO>
F 7

$$$$
