=
 OpenBabel10222418433D

 41 44  0  0  1  0  0  0  0  0999 V2000
  191.0510  176.8980  145.4330 C   0  0  0  0  0  0  0  0  0  0  0  0
  189.3350  176.4070  142.8080 C   0  0  0  0  0  2  0  0  0  0  0  0
  188.3550  176.9430  143.7890 C   0  0  0  0  0  3  0  0  0  0  0  0
  189.8180  177.1700  145.7770 N   0  0  0  0  0  0  0  0  0  0  0  0
  191.4950  176.5040  144.0560 C   0  0  1  0  0  3  0  0  0  0  0  0
  188.5490  177.2420  145.0850 C   0  0  0  0  0  0  0  0  0  0  0  0
  191.6470  174.9900  143.9640 C   0  0  0  0  0  1  0  0  0  0  0  0
  190.6620  177.1210  142.9390 C   0  0  1  0  0  3  0  0  0  0  0  0
  192.0540  176.9430  146.4060 O   0  0  0  0  0  0  0  0  0  0  0  0
  192.0500  176.0940  147.5450 C   0  0  0  0  0  1  0  0  0  0  0  0
  187.3800  177.7210  145.8670 C   0  0  0  0  0  0  0  0  0  0  0  0
  186.2130  177.9220  145.2450 C   0  0  0  0  0  3  0  0  0  0  0  0
  187.4980  177.9800  147.2880 C   0  0  0  0  0  0  0  0  0  0  0  0
  187.5950  178.1950  148.4700 C   0  0  0  0  0  3  0  0  0  0  0  0
  184.9700  178.3940  145.9340 C   0  0  0  0  0  2  0  0  0  0  0  0
  184.0090  179.0140  144.9330 C   0  0  0  0  0  2  0  0  0  0  0  0
  184.4160  178.6740  143.5080 C   0  0  0  0  0  2  0  0  0  0  0  0
  183.2000  178.2540  142.6990 C   0  0  1  0  0  3  0  0  0  0  0  0
  182.1980  179.2190  142.8150 O   0  0  0  0  0  1  0  0  0  0  0  0
  183.5650  178.1090  141.2990 N   0  0  0  0  0  2  0  0  0  0  0  0
  183.4190  179.2520  139.1980 C   0  0  1  0  0  3  0  0  0  0  0  0
  181.3060  176.2860  139.9470 C   0  0  0  0  0  2  0  0  0  0  0  0
  182.1420  178.5330  139.4190 C   0  0  2  0  0  3  0  0  0  0  0  0
  182.8770  179.1100  140.5810 N   0  0  0  0  0  0  0  0  0  0  0  0
  185.6660  179.1580  138.3700 O   0  0  0  0  0  1  0  0  0  0  0  0
  182.7010  175.5470  137.4770 O   0  0  0  0  0  1  0  0  0  0  0  0
  184.2640  177.2990  137.8700 C   0  0  0  0  0  2  0  0  0  0  0  0
  184.6410  178.3650  138.8850 C   0  0  2  0  0  3  0  0  0  0  0  0
  183.2760  176.3180  138.4890 C   0  0  1  0  0  3  0  0  0  0  0  0
  182.2020  177.0160  139.2890 C   0  0  0  0  0  0  0  0  0  0  0  0
  191.3920  177.2060  141.6690 N   0  0  0  0  0  2  0  0  0  0  0  0
  190.7140  176.4790  140.6720 N   0  0  0  0  0  2  0  0  0  0  0  0
  188.7400  178.9840  139.2160 O   0  0  0  0  0  0  0  0  0  0  0  0
  190.3810  177.0470  139.4030 C   0  0  0  0  0  0  0  0  0  0  0  0
  189.5370  178.0410  139.3060 C   0  0  0  0  0  0  0  0  0  0  0  0
  190.9990  176.4930  138.1690 C   0  0  0  0  0  2  0  0  0  0  0  0
  191.0740  175.0450  138.2650 N   0  0  0  0  0  2  0  0  0  0  0  0
  192.3250  174.6320  137.6480 C   0  0  0  0  0  2  0  0  0  0  0  0
  194.5020  175.6760  137.3190 N   0  0  0  0  0  2  0  0  0  0  0  0
  193.0590  175.8400  137.0930 C   0  0  1  0  0  3  0  0  0  0  0  0
  193.9180  175.4220  135.9930 C   0  0  0  0  0  2  0  0  0  0  0  0
  1  4  2  0  0  0  0
  1  9  1  0  0  0  0
  2  8  1  0  0  0  0
  2  3  1  0  0  0  0
  3  6  2  0  0  0  0
  5  7  1  1  0  0  0
  5  1  1  0  0  0  0
  6  4  1  0  0  0  0
  6 11  1  0  0  0  0
  8 31  1  6  0  0  0
  8  5  1  0  0  0  0
  9 10  1  0  0  0  0
 11 13  1  0  0  0  0
 12 11  2  0  0  0  0
 12 15  1  0  0  0  0
 13 14  3  0  0  0  0
 16 15  1  0  0  0  0
 17 16  1  0  0  0  0
 18 19  1  6  0  0  0
 18 17  1  0  0  0  0
 20 18  1  0  0  0  0
 21 23  1  0  0  0  0
 21 24  1  1  0  0  0
 23 30  1  1  0  0  0
 23 24  1  0  0  0  0
 24 20  1  0  0  0  0
 27 29  1  0  0  0  0
 27 28  1  0  0  0  0
 28 25  1  6  0  0  0
 28 21  1  0  0  0  0
 29 26  1  6  0  0  0
 29 30  1  0  0  0  0
 30 22  2  0  0  0  0
 32 31  1  0  0  0  0
 33 35  2  0  0  0  0
 34 32  1  0  0  0  0
 35 34  2  0  0  0  0
 36 37  1  0  0  0  0
 36 34  1  0  0  0  0
 38 37  1  0  0  0  0
 40 39  1  0  0  0  0
 40 38  1  1  0  0  0
 41 40  1  0  0  0  0
 41 39  1  0  0  0  0
M  END
>  <MODEL>
1

>  <REMARK>
 VINA RESULT:      -8.4      0.000      0.000
  Name = 
  16 active torsions:
  status: ('A' for Active; 'I' for Inactive)
    1  A    between atoms: C_1  and  O_6
    2  A    between atoms: C_5  and  C_15
    3  A    between atoms: C_5  and  N_23
    4  A    between atoms: N_7  and  N_11
    5  A    between atoms: N_7  and  C_20
    6  A    between atoms: C_8  and  C_35
    7  A    between atoms: N_9  and  C_22
    8  A    between atoms: N_9  and  C_35
    9  A    between atoms: C_10  and  C_28
   10  A    between atoms: C_10  and  C_33
   11  A    between atoms: N_11  and  C_36
   12  A    between atoms: N_14  and  N_23
   13  A    between atoms: C_15  and  C_26
   14  A    between atoms: C_16  and  C_26
   15  A    between atoms: C_16  and  C_32
   16  A    between atoms: C_20  and  C_22
                            x       y       z     vdW  Elec       q    Type
                         _______ _______ _______ _____ _____    ______ ____

>  <TORSDO>
F 16

$$$$
=
 OpenBabel10222418433D

 41 44  0  0  1  0  0  0  0  0999 V2000
  191.2310  176.8470  145.6450 C   0  0  0  0  0  0  0  0  0  0  0  0
  189.6560  176.4330  142.9210 C   0  0  0  0  0  2  0  0  0  0  0  0
  188.6390  176.9940  143.8490 C   0  0  0  0  0  3  0  0  0  0  0  0
  189.9900  177.1570  145.9200 N   0  0  0  0  0  0  0  0  0  0  0  0
  191.7420  176.4490  144.2930 C   0  0  1  0  0  3  0  0  0  0  0  0
  188.7660  177.2770  145.1560 C   0  0  0  0  0  0  0  0  0  0  0  0
  191.8490  174.9320  144.1950 C   0  0  0  0  0  1  0  0  0  0  0  0
  190.9950  177.1010  143.1350 C   0  0  1  0  0  3  0  0  0  0  0  0
  192.1770  176.8520  146.6750 O   0  0  0  0  0  0  0  0  0  0  0  0
  192.2010  175.8600  147.6920 C   0  0  0  0  0  1  0  0  0  0  0  0
  187.5710  177.7890  145.8740 C   0  0  0  0  0  0  0  0  0  0  0  0
  186.4770  178.1140  145.1760 C   0  0  0  0  0  3  0  0  0  0  0  0
  187.5840  177.9450  147.3150 C   0  0  0  0  0  0  0  0  0  0  0  0
  187.5970  178.0740  148.5130 C   0  0  0  0  0  3  0  0  0  0  0  0
  185.2150  178.6300  145.7940 C   0  0  0  0  0  2  0  0  0  0  0  0
  184.2460  179.0940  144.7190 C   0  0  0  0  0  2  0  0  0  0  0  0
  184.3670  178.2330  143.4720 C   0  0  0  0  0  2  0  0  0  0  0  0
  184.1950  179.0850  142.2250 C   0  0  1  0  0  3  0  0  0  0  0  0
  185.4370  179.5580  141.8000 O   0  0  0  0  0  1  0  0  0  0  0  0
  183.5960  178.2920  141.1650 N   0  0  0  0  0  2  0  0  0  0  0  0
  182.7000  178.4380  138.9470 C   0  0  1  0  0  3  0  0  0  0  0  0
  180.6160  179.1760  141.9360 C   0  0  0  0  0  2  0  0  0  0  0  0
  181.8760  179.2940  139.8320 C   0  0  2  0  0  3  0  0  0  0  0  0
  183.3400  179.1630  140.0840 N   0  0  0  0  0  0  0  0  0  0  0  0
  183.0900  176.2460  138.0580 O   0  0  0  0  0  1  0  0  0  0  0  0
  179.1170  177.0820  140.5360 O   0  0  0  0  0  1  0  0  0  0  0  0
  181.0730  176.5590  139.2840 C   0  0  0  0  0  2  0  0  0  0  0  0
  182.5440  176.9170  139.1510 C   0  0  2  0  0  3  0  0  0  0  0  0
  180.5120  177.1390  140.5760 C   0  0  1  0  0  3  0  0  0  0  0  0
  180.9690  178.5590  140.8120 C   0  0  0  0  0  0  0  0  0  0  0  0
  191.8000  177.1720  141.9100 N   0  0  0  0  0  2  0  0  0  0  0  0
  190.9940  177.5600  140.8240 N   0  0  0  0  0  2  0  0  0  0  0  0
  193.6320  176.5590  138.7430 O   0  0  0  0  0  0  0  0  0  0  0  0
  191.2690  177.1500  139.4810 C   0  0  0  0  0  0  0  0  0  0  0  0
  192.4830  176.8470  139.1010 C   0  0  0  0  0  0  0  0  0  0  0  0
  190.1560  177.0730  138.4970 C   0  0  0  0  0  2  0  0  0  0  0  0
  189.4710  178.3530  138.4310 N   0  0  0  0  0  2  0  0  0  0  0  0
  188.4480  178.2450  137.4030 C   0  0  0  0  0  2  0  0  0  0  0  0
  186.3410  178.4600  138.6060 N   0  0  0  0  0  2  0  0  0  0  0  0
  187.2380  177.5040  137.9430 C   0  0  1  0  0  3  0  0  0  0  0  0
  186.0400  177.9650  137.2540 C   0  0  0  0  0  2  0  0  0  0  0  0
  1  4  2  0  0  0  0
  1  9  1  0  0  0  0
  2  8  1  0  0  0  0
  2  3  1  0  0  0  0
  3  6  2  0  0  0  0
  5  7  1  6  0  0  0
  5  1  1  0  0  0  0
  6 11  1  0  0  0  0
  6  4  1  0  0  0  0
  8 31  1  6  0  0  0
  8  5  1  0  0  0  0
  9 10  1  0  0  0  0
 11 13  1  0  0  0  0
 12 15  1  0  0  0  0
 12 11  2  0  0  0  0
 13 14  3  0  0  0  0
 16 15  1  0  0  0  0
 17 16  1  0  0  0  0
 18 19  1  6  0  0  0
 18 17  1  0  0  0  0
 20 18  1  0  0  0  0
 21 28  1  0  0  0  0
 21 23  1  0  0  0  0
 21 24  1  1  0  0  0
 23 24  1  0  0  0  0
 23 30  1  1  0  0  0
 24 20  1  0  0  0  0
 27 29  1  0  0  0  0
 28 25  1  6  0  0  0
 28 27  1  0  0  0  0
 29 26  1  6  0  0  0
 29 30  1  0  0  0  0
 30 22  2  0  0  0  0
 32 31  1  0  0  0  0
 33 35  2  0  0  0  0
 34 32  1  0  0  0  0
 35 34  2  0  0  0  0
 36 34  1  0  0  0  0
 37 36  1  0  0  0  0
 38 37  1  0  0  0  0
 40 38  1  6  0  0  0
 40 39  1  0  0  0  0
 41 40  1  0  0  0  0
 41 39  1  0  0  0  0
M  END
>  <MODEL>
2

>  <REMARK>
 VINA RESULT:      -8.4      1.785      3.033
  Name = 
  16 active torsions:
  status: ('A' for Active; 'I' for Inactive)
    1  A    between atoms: C_1  and  O_6
    2  A    between atoms: C_5  and  C_15
    3  A    between atoms: C_5  and  N_23
    4  A    between atoms: N_7  and  N_11
    5  A    between atoms: N_7  and  C_20
    6  A    between atoms: C_8  and  C_35
    7  A    between atoms: N_9  and  C_22
    8  A    between atoms: N_9  and  C_35
    9  A    between atoms: C_10  and  C_28
   10  A    between atoms: C_10  and  C_33
   11  A    between atoms: N_11  and  C_36
   12  A    between atoms: N_14  and  N_23
   13  A    between atoms: C_15  and  C_26
   14  A    between atoms: C_16  and  C_26
   15  A    between atoms: C_16  and  C_32
   16  A    between atoms: C_20  and  C_22
                            x       y       z     vdW  Elec       q    Type
                         _______ _______ _______ _____ _____    ______ ____

>  <TORSDO>
F 16

$$$$
=
 OpenBabel10222418433D

 41 44  0  0  1  0  0  0  0  0999 V2000
  190.8550  177.1720  145.1330 C   0  0  0  0  0  0  0  0  0  0  0  0
  189.5710  176.4870  142.3130 C   0  0  0  0  0  2  0  0  0  0  0  0
  188.4350  177.0170  143.1120 C   0  0  0  0  0  3  0  0  0  0  0  0
  189.5740  177.3990  145.2790 N   0  0  0  0  0  0  0  0  0  0  0  0
  191.5160  176.7410  143.8590 C   0  0  1  0  0  3  0  0  0  0  0  0
  188.4210  177.3810  144.4050 C   0  0  0  0  0  0  0  0  0  0  0  0
  191.7410  175.2340  143.8660 C   0  0  0  0  0  1  0  0  0  0  0  0
  190.8330  177.2680  142.6020 C   0  0  1  0  0  3  0  0  0  0  0  0
  191.6990  177.3080  146.2410 O   0  0  0  0  0  0  0  0  0  0  0  0
  191.6610  176.4120  147.3420 C   0  0  0  0  0  1  0  0  0  0  0  0
  187.1300  177.8370  144.9820 C   0  0  0  0  0  0  0  0  0  0  0  0
  186.0860  178.0420  144.1710 C   0  0  0  0  0  3  0  0  0  0  0  0
  186.9980  178.0670  146.4070 C   0  0  0  0  0  0  0  0  0  0  0  0
  186.8890  178.2580  147.5920 C   0  0  0  0  0  3  0  0  0  0  0  0
  184.7380  178.4920  144.6430 C   0  0  0  0  0  2  0  0  0  0  0  0
  183.7990  178.6880  143.4640 C   0  0  0  0  0  2  0  0  0  0  0  0
  182.3820  178.9640  143.9410 C   0  0  0  0  0  2  0  0  0  0  0  0
  181.4120  178.9070  142.7720 C   0  0  1  0  0  3  0  0  0  0  0  0
  180.6750  180.0910  142.7100 O   0  0  0  0  0  1  0  0  0  0  0  0
  182.1480  178.7360  141.5300 N   0  0  0  0  0  2  0  0  0  0  0  0
  182.2710  179.6180  139.3050 C   0  0  1  0  0  3  0  0  0  0  0  0
  180.9720  176.1980  139.9690 C   0  0  0  0  0  2  0  0  0  0  0  0
  181.2440  178.5500  139.3190 C   0  0  2  0  0  3  0  0  0  0  0  0
  181.4300  179.4130  140.5210 N   0  0  0  0  0  0  0  0  0  0  0  0
  184.5890  180.1800  139.0710 O   0  0  0  0  0  1  0  0  0  0  0  0
  183.1490  175.7620  138.0550 O   0  0  0  0  0  1  0  0  0  0  0  0
  183.9720  177.9430  138.5390 C   0  0  0  0  0  2  0  0  0  0  0  0
  183.7320  179.1430  139.4380 C   0  0  2  0  0  3  0  0  0  0  0  0
  183.1750  176.7470  139.0450 C   0  0  1  0  0  3  0  0  0  0  0  0
  181.7680  177.1250  139.4430 C   0  0  0  0  0  0  0  0  0  0  0  0
  191.7400  177.3340  141.4500 N   0  0  0  0  0  2  0  0  0  0  0  0
  191.0070  177.5580  140.2700 N   0  0  0  0  0  2  0  0  0  0  0  0
  193.5850  176.4830  138.1500 O   0  0  0  0  0  0  0  0  0  0  0  0
  191.2350  176.8080  139.0730 C   0  0  0  0  0  0  0  0  0  0  0  0
  192.4420  176.6410  138.5980 C   0  0  0  0  0  0  0  0  0  0  0  0
  190.0780  176.2140  138.3510 C   0  0  0  0  0  2  0  0  0  0  0  0
  188.8440  176.8240  138.8150 N   0  0  0  0  0  2  0  0  0  0  0  0
  187.9310  176.8710  137.6840 C   0  0  0  0  0  2  0  0  0  0  0  0
  188.4450  177.6690  135.4410 N   0  0  0  0  0  2  0  0  0  0  0  0
  188.2180  178.0920  136.8290 C   0  0  1  0  0  3  0  0  0  0  0  0
  187.1570  178.2550  135.8440 C   0  0  0  0  0  2  0  0  0  0  0  0
  1  4  2  0  0  0  0
  1  9  1  0  0  0  0
  2  8  1  0  0  0  0
  2  3  1  0  0  0  0
  3  6  2  0  0  0  0
  5  7  1  6  0  0  0
  5  1  1  0  0  0  0
  6 11  1  0  0  0  0
  6  4  1  0  0  0  0
  8 31  1  6  0  0  0
  8  5  1  0  0  0  0
  9 10  1  0  0  0  0
 11 13  1  0  0  0  0
 12 15  1  0  0  0  0
 12 11  2  0  0  0  0
 13 14  3  0  0  0  0
 16 17  1  0  0  0  0
 16 15  1  0  0  0  0
 18 19  1  6  0  0  0
 18 17  1  0  0  0  0
 20 18  1  0  0  0  0
 21 23  1  0  0  0  0
 21 28  1  0  0  0  0
 21 24  1  1  0  0  0
 23 30  1  1  0  0  0
 23 24  1  0  0  0  0
 24 20  1  0  0  0  0
 27 29  1  0  0  0  0
 27 28  1  0  0  0  0
 28 25  1  6  0  0  0
 29 26  1  6  0  0  0
 29 30  1  0  0  0  0
 30 22  2  0  0  0  0
 32 31  1  0  0  0  0
 33 35  2  0  0  0  0
 34 32  1  0  0  0  0
 35 34  2  0  0  0  0
 36 37  1  0  0  0  0
 36 34  1  0  0  0  0
 38 37  1  0  0  0  0
 39 41  1  0  0  0  0
 39 40  1  0  0  0  0
 40 38  1  1  0  0  0
 41 40  1  0  0  0  0
M  END
>  <MODEL>
3

>  <REMARK>
 VINA RESULT:      -8.2      1.716      2.422
  Name = 
  16 active torsions:
  status: ('A' for Active; 'I' for Inactive)
    1  A    between atoms: C_1  and  O_6
    2  A    between atoms: C_5  and  C_15
    3  A    between atoms: C_5  and  N_23
    4  A    between atoms: N_7  and  N_11
    5  A    between atoms: N_7  and  C_20
    6  A    between atoms: C_8  and  C_35
    7  A    between atoms: N_9  and  C_22
    8  A    between atoms: N_9  and  C_35
    9  A    between atoms: C_10  and  C_28
   10  A    between atoms: C_10  and  C_33
   11  A    between atoms: N_11  and  C_36
   12  A    between atoms: N_14  and  N_23
   13  A    between atoms: C_15  and  C_26
   14  A    between atoms: C_16  and  C_26
   15  A    between atoms: C_16  and  C_32
   16  A    between atoms: C_20  and  C_22
                            x       y       z     vdW  Elec       q    Type
                         _______ _______ _______ _____ _____    ______ ____

>  <TORSDO>
F 16

$$$$
=
 OpenBabel10222418433D

 41 44  0  0  1  0  0  0  0  0999 V2000
  181.8480  177.6230  139.6790 C   0  0  0  0  0  0  0  0  0  0  0  0
  184.5910  179.0190  138.9070 C   0  0  0  0  0  2  0  0  0  0  0  0
  184.6060  178.9830  140.3930 C   0  0  0  0  0  3  0  0  0  0  0  0
  182.3840  177.9720  140.8210 N   0  0  0  0  0  0  0  0  0  0  0  0
  182.4790  177.8160  138.3340 C   0  0  1  0  0  3  0  0  0  0  0  0
  183.6410  178.5630  141.2280 C   0  0  0  0  0  0  0  0  0  0  0  0
  181.9190  179.0650  137.6630 C   0  0  0  0  0  1  0  0  0  0  0  0
  184.0020  177.7420  138.3510 C   0  0  1  0  0  3  0  0  0  0  0  0
  180.5740  177.0450  139.6760 O   0  0  0  0  0  0  0  0  0  0  0  0
  179.7660  176.9730  140.8420 C   0  0  0  0  0  1  0  0  0  0  0  0
  183.8900  178.6780  142.6880 C   0  0  0  0  0  0  0  0  0  0  0  0
  185.1500  178.7130  143.1370 C   0  0  0  0  0  3  0  0  0  0  0  0
  182.7850  178.7440  143.6240 C   0  0  0  0  0  0  0  0  0  0  0  0
  181.8650  178.7980  144.4010 C   0  0  0  0  0  3  0  0  0  0  0  0
  185.5170  178.8360  144.5830 C   0  0  0  0  0  2  0  0  0  0  0  0
  186.3140  177.6230  145.0360 C   0  0  0  0  0  2  0  0  0  0  0  0
  186.7080  177.7480  146.4990 C   0  0  0  0  0  2  0  0  0  0  0  0
  188.2220  177.7690  146.6360 C   0  0  1  0  0  3  0  0  0  0  0  0
  188.6340  176.7460  147.4910 O   0  0  0  0  0  1  0  0  0  0  0  0
  188.8370  177.5820  145.3330 N   0  0  0  0  0  2  0  0  0  0  0  0
  191.1740  177.8820  144.8910 C   0  0  1  0  0  3  0  0  0  0  0  0
  188.6350  178.1570  142.1890 C   0  0  0  0  0  2  0  0  0  0  0  0
  190.4120  178.5800  143.8290 C   0  0  2  0  0  3  0  0  0  0  0  0
  189.8720  178.5350  145.2180 N   0  0  0  0  0  0  0  0  0  0  0  0
  192.1400  175.8270  145.6570 O   0  0  0  0  0  1  0  0  0  0  0  0
  190.4860  176.1060  141.2060 O   0  0  0  0  0  1  0  0  0  0  0  0
  191.3410  175.8620  143.4150 C   0  0  0  0  0  2  0  0  0  0  0  0
  191.1330  176.3410  144.8410 C   0  0  2  0  0  3  0  0  0  0  0  0
  190.1500  176.2650  142.5530 C   0  0  1  0  0  3  0  0  0  0  0  0
  189.7080  177.6840  142.8180 C   0  0  0  0  0  0  0  0  0  0  0  0
  184.5650  177.3740  137.0470 N   0  0  0  0  0  2  0  0  0  0  0  0
  184.7140  175.9770  136.9620 N   0  0  0  0  0  2  0  0  0  0  0  0
  186.5230  173.0310  137.5510 O   0  0  0  0  0  0  0  0  0  0  0  0
  185.9710  175.3570  136.6760 C   0  0  0  0  0  0  0  0  0  0  0  0
  186.2560  174.1630  137.1260 C   0  0  0  0  0  0  0  0  0  0  0  0
  186.9760  176.0870  135.8570 C   0  0  0  0  0  2  0  0  0  0  0  0
  187.9920  176.6610  136.7240 N   0  0  0  0  0  2  0  0  0  0  0  0
  188.1960  178.0370  136.3020 C   0  0  0  0  0  2  0  0  0  0  0  0
  188.3560  178.8050  138.6080 N   0  0  0  0  0  2  0  0  0  0  0  0
  189.0530  178.7750  137.3150 C   0  0  1  0  0  3  0  0  0  0  0  0
  189.4550  177.8560  138.3710 C   0  0  0  0  0  2  0  0  0  0  0  0
  1  4  2  0  0  0  0
  2  3  1  0  0  0  0
  3  6  2  0  0  0  0
  4  6  1  0  0  0  0
  5  7  1  1  0  0  0
  5  8  1  0  0  0  0
  5  1  1  0  0  0  0
  6 11  1  0  0  0  0
  8 31  1  6  0  0  0
  8  2  1  0  0  0  0
  9  1  1  0  0  0  0
  9 10  1  0  0  0  0
 11 12  2  0  0  0  0
 11 13  1  0  0  0  0
 12 15  1  0  0  0  0
 13 14  3  0  0  0  0
 15 16  1  0  0  0  0
 16 17  1  0  0  0  0
 17 18  1  0  0  0  0
 18 19  1  1  0  0  0
 20 18  1  0  0  0  0
 21 24  1  1  0  0  0
 22 30  2  0  0  0  0
 23 30  1  6  0  0  0
 23 21  1  0  0  0  0
 23 24  1  0  0  0  0
 24 20  1  0  0  0  0
 27 28  1  0  0  0  0
 28 21  1  0  0  0  0
 28 25  1  1  0  0  0
 29 26  1  6  0  0  0
 29 30  1  0  0  0  0
 29 27  1  0  0  0  0
 32 31  1  0  0  0  0
 34 32  1  0  0  0  0
 34 35  2  0  0  0  0
 35 33  2  0  0  0  0
 36 34  1  0  0  0  0
 36 37  1  0  0  0  0
 38 37  1  0  0  0  0
 40 38  1  6  0  0  0
 40 41  1  0  0  0  0
 40 39  1  0  0  0  0
 41 39  1  0  0  0  0
M  END
>  <MODEL>
4

>  <REMARK>
 VINA RESULT:      -7.8      2.657      7.812
  Name = 
  16 active torsions:
  status: ('A' for Active; 'I' for Inactive)
    1  A    between atoms: C_1  and  O_6
    2  A    between atoms: C_5  and  C_15
    3  A    between atoms: C_5  and  N_23
    4  A    between atoms: N_7  and  N_11
    5  A    between atoms: N_7  and  C_20
    6  A    between atoms: C_8  and  C_35
    7  A    between atoms: N_9  and  C_22
    8  A    between atoms: N_9  and  C_35
    9  A    between atoms: C_10  and  C_28
   10  A    between atoms: C_10  and  C_33
   11  A    between atoms: N_11  and  C_36
   12  A    between atoms: N_14  and  N_23
   13  A    between atoms: C_15  and  C_26
   14  A    between atoms: C_16  and  C_26
   15  A    between atoms: C_16  and  C_32
   16  A    between atoms: C_20  and  C_22
                            x       y       z     vdW  Elec       q    Type
                         _______ _______ _______ _____ _____    ______ ____

>  <TORSDO>
F 16

$$$$
=
 OpenBabel10222418433D

 41 44  0  0  1  0  0  0  0  0999 V2000
  181.9660  177.3500  139.4650 C   0  0  0  0  0  0  0  0  0  0  0  0
  184.6440  178.9090  138.7800 C   0  0  0  0  0  2  0  0  0  0  0  0
  184.6030  178.8900  140.2650 C   0  0  0  0  0  3  0  0  0  0  0  0
  182.4340  177.7450  140.6210 N   0  0  0  0  0  0  0  0  0  0  0  0
  182.6360  177.5680  138.1420 C   0  0  1  0  0  3  0  0  0  0  0  0
  183.6340  178.4200  141.0690 C   0  0  0  0  0  0  0  0  0  0  0  0
  182.0260  178.7710  137.4330 C   0  0  0  0  0  1  0  0  0  0  0  0
  184.1590  177.5910  138.2190 C   0  0  1  0  0  3  0  0  0  0  0  0
  180.7320  176.6920  139.4200 O   0  0  0  0  0  0  0  0  0  0  0  0
  180.6250  175.2790  139.3340 C   0  0  0  0  0  1  0  0  0  0  0  0
  183.8170  178.5670  142.5360 C   0  0  0  0  0  0  0  0  0  0  0  0
  185.0480  178.4850  143.0530 C   0  0  0  0  0  3  0  0  0  0  0  0
  182.6790  178.7880  143.4040 C   0  0  0  0  0  0  0  0  0  0  0  0
  181.7320  178.9720  144.1280 C   0  0  0  0  0  3  0  0  0  0  0  0
  185.3510  178.6260  144.5120 C   0  0  0  0  0  2  0  0  0  0  0  0
  186.3320  177.5540  144.9600 C   0  0  0  0  0  2  0  0  0  0  0  0
  186.6510  177.6960  146.4390 C   0  0  0  0  0  2  0  0  0  0  0  0
  188.1550  177.7650  146.6490 C   0  0  1  0  0  3  0  0  0  0  0  0
  188.5510  176.7880  147.5640 O   0  0  0  0  0  1  0  0  0  0  0  0
  188.8400  177.5430  145.3860 N   0  0  0  0  0  2  0  0  0  0  0  0
  191.1780  177.8700  144.9750 C   0  0  1  0  0  3  0  0  0  0  0  0
  188.6700  178.1380  142.2430 C   0  0  0  0  0  2  0  0  0  0  0  0
  190.4220  178.5680  143.9080 C   0  0  2  0  0  3  0  0  0  0  0  0
  189.8650  178.5070  145.2900 N   0  0  0  0  0  0  0  0  0  0  0  0
  192.1560  175.8190  145.7370 O   0  0  0  0  0  1  0  0  0  0  0  0
  190.5530  176.1140  141.2690 O   0  0  0  0  0  1  0  0  0  0  0  0
  191.3830  175.8620  143.4860 C   0  0  0  0  0  2  0  0  0  0  0  0
  191.1540  176.3290  144.9130 C   0  0  2  0  0  3  0  0  0  0  0  0
  190.2000  176.2600  142.6120 C   0  0  1  0  0  3  0  0  0  0  0  0
  189.7390  177.6730  142.8820 C   0  0  0  0  0  0  0  0  0  0  0  0
  184.7950  177.2440  136.9430 N   0  0  0  0  0  2  0  0  0  0  0  0
  186.1390  177.6630  136.9440 N   0  0  0  0  0  2  0  0  0  0  0  0
  186.8580  174.2370  137.1410 O   0  0  0  0  0  0  0  0  0  0  0  0
  187.2230  176.7560  137.1610 C   0  0  0  0  0  0  0  0  0  0  0  0
  187.0370  175.4620  137.1520 C   0  0  0  0  0  0  0  0  0  0  0  0
  188.5880  177.2940  137.4100 C   0  0  0  0  0  2  0  0  0  0  0  0
  189.3390  177.3200  136.1660 N   0  0  0  0  0  2  0  0  0  0  0  0
  190.4330  176.3700  136.3000 C   0  0  0  0  0  2  0  0  0  0  0  0
  191.2630  174.9550  138.1010 N   0  0  0  0  0  2  0  0  0  0  0  0
  190.9260  176.3370  137.7350 C   0  0  1  0  0  3  0  0  0  0  0  0
  192.3220  175.9180  137.7590 C   0  0  0  0  0  2  0  0  0  0  0  0
  1  4  2  0  0  0  0
  2  3  1  0  0  0  0
  3  6  2  0  0  0  0
  4  6  1  0  0  0  0
  5  7  1  1  0  0  0
  5  8  1  0  0  0  0
  5  1  1  0  0  0  0
  6 11  1  0  0  0  0
  8 31  1  6  0  0  0
  8  2  1  0  0  0  0
  9  1  1  0  0  0  0
 10  9  1  0  0  0  0
 11 12  2  0  0  0  0
 11 13  1  0  0  0  0
 12 15  1  0  0  0  0
 13 14  3  0  0  0  0
 15 16  1  0  0  0  0
 16 17  1  0  0  0  0
 17 18  1  0  0  0  0
 18 19  1  1  0  0  0
 20 18  1  0  0  0  0
 21 24  1  1  0  0  0
 22 30  2  0  0  0  0
 23 30  1  6  0  0  0
 23 21  1  0  0  0  0
 23 24  1  0  0  0  0
 24 20  1  0  0  0  0
 27 28  1  0  0  0  0
 28 21  1  0  0  0  0
 28 25  1  1  0  0  0
 29 26  1  6  0  0  0
 29 30  1  0  0  0  0
 29 27  1  0  0  0  0
 31 32  1  0  0  0  0
 32 34  1  0  0  0  0
 33 35  2  0  0  0  0
 34 36  1  0  0  0  0
 35 34  2  0  0  0  0
 37 38  1  0  0  0  0
 37 36  1  0  0  0  0
 40 38  1  6  0  0  0
 40 41  1  0  0  0  0
 40 39  1  0  0  0  0
 41 39  1  0  0  0  0
M  END
>  <MODEL>
5

>  <REMARK>
 VINA RESULT:      -7.7      2.152      7.560
  Name = 
  16 active torsions:
  status: ('A' for Active; 'I' for Inactive)
    1  A    between atoms: C_1  and  O_6
    2  A    between atoms: C_5  and  C_15
    3  A    between atoms: C_5  and  N_23
    4  A    between atoms: N_7  and  N_11
    5  A    between atoms: N_7  and  C_20
    6  A    between atoms: C_8  and  C_35
    7  A    between atoms: N_9  and  C_22
    8  A    between atoms: N_9  and  C_35
    9  A    between atoms: C_10  and  C_28
   10  A    between atoms: C_10  and  C_33
   11  A    between atoms: N_11  and  C_36
   12  A    between atoms: N_14  and  N_23
   13  A    between atoms: C_15  and  C_26
   14  A    between atoms: C_16  and  C_26
   15  A    between atoms: C_16  and  C_32
   16  A    between atoms: C_20  and  C_22
                            x       y       z     vdW  Elec       q    Type
                         _______ _______ _______ _____ _____    ______ ____

>  <TORSDO>
F 16

$$$$
=
 OpenBabel10222418433D

 41 44  0  0  1  0  0  0  0  0999 V2000
  181.7280  177.3900  139.5520 C   0  0  0  0  0  0  0  0  0  0  0  0
  184.2160  179.3580  139.4570 C   0  0  0  0  0  2  0  0  0  0  0  0
  183.9120  179.2230  140.9060 C   0  0  0  0  0  3  0  0  0  0  0  0
  181.9150  177.7600  140.7920 N   0  0  0  0  0  0  0  0  0  0  0  0
  182.5840  177.7970  138.3910 C   0  0  1  0  0  3  0  0  0  0  0  0
  182.8980  178.5630  141.4890 C   0  0  0  0  0  0  0  0  0  0  0  0
  181.9340  178.9510  137.6360 C   0  0  0  0  0  1  0  0  0  0  0  0
  184.0470  178.0300  138.7540 C   0  0  1  0  0  3  0  0  0  0  0  0
  180.6380  176.5690  139.2450 O   0  0  0  0  0  0  0  0  0  0  0  0
  180.0000  175.7530  140.2170 C   0  0  0  0  0  1  0  0  0  0  0  0
  182.7900  178.6250  142.9700 C   0  0  0  0  0  0  0  0  0  0  0  0
  183.9060  178.6640  143.7060 C   0  0  0  0  0  3  0  0  0  0  0  0
  181.4940  178.6360  143.6170 C   0  0  0  0  0  0  0  0  0  0  0  0
  180.4150  178.6440  144.1540 C   0  0  0  0  0  3  0  0  0  0  0  0
  183.9170  178.7370  145.2020 C   0  0  0  0  0  2  0  0  0  0  0  0
  185.3170  179.0410  145.7110 C   0  0  0  0  0  2  0  0  0  0  0  0
  186.0940  177.7580  145.9600 C   0  0  0  0  0  2  0  0  0  0  0  0
  187.5660  178.0680  146.1780 C   0  0  1  0  0  3  0  0  0  0  0  0
  188.0960  177.1990  147.1330 O   0  0  0  0  0  1  0  0  0  0  0  0
  188.2930  177.9100  144.9300 N   0  0  0  0  0  2  0  0  0  0  0  0
  187.8380  176.8150  142.8470 C   0  0  1  0  0  3  0  0  0  0  0  0
  191.1270  176.4670  144.5470 C   0  0  0  0  0  2  0  0  0  0  0  0
  188.9280  176.0760  143.5250 C   0  0  2  0  0  3  0  0  0  0  0  0
  187.8480  176.7100  144.3350 N   0  0  0  0  0  0  0  0  0  0  0  0
  187.2310  178.6280  141.4010 O   0  0  0  0  0  1  0  0  0  0  0  0
  191.8190  177.4700  141.8800 O   0  0  0  0  0  1  0  0  0  0  0  0
  189.5520  178.1300  141.5730 C   0  0  0  0  0  2  0  0  0  0  0  0
  188.2160  178.2040  142.2920 C   0  0  2  0  0  3  0  0  0  0  0  0
  190.6660  177.8460  142.5730 C   0  0  1  0  0  3  0  0  0  0  0  0
  190.2810  176.7760  143.5680 C   0  0  0  0  0  0  0  0  0  0  0  0
  184.9470  177.8720  137.6070 N   0  0  0  0  0  2  0  0  0  0  0  0
  186.2770  178.1150  137.9990 N   0  0  0  0  0  2  0  0  0  0  0  0
  189.4130  179.3160  136.9890 O   0  0  0  0  0  0  0  0  0  0  0  0
  187.3930  177.7770  137.1710 C   0  0  0  0  0  0  0  0  0  0  0  0
  188.4300  178.5670  137.0760 C   0  0  0  0  0  0  0  0  0  0  0  0
  187.3720  176.5060  136.3980 C   0  0  0  0  0  2  0  0  0  0  0  0
  187.7810  175.4040  137.2530 N   0  0  0  0  0  2  0  0  0  0  0  0
  188.8640  174.7080  136.5760 C   0  0  0  0  0  2  0  0  0  0  0  0
  190.8590  174.5820  137.9670 N   0  0  0  0  0  2  0  0  0  0  0  0
  190.1950  175.3570  136.9110 C   0  0  1  0  0  3  0  0  0  0  0  0
  191.2790  174.4470  136.5630 C   0  0  0  0  0  2  0  0  0  0  0  0
  1  4  2  0  0  0  0
  2  3  1  0  0  0  0
  3  6  2  0  0  0  0
  4  6  1  0  0  0  0
  5  7  1  1  0  0  0
  5  8  1  0  0  0  0
  5  1  1  0  0  0  0
  6 11  1  0  0  0  0
  8 31  1  6  0  0  0
  8  2  1  0  0  0  0
  9  1  1  0  0  0  0
  9 10  1  0  0  0  0
 11 13  1  0  0  0  0
 11 12  2  0  0  0  0
 12 15  1  0  0  0  0
 13 14  3  0  0  0  0
 15 16  1  0  0  0  0
 16 17  1  0  0  0  0
 17 18  1  0  0  0  0
 18 19  1  1  0  0  0
 20 18  1  0  0  0  0
 21 23  1  0  0  0  0
 21 24  1  1  0  0  0
 23 30  1  1  0  0  0
 23 24  1  0  0  0  0
 24 20  1  0  0  0  0
 27 28  1  0  0  0  0
 27 29  1  0  0  0  0
 28 25  1  6  0  0  0
 28 21  1  0  0  0  0
 29 26  1  6  0  0  0
 29 30  1  0  0  0  0
 30 22  2  0  0  0  0
 31 32  1  0  0  0  0
 33 35  2  0  0  0  0
 34 32  1  0  0  0  0
 35 34  2  0  0  0  0
 36 34  1  0  0  0  0
 36 37  1  0  0  0  0
 38 37  1  0  0  0  0
 40 38  1  6  0  0  0
 40 39  1  0  0  0  0
 41 40  1  0  0  0  0
 41 39  1  0  0  0  0
M  END
>  <MODEL>
6

>  <REMARK>
 VINA RESULT:      -7.3      2.206      7.221
  Name = 
  16 active torsions:
  status: ('A' for Active; 'I' for Inactive)
    1  A    between atoms: C_1  and  O_6
    2  A    between atoms: C_5  and  C_15
    3  A    between atoms: C_5  and  N_23
    4  A    between atoms: N_7  and  N_11
    5  A    between atoms: N_7  and  C_20
    6  A    between atoms: C_8  and  C_35
    7  A    between atoms: N_9  and  C_22
    8  A    between atoms: N_9  and  C_35
    9  A    between atoms: C_10  and  C_28
   10  A    between atoms: C_10  and  C_33
   11  A    between atoms: N_11  and  C_36
   12  A    between atoms: N_14  and  N_23
   13  A    between atoms: C_15  and  C_26
   14  A    between atoms: C_16  and  C_26
   15  A    between atoms: C_16  and  C_32
   16  A    between atoms: C_20  and  C_22
                            x       y       z     vdW  Elec       q    Type
                         _______ _______ _______ _____ _____    ______ ____

>  <TORSDO>
F 16

$$$$
=
 OpenBabel10222418433D

 41 44  0  0  1  0  0  0  0  0999 V2000
  184.9430  178.4600  138.9750 C   0  0  0  0  0  0  0  0  0  0  0  0
  181.8150  178.0730  139.3440 C   0  0  0  0  0  2  0  0  0  0  0  0
  182.3170  178.3160  140.7220 C   0  0  0  0  0  3  0  0  0  0  0  0
  184.7480  178.4910  140.2690 N   0  0  0  0  0  0  0  0  0  0  0  0
  183.8660  178.3280  137.9420 C   0  0  1  0  0  3  0  0  0  0  0  0
  183.5880  178.4630  141.1340 C   0  0  0  0  0  0  0  0  0  0  0  0
  183.7570  176.8820  137.4740 C   0  0  0  0  0  1  0  0  0  0  0  0
  182.5380  178.9560  138.3520 C   0  0  1  0  0  3  0  0  0  0  0  0
  186.2520  178.5250  138.4850 O   0  0  0  0  0  0  0  0  0  0  0  0
  187.3480  177.9180  139.1540 C   0  0  0  0  0  1  0  0  0  0  0  0
  183.8270  178.6480  142.5890 C   0  0  0  0  0  0  0  0  0  0  0  0
  185.0800  178.8020  143.0310 C   0  0  0  0  0  3  0  0  0  0  0  0
  182.7210  178.6530  143.5250 C   0  0  0  0  0  0  0  0  0  0  0  0
  181.8030  178.6560  144.3050 C   0  0  0  0  0  3  0  0  0  0  0  0
  185.4380  179.0040  144.4710 C   0  0  0  0  0  2  0  0  0  0  0  0
  186.2770  177.8430  144.9800 C   0  0  0  0  0  2  0  0  0  0  0  0
  186.6010  178.0140  146.4550 C   0  0  0  0  0  2  0  0  0  0  0  0
  188.0940  177.8420  146.6890 C   0  0  1  0  0  3  0  0  0  0  0  0
  188.3190  176.7380  147.5130 O   0  0  0  0  0  1  0  0  0  0  0  0
  188.7710  177.6390  145.4190 N   0  0  0  0  0  2  0  0  0  0  0  0
  191.1210  177.9480  145.0620 C   0  0  1  0  0  3  0  0  0  0  0  0
  188.6800  178.2020  142.2680 C   0  0  0  0  0  2  0  0  0  0  0  0
  190.3950  178.6390  143.9700 C   0  0  2  0  0  3  0  0  0  0  0  0
  189.8050  178.5960  145.3390 N   0  0  0  0  0  0  0  0  0  0  0  0
  192.0680  175.8990  145.8690 O   0  0  0  0  0  1  0  0  0  0  0  0
  190.5740  176.1570  141.3600 O   0  0  0  0  0  1  0  0  0  0  0  0
  191.3500  175.9230  143.5990 C   0  0  0  0  0  2  0  0  0  0  0  0
  191.0890  176.4070  145.0160 C   0  0  2  0  0  3  0  0  0  0  0  0
  190.1900  176.3190  142.6930 C   0  0  1  0  0  3  0  0  0  0  0  0
  189.7310  177.7370  142.9370 C   0  0  0  0  0  0  0  0  0  0  0  0
  181.7060  179.3240  137.2010 N   0  0  0  0  0  2  0  0  0  0  0  0
  180.3520  179.3800  137.5820 N   0  0  0  0  0  2  0  0  0  0  0  0
  179.6420  181.5940  140.2070 O   0  0  0  0  0  0  0  0  0  0  0  0
  179.6850  180.6150  137.8580 C   0  0  0  0  0  0  0  0  0  0  0  0
  179.6620  181.1180  139.0640 C   0  0  0  0  0  0  0  0  0  0  0  0
  178.9990  181.3370  136.7530 C   0  0  0  0  0  2  0  0  0  0  0  0
  179.3160  182.7540  136.8210 N   0  0  0  0  0  2  0  0  0  0  0  0
  180.2290  183.0480  135.7280 C   0  0  0  0  0  2  0  0  0  0  0  0
  180.2290  185.0780  137.0740 N   0  0  0  0  0  2  0  0  0  0  0  0
  180.8560  184.4170  135.9220 C   0  0  1  0  0  3  0  0  0  0  0  0
  181.5550  184.4530  137.2000 C   0  0  0  0  0  2  0  0  0  0  0  0
  1  4  2  0  0  0  0
  2  3  1  0  0  0  0
  3  6  2  0  0  0  0
  4  6  1  0  0  0  0
  5  7  1  1  0  0  0
  5  8  1  0  0  0  0
  5  1  1  0  0  0  0
  6 11  1  0  0  0  0
  8 31  1  6  0  0  0
  8  2  1  0  0  0  0
  9  1  1  0  0  0  0
  9 10  1  0  0  0  0
 11 12  2  0  0  0  0
 11 13  1  0  0  0  0
 12 15  1  0  0  0  0
 13 14  3  0  0  0  0
 15 16  1  0  0  0  0
 16 17  1  0  0  0  0
 17 18  1  0  0  0  0
 18 19  1  1  0  0  0
 20 18  1  0  0  0  0
 21 24  1  1  0  0  0
 22 30  2  0  0  0  0
 23 30  1  6  0  0  0
 23 21  1  0  0  0  0
 23 24  1  0  0  0  0
 24 20  1  0  0  0  0
 27 28  1  0  0  0  0
 28 21  1  0  0  0  0
 28 25  1  1  0  0  0
 29 26  1  6  0  0  0
 29 30  1  0  0  0  0
 29 27  1  0  0  0  0
 31 32  1  0  0  0  0
 32 34  1  0  0  0  0
 34 35  2  0  0  0  0
 35 33  2  0  0  0  0
 36 37  1  0  0  0  0
 36 34  1  0  0  0  0
 38 37  1  0  0  0  0
 39 41  1  0  0  0  0
 40 38  1  1  0  0  0
 40 39  1  0  0  0  0
 40 41  1  0  0  0  0
M  END
>  <MODEL>
7

>  <REMARK>
 VINA RESULT:      -7.3      3.335      9.634
  Name = 
  16 active torsions:
  status: ('A' for Active; 'I' for Inactive)
    1  A    between atoms: C_1  and  O_6
    2  A    between atoms: C_5  and  C_15
    3  A    between atoms: C_5  and  N_23
    4  A    between atoms: N_7  and  N_11
    5  A    between atoms: N_7  and  C_20
    6  A    between atoms: C_8  and  C_35
    7  A    between atoms: N_9  and  C_22
    8  A    between atoms: N_9  and  C_35
    9  A    between atoms: C_10  and  C_28
   10  A    between atoms: C_10  and  C_33
   11  A    between atoms: N_11  and  C_36
   12  A    between atoms: N_14  and  N_23
   13  A    between atoms: C_15  and  C_26
   14  A    between atoms: C_16  and  C_26
   15  A    between atoms: C_16  and  C_32
   16  A    between atoms: C_20  and  C_22
                            x       y       z     vdW  Elec       q    Type
                         _______ _______ _______ _____ _____    ______ ____

>  <TORSDO>
F 16

$$$$
=
 OpenBabel10222418433D

 41 44  0  0  1  0  0  0  0  0999 V2000
  181.8510  177.4090  139.7570 C   0  0  0  0  0  0  0  0  0  0  0  0
  184.6100  178.9220  139.3460 C   0  0  0  0  0  2  0  0  0  0  0  0
  184.3650  179.0030  140.8100 C   0  0  0  0  0  3  0  0  0  0  0  0
  182.1590  177.8810  140.9380 N   0  0  0  0  0  0  0  0  0  0  0  0
  182.6990  177.5390  138.5280 C   0  0  1  0  0  3  0  0  0  0  0  0
  183.2910  178.5850  141.5020 C   0  0  0  0  0  0  0  0  0  0  0  0
  182.2010  178.6920  137.6640 C   0  0  0  0  0  1  0  0  0  0  0  0
  184.1960  177.5700  138.8120 C   0  0  1  0  0  3  0  0  0  0  0  0
  180.6300  176.7480  139.5870 O   0  0  0  0  0  0  0  0  0  0  0  0
  179.5490  176.8990  140.4950 C   0  0  0  0  0  1  0  0  0  0  0  0
  183.2720  178.8300  142.9670 C   0  0  0  0  0  0  0  0  0  0  0  0
  184.4150  179.1250  143.5960 C   0  0  0  0  0  3  0  0  0  0  0  0
  182.0340  178.7440  143.7150 C   0  0  0  0  0  0  0  0  0  0  0  0
  181.0040  178.6730  144.3360 C   0  0  0  0  0  3  0  0  0  0  0  0
  184.5130  179.3990  145.0650 C   0  0  0  0  0  2  0  0  0  0  0  0
  184.9820  178.1580  145.8080 C   0  0  0  0  0  2  0  0  0  0  0  0
  186.2350  177.5830  145.1660 C   0  0  0  0  0  2  0  0  0  0  0  0
  187.4650  177.9790  145.9650 C   0  0  1  0  0  3  0  0  0  0  0  0
  187.3450  177.5190  147.2770 O   0  0  0  0  0  1  0  0  0  0  0  0
  188.6530  177.3990  145.3610 N   0  0  0  0  0  2  0  0  0  0  0  0
  190.9770  177.8620  145.0020 C   0  0  1  0  0  3  0  0  0  0  0  0
  188.5280  177.9260  142.2040 C   0  0  0  0  0  2  0  0  0  0  0  0
  190.2080  178.4930  143.9030 C   0  0  2  0  0  3  0  0  0  0  0  0
  189.6200  178.4220  145.2720 N   0  0  0  0  0  0  0  0  0  0  0  0
  192.0590  175.8890  145.8280 O   0  0  0  0  0  1  0  0  0  0  0  0
  190.5570  176.0050  141.3160 O   0  0  0  0  0  1  0  0  0  0  0  0
  191.3430  175.8440  143.5570 C   0  0  0  0  0  2  0  0  0  0  0  0
  191.0490  176.3220  144.9690 C   0  0  2  0  0  3  0  0  0  0  0  0
  190.1600  176.1520  142.6480 C   0  0  1  0  0  3  0  0  0  0  0  0
  189.6070  177.5390  142.8780 C   0  0  0  0  0  0  0  0  0  0  0  0
  185.0000  177.1400  137.6620 N   0  0  0  0  0  2  0  0  0  0  0  0
  185.8030  178.2030  137.2090 N   0  0  0  0  0  2  0  0  0  0  0  0
  189.0560  179.4310  137.6640 O   0  0  0  0  0  0  0  0  0  0  0  0
  187.1480  178.0090  136.7610 C   0  0  0  0  0  0  0  0  0  0  0  0
  188.1280  178.7400  137.2240 C   0  0  0  0  0  0  0  0  0  0  0  0
  187.4360  176.9620  135.7440 C   0  0  0  0  0  2  0  0  0  0  0  0
  188.4430  176.0470  136.2530 N   0  0  0  0  0  2  0  0  0  0  0  0
  187.7430  174.9240  136.8590 C   0  0  0  0  0  2  0  0  0  0  0  0
  188.5080  172.6120  136.8380 N   0  0  0  0  0  2  0  0  0  0  0  0
  187.9220  173.6770  136.0130 C   0  0  1  0  0  3  0  0  0  0  0  0
  187.0690  172.6140  136.5300 C   0  0  0  0  0  2  0  0  0  0  0  0
  1  4  2  0  0  0  0
  2  3  1  0  0  0  0
  3  6  2  0  0  0  0
  4  6  1  0  0  0  0
  5  7  1  1  0  0  0
  5  8  1  0  0  0  0
  5  1  1  0  0  0  0
  6 11  1  0  0  0  0
  8 31  1  6  0  0  0
  8  2  1  0  0  0  0
  9  1  1  0  0  0  0
  9 10  1  0  0  0  0
 11 12  2  0  0  0  0
 11 13  1  0  0  0  0
 12 15  1  0  0  0  0
 13 14  3  0  0  0  0
 15 16  1  0  0  0  0
 17 16  1  0  0  0  0
 17 18  1  0  0  0  0
 18 19  1  1  0  0  0
 20 18  1  0  0  0  0
 21 24  1  1  0  0  0
 22 30  2  0  0  0  0
 23 30  1  6  0  0  0
 23 21  1  0  0  0  0
 23 24  1  0  0  0  0
 24 20  1  0  0  0  0
 27 28  1  0  0  0  0
 28 21  1  0  0  0  0
 28 25  1  1  0  0  0
 29 26  1  6  0  0  0
 29 30  1  0  0  0  0
 29 27  1  0  0  0  0
 32 31  1  0  0  0  0
 34 32  1  0  0  0  0
 34 35  2  0  0  0  0
 35 33  2  0  0  0  0
 36 37  1  0  0  0  0
 36 34  1  0  0  0  0
 37 38  1  0  0  0  0
 40 41  1  0  0  0  0
 40 39  1  0  0  0  0
 40 38  1  1  0  0  0
 41 39  1  0  0  0  0
M  END
>  <MODEL>
8

>  <REMARK>
 VINA RESULT:      -7.2      2.710      7.611
  Name = 
  16 active torsions:
  status: ('A' for Active; 'I' for Inactive)
    1  A    between atoms: C_1  and  O_6
    2  A    between atoms: C_5  and  C_15
    3  A    between atoms: C_5  and  N_23
    4  A    between atoms: N_7  and  N_11
    5  A    between atoms: N_7  and  C_20
    6  A    between atoms: C_8  and  C_35
    7  A    between atoms: N_9  and  C_22
    8  A    between atoms: N_9  and  C_35
    9  A    between atoms: C_10  and  C_28
   10  A    between atoms: C_10  and  C_33
   11  A    between atoms: N_11  and  C_36
   12  A    between atoms: N_14  and  N_23
   13  A    between atoms: C_15  and  C_26
   14  A    between atoms: C_16  and  C_26
   15  A    between atoms: C_16  and  C_32
   16  A    between atoms: C_20  and  C_22
                            x       y       z     vdW  Elec       q    Type
                         _______ _______ _______ _____ _____    ______ ____

>  <TORSDO>
F 16

$$$$
=
 OpenBabel10222418433D

 41 44  0  0  1  0  0  0  0  0999 V2000
  186.8110  178.0460  137.3170 C   0  0  0  0  0  0  0  0  0  0  0  0
  188.4610  178.3430  140.0120 C   0  0  0  0  0  2  0  0  0  0  0  0
  187.0460  178.5290  140.4280 C   0  0  0  0  0  3  0  0  0  0  0  0
  185.9250  178.3710  138.2240 N   0  0  0  0  0  0  0  0  0  0  0  0
  188.2690  177.8180  137.5780 C   0  0  1  0  0  3  0  0  0  0  0  0
  185.9480  178.5770  139.6560 C   0  0  0  0  0  0  0  0  0  0  0  0
  189.0710  179.0640  137.2200 C   0  0  0  0  0  1  0  0  0  0  0  0
  188.5680  177.2580  138.9640 C   0  0  1  0  0  3  0  0  0  0  0  0
  186.4050  177.9190  135.9850 O   0  0  0  0  0  0  0  0  0  0  0  0
  186.1850  176.6560  135.3720 C   0  0  0  0  0  1  0  0  0  0  0  0
  184.6430  178.8260  140.3220 C   0  0  0  0  0  0  0  0  0  0  0  0
  184.5020  178.5270  141.6180 C   0  0  0  0  0  3  0  0  0  0  0  0
  183.5270  179.3770  139.5800 C   0  0  0  0  0  0  0  0  0  0  0  0
  182.6000  179.8350  138.9610 C   0  0  0  0  0  3  0  0  0  0  0  0
  183.2390  178.7420  142.3920 C   0  0  0  0  0  2  0  0  0  0  0  0
  183.5410  178.8980  143.8740 C   0  0  0  0  0  2  0  0  0  0  0  0
  184.9090  179.5280  144.0840 C   0  0  0  0  0  2  0  0  0  0  0  0
  185.3070  179.4450  145.5490 C   0  0  1  0  0  3  0  0  0  0  0  0
  184.3630  178.6970  146.2540 O   0  0  0  0  0  1  0  0  0  0  0  0
  186.6090  178.8100  145.6710 N   0  0  0  0  0  2  0  0  0  0  0  0
  187.6470  176.8110  144.8520 C   0  0  1  0  0  3  0  0  0  0  0  0
  187.7140  177.6960  148.4630 C   0  0  0  0  0  2  0  0  0  0  0  0
  187.3440  176.6160  146.2890 C   0  0  2  0  0  3  0  0  0  0  0  0
  186.4240  177.4300  145.4440 N   0  0  0  0  0  0  0  0  0  0  0  0
  189.1910  177.6330  143.2130 O   0  0  0  0  0  1  0  0  0  0  0  0
  190.5440  177.3790  147.7660 O   0  0  0  0  0  1  0  0  0  0  0  0
  189.9650  177.5480  145.4630 C   0  0  0  0  0  2  0  0  0  0  0  0
  188.7880  177.8010  144.5370 C   0  0  2  0  0  3  0  0  0  0  0  0
  189.5870  177.9040  146.8950 C   0  0  1  0  0  3  0  0  0  0  0  0
  188.2110  177.4010  147.2650 C   0  0  0  0  0  0  0  0  0  0  0  0
  189.8420  176.5330  139.0200 N   0  0  0  0  0  2  0  0  0  0  0  0
  189.9510  175.6610  137.9210 N   0  0  0  0  0  2  0  0  0  0  0  0
  191.1770  176.2720  134.6930 O   0  0  0  0  0  0  0  0  0  0  0  0
  191.1440  175.5620  137.1370 C   0  0  0  0  0  0  0  0  0  0  0  0
  191.1610  175.9260  135.8810 C   0  0  0  0  0  0  0  0  0  0  0  0
  192.3850  175.0290  137.7590 C   0  0  0  0  0  2  0  0  0  0  0  0
  193.5480  175.5710  137.0770 N   0  0  0  0  0  2  0  0  0  0  0  0
  194.6070  174.5780  137.1670 C   0  0  0  0  0  2  0  0  0  0  0  0
  195.6660  172.9740  138.6630 N   0  0  0  0  0  2  0  0  0  0  0  0
  194.8330  174.1830  138.6150 C   0  0  1  0  0  3  0  0  0  0  0  0
  196.2510  174.2970  138.9320 C   0  0  0  0  0  2  0  0  0  0  0  0
  1  5  1  0  0  0  0
  1  4  2  0  0  0  0
  2  3  1  0  0  0  0
  4  6  1  0  0  0  0
  5  7  1  1  0  0  0
  5  8  1  0  0  0  0
  6 11  1  0  0  0  0
  6  3  2  0  0  0  0
  8 31  1  6  0  0  0
  8  2  1  0  0  0  0
  9  1  1  0  0  0  0
 10  9  1  0  0  0  0
 11 12  2  0  0  0  0
 12 15  1  0  0  0  0
 13 11  1  0  0  0  0
 14 13  3  0  0  0  0
 15 16  1  0  0  0  0
 16 17  1  0  0  0  0
 17 18  1  0  0  0  0
 18 20  1  0  0  0  0
 18 19  1  1  0  0  0
 21 24  1  6  0  0  0
 21 23  1  0  0  0  0
 23 30  1  1  0  0  0
 24 20  1  0  0  0  0
 24 23  1  0  0  0  0
 27 29  1  0  0  0  0
 28 25  1  6  0  0  0
 28 21  1  0  0  0  0
 28 27  1  0  0  0  0
 29 30  1  0  0  0  0
 29 26  1  1  0  0  0
 30 22  2  0  0  0  0
 32 31  1  0  0  0  0
 33 35  2  0  0  0  0
 34 36  1  0  0  0  0
 34 32  1  0  0  0  0
 35 34  2  0  0  0  0
 37 38  1  0  0  0  0
 37 36  1  0  0  0  0
 39 41  1  0  0  0  0
 40 38  1  6  0  0  0
 40 39  1  0  0  0  0
 40 41  1  0  0  0  0
M  END
>  <MODEL>
9

>  <REMARK>
 VINA RESULT:      -7.1      2.388      6.987
  Name = 
  16 active torsions:
  status: ('A' for Active; 'I' for Inactive)
    1  A    between atoms: C_1  and  O_6
    2  A    between atoms: C_5  and  C_15
    3  A    between atoms: C_5  and  N_23
    4  A    between atoms: N_7  and  N_11
    5  A    between atoms: N_7  and  C_20
    6  A    between atoms: C_8  and  C_35
    7  A    between atoms: N_9  and  C_22
    8  A    between atoms: N_9  and  C_35
    9  A    between atoms: C_10  and  C_28
   10  A    between atoms: C_10  and  C_33
   11  A    between atoms: N_11  and  C_36
   12  A    between atoms: N_14  and  N_23
   13  A    between atoms: C_15  and  C_26
   14  A    between atoms: C_16  and  C_26
   15  A    between atoms: C_16  and  C_32
   16  A    between atoms: C_20  and  C_22
                            x       y       z     vdW  Elec       q    Type
                         _______ _______ _______ _____ _____    ______ ____

>  <TORSDO>
F 16

$$$$
