=
 OpenBabel10222418463D

 61 65  0  0  1  0  0  0  0  0999 V2000
  185.0310  178.0840  143.0530 C   0  0  2  0  0  3  0  0  0  0  0  0
  184.2400  179.0310  144.0640 C   0  0  2  0  0  3  0  0  0  0  0  0
  185.0740  179.3790  145.2460 C   0  0  0  0  0  3  0  0  0  0  0  0
  184.7440  178.9560  146.3840 O   0  0  0  0  0  0  0  0  0  0  0  0
  182.8040  178.7430  144.3780 C   0  0  0  0  0  2  0  0  0  0  0  0
  181.9740  179.0240  143.3080 F   0  0  0  0  0  0  0  0  0  0  0  0
  186.5150  178.2510  142.7700 C   0  0  0  0  0  2  0  0  0  0  0  0
  187.3940  177.1410  143.4670 C   0  0  2  0  0  3  0  0  0  0  0  0
  188.6840  177.5210  144.0810 C   0  0  2  0  0  3  0  0  0  0  0  0
  189.1630  176.3230  143.3400 C   0  0  1  0  0  3  0  0  0  0  0  0
  187.9900  176.2540  142.6120 O   0  0  0  0  0  0  0  0  0  0  0  0
  191.4660  176.5200  143.0930 O   0  0  0  0  0  1  0  0  0  0  0  0
  190.3340  176.9510  142.4730 C   0  0  1  0  0  3  0  0  0  0  0  0
  190.2690  176.5570  141.0920 C   0  0  0  0  0  2  0  0  0  0  0  0
  190.2130  177.0340  138.2180 C   0  0  0  0  0  2  0  0  0  0  0  0
  190.1820  178.0270  139.3420 C   0  0  0  0  0  2  0  0  0  0  0  0
  191.3040  176.3530  139.0530 C   0  0  2  0  0  3  0  0  0  0  0  0
  191.1850  177.3110  140.1950 N   0  0  0  0  0  0  0  0  0  0  0  0
  192.5740  176.3800  138.3050 O   0  0  0  0  0  0  0  0  0  0  0  0
  193.3350  173.8240  135.7450 C   0  0  0  0  0  3  0  0  0  0  0  0
  193.2490  175.4240  137.5710 C   0  0  0  0  0  0  0  0  0  0  0  0
  194.4560  174.8490  138.0700 C   0  0  0  0  0  3  0  0  0  0  0  0
  195.0930  173.8280  137.3590 C   0  0  0  0  0  0  0  0  0  0  0  0
  194.5310  173.3040  136.1860 C   0  0  0  0  0  3  0  0  0  0  0  0
  192.7210  174.8100  136.4090 C   0  0  0  0  0  3  0  0  0  0  0  0
  197.1640  174.0830  138.3990 O   0  0  0  0  0  1  0  0  0  0  0  0
  196.3040  173.3140  137.9130 C   0  0  0  0  0  0  0  0  0  0  0  0
  196.4760  171.9480  137.8930 O   0  0  0  0  0  0  0  0  0  0  0  0
  188.9880  177.3960  145.6230 C   0  0  1  0  0  3  0  0  0  0  0  0
  191.2660  176.5130  146.4930 C   0  0  0  0  0  1  0  0  0  0  0  0
  190.3890  177.6530  146.1500 C   0  0  0  0  0  2  0  0  0  0  0  0
  188.0320  177.2890  147.6600 C   0  0  0  0  0  1  0  0  0  0  0  0
  188.0600  177.9860  146.4350 O   0  0  0  0  0  0  0  0  0  0  0  0
  184.2600  177.7840  141.8300 N   0  0  0  0  0  2  0  0  0  0  0  0
  184.9450  178.8960  137.2830 C   0  0  0  0  0  3  0  0  0  0  0  0
  184.5470  178.8850  140.8860 C   0  0  2  0  0  3  0  0  0  0  0  0
  186.9970  178.3340  136.0520 F   0  0  0  0  0  0  0  0  0  0  0  0
  186.2420  178.3450  137.1770 C   0  0  0  0  0  0  0  0  0  0  0  0
  183.0470  179.5350  139.0250 C   0  0  2  0  0  3  0  0  0  0  0  0
  186.2130  177.7440  139.5080 C   0  0  0  0  0  3  0  0  0  0  0  0
  184.3100  178.8880  138.5370 C   0  0  0  0  0  0  0  0  0  0  0  0
  186.8290  177.7370  138.2940 C   0  0  0  0  0  3  0  0  0  0  0  0
  183.2950  179.6960  140.5320 C   0  0  0  0  0  2  0  0  0  0  0  0
  184.9900  178.3390  139.5940 C   0  0  0  0  0  0  0  0  0  0  0  0
  180.8250  178.6710  139.4430 O   0  0  0  0  0  0  0  0  0  0  0  0
  181.8020  178.6810  138.6890 C   0  0  0  0  0  0  0  0  0  0  0  0
  181.6910  177.8400  137.4440 C   0  0  0  0  0  2  0  0  0  0  0  0
  182.3470  175.5850  136.9570 N   0  0  0  0  0  0  0  0  0  0  0  0
  181.5590  176.3750  137.6380 C   0  0  0  0  0  0  0  0  0  0  0  0
  183.2400  176.5750  134.9720 O   0  0  0  0  0  0  0  0  0  0  0  0
  183.3880  175.8660  136.0730 C   0  0  0  0  0  0  0  0  0  0  0  0
  187.4270  174.4440  136.9040 C   0  0  0  0  0  1  0  0  0  0  0  0
  186.4460  172.2010  136.3010 C   0  0  0  0  0  1  0  0  0  0  0  0
  184.9080  174.0700  136.5830 C   0  0  0  0  0  3  0  0  0  0  0  0
  186.2690  173.5870  136.6510 N   0  0  0  0  0  0  0  0  0  0  0  0
  184.6620  175.2910  136.4130 N   0  0  0  0  0  0  0  0  0  0  0  0
  180.3370  175.8220  138.3370 C   0  0  0  0  0  2  0  0  0  0  0  0
  180.5370  175.0380  139.5780 N   0  0  0  0  0  0  0  0  0  0  0  0
  179.9670  175.8450  140.6550 C   0  0  0  0  0  1  0  0  0  0  0  0
  179.1680  173.7680  141.0750 C   0  0  0  0  0  1  0  0  0  0  0  0
  179.6180  173.9010  139.6310 C   0  0  0  0  0  2  0  0  0  0  0  0
  1  7  1  6  0  0  0
  1  2  1  0  0  0  0
  2  5  1  1  0  0  0
  2  3  1  0  0  0  0
  3  4  2  0  0  0  0
  6  5  1  0  0  0  0
  8  7  1  6  0  0  0
  8  9  1  0  0  0  0
  9 29  1  1  0  0  0
 10 13  1  6  0  0  0
 10  9  1  0  0  0  0
 11 10  1  0  0  0  0
 11  8  1  0  0  0  0
 13 12  1  1  0  0  0
 14 13  1  0  0  0  0
 15 17  1  0  0  0  0
 15 16  1  0  0  0  0
 16 18  1  0  0  0  0
 17 19  1  6  0  0  0
 17 18  1  0  0  0  0
 18 14  1  0  0  0  0
 20 24  2  0  0  0  0
 20 25  1  0  0  0  0
 21 22  1  0  0  0  0
 21 19  1  0  0  0  0
 23 27  1  0  0  0  0
 23 22  2  0  0  0  0
 24 23  1  0  0  0  0
 25 21  2  0  0  0  0
 27 26  1  0  0  0  0
 28 27  2  0  0  0  0
 29 31  1  6  0  0  0
 29 33  1  0  0  0  0
 31 30  1  0  0  0  0
 33 32  1  0  0  0  0
 34  1  1  0  0  0  0
 35 41  1  0  0  0  0
 36 34  1  1  0  0  0
 37 38  1  0  0  0  0
 38 35  2  0  0  0  0
 38 42  1  0  0  0  0
 39 46  1  1  0  0  0
 39 43  1  0  0  0  0
 40 44  1  0  0  0  0
 41 39  1  0  0  0  0
 41 44  2  0  0  0  0
 42 40  2  0  0  0  0
 43 36  1  0  0  0  0
 44 36  1  0  0  0  0
 46 45  2  0  0  0  0
 47 49  1  0  0  0  0
 47 46  1  0  0  0  0
 48 49  2  0  0  0  0
 49 57  1  0  0  0  0
 50 51  2  0  0  0  0
 51 56  1  0  0  0  0
 51 48  1  0  0  0  0
 53 55  1  0  0  0  0
 54 55  1  0  0  0  0
 55 52  1  0  0  0  0
 56 54  2  0  0  0  0
 57 58  1  0  0  0  0
 58 61  1  0  0  0  0
 58 59  1  0  0  0  0
 61 60  1  0  0  0  0
M  END
>  <MODEL>
1

>  <REMARK>
 VINA RESULT:      -5.8      0.000      0.000
  Name = 
  24 active torsions:
  status: ('A' for Active; 'I' for Inactive)
    1  A    between atoms: O_1  and  C_12
    2  A    between atoms: O_1  and  C_50
    3  A    between atoms: C_4  and  N_38
    4  A    between atoms: C_5  and  C_7
    5  A    between atoms: C_5  and  C_58
    6  A    between atoms: C_9  and  C_13
    7  A    between atoms: N_11  and  C_59
    8  A    between atoms: C_13  and  C_48
    9  A    between atoms: C_13  and  C_58
   10  A    between atoms: C_18  and  C_61
   11  A    between atoms: C_23  and  C_27
   12  A    between atoms: C_23  and  C_30
   13  A    between atoms: C_26  and  C_35
   14  A    between atoms: C_26  and  C_47
   15  A    between atoms: C_28  and  C_60
   16  A    between atoms: C_30  and  N_55
   17  A    between atoms: N_33  and  C_37
   18  A    between atoms: N_33  and  C_47
   19  A    between atoms: C_35  and  C_60
   20  A    between atoms: N_38  and  C_58
   21  A    between atoms: O_40  and  C_61
   22  A    between atoms: C_43  and  C_51
   23  A    between atoms: N_45  and  C_59
   24  A    between atoms: C_46  and  C_61
                            x       y       z     vdW  Elec       q    Type
                         _______ _______ _______ _____ _____    ______ ____

>  <TORSDO>
F 24

$$$$
=
 OpenBabel10222418463D

 61 65  0  0  1  0  0  0  0  0999 V2000
  188.6780  178.0720  140.9330 C   0  0  2  0  0  3  0  0  0  0  0  0
  189.6290  177.3320  141.9780 C   0  0  2  0  0  3  0  0  0  0  0  0
  191.0330  177.2740  141.4870 C   0  0  0  0  0  3  0  0  0  0  0  0
  191.8460  178.1710  141.8300 O   0  0  0  0  0  0  0  0  0  0  0  0
  189.1550  176.0830  142.6550 C   0  0  0  0  0  2  0  0  0  0  0  0
  190.1830  175.1800  142.8550 F   0  0  0  0  0  0  0  0  0  0  0  0
  187.5620  179.0080  141.3670 C   0  0  0  0  0  2  0  0  0  0  0  0
  186.2130  178.2450  141.6640 C   0  0  2  0  0  3  0  0  0  0  0  0
  184.9320  178.9800  141.5790 C   0  0  2  0  0  3  0  0  0  0  0  0
  184.6860  178.3060  142.8830 C   0  0  1  0  0  3  0  0  0  0  0  0
  186.0110  177.9200  142.9790 O   0  0  0  0  0  0  0  0  0  0  0  0
  183.0810  179.4000  144.1580 O   0  0  0  0  0  1  0  0  0  0  0  0
  184.3890  179.5530  143.8170 C   0  0  1  0  0  3  0  0  0  0  0  0
  185.2620  179.6060  144.9580 C   0  0  0  0  0  2  0  0  0  0  0  0
  185.7070  178.7530  147.7090 C   0  0  0  0  0  2  0  0  0  0  0  0
  184.6740  178.2830  146.7280 C   0  0  0  0  0  2  0  0  0  0  0  0
  186.6620  178.6620  146.5130 C   0  0  2  0  0  3  0  0  0  0  0  0
  185.5910  178.2790  145.5430 N   0  0  0  0  0  0  0  0  0  0  0  0
  187.6900  177.6420  146.7920 O   0  0  0  0  0  0  0  0  0  0  0  0
  190.9150  177.9690  145.0140 C   0  0  0  0  0  3  0  0  0  0  0  0
  189.0400  177.5700  146.5060 C   0  0  0  0  0  0  0  0  0  0  0  0
  189.9040  176.7560  147.2990 C   0  0  0  0  0  3  0  0  0  0  0  0
  191.2530  176.6280  146.9590 C   0  0  0  0  0  0  0  0  0  0  0  0
  191.7700  177.2350  145.8050 C   0  0  0  0  0  3  0  0  0  0  0  0
  189.6230  178.1100  145.3340 C   0  0  0  0  0  3  0  0  0  0  0  0
  191.7820  174.6020  147.9840 O   0  0  0  0  0  0  0  0  0  0  0  0
  192.0570  175.8100  147.8090 C   0  0  0  0  0  0  0  0  0  0  0  0
  193.1410  176.4060  148.4140 O   0  0  0  0  0  1  0  0  0  0  0  0
  183.7980  178.6400  140.5390 C   0  0  1  0  0  3  0  0  0  0  0  0
  184.9240  178.9020  138.2180 C   0  0  0  0  0  1  0  0  0  0  0  0
  184.1530  178.0790  139.1740 C   0  0  0  0  0  2  0  0  0  0  0  0
  182.4250  176.8830  140.2210 C   0  0  0  0  0  1  0  0  0  0  0  0
  182.7280  177.9710  141.0630 O   0  0  0  0  0  0  0  0  0  0  0  0
  188.2710  177.1990  139.8140 N   0  0  0  0  0  2  0  0  0  0  0  0
  190.1960  176.3120  135.5850 C   0  0  0  0  0  3  0  0  0  0  0  0
  188.8350  177.8100  138.5920 C   0  0  2  0  0  3  0  0  0  0  0  0
  192.4880  175.4720  135.2960 F   0  0  0  0  0  0  0  0  0  0  0  0
  191.4560  175.8930  136.0670 C   0  0  0  0  0  0  0  0  0  0  0  0
  187.9160  177.4550  136.3200 C   0  0  2  0  0  3  0  0  0  0  0  0
  190.7780  176.3510  138.3310 C   0  0  0  0  0  3  0  0  0  0  0  0
  189.2440  176.7820  136.5060 C   0  0  0  0  0  0  0  0  0  0  0  0
  191.7010  175.8810  137.4460 C   0  0  0  0  0  3  0  0  0  0  0  0
  187.7500  178.2690  137.6110 C   0  0  0  0  0  2  0  0  0  0  0  0
  189.5960  176.8070  137.8320 C   0  0  0  0  0  0  0  0  0  0  0  0
  186.2900  175.8100  137.0330 O   0  0  0  0  0  0  0  0  0  0  0  0
  186.7840  176.4260  136.0850 C   0  0  0  0  0  0  0  0  0  0  0  0
  186.2110  176.1280  134.7240 C   0  0  0  0  0  2  0  0  0  0  0  0
  184.1090  174.9750  134.7830 N   0  0  0  0  0  0  0  0  0  0  0  0
  185.4010  174.8920  134.5980 C   0  0  0  0  0  0  0  0  0  0  0  0
  183.6770  177.3240  134.9040 O   0  0  0  0  0  0  0  0  0  0  0  0
  183.2860  176.0710  135.0340 C   0  0  0  0  0  0  0  0  0  0  0  0
  179.2640  175.4940  136.6190 C   0  0  0  0  0  1  0  0  0  0  0  0
  180.1030  173.1650  137.0960 C   0  0  0  0  0  1  0  0  0  0  0  0
  181.4990  174.6100  135.7190 C   0  0  0  0  0  3  0  0  0  0  0  0
  180.2550  174.4340  136.4320 N   0  0  0  0  0  0  0  0  0  0  0  0
  181.9590  175.7590  135.4940 N   0  0  0  0  0  0  0  0  0  0  0  0
  186.0900  173.5450  134.5940 C   0  0  0  0  0  2  0  0  0  0  0  0
  185.9490  172.6850  135.7920 N   0  0  0  0  0  0  0  0  0  0  0  0
  184.6300  172.0650  135.6860 C   0  0  0  0  0  1  0  0  0  0  0  0
  185.8330  170.3250  135.4160 C   0  0  0  0  0  1  0  0  0  0  0  0
  186.7770  171.4850  135.6730 C   0  0  0  0  0  2  0  0  0  0  0  0
  1  7  1  1  0  0  0
  1  2  1  0  0  0  0
  2  3  1  6  0  0  0
  2  5  1  0  0  0  0
  3  4  2  0  0  0  0
  5  6  1  0  0  0  0
  8  7  1  1  0  0  0
  8 11  1  0  0  0  0
  9 29  1  6  0  0  0
  9  8  1  0  0  0  0
  9 10  1  0  0  0  0
 10 11  1  0  0  0  0
 10 13  1  1  0  0  0
 13 12  1  1  0  0  0
 13 14  1  0  0  0  0
 14 18  1  0  0  0  0
 16 15  1  0  0  0  0
 17 19  1  1  0  0  0
 17 15  1  0  0  0  0
 18 17  1  0  0  0  0
 18 16  1  0  0  0  0
 20 25  2  0  0  0  0
 20 24  1  0  0  0  0
 21 19  1  0  0  0  0
 21 22  2  0  0  0  0
 23 22  1  0  0  0  0
 23 27  1  0  0  0  0
 24 23  2  0  0  0  0
 25 21  1  0  0  0  0
 27 26  2  0  0  0  0
 27 28  1  0  0  0  0
 29 31  1  6  0  0  0
 29 33  1  0  0  0  0
 30 31  1  0  0  0  0
 32 33  1  0  0  0  0
 34  1  1  0  0  0  0
 35 38  2  0  0  0  0
 35 41  1  0  0  0  0
 36 34  1  1  0  0  0
 37 38  1  0  0  0  0
 38 42  1  0  0  0  0
 39 46  1  1  0  0  0
 39 41  1  0  0  0  0
 39 43  1  0  0  0  0
 41 44  2  0  0  0  0
 42 40  2  0  0  0  0
 43 36  1  0  0  0  0
 44 40  1  0  0  0  0
 44 36  1  0  0  0  0
 46 45  2  0  0  0  0
 47 46  1  0  0  0  0
 48 51  1  0  0  0  0
 49 47  1  0  0  0  0
 49 48  2  0  0  0  0
 50 51  2  0  0  0  0
 51 56  1  0  0  0  0
 54 55  1  0  0  0  0
 55 52  1  0  0  0  0
 55 53  1  0  0  0  0
 56 54  2  0  0  0  0
 57 49  1  0  0  0  0
 57 58  1  0  0  0  0
 59 58  1  0  0  0  0
 60 61  1  0  0  0  0
 61 58  1  0  0  0  0
M  END
>  <MODEL>
2

>  <REMARK>
 VINA RESULT:      -5.8      2.952      7.462
  Name = 
  24 active torsions:
  status: ('A' for Active; 'I' for Inactive)
    1  A    between atoms: O_1  and  C_12
    2  A    between atoms: O_1  and  C_50
    3  A    between atoms: C_4  and  N_38
    4  A    between atoms: C_5  and  C_7
    5  A    between atoms: C_5  and  C_58
    6  A    between atoms: C_9  and  C_13
    7  A    between atoms: N_11  and  C_59
    8  A    between atoms: C_13  and  C_48
    9  A    between atoms: C_13  and  C_58
   10  A    between atoms: C_18  and  C_61
   11  A    between atoms: C_23  and  C_27
   12  A    between atoms: C_23  and  C_30
   13  A    between atoms: C_26  and  C_35
   14  A    between atoms: C_26  and  C_47
   15  A    between atoms: C_28  and  C_60
   16  A    between atoms: C_30  and  N_55
   17  A    between atoms: N_33  and  C_37
   18  A    between atoms: N_33  and  C_47
   19  A    between atoms: C_35  and  C_60
   20  A    between atoms: N_38  and  C_58
   21  A    between atoms: O_40  and  C_61
   22  A    between atoms: C_43  and  C_51
   23  A    between atoms: N_45  and  C_59
   24  A    between atoms: C_46  and  C_61
                            x       y       z     vdW  Elec       q    Type
                         _______ _______ _______ _____ _____    ______ ____

>  <TORSDO>
F 24

$$$$
=
 OpenBabel10222418463D

 61 65  0  0  1  0  0  0  0  0999 V2000
  188.2470  177.8410  141.1770 C   0  0  2  0  0  3  0  0  0  0  0  0
  189.0830  177.5290  142.4990 C   0  0  2  0  0  3  0  0  0  0  0  0
  189.9600  178.6730  142.8680 C   0  0  0  0  0  3  0  0  0  0  0  0
  191.1810  178.4710  143.0940 O   0  0  0  0  0  0  0  0  0  0  0  0
  189.7110  176.1810  142.6770 C   0  0  0  0  0  2  0  0  0  0  0  0
  188.8040  175.2460  143.1440 F   0  0  0  0  0  0  0  0  0  0  0  0
  186.7660  178.1830  141.2100 C   0  0  0  0  0  2  0  0  0  0  0  0
  186.3470  178.9310  142.5350 C   0  0  2  0  0  3  0  0  0  0  0  0
  185.6270  178.1840  143.5890 C   0  0  2  0  0  3  0  0  0  0  0  0
  184.7500  179.3870  143.5650 C   0  0  1  0  0  3  0  0  0  0  0  0
  185.3280  179.8340  142.3910 O   0  0  0  0  0  0  0  0  0  0  0  0
  183.0380  178.0890  144.4510 O   0  0  0  0  0  1  0  0  0  0  0  0
  183.3370  178.7240  143.2860 C   0  0  1  0  0  3  0  0  0  0  0  0
  182.3420  179.6890  142.9050 C   0  0  0  0  0  2  0  0  0  0  0  0
  180.4580  178.0380  141.4140 C   0  0  0  0  0  2  0  0  0  0  0  0
  180.4870  179.5290  141.5760 C   0  0  0  0  0  2  0  0  0  0  0  0
  181.9710  178.1840  141.2110 C   0  0  2  0  0  3  0  0  0  0  0  0
  181.9760  179.6580  141.4630 N   0  0  0  0  0  0  0  0  0  0  0  0
  182.3190  177.7520  139.8450 O   0  0  0  0  0  0  0  0  0  0  0  0
  181.2550  177.4710  136.3160 C   0  0  0  0  0  3  0  0  0  0  0  0
  181.8100  178.0760  138.6020 C   0  0  0  0  0  0  0  0  0  0  0  0
  181.5830  179.4390  138.2470 C   0  0  0  0  0  3  0  0  0  0  0  0
  181.1410  179.7650  136.9630 C   0  0  0  0  0  0  0  0  0  0  0  0
  180.9750  178.7770  135.9820 C   0  0  0  0  0  3  0  0  0  0  0  0
  181.6680  177.1430  137.5460 C   0  0  0  0  0  3  0  0  0  0  0  0
  180.6220  181.5330  135.5340 O   0  0  0  0  0  0  0  0  0  0  0  0
  180.9210  181.1490  136.6870 C   0  0  0  0  0  0  0  0  0  0  0  0
  181.0460  182.0280  137.7390 O   0  0  0  0  0  1  0  0  0  0  0  0
  186.2090  177.9330  145.0330 C   0  0  1  0  0  3  0  0  0  0  0  0
  188.5290  177.6890  146.1650 C   0  0  0  0  0  1  0  0  0  0  0  0
  187.5180  177.1850  145.2110 C   0  0  0  0  0  2  0  0  0  0  0  0
  185.4830  178.6560  147.0380 C   0  0  0  0  0  1  0  0  0  0  0  0
  186.1660  179.0190  145.8600 O   0  0  0  0  0  0  0  0  0  0  0  0
  188.5850  176.9350  140.0610 N   0  0  0  0  0  2  0  0  0  0  0  0
  191.1480  176.7720  136.0870 C   0  0  0  0  0  3  0  0  0  0  0  0
  189.4850  177.7010  139.1720 C   0  0  2  0  0  3  0  0  0  0  0  0
  193.2670  175.5420  135.8990 F   0  0  0  0  0  0  0  0  0  0  0  0
  192.1900  175.9690  136.6010 C   0  0  0  0  0  0  0  0  0  0  0  0
  189.0010  178.1680  136.7880 C   0  0  2  0  0  3  0  0  0  0  0  0
  191.1550  175.9600  138.7750 C   0  0  0  0  0  3  0  0  0  0  0  0
  190.1250  177.1880  136.9570 C   0  0  0  0  0  0  0  0  0  0  0  0
  192.1420  175.5420  137.9350 C   0  0  0  0  0  3  0  0  0  0  0  0
  188.7200  178.6320  138.2240 C   0  0  0  0  0  2  0  0  0  0  0  0
  190.1980  176.7850  138.2660 C   0  0  0  0  0  0  0  0  0  0  0  0
  187.0730  178.1750  135.3240 O   0  0  0  0  0  0  0  0  0  0  0  0
  187.7790  177.5190  136.0950 C   0  0  0  0  0  0  0  0  0  0  0  0
  187.3880  176.0780  136.2940 C   0  0  0  0  0  2  0  0  0  0  0  0
  186.2340  174.7720  134.6470 N   0  0  0  0  0  0  0  0  0  0  0  0
  187.3820  175.2150  135.0870 C   0  0  0  0  0  0  0  0  0  0  0  0
  184.2990  176.1540  134.9020 O   0  0  0  0  0  0  0  0  0  0  0  0
  184.9310  175.0090  135.0790 C   0  0  0  0  0  0  0  0  0  0  0  0
  183.1960  171.4660  136.9370 C   0  0  0  0  0  1  0  0  0  0  0  0
  181.1550  172.9310  137.1420 C   0  0  0  0  0  1  0  0  0  0  0  0
  183.2410  173.9860  136.4550 C   0  0  0  0  0  3  0  0  0  0  0  0
  182.5660  172.7850  136.8900 N   0  0  0  0  0  0  0  0  0  0  0  0
  184.3040  173.9250  135.7850 N   0  0  0  0  0  0  0  0  0  0  0  0
  188.6780  174.6050  134.5990 C   0  0  0  0  0  2  0  0  0  0  0  0
  188.9170  173.1680  134.8670 N   0  0  0  0  0  0  0  0  0  0  0  0
  190.3560  173.0370  135.0850 C   0  0  0  0  0  1  0  0  0  0  0  0
  187.5820  171.5640  136.0380 C   0  0  0  0  0  1  0  0  0  0  0  0
  188.4470  172.8000  136.2020 C   0  0  0  0  0  2  0  0  0  0  0  0
  1  7  1  1  0  0  0
  1  2  1  0  0  0  0
  2  5  1  6  0  0  0
  2  3  1  0  0  0  0
  3  4  2  0  0  0  0
  5  6  1  0  0  0  0
  8  7  1  6  0  0  0
  8  9  1  0  0  0  0
  9 29  1  1  0  0  0
 10 13  1  6  0  0  0
 10  9  1  0  0  0  0
 11  8  1  0  0  0  0
 11 10  1  0  0  0  0
 13 12  1  1  0  0  0
 14 13  1  0  0  0  0
 15 16  1  0  0  0  0
 17 19  1  6  0  0  0
 17 15  1  0  0  0  0
 17 18  1  0  0  0  0
 18 16  1  0  0  0  0
 18 14  1  0  0  0  0
 20 25  1  0  0  0  0
 21 19  1  0  0  0  0
 22 21  1  0  0  0  0
 23 22  2  0  0  0  0
 24 20  2  0  0  0  0
 24 23  1  0  0  0  0
 25 21  2  0  0  0  0
 26 27  2  0  0  0  0
 27 23  1  0  0  0  0
 27 28  1  0  0  0  0
 29 31  1  6  0  0  0
 29 33  1  0  0  0  0
 31 30  1  0  0  0  0
 33 32  1  0  0  0  0
 34  1  1  0  0  0  0
 35 38  2  0  0  0  0
 35 41  1  0  0  0  0
 36 34  1  1  0  0  0
 37 38  1  0  0  0  0
 38 42  1  0  0  0  0
 39 46  1  1  0  0  0
 39 41  1  0  0  0  0
 39 43  1  0  0  0  0
 41 44  2  0  0  0  0
 42 40  2  0  0  0  0
 43 36  1  0  0  0  0
 44 40  1  0  0  0  0
 44 36  1  0  0  0  0
 45 46  2  0  0  0  0
 46 47  1  0  0  0  0
 48 51  1  0  0  0  0
 48 49  2  0  0  0  0
 49 47  1  0  0  0  0
 50 51  2  0  0  0  0
 51 56  1  0  0  0  0
 54 55  1  0  0  0  0
 55 52  1  0  0  0  0
 55 53  1  0  0  0  0
 56 54  2  0  0  0  0
 57 58  1  0  0  0  0
 57 49  1  0  0  0  0
 58 59  1  0  0  0  0
 58 61  1  0  0  0  0
 60 61  1  0  0  0  0
M  END
>  <MODEL>
3

>  <REMARK>
 VINA RESULT:      -5.3      3.102      8.383
  Name = 
  24 active torsions:
  status: ('A' for Active; 'I' for Inactive)
    1  A    between atoms: O_1  and  C_12
    2  A    between atoms: O_1  and  C_50
    3  A    between atoms: C_4  and  N_38
    4  A    between atoms: C_5  and  C_7
    5  A    between atoms: C_5  and  C_58
    6  A    between atoms: C_9  and  C_13
    7  A    between atoms: N_11  and  C_59
    8  A    between atoms: C_13  and  C_48
    9  A    between atoms: C_13  and  C_58
   10  A    between atoms: C_18  and  C_61
   11  A    between atoms: C_23  and  C_27
   12  A    between atoms: C_23  and  C_30
   13  A    between atoms: C_26  and  C_35
   14  A    between atoms: C_26  and  C_47
   15  A    between atoms: C_28  and  C_60
   16  A    between atoms: C_30  and  N_55
   17  A    between atoms: N_33  and  C_37
   18  A    between atoms: N_33  and  C_47
   19  A    between atoms: C_35  and  C_60
   20  A    between atoms: N_38  and  C_58
   21  A    between atoms: O_40  and  C_61
   22  A    between atoms: C_43  and  C_51
   23  A    between atoms: N_45  and  C_59
   24  A    between atoms: C_46  and  C_61
                            x       y       z     vdW  Elec       q    Type
                         _______ _______ _______ _____ _____    ______ ____

>  <TORSDO>
F 24

$$$$
=
 OpenBabel10222418463D

 61 65  0  0  1  0  0  0  0  0999 V2000
  183.1280  177.9620  139.0640 C   0  0  2  0  0  3  0  0  0  0  0  0
  181.7600  178.7810  139.0250 C   0  0  2  0  0  3  0  0  0  0  0  0
  181.9710  180.1670  138.5290 C   0  0  0  0  0  3  0  0  0  0  0  0
  183.0260  180.7810  138.8360 O   0  0  0  0  0  0  0  0  0  0  0  0
  180.7970  178.6680  140.1680 C   0  0  0  0  0  2  0  0  0  0  0  0
  180.6280  179.8740  140.8230 F   0  0  0  0  0  0  0  0  0  0  0  0
  183.4950  176.9350  138.0050 C   0  0  0  0  0  2  0  0  0  0  0  0
  182.2920  176.6080  137.0360 C   0  0  2  0  0  3  0  0  0  0  0  0
  181.3700  175.5030  137.3750 C   0  0  2  0  0  3  0  0  0  0  0  0
  181.5910  175.1450  135.9480 C   0  0  1  0  0  3  0  0  0  0  0  0
  182.6480  176.0300  135.8470 O   0  0  0  0  0  0  0  0  0  0  0  0
  180.9720  172.9090  136.0840 O   0  0  0  0  0  1  0  0  0  0  0  0
  182.1110  173.6530  136.0870 C   0  0  1  0  0  3  0  0  0  0  0  0
  183.0200  173.2870  135.0360 C   0  0  0  0  0  2  0  0  0  0  0  0
  184.8160  173.7600  137.2820 C   0  0  0  0  0  2  0  0  0  0  0  0
  183.9820  172.5510  136.9760 C   0  0  0  0  0  2  0  0  0  0  0  0
  185.1460  173.7220  135.7860 C   0  0  2  0  0  3  0  0  0  0  0  0
  184.2380  172.5690  135.4990 N   0  0  0  0  0  0  0  0  0  0  0  0
  186.5900  173.4760  135.6150 O   0  0  0  0  0  0  0  0  0  0  0  0
  190.0740  174.6790  135.3330 C   0  0  0  0  0  3  0  0  0  0  0  0
  187.6790  174.3210  135.5210 C   0  0  0  0  0  0  0  0  0  0  0  0
  187.5400  175.7130  135.8070 C   0  0  0  0  0  3  0  0  0  0  0  0
  188.6600  176.5480  135.7840 C   0  0  0  0  0  0  0  0  0  0  0  0
  189.9430  176.0330  135.5480 C   0  0  0  0  0  3  0  0  0  0  0  0
  189.0090  173.8690  135.3400 C   0  0  0  0  0  3  0  0  0  0  0  0
  187.3040  178.4390  135.9300 O   0  0  0  0  0  0  0  0  0  0  0  0
  188.4400  177.9300  136.0640 C   0  0  0  0  0  0  0  0  0  0  0  0
  189.5230  178.6670  136.4890 O   0  0  0  0  0  1  0  0  0  0  0  0
  179.8370  175.7070  137.6820 C   0  0  1  0  0  3  0  0  0  0  0  0
  179.3150  177.7820  136.2170 C   0  0  0  0  0  1  0  0  0  0  0  0
  178.9470  176.4290  136.6860 C   0  0  0  0  0  2  0  0  0  0  0  0
  179.9740  174.0710  139.2240 C   0  0  0  0  0  1  0  0  0  0  0  0
  179.2030  174.5980  138.1680 O   0  0  0  0  0  0  0  0  0  0  0  0
  183.4860  177.5130  140.4240 N   0  0  0  0  0  2  0  0  0  0  0  0
  185.4060  179.1160  144.4400 C   0  0  0  0  0  3  0  0  0  0  0  0
  183.9550  178.7170  141.1420 C   0  0  2  0  0  3  0  0  0  0  0  0
  184.1670  179.2780  146.5560 F   0  0  0  0  0  0  0  0  0  0  0  0
  184.2470  178.9820  145.2370 C   0  0  0  0  0  0  0  0  0  0  0  0
  186.2800  179.0350  141.9350 C   0  0  2  0  0  3  0  0  0  0  0  0
  182.9850  178.2250  143.3310 C   0  0  0  0  0  3  0  0  0  0  0  0
  185.3180  178.8270  143.0670 C   0  0  0  0  0  0  0  0  0  0  0  0
  183.0660  178.4910  144.6640 C   0  0  0  0  0  3  0  0  0  0  0  0
  185.3620  179.1470  140.7090 C   0  0  0  0  0  2  0  0  0  0  0  0
  184.1020  178.4250  142.5760 C   0  0  0  0  0  0  0  0  0  0  0  0
  187.2370  176.9140  142.6040 O   0  0  0  0  0  0  0  0  0  0  0  0
  187.3050  177.8790  141.8380 C   0  0  0  0  0  0  0  0  0  0  0  0
  188.4140  177.8450  140.8200 C   0  0  0  0  0  2  0  0  0  0  0  0
  190.6400  176.9740  140.6190 N   0  0  0  0  0  0  0  0  0  0  0  0
  189.7910  177.6590  141.3390 C   0  0  0  0  0  0  0  0  0  0  0  0
  189.4170  175.8050  138.9280 O   0  0  0  0  0  0  0  0  0  0  0  0
  190.5160  176.3960  139.3560 C   0  0  0  0  0  0  0  0  0  0  0  0
  193.8370  176.5810  136.5360 C   0  0  0  0  0  1  0  0  0  0  0  0
  194.7420  174.6840  137.9280 C   0  0  0  0  0  1  0  0  0  0  0  0
  192.7930  175.8780  138.7720 C   0  0  0  0  0  3  0  0  0  0  0  0
  193.8100  175.7690  137.7520 N   0  0  0  0  0  0  0  0  0  0  0  0
  191.6950  176.4420  138.5340 N   0  0  0  0  0  0  0  0  0  0  0  0
  190.0880  177.9620  142.7920 C   0  0  0  0  0  2  0  0  0  0  0  0
  191.4970  177.8960  143.2440 N   0  0  0  0  0  0  0  0  0  0  0  0
  191.7510  179.1540  143.9440 C   0  0  0  0  0  1  0  0  0  0  0  0
  191.5820  175.5700  143.7990 C   0  0  0  0  0  1  0  0  0  0  0  0
  191.6410  176.9740  144.3710 C   0  0  0  0  0  2  0  0  0  0  0  0
  1  7  1  6  0  0  0
  1 34  1  0  0  0  0
  2  3  1  1  0  0  0
  2  1  1  0  0  0  0
  2  5  1  0  0  0  0
  3  4  2  0  0  0  0
  5  6  1  0  0  0  0
  8  9  1  0  0  0  0
  8  7  1  1  0  0  0
  9 29  1  6  0  0  0
 10 13  1  1  0  0  0
 10  9  1  0  0  0  0
 11 10  1  0  0  0  0
 11  8  1  0  0  0  0
 13 12  1  6  0  0  0
 14 18  1  0  0  0  0
 14 13  1  0  0  0  0
 16 15  1  0  0  0  0
 17 19  1  1  0  0  0
 17 15  1  0  0  0  0
 18 17  1  0  0  0  0
 18 16  1  0  0  0  0
 20 25  2  0  0  0  0
 20 24  1  0  0  0  0
 21 19  1  0  0  0  0
 21 22  2  0  0  0  0
 23 22  1  0  0  0  0
 23 27  1  0  0  0  0
 24 23  2  0  0  0  0
 25 21  1  0  0  0  0
 26 27  2  0  0  0  0
 27 28  1  0  0  0  0
 29 31  1  6  0  0  0
 29 33  1  0  0  0  0
 30 31  1  0  0  0  0
 33 32  1  0  0  0  0
 35 38  1  0  0  0  0
 36 34  1  6  0  0  0
 36 44  1  0  0  0  0
 38 37  1  0  0  0  0
 39 46  1  6  0  0  0
 39 41  1  0  0  0  0
 40 42  1  0  0  0  0
 41 35  2  0  0  0  0
 42 38  2  0  0  0  0
 43 36  1  0  0  0  0
 43 39  1  0  0  0  0
 44 41  1  0  0  0  0
 44 40  2  0  0  0  0
 46 45  2  0  0  0  0
 47 49  1  0  0  0  0
 47 46  1  0  0  0  0
 48 49  2  0  0  0  0
 49 57  1  0  0  0  0
 50 51  2  0  0  0  0
 51 48  1  0  0  0  0
 52 55  1  0  0  0  0
 55 53  1  0  0  0  0
 55 54  1  0  0  0  0
 56 54  2  0  0  0  0
 56 51  1  0  0  0  0
 57 58  1  0  0  0  0
 58 59  1  0  0  0  0
 58 61  1  0  0  0  0
 60 61  1  0  0  0  0
M  END
>  <MODEL>
4

>  <REMARK>
 VINA RESULT:      -5.3      2.797      8.698
  Name = 
  24 active torsions:
  status: ('A' for Active; 'I' for Inactive)
    1  A    between atoms: O_1  and  C_12
    2  A    between atoms: O_1  and  C_50
    3  A    between atoms: C_4  and  N_38
    4  A    between atoms: C_5  and  C_7
    5  A    between atoms: C_5  and  C_58
    6  A    between atoms: C_9  and  C_13
    7  A    between atoms: N_11  and  C_59
    8  A    between atoms: C_13  and  C_48
    9  A    between atoms: C_13  and  C_58
   10  A    between atoms: C_18  and  C_61
   11  A    between atoms: C_23  and  C_27
   12  A    between atoms: C_23  and  C_30
   13  A    between atoms: C_26  and  C_35
   14  A    between atoms: C_26  and  C_47
   15  A    between atoms: C_28  and  C_60
   16  A    between atoms: C_30  and  N_55
   17  A    between atoms: N_33  and  C_37
   18  A    between atoms: N_33  and  C_47
   19  A    between atoms: C_35  and  C_60
   20  A    between atoms: N_38  and  C_58
   21  A    between atoms: O_40  and  C_61
   22  A    between atoms: C_43  and  C_51
   23  A    between atoms: N_45  and  C_59
   24  A    between atoms: C_46  and  C_61
                            x       y       z     vdW  Elec       q    Type
                         _______ _______ _______ _____ _____    ______ ____

>  <TORSDO>
F 24

$$$$
=
 OpenBabel10222418463D

 61 65  0  0  1  0  0  0  0  0999 V2000
  191.0470  176.3710  139.5320 C   0  0  2  0  0  3  0  0  0  0  0  0
  191.8000  177.4340  140.4530 C   0  0  2  0  0  3  0  0  0  0  0  0
  193.1510  177.7530  139.9190 C   0  0  0  0  0  3  0  0  0  0  0  0
  194.1050  176.9600  140.1320 O   0  0  0  0  0  0  0  0  0  0  0  0
  191.7340  177.3010  141.9430 C   0  0  0  0  0  2  0  0  0  0  0  0
  191.8280  178.5260  142.5770 F   0  0  0  0  0  0  0  0  0  0  0  0
  191.3820  176.1820  138.0610 C   0  0  0  0  0  2  0  0  0  0  0  0
  191.8380  174.7090  137.7280 C   0  0  2  0  0  3  0  0  0  0  0  0
  192.3060  174.3890  136.3620 C   0  0  2  0  0  3  0  0  0  0  0  0
  191.3890  173.2280  136.5350 C   0  0  1  0  0  3  0  0  0  0  0  0
  190.8250  173.7910  137.6650 O   0  0  0  0  0  0  0  0  0  0  0  0
  190.5710  172.2300  134.6020 O   0  0  0  0  0  1  0  0  0  0  0  0
  190.4390  173.4030  135.2770 C   0  0  1  0  0  3  0  0  0  0  0  0
  189.0790  173.6840  135.6500 C   0  0  0  0  0  2  0  0  0  0  0  0
  186.6160  172.5340  134.5980 C   0  0  0  0  0  2  0  0  0  0  0  0
  187.9790  171.9160  134.7030 C   0  0  0  0  0  2  0  0  0  0  0  0
  186.9050  173.0420  136.0150 C   0  0  2  0  0  3  0  0  0  0  0  0
  188.2940  172.4870  136.0520 N   0  0  0  0  0  0  0  0  0  0  0  0
  185.9350  172.4430  136.9510 O   0  0  0  0  0  0  0  0  0  0  0  0
  182.3990  171.4100  136.6400 C   0  0  0  0  0  3  0  0  0  0  0  0
  184.5550  172.4670  137.0100 C   0  0  0  0  0  0  0  0  0  0  0  0
  183.8620  173.6940  137.2380 C   0  0  0  0  0  3  0  0  0  0  0  0
  182.4660  173.7240  137.2210 C   0  0  0  0  0  0  0  0  0  0  0  0
  181.7200  172.5750  136.9170 C   0  0  0  0  0  3  0  0  0  0  0  0
  183.7370  171.3640  136.6650 C   0  0  0  0  0  3  0  0  0  0  0  0
  181.2670  175.2090  138.5610 O   0  0  0  0  0  1  0  0  0  0  0  0
  181.8440  174.9840  137.4730 C   0  0  0  0  0  0  0  0  0  0  0  0
  181.9130  175.9310  136.4760 O   0  0  0  0  0  0  0  0  0  0  0  0
  193.7710  173.9130  136.0300 C   0  0  1  0  0  3  0  0  0  0  0  0
  196.0810  174.3960  134.9540 C   0  0  0  0  0  1  0  0  0  0  0  0
  194.7840  174.8920  135.4620 C   0  0  0  0  0  2  0  0  0  0  0  0
  194.8030  173.9800  138.0310 C   0  0  0  0  0  1  0  0  0  0  0  0
  194.3500  173.1380  136.9950 O   0  0  0  0  0  0  0  0  0  0  0  0
  189.5920  176.3280  139.7830 N   0  0  0  0  0  2  0  0  0  0  0  0
  185.6370  178.2930  138.0880 C   0  0  0  0  0  3  0  0  0  0  0  0
  189.0270  177.5180  139.1130 C   0  0  2  0  0  3  0  0  0  0  0  0
  184.5490  177.5580  136.0100 F   0  0  0  0  0  0  0  0  0  0  0  0
  185.5370  177.4840  136.9340 C   0  0  0  0  0  0  0  0  0  0  0  0
  187.2520  178.9420  140.0920 C   0  0  2  0  0  3  0  0  0  0  0  0
  187.5940  176.3680  137.5000 C   0  0  0  0  0  3  0  0  0  0  0  0
  186.7570  178.1410  138.9230 C   0  0  0  0  0  0  0  0  0  0  0  0
  186.5050  176.5000  136.6930 C   0  0  0  0  0  3  0  0  0  0  0  0
  188.7640  178.6710  140.0880 C   0  0  0  0  0  2  0  0  0  0  0  0
  187.6950  177.2050  138.5690 C   0  0  0  0  0  0  0  0  0  0  0  0
  186.8640  177.4790  141.9810 O   0  0  0  0  0  0  0  0  0  0  0  0
  186.5510  178.5250  141.4070 C   0  0  0  0  0  0  0  0  0  0  0  0
  185.4810  179.3540  142.0680 C   0  0  0  0  0  2  0  0  0  0  0  0
  183.4720  178.0780  142.3690 N   0  0  0  0  0  0  0  0  0  0  0  0
  184.5150  178.6310  142.9310 C   0  0  0  0  0  0  0  0  0  0  0  0
  183.4940  177.0100  140.2290 O   0  0  0  0  0  0  0  0  0  0  0  0
  183.0950  177.9790  141.0310 C   0  0  0  0  0  0  0  0  0  0  0  0
  180.2430  181.0300  139.7750 C   0  0  0  0  0  1  0  0  0  0  0  0
  181.2910  180.6610  137.5120 C   0  0  0  0  0  1  0  0  0  0  0  0
  182.3700  179.6340  139.4400 C   0  0  0  0  0  3  0  0  0  0  0  0
  181.3160  180.4870  138.9420 N   0  0  0  0  0  0  0  0  0  0  0  0
  182.2560  179.0400  140.5420 N   0  0  0  0  0  0  0  0  0  0  0  0
  184.5650  178.8230  144.4310 C   0  0  0  0  0  2  0  0  0  0  0  0
  185.8910  178.8120  145.0920 N   0  0  0  0  0  0  0  0  0  0  0  0
  185.6270  178.9930  146.5180 C   0  0  0  0  0  1  0  0  0  0  0  0
  187.9390  177.6000  145.3470 C   0  0  0  0  0  1  0  0  0  0  0  0
  186.4430  177.4580  145.1320 C   0  0  0  0  0  2  0  0  0  0  0  0
  1  7  1  6  0  0  0
  1 34  1  0  0  0  0
  1  2  1  0  0  0  0
  2  3  1  6  0  0  0
  2  5  1  0  0  0  0
  3  4  2  0  0  0  0
  5  6  1  0  0  0  0
  8  7  1  6  0  0  0
  9 29  1  1  0  0  0
  9 10  1  0  0  0  0
  9  8  1  0  0  0  0
 10 13  1  6  0  0  0
 10 11  1  0  0  0  0
 11  8  1  0  0  0  0
 13 12  1  1  0  0  0
 13 14  1  0  0  0  0
 14 18  1  0  0  0  0
 15 16  1  0  0  0  0
 15 17  1  0  0  0  0
 16 18  1  0  0  0  0
 17 18  1  0  0  0  0
 17 19  1  1  0  0  0
 19 21  1  0  0  0  0
 20 25  2  0  0  0  0
 20 24  1  0  0  0  0
 21 22  2  0  0  0  0
 23 22  1  0  0  0  0
 23 27  1  0  0  0  0
 24 23  2  0  0  0  0
 25 21  1  0  0  0  0
 27 26  1  0  0  0  0
 28 27  2  0  0  0  0
 29 31  1  1  0  0  0
 29 33  1  0  0  0  0
 30 31  1  0  0  0  0
 33 32  1  0  0  0  0
 35 41  1  0  0  0  0
 36 34  1  1  0  0  0
 36 43  1  0  0  0  0
 37 38  1  0  0  0  0
 38 35  2  0  0  0  0
 39 46  1  1  0  0  0
 40 44  1  0  0  0  0
 41 39  1  0  0  0  0
 42 38  1  0  0  0  0
 42 40  2  0  0  0  0
 43 39  1  0  0  0  0
 44 41  2  0  0  0  0
 44 36  1  0  0  0  0
 46 45  2  0  0  0  0
 46 47  1  0  0  0  0
 47 49  1  0  0  0  0
 48 49  2  0  0  0  0
 49 57  1  0  0  0  0
 50 51  2  0  0  0  0
 51 48  1  0  0  0  0
 53 55  1  0  0  0  0
 54 56  2  0  0  0  0
 55 54  1  0  0  0  0
 55 52  1  0  0  0  0
 56 51  1  0  0  0  0
 57 58  1  0  0  0  0
 58 61  1  0  0  0  0
 58 59  1  0  0  0  0
 61 60  1  0  0  0  0
M  END
>  <MODEL>
5

>  <REMARK>
 VINA RESULT:      -5.2      2.567      8.706
  Name = 
  24 active torsions:
  status: ('A' for Active; 'I' for Inactive)
    1  A    between atoms: O_1  and  C_12
    2  A    between atoms: O_1  and  C_50
    3  A    between atoms: C_4  and  N_38
    4  A    between atoms: C_5  and  C_7
    5  A    between atoms: C_5  and  C_58
    6  A    between atoms: C_9  and  C_13
    7  A    between atoms: N_11  and  C_59
    8  A    between atoms: C_13  and  C_48
    9  A    between atoms: C_13  and  C_58
   10  A    between atoms: C_18  and  C_61
   11  A    between atoms: C_23  and  C_27
   12  A    between atoms: C_23  and  C_30
   13  A    between atoms: C_26  and  C_35
   14  A    between atoms: C_26  and  C_47
   15  A    between atoms: C_28  and  C_60
   16  A    between atoms: C_30  and  N_55
   17  A    between atoms: N_33  and  C_37
   18  A    between atoms: N_33  and  C_47
   19  A    between atoms: C_35  and  C_60
   20  A    between atoms: N_38  and  C_58
   21  A    between atoms: O_40  and  C_61
   22  A    between atoms: C_43  and  C_51
   23  A    between atoms: N_45  and  C_59
   24  A    between atoms: C_46  and  C_61
                            x       y       z     vdW  Elec       q    Type
                         _______ _______ _______ _____ _____    ______ ____

>  <TORSDO>
F 24

$$$$
=
 OpenBabel10222418463D

 61 65  0  0  1  0  0  0  0  0999 V2000
  189.1460  178.1790  141.8610 C   0  0  2  0  0  3  0  0  0  0  0  0
  190.1300  177.4740  142.9000 C   0  0  2  0  0  3  0  0  0  0  0  0
  191.3310  178.3120  143.1630 C   0  0  0  0  0  3  0  0  0  0  0  0
  191.3100  179.1470  144.1050 O   0  0  0  0  0  0  0  0  0  0  0  0
  190.4090  176.0070  142.7770 C   0  0  0  0  0  2  0  0  0  0  0  0
  189.3310  175.2400  143.1780 F   0  0  0  0  0  0  0  0  0  0  0  0
  187.9380  178.9900  142.3030 C   0  0  0  0  0  2  0  0  0  0  0  0
  186.7490  178.0820  142.8030 C   0  0  2  0  0  3  0  0  0  0  0  0
  185.4330  178.7000  143.0750 C   0  0  2  0  0  3  0  0  0  0  0  0
  185.5350  177.8950  144.3230 C   0  0  1  0  0  3  0  0  0  0  0  0
  186.8710  177.6260  144.0880 O   0  0  0  0  0  0  0  0  0  0  0  0
  184.1970  178.7050  146.0420 O   0  0  0  0  0  1  0  0  0  0  0  0
  185.3670  179.0220  145.4260 C   0  0  1  0  0  3  0  0  0  0  0  0
  186.4810  179.0740  146.3340 C   0  0  0  0  0  2  0  0  0  0  0  0
  188.4850  178.3090  148.3060 C   0  0  0  0  0  2  0  0  0  0  0  0
  187.0210  177.9870  148.2720 C   0  0  0  0  0  2  0  0  0  0  0  0
  188.4380  177.9730  146.8110 C   0  0  2  0  0  3  0  0  0  0  0  0
  186.9600  177.7440  146.7940 N   0  0  0  0  0  0  0  0  0  0  0  0
  189.2870  176.7960  146.5530 O   0  0  0  0  0  0  0  0  0  0  0  0
  192.5740  175.1070  146.6380 C   0  0  0  0  0  3  0  0  0  0  0  0
  190.5950  176.4950  146.8790 C   0  0  0  0  0  0  0  0  0  0  0  0
  191.2150  177.1020  148.0120 C   0  0  0  0  0  3  0  0  0  0  0  0
  192.5120  176.7360  148.3810 C   0  0  0  0  0  0  0  0  0  0  0  0
  193.2040  175.7280  147.6940 C   0  0  0  0  0  3  0  0  0  0  0  0
  191.3360  175.4550  146.2670 C   0  0  0  0  0  3  0  0  0  0  0  0
  192.6170  178.4970  149.9050 O   0  0  0  0  0  0  0  0  0  0  0  0
  193.0710  177.3980  149.5160 C   0  0  0  0  0  0  0  0  0  0  0  0
  194.1180  176.7730  150.1570 O   0  0  0  0  0  1  0  0  0  0  0  0
  184.1200  178.3490  142.2760 C   0  0  1  0  0  3  0  0  0  0  0  0
  181.9980  178.7820  143.7010 C   0  0  0  0  0  1  0  0  0  0  0  0
  182.8380  179.1200  142.5320 C   0  0  0  0  0  2  0  0  0  0  0  0
  183.3230  178.9060  140.2440 C   0  0  0  0  0  1  0  0  0  0  0  0
  184.3040  178.1660  140.9340 O   0  0  0  0  0  0  0  0  0  0  0  0
  188.8490  177.3300  140.6900 N   0  0  0  0  0  2  0  0  0  0  0  0
  191.1640  176.6070  136.6290 C   0  0  0  0  0  3  0  0  0  0  0  0
  189.4940  177.9880  139.5340 C   0  0  2  0  0  3  0  0  0  0  0  0
  193.5020  175.8550  136.5240 F   0  0  0  0  0  0  0  0  0  0  0  0
  192.3930  176.2220  137.2100 C   0  0  0  0  0  0  0  0  0  0  0  0
  188.7890  177.6520  137.1830 C   0  0  2  0  0  3  0  0  0  0  0  0
  191.5050  176.6040  139.4150 C   0  0  0  0  0  3  0  0  0  0  0  0
  190.1200  177.0230  137.4720 C   0  0  0  0  0  0  0  0  0  0  0  0
  192.5170  176.1870  138.6050 C   0  0  0  0  0  3  0  0  0  0  0  0
  188.4820  178.4310  138.4710 C   0  0  0  0  0  2  0  0  0  0  0  0
  190.3540  177.0290  138.8230 C   0  0  0  0  0  0  0  0  0  0  0  0
  187.2900  175.8210  137.6950 O   0  0  0  0  0  0  0  0  0  0  0  0
  187.7200  176.5900  136.8310 C   0  0  0  0  0  0  0  0  0  0  0  0
  187.1330  176.4380  135.4520 C   0  0  0  0  0  2  0  0  0  0  0  0
  185.5620  174.6570  135.1160 N   0  0  0  0  0  0  0  0  0  0  0  0
  186.8020  175.0590  135.0160 C   0  0  0  0  0  0  0  0  0  0  0  0
  184.2730  176.6380  135.4760 O   0  0  0  0  0  0  0  0  0  0  0  0
  184.4090  175.3270  135.5220 C   0  0  0  0  0  0  0  0  0  0  0  0
  181.2320  172.6030  136.7470 C   0  0  0  0  0  1  0  0  0  0  0  0
  180.1970  174.7000  137.6870 C   0  0  0  0  0  1  0  0  0  0  0  0
  182.4980  174.8300  136.8980 C   0  0  0  0  0  3  0  0  0  0  0  0
  181.3370  174.0060  137.1450 N   0  0  0  0  0  0  0  0  0  0  0  0
  183.3600  174.4960  136.0460 N   0  0  0  0  0  0  0  0  0  0  0  0
  187.9160  174.0600  134.7900 C   0  0  0  0  0  2  0  0  0  0  0  0
  187.5510  172.6340  134.6250 N   0  0  0  0  0  0  0  0  0  0  0  0
  188.8150  171.9000  134.5970 C   0  0  0  0  0  1  0  0  0  0  0  0
  185.8140  171.2230  135.4720 C   0  0  0  0  0  1  0  0  0  0  0  0
  186.9970  172.0900  135.8640 C   0  0  0  0  0  2  0  0  0  0  0  0
  1  7  1  1  0  0  0
  1  2  1  0  0  0  0
  2  5  1  6  0  0  0
  2  3  1  0  0  0  0
  3  4  2  0  0  0  0
  5  6  1  0  0  0  0
  8  7  1  1  0  0  0
  8  9  1  0  0  0  0
  8 11  1  0  0  0  0
  9 29  1  6  0  0  0
  9 10  1  0  0  0  0
 10 13  1  1  0  0  0
 11 10  1  0  0  0  0
 13 12  1  1  0  0  0
 13 14  1  0  0  0  0
 14 18  1  0  0  0  0
 16 15  1  0  0  0  0
 17 19  1  1  0  0  0
 17 15  1  0  0  0  0
 18 17  1  0  0  0  0
 18 16  1  0  0  0  0
 19 21  1  0  0  0  0
 20 24  1  0  0  0  0
 21 22  2  0  0  0  0
 22 23  1  0  0  0  0
 23 27  1  0  0  0  0
 24 23  2  0  0  0  0
 25 20  2  0  0  0  0
 25 21  1  0  0  0  0
 27 26  2  0  0  0  0
 27 28  1  0  0  0  0
 29 31  1  6  0  0  0
 31 30  1  0  0  0  0
 32 33  1  0  0  0  0
 33 29  1  0  0  0  0
 34  1  1  0  0  0  0
 35 38  2  0  0  0  0
 35 41  1  0  0  0  0
 36 34  1  1  0  0  0
 37 38  1  0  0  0  0
 38 42  1  0  0  0  0
 39 46  1  1  0  0  0
 39 41  1  0  0  0  0
 39 43  1  0  0  0  0
 41 44  2  0  0  0  0
 42 40  2  0  0  0  0
 43 36  1  0  0  0  0
 44 40  1  0  0  0  0
 44 36  1  0  0  0  0
 46 45  2  0  0  0  0
 47 46  1  0  0  0  0
 48 51  1  0  0  0  0
 49 48  2  0  0  0  0
 49 47  1  0  0  0  0
 50 51  2  0  0  0  0
 51 56  1  0  0  0  0
 52 55  1  0  0  0  0
 54 55  1  0  0  0  0
 55 53  1  0  0  0  0
 56 54  2  0  0  0  0
 57 49  1  0  0  0  0
 58 57  1  0  0  0  0
 58 61  1  0  0  0  0
 59 58  1  0  0  0  0
 60 61  1  0  0  0  0
M  END
>  <MODEL>
6

>  <REMARK>
 VINA RESULT:      -5.0      3.146      7.653
  Name = 
  24 active torsions:
  status: ('A' for Active; 'I' for Inactive)
    1  A    between atoms: O_1  and  C_12
    2  A    between atoms: O_1  and  C_50
    3  A    between atoms: C_4  and  N_38
    4  A    between atoms: C_5  and  C_7
    5  A    between atoms: C_5  and  C_58
    6  A    between atoms: C_9  and  C_13
    7  A    between atoms: N_11  and  C_59
    8  A    between atoms: C_13  and  C_48
    9  A    between atoms: C_13  and  C_58
   10  A    between atoms: C_18  and  C_61
   11  A    between atoms: C_23  and  C_27
   12  A    between atoms: C_23  and  C_30
   13  A    between atoms: C_26  and  C_35
   14  A    between atoms: C_26  and  C_47
   15  A    between atoms: C_28  and  C_60
   16  A    between atoms: C_30  and  N_55
   17  A    between atoms: N_33  and  C_37
   18  A    between atoms: N_33  and  C_47
   19  A    between atoms: C_35  and  C_60
   20  A    between atoms: N_38  and  C_58
   21  A    between atoms: O_40  and  C_61
   22  A    between atoms: C_43  and  C_51
   23  A    between atoms: N_45  and  C_59
   24  A    between atoms: C_46  and  C_61
                            x       y       z     vdW  Elec       q    Type
                         _______ _______ _______ _____ _____    ______ ____

>  <TORSDO>
F 24

$$$$
=
 OpenBabel10222418463D

 61 65  0  0  1  0  0  0  0  0999 V2000
  191.1100  176.6640  139.9940 C   0  0  2  0  0  3  0  0  0  0  0  0
  192.0670  177.6610  140.7910 C   0  0  2  0  0  3  0  0  0  0  0  0
  193.3360  177.9010  140.0520 C   0  0  0  0  0  3  0  0  0  0  0  0
  194.1890  176.9790  139.9710 O   0  0  0  0  0  0  0  0  0  0  0  0
  192.2280  177.5070  142.2720 C   0  0  0  0  0  2  0  0  0  0  0  0
  191.8380  176.2530  142.7070 F   0  0  0  0  0  0  0  0  0  0  0  0
  190.9110  176.7520  138.4890 C   0  0  0  0  0  2  0  0  0  0  0  0
  191.6860  175.6210  137.7090 C   0  0  2  0  0  3  0  0  0  0  0  0
  191.7660  175.6860  136.2330 C   0  0  2  0  0  3  0  0  0  0  0  0
  191.3820  174.2520  136.3480 C   0  0  1  0  0  3  0  0  0  0  0  0
  191.0620  174.4030  137.6850 O   0  0  0  0  0  0  0  0  0  0  0  0
  190.2660  173.1410  134.6390 O   0  0  0  0  0  1  0  0  0  0  0  0
  190.0750  174.2160  135.4510 C   0  0  1  0  0  3  0  0  0  0  0  0
  188.8730  174.1210  136.2330 C   0  0  0  0  0  2  0  0  0  0  0  0
  186.1700  174.9330  136.9610 C   0  0  0  0  0  2  0  0  0  0  0  0
  187.0900  175.5210  135.9320 C   0  0  0  0  0  2  0  0  0  0  0  0
  186.6450  173.5890  136.3960 C   0  0  2  0  0  3  0  0  0  0  0  0
  187.6170  174.2060  135.4410 N   0  0  0  0  0  0  0  0  0  0  0  0
  185.4970  172.8830  135.7980 O   0  0  0  0  0  0  0  0  0  0  0  0
  182.3870  171.5270  137.2650 C   0  0  0  0  0  3  0  0  0  0  0  0
  184.1740  172.7590  136.1750 C   0  0  0  0  0  0  0  0  0  0  0  0
  183.1780  173.6090  135.6070 C   0  0  0  0  0  3  0  0  0  0  0  0
  181.8320  173.4280  135.9350 C   0  0  0  0  0  0  0  0  0  0  0  0
  181.4250  172.3770  136.7700 C   0  0  0  0  0  3  0  0  0  0  0  0
  183.6820  171.6950  136.9690 C   0  0  0  0  0  3  0  0  0  0  0  0
  179.9780  173.9010  134.6020 O   0  0  0  0  0  0  0  0  0  0  0  0
  180.8960  174.3270  135.3390 C   0  0  0  0  0  0  0  0  0  0  0  0
  181.0470  175.6670  135.6150 O   0  0  0  0  0  1  0  0  0  0  0  0
  193.1170  175.8520  135.4380 C   0  0  1  0  0  3  0  0  0  0  0  0
  195.3000  177.1910  135.0290 C   0  0  0  0  0  1  0  0  0  0  0  0
  194.1690  176.8380  135.9140 C   0  0  0  0  0  2  0  0  0  0  0  0
  194.9970  174.6250  135.6190 C   0  0  0  0  0  1  0  0  0  0  0  0
  193.7040  174.6760  135.0620 O   0  0  0  0  0  0  0  0  0  0  0  0
  189.8470  176.3930  140.7090 N   0  0  0  0  0  2  0  0  0  0  0  0
  185.8630  178.8560  141.3740 C   0  0  0  0  0  3  0  0  0  0  0  0
  189.2900  177.7140  141.0700 C   0  0  2  0  0  3  0  0  0  0  0  0
  184.4190  179.6090  139.5330 F   0  0  0  0  0  0  0  0  0  0  0  0
  185.5240  178.9860  140.0090 C   0  0  0  0  0  0  0  0  0  0  0  0
  187.8070  178.1020  143.0160 C   0  0  2  0  0  3  0  0  0  0  0  0
  187.5410  177.8390  139.3660 C   0  0  0  0  0  3  0  0  0  0  0  0
  187.0770  178.2350  141.7120 C   0  0  0  0  0  0  0  0  0  0  0  0
  186.3600  178.4270  139.0320 C   0  0  0  0  0  3  0  0  0  0  0  0
  189.2730  177.9490  142.5850 C   0  0  0  0  0  2  0  0  0  0  0  0
  187.8710  177.7850  140.6870 C   0  0  0  0  0  0  0  0  0  0  0  0
  187.3550  175.7570  143.4120 O   0  0  0  0  0  0  0  0  0  0  0  0
  187.2770  176.9090  143.8470 C   0  0  0  0  0  0  0  0  0  0  0  0
  186.6610  177.0650  145.2130 C   0  0  0  0  0  2  0  0  0  0  0  0
  187.0820  178.7780  146.8380 N   0  0  0  0  0  0  0  0  0  0  0  0
  186.4960  178.4500  145.7160 C   0  0  0  0  0  0  0  0  0  0  0  0
  187.6130  177.7010  148.9060 O   0  0  0  0  0  0  0  0  0  0  0  0
  187.9300  178.0560  147.6760 C   0  0  0  0  0  0  0  0  0  0  0  0
  191.6610  177.0620  145.6490 C   0  0  0  0  0  1  0  0  0  0  0  0
  192.0530  175.6400  147.6930 C   0  0  0  0  0  1  0  0  0  0  0  0
  190.1770  177.1950  147.7380 C   0  0  0  0  0  3  0  0  0  0  0  0
  191.3230  176.6850  147.0210 N   0  0  0  0  0  0  0  0  0  0  0  0
  189.2220  177.7410  147.1290 N   0  0  0  0  0  0  0  0  0  0  0  0
  185.4180  179.3340  145.1280 C   0  0  0  0  0  2  0  0  0  0  0  0
  184.1900  178.6870  144.6100 N   0  0  0  0  0  0  0  0  0  0  0  0
  183.3020  178.5370  145.7620 C   0  0  0  0  0  1  0  0  0  0  0  0
  182.0740  178.9440  143.5220 C   0  0  0  0  0  1  0  0  0  0  0  0
  183.3930  179.6300  143.8270 C   0  0  0  0  0  2  0  0  0  0  0  0
  1  7  1  6  0  0  0
  1 34  1  0  0  0  0
  1  2  1  0  0  0  0
  2  3  1  6  0  0  0
  2  5  1  0  0  0  0
  4  3  2  0  0  0  0
  5  6  1  0  0  0  0
  8  7  1  6  0  0  0
  9 29  1  1  0  0  0
  9 10  1  0  0  0  0
  9  8  1  0  0  0  0
 10 13  1  6  0  0  0
 10 11  1  0  0  0  0
 11  8  1  0  0  0  0
 13 12  1  6  0  0  0
 13 14  1  0  0  0  0
 16 15  1  0  0  0  0
 17 19  1  6  0  0  0
 17 15  1  0  0  0  0
 18 16  1  0  0  0  0
 18 14  1  0  0  0  0
 18 17  1  0  0  0  0
 19 21  1  0  0  0  0
 21 25  2  0  0  0  0
 22 23  2  0  0  0  0
 22 21  1  0  0  0  0
 23 24  1  0  0  0  0
 24 20  2  0  0  0  0
 25 20  1  0  0  0  0
 26 27  2  0  0  0  0
 27 28  1  0  0  0  0
 27 23  1  0  0  0  0
 29 31  1  1  0  0  0
 30 31  1  0  0  0  0
 33 29  1  0  0  0  0
 33 32  1  0  0  0  0
 35 41  1  0  0  0  0
 36 34  1  1  0  0  0
 36 43  1  0  0  0  0
 37 38  1  0  0  0  0
 38 35  2  0  0  0  0
 39 46  1  6  0  0  0
 40 44  1  0  0  0  0
 41 39  1  0  0  0  0
 42 40  2  0  0  0  0
 42 38  1  0  0  0  0
 43 39  1  0  0  0  0
 44 36  1  0  0  0  0
 44 41  2  0  0  0  0
 45 46  2  0  0  0  0
 46 47  1  0  0  0  0
 47 49  1  0  0  0  0
 48 51  1  0  0  0  0
 49 48  2  0  0  0  0
 51 50  2  0  0  0  0
 52 55  1  0  0  0  0
 55 53  1  0  0  0  0
 55 54  1  0  0  0  0
 56 51  1  0  0  0  0
 56 54  2  0  0  0  0
 57 49  1  0  0  0  0
 58 57  1  0  0  0  0
 58 59  1  0  0  0  0
 60 61  1  0  0  0  0
 61 58  1  0  0  0  0
M  END
>  <MODEL>
7

>  <REMARK>
 VINA RESULT:      -4.7      2.881      9.582
  Name = 
  24 active torsions:
  status: ('A' for Active; 'I' for Inactive)
    1  A    between atoms: O_1  and  C_12
    2  A    between atoms: O_1  and  C_50
    3  A    between atoms: C_4  and  N_38
    4  A    between atoms: C_5  and  C_7
    5  A    between atoms: C_5  and  C_58
    6  A    between atoms: C_9  and  C_13
    7  A    between atoms: N_11  and  C_59
    8  A    between atoms: C_13  and  C_48
    9  A    between atoms: C_13  and  C_58
   10  A    between atoms: C_18  and  C_61
   11  A    between atoms: C_23  and  C_27
   12  A    between atoms: C_23  and  C_30
   13  A    between atoms: C_26  and  C_35
   14  A    between atoms: C_26  and  C_47
   15  A    between atoms: C_28  and  C_60
   16  A    between atoms: C_30  and  N_55
   17  A    between atoms: N_33  and  C_37
   18  A    between atoms: N_33  and  C_47
   19  A    between atoms: C_35  and  C_60
   20  A    between atoms: N_38  and  C_58
   21  A    between atoms: O_40  and  C_61
   22  A    between atoms: C_43  and  C_51
   23  A    between atoms: N_45  and  C_59
   24  A    between atoms: C_46  and  C_61
                            x       y       z     vdW  Elec       q    Type
                         _______ _______ _______ _____ _____    ______ ____

>  <TORSDO>
F 24

$$$$
=
 OpenBabel10222418463D

 61 65  0  0  1  0  0  0  0  0999 V2000
  185.6930  176.5560  136.8530 C   0  0  2  0  0  3  0  0  0  0  0  0
  185.6890  176.6880  135.2630 C   0  0  2  0  0  3  0  0  0  0  0  0
  185.5270  175.3610  134.6100 C   0  0  0  0  0  3  0  0  0  0  0  0
  186.4910  174.5530  134.5990 O   0  0  0  0  0  0  0  0  0  0  0  0
  186.6740  177.5970  134.5940 C   0  0  0  0  0  2  0  0  0  0  0  0
  186.3380  178.9290  134.7500 F   0  0  0  0  0  0  0  0  0  0  0  0
  185.0800  177.6100  137.7620 C   0  0  0  0  0  2  0  0  0  0  0  0
  183.8240  177.0730  138.5510 C   0  0  2  0  0  3  0  0  0  0  0  0
  182.4680  177.3840  138.0490 C   0  0  2  0  0  3  0  0  0  0  0  0
  182.2340  177.7320  139.4770 C   0  0  1  0  0  3  0  0  0  0  0  0
  183.5890  177.6880  139.7510 O   0  0  0  0  0  0  0  0  0  0  0  0
  181.4540  179.3660  138.0210 O   0  0  0  0  0  1  0  0  0  0  0  0
  181.7290  179.2290  139.3460 C   0  0  1  0  0  3  0  0  0  0  0  0
  180.5940  179.5020  140.1840 C   0  0  0  0  0  2  0  0  0  0  0  0
  179.9080  180.2980  142.9030 C   0  0  0  0  0  2  0  0  0  0  0  0
  179.2860  179.2380  142.0420 C   0  0  0  0  0  2  0  0  0  0  0  0
  181.2330  179.7320  142.3780 C   0  0  2  0  0  3  0  0  0  0  0  0
  180.5780  178.7450  141.4640 N   0  0  0  0  0  0  0  0  0  0  0  0
  182.0010  179.1730  143.5050 O   0  0  0  0  0  0  0  0  0  0  0  0
  185.5180  178.2320  142.8630 C   0  0  0  0  0  3  0  0  0  0  0  0
  183.3490  178.9430  143.6960 C   0  0  0  0  0  0  0  0  0  0  0  0
  183.8960  178.9090  145.0140 C   0  0  0  0  0  3  0  0  0  0  0  0
  185.2450  178.6000  145.2050 C   0  0  0  0  0  0  0  0  0  0  0  0
  186.0690  178.2550  144.1240 C   0  0  0  0  0  3  0  0  0  0  0  0
  184.2290  178.5380  142.6640 C   0  0  0  0  0  3  0  0  0  0  0  0
  184.9250  178.6140  147.5150 O   0  0  0  0  0  1  0  0  0  0  0  0
  185.7230  178.6000  146.5500 C   0  0  0  0  0  0  0  0  0  0  0  0
  187.0880  178.5800  146.7340 O   0  0  0  0  0  0  0  0  0  0  0  0
  181.4470  176.2900  137.5540 C   0  0  1  0  0  3  0  0  0  0  0  0
  181.8320  174.4670  135.7500 C   0  0  0  0  0  1  0  0  0  0  0  0
  181.9370  174.9090  137.1570 C   0  0  0  0  0  2  0  0  0  0  0  0
  180.3650  174.9920  139.0440 C   0  0  0  0  0  1  0  0  0  0  0  0
  180.3100  176.1920  138.3070 O   0  0  0  0  0  0  0  0  0  0  0  0
  186.9730  176.0420  137.3800 N   0  0  0  0  0  2  0  0  0  0  0  0
  190.9810  177.5830  139.3640 C   0  0  0  0  0  3  0  0  0  0  0  0
  187.8170  177.2290  137.6310 C   0  0  2  0  0  3  0  0  0  0  0  0
  191.2850  177.8070  141.7930 F   0  0  0  0  0  0  0  0  0  0  0  0
  190.5400  177.5010  140.7040 C   0  0  0  0  0  0  0  0  0  0  0  0
  190.1560  177.4530  136.8450 C   0  0  2  0  0  3  0  0  0  0  0  0
  188.3590  176.7890  139.9740 C   0  0  0  0  0  3  0  0  0  0  0  0
  190.0710  177.2910  138.3350 C   0  0  0  0  0  0  0  0  0  0  0  0
  189.2390  177.0570  140.9770 C   0  0  0  0  0  3  0  0  0  0  0  0
  188.6860  177.5980  136.4230 C   0  0  0  0  0  2  0  0  0  0  0  0
  188.7950  176.9380  138.6920 C   0  0  0  0  0  0  0  0  0  0  0  0
  190.9340  176.1600  134.9520 O   0  0  0  0  0  0  0  0  0  0  0  0
  190.8760  176.2550  136.1820 C   0  0  0  0  0  0  0  0  0  0  0  0
  191.5530  175.1620  136.9670 C   0  0  0  0  0  2  0  0  0  0  0  0
  193.7580  174.5800  136.2260 N   0  0  0  0  0  0  0  0  0  0  0  0
  192.4850  174.2830  136.2200 C   0  0  0  0  0  0  0  0  0  0  0  0
  194.0250  176.8270  137.0020 O   0  0  0  0  0  0  0  0  0  0  0  0
  194.4630  175.5890  136.8820 C   0  0  0  0  0  0  0  0  0  0  0  0
  198.3350  174.7680  138.7130 C   0  0  0  0  0  1  0  0  0  0  0  0
  199.0380  174.3220  136.3330 C   0  0  0  0  0  1  0  0  0  0  0  0
  196.6590  174.6080  136.7770 C   0  0  0  0  0  3  0  0  0  0  0  0
  197.9980  174.5230  137.3110 N   0  0  0  0  0  0  0  0  0  0  0  0
  195.7490  175.2100  137.4020 N   0  0  0  0  0  0  0  0  0  0  0  0
  191.9350  173.2890  135.2210 C   0  0  0  0  0  2  0  0  0  0  0  0
  190.8990  172.3360  135.6830 N   0  0  0  0  0  0  0  0  0  0  0  0
  189.6300  172.8490  135.1720 C   0  0  0  0  0  1  0  0  0  0  0  0
  189.5320  170.6860  134.6180 C   0  0  0  0  0  1  0  0  0  0  0  0
  190.9630  171.0870  134.9250 C   0  0  0  0  0  2  0  0  0  0  0  0
  1 34  1  0  0  0  0
  1  7  1  1  0  0  0
  2  5  1  6  0  0  0
  2  1  1  0  0  0  0
  3  2  1  0  0  0  0
  4  3  2  0  0  0  0
  5  6  1  0  0  0  0
  8  7  1  6  0  0  0
  8 11  1  0  0  0  0
  9 29  1  1  0  0  0
  9  8  1  0  0  0  0
  9 10  1  0  0  0  0
 10 13  1  6  0  0  0
 10 11  1  0  0  0  0
 13 12  1  6  0  0  0
 13 14  1  0  0  0  0
 14 18  1  0  0  0  0
 16 15  1  0  0  0  0
 17 15  1  0  0  0  0
 17 19  1  1  0  0  0
 18 16  1  0  0  0  0
 18 17  1  0  0  0  0
 19 21  1  0  0  0  0
 20 24  1  0  0  0  0
 21 22  2  0  0  0  0
 22 23  1  0  0  0  0
 23 27  1  0  0  0  0
 24 23  2  0  0  0  0
 25 20  2  0  0  0  0
 25 21  1  0  0  0  0
 27 28  2  0  0  0  0
 27 26  1  0  0  0  0
 29 31  1  1  0  0  0
 29 33  1  0  0  0  0
 30 31  1  0  0  0  0
 33 32  1  0  0  0  0
 35 38  1  0  0  0  0
 36 34  1  6  0  0  0
 36 44  1  0  0  0  0
 38 42  2  0  0  0  0
 38 37  1  0  0  0  0
 39 46  1  6  0  0  0
 39 41  1  0  0  0  0
 40 42  1  0  0  0  0
 41 44  1  0  0  0  0
 41 35  2  0  0  0  0
 43 39  1  0  0  0  0
 43 36  1  0  0  0  0
 44 40  2  0  0  0  0
 45 46  2  0  0  0  0
 46 47  1  0  0  0  0
 48 51  1  0  0  0  0
 49 48  2  0  0  0  0
 49 47  1  0  0  0  0
 51 50  2  0  0  0  0
 51 56  1  0  0  0  0
 53 55  1  0  0  0  0
 54 55  1  0  0  0  0
 54 56  2  0  0  0  0
 55 52  1  0  0  0  0
 57 58  1  0  0  0  0
 57 49  1  0  0  0  0
 59 58  1  0  0  0  0
 60 61  1  0  0  0  0
 61 58  1  0  0  0  0
M  END
>  <MODEL>
8

>  <REMARK>
 VINA RESULT:      -4.5      2.908     10.559
  Name = 
  24 active torsions:
  status: ('A' for Active; 'I' for Inactive)
    1  A    between atoms: O_1  and  C_12
    2  A    between atoms: O_1  and  C_50
    3  A    between atoms: C_4  and  N_38
    4  A    between atoms: C_5  and  C_7
    5  A    between atoms: C_5  and  C_58
    6  A    between atoms: C_9  and  C_13
    7  A    between atoms: N_11  and  C_59
    8  A    between atoms: C_13  and  C_48
    9  A    between atoms: C_13  and  C_58
   10  A    between atoms: C_18  and  C_61
   11  A    between atoms: C_23  and  C_27
   12  A    between atoms: C_23  and  C_30
   13  A    between atoms: C_26  and  C_35
   14  A    between atoms: C_26  and  C_47
   15  A    between atoms: C_28  and  C_60
   16  A    between atoms: C_30  and  N_55
   17  A    between atoms: N_33  and  C_37
   18  A    between atoms: N_33  and  C_47
   19  A    between atoms: C_35  and  C_60
   20  A    between atoms: N_38  and  C_58
   21  A    between atoms: O_40  and  C_61
   22  A    between atoms: C_43  and  C_51
   23  A    between atoms: N_45  and  C_59
   24  A    between atoms: C_46  and  C_61
                            x       y       z     vdW  Elec       q    Type
                         _______ _______ _______ _____ _____    ______ ____

>  <TORSDO>
F 24

$$$$
=
 OpenBabel10222418463D

 61 65  0  0  1  0  0  0  0  0999 V2000
  189.2070  177.8760  141.5140 C   0  0  2  0  0  3  0  0  0  0  0  0
  190.0680  177.4680  142.7940 C   0  0  2  0  0  3  0  0  0  0  0  0
  189.5520  176.2220  143.4200 C   0  0  0  0  0  3  0  0  0  0  0  0
  190.3510  175.2910  143.6990 O   0  0  0  0  0  0  0  0  0  0  0  0
  190.4930  178.5250  143.7670 C   0  0  0  0  0  2  0  0  0  0  0  0
  189.6920  178.5420  144.8940 F   0  0  0  0  0  0  0  0  0  0  0  0
  187.7620  177.4400  141.3300 C   0  0  0  0  0  2  0  0  0  0  0  0
  186.7360  178.4720  141.9410 C   0  0  2  0  0  3  0  0  0  0  0  0
  185.5950  177.9710  142.7380 C   0  0  2  0  0  3  0  0  0  0  0  0
  184.8350  178.9200  141.8790 C   0  0  1  0  0  3  0  0  0  0  0  0
  185.9140  179.0780  141.0290 O   0  0  0  0  0  0  0  0  0  0  0  0
  182.8450  177.7760  142.2460 O   0  0  0  0  0  1  0  0  0  0  0  0
  183.7500  177.9510  141.2460 C   0  0  1  0  0  3  0  0  0  0  0  0
  183.1630  178.4890  140.0490 C   0  0  0  0  0  2  0  0  0  0  0  0
  181.4630  177.9180  137.7520 C   0  0  0  0  0  2  0  0  0  0  0  0
  182.8100  178.5770  137.7910 C   0  0  0  0  0  2  0  0  0  0  0  0
  182.0860  176.9330  138.7490 C   0  0  2  0  0  3  0  0  0  0  0  0
  183.3870  177.6650  138.8310 N   0  0  0  0  0  0  0  0  0  0  0  0
  182.1260  175.5900  138.1420 O   0  0  0  0  0  0  0  0  0  0  0  0
  183.4600  174.2140  134.9810 C   0  0  0  0  0  3  0  0  0  0  0  0
  182.9780  175.0010  137.2280 C   0  0  0  0  0  0  0  0  0  0  0  0
  184.1480  174.3140  137.6700 C   0  0  0  0  0  3  0  0  0  0  0  0
  184.9650  173.6550  136.7470 C   0  0  0  0  0  0  0  0  0  0  0  0
  184.6220  173.5980  135.3880 C   0  0  0  0  0  3  0  0  0  0  0  0
  182.6740  174.8590  135.8520 C   0  0  0  0  0  3  0  0  0  0  0  0
  186.2000  172.6860  138.4700 O   0  0  0  0  0  1  0  0  0  0  0  0
  186.1250  173.0030  137.2620 C   0  0  0  0  0  0  0  0  0  0  0  0
  187.1450  172.7390  136.3750 O   0  0  0  0  0  0  0  0  0  0  0  0
  185.3880  178.2960  144.2670 C   0  0  1  0  0  3  0  0  0  0  0  0
  187.1340  176.9980  145.6780 C   0  0  0  0  0  1  0  0  0  0  0  0
  186.5710  178.2850  145.2190 C   0  0  0  0  0  2  0  0  0  0  0  0
  183.4140  178.9250  145.1490 C   0  0  0  0  0  1  0  0  0  0  0  0
  184.5890  179.3760  144.5150 O   0  0  0  0  0  0  0  0  0  0  0  0
  189.9780  177.7940  140.2580 N   0  0  0  0  0  2  0  0  0  0  0  0
  188.6650  176.0340  136.0670 C   0  0  0  0  0  3  0  0  0  0  0  0
  189.4860  176.5910  139.5540 C   0  0  2  0  0  3  0  0  0  0  0  0
  186.5400  176.6020  134.9720 F   0  0  0  0  0  0  0  0  0  0  0  0
  187.4190  176.6950  135.9980 C   0  0  0  0  0  0  0  0  0  0  0  0
  190.6920  175.4890  137.6920 C   0  0  2  0  0  3  0  0  0  0  0  0
  187.7760  177.6620  138.1740 C   0  0  0  0  0  3  0  0  0  0  0  0
  189.4430  176.1790  137.2290 C   0  0  0  0  0  0  0  0  0  0  0  0
  187.0230  177.5360  137.0460 C   0  0  0  0  0  3  0  0  0  0  0  0
  190.6110  175.6040  139.2210 C   0  0  0  0  0  2  0  0  0  0  0  0
  188.9430  176.9620  138.2380 C   0  0  0  0  0  0  0  0  0  0  0  0
  192.6760  176.8740  137.7730 O   0  0  0  0  0  0  0  0  0  0  0  0
  191.9600  176.1400  137.0870 C   0  0  0  0  0  0  0  0  0  0  0  0
  192.4040  175.9130  135.6660 C   0  0  0  0  0  2  0  0  0  0  0  0
  194.0110  174.2200  135.1150 N   0  0  0  0  0  0  0  0  0  0  0  0
  192.7510  174.5210  135.2890 C   0  0  0  0  0  0  0  0  0  0  0  0
  195.3310  176.1840  134.7620 O   0  0  0  0  0  0  0  0  0  0  0  0
  195.1680  174.9810  135.2790 C   0  0  0  0  0  0  0  0  0  0  0  0
  198.6330  173.2930  137.3180 C   0  0  0  0  0  1  0  0  0  0  0  0
  197.3230  171.1460  137.1430 C   0  0  0  0  0  1  0  0  0  0  0  0
  196.1790  173.2200  136.5700 C   0  0  0  0  0  3  0  0  0  0  0  0
  197.3810  172.5830  137.0600 N   0  0  0  0  0  0  0  0  0  0  0  0
  196.2220  174.3540  136.0290 N   0  0  0  0  0  0  0  0  0  0  0  0
  191.6660  173.5880  134.7980 C   0  0  0  0  0  2  0  0  0  0  0  0
  191.2130  172.5070  135.7030 N   0  0  0  0  0  0  0  0  0  0  0  0
  190.1950  171.7660  134.9610 C   0  0  0  0  0  1  0  0  0  0  0  0
  191.5210  170.1380  135.5570 C   0  0  0  0  0  1  0  0  0  0  0  0
  192.2260  171.4580  135.8110 C   0  0  0  0  0  2  0  0  0  0  0  0
  1  7  1  6  0  0  0
  1  2  1  0  0  0  0
  2  3  1  1  0  0  0
  2  5  1  0  0  0  0
  3  4  2  0  0  0  0
  5  6  1  0  0  0  0
  8  7  1  6  0  0  0
  8  9  1  0  0  0  0
  9 29  1  1  0  0  0
 10 13  1  6  0  0  0
 10  9  1  0  0  0  0
 11 10  1  0  0  0  0
 11  8  1  0  0  0  0
 13 12  1  1  0  0  0
 14 13  1  0  0  0  0
 15 16  1  0  0  0  0
 15 17  1  0  0  0  0
 16 18  1  0  0  0  0
 17 19  1  6  0  0  0
 17 18  1  0  0  0  0
 18 14  1  0  0  0  0
 20 24  2  0  0  0  0
 20 25  1  0  0  0  0
 21 22  1  0  0  0  0
 21 19  1  0  0  0  0
 23 27  1  0  0  0  0
 23 22  2  0  0  0  0
 24 23  1  0  0  0  0
 25 21  2  0  0  0  0
 27 26  1  0  0  0  0
 28 27  2  0  0  0  0
 29 33  1  0  0  0  0
 29 31  1  6  0  0  0
 31 30  1  0  0  0  0
 33 32  1  0  0  0  0
 34  1  1  0  0  0  0
 35 41  1  0  0  0  0
 36 34  1  6  0  0  0
 37 38  1  0  0  0  0
 38 35  2  0  0  0  0
 38 42  1  0  0  0  0
 39 46  1  6  0  0  0
 39 43  1  0  0  0  0
 40 44  1  0  0  0  0
 41 39  1  0  0  0  0
 41 44  2  0  0  0  0
 42 40  2  0  0  0  0
 43 36  1  0  0  0  0
 44 36  1  0  0  0  0
 46 45  2  0  0  0  0
 47 46  1  0  0  0  0
 48 51  1  0  0  0  0
 48 49  2  0  0  0  0
 49 47  1  0  0  0  0
 50 51  2  0  0  0  0
 51 56  1  0  0  0  0
 54 55  1  0  0  0  0
 55 53  1  0  0  0  0
 55 52  1  0  0  0  0
 56 54  2  0  0  0  0
 57 49  1  0  0  0  0
 57 58  1  0  0  0  0
 58 61  1  0  0  0  0
 59 58  1  0  0  0  0
 60 61  1  0  0  0  0
M  END
>  <MODEL>
9

>  <REMARK>
 VINA RESULT:      -4.3      2.960      8.705
  Name = 
  24 active torsions:
  status: ('A' for Active; 'I' for Inactive)
    1  A    between atoms: O_1  and  C_12
    2  A    between atoms: O_1  and  C_50
    3  A    between atoms: C_4  and  N_38
    4  A    between atoms: C_5  and  C_7
    5  A    between atoms: C_5  and  C_58
    6  A    between atoms: C_9  and  C_13
    7  A    between atoms: N_11  and  C_59
    8  A    between atoms: C_13  and  C_48
    9  A    between atoms: C_13  and  C_58
   10  A    between atoms: C_18  and  C_61
   11  A    between atoms: C_23  and  C_27
   12  A    between atoms: C_23  and  C_30
   13  A    between atoms: C_26  and  C_35
   14  A    between atoms: C_26  and  C_47
   15  A    between atoms: C_28  and  C_60
   16  A    between atoms: C_30  and  N_55
   17  A    between atoms: N_33  and  C_37
   18  A    between atoms: N_33  and  C_47
   19  A    between atoms: C_35  and  C_60
   20  A    between atoms: N_38  and  C_58
   21  A    between atoms: O_40  and  C_61
   22  A    between atoms: C_43  and  C_51
   23  A    between atoms: N_45  and  C_59
   24  A    between atoms: C_46  and  C_61
                            x       y       z     vdW  Elec       q    Type
                         _______ _______ _______ _____ _____    ______ ____

>  <TORSDO>
F 24

$$$$
