=
 OpenBabel10222420533D

 48 51  0  0  1  0  0  0  0  0999 V2000
  186.2020  178.7960  141.7160 S   0  0  0  0  0  0  0  0  0  0  0  0
  184.8240  178.9140  142.9010 C   0  0  1  0  0  3  0  0  0  0  0  0
  184.9880  178.7600  140.4040 C   0  0  0  0  0  0  0  0  0  0  0  0
  183.6160  178.2500  142.2630 C   0  0  0  0  0  2  0  0  0  0  0  0
  183.7500  178.4680  140.7970 C   0  0  0  0  0  0  0  0  0  0  0  0
  182.6330  177.4850  138.7730 N   0  0  0  0  0  2  0  0  0  0  0  0
  181.5370  177.1860  137.9010 C   0  0  0  0  0  0  0  0  0  0  0  0
  180.3700  177.5910  138.1650 O   0  0  0  0  0  0  0  0  0  0  0  0
  182.5760  178.3630  139.9040 C   0  0  0  0  0  0  0  0  0  0  0  0
  181.5410  179.0490  140.1200 O   0  0  0  0  0  0  0  0  0  0  0  0
  181.7720  176.4060  136.6550 C   0  0  0  0  0  2  0  0  0  0  0  0
  183.2570  176.1550  136.4540 C   0  0  0  0  0  2  0  0  0  0  0  0
  183.9190  172.0810  137.2900 N   0  0  0  0  0  0  0  0  0  0  0  0
  182.5760  172.5070  136.8940 C   0  0  0  0  0  2  0  0  0  0  0  0
  184.7570  174.3300  137.2920 C   0  0  0  0  0  2  0  0  0  0  0  0
  183.5510  174.7390  136.6270 N   0  0  0  0  0  0  0  0  0  0  0  0
  184.9450  173.0430  137.5890 C   0  0  0  0  0  3  0  0  0  0  0  0
  182.6760  173.7420  136.0010 C   0  0  0  0  0  2  0  0  0  0  0  0
  185.3200  179.0940  139.0510 N   0  0  0  0  0  2  0  0  0  0  0  0
  186.0420  178.1870  138.1710 C   0  0  0  0  0  2  0  0  0  0  0  0
  188.8430  177.3760  138.0340 N   0  0  0  0  0  2  0  0  0  0  0  0
  187.0230  178.9340  137.3980 N   0  0  0  0  0  2  0  0  0  0  0  0
  189.2150  179.2710  136.7210 O   0  0  0  0  0  0  0  0  0  0  0  0
  188.3970  178.5550  137.3560 C   0  0  0  0  0  0  0  0  0  0  0  0
  190.6380  176.5640  139.4570 C   0  0  0  0  0  1  0  0  0  0  0  0
  190.2350  176.9550  138.0450 C   0  0  1  0  0  3  0  0  0  0  0  0
  190.4080  175.7710  137.1130 C   0  0  0  0  0  2  0  0  0  0  0  0
  191.5700  175.9730  136.2580 N   0  0  0  0  0  2  0  0  0  0  0  0
  192.5920  175.0290  136.6870 C   0  0  0  0  0  2  0  0  0  0  0  0
  193.8180  175.7600  137.1200 C   0  0  0  0  0  0  0  0  0  0  0  0
  194.2570  175.6610  138.4370 O   0  0  0  0  0  1  0  0  0  0  0  0
  194.4670  176.4480  136.2910 O   0  0  0  0  0  0  0  0  0  0  0  0
  185.1700  178.2290  144.2090 C   0  0  0  0  0  2  0  0  0  0  0  0
  186.6090  178.0230  144.2870 N   0  0  0  0  0  2  0  0  0  0  0  0
  188.7340  177.7390  147.8910 N   0  0  0  0  0  0  0  0  0  0  0  0
  187.4490  178.1770  147.9100 C   0  0  0  0  0  3  0  0  0  0  0  0
  188.6420  177.3630  145.5180 C   0  0  0  0  0  0  0  0  0  0  0  0
  189.3640  177.3590  146.7450 C   0  0  0  0  0  0  0  0  0  0  0  0
  187.3260  177.8800  145.5190 C   0  0  0  0  0  0  0  0  0  0  0  0
  186.7300  178.2690  146.7240 C   0  0  0  0  0  3  0  0  0  0  0  0
  189.2580  176.8750  144.2240 C   0  0  2  0  0  3  0  0  0  0  0  0
  191.3030  177.0570  142.8460 C   0  0  0  0  0  1  0  0  0  0  0  0
  190.3440  177.8260  143.7310 C   0  0  1  0  0  3  0  0  0  0  0  0
  188.9830  177.8490  143.0900 C   0  0  0  0  0  2  0  0  0  0  0  0
  191.2160  175.8260  147.5470 N   0  0  0  0  0  2  0  0  0  0  0  0
  192.6120  175.4250  147.6190 C   0  0  0  0  0  1  0  0  0  0  0  0
  191.6500  177.7080  146.2470 O   0  0  0  0  0  0  0  0  0  0  0  0
  190.7970  177.0020  146.8470 C   0  0  0  0  0  0  0  0  0  0  0  0
  1  2  1  0  0  0  0
  2 33  1  1  0  0  0
  3  5  2  0  0  0  0
  3  1  1  0  0  0  0
  4  2  1  0  0  0  0
  5  4  1  0  0  0  0
  6  9  1  0  0  0  0
  7  8  2  0  0  0  0
  7  6  1  0  0  0  0
  9 10  2  0  0  0  0
  9  5  1  0  0  0  0
 11  7  1  0  0  0  0
 12 16  1  0  0  0  0
 12 11  1  0  0  0  0
 13 17  2  0  0  0  0
 14 13  1  0  0  0  0
 15 17  1  0  0  0  0
 16 15  1  0  0  0  0
 18 16  1  0  0  0  0
 18 14  1  0  0  0  0
 19  3  1  0  0  0  0
 20 19  1  0  0  0  0
 21 26  1  0  0  0  0
 22 20  1  0  0  0  0
 23 24  2  0  0  0  0
 24 22  1  0  0  0  0
 24 21  1  0  0  0  0
 26 25  1  1  0  0  0
 27 26  1  0  0  0  0
 28 29  1  0  0  0  0
 28 27  1  0  0  0  0
 29 30  1  0  0  0  0
 30 31  1  0  0  0  0
 32 30  2  0  0  0  0
 33 34  1  0  0  0  0
 34 39  1  0  0  0  0
 35 36  1  0  0  0  0
 37 39  2  0  0  0  0
 37 38  1  0  0  0  0
 38 48  1  0  0  0  0
 38 35  2  0  0  0  0
 39 40  1  0  0  0  0
 40 36  2  0  0  0  0
 41 37  1  1  0  0  0
 43 42  1  6  0  0  0
 43 41  1  0  0  0  0
 44 43  1  0  0  0  0
 44 41  1  0  0  0  0
 45 46  1  0  0  0  0
 47 48  2  0  0  0  0
 48 45  1  0  0  0  0
M  END
>  <MODEL>
1

>  <REMARK>
 VINA RESULT:      -7.9      0.000      0.000
  Name = 
  17 active torsions:
  status: ('A' for Active; 'I' for Inactive)
    1  A    between atoms: N_1  and  C_16
    2  A    between atoms: C_2  and  C_23
    3  A    between atoms: C_4  and  C_18
    4  A    between atoms: C_4  and  C_42
    5  A    between atoms: C_6  and  N_9
    6  A    between atoms: C_6  and  N_32
    7  A    between atoms: C_7  and  C_38
    8  A    between atoms: C_13  and  C_30
    9  A    between atoms: C_13  and  N_39
   10  A    between atoms: C_16  and  C_34
   11  A    between atoms: C_25  and  C_47
   12  A    between atoms: C_28  and  C_46
   13  A    between atoms: N_31  and  C_42
   14  A    between atoms: N_32  and  C_37
   15  A    between atoms: C_34  and  N_45
   16  A    between atoms: C_38  and  N_45
   17  A    between atoms: N_39  and  C_40
                            x       y       z     vdW  Elec       q    Type
                         _______ _______ _______ _____ _____    ______ ____

>  <TORSDO>
F 17

$$$$
=
 OpenBabel10222420533D

 48 51  0  0  1  0  0  0  0  0999 V2000
  183.5650  178.9390  140.5960 S   0  0  0  0  0  0  0  0  0  0  0  0
  182.0430  178.4010  141.4400 C   0  0  1  0  0  3  0  0  0  0  0  0
  184.3860  178.8960  142.1840 C   0  0  0  0  0  0  0  0  0  0  0  0
  182.1240  178.8850  142.8780 C   0  0  0  0  0  2  0  0  0  0  0  0
  183.5690  178.8830  143.2350 C   0  0  0  0  0  0  0  0  0  0  0  0
  185.3020  178.3590  144.9760 N   0  0  0  0  0  2  0  0  0  0  0  0
  185.9010  178.3960  146.2770 C   0  0  0  0  0  0  0  0  0  0  0  0
  185.3490  179.0200  147.2260 O   0  0  0  0  0  0  0  0  0  0  0  0
  184.0000  178.8620  144.6490 C   0  0  0  0  0  0  0  0  0  0  0  0
  183.2310  179.2660  145.5620 O   0  0  0  0  0  0  0  0  0  0  0  0
  187.1780  177.6730  146.5250 C   0  0  0  0  0  2  0  0  0  0  0  0
  188.0890  177.7650  145.3130 C   0  0  0  0  0  2  0  0  0  0  0  0
  191.9810  176.5450  146.3590 N   0  0  0  0  0  0  0  0  0  0  0  0
  191.5990  176.5380  144.9460 C   0  0  0  0  0  2  0  0  0  0  0  0
  189.7800  177.1860  147.0690 C   0  0  0  0  0  2  0  0  0  0  0  0
  189.4630  177.4720  145.6980 N   0  0  0  0  0  0  0  0  0  0  0  0
  191.0040  176.7630  147.3910 C   0  0  0  0  0  3  0  0  0  0  0  0
  190.5310  177.6030  144.7020 C   0  0  0  0  0  2  0  0  0  0  0  0
  185.8110  178.8070  142.3020 N   0  0  0  0  0  2  0  0  0  0  0  0
  186.6930  178.7350  141.1460 C   0  0  0  0  0  2  0  0  0  0  0  0
  188.7590  177.9990  139.2200 N   0  0  0  0  0  2  0  0  0  0  0  0
  188.0130  178.2870  141.5660 N   0  0  0  0  0  2  0  0  0  0  0  0
  190.1150  177.4620  141.0430 O   0  0  0  0  0  0  0  0  0  0  0  0
  189.0110  177.8980  140.6250 C   0  0  0  0  0  0  0  0  0  0  0  0
  189.7020  176.0850  138.0570 C   0  0  0  0  0  1  0  0  0  0  0  0
  189.7300  177.5950  138.2160 C   0  0  1  0  0  3  0  0  0  0  0  0
  189.3910  178.2580  136.8940 C   0  0  0  0  0  2  0  0  0  0  0  0
  188.5860  177.3610  136.0770 N   0  0  0  0  0  2  0  0  0  0  0  0
  187.2920  177.9990  135.8810 C   0  0  0  0  0  2  0  0  0  0  0  0
  186.2930  177.4420  136.8370 C   0  0  0  0  0  0  0  0  0  0  0  0
  186.0210  176.0770  136.8410 O   0  0  0  0  0  0  0  0  0  0  0  0
  185.7110  178.2020  137.6540 O   0  0  0  0  0  1  0  0  0  0  0  0
  180.8130  178.9730  140.7620 C   0  0  0  0  0  2  0  0  0  0  0  0
  180.5760  178.2710  139.5080 N   0  0  0  0  0  2  0  0  0  0  0  0
  179.4370  174.2380  139.3610 N   0  0  0  0  0  0  0  0  0  0  0  0
  179.0610  174.9970  140.4220 C   0  0  0  0  0  3  0  0  0  0  0  0
  180.4820  176.1250  138.2970 C   0  0  0  0  0  0  0  0  0  0  0  0
  180.1540  174.7390  138.3160 C   0  0  0  0  0  0  0  0  0  0  0  0
  180.1520  176.9050  139.4290 C   0  0  0  0  0  0  0  0  0  0  0  0
  179.4250  176.3370  140.4810 C   0  0  0  0  0  3  0  0  0  0  0  0
  181.2050  176.7610  137.1280 C   0  0  2  0  0  3  0  0  0  0  0  0
  181.2820  178.8280  135.7730 C   0  0  0  0  0  1  0  0  0  0  0  0
  180.3610  177.8560  136.4830 C   0  0  1  0  0  3  0  0  0  0  0  0
  180.4610  176.5050  135.8270 C   0  0  0  0  0  2  0  0  0  0  0  0
  181.9610  173.3990  137.1510 N   0  0  0  0  0  2  0  0  0  0  0  0
  182.4070  172.4240  136.1680 C   0  0  0  0  0  1  0  0  0  0  0  0
  179.7230  173.2500  136.5300 O   0  0  0  0  0  0  0  0  0  0  0  0
  180.5890  173.7840  137.2740 C   0  0  0  0  0  0  0  0  0  0  0  0
  1  2  1  0  0  0  0
  1  3  1  0  0  0  0
  2 33  1  6  0  0  0
  2  4  1  0  0  0  0
  3 19  1  0  0  0  0
  3  5  2  0  0  0  0
  4  5  1  0  0  0  0
  5  9  1  0  0  0  0
  6  7  1  0  0  0  0
  7 11  1  0  0  0  0
  7  8  2  0  0  0  0
  9  6  1  0  0  0  0
  9 10  2  0  0  0  0
 12 16  1  0  0  0  0
 12 11  1  0  0  0  0
 13 17  2  0  0  0  0
 14 13  1  0  0  0  0
 15 17  1  0  0  0  0
 16 15  1  0  0  0  0
 18 14  1  0  0  0  0
 18 16  1  0  0  0  0
 20 22  1  0  0  0  0
 20 19  1  0  0  0  0
 21 24  1  0  0  0  0
 24 23  2  0  0  0  0
 24 22  1  0  0  0  0
 26 25  1  6  0  0  0
 26 21  1  0  0  0  0
 27 26  1  0  0  0  0
 28 27  1  0  0  0  0
 29 28  1  0  0  0  0
 29 30  1  0  0  0  0
 30 31  2  0  0  0  0
 30 32  1  0  0  0  0
 34 33  1  0  0  0  0
 35 36  1  0  0  0  0
 36 40  2  0  0  0  0
 37 38  1  0  0  0  0
 37 39  2  0  0  0  0
 38 35  2  0  0  0  0
 39 34  1  0  0  0  0
 39 40  1  0  0  0  0
 41 37  1  1  0  0  0
 43 42  1  6  0  0  0
 43 41  1  0  0  0  0
 44 43  1  0  0  0  0
 44 41  1  0  0  0  0
 45 48  1  0  0  0  0
 46 45  1  0  0  0  0
 47 48  2  0  0  0  0
 48 38  1  0  0  0  0
M  END
>  <MODEL>
2

>  <REMARK>
 VINA RESULT:      -7.8      2.617      9.262
  Name = 
  17 active torsions:
  status: ('A' for Active; 'I' for Inactive)
    1  A    between atoms: N_1  and  C_16
    2  A    between atoms: C_2  and  C_23
    3  A    between atoms: C_4  and  C_18
    4  A    between atoms: C_4  and  C_42
    5  A    between atoms: C_6  and  N_9
    6  A    between atoms: C_6  and  N_32
    7  A    between atoms: C_7  and  C_38
    8  A    between atoms: C_13  and  C_30
    9  A    between atoms: C_13  and  N_39
   10  A    between atoms: C_16  and  C_34
   11  A    between atoms: C_25  and  C_47
   12  A    between atoms: C_28  and  C_46
   13  A    between atoms: N_31  and  C_42
   14  A    between atoms: N_32  and  C_37
   15  A    between atoms: C_34  and  N_45
   16  A    between atoms: C_38  and  N_45
   17  A    between atoms: N_39  and  C_40
                            x       y       z     vdW  Elec       q    Type
                         _______ _______ _______ _____ _____    ______ ____

>  <TORSDO>
F 17

$$$$
=
 OpenBabel10222420533D

 48 51  0  0  1  0  0  0  0  0999 V2000
  187.6610  178.7110  141.3660 S   0  0  0  0  0  0  0  0  0  0  0  0
  187.3560  177.8600  139.7850 C   0  0  1  0  0  3  0  0  0  0  0  0
  185.8940  178.9360  141.5140 C   0  0  0  0  0  0  0  0  0  0  0  0
  186.0610  178.4110  139.2130 C   0  0  0  0  0  2  0  0  0  0  0  0
  185.2130  178.7730  140.3820 C   0  0  0  0  0  0  0  0  0  0  0  0
  183.2220  179.6290  139.1120 N   0  0  0  0  0  2  0  0  0  0  0  0
  181.8330  179.7380  138.7780 C   0  0  0  0  0  0  0  0  0  0  0  0
  180.9610  179.0770  139.4090 O   0  0  0  0  0  0  0  0  0  0  0  0
  183.7480  178.9190  140.2400 C   0  0  0  0  0  0  0  0  0  0  0  0
  182.9680  178.4400  141.1070 O   0  0  0  0  0  0  0  0  0  0  0  0
  181.4030  180.6580  137.6900 C   0  0  0  0  0  2  0  0  0  0  0  0
  181.3770  182.0950  138.1830 C   0  0  0  0  0  2  0  0  0  0  0  0
  180.0090  184.7070  135.1770 N   0  0  0  0  0  0  0  0  0  0  0  0
  180.2570  185.2450  136.5150 C   0  0  0  0  0  2  0  0  0  0  0  0
  180.4970  182.4600  135.8660 C   0  0  0  0  0  2  0  0  0  0  0  0
  181.0260  182.9910  137.0900 N   0  0  0  0  0  0  0  0  0  0  0  0
  180.0290  183.2900  134.9320 C   0  0  0  0  0  3  0  0  0  0  0  0
  181.3430  184.4190  137.2020 C   0  0  0  0  0  2  0  0  0  0  0  0
  185.2630  179.1980  142.7740 N   0  0  0  0  0  2  0  0  0  0  0  0
  185.2460  178.2310  143.8620 C   0  0  0  0  0  2  0  0  0  0  0  0
  187.2690  178.1410  145.9640 N   0  0  0  0  0  2  0  0  0  0  0  0
  185.0700  178.9240  145.1290 N   0  0  0  0  0  2  0  0  0  0  0  0
  185.8150  179.4220  147.2670 O   0  0  0  0  0  0  0  0  0  0  0  0
  186.0450  178.8540  146.1680 C   0  0  0  0  0  0  0  0  0  0  0  0
  187.9100  176.8990  147.9530 C   0  0  0  0  0  1  0  0  0  0  0  0
  188.2870  178.0170  146.9960 C   0  0  1  0  0  3  0  0  0  0  0  0
  189.6240  177.7100  146.3460 C   0  0  0  0  0  2  0  0  0  0  0  0
  189.5690  178.0140  144.9230 N   0  0  0  0  0  2  0  0  0  0  0  0
  189.8330  176.7740  144.2060 C   0  0  0  0  0  2  0  0  0  0  0  0
  191.2820  176.6700  143.8720 C   0  0  0  0  0  0  0  0  0  0  0  0
  191.9960  177.8110  143.5170 O   0  0  0  0  0  0  0  0  0  0  0  0
  191.8640  175.5560  143.9300 O   0  0  0  0  0  1  0  0  0  0  0  0
  188.4980  178.0880  138.8130 C   0  0  0  0  0  2  0  0  0  0  0  0
  189.2900  176.8730  138.6960 N   0  0  0  0  0  2  0  0  0  0  0  0
  193.4570  176.8740  139.1670 N   0  0  0  0  0  0  0  0  0  0  0  0
  192.6780  177.4270  140.1320 C   0  0  0  0  0  3  0  0  0  0  0  0
  191.5260  176.1980  137.9040 C   0  0  0  0  0  0  0  0  0  0  0  0
  192.9390  176.2890  138.0510 C   0  0  0  0  0  0  0  0  0  0  0  0
  190.7110  176.8290  138.8710 C   0  0  0  0  0  0  0  0  0  0  0  0
  191.2950  177.4270  139.9930 C   0  0  0  0  0  3  0  0  0  0  0  0
  190.8870  175.4870  136.7290 C   0  0  2  0  0  3  0  0  0  0  0  0
  188.9140  174.1340  136.1050 C   0  0  0  0  0  1  0  0  0  0  0  0
  189.9370  174.3880  137.1930 C   0  0  1  0  0  3  0  0  0  0  0  0
  191.3070  174.0260  136.6850 C   0  0  0  0  0  2  0  0  0  0  0  0
  194.6920  174.6480  137.2430 N   0  0  0  0  0  2  0  0  0  0  0  0
  195.6050  174.1350  136.2340 C   0  0  0  0  0  1  0  0  0  0  0  0
  193.9620  176.4200  135.9230 O   0  0  0  0  0  0  0  0  0  0  0  0
  193.8980  175.8180  137.0270 C   0  0  0  0  0  0  0  0  0  0  0  0
  1  3  1  0  0  0  0
  2 33  1  6  0  0  0
  2  1  1  0  0  0  0
  3 19  1  0  0  0  0
  4  2  1  0  0  0  0
  4  5  1  0  0  0  0
  5  3  2  0  0  0  0
  6  9  1  0  0  0  0
  7  6  1  0  0  0  0
  7  8  2  0  0  0  0
  9  5  1  0  0  0  0
  9 10  2  0  0  0  0
 11 12  1  0  0  0  0
 11  7  1  0  0  0  0
 13 14  1  0  0  0  0
 14 18  1  0  0  0  0
 15 16  1  0  0  0  0
 16 18  1  0  0  0  0
 16 12  1  0  0  0  0
 17 13  2  0  0  0  0
 17 15  1  0  0  0  0
 19 20  1  0  0  0  0
 20 22  1  0  0  0  0
 21 24  1  0  0  0  0
 21 26  1  0  0  0  0
 22 24  1  0  0  0  0
 24 23  2  0  0  0  0
 26 25  1  1  0  0  0
 27 26  1  0  0  0  0
 28 27  1  0  0  0  0
 29 28  1  0  0  0  0
 30 32  1  0  0  0  0
 30 29  1  0  0  0  0
 31 30  2  0  0  0  0
 34 33  1  0  0  0  0
 34 39  1  0  0  0  0
 35 36  1  0  0  0  0
 37 38  1  0  0  0  0
 37 39  2  0  0  0  0
 38 35  2  0  0  0  0
 39 40  1  0  0  0  0
 40 36  2  0  0  0  0
 41 43  1  0  0  0  0
 41 37  1  1  0  0  0
 43 42  1  6  0  0  0
 44 41  1  0  0  0  0
 44 43  1  0  0  0  0
 46 45  1  0  0  0  0
 47 48  2  0  0  0  0
 48 45  1  0  0  0  0
 48 38  1  0  0  0  0
M  END
>  <MODEL>
3

>  <REMARK>
 VINA RESULT:      -7.8      3.207      8.024
  Name = 
  17 active torsions:
  status: ('A' for Active; 'I' for Inactive)
    1  A    between atoms: N_1  and  C_16
    2  A    between atoms: C_2  and  C_23
    3  A    between atoms: C_4  and  C_18
    4  A    between atoms: C_4  and  C_42
    5  A    between atoms: C_6  and  N_9
    6  A    between atoms: C_6  and  N_32
    7  A    between atoms: C_7  and  C_38
    8  A    between atoms: C_13  and  C_30
    9  A    between atoms: C_13  and  N_39
   10  A    between atoms: C_16  and  C_34
   11  A    between atoms: C_25  and  C_47
   12  A    between atoms: C_28  and  C_46
   13  A    between atoms: N_31  and  C_42
   14  A    between atoms: N_32  and  C_37
   15  A    between atoms: C_34  and  N_45
   16  A    between atoms: C_38  and  N_45
   17  A    between atoms: N_39  and  C_40
                            x       y       z     vdW  Elec       q    Type
                         _______ _______ _______ _____ _____    ______ ____

>  <TORSDO>
F 17

$$$$
=
 OpenBabel10222420533D

 48 51  0  0  1  0  0  0  0  0999 V2000
  184.2330  178.7180  140.4490 S   0  0  0  0  0  0  0  0  0  0  0  0
  182.5940  178.3940  141.1750 C   0  0  1  0  0  3  0  0  0  0  0  0
  184.9050  178.6730  142.1050 C   0  0  0  0  0  0  0  0  0  0  0  0
  182.6060  178.9430  142.5920 C   0  0  0  0  0  2  0  0  0  0  0  0
  184.0060  178.8060  143.0780 C   0  0  0  0  0  0  0  0  0  0  0  0
  185.6120  178.4100  144.9680 N   0  0  0  0  0  2  0  0  0  0  0  0
  186.0890  178.4910  146.3160 C   0  0  0  0  0  0  0  0  0  0  0  0
  185.4110  179.0700  147.2090 O   0  0  0  0  0  0  0  0  0  0  0  0
  184.3110  178.8150  144.5250 C   0  0  0  0  0  0  0  0  0  0  0  0
  183.4360  179.1590  145.3630 O   0  0  0  0  0  0  0  0  0  0  0  0
  187.3890  177.8650  146.6800 C   0  0  0  0  0  2  0  0  0  0  0  0
  188.2090  177.5720  145.4350 C   0  0  0  0  0  2  0  0  0  0  0  0
  192.1070  176.3530  146.4600 N   0  0  0  0  0  0  0  0  0  0  0  0
  191.6840  176.2500  145.0630 C   0  0  0  0  0  2  0  0  0  0  0  0
  189.9390  177.0890  147.1820 C   0  0  0  0  0  2  0  0  0  0  0  0
  189.5880  177.2800  145.8030 N   0  0  0  0  0  0  0  0  0  0  0  0
  191.1640  176.6650  147.5000 C   0  0  0  0  0  3  0  0  0  0  0  0
  190.6290  177.3150  144.7710 C   0  0  0  0  0  2  0  0  0  0  0  0
  186.2970  178.4380  142.3550 N   0  0  0  0  0  2  0  0  0  0  0  0
  187.3390  178.8010  141.4060 C   0  0  0  0  0  2  0  0  0  0  0  0
  188.7320  177.2110  139.3940 N   0  0  0  0  0  2  0  0  0  0  0  0
  188.5570  178.0670  141.7140 N   0  0  0  0  0  2  0  0  0  0  0  0
  190.2370  176.6030  141.0740 O   0  0  0  0  0  0  0  0  0  0  0  0
  189.2210  177.2650  140.7390 C   0  0  0  0  0  0  0  0  0  0  0  0
  188.4900  176.4000  137.1160 C   0  0  0  0  0  1  0  0  0  0  0  0
  189.3540  176.3920  138.3650 C   0  0  1  0  0  3  0  0  0  0  0  0
  190.7290  176.9490  138.0440 C   0  0  0  0  0  2  0  0  0  0  0  0
  191.2910  176.2590  136.8920 N   0  0  0  0  0  2  0  0  0  0  0  0
  192.2950  175.3300  137.3910 C   0  0  0  0  0  2  0  0  0  0  0  0
  193.6050  176.0240  137.5510 C   0  0  0  0  0  0  0  0  0  0  0  0
  194.1520  176.7290  136.4830 O   0  0  0  0  0  0  0  0  0  0  0  0
  194.2060  175.9890  138.6560 O   0  0  0  0  0  1  0  0  0  0  0  0
  181.4970  179.0570  140.3640 C   0  0  0  0  0  2  0  0  0  0  0  0
  181.3060  178.3310  139.1170 N   0  0  0  0  0  2  0  0  0  0  0  0
  180.1440  174.3030  138.9990 N   0  0  0  0  0  0  0  0  0  0  0  0
  179.7840  175.0680  140.0610 C   0  0  0  0  0  3  0  0  0  0  0  0
  181.1870  176.1800  137.9160 C   0  0  0  0  0  0  0  0  0  0  0  0
  180.8520  174.7960  137.9450 C   0  0  0  0  0  0  0  0  0  0  0  0
  180.8740  176.9670  139.0480 C   0  0  0  0  0  0  0  0  0  0  0  0
  180.1560  176.4070  140.1110 C   0  0  0  0  0  3  0  0  0  0  0  0
  181.9000  176.8070  136.7360 C   0  0  2  0  0  3  0  0  0  0  0  0
  183.9450  176.6050  135.3600 C   0  0  0  0  0  1  0  0  0  0  0  0
  183.3970  176.5100  136.7700 C   0  0  1  0  0  3  0  0  0  0  0  0
  182.8920  177.8620  137.2000 C   0  0  0  0  0  2  0  0  0  0  0  0
  182.5200  173.1440  136.9920 N   0  0  0  0  0  2  0  0  0  0  0  0
  182.9330  172.1570  136.0070 C   0  0  0  0  0  1  0  0  0  0  0  0
  180.4780  173.5680  135.9580 O   0  0  0  0  0  0  0  0  0  0  0  0
  181.2700  173.8340  136.9020 C   0  0  0  0  0  0  0  0  0  0  0  0
  1  2  1  0  0  0  0
  1  3  1  0  0  0  0
  2 33  1  6  0  0  0
  2  4  1  0  0  0  0
  3 19  1  0  0  0  0
  3  5  2  0  0  0  0
  4  5  1  0  0  0  0
  5  9  1  0  0  0  0
  6  7  1  0  0  0  0
  7 11  1  0  0  0  0
  7  8  2  0  0  0  0
  9  6  1  0  0  0  0
  9 10  2  0  0  0  0
 12 16  1  0  0  0  0
 12 11  1  0  0  0  0
 13 17  2  0  0  0  0
 14 13  1  0  0  0  0
 15 17  1  0  0  0  0
 16 15  1  0  0  0  0
 18 14  1  0  0  0  0
 18 16  1  0  0  0  0
 20 22  1  0  0  0  0
 20 19  1  0  0  0  0
 21 24  1  0  0  0  0
 24 23  2  0  0  0  0
 24 22  1  0  0  0  0
 26 25  1  6  0  0  0
 26 21  1  0  0  0  0
 27 26  1  0  0  0  0
 28 29  1  0  0  0  0
 28 27  1  0  0  0  0
 29 30  1  0  0  0  0
 30 32  1  0  0  0  0
 31 30  2  0  0  0  0
 34 33  1  0  0  0  0
 35 36  1  0  0  0  0
 36 40  2  0  0  0  0
 37 38  1  0  0  0  0
 37 39  2  0  0  0  0
 38 35  2  0  0  0  0
 39 34  1  0  0  0  0
 39 40  1  0  0  0  0
 41 43  1  0  0  0  0
 41 44  1  0  0  0  0
 41 37  1  1  0  0  0
 43 42  1  6  0  0  0
 43 44  1  0  0  0  0
 46 45  1  0  0  0  0
 47 48  2  0  0  0  0
 48 45  1  0  0  0  0
 48 38  1  0  0  0  0
M  END
>  <MODEL>
4

>  <REMARK>
 VINA RESULT:      -7.7      2.244      8.754
  Name = 
  17 active torsions:
  status: ('A' for Active; 'I' for Inactive)
    1  A    between atoms: N_1  and  C_16
    2  A    between atoms: C_2  and  C_23
    3  A    between atoms: C_4  and  C_18
    4  A    between atoms: C_4  and  C_42
    5  A    between atoms: C_6  and  N_9
    6  A    between atoms: C_6  and  N_32
    7  A    between atoms: C_7  and  C_38
    8  A    between atoms: C_13  and  C_30
    9  A    between atoms: C_13  and  N_39
   10  A    between atoms: C_16  and  C_34
   11  A    between atoms: C_25  and  C_47
   12  A    between atoms: C_28  and  C_46
   13  A    between atoms: N_31  and  C_42
   14  A    between atoms: N_32  and  C_37
   15  A    between atoms: C_34  and  N_45
   16  A    between atoms: C_38  and  N_45
   17  A    between atoms: N_39  and  C_40
                            x       y       z     vdW  Elec       q    Type
                         _______ _______ _______ _____ _____    ______ ____

>  <TORSDO>
F 17

$$$$
=
 OpenBabel10222420533D

 48 51  0  0  1  0  0  0  0  0999 V2000
  185.1500  178.6660  140.8970 S   0  0  0  0  0  0  0  0  0  0  0  0
  186.7180  177.9010  141.4220 C   0  0  1  0  0  3  0  0  0  0  0  0
  185.7340  178.5560  139.2110 C   0  0  0  0  0  0  0  0  0  0  0  0
  187.7670  178.2520  140.3820 C   0  0  0  0  0  2  0  0  0  0  0  0
  187.0450  178.3620  139.0850 C   0  0  0  0  0  0  0  0  0  0  0  0
  188.2820  176.9760  137.3940 N   0  0  0  0  0  2  0  0  0  0  0  0
  188.8880  176.6940  136.1270 C   0  0  0  0  0  0  0  0  0  0  0  0
  188.8870  177.5540  135.2030 O   0  0  0  0  0  0  0  0  0  0  0  0
  187.7700  178.2520  137.8010 C   0  0  0  0  0  0  0  0  0  0  0  0
  187.9530  179.2670  137.0770 O   0  0  0  0  0  0  0  0  0  0  0  0
  189.5470  175.3790  135.8980 C   0  0  0  0  0  2  0  0  0  0  0  0
  189.8890  174.7150  137.2210 C   0  0  0  0  0  2  0  0  0  0  0  0
  193.9300  175.6840  137.8980 N   0  0  0  0  0  2  0  0  0  0  0  0
  192.9300  176.7490  137.9790 C   0  0  0  0  0  2  0  0  0  0  0  0
  192.3060  174.0530  137.2190 C   0  0  0  0  0  3  0  0  0  0  0  0
  191.2750  174.9880  137.5730 N   0  0  0  0  0  0  0  0  0  0  0  0
  193.5870  174.3800  137.3990 C   0  0  0  0  0  3  0  0  0  0  0  0
  191.5880  176.1550  138.4040 C   0  0  0  0  0  2  0  0  0  0  0  0
  184.8400  178.6000  138.0920 N   0  0  0  0  0  2  0  0  0  0  0  0
  183.6220  177.8060  138.0270 C   0  0  0  0  0  2  0  0  0  0  0  0
  181.7570  178.8560  140.0120 N   0  0  0  0  0  2  0  0  0  0  0  0
  182.5020  178.6590  137.6560 N   0  0  0  0  0  2  0  0  0  0  0  0
  180.5890  179.8300  138.2400 O   0  0  0  0  0  0  0  0  0  0  0  0
  181.5730  179.1460  138.6220 C   0  0  0  0  0  0  0  0  0  0  0  0
  179.4060  178.9870  140.6140 C   0  0  0  0  0  1  0  0  0  0  0  0
  180.8300  179.3070  141.0380 C   0  0  1  0  0  3  0  0  0  0  0  0
  181.1480  178.6050  142.3450 C   0  0  0  0  0  2  0  0  0  0  0  0
  181.8980  179.4950  143.2200 N   0  0  0  0  0  2  0  0  0  0  0  0
  182.4320  178.6840  144.3060 C   0  0  0  0  0  2  0  0  0  0  0  0
  183.7300  179.2460  144.7780 C   0  0  0  0  0  0  0  0  0  0  0  0
  184.4400  180.1280  143.9690 O   0  0  0  0  0  0  0  0  0  0  0  0
  184.1740  178.9380  145.9150 O   0  0  0  0  0  1  0  0  0  0  0  0
  187.1410  178.4070  142.7880 C   0  0  0  0  0  2  0  0  0  0  0  0
  187.5270  177.2830  143.6280 N   0  0  0  0  0  2  0  0  0  0  0  0
  191.4590  175.9870  144.2960 N   0  0  0  0  0  0  0  0  0  0  0  0
  190.8820  175.7640  143.0880 C   0  0  0  0  0  3  0  0  0  0  0  0
  189.5170  177.1690  145.0800 C   0  0  0  0  0  0  0  0  0  0  0  0
  190.8210  176.6430  145.3050 C   0  0  0  0  0  0  0  0  0  0  0  0
  188.8850  176.8840  143.8480 C   0  0  0  0  0  0  0  0  0  0  0  0
  189.5820  176.1940  142.8490 C   0  0  0  0  0  3  0  0  0  0  0  0
  188.7870  177.9790  146.1320 C   0  0  2  0  0  3  0  0  0  0  0  0
  188.2300  177.9960  148.5400 C   0  0  0  0  0  1  0  0  0  0  0  0
  188.3860  177.1110  147.3210 C   0  0  1  0  0  3  0  0  0  0  0  0
  187.3550  177.4930  146.2920 C   0  0  0  0  0  2  0  0  0  0  0  0
  192.0890  175.5650  147.2160 N   0  0  0  0  0  2  0  0  0  0  0  0
  192.8250  175.6290  148.4680 C   0  0  0  0  0  1  0  0  0  0  0  0
  191.6790  177.8550  147.1460 O   0  0  0  0  0  0  0  0  0  0  0  0
  191.5210  176.7280  146.6060 C   0  0  0  0  0  0  0  0  0  0  0  0
  1  2  1  0  0  0  0
  2 33  1  1  0  0  0
  3  1  1  0  0  0  0
  4  2  1  0  0  0  0
  5  3  2  0  0  0  0
  5  4  1  0  0  0  0
  6  9  1  0  0  0  0
  7  6  1  0  0  0  0
  8  7  2  0  0  0  0
  9  5  1  0  0  0  0
 10  9  2  0  0  0  0
 11  7  1  0  0  0  0
 11 12  1  0  0  0  0
 12 16  1  0  0  0  0
 13 14  1  0  0  0  0
 14 18  1  0  0  0  0
 15 17  2  0  0  0  0
 15 16  1  0  0  0  0
 16 18  1  0  0  0  0
 17 13  1  0  0  0  0
 19  3  1  0  0  0  0
 20 19  1  0  0  0  0
 21 26  1  0  0  0  0
 22 20  1  0  0  0  0
 22 24  1  0  0  0  0
 23 24  2  0  0  0  0
 24 21  1  0  0  0  0
 26 25  1  6  0  0  0
 26 27  1  0  0  0  0
 27 28  1  0  0  0  0
 28 29  1  0  0  0  0
 29 30  1  0  0  0  0
 30 32  1  0  0  0  0
 31 30  2  0  0  0  0
 33 34  1  0  0  0  0
 34 39  1  0  0  0  0
 35 38  1  0  0  0  0
 36 35  2  0  0  0  0
 37 38  2  0  0  0  0
 38 48  1  0  0  0  0
 39 37  1  0  0  0  0
 40 36  1  0  0  0  0
 40 39  2  0  0  0  0
 41 37  1  6  0  0  0
 41 44  1  0  0  0  0
 41 43  1  0  0  0  0
 43 42  1  1  0  0  0
 44 43  1  0  0  0  0
 45 46  1  0  0  0  0
 48 47  2  0  0  0  0
 48 45  1  0  0  0  0
M  END
>  <MODEL>
5

>  <REMARK>
 VINA RESULT:      -7.5      2.667      7.285
  Name = 
  17 active torsions:
  status: ('A' for Active; 'I' for Inactive)
    1  A    between atoms: N_1  and  C_16
    2  A    between atoms: C_2  and  C_23
    3  A    between atoms: C_4  and  C_18
    4  A    between atoms: C_4  and  C_42
    5  A    between atoms: C_6  and  N_9
    6  A    between atoms: C_6  and  N_32
    7  A    between atoms: C_7  and  C_38
    8  A    between atoms: C_13  and  C_30
    9  A    between atoms: C_13  and  N_39
   10  A    between atoms: C_16  and  C_34
   11  A    between atoms: C_25  and  C_47
   12  A    between atoms: C_28  and  C_46
   13  A    between atoms: N_31  and  C_42
   14  A    between atoms: N_32  and  C_37
   15  A    between atoms: C_34  and  N_45
   16  A    between atoms: C_38  and  N_45
   17  A    between atoms: N_39  and  C_40
                            x       y       z     vdW  Elec       q    Type
                         _______ _______ _______ _____ _____    ______ ____

>  <TORSDO>
F 17

$$$$
=
 OpenBabel10222420533D

 48 51  0  0  1  0  0  0  0  0999 V2000
  182.9810  178.2870  139.3830 S   0  0  0  0  0  0  0  0  0  0  0  0
  184.5060  179.2830  139.4080 C   0  0  1  0  0  3  0  0  0  0  0  0
  182.9750  178.3670  141.1690 C   0  0  0  0  0  0  0  0  0  0  0  0
  185.2090  179.0080  140.7260 C   0  0  0  0  0  2  0  0  0  0  0  0
  184.1350  178.7240  141.7170 C   0  0  0  0  0  0  0  0  0  0  0  0
  185.5090  178.1640  143.7440 N   0  0  0  0  0  2  0  0  0  0  0  0
  185.9500  178.2950  145.1000 C   0  0  0  0  0  0  0  0  0  0  0  0
  185.4390  179.1570  145.8670 O   0  0  0  0  0  0  0  0  0  0  0  0
  184.3890  178.8490  143.1680 C   0  0  0  0  0  0  0  0  0  0  0  0
  183.6240  179.5340  143.8980 O   0  0  0  0  0  0  0  0  0  0  0  0
  187.0090  177.3900  145.6250 C   0  0  0  0  0  2  0  0  0  0  0  0
  188.1770  178.1930  146.1720 C   0  0  0  0  0  2  0  0  0  0  0  0
  191.9010  176.2310  146.0790 N   0  0  0  0  0  2  0  0  0  0  0  0
  191.3650  176.6570  147.3720 C   0  0  0  0  0  2  0  0  0  0  0  0
  190.0880  177.2330  144.8670 C   0  0  0  0  0  3  0  0  0  0  0  0
  189.3980  177.4010  146.1150 N   0  0  0  0  0  0  0  0  0  0  0  0
  191.2850  176.6450  144.8470 C   0  0  0  0  0  3  0  0  0  0  0  0
  189.8380  176.6730  147.3090 C   0  0  0  0  0  2  0  0  0  0  0  0
  181.7870  178.1360  141.9370 N   0  0  0  0  0  2  0  0  0  0  0  0
  180.4500  178.2840  141.3820 C   0  0  0  0  0  2  0  0  0  0  0  0
  180.1410  180.3330  139.3270 N   0  0  0  0  0  2  0  0  0  0  0  0
  179.9380  179.6110  141.6890 N   0  0  0  0  0  2  0  0  0  0  0  0
  179.4240  181.7710  141.0220 O   0  0  0  0  0  0  0  0  0  0  0  0
  179.8160  180.6220  140.6900 C   0  0  0  0  0  0  0  0  0  0  0  0
  181.3800  182.0730  138.1660 C   0  0  0  0  0  1  0  0  0  0  0  0
  180.0580  181.3310  138.2710 C   0  0  1  0  0  3  0  0  0  0  0  0
  179.7460  180.6440  136.9550 C   0  0  0  0  0  2  0  0  0  0  0  0
  180.7190  179.5910  136.6980 N   0  0  0  0  0  2  0  0  0  0  0  0
  180.0060  178.4880  136.0680 C   0  0  0  0  0  2  0  0  0  0  0  0
  180.1770  177.2410  136.8660 C   0  0  0  0  0  0  0  0  0  0  0  0
  181.2690  176.4110  136.6340 O   0  0  0  0  0  0  0  0  0  0  0  0
  179.3450  176.9490  137.7650 O   0  0  0  0  0  1  0  0  0  0  0  0
  185.4110  178.9230  138.2450 C   0  0  0  0  0  2  0  0  0  0  0  0
  186.5370  178.1370  138.7290 N   0  0  0  0  0  2  0  0  0  0  0  0
  188.6740  175.3810  136.3990 N   0  0  0  0  0  0  0  0  0  0  0  0
  187.3640  175.6060  136.1270 C   0  0  0  0  0  3  0  0  0  0  0  0
  188.6660  177.0390  138.1410 C   0  0  0  0  0  0  0  0  0  0  0  0
  189.3420  176.0370  137.3890 C   0  0  0  0  0  0  0  0  0  0  0  0
  187.2850  177.2310  137.9090 C   0  0  0  0  0  0  0  0  0  0  0  0
  186.6440  176.5220  136.8860 C   0  0  0  0  0  3  0  0  0  0  0  0
  189.3740  177.8610  139.1990 C   0  0  2  0  0  3  0  0  0  0  0  0
  190.9480  177.6610  141.0950 C   0  0  0  0  0  1  0  0  0  0  0  0
  189.7790  177.0010  140.3920 C   0  0  1  0  0  3  0  0  0  0  0  0
  188.5700  177.8920  140.4890 C   0  0  0  0  0  2  0  0  0  0  0  0
  191.8180  176.5570  137.5350 N   0  0  0  0  0  2  0  0  0  0  0  0
  193.1930  176.1910  137.8340 C   0  0  0  0  0  1  0  0  0  0  0  0
  190.9690  174.4510  138.0480 O   0  0  0  0  0  0  0  0  0  0  0  0
  190.7390  175.6240  137.6500 C   0  0  0  0  0  0  0  0  0  0  0  0
  1  2  1  0  0  0  0
  1  3  1  0  0  0  0
  2 33  1  6  0  0  0
  2  4  1  0  0  0  0
  3  5  2  0  0  0  0
  3 19  1  0  0  0  0
  4  5  1  0  0  0  0
  5  9  1  0  0  0  0
  6  7  1  0  0  0  0
  7 11  1  0  0  0  0
  7  8  2  0  0  0  0
  9  6  1  0  0  0  0
  9 10  2  0  0  0  0
 11 12  1  0  0  0  0
 13 14  1  0  0  0  0
 15 16  1  0  0  0  0
 16 12  1  0  0  0  0
 16 18  1  0  0  0  0
 17 15  2  0  0  0  0
 17 13  1  0  0  0  0
 18 14  1  0  0  0  0
 20 22  1  0  0  0  0
 20 19  1  0  0  0  0
 21 24  1  0  0  0  0
 24 23  2  0  0  0  0
 24 22  1  0  0  0  0
 26 25  1  6  0  0  0
 26 21  1  0  0  0  0
 27 26  1  0  0  0  0
 28 27  1  0  0  0  0
 29 28  1  0  0  0  0
 29 30  1  0  0  0  0
 30 32  1  0  0  0  0
 31 30  2  0  0  0  0
 33 34  1  0  0  0  0
 35 38  1  0  0  0  0
 36 35  2  0  0  0  0
 36 40  1  0  0  0  0
 38 48  1  0  0  0  0
 38 37  2  0  0  0  0
 39 37  1  0  0  0  0
 39 34  1  0  0  0  0
 40 39  2  0  0  0  0
 41 37  1  6  0  0  0
 41 43  1  0  0  0  0
 41 44  1  0  0  0  0
 43 44  1  0  0  0  0
 43 42  1  1  0  0  0
 45 48  1  0  0  0  0
 45 46  1  0  0  0  0
 48 47  2  0  0  0  0
M  END
>  <MODEL>
6

>  <REMARK>
 VINA RESULT:      -7.5      2.706      9.290
  Name = 
  17 active torsions:
  status: ('A' for Active; 'I' for Inactive)
    1  A    between atoms: N_1  and  C_16
    2  A    between atoms: C_2  and  C_23
    3  A    between atoms: C_4  and  C_18
    4  A    between atoms: C_4  and  C_42
    5  A    between atoms: C_6  and  N_9
    6  A    between atoms: C_6  and  N_32
    7  A    between atoms: C_7  and  C_38
    8  A    between atoms: C_13  and  C_30
    9  A    between atoms: C_13  and  N_39
   10  A    between atoms: C_16  and  C_34
   11  A    between atoms: C_25  and  C_47
   12  A    between atoms: C_28  and  C_46
   13  A    between atoms: N_31  and  C_42
   14  A    between atoms: N_32  and  C_37
   15  A    between atoms: C_34  and  N_45
   16  A    between atoms: C_38  and  N_45
   17  A    between atoms: N_39  and  C_40
                            x       y       z     vdW  Elec       q    Type
                         _______ _______ _______ _____ _____    ______ ____

>  <TORSDO>
F 17

$$$$
=
 OpenBabel10222420533D

 48 51  0  0  1  0  0  0  0  0999 V2000
  183.2960  178.8890  142.6260 S   0  0  0  0  0  0  0  0  0  0  0  0
  184.9770  178.1910  142.7160 C   0  0  1  0  0  3  0  0  0  0  0  0
  183.4280  178.8120  140.8450 C   0  0  0  0  0  0  0  0  0  0  0  0
  185.7060  178.5940  141.4460 C   0  0  0  0  0  2  0  0  0  0  0  0
  184.6690  178.6770  140.3810 C   0  0  0  0  0  0  0  0  0  0  0  0
  186.4250  178.5110  138.5940 N   0  0  0  0  0  2  0  0  0  0  0  0
  186.9240  178.3050  137.2660 C   0  0  0  0  0  0  0  0  0  0  0  0
  186.1380  178.0530  136.3110 O   0  0  0  0  0  0  0  0  0  0  0  0
  185.0410  178.6050  138.9520 C   0  0  0  0  0  0  0  0  0  0  0  0
  184.1570  178.6430  138.0560 O   0  0  0  0  0  0  0  0  0  0  0  0
  188.3840  178.4130  136.9990 C   0  0  0  0  0  2  0  0  0  0  0  0
  188.8380  177.3130  136.0540 C   0  0  0  0  0  2  0  0  0  0  0  0
  191.6650  174.8660  137.9920 N   0  0  0  0  0  2  0  0  0  0  0  0
  191.2640  176.1200  138.6330 C   0  0  0  0  0  2  0  0  0  0  0  0
  190.3460  175.3120  136.0360 C   0  0  0  0  0  3  0  0  0  0  0  0
  189.7140  176.3840  136.7540 N   0  0  0  0  0  0  0  0  0  0  0  0
  191.2690  174.5630  136.6430 C   0  0  0  0  0  3  0  0  0  0  0  0
  189.8390  176.4740  138.2120 C   0  0  0  0  0  2  0  0  0  0  0  0
  182.2740  178.8210  139.9960 N   0  0  0  0  0  2  0  0  0  0  0  0
  180.9300  178.5650  140.4910 C   0  0  0  0  0  2  0  0  0  0  0  0
  180.9450  176.8240  138.1490 N   0  0  0  0  0  2  0  0  0  0  0  0
  180.7140  177.1300  140.5980 N   0  0  0  0  0  2  0  0  0  0  0  0
  180.4390  175.0590  139.5920 O   0  0  0  0  0  0  0  0  0  0  0  0
  180.6900  176.2840  139.4500 C   0  0  0  0  0  0  0  0  0  0  0  0
  180.2760  176.8080  135.8120 C   0  0  0  0  0  1  0  0  0  0  0  0
  180.9100  176.0140  136.9410 C   0  0  1  0  0  3  0  0  0  0  0  0
  182.3250  175.6180  136.5620 C   0  0  0  0  0  2  0  0  0  0  0  0
  182.5660  174.2260  136.9130 N   0  0  0  0  0  2  0  0  0  0  0  0
  183.9100  173.8920  136.4630 C   0  0  0  0  0  2  0  0  0  0  0  0
  184.4470  172.7450  137.2490 C   0  0  0  0  0  0  0  0  0  0  0  0
  185.3040  172.9780  138.3210 O   0  0  0  0  0  1  0  0  0  0  0  0
  184.1100  171.5680  136.9580 O   0  0  0  0  0  0  0  0  0  0  0  0
  185.7180  178.7100  143.9340 C   0  0  0  0  0  2  0  0  0  0  0  0
  186.3790  177.6030  144.6100 N   0  0  0  0  0  2  0  0  0  0  0  0
  190.2410  176.2040  143.7680 N   0  0  0  0  0  0  0  0  0  0  0  0
  189.2510  176.0090  142.8600 C   0  0  0  0  0  3  0  0  0  0  0  0
  188.7630  177.4250  145.2190 C   0  0  0  0  0  0  0  0  0  0  0  0
  190.0420  176.8640  144.9430 C   0  0  0  0  0  0  0  0  0  0  0  0
  187.7100  177.1690  144.3100 C   0  0  0  0  0  0  0  0  0  0  0  0
  187.9670  176.4740  143.1230 C   0  0  0  0  0  3  0  0  0  0  0  0
  188.4980  178.2400  146.4670 C   0  0  2  0  0  3  0  0  0  0  0  0
  188.8920  178.2530  148.9080 C   0  0  0  0  0  1  0  0  0  0  0  0
  188.5600  177.3730  147.7210 C   0  0  1  0  0  3  0  0  0  0  0  0
  187.2240  177.7770  147.1570 C   0  0  0  0  0  2  0  0  0  0  0  0
  191.3370  175.9250  146.9070 N   0  0  0  0  0  2  0  0  0  0  0  0
  192.4710  175.9250  147.8180 C   0  0  0  0  0  1  0  0  0  0  0  0
  192.0530  177.8130  145.7490 O   0  0  0  0  0  0  0  0  0  0  0  0
  191.1780  176.9180  145.8900 C   0  0  0  0  0  0  0  0  0  0  0  0
  1  2  1  0  0  0  0
  2 33  1  1  0  0  0
  3  1  1  0  0  0  0
  4  2  1  0  0  0  0
  5  3  2  0  0  0  0
  5  4  1  0  0  0  0
  6  9  1  0  0  0  0
  7  6  1  0  0  0  0
  8  7  2  0  0  0  0
  9  5  1  0  0  0  0
 10  9  2  0  0  0  0
 11  7  1  0  0  0  0
 12 16  1  0  0  0  0
 12 11  1  0  0  0  0
 13 14  1  0  0  0  0
 15 17  2  0  0  0  0
 15 16  1  0  0  0  0
 16 18  1  0  0  0  0
 17 13  1  0  0  0  0
 18 14  1  0  0  0  0
 19 20  1  0  0  0  0
 19  3  1  0  0  0  0
 20 22  1  0  0  0  0
 21 24  1  0  0  0  0
 24 23  2  0  0  0  0
 24 22  1  0  0  0  0
 26 25  1  6  0  0  0
 26 21  1  0  0  0  0
 27 28  1  0  0  0  0
 27 26  1  0  0  0  0
 29 28  1  0  0  0  0
 29 30  1  0  0  0  0
 30 31  1  0  0  0  0
 32 30  2  0  0  0  0
 33 34  1  0  0  0  0
 35 38  1  0  0  0  0
 36 40  1  0  0  0  0
 36 35  2  0  0  0  0
 38 37  2  0  0  0  0
 38 48  1  0  0  0  0
 39 34  1  0  0  0  0
 39 37  1  0  0  0  0
 40 39  2  0  0  0  0
 41 37  1  6  0  0  0
 41 44  1  0  0  0  0
 41 43  1  0  0  0  0
 43 42  1  1  0  0  0
 44 43  1  0  0  0  0
 45 46  1  0  0  0  0
 47 48  2  0  0  0  0
 48 45  1  0  0  0  0
M  END
>  <MODEL>
7

>  <REMARK>
 VINA RESULT:      -7.4      2.330      6.118
  Name = 
  17 active torsions:
  status: ('A' for Active; 'I' for Inactive)
    1  A    between atoms: N_1  and  C_16
    2  A    between atoms: C_2  and  C_23
    3  A    between atoms: C_4  and  C_18
    4  A    between atoms: C_4  and  C_42
    5  A    between atoms: C_6  and  N_9
    6  A    between atoms: C_6  and  N_32
    7  A    between atoms: C_7  and  C_38
    8  A    between atoms: C_13  and  C_30
    9  A    between atoms: C_13  and  N_39
   10  A    between atoms: C_16  and  C_34
   11  A    between atoms: C_25  and  C_47
   12  A    between atoms: C_28  and  C_46
   13  A    between atoms: N_31  and  C_42
   14  A    between atoms: N_32  and  C_37
   15  A    between atoms: C_34  and  N_45
   16  A    between atoms: C_38  and  N_45
   17  A    between atoms: N_39  and  C_40
                            x       y       z     vdW  Elec       q    Type
                         _______ _______ _______ _____ _____    ______ ____

>  <TORSDO>
F 17

$$$$
=
 OpenBabel10222420533D

 48 51  0  0  1  0  0  0  0  0999 V2000
  185.7760  178.9150  141.3090 S   0  0  0  0  0  0  0  0  0  0  0  0
  185.1120  178.3610  139.7060 C   0  0  1  0  0  3  0  0  0  0  0  0
  184.1300  178.7330  141.9820 C   0  0  0  0  0  0  0  0  0  0  0  0
  183.6410  178.7380  139.6670 C   0  0  0  0  0  2  0  0  0  0  0  0
  183.1580  178.6680  141.0730 C   0  0  0  0  0  0  0  0  0  0  0  0
  180.9890  177.4250  140.8320 N   0  0  0  0  0  2  0  0  0  0  0  0
  179.6290  177.0970  141.1410 C   0  0  0  0  0  0  0  0  0  0  0  0
  179.0050  177.7120  142.0500 O   0  0  0  0  0  0  0  0  0  0  0  0
  181.7170  178.5330  141.3760 C   0  0  0  0  0  0  0  0  0  0  0  0
  181.1270  179.3890  142.0890 O   0  0  0  0  0  0  0  0  0  0  0  0
  178.9310  176.0330  140.3690 C   0  0  0  0  0  2  0  0  0  0  0  0
  178.9960  176.3230  138.8790 C   0  0  0  0  0  2  0  0  0  0  0  0
  181.1870  173.1200  137.2440 N   0  0  0  0  0  0  0  0  0  0  0  0
  179.9590  172.8260  137.9840 C   0  0  0  0  0  2  0  0  0  0  0  0
  181.0490  175.4680  137.7230 C   0  0  0  0  0  2  0  0  0  0  0  0
  179.7090  175.2540  138.1930 N   0  0  0  0  0  0  0  0  0  0  0  0
  181.7530  174.4430  137.2410 C   0  0  0  0  0  3  0  0  0  0  0  0
  179.0010  174.0100  137.8720 C   0  0  0  0  0  2  0  0  0  0  0  0
  183.8940  178.5950  143.3890 N   0  0  0  0  0  2  0  0  0  0  0  0
  184.2760  179.6140  144.3550 C   0  0  0  0  0  2  0  0  0  0  0  0
  186.7530  178.0970  144.6340 N   0  0  0  0  0  2  0  0  0  0  0  0
  184.6540  178.9820  145.6090 N   0  0  0  0  0  2  0  0  0  0  0  0
  186.0980  177.6380  146.8280 O   0  0  0  0  0  0  0  0  0  0  0  0
  185.8490  178.2140  145.7370 C   0  0  0  0  0  0  0  0  0  0  0  0
  188.0350  176.3630  143.5130 C   0  0  0  0  0  1  0  0  0  0  0  0
  187.9740  177.3090  144.7000 C   0  0  1  0  0  3  0  0  0  0  0  0
  189.1730  178.2390  144.6790 C   0  0  0  0  0  2  0  0  0  0  0  0
  190.2670  177.6610  145.4470 N   0  0  0  0  0  2  0  0  0  0  0  0
  191.4960  177.9150  144.7080 C   0  0  0  0  0  2  0  0  0  0  0  0
  191.6560  176.9130  143.6150 C   0  0  0  0  0  0  0  0  0  0  0  0
  191.5810  175.5530  143.9030 O   0  0  0  0  0  1  0  0  0  0  0  0
  191.8380  177.2960  142.4310 O   0  0  0  0  0  0  0  0  0  0  0  0
  185.8510  179.0150  138.5540 C   0  0  0  0  0  2  0  0  0  0  0  0
  186.5870  178.0040  137.8090 N   0  0  0  0  0  2  0  0  0  0  0  0
  190.4730  176.7670  138.7870 N   0  0  0  0  0  0  0  0  0  0  0  0
  189.9190  177.8090  139.4580 C   0  0  0  0  0  3  0  0  0  0  0  0
  188.4570  176.4220  137.5230 C   0  0  0  0  0  0  0  0  0  0  0  0
  189.8070  176.0800  137.8170 C   0  0  0  0  0  0  0  0  0  0  0  0
  187.8960  177.5470  138.1690 C   0  0  0  0  0  0  0  0  0  0  0  0
  188.6290  178.2260  139.1490 C   0  0  0  0  0  3  0  0  0  0  0  0
  187.6360  175.6440  136.5150 C   0  0  2  0  0  3  0  0  0  0  0  0
  185.3570  174.7740  136.1120 C   0  0  0  0  0  1  0  0  0  0  0  0
  186.4180  175.0000  137.1700 C   0  0  1  0  0  3  0  0  0  0  0  0
  187.6270  174.1620  136.8510 C   0  0  0  0  0  2  0  0  0  0  0  0
  191.2480  175.3290  135.8730 N   0  0  0  0  0  2  0  0  0  0  0  0
  192.0360  174.3320  135.1660 C   0  0  0  0  0  1  0  0  0  0  0  0
  190.6540  173.8820  137.5970 O   0  0  0  0  0  0  0  0  0  0  0  0
  190.5610  175.0330  137.0920 C   0  0  0  0  0  0  0  0  0  0  0  0
  1  3  1  0  0  0  0
  2 33  1  6  0  0  0
  2  1  1  0  0  0  0
  3 19  1  0  0  0  0
  4  2  1  0  0  0  0
  4  5  1  0  0  0  0
  5  9  1  0  0  0  0
  5  3  2  0  0  0  0
  6  7  1  0  0  0  0
  6  9  1  0  0  0  0
  7  8  2  0  0  0  0
  9 10  2  0  0  0  0
 11  7  1  0  0  0  0
 12 11  1  0  0  0  0
 13 14  1  0  0  0  0
 15 16  1  0  0  0  0
 16 12  1  0  0  0  0
 17 13  2  0  0  0  0
 17 15  1  0  0  0  0
 18 14  1  0  0  0  0
 18 16  1  0  0  0  0
 19 20  1  0  0  0  0
 20 22  1  0  0  0  0
 21 26  1  0  0  0  0
 21 24  1  0  0  0  0
 22 24  1  0  0  0  0
 24 23  2  0  0  0  0
 26 25  1  6  0  0  0
 27 26  1  0  0  0  0
 27 28  1  0  0  0  0
 29 28  1  0  0  0  0
 30 31  1  0  0  0  0
 30 29  1  0  0  0  0
 32 30  2  0  0  0  0
 34 39  1  0  0  0  0
 34 33  1  0  0  0  0
 35 36  1  0  0  0  0
 37 38  1  0  0  0  0
 37 39  2  0  0  0  0
 38 35  2  0  0  0  0
 39 40  1  0  0  0  0
 40 36  2  0  0  0  0
 41 44  1  0  0  0  0
 41 43  1  0  0  0  0
 41 37  1  1  0  0  0
 43 42  1  6  0  0  0
 44 43  1  0  0  0  0
 45 48  1  0  0  0  0
 46 45  1  0  0  0  0
 48 47  2  0  0  0  0
 48 38  1  0  0  0  0
M  END
>  <MODEL>
8

>  <REMARK>
 VINA RESULT:      -7.4      2.360      6.853
  Name = 
  17 active torsions:
  status: ('A' for Active; 'I' for Inactive)
    1  A    between atoms: N_1  and  C_16
    2  A    between atoms: C_2  and  C_23
    3  A    between atoms: C_4  and  C_18
    4  A    between atoms: C_4  and  C_42
    5  A    between atoms: C_6  and  N_9
    6  A    between atoms: C_6  and  N_32
    7  A    between atoms: C_7  and  C_38
    8  A    between atoms: C_13  and  C_30
    9  A    between atoms: C_13  and  N_39
   10  A    between atoms: C_16  and  C_34
   11  A    between atoms: C_25  and  C_47
   12  A    between atoms: C_28  and  C_46
   13  A    between atoms: N_31  and  C_42
   14  A    between atoms: N_32  and  C_37
   15  A    between atoms: C_34  and  N_45
   16  A    between atoms: C_38  and  N_45
   17  A    between atoms: N_39  and  C_40
                            x       y       z     vdW  Elec       q    Type
                         _______ _______ _______ _____ _____    ______ ____

>  <TORSDO>
F 17

$$$$
=
 OpenBabel10222420533D

 48 51  0  0  1  0  0  0  0  0999 V2000
  187.5110  178.8560  141.3590 S   0  0  0  0  0  0  0  0  0  0  0  0
  187.2280  177.9290  139.8170 C   0  0  1  0  0  3  0  0  0  0  0  0
  185.7360  178.9760  141.5380 C   0  0  0  0  0  0  0  0  0  0  0  0
  185.8900  178.3770  139.2540 C   0  0  0  0  0  2  0  0  0  0  0  0
  185.0440  178.7290  140.4270 C   0  0  0  0  0  0  0  0  0  0  0  0
  182.9760  179.5240  139.2440 N   0  0  0  0  0  2  0  0  0  0  0  0
  181.5780  179.5550  138.9340 C   0  0  0  0  0  0  0  0  0  0  0  0
  180.7660  178.7910  139.5270 O   0  0  0  0  0  0  0  0  0  0  0  0
  183.5710  178.7780  140.3130 C   0  0  0  0  0  0  0  0  0  0  0  0
  182.8420  178.1850  141.1530 O   0  0  0  0  0  0  0  0  0  0  0  0
  181.0660  180.5140  137.9180 C   0  0  0  0  0  2  0  0  0  0  0  0
  181.4470  181.9380  138.2860 C   0  0  0  0  0  2  0  0  0  0  0  0
  180.5800  184.5300  135.0830 N   0  0  0  0  0  0  0  0  0  0  0  0
  180.5930  183.0870  134.8350 C   0  0  0  0  0  2  0  0  0  0  0  0
  181.2910  184.2610  137.3600 C   0  0  0  0  0  2  0  0  0  0  0  0
  181.0280  182.8550  137.2350 N   0  0  0  0  0  0  0  0  0  0  0  0
  181.0510  185.0730  136.3280 C   0  0  0  0  0  3  0  0  0  0  0  0
  180.2220  182.3480  136.1190 C   0  0  0  0  0  2  0  0  0  0  0  0
  185.1150  179.2460  142.8010 N   0  0  0  0  0  2  0  0  0  0  0  0
  185.0960  178.2810  143.8900 C   0  0  0  0  0  2  0  0  0  0  0  0
  187.2010  178.1750  145.9090 N   0  0  0  0  0  2  0  0  0  0  0  0
  184.9800  178.9800  145.1610 N   0  0  0  0  0  2  0  0  0  0  0  0
  185.8160  179.4770  147.2650 O   0  0  0  0  0  0  0  0  0  0  0  0
  185.9950  178.9030  146.1600 C   0  0  0  0  0  0  0  0  0  0  0  0
  187.9230  176.9140  147.8570 C   0  0  0  0  0  1  0  0  0  0  0  0
  188.2590  178.0430  146.8980 C   0  0  1  0  0  3  0  0  0  0  0  0
  189.5700  177.7480  146.1940 C   0  0  0  0  0  2  0  0  0  0  0  0
  189.4530  178.0470  144.7740 N   0  0  0  0  0  2  0  0  0  0  0  0
  190.3890  177.1800  144.0710 C   0  0  0  0  0  2  0  0  0  0  0  0
  189.6520  176.2580  143.1590 C   0  0  0  0  0  0  0  0  0  0  0  0
  188.2910  176.0370  143.3460 O   0  0  0  0  0  1  0  0  0  0  0  0
  190.2560  175.6960  142.2090 O   0  0  0  0  0  0  0  0  0  0  0  0
  188.3340  178.1910  138.8120 C   0  0  0  0  0  2  0  0  0  0  0  0
  189.1020  176.9730  138.6030 N   0  0  0  0  0  2  0  0  0  0  0  0
  189.6510  175.1300  134.8760 N   0  0  0  0  0  0  0  0  0  0  0  0
  188.5130  175.8320  135.1090 C   0  0  0  0  0  3  0  0  0  0  0  0
  190.5270  175.7010  137.0420 C   0  0  0  0  0  0  0  0  0  0  0  0
  190.6460  175.0160  135.7990 C   0  0  0  0  0  0  0  0  0  0  0  0
  189.3170  176.3790  137.3170 C   0  0  0  0  0  0  0  0  0  0  0  0
  188.3200  176.4540  136.3370 C   0  0  0  0  0  3  0  0  0  0  0  0
  191.6330  175.6830  138.0760 C   0  0  2  0  0  3  0  0  0  0  0  0
  192.6580  177.0540  139.8600 C   0  0  0  0  0  1  0  0  0  0  0  0
  192.0430  177.0970  138.4760 C   0  0  1  0  0  3  0  0  0  0  0  0
  192.9020  176.3100  137.5230 C   0  0  0  0  0  2  0  0  0  0  0  0
  191.8880  172.8160  136.0010 N   0  0  0  0  0  2  0  0  0  0  0  0
  192.9710  171.9140  135.6440 C   0  0  0  0  0  1  0  0  0  0  0  0
  192.6420  174.5350  134.6240 O   0  0  0  0  0  0  0  0  0  0  0  0
  191.7870  174.1360  135.4590 C   0  0  0  0  0  0  0  0  0  0  0  0
  1  3  1  0  0  0  0
  2 33  1  6  0  0  0
  2  1  1  0  0  0  0
  3 19  1  0  0  0  0
  4  2  1  0  0  0  0
  4  5  1  0  0  0  0
  5  3  2  0  0  0  0
  6  9  1  0  0  0  0
  7  6  1  0  0  0  0
  7  8  2  0  0  0  0
  9  5  1  0  0  0  0
  9 10  2  0  0  0  0
 11 12  1  0  0  0  0
 11  7  1  0  0  0  0
 13 17  2  0  0  0  0
 14 13  1  0  0  0  0
 14 18  1  0  0  0  0
 16 15  1  0  0  0  0
 16 12  1  0  0  0  0
 17 15  1  0  0  0  0
 18 16  1  0  0  0  0
 19 20  1  0  0  0  0
 20 22  1  0  0  0  0
 21 24  1  0  0  0  0
 21 26  1  0  0  0  0
 22 24  1  0  0  0  0
 24 23  2  0  0  0  0
 26 25  1  1  0  0  0
 27 26  1  0  0  0  0
 28 27  1  0  0  0  0
 29 28  1  0  0  0  0
 30 31  1  0  0  0  0
 30 29  1  0  0  0  0
 32 30  2  0  0  0  0
 34 33  1  0  0  0  0
 35 36  2  0  0  0  0
 35 38  1  0  0  0  0
 36 40  1  0  0  0  0
 37 39  1  0  0  0  0
 38 37  2  0  0  0  0
 39 34  1  0  0  0  0
 40 39  2  0  0  0  0
 41 37  1  6  0  0  0
 41 43  1  0  0  0  0
 43 42  1  1  0  0  0
 44 41  1  0  0  0  0
 44 43  1  0  0  0  0
 46 45  1  0  0  0  0
 47 48  2  0  0  0  0
 48 38  1  0  0  0  0
 48 45  1  0  0  0  0
M  END
>  <MODEL>
9

>  <REMARK>
 VINA RESULT:      -7.3      3.272      8.308
  Name = 
  17 active torsions:
  status: ('A' for Active; 'I' for Inactive)
    1  A    between atoms: N_1  and  C_16
    2  A    between atoms: C_2  and  C_23
    3  A    between atoms: C_4  and  C_18
    4  A    between atoms: C_4  and  C_42
    5  A    between atoms: C_6  and  N_9
    6  A    between atoms: C_6  and  N_32
    7  A    between atoms: C_7  and  C_38
    8  A    between atoms: C_13  and  C_30
    9  A    between atoms: C_13  and  N_39
   10  A    between atoms: C_16  and  C_34
   11  A    between atoms: C_25  and  C_47
   12  A    between atoms: C_28  and  C_46
   13  A    between atoms: N_31  and  C_42
   14  A    between atoms: N_32  and  C_37
   15  A    between atoms: C_34  and  N_45
   16  A    between atoms: C_38  and  N_45
   17  A    between atoms: N_39  and  C_40
                            x       y       z     vdW  Elec       q    Type
                         _______ _______ _______ _____ _____    ______ ____

>  <TORSDO>
F 17

$$$$
