=
 OpenBabel10222420003D

 36 38  0  0  1  0  0  0  0  0999 V2000
  187.3680  177.7900  143.9130 C   0  0  0  0  0  0  0  0  0  0  0  0
  187.4490  178.0180  142.5710 N   0  0  0  0  0  0  0  0  0  0  0  0
  188.5470  177.6620  141.8540 C   0  0  0  0  0  0  0  0  0  0  0  0
  189.5920  177.0510  142.4710 N   0  0  0  0  0  0  0  0  0  0  0  0
  188.4430  177.1590  144.5540 C   0  0  0  0  0  3  0  0  0  0  0  0
  189.5600  176.7940  143.8060 C   0  0  0  0  0  0  0  0  0  0  0  0
  184.9110  178.7420  146.6380 N   0  0  0  0  0  2  0  0  0  0  0  0
  187.1030  178.2170  146.7790 O   0  0  0  0  0  0  0  0  0  0  0  0
  186.1400  178.1970  144.6520 C   0  0  0  0  0  0  0  0  0  0  0  0
  184.9620  178.4060  143.9230 C   0  0  0  0  0  3  0  0  0  0  0  0
  186.0850  178.3800  146.0530 C   0  0  0  0  0  0  0  0  0  0  0  0
  183.7990  178.9340  145.9250 N   0  0  0  0  0  0  0  0  0  0  0  0
  183.7900  178.7770  144.5780 C   0  0  0  0  0  0  0  0  0  0  0  0
  182.5750  178.9720  143.8390 C   0  0  0  0  0  0  0  0  0  0  0  0
  181.5480  179.1330  143.2300 C   0  0  0  0  0  0  0  0  0  0  0  0
  180.2910  179.3260  142.5060 C   0  0  0  0  0  2  0  0  0  0  0  0
  179.2260  181.0680  141.3810 C   0  0  0  0  0  1  0  0  0  0  0  0
  179.8590  180.7040  142.6400 N   0  0  0  0  0  2  0  0  0  0  0  0
  188.5890  177.9040  140.3880 C   0  0  0  0  0  2  0  0  0  0  0  0
  189.9310  177.4700  139.8340 C   0  0  0  0  0  2  0  0  0  0  0  0
  189.8380  177.3500  138.3280 C   0  0  0  0  0  2  0  0  0  0  0  0
  188.8730  178.3920  137.7980 C   0  0  0  0  0  2  0  0  0  0  0  0
  187.0750  176.8360  137.3580 O   0  0  0  0  0  0  0  0  0  0  0  0
  186.4720  178.0200  136.9420 N   0  0  0  0  0  0  0  0  0  0  0  0
  187.8920  177.7640  136.8020 C   0  0  1  0  0  0  0  0  0  0  0  0
  184.6780  179.6580  139.7660 O   0  0  0  0  0  1  0  0  0  0  0  0
  186.2220  178.7720  138.1020 N   0  0  0  0  0  2  0  0  0  0  0  0
  184.9090  178.8590  138.6530 C   0  0  0  0  0  0  0  0  0  0  0  0
  183.9540  178.2280  138.1270 O   0  0  0  0  0  0  0  0  0  0  0  0
  188.7800  176.2970  135.1860 O   0  0  0  0  0  0  0  0  0  0  0  0
  188.3210  177.4030  135.4190 C   0  0  0  0  0  3  0  0  0  0  0  0
  190.6300  176.1600  144.4410 O   0  0  0  0  0  0  0  0  0  0  0  0
  191.5920  176.8850  145.1930 C   0  0  0  0  0  2  0  0  0  0  0  0
  192.4940  175.7700  147.0950 O   0  0  0  0  0  0  0  0  0  0  0  0
  191.5500  176.4480  146.6160 C   0  0  0  0  0  0  0  0  0  0  0  0
  190.4560  176.8260  147.4430 N   0  0  0  0  0  1  0  0  0  0  0  0
  1  5  2  0  0  0  0
  1  9  1  0  0  0  0
  2  1  1  0  0  0  0
  3  4  1  0  0  0  0
  3  2  2  0  0  0  0
  4  6  2  0  0  0  0
  6 32  1  0  0  0  0
  6  5  1  0  0  0  0
  9 11  1  0  0  0  0
 10 13  1  0  0  0  0
 10  9  2  0  0  0  0
 11  7  1  0  0  0  0
 11  8  2  0  0  0  0
 12  7  1  0  0  0  0
 13 12  2  0  0  0  0
 14 13  1  0  0  0  0
 15 14  3  0  0  0  0
 16 18  1  0  0  0  0
 16 15  1  0  0  0  0
 17 18  1  0  0  0  0
 19  3  1  0  0  0  0
 20 19  1  0  0  0  0
 21 20  1  0  0  0  0
 22 21  1  0  0  0  0
 24 23  1  0  0  0  0
 24 27  1  0  0  0  0
 25 31  1  6  0  0  0
 25 24  1  0  0  0  0
 25 23  1  0  0  0  0
 25 22  1  0  0  0  0
 27 28  1  0  0  0  0
 28 26  1  0  0  0  0
 29 28  2  0  0  0  0
 30 31  2  0  0  0  0
 32 33  1  0  0  0  0
 33 35  1  0  0  0  0
 35 34  2  0  0  0  0
 35 36  1  0  0  0  0
M  END
>  <MODEL>
1

>  <REMARK>
 VINA RESULT:      -8.4      0.000      0.000
  Name = 
  14 active torsions:
  status: ('A' for Active; 'I' for Inactive)
    1  A    between atoms: C_4  and  C_7
    2  A    between atoms: C_8  and  C_12
    3  A    between atoms: C_8  and  O_33
    4  A    between atoms: C_9  and  C_18
    5  A    between atoms: C_9  and  C_27
    6  A    between atoms: C_11  and  C_35
    7  A    between atoms: C_15  and  C_21
    8  A    between atoms: N_16  and  N_23
    9  A    between atoms: C_18  and  C_29
   10  A    between atoms: C_19  and  N_31
   11  A    between atoms: C_19  and  C_34
   12  A    between atoms: C_21  and  C_29
   13  A    between atoms: C_24  and  C_27
   14  A    between atoms: O_33  and  C_36
                            x       y       z     vdW  Elec       q    Type
                         _______ _______ _______ _____ _____    ______ ____

>  <TORSDO>
F 14

$$$$
=
 OpenBabel10222420003D

 36 38  0  0  1  0  0  0  0  0999 V2000
  187.8200  177.7650  144.4560 C   0  0  0  0  0  0  0  0  0  0  0  0
  187.8940  177.6150  143.1040 N   0  0  0  0  0  0  0  0  0  0  0  0
  189.0550  177.2700  142.4890 C   0  0  0  0  0  0  0  0  0  0  0  0
  190.1760  177.0540  143.2250 N   0  0  0  0  0  0  0  0  0  0  0  0
  188.9720  177.5420  145.2220 C   0  0  0  0  0  3  0  0  0  0  0  0
  190.1560  177.1830  144.5790 C   0  0  0  0  0  0  0  0  0  0  0  0
  185.0970  178.6220  146.9520 N   0  0  0  0  0  2  0  0  0  0  0  0
  187.2710  178.1150  147.2930 O   0  0  0  0  0  0  0  0  0  0  0  0
  186.5200  178.1400  145.0820 C   0  0  0  0  0  0  0  0  0  0  0  0
  185.4170  178.3560  144.2470 C   0  0  0  0  0  3  0  0  0  0  0  0
  186.3270  178.2860  146.4750 C   0  0  0  0  0  0  0  0  0  0  0  0
  184.0580  178.8200  146.1380 N   0  0  0  0  0  0  0  0  0  0  0  0
  184.1820  178.6980  144.7930 C   0  0  0  0  0  0  0  0  0  0  0  0
  183.0420  178.8990  143.9440 C   0  0  0  0  0  0  0  0  0  0  0  0
  182.0780  179.0720  143.2420 C   0  0  0  0  0  0  0  0  0  0  0  0
  180.8980  179.2870  142.4050 C   0  0  0  0  0  2  0  0  0  0  0  0
  178.9800  179.8560  143.6010 C   0  0  0  0  0  1  0  0  0  0  0  0
  180.1370  180.4120  142.9150 N   0  0  0  0  0  2  0  0  0  0  0  0
  189.0910  177.0910  141.0130 C   0  0  0  0  0  2  0  0  0  0  0  0
  190.5220  177.1680  140.5210 C   0  0  0  0  0  2  0  0  0  0  0  0
  190.6330  176.4650  139.1850 C   0  0  0  0  0  2  0  0  0  0  0  0
  192.0790  176.4790  138.7280 C   0  0  0  0  0  2  0  0  0  0  0  0
  193.2270  175.6840  136.7540 O   0  0  0  0  0  0  0  0  0  0  0  0
  193.6480  174.7280  137.6750 N   0  0  0  0  0  0  0  0  0  0  0  0
  192.3400  175.3510  137.7240 C   0  0  1  0  0  0  0  0  0  0  0  0
  196.3400  175.3040  140.1840 O   0  0  0  0  0  1  0  0  0  0  0  0
  194.5330  175.3780  138.5510 N   0  0  0  0  0  2  0  0  0  0  0  0
  195.5170  174.6450  139.2790 C   0  0  0  0  0  0  0  0  0  0  0  0
  195.6350  173.4020  139.1160 O   0  0  0  0  0  0  0  0  0  0  0  0
  190.6170  174.8050  136.2120 O   0  0  0  0  0  0  0  0  0  0  0  0
  191.2270  174.4930  137.2210 C   0  0  0  0  0  3  0  0  0  0  0  0
  191.3040  176.9540  145.3390 O   0  0  0  0  0  0  0  0  0  0  0  0
  191.2470  176.7540  146.7440 C   0  0  0  0  0  2  0  0  0  0  0  0
  192.6070  174.8330  146.3760 O   0  0  0  0  0  0  0  0  0  0  0  0
  192.2850  175.7680  147.1530 C   0  0  0  0  0  0  0  0  0  0  0  0
  192.9360  175.9020  148.4110 N   0  0  0  0  0  1  0  0  0  0  0  0
  1  9  1  0  0  0  0
  1  5  2  0  0  0  0
  2  1  1  0  0  0  0
  3  2  2  0  0  0  0
  3  4  1  0  0  0  0
  4  6  2  0  0  0  0
  6  5  1  0  0  0  0
  6 32  1  0  0  0  0
  9 11  1  0  0  0  0
 10 13  1  0  0  0  0
 10  9  2  0  0  0  0
 11  7  1  0  0  0  0
 11  8  2  0  0  0  0
 12  7  1  0  0  0  0
 13 12  2  0  0  0  0
 14 13  1  0  0  0  0
 15 14  3  0  0  0  0
 16 18  1  0  0  0  0
 16 15  1  0  0  0  0
 18 17  1  0  0  0  0
 19  3  1  0  0  0  0
 20 19  1  0  0  0  0
 21 20  1  0  0  0  0
 22 21  1  0  0  0  0
 23 24  1  0  0  0  0
 23 25  1  0  0  0  0
 24 25  1  0  0  0  0
 24 27  1  0  0  0  0
 25 31  1  6  0  0  0
 25 22  1  0  0  0  0
 27 28  1  0  0  0  0
 28 26  1  0  0  0  0
 29 28  2  0  0  0  0
 30 31  2  0  0  0  0
 32 33  1  0  0  0  0
 33 35  1  0  0  0  0
 34 35  2  0  0  0  0
 35 36  1  0  0  0  0
M  END
>  <MODEL>
2

>  <REMARK>
 VINA RESULT:      -8.3      3.001      4.507
  Name = 
  14 active torsions:
  status: ('A' for Active; 'I' for Inactive)
    1  A    between atoms: C_4  and  C_7
    2  A    between atoms: C_8  and  C_12
    3  A    between atoms: C_8  and  O_33
    4  A    between atoms: C_9  and  C_18
    5  A    between atoms: C_9  and  C_27
    6  A    between atoms: C_11  and  C_35
    7  A    between atoms: C_15  and  C_21
    8  A    between atoms: N_16  and  N_23
    9  A    between atoms: C_18  and  C_29
   10  A    between atoms: C_19  and  N_31
   11  A    between atoms: C_19  and  C_34
   12  A    between atoms: C_21  and  C_29
   13  A    between atoms: C_24  and  C_27
   14  A    between atoms: O_33  and  C_36
                            x       y       z     vdW  Elec       q    Type
                         _______ _______ _______ _____ _____    ______ ____

>  <TORSDO>
F 14

$$$$
=
 OpenBabel10222420003D

 36 38  0  0  1  0  0  0  0  0999 V2000
  187.8290  177.9620  144.4510 C   0  0  0  0  0  0  0  0  0  0  0  0
  187.8760  177.7900  143.1000 N   0  0  0  0  0  0  0  0  0  0  0  0
  189.0430  177.5270  142.4570 C   0  0  0  0  0  0  0  0  0  0  0  0
  190.1980  177.4160  143.1640 N   0  0  0  0  0  0  0  0  0  0  0  0
  189.0160  177.8470  145.1870 C   0  0  0  0  0  3  0  0  0  0  0  0
  190.2060  177.5710  144.5150 C   0  0  0  0  0  0  0  0  0  0  0  0
  185.1000  178.5590  147.0140 N   0  0  0  0  0  2  0  0  0  0  0  0
  187.2970  178.1280  147.3080 O   0  0  0  0  0  0  0  0  0  0  0  0
  186.5210  178.2450  145.1080 C   0  0  0  0  0  0  0  0  0  0  0  0
  185.4000  178.4590  144.2960 C   0  0  0  0  0  3  0  0  0  0  0  0
  186.3380  178.3040  146.5090 C   0  0  0  0  0  0  0  0  0  0  0  0
  184.0440  178.7580  146.2220 N   0  0  0  0  0  0  0  0  0  0  0  0
  184.1580  178.7170  144.8710 C   0  0  0  0  0  0  0  0  0  0  0  0
  183.0020  178.9160  144.0450 C   0  0  0  0  0  0  0  0  0  0  0  0
  182.0230  179.0840  143.3630 C   0  0  0  0  0  0  0  0  0  0  0  0
  180.8250  179.2900  142.5490 C   0  0  0  0  0  2  0  0  0  0  0  0
  179.0960  179.2550  144.1130 C   0  0  0  0  0  1  0  0  0  0  0  0
  179.8880  180.1350  143.2660 N   0  0  0  0  0  2  0  0  0  0  0  0
  189.0520  177.3210  140.9840 C   0  0  0  0  0  2  0  0  0  0  0  0
  188.1610  178.3480  140.3170 C   0  0  0  0  0  2  0  0  0  0  0  0
  187.9310  177.9530  138.8740 C   0  0  0  0  0  2  0  0  0  0  0  0
  189.2480  177.9960  138.1240 C   0  0  0  0  0  2  0  0  0  0  0  0
  190.5390  176.7120  136.5320 O   0  0  0  0  0  0  0  0  0  0  0  0
  190.7450  175.9470  137.6770 N   0  0  0  0  0  0  0  0  0  0  0  0
  189.5110  176.6630  137.4160 C   0  0  1  0  0  0  0  0  0  0  0  0
  193.7850  177.2060  139.4240 O   0  0  0  0  0  1  0  0  0  0  0  0
  191.5790  176.7030  138.5180 N   0  0  0  0  0  2  0  0  0  0  0  0
  192.9890  176.4870  138.5390 C   0  0  0  0  0  0  0  0  0  0  0  0
  193.5170  175.6400  137.7720 O   0  0  0  0  0  0  0  0  0  0  0  0
  187.9310  175.9420  135.8230 O   0  0  0  0  0  0  0  0  0  0  0  0
  188.3850  175.8020  136.9470 C   0  0  0  0  0  3  0  0  0  0  0  0
  191.3900  177.4500  145.2440 O   0  0  0  0  0  0  0  0  0  0  0  0
  191.7580  176.2360  145.8830 C   0  0  0  0  0  2  0  0  0  0  0  0
  190.8860  177.0760  147.9340 O   0  0  0  0  0  0  0  0  0  0  0  0
  191.8030  176.4370  147.3570 C   0  0  0  0  0  0  0  0  0  0  0  0
  192.8670  175.8780  148.1180 N   0  0  0  0  0  1  0  0  0  0  0  0
  1  9  1  0  0  0  0
  1  5  2  0  0  0  0
  2  1  1  0  0  0  0
  3  2  2  0  0  0  0
  3  4  1  0  0  0  0
  4  6  2  0  0  0  0
  6  5  1  0  0  0  0
  6 32  1  0  0  0  0
  9 11  1  0  0  0  0
 10 13  1  0  0  0  0
 10  9  2  0  0  0  0
 11  7  1  0  0  0  0
 11  8  2  0  0  0  0
 12  7  1  0  0  0  0
 13 12  2  0  0  0  0
 14 13  1  0  0  0  0
 15 14  3  0  0  0  0
 16 18  1  0  0  0  0
 16 15  1  0  0  0  0
 18 17  1  0  0  0  0
 19  3  1  0  0  0  0
 20 19  1  0  0  0  0
 21 20  1  0  0  0  0
 22 21  1  0  0  0  0
 23 25  1  0  0  0  0
 23 24  1  0  0  0  0
 24 27  1  0  0  0  0
 25 31  1  6  0  0  0
 25 24  1  0  0  0  0
 25 22  1  0  0  0  0
 27 28  1  0  0  0  0
 28 26  1  0  0  0  0
 29 28  2  0  0  0  0
 30 31  2  0  0  0  0
 32 33  1  0  0  0  0
 33 35  1  0  0  0  0
 35 34  2  0  0  0  0
 35 36  1  0  0  0  0
M  END
>  <MODEL>
3

>  <REMARK>
 VINA RESULT:      -8.1      2.221      3.264
  Name = 
  14 active torsions:
  status: ('A' for Active; 'I' for Inactive)
    1  A    between atoms: C_4  and  C_7
    2  A    between atoms: C_8  and  C_12
    3  A    between atoms: C_8  and  O_33
    4  A    between atoms: C_9  and  C_18
    5  A    between atoms: C_9  and  C_27
    6  A    between atoms: C_11  and  C_35
    7  A    between atoms: C_15  and  C_21
    8  A    between atoms: N_16  and  N_23
    9  A    between atoms: C_18  and  C_29
   10  A    between atoms: C_19  and  N_31
   11  A    between atoms: C_19  and  C_34
   12  A    between atoms: C_21  and  C_29
   13  A    between atoms: C_24  and  C_27
   14  A    between atoms: O_33  and  C_36
                            x       y       z     vdW  Elec       q    Type
                         _______ _______ _______ _____ _____    ______ ____

>  <TORSDO>
F 14

$$$$
=
 OpenBabel10222420003D

 36 38  0  0  1  0  0  0  0  0999 V2000
  184.6140  178.5610  143.1530 C   0  0  0  0  0  0  0  0  0  0  0  0
  185.3610  178.5950  142.0140 N   0  0  0  0  0  0  0  0  0  0  0  0
  184.7830  178.6920  140.7870 C   0  0  0  0  0  0  0  0  0  0  0  0
  183.4320  178.7680  140.6770 N   0  0  0  0  0  0  0  0  0  0  0  0
  183.2190  178.6410  143.0470 C   0  0  0  0  0  3  0  0  0  0  0  0
  182.6400  178.7450  141.7830 C   0  0  0  0  0  0  0  0  0  0  0  0
  185.3920  178.6480  146.8630 N   0  0  0  0  0  2  0  0  0  0  0  0
  183.4770  179.1360  145.7690 O   0  0  0  0  0  0  0  0  0  0  0  0
  185.2970  178.4580  144.4740 C   0  0  0  0  0  0  0  0  0  0  0  0
  186.6350  178.0440  144.5010 C   0  0  0  0  0  3  0  0  0  0  0  0
  184.6790  178.7620  145.7080 C   0  0  0  0  0  0  0  0  0  0  0  0
  186.6670  178.2540  146.8660 N   0  0  0  0  0  0  0  0  0  0  0  0
  187.3130  177.9460  145.7140 C   0  0  0  0  0  0  0  0  0  0  0  0
  188.6900  177.5420  145.7470 C   0  0  0  0  0  0  0  0  0  0  0  0
  189.8440  177.1980  145.7620 C   0  0  0  0  0  0  0  0  0  0  0  0
  191.2450  176.7760  145.7620 C   0  0  0  0  0  2  0  0  0  0  0  0
  192.2720  175.5870  147.4850 C   0  0  0  0  0  1  0  0  0  0  0  0
  191.7930  176.9070  147.0990 N   0  0  0  0  0  2  0  0  0  0  0  0
  185.6320  178.7520  139.5680 C   0  0  0  0  0  2  0  0  0  0  0  0
  184.8890  178.1470  138.3940 C   0  0  0  0  0  2  0  0  0  0  0  0
  185.8610  177.8840  137.2650 C   0  0  0  0  0  2  0  0  0  0  0  0
  187.1530  177.3300  137.8310 C   0  0  0  0  0  2  0  0  0  0  0  0
  188.5280  179.2960  137.5270 O   0  0  0  0  0  0  0  0  0  0  0  0
  189.4900  178.4020  137.9890 N   0  0  0  0  0  0  0  0  0  0  0  0
  188.3640  177.9980  137.1710 C   0  0  1  0  0  0  0  0  0  0  0  0
  189.8240  177.2570  141.5180 O   0  0  0  0  0  1  0  0  0  0  0  0
  189.2110  178.1820  139.3480 N   0  0  0  0  0  2  0  0  0  0  0  0
  190.1500  177.5150  140.1920 C   0  0  0  0  0  0  0  0  0  0  0  0
  191.2650  177.1480  139.7380 O   0  0  0  0  0  0  0  0  0  0  0  0
  188.4340  176.6680  135.2270 O   0  0  0  0  0  0  0  0  0  0  0  0
  188.7000  177.7420  135.7390 C   0  0  0  0  0  3  0  0  0  0  0  0
  181.2510  178.8310  141.6730 O   0  0  0  0  0  0  0  0  0  0  0  0
  180.4810  179.6670  142.5250 C   0  0  0  0  0  2  0  0  0  0  0  0
  179.5040  177.5960  143.1820 O   0  0  0  0  0  0  0  0  0  0  0  0
  179.6130  178.8300  143.3980 C   0  0  0  0  0  0  0  0  0  0  0  0
  178.9310  179.4210  144.4980 N   0  0  0  0  0  1  0  0  0  0  0  0
  1  9  1  0  0  0  0
  2  1  1  0  0  0  0
  3  2  2  0  0  0  0
  4  3  1  0  0  0  0
  4  6  2  0  0  0  0
  5  1  2  0  0  0  0
  6  5  1  0  0  0  0
  7 12  1  0  0  0  0
  9 10  2  0  0  0  0
  9 11  1  0  0  0  0
 10 13  1  0  0  0  0
 11  8  2  0  0  0  0
 11  7  1  0  0  0  0
 13 14  1  0  0  0  0
 13 12  2  0  0  0  0
 14 15  3  0  0  0  0
 15 16  1  0  0  0  0
 16 18  1  0  0  0  0
 18 17  1  0  0  0  0
 19  3  1  0  0  0  0
 20 19  1  0  0  0  0
 21 22  1  0  0  0  0
 21 20  1  0  0  0  0
 23 24  1  0  0  0  0
 24 27  1  0  0  0  0
 25 31  1  6  0  0  0
 25 23  1  0  0  0  0
 25 22  1  0  0  0  0
 25 24  1  0  0  0  0
 27 28  1  0  0  0  0
 28 26  1  0  0  0  0
 29 28  2  0  0  0  0
 30 31  2  0  0  0  0
 32  6  1  0  0  0  0
 32 33  1  0  0  0  0
 33 35  1  0  0  0  0
 34 35  2  0  0  0  0
 35 36  1  0  0  0  0
M  END
>  <MODEL>
4

>  <REMARK>
 VINA RESULT:      -8.1      2.359      7.130
  Name = 
  14 active torsions:
  status: ('A' for Active; 'I' for Inactive)
    1  A    between atoms: C_4  and  C_7
    2  A    between atoms: C_8  and  C_12
    3  A    between atoms: C_8  and  O_33
    4  A    between atoms: C_9  and  C_18
    5  A    between atoms: C_9  and  C_27
    6  A    between atoms: C_11  and  C_35
    7  A    between atoms: C_15  and  C_21
    8  A    between atoms: N_16  and  N_23
    9  A    between atoms: C_18  and  C_29
   10  A    between atoms: C_19  and  N_31
   11  A    between atoms: C_19  and  C_34
   12  A    between atoms: C_21  and  C_29
   13  A    between atoms: C_24  and  C_27
   14  A    between atoms: O_33  and  C_36
                            x       y       z     vdW  Elec       q    Type
                         _______ _______ _______ _____ _____    ______ ____

>  <TORSDO>
F 14

$$$$
=
 OpenBabel10222420003D

 36 38  0  0  1  0  0  0  0  0999 V2000
  184.5100  178.8400  142.4800 C   0  0  0  0  0  0  0  0  0  0  0  0
  185.2200  178.6800  143.6320 N   0  0  0  0  0  0  0  0  0  0  0  0
  184.6170  178.7120  144.8500 C   0  0  0  0  0  0  0  0  0  0  0  0
  183.2740  178.8950  144.9380 N   0  0  0  0  0  0  0  0  0  0  0  0
  183.1230  179.0270  142.5640 C   0  0  0  0  0  3  0  0  0  0  0  0
  182.5170  179.0530  143.8190 C   0  0  0  0  0  0  0  0  0  0  0  0
  185.3460  179.0350  138.7870 N   0  0  0  0  0  2  0  0  0  0  0  0
  183.4150  179.4970  139.8650 O   0  0  0  0  0  0  0  0  0  0  0  0
  185.2190  178.7920  141.1700 C   0  0  0  0  0  0  0  0  0  0  0  0
  186.5600  178.3900  141.1530 C   0  0  0  0  0  3  0  0  0  0  0  0
  184.6170  179.1210  139.9340 C   0  0  0  0  0  0  0  0  0  0  0  0
  186.6230  178.6470  138.7940 N   0  0  0  0  0  0  0  0  0  0  0  0
  187.2550  178.3210  139.9480 C   0  0  0  0  0  0  0  0  0  0  0  0
  188.6240  177.8900  139.9220 C   0  0  0  0  0  0  0  0  0  0  0  0
  189.7760  177.5390  139.8930 C   0  0  0  0  0  0  0  0  0  0  0  0
  191.1800  177.1290  139.8500 C   0  0  0  0  0  2  0  0  0  0  0  0
  191.4130  176.5100  137.6140 C   0  0  0  0  0  1  0  0  0  0  0  0
  191.3270  175.9850  138.9690 N   0  0  0  0  0  2  0  0  0  0  0  0
  185.4210  178.5090  146.0840 C   0  0  0  0  0  2  0  0  0  0  0  0
  186.5370  177.5210  145.8130 C   0  0  0  0  0  2  0  0  0  0  0  0
  187.8660  178.1570  146.1560 C   0  0  0  0  0  2  0  0  0  0  0  0
  188.9520  177.0990  146.1360 C   0  0  0  0  0  2  0  0  0  0  0  0
  190.5880  178.3470  144.8670 O   0  0  0  0  0  0  0  0  0  0  0  0
  191.2580  177.1330  144.9890 N   0  0  0  0  0  0  0  0  0  0  0  0
  189.8160  177.2320  144.8780 C   0  0  1  0  0  0  0  0  0  0  0  0
  192.5350  175.7100  148.1860 O   0  0  0  0  0  1  0  0  0  0  0  0
  191.6380  177.0190  146.3370 N   0  0  0  0  0  2  0  0  0  0  0  0
  192.2230  175.8180  146.8360 C   0  0  0  0  0  0  0  0  0  0  0  0
  192.4460  174.8480  146.0640 O   0  0  0  0  0  0  0  0  0  0  0  0
  189.3560  175.7470  143.1070 O   0  0  0  0  0  0  0  0  0  0  0  0
  189.2750  176.8890  143.5300 C   0  0  0  0  0  3  0  0  0  0  0  0
  181.1350  179.2340  143.9070 O   0  0  0  0  0  0  0  0  0  0  0  0
  180.2290  178.1440  143.8140 C   0  0  0  0  0  2  0  0  0  0  0  0
  179.4430  177.0400  141.8560 O   0  0  0  0  0  0  0  0  0  0  0  0
  179.5980  178.1290  142.4660 C   0  0  0  0  0  0  0  0  0  0  0  0
  179.1400  179.3420  141.8820 N   0  0  0  0  0  1  0  0  0  0  0  0
  1  5  2  0  0  0  0
  1  2  1  0  0  0  0
  2  3  2  0  0  0  0
  3  4  1  0  0  0  0
  3 19  1  0  0  0  0
  5  6  1  0  0  0  0
  6 32  1  0  0  0  0
  6  4  2  0  0  0  0
  7 12  1  0  0  0  0
  7 11  1  0  0  0  0
  8 11  2  0  0  0  0
  9  1  1  0  0  0  0
 10  9  2  0  0  0  0
 11  9  1  0  0  0  0
 12 13  2  0  0  0  0
 13 10  1  0  0  0  0
 14 13  1  0  0  0  0
 15 14  3  0  0  0  0
 16 15  1  0  0  0  0
 17 18  1  0  0  0  0
 18 16  1  0  0  0  0
 20 19  1  0  0  0  0
 20 21  1  0  0  0  0
 22 21  1  0  0  0  0
 23 25  1  0  0  0  0
 23 24  1  0  0  0  0
 24 27  1  0  0  0  0
 25 31  1  6  0  0  0
 25 24  1  0  0  0  0
 25 22  1  0  0  0  0
 27 28  1  0  0  0  0
 28 26  1  0  0  0  0
 29 28  2  0  0  0  0
 30 31  2  0  0  0  0
 33 32  1  0  0  0  0
 34 35  2  0  0  0  0
 35 33  1  0  0  0  0
 36 35  1  0  0  0  0
M  END
>  <MODEL>
5

>  <REMARK>
 VINA RESULT:      -7.9      2.439      9.054
  Name = 
  14 active torsions:
  status: ('A' for Active; 'I' for Inactive)
    1  A    between atoms: C_4  and  C_7
    2  A    between atoms: C_8  and  C_12
    3  A    between atoms: C_8  and  O_33
    4  A    between atoms: C_9  and  C_18
    5  A    between atoms: C_9  and  C_27
    6  A    between atoms: C_11  and  C_35
    7  A    between atoms: C_15  and  C_21
    8  A    between atoms: N_16  and  N_23
    9  A    between atoms: C_18  and  C_29
   10  A    between atoms: C_19  and  N_31
   11  A    between atoms: C_19  and  C_34
   12  A    between atoms: C_21  and  C_29
   13  A    between atoms: C_24  and  C_27
   14  A    between atoms: O_33  and  C_36
                            x       y       z     vdW  Elec       q    Type
                         _______ _______ _______ _____ _____    ______ ____

>  <TORSDO>
F 14

$$$$
=
 OpenBabel10222420003D

 36 38  0  0  1  0  0  0  0  0999 V2000
  187.0300  177.8600  144.7130 C   0  0  0  0  0  0  0  0  0  0  0  0
  187.7540  177.9120  143.5600 N   0  0  0  0  0  0  0  0  0  0  0  0
  189.0620  177.5430  143.5240 C   0  0  0  0  0  0  0  0  0  0  0  0
  189.6730  177.0980  144.6530 N   0  0  0  0  0  0  0  0  0  0  0  0
  187.6540  177.4010  145.8810 C   0  0  0  0  0  3  0  0  0  0  0  0
  188.9940  177.0200  145.8290 C   0  0  0  0  0  0  0  0  0  0  0  0
  183.5630  179.0060  145.7350 N   0  0  0  0  0  2  0  0  0  0  0  0
  185.4140  178.6850  146.9890 O   0  0  0  0  0  0  0  0  0  0  0  0
  185.5980  178.2730  144.6980 C   0  0  0  0  0  0  0  0  0  0  0  0
  184.9190  178.2760  143.4720 C   0  0  0  0  0  3  0  0  0  0  0  0
  184.8740  178.6560  145.8500 C   0  0  0  0  0  0  0  0  0  0  0  0
  182.9350  179.0000  144.5570 N   0  0  0  0  0  0  0  0  0  0  0  0
  183.5770  178.6440  143.4170 C   0  0  0  0  0  0  0  0  0  0  0  0
  182.8700  178.6290  142.1670 C   0  0  0  0  0  0  0  0  0  0  0  0
  182.2850  178.6260  141.1140 C   0  0  0  0  0  0  0  0  0  0  0  0
  181.5870  178.6350  139.8280 C   0  0  0  0  0  2  0  0  0  0  0  0
  181.4810  179.5680  137.6950 C   0  0  0  0  0  1  0  0  0  0  0  0
  182.0910  179.7200  139.0080 N   0  0  0  0  0  2  0  0  0  0  0  0
  189.8130  177.5890  142.2420 C   0  0  0  0  0  2  0  0  0  0  0  0
  191.0090  176.6610  142.3140 C   0  0  0  0  0  2  0  0  0  0  0  0
  192.0590  177.1170  141.3240 C   0  0  0  0  0  2  0  0  0  0  0  0
  191.3830  177.7840  140.1430 C   0  0  0  0  0  2  0  0  0  0  0  0
  190.2770  175.8950  139.1160 O   0  0  0  0  0  0  0  0  0  0  0  0
  190.0870  176.8500  138.1210 N   0  0  0  0  0  0  0  0  0  0  0  0
  191.2660  176.8110  138.9650 C   0  0  1  0  0  0  0  0  0  0  0  0
  186.8770  178.6250  138.7710 O   0  0  0  0  0  1  0  0  0  0  0  0
  189.1560  177.7730  138.6260 N   0  0  0  0  0  2  0  0  0  0  0  0
  187.7690  177.6650  138.3080 C   0  0  0  0  0  0  0  0  0  0  0  0
  187.3500  176.7130  137.5990 O   0  0  0  0  0  0  0  0  0  0  0  0
  193.5610  176.8000  138.4330 O   0  0  0  0  0  0  0  0  0  0  0  0
  192.4800  176.2490  138.3040 C   0  0  0  0  0  3  0  0  0  0  0  0
  189.6180  176.5560  146.9890 O   0  0  0  0  0  0  0  0  0  0  0  0
  190.8170  177.1380  147.4800 C   0  0  0  0  0  2  0  0  0  0  0  0
  192.0840  175.4790  146.3330 O   0  0  0  0  0  0  0  0  0  0  0  0
  191.9300  176.1540  147.3830 C   0  0  0  0  0  0  0  0  0  0  0  0
  192.8390  176.0000  148.4660 N   0  0  0  0  0  1  0  0  0  0  0  0
  1  5  2  0  0  0  0
  2  1  1  0  0  0  0
  3  2  2  0  0  0  0
  3  4  1  0  0  0  0
  4  6  2  0  0  0  0
  6  5  1  0  0  0  0
  6 32  1  0  0  0  0
  7 11  1  0  0  0  0
  9  1  1  0  0  0  0
  9 11  1  0  0  0  0
 10  9  2  0  0  0  0
 11  8  2  0  0  0  0
 12  7  1  0  0  0  0
 13 10  1  0  0  0  0
 13 12  2  0  0  0  0
 14 13  1  0  0  0  0
 15 14  3  0  0  0  0
 16 15  1  0  0  0  0
 17 18  1  0  0  0  0
 18 16  1  0  0  0  0
 19 20  1  0  0  0  0
 19  3  1  0  0  0  0
 21 20  1  0  0  0  0
 22 21  1  0  0  0  0
 24 27  1  0  0  0  0
 24 25  1  0  0  0  0
 24 23  1  0  0  0  0
 25 31  1  6  0  0  0
 25 23  1  0  0  0  0
 25 22  1  0  0  0  0
 28 27  1  0  0  0  0
 28 26  1  0  0  0  0
 29 28  2  0  0  0  0
 31 30  2  0  0  0  0
 32 33  1  0  0  0  0
 34 35  2  0  0  0  0
 35 33  1  0  0  0  0
 35 36  1  0  0  0  0
M  END
>  <MODEL>
6

>  <REMARK>
 VINA RESULT:      -7.7      2.336      2.868
  Name = 
  14 active torsions:
  status: ('A' for Active; 'I' for Inactive)
    1  A    between atoms: C_4  and  C_7
    2  A    between atoms: C_8  and  C_12
    3  A    between atoms: C_8  and  O_33
    4  A    between atoms: C_9  and  C_18
    5  A    between atoms: C_9  and  C_27
    6  A    between atoms: C_11  and  C_35
    7  A    between atoms: C_15  and  C_21
    8  A    between atoms: N_16  and  N_23
    9  A    between atoms: C_18  and  C_29
   10  A    between atoms: C_19  and  N_31
   11  A    between atoms: C_19  and  C_34
   12  A    between atoms: C_21  and  C_29
   13  A    between atoms: C_24  and  C_27
   14  A    between atoms: O_33  and  C_36
                            x       y       z     vdW  Elec       q    Type
                         _______ _______ _______ _____ _____    ______ ____

>  <TORSDO>
F 14

$$$$
=
 OpenBabel10222420003D

 36 38  0  0  1  0  0  0  0  0999 V2000
  189.2360  177.4940  141.9710 C   0  0  0  0  0  0  0  0  0  0  0  0
  187.9610  177.4410  142.4480 N   0  0  0  0  0  0  0  0  0  0  0  0
  187.6980  177.4710  143.7810 C   0  0  0  0  0  0  0  0  0  0  0  0
  188.7180  177.5670  144.6720 N   0  0  0  0  0  0  0  0  0  0  0  0
  190.2930  177.5950  142.8860 C   0  0  0  0  0  3  0  0  0  0  0  0
  190.0100  177.6290  144.2500 C   0  0  0  0  0  0  0  0  0  0  0  0
  188.9170  177.9900  138.2260 N   0  0  0  0  0  2  0  0  0  0  0  0
  187.6020  178.7320  139.9050 O   0  0  0  0  0  0  0  0  0  0  0  0
  189.4700  177.4620  140.4990 C   0  0  0  0  0  0  0  0  0  0  0  0
  190.5880  176.7700  140.0170 C   0  0  0  0  0  3  0  0  0  0  0  0
  188.6250  178.0850  139.5520 C   0  0  0  0  0  0  0  0  0  0  0  0
  189.9870  177.3230  137.7870 N   0  0  0  0  0  0  0  0  0  0  0  0
  190.8360  176.7080  138.6480 C   0  0  0  0  0  0  0  0  0  0  0  0
  191.9680  175.9820  138.1460 C   0  0  0  0  0  0  0  0  0  0  0  0
  192.9220  175.3700  137.7380 C   0  0  0  0  0  0  0  0  0  0  0  0
  194.0850  174.6220  137.2590 C   0  0  0  0  0  2  0  0  0  0  0  0
  195.6410  173.9090  138.8410 C   0  0  0  0  0  1  0  0  0  0  0  0
  195.2650  175.0330  137.9960 N   0  0  0  0  0  2  0  0  0  0  0  0
  186.2920  177.4370  144.2630 C   0  0  0  0  0  2  0  0  0  0  0  0
  185.5200  178.6020  143.6780 C   0  0  0  0  0  2  0  0  0  0  0  0
  184.6660  178.1130  142.5280 C   0  0  0  0  0  2  0  0  0  0  0  0
  183.7230  179.2180  142.0950 C   0  0  0  0  0  2  0  0  0  0  0  0
  182.5600  177.5790  140.7510 O   0  0  0  0  0  0  0  0  0  0  0  0
  181.6010  178.5870  140.7780 N   0  0  0  0  0  0  0  0  0  0  0  0
  183.0260  178.8520  140.7810 C   0  0  1  0  0  0  0  0  0  0  0  0
  179.3460  178.1000  143.7030 O   0  0  0  0  0  1  0  0  0  0  0  0
  181.0950  178.6220  142.0890 N   0  0  0  0  0  2  0  0  0  0  0  0
  179.8530  177.9990  142.4130 C   0  0  0  0  0  0  0  0  0  0  0  0
  179.2060  177.3700  141.5350 O   0  0  0  0  0  0  0  0  0  0  0  0
  184.6400  179.8890  139.4130 O   0  0  0  0  0  0  0  0  0  0  0  0
  183.5740  179.2990  139.4660 C   0  0  0  0  0  3  0  0  0  0  0  0
  191.0600  177.7350  145.1640 O   0  0  0  0  0  0  0  0  0  0  0  0
  191.7210  176.5910  145.6830 C   0  0  0  0  0  2  0  0  0  0  0  0
  190.5110  177.0060  147.6920 O   0  0  0  0  0  0  0  0  0  0  0  0
  191.5520  176.5400  147.1610 C   0  0  0  0  0  0  0  0  0  0  0  0
  192.5520  175.9340  147.9700 N   0  0  0  0  0  1  0  0  0  0  0  0
  1  2  1  0  0  0  0
  1  5  2  0  0  0  0
  2  3  2  0  0  0  0
  3 19  1  0  0  0  0
  3  4  1  0  0  0  0
  5  6  1  0  0  0  0
  6  4  2  0  0  0  0
  6 32  1  0  0  0  0
  7 11  1  0  0  0  0
  9  1  1  0  0  0  0
 10  9  2  0  0  0  0
 11  8  2  0  0  0  0
 11  9  1  0  0  0  0
 12  7  1  0  0  0  0
 12 13  2  0  0  0  0
 13 10  1  0  0  0  0
 14 13  1  0  0  0  0
 15 14  3  0  0  0  0
 16 15  1  0  0  0  0
 16 18  1  0  0  0  0
 18 17  1  0  0  0  0
 20 19  1  0  0  0  0
 21 20  1  0  0  0  0
 22 21  1  0  0  0  0
 23 24  1  0  0  0  0
 23 25  1  0  0  0  0
 24 25  1  0  0  0  0
 24 27  1  0  0  0  0
 25 31  1  6  0  0  0
 25 22  1  0  0  0  0
 27 28  1  0  0  0  0
 28 26  1  0  0  0  0
 29 28  2  0  0  0  0
 30 31  2  0  0  0  0
 32 33  1  0  0  0  0
 33 35  1  0  0  0  0
 35 34  2  0  0  0  0
 35 36  1  0  0  0  0
M  END
>  <MODEL>
7

>  <REMARK>
 VINA RESULT:      -7.5      3.060      7.771
  Name = 
  14 active torsions:
  status: ('A' for Active; 'I' for Inactive)
    1  A    between atoms: C_4  and  C_7
    2  A    between atoms: C_8  and  C_12
    3  A    between atoms: C_8  and  O_33
    4  A    between atoms: C_9  and  C_18
    5  A    between atoms: C_9  and  C_27
    6  A    between atoms: C_11  and  C_35
    7  A    between atoms: C_15  and  C_21
    8  A    between atoms: N_16  and  N_23
    9  A    between atoms: C_18  and  C_29
   10  A    between atoms: C_19  and  N_31
   11  A    between atoms: C_19  and  C_34
   12  A    between atoms: C_21  and  C_29
   13  A    between atoms: C_24  and  C_27
   14  A    between atoms: O_33  and  C_36
                            x       y       z     vdW  Elec       q    Type
                         _______ _______ _______ _____ _____    ______ ____

>  <TORSDO>
F 14

$$$$
=
 OpenBabel10222420003D

 36 38  0  0  1  0  0  0  0  0999 V2000
  187.9530  177.7700  143.2180 C   0  0  0  0  0  0  0  0  0  0  0  0
  186.7550  178.0720  143.7930 N   0  0  0  0  0  0  0  0  0  0  0  0
  186.5540  177.9380  145.1300 C   0  0  0  0  0  0  0  0  0  0  0  0
  187.5640  177.5050  145.9290 N   0  0  0  0  0  0  0  0  0  0  0  0
  189.0000  177.3240  144.0370 C   0  0  0  0  0  3  0  0  0  0  0  0
  188.7820  177.1960  145.4080 C   0  0  0  0  0  0  0  0  0  0  0  0
  187.3990  178.6280  139.5670 N   0  0  0  0  0  2  0  0  0  0  0  0
  186.0670  178.9720  141.3580 O   0  0  0  0  0  0  0  0  0  0  0  0
  188.1230  177.9380  141.7470 C   0  0  0  0  0  0  0  0  0  0  0  0
  189.3070  177.4780  141.1570 C   0  0  0  0  0  3  0  0  0  0  0  0
  187.1550  178.5290  140.9030 C   0  0  0  0  0  0  0  0  0  0  0  0
  188.5340  178.1810  139.0240 N   0  0  0  0  0  0  0  0  0  0  0  0
  189.5000  177.6070  139.7830 C   0  0  0  0  0  0  0  0  0  0  0  0
  190.7030  177.1190  139.1690 C   0  0  0  0  0  0  0  0  0  0  0  0
  191.7090  176.7180  138.6430 C   0  0  0  0  0  0  0  0  0  0  0  0
  192.9290  176.2420  137.9900 C   0  0  0  0  0  2  0  0  0  0  0  0
  194.1360  174.2530  137.8520 C   0  0  0  0  0  1  0  0  0  0  0  0
  192.8060  174.8260  137.7010 N   0  0  0  0  0  2  0  0  0  0  0  0
  185.2410  178.3020  145.7250 C   0  0  0  0  0  2  0  0  0  0  0  0
  184.5530  179.3370  144.8590 C   0  0  0  0  0  2  0  0  0  0  0  0
  183.0840  178.9960  144.7380 C   0  0  0  0  0  2  0  0  0  0  0  0
  182.7040  178.9180  143.2720 C   0  0  0  0  0  2  0  0  0  0  0  0
  180.7800  180.1250  142.4410 O   0  0  0  0  0  0  0  0  0  0  0  0
  180.6080  178.9160  141.7740 N   0  0  0  0  0  0  0  0  0  0  0  0
  181.1840  179.0120  143.1010 C   0  0  1  0  0  0  0  0  0  0  0  0
  182.7050  177.7040  138.9440 O   0  0  0  0  0  0  0  0  0  0  0  0
  181.6230  178.8460  140.8040 N   0  0  0  0  0  2  0  0  0  0  0  0
  181.6580  177.7830  139.8530 C   0  0  0  0  0  0  0  0  0  0  0  0
  180.7530  176.9080  139.8420 O   0  0  0  0  0  1  0  0  0  0  0  0
  179.6830  177.5490  144.1770 O   0  0  0  0  0  0  0  0  0  0  0  0
  180.2580  178.6250  144.2060 C   0  0  0  0  0  3  0  0  0  0  0  0
  189.8230  176.7580  146.2280 O   0  0  0  0  0  0  0  0  0  0  0  0
  191.1850  176.9110  145.8570 C   0  0  0  0  0  2  0  0  0  0  0  0
  192.4280  174.9090  146.2020 O   0  0  0  0  0  0  0  0  0  0  0  0
  192.0340  176.0050  146.6770 C   0  0  0  0  0  0  0  0  0  0  0  0
  192.4280  176.3920  147.9880 N   0  0  0  0  0  1  0  0  0  0  0  0
  1  2  1  0  0  0  0
  1  5  2  0  0  0  0
  2  3  2  0  0  0  0
  3 19  1  0  0  0  0
  3  4  1  0  0  0  0
  5  6  1  0  0  0  0
  6  4  2  0  0  0  0
  6 32  1  0  0  0  0
  7 11  1  0  0  0  0
  9  1  1  0  0  0  0
 10  9  2  0  0  0  0
 11  8  2  0  0  0  0
 11  9  1  0  0  0  0
 12  7  1  0  0  0  0
 12 13  2  0  0  0  0
 13 10  1  0  0  0  0
 14 13  1  0  0  0  0
 15 14  3  0  0  0  0
 16 15  1  0  0  0  0
 18 17  1  0  0  0  0
 18 16  1  0  0  0  0
 20 19  1  0  0  0  0
 21 20  1  0  0  0  0
 22 21  1  0  0  0  0
 23 25  1  0  0  0  0
 24 23  1  0  0  0  0
 24 25  1  0  0  0  0
 25 22  1  1  0  0  0
 25 31  1  0  0  0  0
 26 28  2  0  0  0  0
 27 24  1  0  0  0  0
 28 27  1  0  0  0  0
 29 28  1  0  0  0  0
 30 31  2  0  0  0  0
 33 32  1  0  0  0  0
 33 35  1  0  0  0  0
 34 35  2  0  0  0  0
 35 36  1  0  0  0  0
M  END
>  <MODEL>
8

>  <REMARK>
 VINA RESULT:      -7.5      2.619      7.638
  Name = 
  14 active torsions:
  status: ('A' for Active; 'I' for Inactive)
    1  A    between atoms: C_4  and  C_7
    2  A    between atoms: C_8  and  C_12
    3  A    between atoms: C_8  and  O_33
    4  A    between atoms: C_9  and  C_18
    5  A    between atoms: C_9  and  C_27
    6  A    between atoms: C_11  and  C_35
    7  A    between atoms: C_15  and  C_21
    8  A    between atoms: N_16  and  N_23
    9  A    between atoms: C_18  and  C_29
   10  A    between atoms: C_19  and  N_31
   11  A    between atoms: C_19  and  C_34
   12  A    between atoms: C_21  and  C_29
   13  A    between atoms: C_24  and  C_27
   14  A    between atoms: O_33  and  C_36
                            x       y       z     vdW  Elec       q    Type
                         _______ _______ _______ _____ _____    ______ ____

>  <TORSDO>
F 14

$$$$
=
 OpenBabel10222420003D

 36 38  0  0  1  0  0  0  0  0999 V2000
  187.3030  177.8330  143.9000 C   0  0  0  0  0  0  0  0  0  0  0  0
  187.5130  177.9780  142.5620 N   0  0  0  0  0  0  0  0  0  0  0  0
  188.6840  177.6070  141.9820 C   0  0  0  0  0  0  0  0  0  0  0  0
  189.6760  177.0670  142.7370 N   0  0  0  0  0  0  0  0  0  0  0  0
  188.3200  177.2750  144.6850 C   0  0  0  0  0  3  0  0  0  0  0  0
  189.5150  176.8940  144.0770 C   0  0  0  0  0  0  0  0  0  0  0  0
  184.5620  178.8790  146.3020 N   0  0  0  0  0  2  0  0  0  0  0  0
  186.7370  178.4150  146.6950 O   0  0  0  0  0  0  0  0  0  0  0  0
  185.9970  178.2520  144.4860 C   0  0  0  0  0  0  0  0  0  0  0  0
  184.8970  178.3900  143.6300 C   0  0  0  0  0  3  0  0  0  0  0  0
  185.7960  178.5120  145.8610 C   0  0  0  0  0  0  0  0  0  0  0  0
  183.5260  179.0030  145.4690 N   0  0  0  0  0  0  0  0  0  0  0  0
  183.6580  178.7690  144.1400 C   0  0  0  0  0  0  0  0  0  0  0  0
  182.5220  178.8930  143.2720 C   0  0  0  0  0  0  0  0  0  0  0  0
  181.5610  179.0020  142.5530 C   0  0  0  0  0  0  0  0  0  0  0  0
  180.3860  179.1450  141.6930 C   0  0  0  0  0  2  0  0  0  0  0  0
  178.9430  180.6320  140.6240 C   0  0  0  0  0  1  0  0  0  0  0  0
  180.2080  180.5400  141.3380 N   0  0  0  0  0  2  0  0  0  0  0  0
  188.8680  177.7560  140.5130 C   0  0  0  0  0  2  0  0  0  0  0  0
  189.8900  176.7530  140.0190 C   0  0  0  0  0  2  0  0  0  0  0  0
  189.9140  176.7630  138.5060 C   0  0  0  0  0  2  0  0  0  0  0  0
  188.5100  176.5440  137.9790 C   0  0  0  0  0  2  0  0  0  0  0  0
  187.4120  177.3040  135.9630 O   0  0  0  0  0  0  0  0  0  0  0  0
  186.6770  178.0070  136.9130 N   0  0  0  0  0  0  0  0  0  0  0  0
  188.0860  177.7020  137.0700 C   0  0  1  0  0  0  0  0  0  0  0  0
  183.8110  175.8220  137.8540 O   0  0  0  0  0  1  0  0  0  0  0  0
  185.8930  177.0610  137.5940 N   0  0  0  0  0  2  0  0  0  0  0  0
  184.5890  176.7160  137.1290 C   0  0  0  0  0  0  0  0  0  0  0  0
  184.1330  177.2270  136.0720 O   0  0  0  0  0  0  0  0  0  0  0  0
  189.0550  179.7840  137.5940 O   0  0  0  0  0  0  0  0  0  0  0  0
  189.0000  178.8530  136.8090 C   0  0  0  0  0  3  0  0  0  0  0  0
  190.5290  176.3320  144.8550 O   0  0  0  0  0  0  0  0  0  0  0  0
  191.3830  177.1280  145.6650 C   0  0  0  0  0  2  0  0  0  0  0  0
  192.1810  176.7330  147.8730 O   0  0  0  0  0  0  0  0  0  0  0  0
  191.1920  176.7720  147.0970 C   0  0  0  0  0  0  0  0  0  0  0  0
  189.8870  176.5070  147.5960 N   0  0  0  0  0  1  0  0  0  0  0  0
  1  9  1  0  0  0  0
  1  5  2  0  0  0  0
  2  1  1  0  0  0  0
  3  2  2  0  0  0  0
  3  4  1  0  0  0  0
  4  6  2  0  0  0  0
  6  5  1  0  0  0  0
  6 32  1  0  0  0  0
  9 11  1  0  0  0  0
 10 13  1  0  0  0  0
 10  9  2  0  0  0  0
 11  7  1  0  0  0  0
 11  8  2  0  0  0  0
 12  7  1  0  0  0  0
 13 12  2  0  0  0  0
 14 13  1  0  0  0  0
 15 14  3  0  0  0  0
 16 15  1  0  0  0  0
 17 18  1  0  0  0  0
 18 16  1  0  0  0  0
 19  3  1  0  0  0  0
 20 19  1  0  0  0  0
 21 20  1  0  0  0  0
 22 21  1  0  0  0  0
 23 24  1  0  0  0  0
 23 25  1  0  0  0  0
 24 25  1  0  0  0  0
 24 27  1  0  0  0  0
 25 31  1  6  0  0  0
 25 22  1  0  0  0  0
 28 27  1  0  0  0  0
 28 26  1  0  0  0  0
 29 28  2  0  0  0  0
 31 30  2  0  0  0  0
 32 33  1  0  0  0  0
 33 35  1  0  0  0  0
 35 36  1  0  0  0  0
 35 34  2  0  0  0  0
M  END
>  <MODEL>
9

>  <REMARK>
 VINA RESULT:      -7.4      1.218      1.424
  Name = 
  14 active torsions:
  status: ('A' for Active; 'I' for Inactive)
    1  A    between atoms: C_4  and  C_7
    2  A    between atoms: C_8  and  C_12
    3  A    between atoms: C_8  and  O_33
    4  A    between atoms: C_9  and  C_18
    5  A    between atoms: C_9  and  C_27
    6  A    between atoms: C_11  and  C_35
    7  A    between atoms: C_15  and  C_21
    8  A    between atoms: N_16  and  N_23
    9  A    between atoms: C_18  and  C_29
   10  A    between atoms: C_19  and  N_31
   11  A    between atoms: C_19  and  C_34
   12  A    between atoms: C_21  and  C_29
   13  A    between atoms: C_24  and  C_27
   14  A    between atoms: O_33  and  C_36
                            x       y       z     vdW  Elec       q    Type
                         _______ _______ _______ _____ _____    ______ ____

>  <TORSDO>
F 14

$$$$
