=
 OpenBabel10222416373D

 32 36  0  0  1  0  0  0  0  0999 V2000
  185.6600  178.6040  141.2810 N   0  0  0  0  0  0  0  0  0  0  0  0
  180.2300  177.7010  141.1500 N   0  0  0  0  0  1  0  0  0  0  0  0
  188.0590  178.7110  138.3840 C   0  0  0  0  0  0  0  0  0  0  0  0
  184.3730  178.5090  141.0800 C   0  0  0  0  0  0  0  0  0  0  0  0
  188.2770  177.4010  142.3540 C   0  0  2  0  0  3  0  0  0  0  0  0
  181.6240  177.9840  141.0890 C   0  0  0  0  0  0  0  0  0  0  0  0
  189.6820  177.2200  142.4620 O   0  0  0  0  0  0  0  0  0  0  0  0
  188.0590  178.2510  141.1260 C   0  0  2  0  0  3  0  0  0  0  0  0
  189.2350  178.4300  139.0930 O   0  0  0  0  0  0  0  0  0  0  0  0
  183.5350  178.9150  142.1430 C   0  0  0  0  0  0  0  0  0  0  0  0
  186.7500  178.4300  139.0460 C   0  0  0  0  0  0  0  0  0  0  0  0
  188.1220  179.1720  137.2120 O   0  0  0  0  0  0  0  0  0  0  0  0
  190.2340  177.5650  141.2030 C   0  0  0  0  0  2  0  0  0  0  0  0
  183.7640  177.9380  139.9250 C   0  0  0  0  0  0  0  0  0  0  0  0
  186.7390  178.2030  140.4750 N   0  0  0  0  0  0  0  0  0  0  0  0
  182.3860  177.6090  139.9770 C   0  0  0  0  0  0  0  0  0  0  0  0
  189.0810  177.6360  140.2540 C   0  0  1  0  0  3  0  0  0  0  0  0
  182.2090  178.6420  142.1170 N   0  0  0  0  0  0  0  0  0  0  0  0
  181.7000  176.9040  138.8380 C   0  0  0  0  0  1  0  0  0  0  0  0
  184.3580  177.8170  138.7280 C   0  0  0  0  0  3  0  0  0  0  0  0
  185.6950  178.1970  138.2840 C   0  0  0  0  0  3  0  0  0  0  0  0
  187.7330  178.0840  143.6110 C   0  0  2  0  0  3  0  0  0  0  0  0
  188.3970  177.6680  144.9360 C   0  0  1  0  0  3  0  0  0  0  0  0
  187.0910  177.0390  144.5000 C   0  0  0  0  0  2  0  0  0  0  0  0
  190.5990  176.8210  145.4540 N   0  0  0  0  0  0  0  0  0  0  0  0
  189.4910  176.6610  144.8060 C   0  0  0  0  0  3  0  0  0  0  0  0
  192.0310  175.4410  144.2160 O   0  0  0  0  0  0  0  0  0  0  0  0
  191.6860  175.9010  145.3400 C   0  0  0  0  0  0  0  0  0  0  0  0
  192.4090  175.4660  146.5670 C   0  0  0  0  0  2  0  0  0  0  0  0
  191.8750  176.2190  147.7740 C   0  0  0  0  0  1  0  0  0  0  0  0
  184.5010  180.1790  144.2600 C   0  0  0  0  0  3  0  0  0  0  0  0
  184.0620  179.6020  143.2980 C   0  0  0  0  0  0  0  0  0  0  0  0
  3 11  1  0  0  0  0
  3  9  1  0  0  0  0
  4  1  2  0  0  0  0
  4 10  1  0  0  0  0
  5  7  1  1  0  0  0
  5 22  1  0  0  0  0
  6  2  1  0  0  0  0
  6 18  1  0  0  0  0
  8 15  1  6  0  0  0
  8  5  1  0  0  0  0
  9 17  1  0  0  0  0
 10 32  1  0  0  0  0
 11 15  1  0  0  0  0
 12  3  2  0  0  0  0
 13  7  1  0  0  0  0
 14 16  1  0  0  0  0
 14  4  1  0  0  0  0
 15  1  1  0  0  0  0
 16  6  2  0  0  0  0
 17  8  1  0  0  0  0
 17 13  1  1  0  0  0
 18 10  2  0  0  0  0
 19 16  1  0  0  0  0
 20 14  2  0  0  0  0
 21 20  1  0  0  0  0
 21 11  2  0  0  0  0
 22 24  1  1  0  0  0
 22 23  1  0  0  0  0
 23 26  1  6  0  0  0
 24 23  1  0  0  0  0
 26 25  2  0  0  0  0
 27 28  2  0  0  0  0
 28 25  1  0  0  0  0
 28 29  1  0  0  0  0
 29 30  1  0  0  0  0
 32 31  3  0  0  0  0
M  END
>  <MODEL>
1

>  <REMARK>
 VINA RESULT:      -7.6      0.000      0.000
  Name = 
  5 active torsions:
  status: ('A' for Active; 'I' for Inactive)
    1  A    between atoms: C_4  and  C_6
    2  A    between atoms: C_9  and  C_30
    3  A    between atoms: C_10  and  C_26
    4  A    between atoms: N_11  and  C_30
    5  A    between atoms: C_14  and  C_29
                            x       y       z     vdW  Elec       q    Type
                         _______ _______ _______ _____ _____    ______ ____

>  <TORSDO>
F 5

$$$$
=
 OpenBabel10222416373D

 32 36  0  0  1  0  0  0  0  0999 V2000
  185.2730  178.0170  138.4280 N   0  0  0  0  0  0  0  0  0  0  0  0
  181.3160  175.3260  135.7030 N   0  0  0  0  0  1  0  0  0  0  0  0
  188.9910  177.8530  137.8680 C   0  0  0  0  0  0  0  0  0  0  0  0
  184.4470  177.4190  137.6120 C   0  0  0  0  0  0  0  0  0  0  0  0
  186.5240  178.2780  141.2240 C   0  0  2  0  0  3  0  0  0  0  0  0
  182.3950  176.0260  136.3160 C   0  0  0  0  0  0  0  0  0  0  0  0
  187.5020  178.6440  142.1860 O   0  0  0  0  0  0  0  0  0  0  0  0
  187.1700  178.4780  139.8740 C   0  0  2  0  0  3  0  0  0  0  0  0
  189.3990  178.2780  139.1390 O   0  0  0  0  0  0  0  0  0  0  0  0
  183.1110  177.8770  137.6160 C   0  0  0  0  0  0  0  0  0  0  0  0
  187.5760  177.4080  137.6920 C   0  0  0  0  0  0  0  0  0  0  0  0
  189.8130  177.8350  136.9130 O   0  0  0  0  0  0  0  0  0  0  0  0
  188.7490  178.6620  141.5120 C   0  0  0  0  0  2  0  0  0  0  0  0
  184.7670  176.2870  136.8070 C   0  0  0  0  0  0  0  0  0  0  0  0
  186.6190  177.7410  138.7250 N   0  0  0  0  0  0  0  0  0  0  0  0
  183.7070  175.5490  136.2210 C   0  0  0  0  0  0  0  0  0  0  0  0
  188.5190  177.9740  140.2050 C   0  0  1  0  0  3  0  0  0  0  0  0
  182.1410  177.1770  136.9810 N   0  0  0  0  0  0  0  0  0  0  0  0
  183.9590  174.2820  135.4500 C   0  0  0  0  0  1  0  0  0  0  0  0
  186.0080  175.9400  136.4330 C   0  0  0  0  0  3  0  0  0  0  0  0
  187.2970  176.5620  136.7150 C   0  0  0  0  0  3  0  0  0  0  0  0
  185.2750  179.1480  141.3800 C   0  0  2  0  0  3  0  0  0  0  0  0
  184.6540  179.1750  142.7880 C   0  0  1  0  0  3  0  0  0  0  0  0
  184.0960  178.2600  141.7200 C   0  0  0  0  0  2  0  0  0  0  0  0
  185.6250  178.8510  144.9750 N   0  0  0  0  0  0  0  0  0  0  0  0
  185.3680  178.3530  143.8100 C   0  0  0  0  0  3  0  0  0  0  0  0
  186.0780  178.2830  147.2020 O   0  0  0  0  0  0  0  0  0  0  0  0
  186.3310  178.1160  145.9770 C   0  0  0  0  0  0  0  0  0  0  0  0
  187.3930  177.1540  145.5690 C   0  0  0  0  0  2  0  0  0  0  0  0
  188.7280  177.8730  145.4710 C   0  0  0  0  0  1  0  0  0  0  0  0
  182.4060  180.0840  138.8980 C   0  0  0  0  0  3  0  0  0  0  0  0
  182.7290  179.0800  138.3160 C   0  0  0  0  0  0  0  0  0  0  0  0
  1 15  1  0  0  0  0
  2  6  1  0  0  0  0
  3  9  1  0  0  0  0
  4 10  1  0  0  0  0
  4  1  2  0  0  0  0
  5 22  1  0  0  0  0
  5  7  1  1  0  0  0
  6 18  1  0  0  0  0
  8 15  1  6  0  0  0
  8 17  1  0  0  0  0
  8  5  1  0  0  0  0
  9 17  1  0  0  0  0
 10 32  1  0  0  0  0
 11  3  1  0  0  0  0
 11 15  1  0  0  0  0
 12  3  2  0  0  0  0
 13  7  1  0  0  0  0
 14  4  1  0  0  0  0
 16  6  2  0  0  0  0
 16 14  1  0  0  0  0
 17 13  1  1  0  0  0
 18 10  2  0  0  0  0
 19 16  1  0  0  0  0
 20 21  1  0  0  0  0
 20 14  2  0  0  0  0
 21 11  2  0  0  0  0
 22 24  1  6  0  0  0
 22 23  1  0  0  0  0
 23 26  1  1  0  0  0
 24 23  1  0  0  0  0
 25 28  1  0  0  0  0
 26 25  2  0  0  0  0
 28 27  2  0  0  0  0
 29 28  1  0  0  0  0
 30 29  1  0  0  0  0
 32 31  3  0  0  0  0
M  END
>  <MODEL>
2

>  <REMARK>
 VINA RESULT:      -7.4      2.688      4.102
  Name = 
  5 active torsions:
  status: ('A' for Active; 'I' for Inactive)
    1  A    between atoms: C_4  and  C_6
    2  A    between atoms: C_9  and  C_30
    3  A    between atoms: C_10  and  C_26
    4  A    between atoms: N_11  and  C_30
    5  A    between atoms: C_14  and  C_29
                            x       y       z     vdW  Elec       q    Type
                         _______ _______ _______ _____ _____    ______ ____

>  <TORSDO>
F 5

$$$$
=
 OpenBabel10222416373D

 32 36  0  0  1  0  0  0  0  0999 V2000
  189.4030  175.9930  137.6140 N   0  0  0  0  0  0  0  0  0  0  0  0
  185.2020  172.6660  136.3460 N   0  0  0  0  0  1  0  0  0  0  0  0
  193.0370  175.5720  136.7290 C   0  0  0  0  0  0  0  0  0  0  0  0
  188.4990  175.1850  137.1280 C   0  0  0  0  0  0  0  0  0  0  0  0
  190.9550  177.1040  140.0230 C   0  0  2  0  0  3  0  0  0  0  0  0
  186.3340  173.5000  136.5800 C   0  0  0  0  0  0  0  0  0  0  0  0
  192.0300  177.7360  140.7040 O   0  0  0  0  0  0  0  0  0  0  0  0
  191.4440  176.8480  138.6180 C   0  0  2  0  0  3  0  0  0  0  0  0
  193.5790  176.3710  137.7440 O   0  0  0  0  0  0  0  0  0  0  0  0
  187.1660  175.6510  137.1330 C   0  0  0  0  0  0  0  0  0  0  0  0
  191.6180  175.1280  136.8620 C   0  0  0  0  0  0  0  0  0  0  0  0
  193.7470  175.2310  135.7460 O   0  0  0  0  0  0  0  0  0  0  0  0
  193.1930  177.5080  139.9270 C   0  0  0  0  0  2  0  0  0  0  0  0
  188.7420  173.8490  136.6970 C   0  0  0  0  0  0  0  0  0  0  0  0
  190.7770  175.7950  137.8330 N   0  0  0  0  0  0  0  0  0  0  0  0
  187.6330  172.9870  136.4990 C   0  0  0  0  0  0  0  0  0  0  0  0
  192.8280  176.4440  138.9420 C   0  0  1  0  0  3  0  0  0  0  0  0
  186.1400  174.8080  136.8660 N   0  0  0  0  0  0  0  0  0  0  0  0
  187.8140  171.5350  136.1510 C   0  0  0  0  0  1  0  0  0  0  0  0
  189.9380  173.3720  136.3190 C   0  0  0  0  0  3  0  0  0  0  0  0
  191.2420  174.0210  136.2450 C   0  0  0  0  0  3  0  0  0  0  0  0
  189.7200  178.0070  140.0290 C   0  0  2  0  0  3  0  0  0  0  0  0
  189.1270  178.3160  141.4160 C   0  0  1  0  0  3  0  0  0  0  0  0
  188.5380  177.2200  140.5550 C   0  0  0  0  0  2  0  0  0  0  0  0
  189.6570  178.1360  143.7660 N   0  0  0  0  0  0  0  0  0  0  0  0
  189.8520  177.6960  142.5650 C   0  0  0  0  0  3  0  0  0  0  0  0
  191.6020  177.4610  144.8830 O   0  0  0  0  0  0  0  0  0  0  0  0
  190.3470  177.5960  144.8940 C   0  0  0  0  0  0  0  0  0  0  0  0
  189.5720  177.1700  146.0930 C   0  0  0  0  0  2  0  0  0  0  0  0
  188.1080  177.5370  145.9160 C   0  0  0  0  0  1  0  0  0  0  0  0
  186.5850  178.1710  137.7070 C   0  0  0  0  0  3  0  0  0  0  0  0
  186.8490  177.0240  137.4480 C   0  0  0  0  0  0  0  0  0  0  0  0
  1 15  1  0  0  0  0
  2  6  1  0  0  0  0
  3 11  1  0  0  0  0
  3  9  1  0  0  0  0
  4 10  1  0  0  0  0
  4  1  2  0  0  0  0
  5 22  1  0  0  0  0
  5  7  1  1  0  0  0
  6 18  1  0  0  0  0
  8 15  1  1  0  0  0
  8 17  1  0  0  0  0
  8  5  1  0  0  0  0
  9 17  1  0  0  0  0
 10 32  1  0  0  0  0
 11 15  1  0  0  0  0
 12  3  2  0  0  0  0
 13  7  1  0  0  0  0
 14  4  1  0  0  0  0
 16  6  2  0  0  0  0
 16 14  1  0  0  0  0
 17 13  1  1  0  0  0
 18 10  2  0  0  0  0
 19 16  1  0  0  0  0
 20 14  2  0  0  0  0
 21 20  1  0  0  0  0
 21 11  2  0  0  0  0
 22 24  1  6  0  0  0
 22 23  1  0  0  0  0
 23 26  1  1  0  0  0
 24 23  1  0  0  0  0
 25 28  1  0  0  0  0
 26 25  2  0  0  0  0
 27 28  2  0  0  0  0
 28 29  1  0  0  0  0
 30 29  1  0  0  0  0
 32 31  3  0  0  0  0
M  END
>  <MODEL>
3

>  <REMARK>
 VINA RESULT:      -7.4      4.131      5.767
  Name = 
  5 active torsions:
  status: ('A' for Active; 'I' for Inactive)
    1  A    between atoms: C_4  and  C_6
    2  A    between atoms: C_9  and  C_30
    3  A    between atoms: C_10  and  C_26
    4  A    between atoms: N_11  and  C_30
    5  A    between atoms: C_14  and  C_29
                            x       y       z     vdW  Elec       q    Type
                         _______ _______ _______ _____ _____    ______ ____

>  <TORSDO>
F 5

$$$$
=
 OpenBabel10222416373D

 32 36  0  0  1  0  0  0  0  0999 V2000
  186.7960  177.6090  141.8000 N   0  0  0  0  0  0  0  0  0  0  0  0
  183.0920  179.3820  145.4680 N   0  0  0  0  0  1  0  0  0  0  0  0
  190.0810  175.8980  142.4700 C   0  0  0  0  0  0  0  0  0  0  0  0
  185.9590  177.8540  142.7730 C   0  0  0  0  0  0  0  0  0  0  0  0
  188.6980  178.6280  139.6120 C   0  0  2  0  0  3  0  0  0  0  0  0
  184.0720  178.8430  144.5870 C   0  0  0  0  0  0  0  0  0  0  0  0
  189.7810  178.5700  138.6930 O   0  0  0  0  0  0  0  0  0  0  0  0
  188.8370  177.4130  140.4970 C   0  0  2  0  0  3  0  0  0  0  0  0
  190.7160  176.2150  141.2620 O   0  0  0  0  0  0  0  0  0  0  0  0
  184.6120  178.0750  142.4090 C   0  0  0  0  0  0  0  0  0  0  0  0
  188.8530  176.6620  142.8440 C   0  0  0  0  0  0  0  0  0  0  0  0
  190.5550  175.0030  143.2190 O   0  0  0  0  0  0  0  0  0  0  0  0
  190.7180  177.6510  139.2280 C   0  0  0  0  0  2  0  0  0  0  0  0
  186.3200  178.0150  144.1420 C   0  0  0  0  0  0  0  0  0  0  0  0
  188.1910  177.4420  141.8200 N   0  0  0  0  0  0  0  0  0  0  0  0
  185.3750  178.5890  145.0300 C   0  0  0  0  0  0  0  0  0  0  0  0
  190.3070  177.4220  140.6470 C   0  0  1  0  0  3  0  0  0  0  0  0
  183.7250  178.5570  143.3110 N   0  0  0  0  0  0  0  0  0  0  0  0
  185.7200  178.8920  146.4630 C   0  0  0  0  0  1  0  0  0  0  0  0
  187.4400  177.5310  144.7010 C   0  0  0  0  0  3  0  0  0  0  0  0
  188.5370  176.7620  144.1240 C   0  0  0  0  0  3  0  0  0  0  0  0
  187.3650  178.6230  138.8610 C   0  0  2  0  0  3  0  0  0  0  0  0
  187.1120  177.3990  137.9610 C   0  0  1  0  0  3  0  0  0  0  0  0
  187.6390  178.6900  137.3730 C   0  0  0  0  0  2  0  0  0  0  0  0
  188.1140  175.3390  137.1960 N   0  0  0  0  0  0  0  0  0  0  0  0
  188.2040  176.3810  137.9580 C   0  0  0  0  0  3  0  0  0  0  0  0
  190.2630  174.5330  137.6650 O   0  0  0  0  0  0  0  0  0  0  0  0
  189.1180  174.3230  137.1780 C   0  0  0  0  0  0  0  0  0  0  0  0
  188.8130  173.0030  136.5580 C   0  0  0  0  0  2  0  0  0  0  0  0
  187.3850  172.5970  136.8880 C   0  0  0  0  0  1  0  0  0  0  0  0
  183.7550  177.6200  139.9440 C   0  0  0  0  0  3  0  0  0  0  0  0
  184.1450  177.8250  141.0660 C   0  0  0  0  0  0  0  0  0  0  0  0
  1 15  1  0  0  0  0
  1  4  2  0  0  0  0
  3 11  1  0  0  0  0
  3 12  2  0  0  0  0
  4 14  1  0  0  0  0
  5  7  1  6  0  0  0
  5  8  1  0  0  0  0
  6 16  2  0  0  0  0
  6  2  1  0  0  0  0
  7 13  1  0  0  0  0
  8 17  1  0  0  0  0
  8 15  1  1  0  0  0
  9  3  1  0  0  0  0
 10  4  1  0  0  0  0
 10 18  2  0  0  0  0
 11 21  2  0  0  0  0
 14 20  2  0  0  0  0
 14 16  1  0  0  0  0
 15 11  1  0  0  0  0
 16 19  1  0  0  0  0
 17 13  1  6  0  0  0
 17  9  1  0  0  0  0
 18  6  1  0  0  0  0
 21 20  1  0  0  0  0
 22 24  1  6  0  0  0
 22  5  1  0  0  0  0
 23 26  1  1  0  0  0
 23 22  1  0  0  0  0
 24 23  1  0  0  0  0
 25 26  2  0  0  0  0
 28 25  1  0  0  0  0
 28 27  2  0  0  0  0
 29 30  1  0  0  0  0
 29 28  1  0  0  0  0
 31 32  3  0  0  0  0
 32 10  1  0  0  0  0
M  END
>  <MODEL>
4

>  <REMARK>
 VINA RESULT:      -7.3      2.537      5.940
  Name = 
  5 active torsions:
  status: ('A' for Active; 'I' for Inactive)
    1  A    between atoms: C_4  and  C_6
    2  A    between atoms: C_9  and  C_30
    3  A    between atoms: C_10  and  C_26
    4  A    between atoms: N_11  and  C_30
    5  A    between atoms: C_14  and  C_29
                            x       y       z     vdW  Elec       q    Type
                         _______ _______ _______ _____ _____    ______ ____

>  <TORSDO>
F 5

$$$$
=
 OpenBabel10222416373D

 32 36  0  0  1  0  0  0  0  0999 V2000
  188.3550  178.3770  142.4600 N   0  0  0  0  0  0  0  0  0  0  0  0
  188.4380  177.0540  147.8050 N   0  0  0  0  0  1  0  0  0  0  0  0
  185.3590  179.1210  140.3060 C   0  0  0  0  0  0  0  0  0  0  0  0
  188.2260  178.2070  143.7490 C   0  0  0  0  0  0  0  0  0  0  0  0
  189.0530  177.2480  139.6870 C   0  0  2  0  0  3  0  0  0  0  0  0
  188.3310  177.4580  146.4430 C   0  0  0  0  0  0  0  0  0  0  0  0
  189.0400  177.1710  138.2690 O   0  0  0  0  0  0  0  0  0  0  0  0
  187.9900  178.2530  140.0610 C   0  0  2  0  0  3  0  0  0  0  0  0
  185.9370  178.8340  139.0620 O   0  0  0  0  0  0  0  0  0  0  0  0
  189.3910  178.3750  144.5290 C   0  0  0  0  0  0  0  0  0  0  0  0
  186.0530  178.6340  141.5360 C   0  0  0  0  0  0  0  0  0  0  0  0
  184.2730  179.7560  140.3680 O   0  0  0  0  0  0  0  0  0  0  0  0
  187.8170  177.7470  137.8420 C   0  0  0  0  0  2  0  0  0  0  0  0
  187.0380  177.7680  144.4020 C   0  0  0  0  0  0  0  0  0  0  0  0
  187.4270  178.1930  141.4200 N   0  0  0  0  0  0  0  0  0  0  0  0
  187.1270  177.3200  145.7440 C   0  0  0  0  0  0  0  0  0  0  0  0
  186.9680  177.8640  139.0680 C   0  0  1  0  0  3  0  0  0  0  0  0
  189.4100  178.0000  145.8300 N   0  0  0  0  0  0  0  0  0  0  0  0
  185.9390  176.7410  146.4640 C   0  0  0  0  0  1  0  0  0  0  0  0
  185.8000  177.8780  143.8950 C   0  0  0  0  0  3  0  0  0  0  0  0
  185.3350  178.4320  142.6280 C   0  0  0  0  0  3  0  0  0  0  0  0
  190.4340  177.6860  140.1810 C   0  0  2  0  0  3  0  0  0  0  0  0
  191.6190  176.8400  139.6820 C   0  0  1  0  0  3  0  0  0  0  0  0
  191.0170  176.5890  141.0480 C   0  0  0  0  0  2  0  0  0  0  0  0
  192.1510  175.1770  138.0120 N   0  0  0  0  0  0  0  0  0  0  0  0
  191.2530  175.7130  138.7730 C   0  0  0  0  0  3  0  0  0  0  0  0
  190.6700  173.6630  137.0120 O   0  0  0  0  0  0  0  0  0  0  0  0
  191.8440  174.1170  137.1050 C   0  0  0  0  0  0  0  0  0  0  0  0
  192.9300  173.5280  136.2730 C   0  0  0  0  0  2  0  0  0  0  0  0
  194.2310  173.5130  137.0590 C   0  0  0  0  0  1  0  0  0  0  0  0
  191.6160  179.3770  143.4990 C   0  0  0  0  0  3  0  0  0  0  0  0
  190.6030  178.9220  143.9650 C   0  0  0  0  0  0  0  0  0  0  0  0
  1  4  2  0  0  0  0
  3 12  2  0  0  0  0
  3 11  1  0  0  0  0
  4 14  1  0  0  0  0
  4 10  1  0  0  0  0
  5  7  1  6  0  0  0
  5  8  1  0  0  0  0
  5 22  1  0  0  0  0
  6  2  1  0  0  0  0
  8 15  1  1  0  0  0
  9 17  1  0  0  0  0
  9  3  1  0  0  0  0
 10 18  2  0  0  0  0
 11 21  2  0  0  0  0
 13  7  1  0  0  0  0
 14 16  1  0  0  0  0
 15 11  1  0  0  0  0
 15  1  1  0  0  0  0
 16  6  2  0  0  0  0
 16 19  1  0  0  0  0
 17 13  1  6  0  0  0
 17  8  1  0  0  0  0
 18  6  1  0  0  0  0
 20 14  2  0  0  0  0
 21 20  1  0  0  0  0
 22 24  1  1  0  0  0
 23 26  1  6  0  0  0
 23 22  1  0  0  0  0
 23 24  1  0  0  0  0
 25 26  2  0  0  0  0
 27 28  2  0  0  0  0
 28 25  1  0  0  0  0
 29 30  1  0  0  0  0
 29 28  1  0  0  0  0
 31 32  3  0  0  0  0
 32 10  1  0  0  0  0
M  END
>  <MODEL>
5

>  <REMARK>
 VINA RESULT:      -7.2      3.157      6.341
  Name = 
  5 active torsions:
  status: ('A' for Active; 'I' for Inactive)
    1  A    between atoms: C_4  and  C_6
    2  A    between atoms: C_9  and  C_30
    3  A    between atoms: C_10  and  C_26
    4  A    between atoms: N_11  and  C_30
    5  A    between atoms: C_14  and  C_29
                            x       y       z     vdW  Elec       q    Type
                         _______ _______ _______ _____ _____    ______ ____

>  <TORSDO>
F 5

$$$$
=
 OpenBabel10222416373D

 32 36  0  0  1  0  0  0  0  0999 V2000
  183.4370  178.0140  139.7960 N   0  0  0  0  0  0  0  0  0  0  0  0
  178.9310  174.9320  139.0780 N   0  0  0  0  0  1  0  0  0  0  0  0
  186.4990  178.1810  137.6140 C   0  0  0  0  0  0  0  0  0  0  0  0
  182.3880  177.3310  139.4250 C   0  0  0  0  0  0  0  0  0  0  0  0
  185.7870  178.4320  141.7320 C   0  0  2  0  0  3  0  0  0  0  0  0
  180.1040  175.7360  139.1570 C   0  0  0  0  0  0  0  0  0  0  0  0
  187.0590  178.9010  142.1590 O   0  0  0  0  0  0  0  0  0  0  0  0
  185.7330  178.6690  140.2420 C   0  0  2  0  0  3  0  0  0  0  0  0
  187.3980  178.6610  138.5750 O   0  0  0  0  0  0  0  0  0  0  0  0
  181.1630  177.6650  140.0430 C   0  0  0  0  0  0  0  0  0  0  0  0
  185.2030  177.6060  138.0840 C   0  0  0  0  0  0  0  0  0  0  0  0
  186.7980  178.2230  136.3910 O   0  0  0  0  0  0  0  0  0  0  0  0
  187.8590  179.0220  140.9960 C   0  0  0  0  0  2  0  0  0  0  0  0
  182.4080  176.2210  138.5310 C   0  0  0  0  0  0  0  0  0  0  0  0
  184.7900  177.8670  139.4460 N   0  0  0  0  0  0  0  0  0  0  0  0
  181.2680  175.3800  138.4670 C   0  0  0  0  0  0  0  0  0  0  0  0
  187.1250  178.2950  139.9150 C   0  0  1  0  0  3  0  0  0  0  0  0
  180.0770  176.8700  139.8960 N   0  0  0  0  0  0  0  0  0  0  0  0
  181.2550  174.1290  137.6310 C   0  0  0  0  0  1  0  0  0  0  0  0
  183.3710  175.9820  137.6280 C   0  0  0  0  0  3  0  0  0  0  0  0
  184.5890  176.7230  137.3150 C   0  0  0  0  0  3  0  0  0  0  0  0
  184.6720  179.1880  142.4590 C   0  0  2  0  0  3  0  0  0  0  0  0
  184.7050  179.1070  143.9960 C   0  0  1  0  0  3  0  0  0  0  0  0
  183.8030  178.1910  143.1970 C   0  0  0  0  0  2  0  0  0  0  0  0
  186.2590  178.5520  145.7590 N   0  0  0  0  0  0  0  0  0  0  0  0
  185.8310  178.3080  144.5630 C   0  0  0  0  0  3  0  0  0  0  0  0
  188.1410  177.1640  145.6130 O   0  0  0  0  0  0  0  0  0  0  0  0
  187.3530  177.8360  146.3350 C   0  0  0  0  0  0  0  0  0  0  0  0
  187.5540  177.8680  147.8110 C   0  0  0  0  0  2  0  0  0  0  0  0
  189.0250  178.0900  148.1240 C   0  0  0  0  0  1  0  0  0  0  0  0
  180.9230  179.8180  141.5670 C   0  0  0  0  0  3  0  0  0  0  0  0
  181.0340  178.8400  140.8730 C   0  0  0  0  0  0  0  0  0  0  0  0
  2  6  1  0  0  0  0
  3 11  1  0  0  0  0
  3  9  1  0  0  0  0
  4  1  2  0  0  0  0
  4 10  1  0  0  0  0
  5  7  1  1  0  0  0
  5 22  1  0  0  0  0
  6 18  1  0  0  0  0
  8 15  1  6  0  0  0
  8  5  1  0  0  0  0
  9 17  1  0  0  0  0
 10 32  1  0  0  0  0
 11 15  1  0  0  0  0
 12  3  2  0  0  0  0
 13  7  1  0  0  0  0
 14  4  1  0  0  0  0
 15  1  1  0  0  0  0
 16 14  1  0  0  0  0
 16  6  2  0  0  0  0
 17  8  1  0  0  0  0
 17 13  1  1  0  0  0
 18 10  2  0  0  0  0
 19 16  1  0  0  0  0
 20 14  2  0  0  0  0
 21 20  1  0  0  0  0
 21 11  2  0  0  0  0
 22 24  1  6  0  0  0
 22 23  1  0  0  0  0
 23 26  1  6  0  0  0
 24 23  1  0  0  0  0
 25 28  1  0  0  0  0
 26 25  2  0  0  0  0
 27 28  2  0  0  0  0
 28 29  1  0  0  0  0
 29 30  1  0  0  0  0
 32 31  3  0  0  0  0
M  END
>  <MODEL>
6

>  <REMARK>
 VINA RESULT:      -7.2      2.391      3.339
  Name = 
  5 active torsions:
  status: ('A' for Active; 'I' for Inactive)
    1  A    between atoms: C_4  and  C_6
    2  A    between atoms: C_9  and  C_30
    3  A    between atoms: C_10  and  C_26
    4  A    between atoms: N_11  and  C_30
    5  A    between atoms: C_14  and  C_29
                            x       y       z     vdW  Elec       q    Type
                         _______ _______ _______ _____ _____    ______ ____

>  <TORSDO>
F 5

$$$$
=
 OpenBabel10222416373D

 32 36  0  0  1  0  0  0  0  0999 V2000
  183.3400  178.3770  141.1180 N   0  0  0  0  0  0  0  0  0  0  0  0
  188.2980  177.8560  143.4570 N   0  0  0  0  0  1  0  0  0  0  0  0
  180.1260  179.4920  142.7280 C   0  0  0  0  0  0  0  0  0  0  0  0
  184.4690  178.4300  141.7720 C   0  0  0  0  0  0  0  0  0  0  0  0
  181.1360  176.7280  139.7490 C   0  0  2  0  0  3  0  0  0  0  0  0
  186.9970  178.0740  142.9180 C   0  0  0  0  0  0  0  0  0  0  0  0
  179.8390  176.4530  139.2380 O   0  0  0  0  0  0  0  0  0  0  0  0
  181.0080  177.9990  140.5530 C   0  0  2  0  0  3  0  0  0  0  0  0
  179.2380  178.9010  141.8200 O   0  0  0  0  0  0  0  0  0  0  0  0
  185.6500  178.4280  140.9970 C   0  0  0  0  0  0  0  0  0  0  0  0
  181.5490  179.0370  142.7220 C   0  0  0  0  0  0  0  0  0  0  0  0
  179.7170  180.3690  143.5350 O   0  0  0  0  0  0  0  0  0  0  0  0
  178.9310  177.2350  139.9940 C   0  0  0  0  0  2  0  0  0  0  0  0
  184.5960  178.3840  143.1910 C   0  0  0  0  0  0  0  0  0  0  0  0
  182.0200  178.2710  141.5870 N   0  0  0  0  0  0  0  0  0  0  0  0
  185.8740  178.1260  143.7500 C   0  0  0  0  0  0  0  0  0  0  0  0
  179.6980  177.7250  141.1810 C   0  0  1  0  0  3  0  0  0  0  0  0
  186.8580  178.2500  141.5830 N   0  0  0  0  0  0  0  0  0  0  0  0
  186.0670  177.9550  145.2320 C   0  0  0  0  0  1  0  0  0  0  0  0
  183.6250  178.7110  144.0570 C   0  0  0  0  0  3  0  0  0  0  0  0
  182.2590  179.1700  143.8290 C   0  0  0  0  0  3  0  0  0  0  0  0
  182.1340  176.8930  138.6010 C   0  0  2  0  0  3  0  0  0  0  0  0
  182.2190  175.7110  137.6180 C   0  0  1  0  0  3  0  0  0  0  0  0
  183.2230  175.8490  138.7420 C   0  0  0  0  0  2  0  0  0  0  0  0
  180.9570  173.7530  136.9800 N   0  0  0  0  0  0  0  0  0  0  0  0
  181.3040  174.5710  137.9200 C   0  0  0  0  0  3  0  0  0  0  0  0
  179.0490  172.8040  137.9540 O   0  0  0  0  0  0  0  0  0  0  0  0
  180.0610  172.6650  137.2110 C   0  0  0  0  0  0  0  0  0  0  0  0
  180.3350  171.3430  136.5820 C   0  0  0  0  0  2  0  0  0  0  0  0
  179.0250  170.6160  136.3210 C   0  0  0  0  0  1  0  0  0  0  0  0
  185.5730  178.7120  138.3650 C   0  0  0  0  0  3  0  0  0  0  0  0
  185.6100  178.5840  139.5630 C   0  0  0  0  0  0  0  0  0  0  0  0
  1 15  1  0  0  0  0
  1  4  2  0  0  0  0
  3 12  2  0  0  0  0
  4 14  1  0  0  0  0
  5  7  1  6  0  0  0
  5  8  1  0  0  0  0
  6  2  1  0  0  0  0
  6 16  2  0  0  0  0
  7 13  1  0  0  0  0
  8 17  1  0  0  0  0
  8 15  1  1  0  0  0
  9  3  1  0  0  0  0
 10 18  2  0  0  0  0
 10  4  1  0  0  0  0
 11  3  1  0  0  0  0
 11 21  2  0  0  0  0
 14 16  1  0  0  0  0
 14 20  2  0  0  0  0
 15 11  1  0  0  0  0
 16 19  1  0  0  0  0
 17 13  1  6  0  0  0
 17  9  1  0  0  0  0
 18  6  1  0  0  0  0
 21 20  1  0  0  0  0
 22 24  1  1  0  0  0
 22  5  1  0  0  0  0
 23 26  1  1  0  0  0
 23 22  1  0  0  0  0
 23 24  1  0  0  0  0
 25 28  1  0  0  0  0
 25 26  2  0  0  0  0
 28 27  2  0  0  0  0
 29 28  1  0  0  0  0
 30 29  1  0  0  0  0
 31 32  3  0  0  0  0
 32 10  1  0  0  0  0
M  END
>  <MODEL>
7

>  <REMARK>
 VINA RESULT:      -7.1      4.586      9.148
  Name = 
  5 active torsions:
  status: ('A' for Active; 'I' for Inactive)
    1  A    between atoms: C_4  and  C_6
    2  A    between atoms: C_9  and  C_30
    3  A    between atoms: C_10  and  C_26
    4  A    between atoms: N_11  and  C_30
    5  A    between atoms: C_14  and  C_29
                            x       y       z     vdW  Elec       q    Type
                         _______ _______ _______ _____ _____    ______ ____

>  <TORSDO>
F 5

$$$$
=
 OpenBabel10222416373D

 32 36  0  0  1  0  0  0  0  0999 V2000
  186.0930  178.3440  139.5910 N   0  0  0  0  0  0  0  0  0  0  0  0
  189.2470  177.5980  144.0420 N   0  0  0  0  0  1  0  0  0  0  0  0
  182.4790  179.3880  139.4640 C   0  0  0  0  0  0  0  0  0  0  0  0
  186.7470  178.3360  140.7210 C   0  0  0  0  0  0  0  0  0  0  0  0
  184.8960  176.8230  137.2030 C   0  0  2  0  0  3  0  0  0  0  0  0
  188.3810  177.8690  142.9450 C   0  0  0  0  0  0  0  0  0  0  0  0
  184.0300  176.6010  136.0990 O   0  0  0  0  0  0  0  0  0  0  0  0
  184.3570  178.0370  137.9200 C   0  0  2  0  0  3  0  0  0  0  0  0
  182.1710  178.8720  138.1980 O   0  0  0  0  0  0  0  0  0  0  0  0
  188.1570  178.3730  140.6370 C   0  0  0  0  0  0  0  0  0  0  0  0
  183.7270  178.9150  140.1340 C   0  0  0  0  0  0  0  0  0  0  0  0
  181.7040  180.2120  140.0170 O   0  0  0  0  0  0  0  0  0  0  0  0
  182.8490  177.3410  136.3540 C   0  0  0  0  0  2  0  0  0  0  0  0
  186.1540  178.1910  142.0090 C   0  0  0  0  0  0  0  0  0  0  0  0
  184.7160  178.2230  139.3350 N   0  0  0  0  0  0  0  0  0  0  0  0
  186.9920  177.8790  143.1100 C   0  0  0  0  0  0  0  0  0  0  0  0
  182.9150  177.7380  137.7940 C   0  0  1  0  0  3  0  0  0  0  0  0
  188.9190  178.1390  141.7320 N   0  0  0  0  0  0  0  0  0  0  0  0
  186.4280  177.6030  144.4780 C   0  0  0  0  0  1  0  0  0  0  0  0
  184.8740  178.4700  142.2990 C   0  0  0  0  0  3  0  0  0  0  0  0
  183.7920  178.9630  141.4540 C   0  0  0  0  0  3  0  0  0  0  0  0
  186.3280  177.0530  136.7150 C   0  0  2  0  0  3  0  0  0  0  0  0
  186.9840  175.8630  135.9890 C   0  0  1  0  0  3  0  0  0  0  0  0
  187.2570  176.1140  137.4570 C   0  0  0  0  0  2  0  0  0  0  0  0
  186.3900  173.5880  136.5370 N   0  0  0  0  0  0  0  0  0  0  0  0
  186.1210  174.6530  135.8540 C   0  0  0  0  0  3  0  0  0  0  0  0
  185.9640  171.4650  135.6440 O   0  0  0  0  0  0  0  0  0  0  0  0
  185.6130  172.3950  136.4220 C   0  0  0  0  0  0  0  0  0  0  0  0
  184.3620  172.2540  137.2180 C   0  0  0  0  0  2  0  0  0  0  0  0
  183.4550  171.2180  136.5730 C   0  0  0  0  0  1  0  0  0  0  0  0
  189.3880  178.8400  138.3400 C   0  0  0  0  0  3  0  0  0  0  0  0
  188.8300  178.6280  139.3860 C   0  0  0  0  0  0  0  0  0  0  0  0
  1  4  2  0  0  0  0
  3 12  2  0  0  0  0
  3 11  1  0  0  0  0
  4 14  1  0  0  0  0
  5  7  1  6  0  0  0
  5  8  1  0  0  0  0
  6 16  2  0  0  0  0
  6  2  1  0  0  0  0
  7 13  1  0  0  0  0
  8 15  1  1  0  0  0
  9  3  1  0  0  0  0
 10  4  1  0  0  0  0
 10 18  2  0  0  0  0
 11 21  2  0  0  0  0
 14 20  2  0  0  0  0
 14 16  1  0  0  0  0
 15  1  1  0  0  0  0
 15 11  1  0  0  0  0
 16 19  1  0  0  0  0
 17 13  1  6  0  0  0
 17  8  1  0  0  0  0
 17  9  1  0  0  0  0
 18  6  1  0  0  0  0
 21 20  1  0  0  0  0
 22  5  1  0  0  0  0
 22 24  1  1  0  0  0
 23 26  1  1  0  0  0
 23 22  1  0  0  0  0
 23 24  1  0  0  0  0
 26 25  2  0  0  0  0
 27 28  2  0  0  0  0
 28 25  1  0  0  0  0
 28 29  1  0  0  0  0
 30 29  1  0  0  0  0
 31 32  3  0  0  0  0
 32 10  1  0  0  0  0
M  END
>  <MODEL>
8

>  <REMARK>
 VINA RESULT:      -7.1      3.767      7.656
  Name = 
  5 active torsions:
  status: ('A' for Active; 'I' for Inactive)
    1  A    between atoms: C_4  and  C_6
    2  A    between atoms: C_9  and  C_30
    3  A    between atoms: C_10  and  C_26
    4  A    between atoms: N_11  and  C_30
    5  A    between atoms: C_14  and  C_29
                            x       y       z     vdW  Elec       q    Type
                         _______ _______ _______ _____ _____    ______ ____

>  <TORSDO>
F 5

$$$$
=
 OpenBabel10222416373D

 32 36  0  0  1  0  0  0  0  0999 V2000
  186.9240  178.4030  140.1230 N   0  0  0  0  0  0  0  0  0  0  0  0
  192.0260  176.6300  141.1930 N   0  0  0  0  0  1  0  0  0  0  0  0
  184.1660  179.1370  142.5770 C   0  0  0  0  0  0  0  0  0  0  0  0
  188.1280  178.1140  140.5370 C   0  0  0  0  0  0  0  0  0  0  0  0
  184.3310  177.5660  138.6990 C   0  0  2  0  0  3  0  0  0  0  0  0
  190.7100  177.1430  141.0090 C   0  0  0  0  0  0  0  0  0  0  0  0
  182.9500  177.6110  138.3710 O   0  0  0  0  0  0  0  0  0  0  0  0
  184.5050  178.4640  139.9000 C   0  0  2  0  0  3  0  0  0  0  0  0
  183.0820  178.9980  141.7000 O   0  0  0  0  0  0  0  0  0  0  0  0
  189.1770  178.2890  139.6070 C   0  0  0  0  0  0  0  0  0  0  0  0
  185.4910  178.5910  142.1550 C   0  0  0  0  0  0  0  0  0  0  0  0
  184.0070  179.6950  143.6960 O   0  0  0  0  0  0  0  0  0  0  0  0
  182.2810  178.1430  139.5020 C   0  0  0  0  0  2  0  0  0  0  0  0
  188.4430  177.5450  141.8060 C   0  0  0  0  0  0  0  0  0  0  0  0
  185.6800  178.2510  140.7610 N   0  0  0  0  0  0  0  0  0  0  0  0
  189.7330  176.9890  141.9990 C   0  0  0  0  0  0  0  0  0  0  0  0
  183.2700  178.0990  140.6230 C   0  0  1  0  0  3  0  0  0  0  0  0
  190.4150  177.8030  139.8650 N   0  0  0  0  0  0  0  0  0  0  0  0
  190.1030  176.2750  143.2700 C   0  0  0  0  0  1  0  0  0  0  0  0
  187.6610  177.6200  142.8940 C   0  0  0  0  0  3  0  0  0  0  0  0
  186.3600  178.2500  143.0900 C   0  0  0  0  0  3  0  0  0  0  0  0
  185.1730  178.0470  137.5150 C   0  0  2  0  0  3  0  0  0  0  0  0
  185.0530  177.2080  136.2290 C   0  0  1  0  0  3  0  0  0  0  0  0
  186.2060  176.9900  137.1850 C   0  0  0  0  0  2  0  0  0  0  0  0
  184.5530  174.8510  136.0810 N   0  0  0  0  0  0  0  0  0  0  0  0
  184.1210  176.0460  136.3170 C   0  0  0  0  0  3  0  0  0  0  0  0
  182.5580  173.7320  135.5740 O   0  0  0  0  0  0  0  0  0  0  0  0
  183.6950  173.7090  136.1240 C   0  0  0  0  0  0  0  0  0  0  0  0
  184.1410  172.4830  136.8410 C   0  0  0  0  0  2  0  0  0  0  0  0
  185.2350  172.8370  137.8350 C   0  0  0  0  0  1  0  0  0  0  0  0
  188.7830  179.5210  137.2960 C   0  0  0  0  0  3  0  0  0  0  0  0
  188.9610  178.9580  138.3470 C   0  0  0  0  0  0  0  0  0  0  0  0
  1  4  2  0  0  0  0
  1 15  1  0  0  0  0
  3 12  2  0  0  0  0
  4 14  1  0  0  0  0
  5  7  1  6  0  0  0
  5  8  1  0  0  0  0
  6  2  1  0  0  0  0
  6 16  2  0  0  0  0
  7 13  1  0  0  0  0
  8 17  1  0  0  0  0
  8 15  1  1  0  0  0
  9  3  1  0  0  0  0
 10 18  2  0  0  0  0
 10  4  1  0  0  0  0
 11  3  1  0  0  0  0
 11 21  2  0  0  0  0
 14 16  1  0  0  0  0
 14 20  2  0  0  0  0
 15 11  1  0  0  0  0
 16 19  1  0  0  0  0
 17 13  1  6  0  0  0
 17  9  1  0  0  0  0
 18  6  1  0  0  0  0
 20 21  1  0  0  0  0
 22 24  1  1  0  0  0
 22  5  1  0  0  0  0
 23 26  1  1  0  0  0
 23 24  1  0  0  0  0
 23 22  1  0  0  0  0
 25 28  1  0  0  0  0
 25 26  2  0  0  0  0
 27 28  2  0  0  0  0
 28 29  1  0  0  0  0
 29 30  1  0  0  0  0
 31 32  3  0  0  0  0
 32 10  1  0  0  0  0
M  END
>  <MODEL>
9

>  <REMARK>
 VINA RESULT:      -7.0      3.364      8.126
  Name = 
  5 active torsions:
  status: ('A' for Active; 'I' for Inactive)
    1  A    between atoms: C_4  and  C_6
    2  A    between atoms: C_9  and  C_30
    3  A    between atoms: C_10  and  C_26
    4  A    between atoms: N_11  and  C_30
    5  A    between atoms: C_14  and  C_29
                            x       y       z     vdW  Elec       q    Type
                         _______ _______ _______ _____ _____    ______ ____

>  <TORSDO>
F 5

$$$$
