=
 OpenBabel10222418393D

 66 72  0  0  1  0  0  0  0  0999 V2000
  193.0810  174.8390  137.6480 N   0  0  0  0  0  2  0  0  0  0  0  0
  191.7380  174.9170  137.1910 C   0  0  0  0  0  0  0  0  0  0  0  0
  189.7710  176.1230  138.2640 C   0  0  0  0  0  0  0  0  0  0  0  0
  189.7820  173.7850  136.1460 C   0  0  0  0  0  3  0  0  0  0  0  0
  188.7170  174.3920  136.6900 C   0  0  0  0  0  0  0  0  0  0  0  0
  192.2070  176.7830  138.4090 C   0  0  0  0  0  0  0  0  0  0  0  0
  188.7690  175.3560  137.8120 C   0  0  0  0  0  3  0  0  0  0  0  0
  191.1920  173.9150  136.5200 C   0  0  0  0  0  3  0  0  0  0  0  0
  191.0980  176.2360  137.5470 C   0  0  1  0  0  3  0  0  0  0  0  0
  192.1700  177.8630  139.0630 O   0  0  0  0  0  0  0  0  0  0  0  0
  193.3150  175.9590  138.4040 O   0  0  0  0  0  0  0  0  0  0  0  0
  190.2670  177.4210  140.3570 C   0  0  0  0  0  2  0  0  0  0  0  0
  186.7530  178.0380  141.5850 C   0  0  0  0  0  0  0  0  0  0  0  0
  186.7640  177.3330  144.0980 C   0  0  0  0  0  3  0  0  0  0  0  0
  186.7640  177.6690  142.8400 C   0  0  0  0  0  0  0  0  0  0  0  0
  189.3350  177.8010  141.4940 C   0  0  1  0  0  3  0  0  0  0  0  0
  189.4110  177.1360  139.2110 N   0  0  0  0  0  0  0  0  0  0  0  0
  187.3460  178.0970  138.4630 N   0  0  0  0  0  2  0  0  0  0  0  0
  189.9110  178.9690  142.2770 C   0  0  0  0  0  1  0  0  0  0  0  0
  185.5620  179.0450  139.5890 C   0  0  1  0  0  3  0  0  0  0  0  0
  185.4310  178.4630  140.9980 C   0  0  0  0  0  2  0  0  0  0  0  0
  185.9540  177.9990  138.6500 N   0  0  0  0  0  2  0  0  0  0  0  0
  188.0130  177.3630  139.5330 C   0  0  2  0  0  3  0  0  0  0  0  0
  188.0370  178.1990  140.7960 C   0  0  1  0  0  3  0  0  0  0  0  0
  185.8010  179.7690  144.7970 O   0  0  0  0  0  0  0  0  0  0  0  0
  185.8730  178.3380  145.2860 P   0  0  1  0  0  0  0  0  0  0  0  0
  184.3050  177.7250  145.4580 O   0  0  0  0  0  1  0  0  0  0  0  0
  186.7180  178.2800  146.8940 C   0  0  0  0  0  2  0  0  0  0  0  0
  187.7450  177.1640  146.9100 C   0  0  0  0  0  2  0  0  0  0  0  0
  189.2270  178.6180  148.1440 O   0  0  0  0  0  1  0  0  0  0  0  0
  189.1750  177.6970  147.0850 C   0  0  1  0  0  0  0  0  0  0  0  0
  190.1060  176.5230  147.3770 C   0  0  0  0  0  2  0  0  0  0  0  0
  191.2400  176.9420  148.0900 O   0  0  0  0  0  0  0  0  0  0  0  0
  193.5250  176.3410  148.2870 O   0  0  0  0  0  0  0  0  0  0  0  0
  192.2050  175.2060  146.7170 O   0  0  0  0  0  1  0  0  0  0  0  0
  192.2320  175.9700  147.8820 C   0  0  2  0  0  0  0  0  0  0  0  0
  192.8570  175.3720  149.0760 C   0  0  0  0  0  2  0  0  0  0  0  0
  189.6230  178.3810  145.7840 C   0  0  0  0  0  2  0  0  0  0  0  0
  190.5780  177.5400  144.9980 C   0  0  0  0  0  0  0  0  0  0  0  0
  190.1390  176.3170  144.4210 N   0  0  0  0  0  1  0  0  0  0  0  0
  191.7950  177.8600  144.9380 O   0  0  0  0  0  0  0  0  0  0  0  0
  183.2460  180.1560  138.8410 C   0  0  0  0  0  3  0  0  0  0  0  0
  184.2980  179.6530  139.1640 C   0  0  0  0  0  0  0  0  0  0  0  0
  187.1120  172.7810  135.5250 C   0  0  0  0  0  3  0  0  0  0  0  0
  183.2560  172.5610  137.0830 O   0  0  0  0  0  0  0  0  0  0  0  0
  185.1940  173.5940  136.3100 N   0  0  0  0  0  0  0  0  0  0  0  0
  183.8350  173.6310  136.7480 C   0  0  0  0  0  0  0  0  0  0  0  0
  186.1720  174.3940  136.7620 C   0  0  0  0  0  3  0  0  0  0  0  0
  187.3760  173.9100  136.2860 C   0  0  0  0  0  0  0  0  0  0  0  0
  183.1290  174.8780  136.8060 N   0  0  0  0  0  2  0  0  0  0  0  0
  185.7410  172.6100  135.5750 C   0  0  0  0  0  3  0  0  0  0  0  0
  181.7130  176.2930  138.2200 C   0  0  0  0  0  3  0  0  0  0  0  0
  179.6790  175.4040  139.1850 C   0  0  0  0  0  3  0  0  0  0  0  0
  181.0950  173.9790  137.8450 C   0  0  0  0  0  3  0  0  0  0  0  0
  181.9760  175.0500  137.6330 C   0  0  0  0  0  0  0  0  0  0  0  0
  179.9490  174.1560  138.6210 C   0  0  0  0  0  3  0  0  0  0  0  0
  180.5590  176.4800  138.9870 C   0  0  0  0  0  0  0  0  0  0  0  0
  179.4940  178.5860  137.4530 O   0  0  0  0  0  0  0  0  0  0  0  0
  179.7820  178.8260  138.6590 C   0  0  0  0  0  0  0  0  0  0  0  0
  180.2480  177.7740  139.5240 N   0  0  0  0  0  0  0  0  0  0  0  0
  181.6330  178.4130  141.2700 O   0  0  0  0  0  1  0  0  0  0  0  0
  180.5040  178.0580  140.8820 N   0  0  0  0  0  2  0  0  0  0  0  0
  179.5910  180.2140  139.1840 C   0  0  0  0  0  2  0  0  0  0  0  0
  179.7550  181.2440  138.0690 C   0  0  0  0  0  2  0  0  0  0  0  0
  178.9310  183.4750  137.8300 O   0  0  0  0  0  1  0  0  0  0  0  0
  179.7350  182.6580  138.6250 C   0  0  0  0  0  2  0  0  0  0  0  0
  1 11  1  0  0  0  0
  2  1  1  0  0  0  0
  3 17  1  0  0  0  0
  4  8  1  0  0  0  0
  4  5  2  0  0  0  0
  5  7  1  0  0  0  0
  6 10  2  0  0  0  0
  7  3  2  0  0  0  0
  8  2  2  0  0  0  0
  9  2  1  1  0  0  0
  9  3  1  0  0  0  0
  9  6  1  0  0  0  0
 11  6  1  0  0  0  0
 12 16  1  0  0  0  0
 13 15  2  0  0  0  0
 14 26  1  0  0  0  0
 15 14  2  0  0  0  0
 16 19  1  6  0  0  0
 17 23  1  0  0  0  0
 17 12  1  0  0  0  0
 18 22  1  0  0  0  0
 20 43  1  6  0  0  0
 20 21  1  0  0  0  0
 21 13  1  0  0  0  0
 22 20  1  0  0  0  0
 23 18  1  6  0  0  0
 23 24  1  0  0  0  0
 24 16  1  0  0  0  0
 24 13  1  1  0  0  0
 26 25  2  6  0  0  0
 26 27  1  0  0  0  0
 26 28  1  0  0  0  0
 28 29  1  0  0  0  0
 29 31  1  0  0  0  0
 31 32  1  0  0  0  0
 31 30  1  1  0  0  0
 32 33  1  0  0  0  0
 34 37  1  0  0  0  0
 36 35  1  6  0  0  0
 36 33  1  0  0  0  0
 36 34  1  0  0  0  0
 36 37  1  0  0  0  0
 38 31  1  0  0  0  0
 39 38  1  0  0  0  0
 40 39  1  0  0  0  0
 41 39  2  0  0  0  0
 42 43  3  0  0  0  0
 44 51  2  0  0  0  0
 44 49  1  0  0  0  0
 46 47  1  0  0  0  0
 46 48  1  0  0  0  0
 47 50  1  0  0  0  0
 47 45  2  0  0  0  0
 49  5  1  0  0  0  0
 49 48  2  0  0  0  0
 50 55  1  0  0  0  0
 51 46  1  0  0  0  0
 52 57  1  0  0  0  0
 54 56  2  0  0  0  0
 55 54  1  0  0  0  0
 55 52  2  0  0  0  0
 56 53  1  0  0  0  0
 57 53  2  0  0  0  0
 57 60  1  0  0  0  0
 58 59  2  0  0  0  0
 59 63  1  0  0  0  0
 59 60  1  0  0  0  0
 60 62  1  0  0  0  0
 62 61  1  0  0  0  0
 64 66  1  0  0  0  0
 64 63  1  0  0  0  0
 65 66  1  0  0  0  0
M  END
>  <MODEL>
1

>  <REMARK>
 VINA RESULT:      -6.8      0.000      0.000
  Name = 
  18 active torsions:
  status: ('A' for Active; 'I' for Inactive)
    1  A    between atoms: C_5  and  P_37
    2  A    between atoms: C_9  and  N_26
    3  A    between atoms: O_10  and  C_19
    4  A    between atoms: O_10  and  C_38
    5  A    between atoms: C_13  and  C_58
    6  A    between atoms: C_25  and  C_30
    7  A    between atoms: C_25  and  C_53
    8  A    between atoms: C_30  and  P_37
    9  A    between atoms: C_32  and  C_35
   10  A    between atoms: C_36  and  N_59
   11  A    between atoms: C_38  and  C_53
   12  A    between atoms: C_42  and  C_49
   13  A    between atoms: C_42  and  C_57
   14  A    between atoms: C_43  and  C_44
   15  A    between atoms: C_43  and  C_53
   16  A    between atoms: C_45  and  C_57
   17  A    between atoms: N_50  and  N_62
   18  A    between atoms: N_50  and  C_64
                            x       y       z     vdW  Elec       q    Type
                         _______ _______ _______ _____ _____    ______ ____

>  <TORSDO>
F 18

$$$$
=
 OpenBabel10222418393D

 66 72  0  0  1  0  0  0  0  0999 V2000
  179.4310  172.0970  138.0630 N   0  0  0  0  0  2  0  0  0  0  0  0
  179.9370  173.4090  138.2680 C   0  0  0  0  0  0  0  0  0  0  0  0
  182.1360  174.4000  137.4580 C   0  0  0  0  0  0  0  0  0  0  0  0
  180.2450  175.3500  139.7960 C   0  0  0  0  0  3  0  0  0  0  0  0
  181.4010  175.9020  139.4030 C   0  0  0  0  0  0  0  0  0  0  0  0
  180.7830  172.5950  136.3170 C   0  0  0  0  0  0  0  0  0  0  0  0
  182.3370  175.3090  138.4210 C   0  0  0  0  0  3  0  0  0  0  0  0
  179.6560  174.0770  139.3760 C   0  0  0  0  0  3  0  0  0  0  0  0
  180.7610  173.8850  137.0970 C   0  0  1  0  0  3  0  0  0  0  0  0
  181.4270  172.3870  135.2510 O   0  0  0  0  0  0  0  0  0  0  0  0
  179.9880  171.6280  136.9010 O   0  0  0  0  0  0  0  0  0  0  0  0
  183.6180  172.9050  136.0860 C   0  0  0  0  0  2  0  0  0  0  0  0
  186.7760  174.9690  136.0600 C   0  0  0  0  0  0  0  0  0  0  0  0
  188.6840  173.3250  136.7430 C   0  0  0  0  0  3  0  0  0  0  0  0
  187.7240  174.1410  136.4160 C   0  0  0  0  0  0  0  0  0  0  0  0
  185.1180  172.9830  135.8630 C   0  0  1  0  0  3  0  0  0  0  0  0
  183.2020  174.2360  136.5150 N   0  0  0  0  0  0  0  0  0  0  0  0
  183.9570  176.4300  135.9150 N   0  0  0  0  0  2  0  0  0  0  0  0
  185.5030  172.2120  134.6120 C   0  0  0  0  0  1  0  0  0  0  0  0
  186.0200  177.2550  135.2740 C   0  0  1  0  0  3  0  0  0  0  0  0
  187.1550  176.4150  135.8640 C   0  0  0  0  0  2  0  0  0  0  0  0
  184.9380  177.3850  136.2440 N   0  0  0  0  0  2  0  0  0  0  0  0
  184.3260  175.1560  136.5230 C   0  0  2  0  0  3  0  0  0  0  0  0
  185.3920  174.4750  135.6910 C   0  0  1  0  0  3  0  0  0  0  0  0
  190.6530  172.0560  135.3780 O   0  0  0  0  0  1  0  0  0  0  0  0
  190.2620  173.4240  135.8960 P   0  0  1  0  0  0  0  0  0  0  0  0
  190.1200  174.4960  134.5940 O   0  0  0  0  0  0  0  0  0  0  0  0
  191.5340  174.0360  137.0390 C   0  0  0  0  0  2  0  0  0  0  0  0
  192.7750  174.4540  136.2730 C   0  0  0  0  0  2  0  0  0  0  0  0
  194.9560  175.4740  136.4470 O   0  0  0  0  0  1  0  0  0  0  0  0
  193.7700  175.2200  137.1550 C   0  0  1  0  0  0  0  0  0  0  0  0
  193.1350  176.5400  137.5850 C   0  0  0  0  0  2  0  0  0  0  0  0
  192.8940  176.5600  138.9670 O   0  0  0  0  0  0  0  0  0  0  0  0
  190.9190  176.0940  140.1930 O   0  0  0  0  0  0  0  0  0  0  0  0
  190.7080  176.9300  138.0130 O   0  0  0  0  0  1  0  0  0  0  0  0
  191.5210  176.7990  139.1360 C   0  0  2  0  0  0  0  0  0  0  0  0
  191.0990  177.4880  140.3690 C   0  0  0  0  0  2  0  0  0  0  0  0
  194.0860  174.3850  138.4050 C   0  0  0  0  0  2  0  0  0  0  0  0
  195.5560  174.2060  138.6140 C   0  0  0  0  0  0  0  0  0  0  0  0
  196.2780  173.2760  137.8170 N   0  0  0  0  0  1  0  0  0  0  0  0
  196.1330  174.7980  139.5640 O   0  0  0  0  0  0  0  0  0  0  0  0
  186.9260  179.6790  134.5940 C   0  0  0  0  0  3  0  0  0  0  0  0
  186.5100  178.5810  134.8870 C   0  0  0  0  0  0  0  0  0  0  0  0
  181.2740  178.3290  140.1960 C   0  0  0  0  0  3  0  0  0  0  0  0
  183.1470  179.1930  143.8140 O   0  0  0  0  0  0  0  0  0  0  0  0
  182.9310  178.2810  141.6830 N   0  0  0  0  0  0  0  0  0  0  0  0
  183.6990  178.6060  142.8420 C   0  0  0  0  0  0  0  0  0  0  0  0
  182.9060  177.0790  141.0860 C   0  0  0  0  0  3  0  0  0  0  0  0
  181.8840  177.0840  140.1550 C   0  0  0  0  0  0  0  0  0  0  0  0
  185.0920  178.2710  142.9030 N   0  0  0  0  0  2  0  0  0  0  0  0
  181.9480  179.0420  141.1700 C   0  0  0  0  0  3  0  0  0  0  0  0
  187.1350  177.7980  144.1700 C   0  0  0  0  0  3  0  0  0  0  0  0
  187.1470  177.9940  146.5830 C   0  0  0  0  0  3  0  0  0  0  0  0
  185.1080  178.4040  145.3540 C   0  0  0  0  0  3  0  0  0  0  0  0
  185.7810  178.1510  144.1490 C   0  0  0  0  0  0  0  0  0  0  0  0
  185.7900  178.3240  146.5680 C   0  0  0  0  0  3  0  0  0  0  0  0
  187.8270  177.7310  145.3840 C   0  0  0  0  0  0  0  0  0  0  0  0
  189.2470  177.0440  147.7150 O   0  0  0  0  0  0  0  0  0  0  0  0
  189.9060  177.1810  146.6460 C   0  0  0  0  0  0  0  0  0  0  0  0
  189.2340  177.4460  145.4000 N   0  0  0  0  0  0  0  0  0  0  0  0
  190.1050  178.6090  143.5950 O   0  0  0  0  0  1  0  0  0  0  0  0
  189.9880  177.5330  144.2120 N   0  0  0  0  0  2  0  0  0  0  0  0
  191.3930  177.0220  146.6880 C   0  0  0  0  0  2  0  0  0  0  0  0
  191.7790  175.5520  146.8340 C   0  0  0  0  0  2  0  0  0  0  0  0
  193.0350  174.0160  145.5020 O   0  0  0  0  0  1  0  0  0  0  0  0
  191.9540  174.8970  145.4740 C   0  0  0  0  0  2  0  0  0  0  0  0
  1  2  1  0  0  0  0
  2  8  2  0  0  0  0
  3  7  2  0  0  0  0
  5  4  2  0  0  0  0
  5 49  1  0  0  0  0
  6 11  1  0  0  0  0
  7  5  1  0  0  0  0
  8  4  1  0  0  0  0
  9  6  1  6  0  0  0
  9  3  1  0  0  0  0
  9  2  1  0  0  0  0
 10  6  2  0  0  0  0
 11  1  1  0  0  0  0
 12 17  1  0  0  0  0
 13 15  2  0  0  0  0
 15 14  2  0  0  0  0
 16 19  1  6  0  0  0
 16 12  1  0  0  0  0
 17 23  1  0  0  0  0
 17  3  1  0  0  0  0
 18 22  1  0  0  0  0
 20 43  1  1  0  0  0
 20 21  1  0  0  0  0
 20 22  1  0  0  0  0
 21 13  1  0  0  0  0
 23 18  1  6  0  0  0
 24 16  1  0  0  0  0
 24 13  1  1  0  0  0
 24 23  1  0  0  0  0
 25 26  1  0  0  0  0
 26 27  2  6  0  0  0
 26 14  1  0  0  0  0
 26 28  1  0  0  0  0
 29 28  1  0  0  0  0
 29 31  1  0  0  0  0
 31 30  1  6  0  0  0
 31 32  1  0  0  0  0
 31 38  1  0  0  0  0
 32 33  1  0  0  0  0
 33 36  1  0  0  0  0
 34 37  1  0  0  0  0
 36 35  1  6  0  0  0
 36 34  1  0  0  0  0
 36 37  1  0  0  0  0
 38 39  1  0  0  0  0
 39 41  2  0  0  0  0
 40 39  1  0  0  0  0
 42 43  3  0  0  0  0
 44 51  2  0  0  0  0
 46 47  1  0  0  0  0
 47 50  1  0  0  0  0
 47 45  2  0  0  0  0
 48 46  1  0  0  0  0
 49 44  1  0  0  0  0
 49 48  2  0  0  0  0
 50 55  1  0  0  0  0
 51 46  1  0  0  0  0
 52 57  1  0  0  0  0
 54 56  2  0  0  0  0
 55 52  2  0  0  0  0
 55 54  1  0  0  0  0
 56 53  1  0  0  0  0
 57 60  1  0  0  0  0
 57 53  2  0  0  0  0
 59 63  1  0  0  0  0
 59 58  2  0  0  0  0
 60 59  1  0  0  0  0
 61 62  1  0  0  0  0
 62 60  1  0  0  0  0
 63 64  1  0  0  0  0
 66 65  1  0  0  0  0
 66 64  1  0  0  0  0
M  END
>  <MODEL>
2

>  <REMARK>
 VINA RESULT:      -6.7      2.941     10.131
  Name = 
  18 active torsions:
  status: ('A' for Active; 'I' for Inactive)
    1  A    between atoms: C_5  and  P_37
    2  A    between atoms: C_9  and  N_26
    3  A    between atoms: O_10  and  C_19
    4  A    between atoms: O_10  and  C_38
    5  A    between atoms: C_13  and  C_58
    6  A    between atoms: C_25  and  C_30
    7  A    between atoms: C_25  and  C_53
    8  A    between atoms: C_30  and  P_37
    9  A    between atoms: C_32  and  C_35
   10  A    between atoms: C_36  and  N_59
   11  A    between atoms: C_38  and  C_53
   12  A    between atoms: C_42  and  C_49
   13  A    between atoms: C_42  and  C_57
   14  A    between atoms: C_43  and  C_44
   15  A    between atoms: C_43  and  C_53
   16  A    between atoms: C_45  and  C_57
   17  A    between atoms: N_50  and  N_62
   18  A    between atoms: N_50  and  C_64
                            x       y       z     vdW  Elec       q    Type
                         _______ _______ _______ _____ _____    ______ ____

>  <TORSDO>
F 18

$$$$
=
 OpenBabel10222418393D

 66 72  0  0  1  0  0  0  0  0999 V2000
  179.5640  172.1340  137.9530 N   0  0  0  0  0  0  0  0  0  0  0  0
  180.0600  173.4490  138.1620 C   0  0  0  0  0  0  0  0  0  0  0  0
  182.2830  174.4370  137.4150 C   0  0  0  0  0  0  0  0  0  0  0  0
  180.3140  175.4050  139.6810 C   0  0  0  0  0  3  0  0  0  0  0  0
  181.4820  175.9560  139.3210 C   0  0  0  0  0  0  0  0  0  0  0  0
  180.9710  172.6180  136.2470 C   0  0  0  0  0  0  0  0  0  0  0  0
  182.4500  175.3560  138.3760 C   0  0  0  0  0  3  0  0  0  0  0  0
  179.7410  174.1260  139.2540 C   0  0  0  0  0  2  0  0  0  0  0  0
  180.9210  173.9150  137.0150 C   0  0  1  0  0  3  0  0  0  0  0  0
  181.6510  172.4020  135.2060 O   0  0  0  0  0  0  0  0  0  0  0  0
  180.1590  171.6550  136.8140 O   0  0  0  0  0  0  0  0  0  0  0  0
  183.8140  172.9320  136.1100 C   0  0  0  0  0  2  0  0  0  0  0  0
  186.9630  175.0090  136.1620 C   0  0  0  0  0  0  0  0  0  0  0  0
  188.8550  173.3810  136.9260 C   0  0  0  0  0  3  0  0  0  0  0  0
  187.9020  174.1900  136.5590 C   0  0  0  0  0  0  0  0  0  0  0  0
  185.3200  173.0140  135.9350 C   0  0  1  0  0  3  0  0  0  0  0  0
  183.3800  174.2660  136.5100 N   0  0  0  0  0  0  0  0  0  0  0  0
  184.1450  176.4560  135.9080 N   0  0  0  0  0  2  0  0  0  0  0  0
  185.7490  172.2300  134.7060 C   0  0  0  0  0  1  0  0  0  0  0  0
  186.2240  177.2830  135.3250 C   0  0  1  0  0  3  0  0  0  0  0  0
  187.3420  176.4550  135.9610 C   0  0  0  0  0  2  0  0  0  0  0  0
  185.1110  177.4200  136.2580 N   0  0  0  0  0  2  0  0  0  0  0  0
  184.4990  175.1920  136.5430 C   0  0  2  0  0  3  0  0  0  0  0  0
  185.5940  174.5050  135.7540 C   0  0  1  0  0  3  0  0  0  0  0  0
  190.8480  172.1160  135.5940 O   0  0  0  0  0  1  0  0  0  0  0  0
  190.4580  173.4780  136.1300 P   0  0  1  0  0  0  0  0  0  0  0  0
  190.3700  174.5800  134.8480 O   0  0  0  0  0  0  0  0  0  0  0  0
  191.7030  174.0480  137.3240 C   0  0  0  0  0  2  0  0  0  0  0  0
  192.6260  175.0640  136.6790 C   0  0  0  0  0  2  0  0  0  0  0  0
  194.9590  175.6830  136.5870 O   0  0  0  0  0  1  0  0  0  0  0  0
  194.0840  174.5850  136.6490 C   0  0  1  0  0  0  0  0  0  0  0  0
  194.3640  173.7750  137.9120 C   0  0  0  0  0  2  0  0  0  0  0  0
  195.0130  174.5560  138.8810 O   0  0  0  0  0  0  0  0  0  0  0  0
  197.2710  175.1900  138.5350 O   0  0  0  0  0  0  0  0  0  0  0  0
  196.7140  172.9190  138.3780 O   0  0  0  0  0  1  0  0  0  0  0  0
  196.3630  174.1720  138.8740 C   0  0  2  0  0  0  0  0  0  0  0  0
  197.2450  174.7760  139.8900 C   0  0  0  0  0  2  0  0  0  0  0  0
  194.2970  173.6880  135.4200 C   0  0  0  0  0  2  0  0  0  0  0  0
  194.5240  172.2570  135.7920 C   0  0  0  0  0  0  0  0  0  0  0  0
  195.4640  171.4750  135.0670 N   0  0  0  0  0  1  0  0  0  0  0  0
  193.8080  171.7160  136.6770 O   0  0  0  0  0  0  0  0  0  0  0  0
  187.1380  179.6890  134.5950 C   0  0  0  0  0  3  0  0  0  0  0  0
  186.7220  178.6070  134.9390 C   0  0  0  0  0  0  0  0  0  0  0  0
  181.2990  178.3750  140.1240 C   0  0  0  0  0  3  0  0  0  0  0  0
  183.1530  179.2680  143.7440 O   0  0  0  0  0  0  0  0  0  0  0  0
  182.9570  178.3600  141.6100 N   0  0  0  0  0  0  0  0  0  0  0  0
  183.7180  178.6990  142.7700 C   0  0  0  0  0  0  0  0  0  0  0  0
  182.9600  177.1610  141.0080 C   0  0  0  0  0  3  0  0  0  0  0  0
  181.9380  177.1450  140.0780 C   0  0  0  0  0  0  0  0  0  0  0  0
  185.1180  178.3960  142.8290 N   0  0  0  0  0  2  0  0  0  0  0  0
  181.9560  179.1000  141.1010 C   0  0  0  0  0  3  0  0  0  0  0  0
  187.1640  177.9300  144.0950 C   0  0  0  0  0  3  0  0  0  0  0  0
  187.1830  178.1520  146.5060 C   0  0  0  0  0  3  0  0  0  0  0  0
  185.1420  178.5550  145.2780 C   0  0  0  0  0  3  0  0  0  0  0  0
  185.8110  178.2870  144.0740 C   0  0  0  0  0  0  0  0  0  0  0  0
  185.8270  178.4860  146.4920 C   0  0  0  0  0  3  0  0  0  0  0  0
  187.8590  177.8730  145.3070 C   0  0  0  0  0  0  0  0  0  0  0  0
  189.7690  179.3610  143.8720 O   0  0  0  0  0  0  0  0  0  0  0  0
  190.1710  178.3400  144.4980 C   0  0  0  0  0  0  0  0  0  0  0  0
  189.2650  177.5840  145.3230 N   0  0  0  0  0  0  0  0  0  0  0  0
  190.2580  176.6320  147.1890 O   0  0  0  0  0  1  0  0  0  0  0  0
  189.7540  176.4850  146.0590 N   0  0  0  0  0  2  0  0  0  0  0  0
  191.6130  177.9550  144.4020 C   0  0  0  0  0  2  0  0  0  0  0  0
  191.8770  177.1500  143.1320 C   0  0  0  0  0  2  0  0  0  0  0  0
  190.3410  175.6950  142.0200 O   0  0  0  0  0  1  0  0  0  0  0  0
  190.6180  177.0350  142.2880 C   0  0  0  0  0  2  0  0  0  0  0  0
  1  2  2  0  0  0  0
  2  8  1  0  0  0  0
  3  7  2  0  0  0  0
  5  4  2  0  0  0  0
  5 49  1  0  0  0  0
  6 11  1  0  0  0  0
  7  5  1  0  0  0  0
  8  4  1  0  0  0  0
  9  6  1  6  0  0  0
  9  3  1  0  0  0  0
  9  2  1  0  0  0  0
 10  6  2  0  0  0  0
 11  1  1  0  0  0  0
 12 17  1  0  0  0  0
 13 15  2  0  0  0  0
 15 14  2  0  0  0  0
 16 19  1  6  0  0  0
 16 12  1  0  0  0  0
 17 23  1  0  0  0  0
 17  3  1  0  0  0  0
 18 22  1  0  0  0  0
 20 43  1  1  0  0  0
 20 21  1  0  0  0  0
 20 22  1  0  0  0  0
 21 13  1  0  0  0  0
 23 18  1  6  0  0  0
 24 16  1  0  0  0  0
 24 13  1  1  0  0  0
 24 23  1  0  0  0  0
 25 26  1  0  0  0  0
 26 27  2  6  0  0  0
 26 14  1  0  0  0  0
 26 28  1  0  0  0  0
 29 28  1  0  0  0  0
 31 30  1  6  0  0  0
 31 29  1  0  0  0  0
 31 32  1  0  0  0  0
 32 33  1  0  0  0  0
 34 36  1  0  0  0  0
 34 37  1  0  0  0  0
 36 35  1  6  0  0  0
 36 33  1  0  0  0  0
 36 37  1  0  0  0  0
 38 39  1  0  0  0  0
 38 31  1  0  0  0  0
 39 41  2  0  0  0  0
 40 39  1  0  0  0  0
 42 43  3  0  0  0  0
 44 51  2  0  0  0  0
 46 47  1  0  0  0  0
 47 50  1  0  0  0  0
 47 45  2  0  0  0  0
 48 46  1  0  0  0  0
 49 44  1  0  0  0  0
 49 48  2  0  0  0  0
 50 55  1  0  0  0  0
 51 46  1  0  0  0  0
 52 57  1  0  0  0  0
 54 56  2  0  0  0  0
 55 52  2  0  0  0  0
 55 54  1  0  0  0  0
 56 53  1  0  0  0  0
 57 60  1  0  0  0  0
 57 53  2  0  0  0  0
 58 59  2  0  0  0  0
 59 60  1  0  0  0  0
 60 62  1  0  0  0  0
 62 61  1  0  0  0  0
 63 59  1  0  0  0  0
 64 63  1  0  0  0  0
 65 66  1  0  0  0  0
 66 64  1  0  0  0  0
M  END
>  <MODEL>
3

>  <REMARK>
 VINA RESULT:      -6.4      3.165     10.064
  Name = 
  18 active torsions:
  status: ('A' for Active; 'I' for Inactive)
    1  A    between atoms: C_5  and  P_37
    2  A    between atoms: C_9  and  N_26
    3  A    between atoms: O_10  and  C_19
    4  A    between atoms: O_10  and  C_38
    5  A    between atoms: C_13  and  C_58
    6  A    between atoms: C_25  and  C_30
    7  A    between atoms: C_25  and  C_53
    8  A    between atoms: C_30  and  P_37
    9  A    between atoms: C_32  and  C_35
   10  A    between atoms: C_36  and  N_59
   11  A    between atoms: C_38  and  C_53
   12  A    between atoms: C_42  and  C_49
   13  A    between atoms: C_42  and  C_57
   14  A    between atoms: C_43  and  C_44
   15  A    between atoms: C_43  and  C_53
   16  A    between atoms: C_45  and  C_57
   17  A    between atoms: N_50  and  N_62
   18  A    between atoms: N_50  and  C_64
                            x       y       z     vdW  Elec       q    Type
                         _______ _______ _______ _____ _____    ______ ____

>  <TORSDO>
F 18

$$$$
=
 OpenBabel10222418393D

 66 72  0  0  1  0  0  0  0  0999 V2000
  179.0810  179.4590  141.2700 N   0  0  0  0  0  2  0  0  0  0  0  0
  179.7920  178.2810  140.9130 C   0  0  0  0  0  0  0  0  0  0  0  0
  182.3000  177.9790  140.6140 C   0  0  0  0  0  0  0  0  0  0  0  0
  179.9200  176.2180  139.5260 C   0  0  0  0  0  3  0  0  0  0  0  0
  181.2340  176.0240  139.3410 C   0  0  0  0  0  0  0  0  0  0  0  0
  181.1520  179.6050  142.1730 C   0  0  0  0  0  0  0  0  0  0  0  0
  182.2970  176.9810  139.7200 C   0  0  0  0  0  3  0  0  0  0  0  0
  179.2470  177.3790  140.1130 C   0  0  0  0  0  3  0  0  0  0  0  0
  181.1500  178.2240  141.5650 C   0  0  1  0  0  3  0  0  0  0  0  0
  182.1160  180.1420  142.7850 O   0  0  0  0  0  0  0  0  0  0  0  0
  179.9400  180.2440  141.9960 O   0  0  0  0  0  0  0  0  0  0  0  0
  184.5330  178.8440  139.8540 C   0  0  0  0  0  2  0  0  0  0  0  0
  186.6500  177.8700  142.8220 C   0  0  0  0  0  0  0  0  0  0  0  0
  188.7290  176.6510  141.8200 C   0  0  0  0  0  3  0  0  0  0  0  0
  187.6810  177.2480  142.3120 C   0  0  0  0  0  0  0  0  0  0  0  0
  185.9110  178.5930  140.4420 C   0  0  1  0  0  3  0  0  0  0  0  0
  183.5790  178.5480  140.9170 N   0  0  0  0  0  0  0  0  0  0  0  0
  183.6660  178.8600  143.2920 N   0  0  0  0  0  2  0  0  0  0  0  0
  186.8790  179.6730  139.9910 C   0  0  0  0  0  1  0  0  0  0  0  0
  185.4080  178.8230  144.8140 C   0  0  1  0  0  3  0  0  0  0  0  0
  186.5440  177.9220  144.3250 C   0  0  0  0  0  2  0  0  0  0  0  0
  184.1190  178.2330  144.4690 N   0  0  0  0  0  2  0  0  0  0  0  0
  184.2630  178.1830  142.1460 C   0  0  2  0  0  3  0  0  0  0  0  0
  185.6890  178.6540  141.9520 C   0  0  1  0  0  3  0  0  0  0  0  0
  190.8660  175.7170  143.2020 O   0  0  0  0  0  1  0  0  0  0  0  0
  190.3460  176.9680  142.5260 P   0  0  1  0  0  0  0  0  0  0  0  0
  191.4080  177.4180  141.2870 O   0  0  0  0  0  0  0  0  0  0  0  0
  190.2330  178.3190  143.7360 C   0  0  0  0  0  2  0  0  0  0  0  0
  190.8780  177.9090  145.0460 C   0  0  0  0  0  2  0  0  0  0  0  0
  188.8680  176.6030  145.3410 O   0  0  0  0  0  1  0  0  0  0  0  0
  189.8600  177.3180  146.0320 C   0  0  1  0  0  0  0  0  0  0  0  0
  190.5890  176.3850  146.9940 C   0  0  0  0  0  2  0  0  0  0  0  0
  191.9770  176.5870  146.9430 O   0  0  0  0  0  0  0  0  0  0  0  0
  193.9360  175.8920  148.0820 O   0  0  0  0  0  0  0  0  0  0  0  0
  192.0600  174.4890  148.1330 O   0  0  0  0  0  1  0  0  0  0  0  0
  192.5420  175.7820  147.9440 C   0  0  2  0  0  0  0  0  0  0  0  0
  193.1410  176.4640  149.1060 C   0  0  0  0  0  2  0  0  0  0  0  0
  189.2100  178.4570  146.8330 C   0  0  0  0  0  2  0  0  0  0  0  0
  188.9910  178.0920  148.2670 C   0  0  0  0  0  0  0  0  0  0  0  0
  187.9150  177.2350  148.6250 N   0  0  0  0  0  1  0  0  0  0  0  0
  189.6930  178.6260  149.1660 O   0  0  0  0  0  0  0  0  0  0  0  0
  185.6000  179.1910  147.4560 C   0  0  0  0  0  3  0  0  0  0  0  0
  185.4980  179.0240  146.2630 C   0  0  0  0  0  0  0  0  0  0  0  0
  180.7920  174.0440  137.7860 C   0  0  0  0  0  3  0  0  0  0  0  0
  183.9130  172.9440  135.2580 O   0  0  0  0  0  0  0  0  0  0  0  0
  182.9000  173.5530  137.2640 N   0  0  0  0  0  0  0  0  0  0  0  0
  184.0170  173.0830  136.5090 C   0  0  0  0  0  0  0  0  0  0  0  0
  182.9410  174.5440  138.1670 C   0  0  0  0  0  3  0  0  0  0  0  0
  181.6420  174.8680  138.5100 C   0  0  0  0  0  0  0  0  0  0  0  0
  185.2520  172.7670  137.1650 N   0  0  0  0  0  2  0  0  0  0  0  0
  181.6150  173.2470  137.0120 C   0  0  0  0  0  3  0  0  0  0  0  0
  187.3080  173.8750  136.4250 C   0  0  0  0  0  3  0  0  0  0  0  0
  188.9570  172.6530  135.1400 C   0  0  0  0  0  3  0  0  0  0  0  0
  186.9070  171.5650  135.8110 C   0  0  0  0  0  3  0  0  0  0  0  0
  186.4930  172.7380  136.4580 C   0  0  0  0  0  0  0  0  0  0  0  0
  188.1360  171.5230  135.1520 C   0  0  0  0  0  3  0  0  0  0  0  0
  188.5470  173.8350  135.7780 C   0  0  0  0  0  0  0  0  0  0  0  0
  190.6800  174.1140  137.5940 O   0  0  0  0  0  0  0  0  0  0  0  0
  190.4370  175.0840  136.8210 C   0  0  0  0  0  0  0  0  0  0  0  0
  189.4180  174.9760  135.8100 N   0  0  0  0  0  0  0  0  0  0  0  0
  188.8250  177.1640  135.3260 O   0  0  0  0  0  1  0  0  0  0  0  0
  189.2090  176.0510  134.9210 N   0  0  0  0  0  2  0  0  0  0  0  0
  191.2540  176.3310  136.9480 C   0  0  0  0  0  2  0  0  0  0  0  0
  192.0300  176.3400  138.2630 C   0  0  0  0  0  2  0  0  0  0  0  0
  193.9740  177.1160  137.1100 O   0  0  0  0  0  1  0  0  0  0  0  0
  193.5190  176.1620  138.0190 C   0  0  0  0  0  2  0  0  0  0  0  0
  1 11  1  0  0  0  0
  2  1  1  0  0  0  0
  2  9  1  0  0  0  0
  3 17  1  0  0  0  0
  4  8  1  0  0  0  0
  5  4  2  0  0  0  0
  5  7  1  0  0  0  0
  6 10  2  0  0  0  0
  7  3  2  0  0  0  0
  8  2  2  0  0  0  0
  9  3  1  6  0  0  0
  9  6  1  0  0  0  0
 11  6  1  0  0  0  0
 12 16  1  0  0  0  0
 12 17  1  0  0  0  0
 13 21  1  0  0  0  0
 14 15  2  0  0  0  0
 14 26  1  0  0  0  0
 15 13  2  0  0  0  0
 16 19  1  6  0  0  0
 16 24  1  0  0  0  0
 17 23  1  0  0  0  0
 18 22  1  0  0  0  0
 20 43  1  1  0  0  0
 21 20  1  0  0  0  0
 22 20  1  0  0  0  0
 23 18  1  1  0  0  0
 24 23  1  0  0  0  0
 24 13  1  1  0  0  0
 26 27  2  6  0  0  0
 26 25  1  0  0  0  0
 26 28  1  0  0  0  0
 28 29  1  0  0  0  0
 29 31  1  0  0  0  0
 31 30  1  6  0  0  0
 31 38  1  0  0  0  0
 31 32  1  0  0  0  0
 33 32  1  0  0  0  0
 33 36  1  0  0  0  0
 34 37  1  0  0  0  0
 36 34  1  0  0  0  0
 36 35  1  1  0  0  0
 36 37  1  0  0  0  0
 38 39  1  0  0  0  0
 39 40  1  0  0  0  0
 39 41  2  0  0  0  0
 43 42  3  0  0  0  0
 44 49  1  0  0  0  0
 45 47  2  0  0  0  0
 46 48  1  0  0  0  0
 47 50  1  0  0  0  0
 47 46  1  0  0  0  0
 48 49  2  0  0  0  0
 49  5  1  0  0  0  0
 51 46  1  0  0  0  0
 51 44  2  0  0  0  0
 52 55  1  0  0  0  0
 53 56  2  0  0  0  0
 53 57  1  0  0  0  0
 54 55  2  0  0  0  0
 55 50  1  0  0  0  0
 56 54  1  0  0  0  0
 57 60  1  0  0  0  0
 57 52  2  0  0  0  0
 59 63  1  0  0  0  0
 59 58  2  0  0  0  0
 60 59  1  0  0  0  0
 62 61  1  0  0  0  0
 62 60  1  0  0  0  0
 63 64  1  0  0  0  0
 65 66  1  0  0  0  0
 66 64  1  0  0  0  0
M  END
>  <MODEL>
4

>  <REMARK>
 VINA RESULT:      -6.3      2.354      7.829
  Name = 
  18 active torsions:
  status: ('A' for Active; 'I' for Inactive)
    1  A    between atoms: C_5  and  P_37
    2  A    between atoms: C_9  and  N_26
    3  A    between atoms: O_10  and  C_19
    4  A    between atoms: O_10  and  C_38
    5  A    between atoms: C_13  and  C_58
    6  A    between atoms: C_25  and  C_30
    7  A    between atoms: C_25  and  C_53
    8  A    between atoms: C_30  and  P_37
    9  A    between atoms: C_32  and  C_35
   10  A    between atoms: C_36  and  N_59
   11  A    between atoms: C_38  and  C_53
   12  A    between atoms: C_42  and  C_49
   13  A    between atoms: C_42  and  C_57
   14  A    between atoms: C_43  and  C_44
   15  A    between atoms: C_43  and  C_53
   16  A    between atoms: C_45  and  C_57
   17  A    between atoms: N_50  and  N_62
   18  A    between atoms: N_50  and  C_64
                            x       y       z     vdW  Elec       q    Type
                         _______ _______ _______ _____ _____    ______ ____

>  <TORSDO>
F 18

$$$$
=
 OpenBabel10222418393D

 66 72  0  0  1  0  0  0  0  0999 V2000
  187.5070  179.1010  147.5900 N   0  0  0  0  0  2  0  0  0  0  0  0
  186.4330  178.7040  146.7470 C   0  0  0  0  0  0  0  0  0  0  0  0
  186.5440  177.6790  144.4210 C   0  0  0  0  0  0  0  0  0  0  0  0
  184.1580  179.1670  145.8490 C   0  0  0  0  0  3  0  0  0  0  0  0
  184.1750  178.6430  144.6150 C   0  0  0  0  0  0  0  0  0  0  0  0
  188.2520  177.4220  146.2670 C   0  0  0  0  0  0  0  0  0  0  0  0
  185.3770  178.1180  143.9300 C   0  0  0  0  0  3  0  0  0  0  0  0
  185.2780  179.3500  146.7740 C   0  0  0  0  0  3  0  0  0  0  0  0
  186.7910  177.5070  145.9030 C   0  0  1  0  0  3  0  0  0  0  0  0
  189.0930  176.6230  145.7680 O   0  0  0  0  0  0  0  0  0  0  0  0
  188.5900  178.3330  147.2490 O   0  0  0  0  0  0  0  0  0  0  0  0
  188.4380  176.0900  143.9730 C   0  0  0  0  0  2  0  0  0  0  0  0
  189.8630  177.6460  140.8450 C   0  0  0  0  0  0  0  0  0  0  0  0
  192.4290  177.8450  141.2770 C   0  0  0  0  0  3  0  0  0  0  0  0
  191.1460  177.7540  141.0760 C   0  0  0  0  0  0  0  0  0  0  0  0
  189.5970  176.2270  143.0010 C   0  0  1  0  0  3  0  0  0  0  0  0
  187.4000  176.9980  143.4960 N   0  0  0  0  0  0  0  0  0  0  0  0
  186.7160  177.6480  141.2930 N   0  0  0  0  0  2  0  0  0  0  0  0
  190.2000  174.8640  142.7070 C   0  0  0  0  0  1  0  0  0  0  0  0
  187.8690  177.8830  139.3010 C   0  0  1  0  0  3  0  0  0  0  0  0
  189.3390  178.2240  139.5550 C   0  0  0  0  0  2  0  0  0  0  0  0
  187.0220  178.5690  140.2720 N   0  0  0  0  0  2  0  0  0  0  0  0
  187.8050  177.6530  142.2640 C   0  0  2  0  0  3  0  0  0  0  0  0
  188.9640  176.8260  141.7470 C   0  0  1  0  0  3  0  0  0  0  0  0
  193.9980  178.7500  139.2610 O   0  0  0  0  0  0  0  0  0  0  0  0
  193.5670  177.4690  139.9440 P   0  0  1  0  0  0  0  0  0  0  0  0
  194.9270  176.6910  140.5850 O   0  0  0  0  0  1  0  0  0  0  0  0
  192.7620  176.3710  138.7410 C   0  0  0  0  0  2  0  0  0  0  0  0
  193.5180  176.3830  137.4260 C   0  0  0  0  0  2  0  0  0  0  0  0
  192.4140  175.8380  135.3500 O   0  0  0  0  0  1  0  0  0  0  0  0
  193.0420  175.2770  136.4740 C   0  0  1  0  0  0  0  0  0  0  0  0
  194.2480  174.4540  136.0320 C   0  0  0  0  0  2  0  0  0  0  0  0
  194.2820  173.2120  136.6860 O   0  0  0  0  0  0  0  0  0  0  0  0
  195.3920  172.6080  138.6920 O   0  0  0  0  0  0  0  0  0  0  0  0
  196.3740  174.2360  137.3210 O   0  0  0  0  0  1  0  0  0  0  0  0
  195.4870  173.1650  137.4060 C   0  0  2  0  0  0  0  0  0  0  0  0
  196.0480  171.8350  137.7020 C   0  0  0  0  0  2  0  0  0  0  0  0
  192.0540  174.3630  137.2140 C   0  0  0  0  0  2  0  0  0  0  0  0
  190.6990  174.3570  136.5780 C   0  0  0  0  0  0  0  0  0  0  0  0
  190.4120  173.4420  135.5280 N   0  0  0  0  0  1  0  0  0  0  0  0
  189.8500  175.2300  136.8990 O   0  0  0  0  0  0  0  0  0  0  0  0
  187.1720  178.6000  136.8200 C   0  0  0  0  0  3  0  0  0  0  0  0
  187.4810  178.2620  137.9400 C   0  0  0  0  0  0  0  0  0  0  0  0
  181.9650  179.7490  143.9650 C   0  0  0  0  0  3  0  0  0  0  0  0
  180.7790  179.3240  139.9960 O   0  0  0  0  0  0  0  0  0  0  0  0
  181.5810  178.6420  142.0720 N   0  0  0  0  0  0  0  0  0  0  0  0
  181.1020  178.3680  140.7550 C   0  0  0  0  0  0  0  0  0  0  0  0
  182.6900  178.1170  142.6150 C   0  0  0  0  0  3  0  0  0  0  0  0
  182.9500  178.7880  143.7940 C   0  0  0  0  0  0  0  0  0  0  0  0
  180.9860  177.0160  140.2940 N   0  0  0  0  0  2  0  0  0  0  0  0
  181.1370  179.6350  142.8640 C   0  0  0  0  0  3  0  0  0  0  0  0
  182.0810  176.1200  138.2940 C   0  0  0  0  0  3  0  0  0  0  0  0
  180.8760  175.9980  136.1970 C   0  0  0  0  0  3  0  0  0  0  0  0
  179.8040  176.9400  138.1450 C   0  0  0  0  0  3  0  0  0  0  0  0
  180.9590  176.6960  138.9020 C   0  0  0  0  0  0  0  0  0  0  0  0
  179.7630  176.5930  136.7950 C   0  0  0  0  0  3  0  0  0  0  0  0
  182.0410  175.7580  136.9430 C   0  0  0  0  0  0  0  0  0  0  0  0
  184.2190  177.1240  135.7970 O   0  0  0  0  0  0  0  0  0  0  0  0
  184.1990  175.8650  135.7000 C   0  0  0  0  0  0  0  0  0  0  0  0
  183.1620  175.0970  136.3380 N   0  0  0  0  0  0  0  0  0  0  0  0
  182.8140  172.9780  137.2120 O   0  0  0  0  0  1  0  0  0  0  0  0
  183.1990  173.6890  136.2640 N   0  0  0  0  0  2  0  0  0  0  0  0
  185.2960  175.1820  134.9460 C   0  0  0  0  0  2  0  0  0  0  0  0
  186.4970  174.9190  135.8520 C   0  0  0  0  0  2  0  0  0  0  0  0
  187.1660  173.0710  137.2120 O   0  0  0  0  0  1  0  0  0  0  0  0
  186.8230  173.4360  135.9100 C   0  0  0  0  0  2  0  0  0  0  0  0
  2  8  2  0  0  0  0
  2  1  1  0  0  0  0
  4  8  1  0  0  0  0
  5  4  2  0  0  0  0
  6 11  1  0  0  0  0
  7  3  2  0  0  0  0
  7  5  1  0  0  0  0
  9  3  1  6  0  0  0
  9  6  1  0  0  0  0
  9  2  1  0  0  0  0
 10  6  2  0  0  0  0
 11  1  1  0  0  0  0
 13 15  2  0  0  0  0
 15 14  2  0  0  0  0
 16 19  1  6  0  0  0
 16 12  1  0  0  0  0
 17 12  1  0  0  0  0
 17  3  1  0  0  0  0
 20 43  1  6  0  0  0
 20 21  1  0  0  0  0
 20 22  1  0  0  0  0
 21 13  1  0  0  0  0
 22 18  1  0  0  0  0
 23 18  1  6  0  0  0
 23 17  1  0  0  0  0
 24 13  1  1  0  0  0
 24 23  1  0  0  0  0
 24 16  1  0  0  0  0
 26 25  2  6  0  0  0
 26 27  1  0  0  0  0
 26 14  1  0  0  0  0
 28 26  1  0  0  0  0
 29 28  1  0  0  0  0
 31 30  1  6  0  0  0
 31 38  1  0  0  0  0
 31 29  1  0  0  0  0
 32 31  1  0  0  0  0
 32 33  1  0  0  0  0
 33 36  1  0  0  0  0
 36 35  1  6  0  0  0
 36 37  1  0  0  0  0
 36 34  1  0  0  0  0
 37 34  1  0  0  0  0
 39 41  2  0  0  0  0
 39 38  1  0  0  0  0
 40 39  1  0  0  0  0
 42 43  3  0  0  0  0
 45 47  2  0  0  0  0
 46 48  1  0  0  0  0
 46 51  1  0  0  0  0
 47 46  1  0  0  0  0
 48 49  2  0  0  0  0
 49 44  1  0  0  0  0
 49  5  1  0  0  0  0
 50 47  1  0  0  0  0
 51 44  2  0  0  0  0
 52 55  1  0  0  0  0
 53 56  2  0  0  0  0
 53 57  1  0  0  0  0
 54 55  2  0  0  0  0
 55 50  1  0  0  0  0
 56 54  1  0  0  0  0
 57 52  2  0  0  0  0
 59 58  2  0  0  0  0
 59 60  1  0  0  0  0
 60 57  1  0  0  0  0
 62 60  1  0  0  0  0
 62 61  1  0  0  0  0
 63 59  1  0  0  0  0
 63 64  1  0  0  0  0
 64 66  1  0  0  0  0
 66 65  1  0  0  0  0
M  END
>  <MODEL>
5

>  <REMARK>
 VINA RESULT:      -5.8      2.782      8.454
  Name = 
  18 active torsions:
  status: ('A' for Active; 'I' for Inactive)
    1  A    between atoms: C_5  and  P_37
    2  A    between atoms: C_9  and  N_26
    3  A    between atoms: O_10  and  C_19
    4  A    between atoms: O_10  and  C_38
    5  A    between atoms: C_13  and  C_58
    6  A    between atoms: C_25  and  C_30
    7  A    between atoms: C_25  and  C_53
    8  A    between atoms: C_30  and  P_37
    9  A    between atoms: C_32  and  C_35
   10  A    between atoms: C_36  and  N_59
   11  A    between atoms: C_38  and  C_53
   12  A    between atoms: C_42  and  C_49
   13  A    between atoms: C_42  and  C_57
   14  A    between atoms: C_43  and  C_44
   15  A    between atoms: C_43  and  C_53
   16  A    between atoms: C_45  and  C_57
   17  A    between atoms: N_50  and  N_62
   18  A    between atoms: N_50  and  C_64
                            x       y       z     vdW  Elec       q    Type
                         _______ _______ _______ _____ _____    ______ ____

>  <TORSDO>
F 18

$$$$
=
 OpenBabel10222418393D

 66 72  0  0  1  0  0  0  0  0999 V2000
  187.5400  179.1410  147.6250 N   0  0  0  0  0  2  0  0  0  0  0  0
  186.4580  178.7280  146.8020 C   0  0  0  0  0  0  0  0  0  0  0  0
  186.5440  177.6780  144.4860 C   0  0  0  0  0  0  0  0  0  0  0  0
  184.1670  179.1650  145.9300 C   0  0  0  0  0  3  0  0  0  0  0  0
  184.1710  178.6270  144.7020 C   0  0  0  0  0  0  0  0  0  0  0  0
  188.2800  177.4530  146.3100 C   0  0  0  0  0  0  0  0  0  0  0  0
  185.3670  178.1040  144.0060 C   0  0  0  0  0  3  0  0  0  0  0  0
  185.2980  179.3660  146.8380 C   0  0  0  0  0  3  0  0  0  0  0  0
  186.8130  177.5240  145.9660 C   0  0  1  0  0  3  0  0  0  0  0  0
  189.1190  176.6550  145.8080 O   0  0  0  0  0  0  0  0  0  0  0  0
  188.6250  178.3770  147.2770 O   0  0  0  0  0  0  0  0  0  0  0  0
  188.4250  176.0770  144.0270 C   0  0  0  0  0  2  0  0  0  0  0  0
  189.8490  177.6290  140.8960 C   0  0  0  0  0  0  0  0  0  0  0  0
  192.4180  177.8110  141.3190 C   0  0  0  0  0  3  0  0  0  0  0  0
  191.1330  177.7290  141.1230 C   0  0  0  0  0  0  0  0  0  0  0  0
  189.5810  176.2090  143.0510 C   0  0  1  0  0  3  0  0  0  0  0  0
  187.3920  176.9930  143.5560 N   0  0  0  0  0  0  0  0  0  0  0  0
  186.7040  177.6510  141.3570 N   0  0  0  0  0  2  0  0  0  0  0  0
  190.1740  174.8420  142.7520 C   0  0  0  0  0  1  0  0  0  0  0  0
  187.8500  177.8820  139.3610 C   0  0  1  0  0  3  0  0  0  0  0  0
  189.3230  178.2130  139.6090 C   0  0  0  0  0  2  0  0  0  0  0  0
  187.0110  178.5720  140.3360 N   0  0  0  0  0  2  0  0  0  0  0  0
  187.7960  177.6470  142.3240 C   0  0  2  0  0  3  0  0  0  0  0  0
  188.9470  176.8140  141.8010 C   0  0  1  0  0  3  0  0  0  0  0  0
  194.0880  178.7130  139.3840 O   0  0  0  0  0  0  0  0  0  0  0  0
  193.5480  177.4300  139.9800 P   0  0  1  0  0  0  0  0  0  0  0  0
  194.8330  176.5120  140.5900 O   0  0  0  0  0  1  0  0  0  0  0  0
  192.6830  176.4730  138.7010 C   0  0  0  0  0  2  0  0  0  0  0  0
  193.6820  175.8340  137.7550 C   0  0  0  0  0  2  0  0  0  0  0  0
  193.2550  174.0170  136.2230 O   0  0  0  0  0  1  0  0  0  0  0  0
  193.0290  175.3860  136.4390 C   0  0  1  0  0  0  0  0  0  0  0  0
  191.5280  175.6520  136.5180 C   0  0  0  0  0  2  0  0  0  0  0  0
  190.8310  174.9150  135.5490 O   0  0  0  0  0  0  0  0  0  0  0  0
  188.6710  173.9920  135.8690 O   0  0  0  0  0  0  0  0  0  0  0  0
  190.2380  173.7910  137.6000 O   0  0  0  0  0  1  0  0  0  0  0  0
  190.0260  173.9950  136.2390 C   0  0  2  0  0  0  0  0  0  0  0  0
  189.4510  172.8810  135.4630 C   0  0  0  0  0  2  0  0  0  0  0  0
  193.6220  176.1970  135.2770 C   0  0  0  0  0  2  0  0  0  0  0  0
  194.9950  176.7080  135.5820 C   0  0  0  0  0  0  0  0  0  0  0  0
  196.0560  175.7920  135.8240 N   0  0  0  0  0  1  0  0  0  0  0  0
  195.1880  177.9440  135.7300 O   0  0  0  0  0  0  0  0  0  0  0  0
  187.1400  178.5570  136.8720 C   0  0  0  0  0  3  0  0  0  0  0  0
  187.4590  178.2660  138.0010 C   0  0  0  0  0  0  0  0  0  0  0  0
  181.7710  179.4020  144.2880 C   0  0  0  0  0  3  0  0  0  0  0  0
  180.6570  179.9310  140.3110 O   0  0  0  0  0  0  0  0  0  0  0  0
  181.6060  178.8460  142.1390 N   0  0  0  0  0  0  0  0  0  0  0  0
  181.1810  178.8810  140.7760 C   0  0  0  0  0  0  0  0  0  0  0  0
  182.8070  178.4220  142.5620 C   0  0  0  0  0  3  0  0  0  0  0  0
  182.9340  178.7550  143.8970 C   0  0  0  0  0  0  0  0  0  0  0  0
  181.3460  177.7290  139.9380 N   0  0  0  0  0  2  0  0  0  0  0  0
  180.9730  179.4500  143.1600 C   0  0  0  0  0  3  0  0  0  0  0  0
  182.0750  176.8930  137.7530 C   0  0  0  0  0  3  0  0  0  0  0  0
  181.3540  177.9970  135.7230 C   0  0  0  0  0  3  0  0  0  0  0  0
  180.6770  178.8700  137.8710 C   0  0  0  0  0  3  0  0  0  0  0  0
  181.3720  177.8340  138.5130 C   0  0  0  0  0  0  0  0  0  0  0  0
  180.6700  178.9520  136.4780 C   0  0  0  0  0  3  0  0  0  0  0  0
  182.0600  176.9620  136.3560 C   0  0  0  0  0  0  0  0  0  0  0  0
  181.2430  174.2690  136.2920 O   0  0  0  0  0  0  0  0  0  0  0  0
  182.2890  174.5800  135.6560 C   0  0  0  0  0  0  0  0  0  0  0  0
  182.7160  175.9520  135.5740 N   0  0  0  0  0  0  0  0  0  0  0  0
  184.9630  176.4680  135.3380 O   0  0  0  0  0  1  0  0  0  0  0  0
  183.8520  176.2790  134.8070 N   0  0  0  0  0  2  0  0  0  0  0  0
  183.0540  173.5030  134.9550 C   0  0  0  0  0  2  0  0  0  0  0  0
  183.9170  172.7190  135.9410 C   0  0  0  0  0  2  0  0  0  0  0  0
  185.1650  172.9310  137.9680 O   0  0  0  0  0  1  0  0  0  0  0  0
  184.1420  173.5100  137.2180 C   0  0  0  0  0  2  0  0  0  0  0  0
  2  8  2  0  0  0  0
  2  1  1  0  0  0  0
  4  8  1  0  0  0  0
  5  4  2  0  0  0  0
  6 11  1  0  0  0  0
  7  3  2  0  0  0  0
  7  5  1  0  0  0  0
  9  3  1  6  0  0  0
  9  6  1  0  0  0  0
  9  2  1  0  0  0  0
 10  6  2  0  0  0  0
 11  1  1  0  0  0  0
 13 15  2  0  0  0  0
 15 14  2  0  0  0  0
 16 19  1  6  0  0  0
 16 12  1  0  0  0  0
 17 12  1  0  0  0  0
 17  3  1  0  0  0  0
 20 43  1  6  0  0  0
 20 21  1  0  0  0  0
 20 22  1  0  0  0  0
 21 13  1  0  0  0  0
 22 18  1  0  0  0  0
 23 18  1  6  0  0  0
 23 17  1  0  0  0  0
 24 13  1  1  0  0  0
 24 23  1  0  0  0  0
 24 16  1  0  0  0  0
 26 25  2  6  0  0  0
 26 27  1  0  0  0  0
 26 14  1  0  0  0  0
 28 26  1  0  0  0  0
 29 28  1  0  0  0  0
 31 30  1  6  0  0  0
 31 32  1  0  0  0  0
 31 29  1  0  0  0  0
 33 36  1  0  0  0  0
 33 32  1  0  0  0  0
 34 36  1  0  0  0  0
 36 35  1  1  0  0  0
 37 34  1  0  0  0  0
 37 36  1  0  0  0  0
 38 39  1  0  0  0  0
 38 31  1  0  0  0  0
 39 41  2  0  0  0  0
 39 40  1  0  0  0  0
 42 43  3  0  0  0  0
 45 47  2  0  0  0  0
 46 48  1  0  0  0  0
 46 51  1  0  0  0  0
 47 46  1  0  0  0  0
 48 49  2  0  0  0  0
 49 44  1  0  0  0  0
 49  5  1  0  0  0  0
 50 47  1  0  0  0  0
 51 44  2  0  0  0  0
 52 55  1  0  0  0  0
 53 57  1  0  0  0  0
 53 56  2  0  0  0  0
 54 55  2  0  0  0  0
 55 50  1  0  0  0  0
 56 54  1  0  0  0  0
 57 52  2  0  0  0  0
 59 58  2  0  0  0  0
 60 59  1  0  0  0  0
 60 57  1  0  0  0  0
 62 61  1  0  0  0  0
 62 60  1  0  0  0  0
 63 59  1  0  0  0  0
 63 64  1  0  0  0  0
 64 66  1  0  0  0  0
 66 65  1  0  0  0  0
M  END
>  <MODEL>
6

>  <REMARK>
 VINA RESULT:      -5.7      2.801      8.652
  Name = 
  18 active torsions:
  status: ('A' for Active; 'I' for Inactive)
    1  A    between atoms: C_5  and  P_37
    2  A    between atoms: C_9  and  N_26
    3  A    between atoms: O_10  and  C_19
    4  A    between atoms: O_10  and  C_38
    5  A    between atoms: C_13  and  C_58
    6  A    between atoms: C_25  and  C_30
    7  A    between atoms: C_25  and  C_53
    8  A    between atoms: C_30  and  P_37
    9  A    between atoms: C_32  and  C_35
   10  A    between atoms: C_36  and  N_59
   11  A    between atoms: C_38  and  C_53
   12  A    between atoms: C_42  and  C_49
   13  A    between atoms: C_42  and  C_57
   14  A    between atoms: C_43  and  C_44
   15  A    between atoms: C_43  and  C_53
   16  A    between atoms: C_45  and  C_57
   17  A    between atoms: N_50  and  N_62
   18  A    between atoms: N_50  and  C_64
                            x       y       z     vdW  Elec       q    Type
                         _______ _______ _______ _____ _____    ______ ____

>  <TORSDO>
F 18

$$$$
=
 OpenBabel10222418393D

 66 72  0  0  1  0  0  0  0  0999 V2000
  193.7920  175.0690  137.9950 N   0  0  0  0  0  2  0  0  0  0  0  0
  192.4510  175.1370  137.5270 C   0  0  0  0  0  0  0  0  0  0  0  0
  190.4420  176.2270  138.6430 C   0  0  0  0  0  0  0  0  0  0  0  0
  190.5380  174.0120  136.3990 C   0  0  0  0  0  3  0  0  0  0  0  0
  189.4520  174.5590  136.9640 C   0  0  0  0  0  0  0  0  0  0  0  0
  192.8570  176.9440  138.8520 C   0  0  0  0  0  0  0  0  0  0  0  0
  189.4660  175.4600  138.1380 C   0  0  0  0  0  3  0  0  0  0  0  0
  191.9400  174.1590  136.7960 C   0  0  0  0  0  3  0  0  0  0  0  0
  191.7720  176.4150  137.9480 C   0  0  1  0  0  3  0  0  0  0  0  0
  192.7850  177.9840  139.5640 O   0  0  0  0  0  0  0  0  0  0  0  0
  193.9880  176.1510  138.8140 O   0  0  0  0  0  0  0  0  0  0  0  0
  190.9130  177.4700  140.7750 C   0  0  0  0  0  2  0  0  0  0  0  0
  187.4030  177.8070  142.1180 C   0  0  0  0  0  0  0  0  0  0  0  0
  187.5300  177.0040  144.5980 C   0  0  0  0  0  3  0  0  0  0  0  0
  187.4730  177.3900  143.3560 C   0  0  0  0  0  0  0  0  0  0  0  0
  189.9910  177.7430  141.9510 C   0  0  1  0  0  3  0  0  0  0  0  0
  190.0450  177.1760  139.6400 N   0  0  0  0  0  0  0  0  0  0  0  0
  187.9030  178.0300  138.9870 N   0  0  0  0  0  2  0  0  0  0  0  0
  190.5130  178.9140  142.7660 C   0  0  0  0  0  1  0  0  0  0  0  0
  186.0940  178.8140  140.1970 C   0  0  1  0  0  3  0  0  0  0  0  0
  186.0400  178.1680  141.5830 C   0  0  0  0  0  2  0  0  0  0  0  0
  186.5250  177.8330  139.2060 N   0  0  0  0  0  2  0  0  0  0  0  0
  188.6440  177.2990  140.0080 C   0  0  2  0  0  3  0  0  0  0  0  0
  188.6510  178.0820  141.3040 C   0  0  1  0  0  3  0  0  0  0  0  0
  186.2350  179.2710  145.3280 O   0  0  0  0  0  0  0  0  0  0  0  0
  186.6110  177.9000  145.8500 P   0  0  1  0  0  0  0  0  0  0  0  0
  185.2040  177.0370  146.2220 O   0  0  0  0  0  1  0  0  0  0  0  0
  187.6230  178.0700  147.3500 C   0  0  0  0  0  2  0  0  0  0  0  0
  188.4470  176.8170  147.5740 C   0  0  0  0  0  2  0  0  0  0  0  0
  190.1740  178.3450  146.8580 O   0  0  0  0  0  1  0  0  0  0  0  0
  189.9020  176.9910  147.1170 C   0  0  1  0  0  0  0  0  0  0  0  0
  190.8300  176.4810  148.2160 C   0  0  0  0  0  2  0  0  0  0  0  0
  191.9350  177.3300  148.3810 O   0  0  0  0  0  0  0  0  0  0  0  0
  193.9730  177.1280  149.5750 O   0  0  0  0  0  0  0  0  0  0  0  0
  193.5750  175.6600  147.7920 O   0  0  0  0  0  1  0  0  0  0  0  0
  193.0220  176.5180  148.7400 C   0  0  2  0  0  0  0  0  0  0  0  0
  193.1450  176.1370  150.1590 C   0  0  0  0  0  2  0  0  0  0  0  0
  190.1340  176.1670  145.8410 C   0  0  0  0  0  2  0  0  0  0  0  0
  191.3900  176.5590  145.1300 C   0  0  0  0  0  0  0  0  0  0  0  0
  192.0060  175.6530  144.2240 N   0  0  0  0  0  1  0  0  0  0  0  0
  191.9600  177.6460  145.4130 O   0  0  0  0  0  0  0  0  0  0  0  0
  183.6880  179.7900  139.5520 C   0  0  0  0  0  3  0  0  0  0  0  0
  184.7820  179.3540  139.8310 C   0  0  0  0  0  0  0  0  0  0  0  0
  187.7650  172.7340  136.3680 C   0  0  0  0  0  3  0  0  0  0  0  0
  183.7420  173.7250  136.7840 O   0  0  0  0  0  0  0  0  0  0  0  0
  185.9580  174.0130  136.1320 N   0  0  0  0  0  0  0  0  0  0  0  0
  184.5840  174.4010  136.1300 C   0  0  0  0  0  0  0  0  0  0  0  0
  186.9920  174.8360  136.3690 C   0  0  0  0  0  3  0  0  0  0  0  0
  188.1290  174.0640  136.5190 C   0  0  0  0  0  0  0  0  0  0  0  0
  184.1590  175.5520  135.3880 N   0  0  0  0  0  2  0  0  0  0  0  0
  186.4010  172.7430  136.1410 C   0  0  0  0  0  3  0  0  0  0  0  0
  181.9710  175.6200  136.4870 C   0  0  0  0  0  3  0  0  0  0  0  0
  180.6070  177.6170  136.3650 C   0  0  0  0  0  3  0  0  0  0  0  0
  182.7350  177.5430  135.2240 C   0  0  0  0  0  3  0  0  0  0  0  0
  182.9460  176.2390  135.6960 C   0  0  0  0  0  0  0  0  0  0  0  0
  181.5670  178.2300  135.5560 C   0  0  0  0  0  3  0  0  0  0  0  0
  180.8040  176.3090  136.8350 C   0  0  0  0  0  0  0  0  0  0  0  0
  180.6250  176.8800  139.5860 O   0  0  0  0  0  0  0  0  0  0  0  0
  179.8630  175.9860  139.1210 C   0  0  0  0  0  0  0  0  0  0  0  0
  179.8400  175.7040  137.7100 N   0  0  0  0  0  0  0  0  0  0  0  0
  179.2720  173.9300  136.3300 O   0  0  0  0  0  1  0  0  0  0  0  0
  178.9350  174.7440  137.2110 N   0  0  0  0  0  2  0  0  0  0  0  0
  178.9540  175.2540  140.0580 C   0  0  0  0  0  2  0  0  0  0  0  0
  179.3400  173.7790  140.1470 C   0  0  0  0  0  2  0  0  0  0  0  0
  178.9530  173.3040  142.4570 O   0  0  0  0  0  1  0  0  0  0  0  0
  179.9550  173.4570  141.4990 C   0  0  0  0  0  2  0  0  0  0  0  0
  1 11  1  0  0  0  0
  2  1  1  0  0  0  0
  3 17  1  0  0  0  0
  4  8  1  0  0  0  0
  4  5  2  0  0  0  0
  5  7  1  0  0  0  0
  6 10  2  0  0  0  0
  7  3  2  0  0  0  0
  8  2  2  0  0  0  0
  9  2  1  1  0  0  0
  9  3  1  0  0  0  0
  9  6  1  0  0  0  0
 11  6  1  0  0  0  0
 12 16  1  0  0  0  0
 13 15  2  0  0  0  0
 14 26  1  0  0  0  0
 15 14  2  0  0  0  0
 16 19  1  6  0  0  0
 17 23  1  0  0  0  0
 17 12  1  0  0  0  0
 18 22  1  0  0  0  0
 20 43  1  6  0  0  0
 20 21  1  0  0  0  0
 21 13  1  0  0  0  0
 22 20  1  0  0  0  0
 23 18  1  6  0  0  0
 23 24  1  0  0  0  0
 24 16  1  0  0  0  0
 24 13  1  1  0  0  0
 26 25  2  6  0  0  0
 26 27  1  0  0  0  0
 26 28  1  0  0  0  0
 28 29  1  0  0  0  0
 31 30  1  6  0  0  0
 31 29  1  0  0  0  0
 31 32  1  0  0  0  0
 32 33  1  0  0  0  0
 33 36  1  0  0  0  0
 34 37  1  0  0  0  0
 36 35  1  6  0  0  0
 36 34  1  0  0  0  0
 36 37  1  0  0  0  0
 38 31  1  0  0  0  0
 39 41  2  0  0  0  0
 39 38  1  0  0  0  0
 40 39  1  0  0  0  0
 42 43  3  0  0  0  0
 44 49  1  0  0  0  0
 46 51  1  0  0  0  0
 46 48  1  0  0  0  0
 47 46  1  0  0  0  0
 47 45  2  0  0  0  0
 48 49  2  0  0  0  0
 49  5  1  0  0  0  0
 50 55  1  0  0  0  0
 50 47  1  0  0  0  0
 51 44  2  0  0  0  0
 52 57  1  0  0  0  0
 53 57  2  0  0  0  0
 54 56  2  0  0  0  0
 54 55  1  0  0  0  0
 55 52  2  0  0  0  0
 56 53  1  0  0  0  0
 57 60  1  0  0  0  0
 59 58  2  0  0  0  0
 59 63  1  0  0  0  0
 60 59  1  0  0  0  0
 61 62  1  0  0  0  0
 62 60  1  0  0  0  0
 63 64  1  0  0  0  0
 64 66  1  0  0  0  0
 66 65  1  0  0  0  0
M  END
>  <MODEL>
7

>  <REMARK>
 VINA RESULT:      -5.0      1.831      2.874
  Name = 
  18 active torsions:
  status: ('A' for Active; 'I' for Inactive)
    1  A    between atoms: C_5  and  P_37
    2  A    between atoms: C_9  and  N_26
    3  A    between atoms: O_10  and  C_19
    4  A    between atoms: O_10  and  C_38
    5  A    between atoms: C_13  and  C_58
    6  A    between atoms: C_25  and  C_30
    7  A    between atoms: C_25  and  C_53
    8  A    between atoms: C_30  and  P_37
    9  A    between atoms: C_32  and  C_35
   10  A    between atoms: C_36  and  N_59
   11  A    between atoms: C_38  and  C_53
   12  A    between atoms: C_42  and  C_49
   13  A    between atoms: C_42  and  C_57
   14  A    between atoms: C_43  and  C_44
   15  A    between atoms: C_43  and  C_53
   16  A    between atoms: C_45  and  C_57
   17  A    between atoms: N_50  and  N_62
   18  A    between atoms: N_50  and  C_64
                            x       y       z     vdW  Elec       q    Type
                         _______ _______ _______ _____ _____    ______ ____

>  <TORSDO>
F 18

$$$$
=
 OpenBabel10222418393D

 66 72  0  0  1  0  0  0  0  0999 V2000
  178.9690  172.3500  137.7690 N   0  0  0  0  0  0  0  0  0  0  0  0
  179.5200  173.6420  137.9820 C   0  0  0  0  0  0  0  0  0  0  0  0
  181.8080  174.5180  137.2940 C   0  0  0  0  0  0  0  0  0  0  0  0
  179.8200  175.5990  139.4910 C   0  0  0  0  0  3  0  0  0  0  0  0
  181.0230  176.0910  139.1610 C   0  0  0  0  0  0  0  0  0  0  0  0
  180.4470  172.7510  136.1020 C   0  0  0  0  0  0  0  0  0  0  0  0
  181.9900  175.4370  138.2510 C   0  0  0  0  0  3  0  0  0  0  0  0
  179.2010  174.3450  139.0570 C   0  0  0  0  0  2  0  0  0  0  0  0
  180.4350  174.0560  136.8570 C   0  0  1  0  0  3  0  0  0  0  0  0
  181.1460  172.4920  135.0830 O   0  0  0  0  0  0  0  0  0  0  0  0
  179.5740  171.8320  136.6520 O   0  0  0  0  0  0  0  0  0  0  0  0
  183.3010  172.9300  136.0440 C   0  0  0  0  0  2  0  0  0  0  0  0
  186.5470  174.8470  136.1820 C   0  0  0  0  0  0  0  0  0  0  0  0
  188.3310  173.1320  137.0120 C   0  0  0  0  0  3  0  0  0  0  0  0
  187.4310  173.9850  136.6120 C   0  0  0  0  0  0  0  0  0  0  0  0
  184.8140  172.9360  135.9140 C   0  0  1  0  0  3  0  0  0  0  0  0
  182.9220  174.2860  136.4230 N   0  0  0  0  0  0  0  0  0  0  0  0
  183.8130  176.4320  135.8350 N   0  0  0  0  0  2  0  0  0  0  0  0
  185.2400  172.1230  134.7030 C   0  0  0  0  0  1  0  0  0  0  0  0
  185.9490  177.1500  135.3110 C   0  0  1  0  0  3  0  0  0  0  0  0
  187.0040  176.2710  135.9860 C   0  0  0  0  0  2  0  0  0  0  0  0
  184.8160  177.3480  136.2090 N   0  0  0  0  0  2  0  0  0  0  0  0
  184.0840  175.1550  136.4860 C   0  0  2  0  0  3  0  0  0  0  0  0
  185.1680  174.4100  135.7340 C   0  0  1  0  0  3  0  0  0  0  0  0
  190.6210  171.7930  136.4530 O   0  0  0  0  0  1  0  0  0  0  0  0
  189.9600  173.1430  136.2650 P   0  0  1  0  0  0  0  0  0  0  0  0
  189.8040  173.4640  134.6100 O   0  0  0  0  0  0  0  0  0  0  0  0
  190.9780  174.4380  137.0310 C   0  0  0  0  0  2  0  0  0  0  0  0
  190.5270  174.6880  138.4580 C   0  0  0  0  0  2  0  0  0  0  0  0
  190.6620  176.3700  140.1850 O   0  0  0  0  0  1  0  0  0  0  0  0
  190.4990  176.1840  138.8020 C   0  0  1  0  0  0  0  0  0  0  0  0
  191.6300  176.8840  138.0530 C   0  0  0  0  0  2  0  0  0  0  0  0
  192.8840  176.4170  138.4760 O   0  0  0  0  0  0  0  0  0  0  0  0
  194.9610  176.0040  137.4100 O   0  0  0  0  0  0  0  0  0  0  0  0
  193.0590  176.3000  136.0720 O   0  0  0  0  0  1  0  0  0  0  0  0
  193.5580  175.9690  137.3290 C   0  0  2  0  0  0  0  0  0  0  0  0
  194.3460  174.7280  137.4470 C   0  0  0  0  0  2  0  0  0  0  0  0
  189.1560  176.7820  138.3570 C   0  0  0  0  0  2  0  0  0  0  0  0
  189.2420  178.2550  138.1100 C   0  0  0  0  0  0  0  0  0  0  0  0
  189.0950  179.1660  139.1920 N   0  0  0  0  0  1  0  0  0  0  0  0
  189.3380  178.6910  136.9330 O   0  0  0  0  0  0  0  0  0  0  0  0
  186.9730  179.5240  134.6230 C   0  0  0  0  0  3  0  0  0  0  0  0
  186.5240  178.4450  134.9350 C   0  0  0  0  0  0  0  0  0  0  0  0
  181.0270  178.5610  139.8200 C   0  0  0  0  0  3  0  0  0  0  0  0
  182.4620  179.4590  143.6240 O   0  0  0  0  0  0  0  0  0  0  0  0
  182.4510  178.4490  141.5270 N   0  0  0  0  0  0  0  0  0  0  0  0
  183.0820  178.7700  142.7680 C   0  0  0  0  0  0  0  0  0  0  0  0
  182.3920  177.2220  140.9860 C   0  0  0  0  0  3  0  0  0  0  0  0
  181.5120  177.2650  139.9210 C   0  0  0  0  0  0  0  0  0  0  0  0
  184.4140  178.3140  143.0400 N   0  0  0  0  0  2  0  0  0  0  0  0
  181.6270  179.2650  140.8470 C   0  0  0  0  0  3  0  0  0  0  0  0
  186.2500  177.8640  144.5980 C   0  0  0  0  0  3  0  0  0  0  0  0
  185.9010  178.0670  146.9860 C   0  0  0  0  0  3  0  0  0  0  0  0
  184.0640  178.4540  145.4650 C   0  0  0  0  0  3  0  0  0  0  0  0
  184.9110  178.2040  144.3750 C   0  0  0  0  0  0  0  0  0  0  0  0
  184.5580  178.3840  146.7680 C   0  0  0  0  0  3  0  0  0  0  0  0
  186.7540  177.8060  145.9020 C   0  0  0  0  0  0  0  0  0  0  0  0
  188.8080  178.6670  144.1800 O   0  0  0  0  0  0  0  0  0  0  0  0
  189.1310  177.9380  145.1610 C   0  0  0  0  0  0  0  0  0  0  0  0
  188.1450  177.5340  146.1290 N   0  0  0  0  0  0  0  0  0  0  0  0
  187.8020  176.6290  148.2350 O   0  0  0  0  0  1  0  0  0  0  0  0
  188.5450  176.7720  147.2460 N   0  0  0  0  0  2  0  0  0  0  0  0
  190.5630  177.5360  145.3210 C   0  0  0  0  0  2  0  0  0  0  0  0
  191.2020  177.2500  143.9630 C   0  0  0  0  0  2  0  0  0  0  0  0
  191.9450  175.0040  143.6240 O   0  0  0  0  0  1  0  0  0  0  0  0
  190.8490  175.8550  143.4780 C   0  0  0  0  0  2  0  0  0  0  0  0
  1  2  2  0  0  0  0
  2  8  1  0  0  0  0
  3  7  2  0  0  0  0
  5  4  2  0  0  0  0
  5 49  1  0  0  0  0
  6 11  1  0  0  0  0
  7  5  1  0  0  0  0
  8  4  1  0  0  0  0
  9  6  1  6  0  0  0
  9  3  1  0  0  0  0
  9  2  1  0  0  0  0
 10  6  2  0  0  0  0
 11  1  1  0  0  0  0
 12 17  1  0  0  0  0
 13 15  2  0  0  0  0
 15 14  2  0  0  0  0
 16 19  1  6  0  0  0
 16 12  1  0  0  0  0
 17 23  1  0  0  0  0
 17  3  1  0  0  0  0
 18 22  1  0  0  0  0
 20 43  1  1  0  0  0
 20 21  1  0  0  0  0
 20 22  1  0  0  0  0
 21 13  1  0  0  0  0
 23 18  1  6  0  0  0
 24 16  1  0  0  0  0
 24 13  1  1  0  0  0
 24 23  1  0  0  0  0
 26 27  2  6  0  0  0
 26 25  1  0  0  0  0
 26 14  1  0  0  0  0
 26 28  1  0  0  0  0
 28 29  1  0  0  0  0
 29 31  1  0  0  0  0
 31 30  1  1  0  0  0
 32 33  1  0  0  0  0
 32 31  1  0  0  0  0
 34 37  1  0  0  0  0
 36 35  1  6  0  0  0
 36 34  1  0  0  0  0
 36 37  1  0  0  0  0
 36 33  1  0  0  0  0
 38 31  1  0  0  0  0
 39 38  1  0  0  0  0
 39 40  1  0  0  0  0
 41 39  2  0  0  0  0
 42 43  3  0  0  0  0
 44 49  1  0  0  0  0
 44 51  2  0  0  0  0
 46 47  1  0  0  0  0
 47 50  1  0  0  0  0
 47 45  2  0  0  0  0
 48 46  1  0  0  0  0
 49 48  2  0  0  0  0
 50 55  1  0  0  0  0
 51 46  1  0  0  0  0
 52 57  1  0  0  0  0
 54 56  2  0  0  0  0
 55 52  2  0  0  0  0
 55 54  1  0  0  0  0
 56 53  1  0  0  0  0
 57 60  1  0  0  0  0
 57 53  2  0  0  0  0
 58 59  2  0  0  0  0
 59 63  1  0  0  0  0
 59 60  1  0  0  0  0
 60 62  1  0  0  0  0
 62 61  1  0  0  0  0
 64 63  1  0  0  0  0
 66 65  1  0  0  0  0
 66 64  1  0  0  0  0
M  END
>  <MODEL>
8

>  <REMARK>
 VINA RESULT:      -4.9      3.053      9.780
  Name = 
  18 active torsions:
  status: ('A' for Active; 'I' for Inactive)
    1  A    between atoms: C_5  and  P_37
    2  A    between atoms: C_9  and  N_26
    3  A    between atoms: O_10  and  C_19
    4  A    between atoms: O_10  and  C_38
    5  A    between atoms: C_13  and  C_58
    6  A    between atoms: C_25  and  C_30
    7  A    between atoms: C_25  and  C_53
    8  A    between atoms: C_30  and  P_37
    9  A    between atoms: C_32  and  C_35
   10  A    between atoms: C_36  and  N_59
   11  A    between atoms: C_38  and  C_53
   12  A    between atoms: C_42  and  C_49
   13  A    between atoms: C_42  and  C_57
   14  A    between atoms: C_43  and  C_44
   15  A    between atoms: C_43  and  C_53
   16  A    between atoms: C_45  and  C_57
   17  A    between atoms: N_50  and  N_62
   18  A    between atoms: N_50  and  C_64
                            x       y       z     vdW  Elec       q    Type
                         _______ _______ _______ _____ _____    ______ ____

>  <TORSDO>
F 18

$$$$
=
 OpenBabel10222418393D

 66 72  0  0  1  0  0  0  0  0999 V2000
  187.5840  179.0470  147.6100 N   0  0  0  0  0  2  0  0  0  0  0  0
  186.4940  178.6370  146.7960 C   0  0  0  0  0  0  0  0  0  0  0  0
  186.5580  177.6260  144.4620 C   0  0  0  0  0  0  0  0  0  0  0  0
  184.1870  179.0650  145.9640 C   0  0  0  0  0  3  0  0  0  0  0  0
  184.1790  178.5470  144.7270 C   0  0  0  0  0  0  0  0  0  0  0  0
  188.3210  177.3880  146.2590 C   0  0  0  0  0  0  0  0  0  0  0  0
  185.3700  178.0470  144.0060 C   0  0  0  0  0  3  0  0  0  0  0  0
  185.3290  179.2620  146.8590 C   0  0  0  0  0  3  0  0  0  0  0  0
  186.8490  177.4500  145.9360 C   0  0  1  0  0  3  0  0  0  0  0  0
  189.1610  176.6070  145.7310 O   0  0  0  0  0  0  0  0  0  0  0  0
  188.6700  178.3000  147.2350 O   0  0  0  0  0  0  0  0  0  0  0  0
  188.4290  176.0300  143.9500 C   0  0  0  0  0  2  0  0  0  0  0  0
  189.8500  177.6670  140.8620 C   0  0  0  0  0  0  0  0  0  0  0  0
  192.4220  177.8240  141.2800 C   0  0  0  0  0  3  0  0  0  0  0  0
  191.1360  177.7540  141.0860 C   0  0  0  0  0  0  0  0  0  0  0  0
  189.5830  176.1850  142.9740 C   0  0  1  0  0  3  0  0  0  0  0  0
  187.3990  176.9640  143.5100 N   0  0  0  0  0  0  0  0  0  0  0  0
  186.7070  177.6910  141.3330 N   0  0  0  0  0  2  0  0  0  0  0  0
  190.1680  174.8250  142.6330 C   0  0  0  0  0  1  0  0  0  0  0  0
  187.8470  177.9750  139.3410 C   0  0  1  0  0  3  0  0  0  0  0  0
  189.3230  178.2910  139.5940 C   0  0  0  0  0  2  0  0  0  0  0  0
  187.0160  178.6400  140.3390 N   0  0  0  0  0  2  0  0  0  0  0  0
  187.8020  177.6530  142.2960 C   0  0  2  0  0  3  0  0  0  0  0  0
  188.9480  176.8300  141.7450 C   0  0  1  0  0  3  0  0  0  0  0  0
  193.9700  178.7720  139.2680 O   0  0  0  0  0  0  0  0  0  0  0  0
  193.5450  177.4770  139.9270 P   0  0  1  0  0  0  0  0  0  0  0  0
  194.9120  176.6850  140.5370 O   0  0  0  0  0  1  0  0  0  0  0  0
  192.7270  176.4060  138.7090 C   0  0  0  0  0  2  0  0  0  0  0  0
  193.5320  176.3570  137.4240 C   0  0  0  0  0  2  0  0  0  0  0  0
  194.3530  174.8940  135.6880 O   0  0  0  0  0  1  0  0  0  0  0  0
  193.8660  174.9190  137.0050 C   0  0  1  0  0  0  0  0  0  0  0  0
  194.9220  174.3600  137.9540 C   0  0  0  0  0  2  0  0  0  0  0  0
  196.2040  174.4330  137.3860 O   0  0  0  0  0  0  0  0  0  0  0  0
  198.0930  173.3840  138.3610 O   0  0  0  0  0  0  0  0  0  0  0  0
  196.6740  174.6350  139.7450 O   0  0  0  0  0  1  0  0  0  0  0  0
  197.1210  174.3950  138.4470 C   0  0  2  0  0  0  0  0  0  0  0  0
  198.5280  174.7150  138.1410 C   0  0  0  0  0  2  0  0  0  0  0  0
  192.5980  174.0560  137.1010 C   0  0  0  0  0  2  0  0  0  0  0  0
  192.1100  173.6100  135.7590 C   0  0  0  0  0  0  0  0  0  0  0  0
  191.7160  174.5740  134.7900 N   0  0  0  0  0  1  0  0  0  0  0  0
  191.9470  172.3830  135.5250 O   0  0  0  0  0  0  0  0  0  0  0  0
  187.1560  178.7560  136.8780 C   0  0  0  0  0  3  0  0  0  0  0  0
  187.4540  178.4010  137.9950 C   0  0  0  0  0  0  0  0  0  0  0  0
  181.7530  179.2710  144.3740 C   0  0  0  0  0  3  0  0  0  0  0  0
  180.5780  179.9480  140.4360 O   0  0  0  0  0  0  0  0  0  0  0  0
  181.5790  178.8090  142.2030 N   0  0  0  0  0  0  0  0  0  0  0  0
  181.1380  178.8940  140.8470 C   0  0  0  0  0  0  0  0  0  0  0  0
  182.7970  178.4010  142.5930 C   0  0  0  0  0  3  0  0  0  0  0  0
  182.9290  178.6760  143.9410 C   0  0  0  0  0  0  0  0  0  0  0  0
  181.3260  177.7870  139.9550 N   0  0  0  0  0  2  0  0  0  0  0  0
  180.9410  179.3470  143.2570 C   0  0  0  0  0  3  0  0  0  0  0  0
  181.3630  176.8390  137.6960 C   0  0  0  0  0  3  0  0  0  0  0  0
  181.2640  178.2940  135.7630 C   0  0  0  0  0  3  0  0  0  0  0  0
  181.2890  179.2460  137.9830 C   0  0  0  0  0  3  0  0  0  0  0  0
  181.3320  177.9580  138.5370 C   0  0  0  0  0  0  0  0  0  0  0  0
  181.2570  179.4130  136.5980 C   0  0  0  0  0  3  0  0  0  0  0  0
  181.3160  177.0010  136.3080 C   0  0  0  0  0  0  0  0  0  0  0  0
  179.0240  175.4010  135.9720 O   0  0  0  0  0  0  0  0  0  0  0  0
  180.0850  175.0370  135.3890 C   0  0  0  0  0  0  0  0  0  0  0  0
  181.2690  175.8530  135.4460 N   0  0  0  0  0  0  0  0  0  0  0  0
  183.4570  175.0970  135.3260 O   0  0  0  0  0  1  0  0  0  0  0  0
  182.4190  175.4530  134.7360 N   0  0  0  0  0  2  0  0  0  0  0  0
  180.0760  173.7630  134.6040 C   0  0  0  0  0  2  0  0  0  0  0  0
  179.7440  172.5740  135.5030 C   0  0  0  0  0  2  0  0  0  0  0  0
  181.4350  170.8850  135.5550 O   0  0  0  0  0  1  0  0  0  0  0  0
  180.9910  172.0450  136.1910 C   0  0  0  0  0  2  0  0  0  0  0  0
  2  8  2  0  0  0  0
  2  1  1  0  0  0  0
  4  8  1  0  0  0  0
  5  4  2  0  0  0  0
  6 11  1  0  0  0  0
  7  3  2  0  0  0  0
  7  5  1  0  0  0  0
  9  3  1  6  0  0  0
  9  6  1  0  0  0  0
  9  2  1  0  0  0  0
 10  6  2  0  0  0  0
 11  1  1  0  0  0  0
 13 15  2  0  0  0  0
 15 14  2  0  0  0  0
 16 19  1  6  0  0  0
 16 12  1  0  0  0  0
 17 12  1  0  0  0  0
 17  3  1  0  0  0  0
 20 43  1  6  0  0  0
 20 21  1  0  0  0  0
 20 22  1  0  0  0  0
 21 13  1  0  0  0  0
 22 18  1  0  0  0  0
 23 18  1  6  0  0  0
 23 17  1  0  0  0  0
 24 13  1  1  0  0  0
 24 23  1  0  0  0  0
 24 16  1  0  0  0  0
 26 25  2  6  0  0  0
 26 27  1  0  0  0  0
 26 14  1  0  0  0  0
 28 26  1  0  0  0  0
 29 28  1  0  0  0  0
 31 30  1  6  0  0  0
 31 38  1  0  0  0  0
 31 29  1  0  0  0  0
 31 32  1  0  0  0  0
 33 32  1  0  0  0  0
 33 36  1  0  0  0  0
 34 36  1  0  0  0  0
 36 35  1  1  0  0  0
 37 34  1  0  0  0  0
 37 36  1  0  0  0  0
 39 38  1  0  0  0  0
 40 39  1  0  0  0  0
 41 39  2  0  0  0  0
 42 43  3  0  0  0  0
 45 47  2  0  0  0  0
 46 48  1  0  0  0  0
 46 51  1  0  0  0  0
 47 46  1  0  0  0  0
 48 49  2  0  0  0  0
 49 44  1  0  0  0  0
 49  5  1  0  0  0  0
 50 47  1  0  0  0  0
 51 44  2  0  0  0  0
 52 55  1  0  0  0  0
 53 57  1  0  0  0  0
 53 56  2  0  0  0  0
 54 55  2  0  0  0  0
 55 50  1  0  0  0  0
 56 54  1  0  0  0  0
 57 52  2  0  0  0  0
 59 60  1  0  0  0  0
 59 58  2  0  0  0  0
 60 57  1  0  0  0  0
 62 61  1  0  0  0  0
 62 60  1  0  0  0  0
 63 59  1  0  0  0  0
 63 64  1  0  0  0  0
 64 66  1  0  0  0  0
 65 66  1  0  0  0  0
M  END
>  <MODEL>
9

>  <REMARK>
 VINA RESULT:      -4.7      3.056      8.481
  Name = 
  18 active torsions:
  status: ('A' for Active; 'I' for Inactive)
    1  A    between atoms: C_5  and  P_37
    2  A    between atoms: C_9  and  N_26
    3  A    between atoms: O_10  and  C_19
    4  A    between atoms: O_10  and  C_38
    5  A    between atoms: C_13  and  C_58
    6  A    between atoms: C_25  and  C_30
    7  A    between atoms: C_25  and  C_53
    8  A    between atoms: C_30  and  P_37
    9  A    between atoms: C_32  and  C_35
   10  A    between atoms: C_36  and  N_59
   11  A    between atoms: C_38  and  C_53
   12  A    between atoms: C_42  and  C_49
   13  A    between atoms: C_42  and  C_57
   14  A    between atoms: C_43  and  C_44
   15  A    between atoms: C_43  and  C_53
   16  A    between atoms: C_45  and  C_57
   17  A    between atoms: N_50  and  N_62
   18  A    between atoms: N_50  and  C_64
                            x       y       z     vdW  Elec       q    Type
                         _______ _______ _______ _____ _____    ______ ____

>  <TORSDO>
F 18

$$$$
