=
 OpenBabel10222418253D

 26 26  0  0  1  0  0  0  0  0999 V2000
  190.4550  177.1720  145.4580 C   0  0  0  0  0  0  0  0  0  0  0  0
  188.1460  177.7890  145.9560 C   0  0  0  0  0  0  0  0  0  0  0  0
  189.1650  177.5060  145.0390 C   0  0  0  0  0  3  0  0  0  0  0  0
  189.7210  177.3710  147.7610 C   0  0  0  0  0  3  0  0  0  0  0  0
  187.4040  177.9150  148.3990 C   0  0  0  0  0  1  0  0  0  0  0  0
  188.4320  177.7080  147.3410 C   0  0  0  0  0  0  0  0  0  0  0  0
  190.7380  177.1070  146.8370 C   0  0  0  0  0  0  0  0  0  0  0  0
  192.0470  176.7720  147.3050 N   0  0  0  0  0  2  0  0  0  0  0  0
  192.4510  175.4850  147.4150 O   0  0  0  0  0  1  0  0  0  0  0  0
  186.8900  178.1240  145.4250 O   0  0  0  0  0  0  0  0  0  0  0  0
  186.2660  177.4720  144.3260 C   0  0  0  0  0  2  0  0  0  0  0  0
  186.0560  178.4220  143.2460 N   0  0  0  0  0  2  0  0  0  0  0  0
  184.6530  178.3440  142.8800 C   0  0  1  0  0  3  0  0  0  0  0  0
  183.8480  179.1360  143.8610 C   0  0  0  0  0  3  0  0  0  0  0  0
  182.5950  178.7970  144.1510 C   0  0  0  0  0  2  0  0  0  0  0  0
  184.4730  178.8860  141.4680 C   0  0  0  0  0  2  0  0  0  0  0  0
  185.6440  179.5130  141.0410 O   0  0  0  0  0  1  0  0  0  0  0  0
  191.4700  176.8770  144.3870 C   0  0  1  0  0  3  0  0  0  0  0  0
  191.3910  175.4900  143.8120 C   0  0  0  0  0  0  0  0  0  0  0  0
  190.3370  175.1140  142.9890 O   0  0  0  0  0  0  0  0  0  0  0  0
  192.2820  174.6490  144.1020 O   0  0  0  0  0  1  0  0  0  0  0  0
  191.7010  178.0330  143.4010 C   0  0  2  0  0  3  0  0  0  0  0  0
  191.2640  179.3900  143.9310 C   0  0  0  0  0  1  0  0  0  0  0  0
  191.8220  177.3790  141.1150 O   0  0  0  0  0  0  0  0  0  0  0  0
  189.7200  177.8770  141.8750 O   0  0  0  0  0  1  0  0  0  0  0  0
  191.0900  177.7530  142.0670 C   0  0  0  0  0  0  0  0  0  0  0  0
  1  7  1  0  0  0  0
  2  6  2  0  0  0  0
  3  1  2  0  0  0  0
  3  2  1  0  0  0  0
  6  4  1  0  0  0  0
  6  5  1  0  0  0  0
  7  8  1  0  0  0  0
  7  4  2  0  0  0  0
  8  9  1  0  0  0  0
 10  2  1  0  0  0  0
 11 10  1  0  0  0  0
 12 11  1  0  0  0  0
 13 16  1  6  0  0  0
 13 12  1  0  0  0  0
 13 14  1  0  0  0  0
 14 15  2  0  0  0  0
 17 16  1  0  0  0  0
 18 19  1  6  0  0  0
 18  1  1  0  0  0  0
 19 21  1  0  0  0  0
 20 19  2  0  0  0  0
 22 23  1  1  0  0  0
 22 18  1  0  0  0  0
 24 26  2  0  0  0  0
 25 26  1  0  0  0  0
 26 22  1  0  0  0  0
M  END
>  <MODEL>
1

>  <REMARK>
 VINA RESULT:      -7.7      0.000      0.000
  Name = 
  11 active torsions:
  status: ('A' for Active; 'I' for Inactive)
    1  A    between atoms: C_1  and  C_21
    2  A    between atoms: C_3  and  O_14
    3  A    between atoms: C_6  and  C_17
    4  A    between atoms: C_6  and  C_21
    5  A    between atoms: C_7  and  CA_24
    6  A    between atoms: C_9  and  C_21
    7  A    between atoms: C_10  and  CA_24
    8  A    between atoms: N_11  and  C_20
    9  A    between atoms: N_11  and  CA_24
   10  A    between atoms: O_14  and  C_20
   11  A    between atoms: N_18  and  C_23
                            x       y       z     vdW  Elec       q    Type
                         _______ _______ _______ _____ _____    ______ ____

>  <TORSDO>
F 11

$$$$
=
 OpenBabel10222418253D

 26 26  0  0  1  0  0  0  0  0999 V2000
  188.0760  177.3990  144.7460 C   0  0  0  0  0  0  0  0  0  0  0  0
  186.0150  178.2930  143.7900 C   0  0  0  0  0  0  0  0  0  0  0  0
  187.3110  177.7860  143.6430 C   0  0  0  0  0  3  0  0  0  0  0  0
  186.2260  178.0010  146.1950 C   0  0  0  0  0  3  0  0  0  0  0  0
  184.0690  178.8450  145.3530 C   0  0  0  0  0  1  0  0  0  0  0  0
  185.4630  178.3910  145.0910 C   0  0  0  0  0  0  0  0  0  0  0  0
  187.5270  177.5110  146.0400 C   0  0  0  0  0  0  0  0  0  0  0  0
  188.2790  177.1290  147.1930 N   0  0  0  0  0  2  0  0  0  0  0  0
  188.5470  178.0070  148.1870 O   0  0  0  0  0  1  0  0  0  0  0  0
  185.3410  178.6610  142.6140 O   0  0  0  0  0  0  0  0  0  0  0  0
  185.9680  179.0790  141.4080 C   0  0  0  0  0  2  0  0  0  0  0  0
  184.9590  179.4860  140.4440 N   0  0  0  0  0  2  0  0  0  0  0  0
  184.6180  178.3090  139.6650 C   0  0  1  0  0  3  0  0  0  0  0  0
  183.1620  178.0130  139.8380 C   0  0  0  0  0  3  0  0  0  0  0  0
  182.7240  176.7600  139.9330 C   0  0  0  0  0  2  0  0  0  0  0  0
  184.9480  178.5650  138.2010 C   0  0  0  0  0  2  0  0  0  0  0  0
  186.3310  178.6340  138.0240 O   0  0  0  0  0  1  0  0  0  0  0  0
  189.4520  176.8570  144.4720 C   0  0  1  0  0  3  0  0  0  0  0  0
  189.6670  176.3690  143.0660 C   0  0  0  0  0  0  0  0  0  0  0  0
  189.3810  177.1790  141.9740 O   0  0  0  0  0  0  0  0  0  0  0  0
  190.0870  175.1980  142.8750 O   0  0  0  0  0  1  0  0  0  0  0  0
  190.5880  177.6670  145.1140 C   0  0  2  0  0  3  0  0  0  0  0  0
  191.3720  178.5180  144.1250 C   0  0  0  0  0  1  0  0  0  0  0  0
  191.7380  177.0960  147.1190 O   0  0  0  0  0  1  0  0  0  0  0  0
  192.0660  175.6590  145.3660 O   0  0  0  0  0  0  0  0  0  0  0  0
  191.5000  176.8010  145.9200 C   0  0  0  0  0  0  0  0  0  0  0  0
  1  7  1  0  0  0  0
  2  6  2  0  0  0  0
  3  2  1  0  0  0  0
  3  1  2  0  0  0  0
  6  5  1  0  0  0  0
  6  4  1  0  0  0  0
  7  4  2  0  0  0  0
  7  8  1  0  0  0  0
  8  9  1  0  0  0  0
 10  2  1  0  0  0  0
 11 10  1  0  0  0  0
 12 11  1  0  0  0  0
 13 16  1  6  0  0  0
 13 14  1  0  0  0  0
 13 12  1  0  0  0  0
 14 15  2  0  0  0  0
 17 16  1  0  0  0  0
 18 19  1  6  0  0  0
 18  1  1  0  0  0  0
 18 22  1  0  0  0  0
 20 19  2  0  0  0  0
 21 19  1  0  0  0  0
 22 23  1  6  0  0  0
 22 26  1  0  0  0  0
 25 26  2  0  0  0  0
 26 24  1  0  0  0  0
M  END
>  <MODEL>
2

>  <REMARK>
 VINA RESULT:      -7.5      2.033      3.530
  Name = 
  11 active torsions:
  status: ('A' for Active; 'I' for Inactive)
    1  A    between atoms: C_1  and  C_21
    2  A    between atoms: C_3  and  O_14
    3  A    between atoms: C_6  and  C_17
    4  A    between atoms: C_6  and  C_21
    5  A    between atoms: C_7  and  CA_24
    6  A    between atoms: C_9  and  C_21
    7  A    between atoms: C_10  and  CA_24
    8  A    between atoms: N_11  and  C_20
    9  A    between atoms: N_11  and  CA_24
   10  A    between atoms: O_14  and  C_20
   11  A    between atoms: N_18  and  C_23
                            x       y       z     vdW  Elec       q    Type
                         _______ _______ _______ _____ _____    ______ ____

>  <TORSDO>
F 11

$$$$
=
 OpenBabel10222418253D

 26 26  0  0  1  0  0  0  0  0999 V2000
  188.0300  177.3770  144.6880 C   0  0  0  0  0  0  0  0  0  0  0  0
  185.9590  178.1620  143.6610 C   0  0  0  0  0  0  0  0  0  0  0  0
  187.2620  177.6620  143.5560 C   0  0  0  0  0  3  0  0  0  0  0  0
  186.1700  178.0710  146.0810 C   0  0  0  0  0  3  0  0  0  0  0  0
  184.0040  178.8130  145.1720 C   0  0  0  0  0  1  0  0  0  0  0  0
  185.4040  178.3580  144.9490 C   0  0  0  0  0  0  0  0  0  0  0  0
  187.4780  177.5880  145.9680 C   0  0  0  0  0  0  0  0  0  0  0  0
  188.2340  177.3110  147.1490 N   0  0  0  0  0  2  0  0  0  0  0  0
  188.5970  178.2960  148.0040 O   0  0  0  0  0  1  0  0  0  0  0  0
  185.2820  178.4230  142.4590 O   0  0  0  0  0  0  0  0  0  0  0  0
  185.8450  179.0770  141.3280 C   0  0  0  0  0  2  0  0  0  0  0  0
  184.7920  179.4310  140.3910 N   0  0  0  0  0  2  0  0  0  0  0  0
  183.8020  178.3710  140.4440 C   0  0  1  0  0  3  0  0  0  0  0  0
  182.4540  178.9720  140.6900 C   0  0  0  0  0  3  0  0  0  0  0  0
  181.7950  178.7380  141.8210 C   0  0  0  0  0  2  0  0  0  0  0  0
  183.8200  177.6010  139.1300 C   0  0  0  0  0  2  0  0  0  0  0  0
  183.7150  178.4840  138.0540 O   0  0  0  0  0  1  0  0  0  0  0  0
  189.4140  176.8330  144.4590 C   0  0  1  0  0  3  0  0  0  0  0  0
  189.6670  176.3220  143.0680 C   0  0  0  0  0  0  0  0  0  0  0  0
  189.3140  177.0720  141.9530 O   0  0  0  0  0  0  0  0  0  0  0  0
  190.1830  175.1850  142.9110 O   0  0  0  0  0  1  0  0  0  0  0  0
  190.5320  177.6560  145.1170 C   0  0  2  0  0  3  0  0  0  0  0  0
  191.3110  178.5270  144.1420 C   0  0  0  0  0  1  0  0  0  0  0  0
  192.0320  175.8250  145.3810 O   0  0  0  0  0  0  0  0  0  0  0  0
  191.6850  177.0790  147.2660 O   0  0  0  0  0  1  0  0  0  0  0  0
  191.4500  176.7980  145.9260 C   0  0  0  0  0  0  0  0  0  0  0  0
  1  7  1  0  0  0  0
  2  6  2  0  0  0  0
  3  2  1  0  0  0  0
  3  1  2  0  0  0  0
  6  5  1  0  0  0  0
  6  4  1  0  0  0  0
  7  4  2  0  0  0  0
  7  8  1  0  0  0  0
  8  9  1  0  0  0  0
 10  2  1  0  0  0  0
 11 10  1  0  0  0  0
 12 13  1  0  0  0  0
 12 11  1  0  0  0  0
 13 16  1  6  0  0  0
 13 14  1  0  0  0  0
 14 15  2  0  0  0  0
 17 16  1  0  0  0  0
 18 19  1  6  0  0  0
 18  1  1  0  0  0  0
 18 22  1  0  0  0  0
 20 19  2  0  0  0  0
 21 19  1  0  0  0  0
 22 23  1  6  0  0  0
 22 26  1  0  0  0  0
 24 26  2  0  0  0  0
 26 25  1  0  0  0  0
M  END
>  <MODEL>
3

>  <REMARK>
 VINA RESULT:      -7.4      1.968      3.408
  Name = 
  11 active torsions:
  status: ('A' for Active; 'I' for Inactive)
    1  A    between atoms: C_1  and  C_21
    2  A    between atoms: C_3  and  O_14
    3  A    between atoms: C_6  and  C_17
    4  A    between atoms: C_6  and  C_21
    5  A    between atoms: C_7  and  CA_24
    6  A    between atoms: C_9  and  C_21
    7  A    between atoms: C_10  and  CA_24
    8  A    between atoms: N_11  and  C_20
    9  A    between atoms: N_11  and  CA_24
   10  A    between atoms: O_14  and  C_20
   11  A    between atoms: N_18  and  C_23
                            x       y       z     vdW  Elec       q    Type
                         _______ _______ _______ _____ _____    ______ ____

>  <TORSDO>
F 11

$$$$
=
 OpenBabel10222418253D

 26 26  0  0  1  0  0  0  0  0999 V2000
  183.9320  178.6220  142.3370 C   0  0  0  0  0  0  0  0  0  0  0  0
  185.7460  178.1780  143.9090 C   0  0  0  0  0  0  0  0  0  0  0  0
  185.2480  178.2370  142.6030 C   0  0  0  0  0  3  0  0  0  0  0  0
  183.5800  178.9320  144.7170 C   0  0  0  0  0  3  0  0  0  0  0  0
  185.3460  178.5890  146.4000 C   0  0  0  0  0  1  0  0  0  0  0  0
  184.8950  178.5440  144.9810 C   0  0  0  0  0  0  0  0  0  0  0  0
  183.0850  178.9700  143.4090 C   0  0  0  0  0  0  0  0  0  0  0  0
  181.7310  179.3660  143.1780 N   0  0  0  0  0  2  0  0  0  0  0  0
  180.6900  178.5970  143.5750 O   0  0  0  0  0  1  0  0  0  0  0  0
  187.0800  177.7680  144.0620 O   0  0  0  0  0  0  0  0  0  0  0  0
  187.7820  176.9170  143.1640 C   0  0  0  0  0  2  0  0  0  0  0  0
  189.0320  176.4870  143.7700 N   0  0  0  0  0  2  0  0  0  0  0  0
  189.5300  177.6040  144.5530 C   0  0  1  0  0  3  0  0  0  0  0  0
  189.7520  177.1520  145.9620 C   0  0  0  0  0  3  0  0  0  0  0  0
  189.0640  177.6830  146.9690 C   0  0  0  0  0  2  0  0  0  0  0  0
  190.8270  178.1090  143.9350 C   0  0  0  0  0  2  0  0  0  0  0  0
  190.8880  179.5010  144.0170 O   0  0  0  0  0  1  0  0  0  0  0  0
  183.5050  178.6600  140.8950 C   0  0  1  0  0  3  0  0  0  0  0  0
  184.5130  179.2640  139.9570 C   0  0  0  0  0  0  0  0  0  0  0  0
  185.8200  178.7940  139.9100 O   0  0  0  0  0  1  0  0  0  0  0  0
  184.1750  180.2270  139.2210 O   0  0  0  0  0  0  0  0  0  0  0  0
  182.7750  177.3950  140.4190 C   0  0  2  0  0  3  0  0  0  0  0  0
  183.3760  176.7710  139.1680 C   0  0  0  0  0  1  0  0  0  0  0  0
  180.5020  176.6850  140.4470 O   0  0  0  0  0  1  0  0  0  0  0  0
  180.8270  178.8890  139.9150 O   0  0  0  0  0  0  0  0  0  0  0  0
  181.3090  177.6300  140.2540 C   0  0  0  0  0  0  0  0  0  0  0  0
  1  3  2  0  0  0  0
  1  7  1  0  0  0  0
  2 10  1  0  0  0  0
  2  6  2  0  0  0  0
  3  2  1  0  0  0  0
  4  6  1  0  0  0  0
  6  5  1  0  0  0  0
  7  4  2  0  0  0  0
  8  7  1  0  0  0  0
  8  9  1  0  0  0  0
 11 12  1  0  0  0  0
 11 10  1  0  0  0  0
 12 13  1  0  0  0  0
 13 16  1  6  0  0  0
 13 14  1  0  0  0  0
 14 15  2  0  0  0  0
 16 17  1  0  0  0  0
 18 19  1  6  0  0  0
 18  1  1  0  0  0  0
 20 19  1  0  0  0  0
 21 19  2  0  0  0  0
 22 23  1  6  0  0  0
 22 18  1  0  0  0  0
 25 26  2  0  0  0  0
 26 22  1  0  0  0  0
 26 24  1  0  0  0  0
M  END
>  <MODEL>
4

>  <REMARK>
 VINA RESULT:      -7.3      2.746      7.760
  Name = 
  11 active torsions:
  status: ('A' for Active; 'I' for Inactive)
    1  A    between atoms: C_1  and  C_21
    2  A    between atoms: C_3  and  O_14
    3  A    between atoms: C_6  and  C_17
    4  A    between atoms: C_6  and  C_21
    5  A    between atoms: C_7  and  CA_24
    6  A    between atoms: C_9  and  C_21
    7  A    between atoms: C_10  and  CA_24
    8  A    between atoms: N_11  and  C_20
    9  A    between atoms: N_11  and  CA_24
   10  A    between atoms: O_14  and  C_20
   11  A    between atoms: N_18  and  C_23
                            x       y       z     vdW  Elec       q    Type
                         _______ _______ _______ _____ _____    ______ ____

>  <TORSDO>
F 11

$$$$
=
 OpenBabel10222418253D

 26 26  0  0  1  0  0  0  0  0999 V2000
  187.5490  177.6430  143.5120 C   0  0  0  0  0  0  0  0  0  0  0  0
  186.1130  178.6340  141.8040 C   0  0  0  0  0  0  0  0  0  0  0  0
  187.3520  178.1340  142.2180 C   0  0  0  0  0  3  0  0  0  0  0  0
  185.2240  178.1240  144.0090 C   0  0  0  0  0  3  0  0  0  0  0  0
  183.6520  179.0540  142.3550 C   0  0  0  0  0  1  0  0  0  0  0  0
  185.0290  178.6170  142.7170 C   0  0  0  0  0  0  0  0  0  0  0  0
  186.4710  177.6420  144.4210 C   0  0  0  0  0  0  0  0  0  0  0  0
  186.6340  177.1520  145.7530 N   0  0  0  0  0  2  0  0  0  0  0  0
  186.6460  177.9870  146.8190 O   0  0  0  0  0  1  0  0  0  0  0  0
  186.0290  179.1110  140.4860 O   0  0  0  0  0  0  0  0  0  0  0  0
  185.7360  178.3150  139.3450 C   0  0  0  0  0  2  0  0  0  0  0  0
  186.7070  178.5810  138.2970 N   0  0  0  0  0  2  0  0  0  0  0  0
  187.8710  177.7600  138.5790 C   0  0  1  0  0  3  0  0  0  0  0  0
  187.8840  176.5930  137.6420 C   0  0  0  0  0  3  0  0  0  0  0  0
  187.4330  176.7100  136.3960 C   0  0  0  0  0  2  0  0  0  0  0  0
  189.1290  178.6020  138.4140 C   0  0  0  0  0  2  0  0  0  0  0  0
  188.8820  179.6750  137.5570 O   0  0  0  0  0  1  0  0  0  0  0  0
  188.9190  177.1200  143.8470 C   0  0  1  0  0  3  0  0  0  0  0  0
  189.6170  176.4180  142.7160 C   0  0  0  0  0  0  0  0  0  0  0  0
  190.2660  175.2050  142.9150 O   0  0  0  0  0  1  0  0  0  0  0  0
  189.6370  176.9500  141.5750 O   0  0  0  0  0  0  0  0  0  0  0  0
  189.7630  178.0690  144.7110 C   0  0  2  0  0  3  0  0  0  0  0  0
  190.7340  178.9270  143.9130 C   0  0  0  0  0  1  0  0  0  0  0  0
  189.7920  176.8140  146.7340 O   0  0  0  0  0  1  0  0  0  0  0  0
  191.8490  177.2190  145.8100 O   0  0  0  0  0  0  0  0  0  0  0  0
  190.4640  177.3410  145.8110 C   0  0  0  0  0  0  0  0  0  0  0  0
  1 18  1  0  0  0  0
  1  7  1  0  0  0  0
  2  3  1  0  0  0  0
  2  6  2  0  0  0  0
  3  1  2  0  0  0  0
  4  7  2  0  0  0  0
  5  6  1  0  0  0  0
  6  4  1  0  0  0  0
  7  8  1  0  0  0  0
  8  9  1  0  0  0  0
 10  2  1  0  0  0  0
 11 10  1  0  0  0  0
 12 13  1  0  0  0  0
 12 11  1  0  0  0  0
 13 14  1  6  0  0  0
 15 14  2  0  0  0  0
 16 13  1  0  0  0  0
 17 16  1  0  0  0  0
 18 19  1  6  0  0  0
 18 22  1  0  0  0  0
 19 20  1  0  0  0  0
 21 19  2  0  0  0  0
 22 23  1  6  0  0  0
 22 26  1  0  0  0  0
 25 26  2  0  0  0  0
 26 24  1  0  0  0  0
M  END
>  <MODEL>
5

>  <REMARK>
 VINA RESULT:      -7.2      2.860      5.114
  Name = 
  11 active torsions:
  status: ('A' for Active; 'I' for Inactive)
    1  A    between atoms: C_1  and  C_21
    2  A    between atoms: C_3  and  O_14
    3  A    between atoms: C_6  and  C_17
    4  A    between atoms: C_6  and  C_21
    5  A    between atoms: C_7  and  CA_24
    6  A    between atoms: C_9  and  C_21
    7  A    between atoms: C_10  and  CA_24
    8  A    between atoms: N_11  and  C_20
    9  A    between atoms: N_11  and  CA_24
   10  A    between atoms: O_14  and  C_20
   11  A    between atoms: N_18  and  C_23
                            x       y       z     vdW  Elec       q    Type
                         _______ _______ _______ _____ _____    ______ ____

>  <TORSDO>
F 11

$$$$
=
 OpenBabel10222418253D

 26 26  0  0  1  0  0  0  0  0999 V2000
  190.3860  177.1370  140.1950 C   0  0  0  0  0  0  0  0  0  0  0  0
  189.5850  176.8880  142.4880 C   0  0  0  0  0  0  0  0  0  0  0  0
  189.3580  176.8860  141.1070 C   0  0  0  0  0  3  0  0  0  0  0  0
  191.9270  177.3750  142.0530 C   0  0  0  0  0  3  0  0  0  0  0  0
  191.2630  177.0770  144.4070 C   0  0  0  0  0  1  0  0  0  0  0  0
  190.8970  177.1270  142.9640 C   0  0  0  0  0  0  0  0  0  0  0  0
  191.6880  177.3880  140.6740 C   0  0  0  0  0  0  0  0  0  0  0  0
  192.7650  177.6520  139.7730 N   0  0  0  0  0  2  0  0  0  0  0  0
  193.9650  177.0400  139.9050 O   0  0  0  0  0  1  0  0  0  0  0  0
  188.4770  176.6350  143.3130 O   0  0  0  0  0  0  0  0  0  0  0  0
  187.7600  177.6210  144.0450 C   0  0  0  0  0  2  0  0  0  0  0  0
  186.6240  177.0080  144.7130 N   0  0  0  0  0  2  0  0  0  0  0  0
  186.5380  177.6030  146.0350 C   0  0  1  0  0  3  0  0  0  0  0  0
  187.9200  177.7810  146.5810 C   0  0  0  0  0  3  0  0  0  0  0  0
  188.2610  177.2710  147.7620 C   0  0  0  0  0  2  0  0  0  0  0  0
  185.8180  178.9410  145.9360 C   0  0  0  0  0  2  0  0  0  0  0  0
  185.5860  179.4580  147.2110 O   0  0  0  0  0  1  0  0  0  0  0  0
  190.0320  177.0990  138.7330 C   0  0  1  0  0  3  0  0  0  0  0  0
  190.8250  176.1140  137.9200 C   0  0  0  0  0  0  0  0  0  0  0  0
  191.0420  174.8190  138.3740 O   0  0  0  0  0  1  0  0  0  0  0  0
  191.3220  176.4770  136.8220 O   0  0  0  0  0  0  0  0  0  0  0  0
  188.5260  177.1930  138.4460 C   0  0  2  0  0  3  0  0  0  0  0  0
  187.9910  176.0570  137.5870 C   0  0  0  0  0  1  0  0  0  0  0  0
  186.9570  178.7480  137.5570 O   0  0  0  0  0  0  0  0  0  0  0  0
  189.1080  179.5200  137.7200 O   0  0  0  0  0  1  0  0  0  0  0  0
  188.1520  178.5230  137.8770 C   0  0  0  0  0  0  0  0  0  0  0  0
  1  7  2  0  0  0  0
  1  3  1  0  0  0  0
  2  6  1  0  0  0  0
  2 10  1  0  0  0  0
  3  2  2  0  0  0  0
  4  6  2  0  0  0  0
  6  5  1  0  0  0  0
  7  4  1  0  0  0  0
  8  9  1  0  0  0  0
  8  7  1  0  0  0  0
 10 11  1  0  0  0  0
 11 12  1  0  0  0  0
 12 13  1  0  0  0  0
 13 16  1  6  0  0  0
 13 14  1  0  0  0  0
 14 15  2  0  0  0  0
 16 17  1  0  0  0  0
 18 19  1  1  0  0  0
 18  1  1  0  0  0  0
 19 20  1  0  0  0  0
 21 19  2  0  0  0  0
 22 23  1  6  0  0  0
 22 18  1  0  0  0  0
 24 26  2  0  0  0  0
 25 26  1  0  0  0  0
 26 22  1  0  0  0  0
M  END
>  <MODEL>
6

>  <REMARK>
 VINA RESULT:      -7.0      3.330      5.567
  Name = 
  11 active torsions:
  status: ('A' for Active; 'I' for Inactive)
    1  A    between atoms: C_1  and  C_21
    2  A    between atoms: C_3  and  O_14
    3  A    between atoms: C_6  and  C_17
    4  A    between atoms: C_6  and  C_21
    5  A    between atoms: C_7  and  CA_24
    6  A    between atoms: C_9  and  C_21
    7  A    between atoms: C_10  and  CA_24
    8  A    between atoms: N_11  and  C_20
    9  A    between atoms: N_11  and  CA_24
   10  A    between atoms: O_14  and  C_20
   11  A    between atoms: N_18  and  C_23
                            x       y       z     vdW  Elec       q    Type
                         _______ _______ _______ _____ _____    ______ ____

>  <TORSDO>
F 11

$$$$
=
 OpenBabel10222418253D

 26 26  0  0  1  0  0  0  0  0999 V2000
  188.3170  177.4960  143.1690 C   0  0  0  0  0  0  0  0  0  0  0  0
  187.5890  178.4260  141.0320 C   0  0  0  0  0  0  0  0  0  0  0  0
  188.5870  177.8990  141.8590 C   0  0  0  0  0  3  0  0  0  0  0  0
  185.9960  178.1210  142.8430 C   0  0  0  0  0  3  0  0  0  0  0  0
  185.1190  179.0020  140.7150 C   0  0  0  0  0  1  0  0  0  0  0  0
  186.2690  178.5270  141.5340 C   0  0  0  0  0  0  0  0  0  0  0  0
  187.0030  177.6120  143.6690 C   0  0  0  0  0  0  0  0  0  0  0  0
  186.6870  177.2140  145.0050 N   0  0  0  0  0  2  0  0  0  0  0  0
  186.6110  178.1130  146.0130 O   0  0  0  0  0  1  0  0  0  0  0  0
  187.9750  178.8090  139.7370 O   0  0  0  0  0  0  0  0  0  0  0  0
  187.9980  177.9510  138.6030 C   0  0  0  0  0  2  0  0  0  0  0  0
  189.3310  177.9370  138.0240 N   0  0  0  0  0  2  0  0  0  0  0  0
  189.5480  176.6040  137.4910 C   0  0  1  0  0  3  0  0  0  0  0  0
  189.7900  176.7010  136.0170 C   0  0  0  0  0  3  0  0  0  0  0  0
  189.0660  177.5160  135.2560 C   0  0  0  0  0  2  0  0  0  0  0  0
  190.7410  175.9710  138.1960 C   0  0  0  0  0  2  0  0  0  0  0  0
  190.5540  176.0030  139.5780 O   0  0  0  0  0  1  0  0  0  0  0  0
  189.4620  176.9330  143.9660 C   0  0  1  0  0  3  0  0  0  0  0  0
  190.4540  176.1380  143.1640 C   0  0  0  0  0  0  0  0  0  0  0  0
  191.6550  176.7000  142.7470 O   0  0  0  0  0  0  0  0  0  0  0  0
  190.1810  174.9520  142.8440 O   0  0  0  0  0  1  0  0  0  0  0  0
  190.0250  177.8940  145.0240 C   0  0  2  0  0  3  0  0  0  0  0  0
  190.9490  178.9610  144.4570 C   0  0  0  0  0  1  0  0  0  0  0  0
  191.9250  177.0050  146.1510 O   0  0  0  0  0  0  0  0  0  0  0  0
  189.9210  176.6630  147.2050 O   0  0  0  0  0  1  0  0  0  0  0  0
  190.6770  177.1580  146.1490 C   0  0  0  0  0  0  0  0  0  0  0  0
  1  7  1  0  0  0  0
  1 18  1  0  0  0  0
  2  6  2  0  0  0  0
  2  3  1  0  0  0  0
  3  1  2  0  0  0  0
  4  7  2  0  0  0  0
  5  6  1  0  0  0  0
  6  4  1  0  0  0  0
  7  8  1  0  0  0  0
  8  9  1  0  0  0  0
 10  2  1  0  0  0  0
 11 10  1  0  0  0  0
 12 11  1  0  0  0  0
 13 14  1  6  0  0  0
 13 12  1  0  0  0  0
 13 16  1  0  0  0  0
 15 14  2  0  0  0  0
 16 17  1  0  0  0  0
 18 19  1  6  0  0  0
 18 22  1  0  0  0  0
 20 19  2  0  0  0  0
 21 19  1  0  0  0  0
 22 23  1  6  0  0  0
 22 26  1  0  0  0  0
 26 24  2  0  0  0  0
 26 25  1  0  0  0  0
M  END
>  <MODEL>
7

>  <REMARK>
 VINA RESULT:      -7.0      3.161      5.790
  Name = 
  11 active torsions:
  status: ('A' for Active; 'I' for Inactive)
    1  A    between atoms: C_1  and  C_21
    2  A    between atoms: C_3  and  O_14
    3  A    between atoms: C_6  and  C_17
    4  A    between atoms: C_6  and  C_21
    5  A    between atoms: C_7  and  CA_24
    6  A    between atoms: C_9  and  C_21
    7  A    between atoms: C_10  and  CA_24
    8  A    between atoms: N_11  and  C_20
    9  A    between atoms: N_11  and  CA_24
   10  A    between atoms: O_14  and  C_20
   11  A    between atoms: N_18  and  C_23
                            x       y       z     vdW  Elec       q    Type
                         _______ _______ _______ _____ _____    ______ ____

>  <TORSDO>
F 11

$$$$
=
 OpenBabel10222418253D

 26 26  0  0  1  0  0  0  0  0999 V2000
  189.3110  177.8450  145.1940 C   0  0  0  0  0  0  0  0  0  0  0  0
  187.5450  178.2500  146.8310 C   0  0  0  0  0  0  0  0  0  0  0  0
  188.0390  178.3190  145.5240 C   0  0  0  0  0  3  0  0  0  0  0  0
  189.6230  177.1830  147.5070 C   0  0  0  0  0  3  0  0  0  0  0  0
  187.8940  177.4680  149.2400 C   0  0  0  0  0  1  0  0  0  0  0  0
  188.3510  177.6600  147.8350 C   0  0  0  0  0  0  0  0  0  0  0  0
  190.1160  177.2730  146.2010 C   0  0  0  0  0  0  0  0  0  0  0  0
  191.4240  176.7790  145.9040 N   0  0  0  0  0  2  0  0  0  0  0  0
  192.2890  176.4320  146.8860 O   0  0  0  0  0  1  0  0  0  0  0  0
  186.2580  178.7660  147.0510 O   0  0  0  0  0  0  0  0  0  0  0  0
  185.0610  178.2500  146.4810 C   0  0  0  0  0  2  0  0  0  0  0  0
  184.4370  179.2640  145.6480 N   0  0  0  0  0  2  0  0  0  0  0  0
  183.8950  178.5820  144.4850 C   0  0  1  0  0  3  0  0  0  0  0  0
  182.7390  179.3680  143.9530 C   0  0  0  0  0  3  0  0  0  0  0  0
  181.6250  178.7610  143.5500 C   0  0  0  0  0  2  0  0  0  0  0  0
  184.9860  178.4440  143.4320 C   0  0  0  0  0  2  0  0  0  0  0  0
  184.9090  179.4960  142.5190 O   0  0  0  0  0  1  0  0  0  0  0  0
  189.7370  177.9600  143.7560 C   0  0  1  0  0  3  0  0  0  0  0  0
  191.1590  178.4020  143.5550 C   0  0  0  0  0  0  0  0  0  0  0  0
  192.0610  177.6180  142.8450 O   0  0  0  0  0  0  0  0  0  0  0  0
  191.5460  179.4880  144.0600 O   0  0  0  0  0  1  0  0  0  0  0  0
  189.2200  176.8290  142.8540 C   0  0  2  0  0  3  0  0  0  0  0  0
  190.1130  175.5970  142.8390 C   0  0  0  0  0  1  0  0  0  0  0  0
  189.7440  177.0320  140.5400 O   0  0  0  0  0  0  0  0  0  0  0  0
  187.7920  178.0400  141.1880 O   0  0  0  0  0  1  0  0  0  0  0  0
  188.9410  177.3100  141.4670 C   0  0  0  0  0  0  0  0  0  0  0  0
  1  3  2  0  0  0  0
  1  7  1  0  0  0  0
  2 10  1  0  0  0  0
  2  6  2  0  0  0  0
  3  2  1  0  0  0  0
  4  6  1  0  0  0  0
  6  5  1  0  0  0  0
  7  4  2  0  0  0  0
  8  7  1  0  0  0  0
  8  9  1  0  0  0  0
 11 10  1  0  0  0  0
 12 11  1  0  0  0  0
 13 16  1  6  0  0  0
 13 12  1  0  0  0  0
 14 13  1  0  0  0  0
 15 14  2  0  0  0  0
 17 16  1  0  0  0  0
 18 19  1  1  0  0  0
 18  1  1  0  0  0  0
 19 21  1  0  0  0  0
 20 19  2  0  0  0  0
 22 23  1  6  0  0  0
 22 18  1  0  0  0  0
 24 26  2  0  0  0  0
 25 26  1  0  0  0  0
 26 22  1  0  0  0  0
M  END
>  <MODEL>
8

>  <REMARK>
 VINA RESULT:      -6.9      1.622      2.225
  Name = 
  11 active torsions:
  status: ('A' for Active; 'I' for Inactive)
    1  A    between atoms: C_1  and  C_21
    2  A    between atoms: C_3  and  O_14
    3  A    between atoms: C_6  and  C_17
    4  A    between atoms: C_6  and  C_21
    5  A    between atoms: C_7  and  CA_24
    6  A    between atoms: C_9  and  C_21
    7  A    between atoms: C_10  and  CA_24
    8  A    between atoms: N_11  and  C_20
    9  A    between atoms: N_11  and  CA_24
   10  A    between atoms: O_14  and  C_20
   11  A    between atoms: N_18  and  C_23
                            x       y       z     vdW  Elec       q    Type
                         _______ _______ _______ _____ _____    ______ ____

>  <TORSDO>
F 11

$$$$
=
 OpenBabel10222418253D

 26 26  0  0  1  0  0  0  0  0999 V2000
  183.2730  178.5490  141.8980 C   0  0  0  0  0  0  0  0  0  0  0  0
  185.2090  178.3530  143.3720 C   0  0  0  0  0  0  0  0  0  0  0  0
  184.6290  178.2810  142.1010 C   0  0  0  0  0  3  0  0  0  0  0  0
  183.0440  179.0010  144.2710 C   0  0  0  0  0  3  0  0  0  0  0  0
  184.9320  178.9090  145.8520 C   0  0  0  0  0  1  0  0  0  0  0  0
  184.4000  178.7300  144.4720 C   0  0  0  0  0  0  0  0  0  0  0  0
  182.4680  178.9100  142.9990 C   0  0  0  0  0  0  0  0  0  0  0  0
  181.0760  179.1880  142.8320 N   0  0  0  0  0  2  0  0  0  0  0  0
  180.6030  180.4560  142.8310 O   0  0  0  0  0  1  0  0  0  0  0  0
  186.5780  178.0530  143.4630 O   0  0  0  0  0  0  0  0  0  0  0  0
  187.1200  176.8680  144.0310 C   0  0  0  0  0  2  0  0  0  0  0  0
  188.2160  176.3850  143.2070 N   0  0  0  0  0  2  0  0  0  0  0  0
  189.2250  177.4290  143.1900 C   0  0  1  0  0  3  0  0  0  0  0  0
  190.2660  177.1200  144.2190 C   0  0  0  0  0  3  0  0  0  0  0  0
  191.3440  176.4040  143.9100 C   0  0  0  0  0  2  0  0  0  0  0  0
  189.8430  177.5050  141.8000 C   0  0  0  0  0  2  0  0  0  0  0  0
  188.8510  177.3960  140.8260 O   0  0  0  0  0  1  0  0  0  0  0  0
  182.7560  178.4530  140.4890 C   0  0  1  0  0  3  0  0  0  0  0  0
  183.2130  179.5570  139.5760 C   0  0  0  0  0  0  0  0  0  0  0  0
  184.5570  179.8970  139.4780 O   0  0  0  0  0  1  0  0  0  0  0  0
  182.3620  180.2000  138.9090 O   0  0  0  0  0  0  0  0  0  0  0  0
  182.7480  177.0280  139.9160 C   0  0  2  0  0  3  0  0  0  0  0  0
  183.4660  176.8970  138.5800 C   0  0  0  0  0  1  0  0  0  0  0  0
  181.1840  175.3230  139.3550 O   0  0  0  0  0  0  0  0  0  0  0  0
  180.2820  177.1900  140.3280 O   0  0  0  0  0  1  0  0  0  0  0  0
  181.3650  176.4680  139.8420 C   0  0  0  0  0  0  0  0  0  0  0  0
  1  3  2  0  0  0  0
  1  7  1  0  0  0  0
  2 10  1  0  0  0  0
  2  6  2  0  0  0  0
  3  2  1  0  0  0  0
  4  6  1  0  0  0  0
  6  5  1  0  0  0  0
  7  4  2  0  0  0  0
  8  7  1  0  0  0  0
  9  8  1  0  0  0  0
 10 11  1  0  0  0  0
 12 11  1  0  0  0  0
 13 16  1  6  0  0  0
 13 12  1  0  0  0  0
 13 14  1  0  0  0  0
 15 14  2  0  0  0  0
 17 16  1  0  0  0  0
 18 19  1  6  0  0  0
 18  1  1  0  0  0  0
 20 19  1  0  0  0  0
 21 19  2  0  0  0  0
 22 23  1  6  0  0  0
 22 18  1  0  0  0  0
 24 26  2  0  0  0  0
 26 22  1  0  0  0  0
 26 25  1  0  0  0  0
M  END
>  <MODEL>
9

>  <REMARK>
 VINA RESULT:      -6.7      2.996      8.228
  Name = 
  11 active torsions:
  status: ('A' for Active; 'I' for Inactive)
    1  A    between atoms: C_1  and  C_21
    2  A    between atoms: C_3  and  O_14
    3  A    between atoms: C_6  and  C_17
    4  A    between atoms: C_6  and  C_21
    5  A    between atoms: C_7  and  CA_24
    6  A    between atoms: C_9  and  C_21
    7  A    between atoms: C_10  and  CA_24
    8  A    between atoms: N_11  and  C_20
    9  A    between atoms: N_11  and  CA_24
   10  A    between atoms: O_14  and  C_20
   11  A    between atoms: N_18  and  C_23
                            x       y       z     vdW  Elec       q    Type
                         _______ _______ _______ _____ _____    ______ ____

>  <TORSDO>
F 11

$$$$
