=
 OpenBabel10222417273D

 28 29  0  0  1  0  0  0  0  0999 V2000
  190.0940  176.5450  142.6880 C   0  0  0  0  0  0  0  0  0  0  0  0
  191.0780  176.3340  144.9340 C   0  0  0  0  0  2  0  0  0  0  0  0
  187.6880  177.9110  145.0140 N   0  0  0  0  0  0  0  0  0  0  0  0
  188.7450  176.4410  143.3400 C   0  0  0  0  0  2  0  0  0  0  0  0
  189.9610  177.2120  145.5130 C   0  0  1  0  0  3  0  0  0  0  0  0
  191.1940  176.5050  143.4490 C   0  0  0  0  0  3  0  0  0  0  0  0
  188.7230  177.2110  144.6390 C   0  0  0  0  0  0  0  0  0  0  0  0
  185.0130  178.3520  142.6430 C   0  0  0  0  0  0  0  0  0  0  0  0
  185.2310  178.1110  144.9340 C   0  0  0  0  0  3  0  0  0  0  0  0
  186.3030  178.2180  142.9120 C   0  0  0  0  0  3  0  0  0  0  0  0
  184.1820  178.3020  143.8900 C   0  0  1  0  0  3  0  0  0  0  0  0
  186.4230  178.0700  144.3500 C   0  0  0  0  0  0  0  0  0  0  0  0
  183.4860  179.6320  144.1170 C   0  0  0  0  0  1  0  0  0  0  0  0
  183.5270  177.7510  140.9000 O   0  0  0  0  0  0  0  0  0  0  0  0
  184.4730  178.4890  141.2810 C   0  0  0  0  0  0  0  0  0  0  0  0
  185.0130  179.4550  140.3830 N   0  0  0  0  0  1  0  0  0  0  0  0
  188.8690  178.6220  140.9900 O   0  0  0  0  0  0  0  0  0  0  0  0
  190.1600  176.6790  141.2610 N   0  0  0  0  0  2  0  0  0  0  0  0
  189.5450  177.6980  140.4620 C   0  0  0  0  0  0  0  0  0  0  0  0
  189.7270  177.6600  138.9780 C   0  0  1  0  0  3  0  0  0  0  0  0
  189.8810  176.2830  138.5380 N   0  0  0  0  0  1  0  0  0  0  0  0
  188.0160  177.4390  137.3190 O   0  0  0  0  0  1  0  0  0  0  0  0
  188.5500  178.3170  138.2630 C   0  0  0  0  0  3  0  0  0  0  0  0
  188.9710  179.4800  137.6160 O   0  0  0  0  0  1  0  0  0  0  0  0
  189.6450  176.7240  146.9200 C   0  0  0  0  0  2  0  0  0  0  0  0
  190.2220  177.5760  147.8640 O   0  0  0  0  0  0  0  0  0  0  0  0
  187.9520  177.4570  148.5590 C   0  0  0  0  0  1  0  0  0  0  0  0
  189.1590  178.3460  148.3380 C   0  0  0  0  0  2  0  0  0  0  0  0
  1  4  1  0  0  0  0
  1  6  2  0  0  0  0
  2  5  1  0  0  0  0
  4  7  1  0  0  0  0
  5 25  1  1  0  0  0
  6  2  1  0  0  0  0
  7  3  2  0  0  0  0
  7  5  1  0  0  0  0
  8 10  2  0  0  0  0
  8 11  1  0  0  0  0
 10 12  1  0  0  0  0
 11 13  1  1  0  0  0
 11  9  1  0  0  0  0
 12  9  2  0  0  0  0
 12  3  1  0  0  0  0
 14 15  2  0  0  0  0
 15  8  1  0  0  0  0
 16 15  1  0  0  0  0
 18  1  1  0  0  0  0
 19 17  2  0  0  0  0
 19 18  1  0  0  0  0
 20 21  1  6  0  0  0
 20 19  1  0  0  0  0
 22 23  1  0  0  0  0
 23 20  1  0  0  0  0
 24 23  1  0  0  0  0
 25 26  1  0  0  0  0
 26 28  1  0  0  0  0
 28 27  1  0  0  0  0
M  END
>  <MODEL>
1

>  <REMARK>
 VINA RESULT:      -8.5      0.000      0.000
  Name = 
  8 active torsions:
  status: ('A' for Active; 'I' for Inactive)
    1  A    between atoms: C_1  and  C_15
    2  A    between atoms: O_2  and  C_10
    3  A    between atoms: O_2  and  C_22
    4  A    between atoms: CA_3  and  C_16
    5  A    between atoms: CA_3  and  C_27
    6  A    between atoms: C_5  and  N_26
    7  A    between atoms: C_10  and  C_19
    8  A    between atoms: N_12  and  C_23
                            x       y       z     vdW  Elec       q    Type
                         _______ _______ _______ _____ _____    ______ ____

>  <TORSDO>
F 8

$$$$
=
 OpenBabel10222417273D

 28 29  0  0  1  0  0  0  0  0999 V2000
  190.2510  176.3520  142.7020 C   0  0  0  0  0  0  0  0  0  0  0  0
  191.3480  176.6120  144.8900 C   0  0  0  0  0  2  0  0  0  0  0  0
  187.9650  178.2030  144.8040 N   0  0  0  0  0  0  0  0  0  0  0  0
  188.9370  176.4010  143.4280 C   0  0  0  0  0  2  0  0  0  0  0  0
  190.2610  177.6030  145.3260 C   0  0  1  0  0  3  0  0  0  0  0  0
  191.3880  176.4640  143.3980 C   0  0  0  0  0  3  0  0  0  0  0  0
  188.9800  177.4290  144.5340 C   0  0  0  0  0  0  0  0  0  0  0  0
  185.1750  178.3790  142.5330 C   0  0  0  0  0  0  0  0  0  0  0  0
  185.5000  178.1280  144.8100 C   0  0  0  0  0  3  0  0  0  0  0  0
  186.4810  178.3850  142.7560 C   0  0  0  0  0  3  0  0  0  0  0  0
  184.4000  178.2170  143.8060 C   0  0  1  0  0  3  0  0  0  0  0  0
  186.6670  178.2300  144.1870 C   0  0  0  0  0  0  0  0  0  0  0  0
  183.5690  179.4580  144.0820 C   0  0  0  0  0  1  0  0  0  0  0  0
  183.6150  177.7270  140.8760 O   0  0  0  0  0  0  0  0  0  0  0  0
  184.5760  178.4760  141.1930 C   0  0  0  0  0  0  0  0  0  0  0  0
  185.0740  179.4150  140.2440 N   0  0  0  0  0  1  0  0  0  0  0  0
  189.2290  178.2010  140.6450 O   0  0  0  0  0  0  0  0  0  0  0  0
  190.2430  176.1800  141.2780 N   0  0  0  0  0  2  0  0  0  0  0  0
  189.7300  177.0970  140.3020 C   0  0  0  0  0  0  0  0  0  0  0  0
  189.8090  176.7290  138.8550 C   0  0  1  0  0  3  0  0  0  0  0  0
  189.6570  177.9220  138.0380 N   0  0  0  0  0  1  0  0  0  0  0  0
  191.7830  176.7030  137.5000 O   0  0  0  0  0  1  0  0  0  0  0  0
  191.1280  176.0330  138.5350 C   0  0  0  0  0  3  0  0  0  0  0  0
  190.8910  174.7130  138.1460 O   0  0  0  0  0  1  0  0  0  0  0  0
  190.0190  177.4280  146.8170 C   0  0  0  0  0  2  0  0  0  0  0  0
  189.0570  176.4400  147.0350 O   0  0  0  0  0  0  0  0  0  0  0  0
  188.8140  178.2810  148.5180 C   0  0  0  0  0  1  0  0  0  0  0  0
  188.2830  176.9290  148.0880 C   0  0  0  0  0  2  0  0  0  0  0  0
  1  6  2  0  0  0  0
  1  4  1  0  0  0  0
  2  5  1  0  0  0  0
  4  7  1  0  0  0  0
  5 25  1  1  0  0  0
  6  2  1  0  0  0  0
  7  3  2  0  0  0  0
  7  5  1  0  0  0  0
  8 10  2  0  0  0  0
  8 11  1  0  0  0  0
 10 12  1  0  0  0  0
 11 13  1  1  0  0  0
 11  9  1  0  0  0  0
 12  3  1  0  0  0  0
 12  9  2  0  0  0  0
 14 15  2  0  0  0  0
 15  8  1  0  0  0  0
 16 15  1  0  0  0  0
 18  1  1  0  0  0  0
 19 17  2  0  0  0  0
 19 18  1  0  0  0  0
 20 21  1  6  0  0  0
 20 19  1  0  0  0  0
 22 23  1  0  0  0  0
 23 20  1  0  0  0  0
 24 23  1  0  0  0  0
 25 26  1  0  0  0  0
 26 28  1  0  0  0  0
 28 27  1  0  0  0  0
M  END
>  <MODEL>
2

>  <REMARK>
 VINA RESULT:      -8.3      1.296      1.558
  Name = 
  8 active torsions:
  status: ('A' for Active; 'I' for Inactive)
    1  A    between atoms: C_1  and  C_15
    2  A    between atoms: O_2  and  C_10
    3  A    between atoms: O_2  and  C_22
    4  A    between atoms: CA_3  and  C_16
    5  A    between atoms: CA_3  and  C_27
    6  A    between atoms: C_5  and  N_26
    7  A    between atoms: C_10  and  C_19
    8  A    between atoms: N_12  and  C_23
                            x       y       z     vdW  Elec       q    Type
                         _______ _______ _______ _____ _____    ______ ____

>  <TORSDO>
F 8

$$$$
=
 OpenBabel10222417273D

 28 29  0  0  1  0  0  0  0  0999 V2000
  190.2210  176.5140  142.1020 C   0  0  0  0  0  0  0  0  0  0  0  0
  191.4730  176.4180  144.2190 C   0  0  0  0  0  2  0  0  0  0  0  0
  188.1010  177.9800  144.6370 N   0  0  0  0  0  0  0  0  0  0  0  0
  188.9630  176.4350  142.9180 C   0  0  0  0  0  2  0  0  0  0  0  0
  190.4260  177.3170  144.8880 C   0  0  1  0  0  3  0  0  0  0  0  0
  191.4060  176.5160  142.7240 C   0  0  0  0  0  3  0  0  0  0  0  0
  189.0910  177.2670  144.1720 C   0  0  0  0  0  0  0  0  0  0  0  0
  185.1570  178.3670  142.5980 C   0  0  0  0  0  0  0  0  0  0  0  0
  185.6450  178.0680  144.8400 C   0  0  0  0  0  3  0  0  0  0  0  0
  186.4740  178.2850  142.7160 C   0  0  0  0  0  3  0  0  0  0  0  0
  184.4770  178.2420  143.9290 C   0  0  1  0  0  3  0  0  0  0  0  0
  186.7630  178.1000  144.1260 C   0  0  0  0  0  0  0  0  0  0  0  0
  183.7560  179.5320  144.2790 C   0  0  0  0  0  1  0  0  0  0  0  0
  183.4030  177.8760  141.0860 O   0  0  0  0  0  0  0  0  0  0  0  0
  184.4600  178.5200  141.3120 C   0  0  0  0  0  0  0  0  0  0  0  0
  184.9730  179.3970  140.3120 N   0  0  0  0  0  1  0  0  0  0  0  0
  188.9790  178.6240  140.4590 O   0  0  0  0  0  0  0  0  0  0  0  0
  190.1120  176.5780  140.6730 N   0  0  0  0  0  2  0  0  0  0  0  0
  189.4930  177.6170  139.9030 C   0  0  0  0  0  0  0  0  0  0  0  0
  189.4750  177.4970  138.4130 C   0  0  1  0  0  3  0  0  0  0  0  0
  189.3460  176.0990  138.0340 N   0  0  0  0  0  1  0  0  0  0  0  0
  187.7250  177.5960  136.7820 O   0  0  0  0  0  1  0  0  0  0  0  0
  188.3380  178.3160  137.8080 C   0  0  0  0  0  3  0  0  0  0  0  0
  188.8330  179.5150  137.2920 O   0  0  0  0  0  1  0  0  0  0  0  0
  190.2890  176.8970  146.3440 C   0  0  0  0  0  2  0  0  0  0  0  0
  191.5180  177.0140  146.9960 O   0  0  0  0  0  0  0  0  0  0  0  0
  192.9260  175.7900  148.4670 C   0  0  0  0  0  1  0  0  0  0  0  0
  191.7900  175.7290  147.4680 C   0  0  0  0  0  2  0  0  0  0  0  0
  1  6  2  0  0  0  0
  1  4  1  0  0  0  0
  2  5  1  0  0  0  0
  4  7  1  0  0  0  0
  5 25  1  1  0  0  0
  6  2  1  0  0  0  0
  7  3  2  0  0  0  0
  7  5  1  0  0  0  0
  8 10  2  0  0  0  0
  8 11  1  0  0  0  0
 10 12  1  0  0  0  0
 11 13  1  1  0  0  0
 11  9  1  0  0  0  0
 12  3  1  0  0  0  0
 12  9  2  0  0  0  0
 14 15  2  0  0  0  0
 15  8  1  0  0  0  0
 16 15  1  0  0  0  0
 18  1  1  0  0  0  0
 19 17  2  0  0  0  0
 19 18  1  0  0  0  0
 20 21  1  1  0  0  0
 20 19  1  0  0  0  0
 22 23  1  0  0  0  0
 23 20  1  0  0  0  0
 24 23  1  0  0  0  0
 25 26  1  0  0  0  0
 26 28  1  0  0  0  0
 28 27  1  0  0  0  0
M  END
>  <MODEL>
3

>  <REMARK>
 VINA RESULT:      -8.0      1.035      1.365
  Name = 
  8 active torsions:
  status: ('A' for Active; 'I' for Inactive)
    1  A    between atoms: C_1  and  C_15
    2  A    between atoms: O_2  and  C_10
    3  A    between atoms: O_2  and  C_22
    4  A    between atoms: CA_3  and  C_16
    5  A    between atoms: CA_3  and  C_27
    6  A    between atoms: C_5  and  N_26
    7  A    between atoms: C_10  and  C_19
    8  A    between atoms: N_12  and  C_23
                            x       y       z     vdW  Elec       q    Type
                         _______ _______ _______ _____ _____    ______ ____

>  <TORSDO>
F 8

$$$$
=
 OpenBabel10222417273D

 28 29  0  0  1  0  0  0  0  0999 V2000
  190.6730  177.7590  142.9680 C   0  0  0  0  0  0  0  0  0  0  0  0
  190.7470  177.3430  140.5440 C   0  0  0  0  0  2  0  0  0  0  0  0
  187.2470  177.6900  141.8160 N   0  0  0  0  0  0  0  0  0  0  0  0
  189.3870  178.4990  142.7360 C   0  0  0  0  0  2  0  0  0  0  0  0
  189.2280  177.1240  140.5270 C   0  0  1  0  0  3  0  0  0  0  0  0
  191.3060  177.2040  141.9280 C   0  0  0  0  0  3  0  0  0  0  0  0
  188.5440  177.7880  141.7050 C   0  0  0  0  0  0  0  0  0  0  0  0
  185.5850  178.5240  144.9000 C   0  0  0  0  0  0  0  0  0  0  0  0
  185.3820  179.0640  142.6590 C   0  0  0  0  0  3  0  0  0  0  0  0
  186.5330  177.8730  144.2420 C   0  0  0  0  0  3  0  0  0  0  0  0
  184.7440  179.3530  143.9770 C   0  0  1  0  0  3  0  0  0  0  0  0
  186.3900  178.2210  142.8400 C   0  0  0  0  0  0  0  0  0  0  0  0
  183.3130  178.8440  143.9630 C   0  0  0  0  0  1  0  0  0  0  0  0
  184.2670  178.5220  146.8660 O   0  0  0  0  0  0  0  0  0  0  0  0
  185.4180  178.4650  146.3600 C   0  0  0  0  0  0  0  0  0  0  0  0
  186.5520  178.3430  147.2140 N   0  0  0  0  0  1  0  0  0  0  0  0
  189.4260  176.5030  145.3280 O   0  0  0  0  0  0  0  0  0  0  0  0
  191.1860  177.6740  144.3050 N   0  0  0  0  0  2  0  0  0  0  0  0
  190.5510  177.0630  145.4350 C   0  0  0  0  0  0  0  0  0  0  0  0
  191.2500  177.0840  146.7560 C   0  0  1  0  0  3  0  0  0  0  0  0
  190.3120  177.4580  147.8020 N   0  0  0  0  0  1  0  0  0  0  0  0
  192.9300  175.8890  147.9730 O   0  0  0  0  0  1  0  0  0  0  0  0
  191.8790  175.7300  147.0690 C   0  0  0  0  0  3  0  0  0  0  0  0
  192.3690  175.1480  145.8980 O   0  0  0  0  0  1  0  0  0  0  0  0
  188.6810  177.6400  139.2050 C   0  0  0  0  0  2  0  0  0  0  0  0
  189.1040  178.9520  138.9880 O   0  0  0  0  0  0  0  0  0  0  0  0
  189.4080  177.8400  136.9110 C   0  0  0  0  0  1  0  0  0  0  0  0
  189.0160  179.1270  137.6070 C   0  0  0  0  0  2  0  0  0  0  0  0
  1 18  1  0  0  0  0
  2  6  1  0  0  0  0
  3 12  1  0  0  0  0
  4  1  1  0  0  0  0
  5 25  1  6  0  0  0
  5  2  1  0  0  0  0
  5  7  1  0  0  0  0
  6  1  2  0  0  0  0
  7  3  2  0  0  0  0
  7  4  1  0  0  0  0
  8 15  1  0  0  0  0
  9 12  2  0  0  0  0
  9 11  1  0  0  0  0
 10  8  2  0  0  0  0
 11 13  1  6  0  0  0
 11  8  1  0  0  0  0
 12 10  1  0  0  0  0
 15 14  2  0  0  0  0
 15 16  1  0  0  0  0
 17 19  2  0  0  0  0
 18 19  1  0  0  0  0
 19 20  1  0  0  0  0
 20 23  1  0  0  0  0
 20 21  1  1  0  0  0
 23 22  1  0  0  0  0
 24 23  1  0  0  0  0
 26 25  1  0  0  0  0
 27 28  1  0  0  0  0
 28 26  1  0  0  0  0
M  END
>  <MODEL>
4

>  <REMARK>
 VINA RESULT:      -8.0      2.307      6.407
  Name = 
  8 active torsions:
  status: ('A' for Active; 'I' for Inactive)
    1  A    between atoms: C_1  and  C_15
    2  A    between atoms: O_2  and  C_10
    3  A    between atoms: O_2  and  C_22
    4  A    between atoms: CA_3  and  C_16
    5  A    between atoms: CA_3  and  C_27
    6  A    between atoms: C_5  and  N_26
    7  A    between atoms: C_10  and  C_19
    8  A    between atoms: N_12  and  C_23
                            x       y       z     vdW  Elec       q    Type
                         _______ _______ _______ _____ _____    ______ ____

>  <TORSDO>
F 8

$$$$
=
 OpenBabel10222417273D

 28 29  0  0  1  0  0  0  0  0999 V2000
  186.9820  177.6820  145.2190 C   0  0  0  0  0  0  0  0  0  0  0  0
  184.6890  178.5750  145.2400 C   0  0  0  0  0  2  0  0  0  0  0  0
  186.2900  178.8650  141.8740 N   0  0  0  0  0  0  0  0  0  0  0  0
  186.7730  177.3600  143.7670 C   0  0  0  0  0  2  0  0  0  0  0  0
  184.9000  179.1720  143.8430 C   0  0  1  0  0  3  0  0  0  0  0  0
  185.9960  178.2670  145.9080 C   0  0  0  0  0  3  0  0  0  0  0  0
  186.0050  178.4660  143.0830 C   0  0  0  0  0  0  0  0  0  0  0  0
  189.2660  177.5280  140.3480 C   0  0  0  0  0  0  0  0  0  0  0  0
  187.1800  178.2520  139.6570 C   0  0  0  0  0  3  0  0  0  0  0  0
  188.5960  177.9100  141.4250 C   0  0  0  0  0  3  0  0  0  0  0  0
  188.4510  177.7000  139.1020 C   0  0  1  0  0  3  0  0  0  0  0  0
  187.2930  178.3630  140.9750 C   0  0  0  0  0  0  0  0  0  0  0  0
  189.0890  178.7320  138.1890 C   0  0  0  0  0  1  0  0  0  0  0  0
  190.9320  176.0020  139.6410 O   0  0  0  0  0  0  0  0  0  0  0  0
  190.6250  176.9660  140.3890 C   0  0  0  0  0  0  0  0  0  0  0  0
  191.6040  177.5050  141.2740 N   0  0  0  0  0  1  0  0  0  0  0  0
  189.6740  178.6530  144.5050 O   0  0  0  0  0  0  0  0  0  0  0  0
  188.2380  177.3440  145.8240 N   0  0  0  0  0  2  0  0  0  0  0  0
  189.5340  177.8280  145.4480 C   0  0  0  0  0  0  0  0  0  0  0  0
  190.7310  177.3490  146.2040 C   0  0  1  0  0  3  0  0  0  0  0  0
  190.3060  176.5330  147.3300 N   0  0  0  0  0  1  0  0  0  0  0  0
  190.9580  176.0080  144.2340 O   0  0  0  0  0  1  0  0  0  0  0  0
  191.6710  176.5570  145.3010 C   0  0  0  0  0  3  0  0  0  0  0  0
  192.2750  175.5260  146.0230 O   0  0  0  0  0  1  0  0  0  0  0  0
  183.5810  179.1080  143.0870 C   0  0  0  0  0  2  0  0  0  0  0  0
  182.5120  179.0930  143.9860 O   0  0  0  0  0  0  0  0  0  0  0  0
  180.2320  178.4260  143.9720 C   0  0  0  0  0  1  0  0  0  0  0  0
  181.3760  179.0250  143.1790 C   0  0  0  0  0  2  0  0  0  0  0  0
  1 18  1  0  0  0  0
  1  6  2  0  0  0  0
  2  6  1  0  0  0  0
  3  7  2  0  0  0  0
  4  1  1  0  0  0  0
  5 25  1  6  0  0  0
  5  2  1  0  0  0  0
  7  4  1  0  0  0  0
  7  5  1  0  0  0  0
  8 15  1  0  0  0  0
  8 10  2  0  0  0  0
  9 12  2  0  0  0  0
 11 13  1  6  0  0  0
 11  9  1  0  0  0  0
 11  8  1  0  0  0  0
 12 10  1  0  0  0  0
 12  3  1  0  0  0  0
 14 15  2  0  0  0  0
 15 16  1  0  0  0  0
 17 19  2  0  0  0  0
 19 18  1  0  0  0  0
 19 20  1  0  0  0  0
 20 21  1  1  0  0  0
 22 23  1  0  0  0  0
 23 24  1  0  0  0  0
 23 20  1  0  0  0  0
 25 26  1  0  0  0  0
 28 27  1  0  0  0  0
 28 26  1  0  0  0  0
M  END
>  <MODEL>
5

>  <REMARK>
 VINA RESULT:      -7.7      2.270      6.570
  Name = 
  8 active torsions:
  status: ('A' for Active; 'I' for Inactive)
    1  A    between atoms: C_1  and  C_15
    2  A    between atoms: O_2  and  C_10
    3  A    between atoms: O_2  and  C_22
    4  A    between atoms: CA_3  and  C_16
    5  A    between atoms: CA_3  and  C_27
    6  A    between atoms: C_5  and  N_26
    7  A    between atoms: C_10  and  C_19
    8  A    between atoms: N_12  and  C_23
                            x       y       z     vdW  Elec       q    Type
                         _______ _______ _______ _____ _____    ______ ____

>  <TORSDO>
F 8

$$$$
=
 OpenBabel10222417273D

 28 29  0  0  1  0  0  0  0  0999 V2000
  186.1180  178.8570  141.0720 C   0  0  0  0  0  0  0  0  0  0  0  0
  183.7230  178.9970  141.6200 C   0  0  0  0  0  2  0  0  0  0  0  0
  185.7620  177.7390  144.4910 N   0  0  0  0  0  0  0  0  0  0  0  0
  186.3990  179.0900  142.5290 C   0  0  0  0  0  2  0  0  0  0  0  0
  183.9700  178.2310  142.9260 C   0  0  1  0  0  3  0  0  0  0  0  0
  184.8500  178.8020  140.6500 C   0  0  0  0  0  3  0  0  0  0  0  0
  185.4090  178.3380  143.3870 C   0  0  0  0  0  0  0  0  0  0  0  0
  189.2390  177.2580  145.2980 C   0  0  0  0  0  0  0  0  0  0  0  0
  187.3530  178.0990  146.3410 C   0  0  0  0  0  3  0  0  0  0  0  0
  188.2310  177.1620  144.4440 C   0  0  0  0  0  3  0  0  0  0  0  0
  188.8030  177.8600  146.5990 C   0  0  1  0  0  3  0  0  0  0  0  0
  187.0570  177.6910  145.1130 C   0  0  0  0  0  0  0  0  0  0  0  0
  188.9520  176.8530  147.7260 C   0  0  0  0  0  1  0  0  0  0  0  0
  190.8740  176.2830  143.8890 O   0  0  0  0  0  0  0  0  0  0  0  0
  190.6190  176.8580  144.9790 C   0  0  0  0  0  0  0  0  0  0  0  0
  191.6770  177.1170  145.8990 N   0  0  0  0  0  1  0  0  0  0  0  0
  188.4850  177.1230  141.3710 O   0  0  0  0  0  0  0  0  0  0  0  0
  187.2270  178.7040  140.1740 N   0  0  0  0  0  2  0  0  0  0  0  0
  188.3690  177.8570  140.3520 C   0  0  0  0  0  0  0  0  0  0  0  0
  189.4290  177.8430  139.2980 C   0  0  1  0  0  3  0  0  0  0  0  0
  190.0930  176.5500  139.2870 N   0  0  0  0  0  1  0  0  0  0  0  0
  189.4470  177.3440  136.9570 O   0  0  0  0  0  1  0  0  0  0  0  0
  188.8420  178.1490  137.9230 C   0  0  0  0  0  3  0  0  0  0  0  0
  189.0560  179.4900  137.5990 O   0  0  0  0  0  1  0  0  0  0  0  0
  183.0100  178.7580  143.9830 C   0  0  0  0  0  2  0  0  0  0  0  0
  181.8890  179.3260  143.3740 O   0  0  0  0  0  0  0  0  0  0  0  0
  179.8360  178.2730  142.8080 C   0  0  0  0  0  1  0  0  0  0  0  0
  180.8060  178.6330  143.9140 C   0  0  0  0  0  2  0  0  0  0  0  0
  1  4  1  0  0  0  0
  2  5  1  0  0  0  0
  3 12  1  0  0  0  0
  4  7  1  0  0  0  0
  5  7  1  0  0  0  0
  5 25  1  1  0  0  0
  6  1  2  0  0  0  0
  6  2  1  0  0  0  0
  7  3  2  0  0  0  0
  8 11  1  0  0  0  0
  9 11  1  0  0  0  0
 10 12  1  0  0  0  0
 10  8  2  0  0  0  0
 11 13  1  1  0  0  0
 12  9  2  0  0  0  0
 14 15  2  0  0  0  0
 15  8  1  0  0  0  0
 15 16  1  0  0  0  0
 18 19  1  0  0  0  0
 18  1  1  0  0  0  0
 19 17  2  0  0  0  0
 20 21  1  6  0  0  0
 20 19  1  0  0  0  0
 22 23  1  0  0  0  0
 23 20  1  0  0  0  0
 24 23  1  0  0  0  0
 26 28  1  0  0  0  0
 26 25  1  0  0  0  0
 27 28  1  0  0  0  0
M  END
>  <MODEL>
6

>  <REMARK>
 VINA RESULT:      -7.6      1.955      5.680
  Name = 
  8 active torsions:
  status: ('A' for Active; 'I' for Inactive)
    1  A    between atoms: C_1  and  C_15
    2  A    between atoms: O_2  and  C_10
    3  A    between atoms: O_2  and  C_22
    4  A    between atoms: CA_3  and  C_16
    5  A    between atoms: CA_3  and  C_27
    6  A    between atoms: C_5  and  N_26
    7  A    between atoms: C_10  and  C_19
    8  A    between atoms: N_12  and  C_23
                            x       y       z     vdW  Elec       q    Type
                         _______ _______ _______ _____ _____    ______ ____

>  <TORSDO>
F 8

$$$$
=
 OpenBabel10222417273D

 28 29  0  0  1  0  0  0  0  0999 V2000
  187.5360  178.0960  140.9800 C   0  0  0  0  0  0  0  0  0  0  0  0
  188.9310  177.5790  139.0190 C   0  0  0  0  0  2  0  0  0  0  0  0
  190.9130  177.6500  142.1890 N   0  0  0  0  0  0  0  0  0  0  0  0
  188.5040  177.2930  141.7990 C   0  0  0  0  0  2  0  0  0  0  0  0
  190.1980  177.7410  139.8690 C   0  0  1  0  0  3  0  0  0  0  0  0
  187.7500  178.2380  139.6660 C   0  0  0  0  0  3  0  0  0  0  0  0
  189.9220  177.5480  141.3470 C   0  0  0  0  0  0  0  0  0  0  0  0
  191.4390  176.6980  145.6230 C   0  0  0  0  0  0  0  0  0  0  0  0
  190.1460  178.2250  144.4620 C   0  0  0  0  0  3  0  0  0  0  0  0
  191.7120  176.5580  144.3340 C   0  0  0  0  0  3  0  0  0  0  0  0
  190.4150  177.7680  145.8560 C   0  0  1  0  0  3  0  0  0  0  0  0
  190.8920  177.5200  143.6210 C   0  0  0  0  0  0  0  0  0  0  0  0
  189.1480  177.1700  146.4410 C   0  0  0  0  0  1  0  0  0  0  0  0
  192.5630  174.7800  146.4370 O   0  0  0  0  0  0  0  0  0  0  0  0
  192.0990  175.9230  146.6860 C   0  0  0  0  0  0  0  0  0  0  0  0
  192.2180  176.4570  148.0020 N   0  0  0  0  0  1  0  0  0  0  0  0
  186.5420  177.5970  143.7110 O   0  0  0  0  0  0  0  0  0  0  0  0
  186.4040  178.6860  141.6350 N   0  0  0  0  0  2  0  0  0  0  0  0
  185.9400  178.4150  142.9640 C   0  0  0  0  0  0  0  0  0  0  0  0
  184.7280  179.1320  143.4660 C   0  0  1  0  0  3  0  0  0  0  0  0
  183.5660  178.7330  142.6900 N   0  0  0  0  0  1  0  0  0  0  0  0
  183.1670  179.1130  145.2810 O   0  0  0  0  0  1  0  0  0  0  0  0
  184.4980  178.8530  144.9480 C   0  0  0  0  0  3  0  0  0  0  0  0
  185.3290  179.6630  145.7240 O   0  0  0  0  0  1  0  0  0  0  0  0
  191.2440  176.7560  139.3670 C   0  0  0  0  0  2  0  0  0  0  0  0
  190.6230  175.6630  138.7610 O   0  0  0  0  0  0  0  0  0  0  0  0
  192.7850  176.0840  137.8690 C   0  0  0  0  0  1  0  0  0  0  0  0
  191.5490  175.2080  137.8220 C   0  0  0  0  0  2  0  0  0  0  0  0
  1 18  1  0  0  0  0
  1  4  1  0  0  0  0
  2  6  1  0  0  0  0
  2  5  1  0  0  0  0
  3 12  1  0  0  0  0
  5 25  1  6  0  0  0
  5  7  1  0  0  0  0
  6  1  2  0  0  0  0
  7  4  1  0  0  0  0
  7  3  2  0  0  0  0
  8 11  1  0  0  0  0
  8 15  1  0  0  0  0
  9 11  1  0  0  0  0
 10  8  2  0  0  0  0
 11 13  1  6  0  0  0
 12 10  1  0  0  0  0
 12  9  2  0  0  0  0
 14 15  2  0  0  0  0
 15 16  1  0  0  0  0
 18 19  1  0  0  0  0
 19 20  1  0  0  0  0
 19 17  2  0  0  0  0
 20 21  1  6  0  0  0
 20 23  1  0  0  0  0
 23 22  1  0  0  0  0
 23 24  1  0  0  0  0
 26 25  1  0  0  0  0
 28 27  1  0  0  0  0
 28 26  1  0  0  0  0
M  END
>  <MODEL>
7

>  <REMARK>
 VINA RESULT:      -7.5      2.611      7.333
  Name = 
  8 active torsions:
  status: ('A' for Active; 'I' for Inactive)
    1  A    between atoms: C_1  and  C_15
    2  A    between atoms: O_2  and  C_10
    3  A    between atoms: O_2  and  C_22
    4  A    between atoms: CA_3  and  C_16
    5  A    between atoms: CA_3  and  C_27
    6  A    between atoms: C_5  and  N_26
    7  A    between atoms: C_10  and  C_19
    8  A    between atoms: N_12  and  C_23
                            x       y       z     vdW  Elec       q    Type
                         _______ _______ _______ _____ _____    ______ ____

>  <TORSDO>
F 8

$$$$
=
 OpenBabel10222417273D

 28 29  0  0  1  0  0  0  0  0999 V2000
  188.4740  177.2120  142.9030 C   0  0  0  0  0  0  0  0  0  0  0  0
  188.9950  177.0550  145.3030 C   0  0  0  0  0  2  0  0  0  0  0  0
  185.6660  178.6400  144.6770 N   0  0  0  0  0  0  0  0  0  0  0  0
  187.0220  177.1270  143.2790 C   0  0  0  0  0  2  0  0  0  0  0  0
  187.7920  177.9490  145.6300 C   0  0  1  0  0  3  0  0  0  0  0  0
  189.4020  177.1890  143.8660 C   0  0  0  0  0  3  0  0  0  0  0  0
  186.7500  177.9290  144.5300 C   0  0  0  0  0  0  0  0  0  0  0  0
  182.4250  178.9960  143.1470 C   0  0  0  0  0  0  0  0  0  0  0  0
  184.6260  178.8390  142.4500 C   0  0  0  0  0  3  0  0  0  0  0  0
  183.1830  178.8840  144.2280 C   0  0  0  0  0  3  0  0  0  0  0  0
  183.2480  178.9790  141.8940 C   0  0  1  0  0  3  0  0  0  0  0  0
  184.5570  178.7850  143.7740 C   0  0  0  0  0  0  0  0  0  0  0  0
  182.9180  177.7540  141.0590 C   0  0  0  0  0  1  0  0  0  0  0  0
  180.4180  180.1150  142.5780 O   0  0  0  0  0  0  0  0  0  0  0  0
  180.9630  179.1590  143.1870 C   0  0  0  0  0  0  0  0  0  0  0  0
  180.1540  178.2380  143.9140 N   0  0  0  0  0  1  0  0  0  0  0  0
  187.7420  179.3300  140.9840 O   0  0  0  0  0  0  0  0  0  0  0  0
  188.8200  177.3110  141.5140 N   0  0  0  0  0  2  0  0  0  0  0  0
  188.4410  178.3520  140.6040 C   0  0  0  0  0  0  0  0  0  0  0  0
  188.8990  178.2700  139.1830 C   0  0  1  0  0  3  0  0  0  0  0  0
  189.9590  177.2820  139.0650 N   0  0  0  0  0  1  0  0  0  0  0  0
  187.9480  176.6600  137.6890 O   0  0  0  0  0  1  0  0  0  0  0  0
  187.7430  177.9210  138.2500 C   0  0  0  0  0  3  0  0  0  0  0  0
  187.6500  178.8660  137.2270 O   0  0  0  0  0  1  0  0  0  0  0  0
  187.2030  177.4970  146.9580 C   0  0  0  0  0  2  0  0  0  0  0  0
  188.1950  176.9200  147.7530 O   0  0  0  0  0  0  0  0  0  0  0  0
  189.9040  178.2910  148.6730 C   0  0  0  0  0  1  0  0  0  0  0  0
  188.4510  177.8700  148.7420 C   0  0  0  0  0  2  0  0  0  0  0  0
  1  4  1  0  0  0  0
  1  6  2  0  0  0  0
  2  5  1  0  0  0  0
  4  7  1  0  0  0  0
  5 25  1  1  0  0  0
  6  2  1  0  0  0  0
  7  3  2  0  0  0  0
  7  5  1  0  0  0  0
  8 15  1  0  0  0  0
  8 10  2  0  0  0  0
  9 12  2  0  0  0  0
 11 13  1  6  0  0  0
 11  9  1  0  0  0  0
 11  8  1  0  0  0  0
 12 10  1  0  0  0  0
 12  3  1  0  0  0  0
 14 15  2  0  0  0  0
 15 16  1  0  0  0  0
 18  1  1  0  0  0  0
 19 17  2  0  0  0  0
 19 18  1  0  0  0  0
 20 21  1  1  0  0  0
 20 19  1  0  0  0  0
 22 23  1  0  0  0  0
 23 20  1  0  0  0  0
 24 23  1  0  0  0  0
 25 26  1  0  0  0  0
 26 28  1  0  0  0  0
 27 28  1  0  0  0  0
M  END
>  <MODEL>
8

>  <REMARK>
 VINA RESULT:      -7.5      1.929      2.532
  Name = 
  8 active torsions:
  status: ('A' for Active; 'I' for Inactive)
    1  A    between atoms: C_1  and  C_15
    2  A    between atoms: O_2  and  C_10
    3  A    between atoms: O_2  and  C_22
    4  A    between atoms: CA_3  and  C_16
    5  A    between atoms: CA_3  and  C_27
    6  A    between atoms: C_5  and  N_26
    7  A    between atoms: C_10  and  C_19
    8  A    between atoms: N_12  and  C_23
                            x       y       z     vdW  Elec       q    Type
                         _______ _______ _______ _____ _____    ______ ____

>  <TORSDO>
F 8

$$$$
=
 OpenBabel10222417273D

 28 29  0  0  1  0  0  0  0  0999 V2000
  190.7450  177.7740  143.6320 C   0  0  0  0  0  0  0  0  0  0  0  0
  191.5560  177.4870  141.3260 C   0  0  0  0  0  2  0  0  0  0  0  0
  187.8340  177.8010  141.4900 N   0  0  0  0  0  0  0  0  0  0  0  0
  189.5860  178.5390  143.0600 C   0  0  0  0  0  2  0  0  0  0  0  0
  190.1170  177.2840  140.8370 C   0  0  1  0  0  3  0  0  0  0  0  0
  191.6690  177.2690  142.8060 C   0  0  0  0  0  3  0  0  0  0  0  0
  189.1020  177.8920  141.7840 C   0  0  0  0  0  0  0  0  0  0  0  0
  185.3840  178.6030  144.0060 C   0  0  0  0  0  0  0  0  0  0  0  0
  185.6950  179.0000  141.7470 C   0  0  0  0  0  3  0  0  0  0  0  0
  186.5230  178.0290  143.6490 C   0  0  0  0  0  3  0  0  0  0  0  0
  184.7240  179.2840  142.8450 C   0  0  1  0  0  3  0  0  0  0  0  0
  186.7020  178.2850  142.2320 C   0  0  0  0  0  0  0  0  0  0  0  0
  183.3970  178.6190  142.5240 C   0  0  0  0  0  1  0  0  0  0  0  0
  183.6920  178.9940  145.6140 O   0  0  0  0  0  0  0  0  0  0  0  0
  184.8650  178.6010  145.3820 C   0  0  0  0  0  0  0  0  0  0  0  0
  185.6810  178.1550  146.4620 N   0  0  0  0  0  1  0  0  0  0  0  0
  188.7000  176.7140  145.4730 O   0  0  0  0  0  0  0  0  0  0  0  0
  190.8280  177.6140  145.0550 N   0  0  0  0  0  2  0  0  0  0  0  0
  189.8100  177.1010  145.9250 C   0  0  0  0  0  0  0  0  0  0  0  0
  190.0890  177.0180  147.3920 C   0  0  1  0  0  3  0  0  0  0  0  0
  191.5170  177.1520  147.6280 N   0  0  0  0  0  1  0  0  0  0  0  0
  190.1000  178.5710  149.2140 O   0  0  0  0  0  1  0  0  0  0  0  0
  189.3220  178.0920  148.1590 C   0  0  0  0  0  3  0  0  0  0  0  0
  188.1370  177.5610  148.6710 O   0  0  0  0  0  1  0  0  0  0  0  0
  189.9940  177.8750  139.4410 C   0  0  0  0  0  2  0  0  0  0  0  0
  189.6710  176.8750  138.5220 O   0  0  0  0  0  0  0  0  0  0  0  0
  188.9970  178.0370  136.5620 C   0  0  0  0  0  1  0  0  0  0  0  0
  188.5540  177.3660  137.8460 C   0  0  0  0  0  2  0  0  0  0  0  0
  1 18  1  0  0  0  0
  2  6  1  0  0  0  0
  3  7  2  0  0  0  0
  3 12  1  0  0  0  0
  4  1  1  0  0  0  0
  5 25  1  6  0  0  0
  5  2  1  0  0  0  0
  5  7  1  0  0  0  0
  6  1  2  0  0  0  0
  7  4  1  0  0  0  0
  8 15  1  0  0  0  0
  9 12  2  0  0  0  0
  9 11  1  0  0  0  0
 10  8  2  0  0  0  0
 11 13  1  6  0  0  0
 11  8  1  0  0  0  0
 12 10  1  0  0  0  0
 15 14  2  0  0  0  0
 15 16  1  0  0  0  0
 17 19  2  0  0  0  0
 18 19  1  0  0  0  0
 19 20  1  0  0  0  0
 20 21  1  6  0  0  0
 20 23  1  0  0  0  0
 23 24  1  0  0  0  0
 23 22  1  0  0  0  0
 26 25  1  0  0  0  0
 27 28  1  0  0  0  0
 28 26  1  0  0  0  0
M  END
>  <MODEL>
9

>  <REMARK>
 VINA RESULT:      -7.4      2.058      6.472
  Name = 
  8 active torsions:
  status: ('A' for Active; 'I' for Inactive)
    1  A    between atoms: C_1  and  C_15
    2  A    between atoms: O_2  and  C_10
    3  A    between atoms: O_2  and  C_22
    4  A    between atoms: CA_3  and  C_16
    5  A    between atoms: CA_3  and  C_27
    6  A    between atoms: C_5  and  N_26
    7  A    between atoms: C_10  and  C_19
    8  A    between atoms: N_12  and  C_23
                            x       y       z     vdW  Elec       q    Type
                         _______ _______ _______ _____ _____    ______ ____

>  <TORSDO>
F 8

$$$$
