=
 OpenBabel10222416373D

 32 34  0  0  1  0  0  0  0  0999 V2000
  187.4320  178.3760  139.9310 N   0  0  0  0  0  0  0  0  0  0  0  0
  188.0230  177.9140  142.2510 C   0  0  0  0  0  2  0  0  0  0  0  0
  190.4650  176.7610  141.2710 C   0  0  2  0  0  3  0  0  0  0  0  0
  188.2580  177.8390  140.7750 C   0  0  0  0  0  0  0  0  0  0  0  0
  189.4310  177.1530  140.3080 N   0  0  0  0  0  0  0  0  0  0  0  0
  189.8640  176.1310  142.5380 C   0  0  0  0  0  2  0  0  0  0  0  0
  188.4290  176.5780  142.8740 C   0  0  1  0  0  3  0  0  0  0  0  0
  191.3100  177.9640  141.6510 C   0  0  0  0  0  1  0  0  0  0  0  0
  189.5310  176.7470  138.9080 C   0  0  1  0  0  3  0  0  0  0  0  0
  189.7300  177.9440  138.0120 C   0  0  0  0  0  2  0  0  0  0  0  0
  190.4240  175.6010  136.3570 O   0  0  0  0  0  0  0  0  0  0  0  0
  189.5050  176.5970  135.9720 C   0  0  0  0  0  0  0  0  0  0  0  0
  188.8900  176.4710  134.6960 N   0  0  0  0  0  1  0  0  0  0  0  0
  192.1860  174.3940  137.6120 C   0  0  0  0  0  1  0  0  0  0  0  0
  191.0360  175.3340  137.5980 C   0  0  0  0  0  0  0  0  0  0  0  0
  189.2020  177.6320  136.6980 N   0  0  0  0  0  0  0  0  0  0  0  0
  190.6430  175.8350  138.7310 N   0  0  0  0  0  0  0  0  0  0  0  0
  183.4930  178.4320  138.1610 C   0  0  0  0  0  3  0  0  0  0  0  0
  184.8130  178.2190  138.4850 C   0  0  2  0  0  3  0  0  0  0  0  0
  186.2770  179.0540  140.3460 N   0  0  0  0  0  2  0  0  0  0  0  0
  183.9230  179.5880  139.9750 N   0  0  0  0  0  0  0  0  0  0  0  0
  182.9850  179.2730  139.0910 N   0  0  0  0  0  0  0  0  0  0  0  0
  185.7310  177.3920  137.7790 N   0  0  0  0  0  1  0  0  0  0  0  0
  185.0510  178.9520  139.6200 C   0  0  0  0  0  0  0  0  0  0  0  0
  188.1500  176.5350  144.3760 C   0  0  0  0  0  2  0  0  0  0  0  0
  187.3160  177.7150  144.8720 C   0  0  0  0  0  2  0  0  0  0  0  0
  187.3480  177.8350  146.3870 C   0  0  0  0  0  2  0  0  0  0  0  0
  185.9310  178.8090  146.9830 S   0  0  0  0  0  0  0  0  0  0  0  0
  185.0360  178.6540  145.4100 C   0  0  0  0  0  2  0  0  0  0  0  0
  183.7270  179.1080  145.5650 O   0  0  0  0  0  0  0  0  0  0  0  0
  184.1830  178.4910  143.3150 C   0  0  0  0  0  1  0  0  0  0  0  0
  183.1220  178.8560  144.3350 C   0  0  0  0  0  2  0  0  0  0  0  0
  1 20  1  0  0  0  0
  1  4  2  0  0  0  0
  2  7  1  0  0  0  0
  3  8  1  1  0  0  0
  3  6  1  0  0  0  0
  4  2  1  0  0  0  0
  5  4  1  0  0  0  0
  5  3  1  0  0  0  0
  6  7  1  0  0  0  0
  7 25  1  1  0  0  0
  9 10  1  6  0  0  0
  9  5  1  0  0  0  0
 11 15  1  0  0  0  0
 12 11  1  0  0  0  0
 12 16  2  0  0  0  0
 13 12  1  0  0  0  0
 15 14  1  0  0  0  0
 15 17  2  0  0  0  0
 16 10  1  0  0  0  0
 17  9  1  0  0  0  0
 18 19  1  0  0  0  0
 18 22  2  0  0  0  0
 19 23  1  1  0  0  0
 19 24  1  0  0  0  0
 22 21  1  0  0  0  0
 24 21  2  0  0  0  0
 24 20  1  0  0  0  0
 25 26  1  0  0  0  0
 26 27  1  0  0  0  0
 27 28  1  0  0  0  0
 29 30  1  0  0  0  0
 29 28  1  0  0  0  0
 31 32  1  0  0  0  0
 32 30  1  0  0  0  0
M  END
>  <MODEL>
1

>  <REMARK>
 VINA RESULT:      -7.7      0.000      0.000
  Name = 
  9 active torsions:
  status: ('A' for Active; 'I' for Inactive)
    1  A    between atoms: N_1  and  N_5
    2  A    between atoms: C_6  and  S_25
    3  A    between atoms: C_6  and  O_28
    4  A    between atoms: C_9  and  N_12
    5  A    between atoms: C_11  and  S_25
    6  A    between atoms: C_11  and  C_29
    7  A    between atoms: C_16  and  O_28
    8  A    between atoms: C_19  and  C_20
    9  A    between atoms: C_20  and  C_29
                            x       y       z     vdW  Elec       q    Type
                         _______ _______ _______ _____ _____    ______ ____

>  <TORSDO>
F 9

$$$$
=
 OpenBabel10222416373D

 32 34  0  0  1  0  0  0  0  0999 V2000
  188.9040  178.1900  139.2880 N   0  0  0  0  0  0  0  0  0  0  0  0
  188.5050  177.7210  141.6480 C   0  0  0  0  0  2  0  0  0  0  0  0
  191.2440  176.8730  141.8160 C   0  0  2  0  0  3  0  0  0  0  0  0
  189.3490  177.7200  140.4120 C   0  0  0  0  0  0  0  0  0  0  0  0
  190.6780  177.1820  140.4980 N   0  0  0  0  0  0  0  0  0  0  0  0
  190.2390  176.1410  142.7190 C   0  0  0  0  0  2  0  0  0  0  0  0
  188.7570  176.4180  142.4060 C   0  0  1  0  0  3  0  0  0  0  0  0
  191.7080  178.1490  142.4970 C   0  0  0  0  0  1  0  0  0  0  0  0
  191.4070  176.8340  139.2800 C   0  0  1  0  0  3  0  0  0  0  0  0
  192.8750  176.6380  139.5670 C   0  0  0  0  0  2  0  0  0  0  0  0
  192.4320  175.4550  136.8990 O   0  0  0  0  0  0  0  0  0  0  0  0
  193.4270  176.4120  137.1860 C   0  0  0  0  0  0  0  0  0  0  0  0
  194.2810  176.8160  136.1230 N   0  0  0  0  0  1  0  0  0  0  0  0
  190.6380  173.7740  137.2020 C   0  0  0  0  0  1  0  0  0  0  0  0
  191.3330  175.0060  137.6580 C   0  0  0  0  0  0  0  0  0  0  0  0
  193.6250  176.9310  138.3610 N   0  0  0  0  0  0  0  0  0  0  0  0
  190.8710  175.6130  138.7100 N   0  0  0  0  0  0  0  0  0  0  0  0
  185.5690  176.7890  136.9270 C   0  0  0  0  0  3  0  0  0  0  0  0
  186.7770  176.9830  137.5570 C   0  0  2  0  0  3  0  0  0  0  0  0
  187.6130  178.7240  139.1620 N   0  0  0  0  0  2  0  0  0  0  0  0
  185.3890  178.5930  138.1620 N   0  0  0  0  0  0  0  0  0  0  0  0
  184.7490  177.7910  137.3200 N   0  0  0  0  0  0  0  0  0  0  0  0
  187.9310  176.1590  137.4380 N   0  0  0  0  0  1  0  0  0  0  0  0
  186.6330  178.1150  138.3200 C   0  0  0  0  0  0  0  0  0  0  0  0
  187.8750  176.2960  143.6490 C   0  0  0  0  0  2  0  0  0  0  0  0
  187.7540  177.5990  144.4370 C   0  0  0  0  0  2  0  0  0  0  0  0
  188.1940  177.4310  145.8820 C   0  0  0  0  0  2  0  0  0  0  0  0
  186.9540  178.1300  147.0150 S   0  0  0  0  0  0  0  0  0  0  0  0
  185.6860  178.2380  145.7190 C   0  0  0  0  0  2  0  0  0  0  0  0
  184.6070  178.9950  146.1760 O   0  0  0  0  0  0  0  0  0  0  0  0
  184.3460  179.4810  143.8630 C   0  0  0  0  0  1  0  0  0  0  0  0
  183.6890  178.9620  145.1280 C   0  0  0  0  0  2  0  0  0  0  0  0
  1  4  2  0  0  0  0
  2  7  1  0  0  0  0
  3  8  1  1  0  0  0
  3  6  1  0  0  0  0
  4  5  1  0  0  0  0
  4  2  1  0  0  0  0
  5  3  1  0  0  0  0
  7  6  1  0  0  0  0
  7 25  1  1  0  0  0
  9 10  1  1  0  0  0
  9  5  1  0  0  0  0
 11 12  1  0  0  0  0
 11 15  1  0  0  0  0
 12 16  2  0  0  0  0
 13 12  1  0  0  0  0
 14 15  1  0  0  0  0
 15 17  2  0  0  0  0
 16 10  1  0  0  0  0
 17  9  1  0  0  0  0
 18 22  2  0  0  0  0
 18 19  1  0  0  0  0
 19 23  1  1  0  0  0
 19 24  1  0  0  0  0
 20  1  1  0  0  0  0
 21 24  2  0  0  0  0
 22 21  1  0  0  0  0
 24 20  1  0  0  0  0
 25 26  1  0  0  0  0
 26 27  1  0  0  0  0
 27 28  1  0  0  0  0
 29 30  1  0  0  0  0
 29 28  1  0  0  0  0
 31 32  1  0  0  0  0
 32 30  1  0  0  0  0
M  END
>  <MODEL>
2

>  <REMARK>
 VINA RESULT:      -7.6      1.728      2.214
  Name = 
  9 active torsions:
  status: ('A' for Active; 'I' for Inactive)
    1  A    between atoms: N_1  and  N_5
    2  A    between atoms: C_6  and  S_25
    3  A    between atoms: C_6  and  O_28
    4  A    between atoms: C_9  and  N_12
    5  A    between atoms: C_11  and  S_25
    6  A    between atoms: C_11  and  C_29
    7  A    between atoms: C_16  and  O_28
    8  A    between atoms: C_19  and  C_20
    9  A    between atoms: C_20  and  C_29
                            x       y       z     vdW  Elec       q    Type
                         _______ _______ _______ _____ _____    ______ ____

>  <TORSDO>
F 9

$$$$
=
 OpenBabel10222416373D

 32 34  0  0  1  0  0  0  0  0999 V2000
  188.7990  178.1450  139.2300 N   0  0  0  0  0  0  0  0  0  0  0  0
  188.3980  177.7230  141.5990 C   0  0  0  0  0  2  0  0  0  0  0  0
  191.1610  176.9610  141.8040 C   0  0  2  0  0  3  0  0  0  0  0  0
  189.2510  177.7160  140.3690 C   0  0  0  0  0  0  0  0  0  0  0  0
  190.5950  177.2200  140.4760 N   0  0  0  0  0  0  0  0  0  0  0  0
  190.1710  176.2210  142.7190 C   0  0  0  0  0  2  0  0  0  0  0  0
  188.6830  176.4460  142.3910 C   0  0  1  0  0  3  0  0  0  0  0  0
  191.5820  178.2660  142.4570 C   0  0  0  0  0  1  0  0  0  0  0  0
  191.3410  176.8640  139.2710 C   0  0  1  0  0  3  0  0  0  0  0  0
  192.8060  176.6750  139.5810 C   0  0  0  0  0  2  0  0  0  0  0  0
  192.4040  175.4690  136.9170 O   0  0  0  0  0  0  0  0  0  0  0  0
  193.3920  176.4310  137.2100 C   0  0  0  0  0  0  0  0  0  0  0  0
  194.2600  176.8290  136.1560 N   0  0  0  0  0  1  0  0  0  0  0  0
  190.6100  173.7860  137.2080 C   0  0  0  0  0  1  0  0  0  0  0  0
  191.2950  175.0240  137.6630 C   0  0  0  0  0  0  0  0  0  0  0  0
  193.5720  176.9590  138.3840 N   0  0  0  0  0  0  0  0  0  0  0  0
  190.8170  175.6380  138.7030 N   0  0  0  0  0  0  0  0  0  0  0  0
  185.5620  176.6630  136.7850 C   0  0  0  0  0  3  0  0  0  0  0  0
  186.7500  176.8890  137.4420 C   0  0  2  0  0  3  0  0  0  0  0  0
  187.4950  178.6380  139.0840 N   0  0  0  0  0  2  0  0  0  0  0  0
  185.2970  178.4450  138.0360 N   0  0  0  0  0  0  0  0  0  0  0  0
  184.7020  177.6330  137.1720 N   0  0  0  0  0  0  0  0  0  0  0  0
  187.9340  176.1060  137.3380 N   0  0  0  0  0  1  0  0  0  0  0  0
  186.5530  178.0070  138.2140 C   0  0  0  0  0  0  0  0  0  0  0  0
  187.7970  176.3280  143.6310 C   0  0  0  0  0  2  0  0  0  0  0  0
  188.0230  177.4480  144.6460 C   0  0  0  0  0  2  0  0  0  0  0  0
  186.9230  177.4920  145.6940 C   0  0  0  0  0  2  0  0  0  0  0  0
  187.6150  177.8860  147.3310 S   0  0  0  0  0  0  0  0  0  0  0  0
  189.3210  177.5660  146.7970 C   0  0  0  0  0  2  0  0  0  0  0  0
  189.8380  176.4760  147.4980 O   0  0  0  0  0  0  0  0  0  0  0  0
  191.6030  176.8220  145.9420 C   0  0  0  0  0  1  0  0  0  0  0  0
  191.2210  176.6200  147.3970 C   0  0  0  0  0  2  0  0  0  0  0  0
  1  4  2  0  0  0  0
  2  7  1  0  0  0  0
  3  8  1  1  0  0  0
  3  6  1  0  0  0  0
  4  5  1  0  0  0  0
  4  2  1  0  0  0  0
  5  3  1  0  0  0  0
  7  6  1  0  0  0  0
  7 25  1  1  0  0  0
  9 10  1  1  0  0  0
  9  5  1  0  0  0  0
 11 12  1  0  0  0  0
 11 15  1  0  0  0  0
 12 16  2  0  0  0  0
 13 12  1  0  0  0  0
 14 15  1  0  0  0  0
 15 17  2  0  0  0  0
 16 10  1  0  0  0  0
 17  9  1  0  0  0  0
 18 22  2  0  0  0  0
 18 19  1  0  0  0  0
 19 23  1  1  0  0  0
 19 24  1  0  0  0  0
 20  1  1  0  0  0  0
 21 24  2  0  0  0  0
 22 21  1  0  0  0  0
 24 20  1  0  0  0  0
 25 26  1  0  0  0  0
 26 27  1  0  0  0  0
 27 28  1  0  0  0  0
 29 28  1  0  0  0  0
 29 30  1  0  0  0  0
 31 32  1  0  0  0  0
 32 30  1  0  0  0  0
M  END
>  <MODEL>
3

>  <REMARK>
 VINA RESULT:      -7.5      2.349      3.399
  Name = 
  9 active torsions:
  status: ('A' for Active; 'I' for Inactive)
    1  A    between atoms: N_1  and  N_5
    2  A    between atoms: C_6  and  S_25
    3  A    between atoms: C_6  and  O_28
    4  A    between atoms: C_9  and  N_12
    5  A    between atoms: C_11  and  S_25
    6  A    between atoms: C_11  and  C_29
    7  A    between atoms: C_16  and  O_28
    8  A    between atoms: C_19  and  C_20
    9  A    between atoms: C_20  and  C_29
                            x       y       z     vdW  Elec       q    Type
                         _______ _______ _______ _____ _____    ______ ____

>  <TORSDO>
F 9

$$$$
=
 OpenBabel10222416373D

 32 34  0  0  1  0  0  0  0  0999 V2000
  186.5680  178.8000  140.1870 N   0  0  0  0  0  0  0  0  0  0  0  0
  186.9560  178.2590  142.5340 C   0  0  0  0  0  2  0  0  0  0  0  0
  189.6030  177.4390  141.7800 C   0  0  2  0  0  3  0  0  0  0  0  0
  187.3550  178.3030  141.0920 C   0  0  0  0  0  0  0  0  0  0  0  0
  188.6410  177.7780  140.7270 N   0  0  0  0  0  0  0  0  0  0  0  0
  188.9450  176.6690  142.9370 C   0  0  0  0  0  2  0  0  0  0  0  0
  187.4420  176.9380  143.1290 C   0  0  1  0  0  3  0  0  0  0  0  0
  190.2610  178.6990  142.3140 C   0  0  0  0  0  1  0  0  0  0  0  0
  188.9360  177.4730  139.3280 C   0  0  1  0  0  3  0  0  0  0  0  0
  189.1660  178.7370  138.5380 C   0  0  0  0  0  2  0  0  0  0  0  0
  190.2050  176.5540  136.8450 O   0  0  0  0  0  0  0  0  0  0  0  0
  189.2770  177.5220  136.4090 C   0  0  0  0  0  0  0  0  0  0  0  0
  188.8320  177.4480  135.0600 N   0  0  0  0  0  1  0  0  0  0  0  0
  191.8740  175.3650  138.2370 C   0  0  0  0  0  1  0  0  0  0  0  0
  190.6760  176.2390  138.1350 C   0  0  0  0  0  0  0  0  0  0  0  0
  188.8230  178.4860  137.1520 N   0  0  0  0  0  0  0  0  0  0  0  0
  190.1180  176.6390  139.2380 N   0  0  0  0  0  0  0  0  0  0  0  0
  182.8210  178.3940  138.0770 C   0  0  0  0  0  3  0  0  0  0  0  0
  184.1250  178.3410  138.5150 C   0  0  2  0  0  3  0  0  0  0  0  0
  185.3060  179.3220  140.5030 N   0  0  0  0  0  2  0  0  0  0  0  0
  182.9440  179.5650  139.9280 N   0  0  0  0  0  0  0  0  0  0  0  0
  182.1330  179.1500  138.9630 N   0  0  0  0  0  0  0  0  0  0  0  0
  185.1970  177.6460  137.8890 N   0  0  0  0  0  1  0  0  0  0  0  0
  184.1690  179.0800  139.6710 C   0  0  0  0  0  0  0  0  0  0  0  0
  187.0100  176.7700  144.5860 C   0  0  0  0  0  2  0  0  0  0  0  0
  187.8960  177.5290  145.5720 C   0  0  0  0  0  2  0  0  0  0  0  0
  187.1960  177.7620  146.9010 C   0  0  0  0  0  2  0  0  0  0  0  0
  188.3810  177.6550  148.2780 S   0  0  0  0  0  0  0  0  0  0  0  0
  189.6590  176.8780  147.2480 C   0  0  0  0  0  2  0  0  0  0  0  0
  190.9110  177.0520  147.8370 O   0  0  0  0  0  0  0  0  0  0  0  0
  191.5550  176.6760  145.5790 C   0  0  0  0  0  1  0  0  0  0  0  0
  191.7800  176.3140  147.0360 C   0  0  0  0  0  2  0  0  0  0  0  0
  1 20  1  0  0  0  0
  1  4  2  0  0  0  0
  2  7  1  0  0  0  0
  3  8  1  1  0  0  0
  3  6  1  0  0  0  0
  4  2  1  0  0  0  0
  5  4  1  0  0  0  0
  5  3  1  0  0  0  0
  6  7  1  0  0  0  0
  7 25  1  1  0  0  0
  9 10  1  6  0  0  0
  9  5  1  0  0  0  0
 11 15  1  0  0  0  0
 12 11  1  0  0  0  0
 12 16  2  0  0  0  0
 13 12  1  0  0  0  0
 15 14  1  0  0  0  0
 15 17  2  0  0  0  0
 16 10  1  0  0  0  0
 17  9  1  0  0  0  0
 18 19  1  0  0  0  0
 18 22  2  0  0  0  0
 19 23  1  1  0  0  0
 19 24  1  0  0  0  0
 22 21  1  0  0  0  0
 24 21  2  0  0  0  0
 24 20  1  0  0  0  0
 25 26  1  0  0  0  0
 26 27  1  0  0  0  0
 27 28  1  0  0  0  0
 29 30  1  0  0  0  0
 29 28  1  0  0  0  0
 31 32  1  0  0  0  0
 32 30  1  0  0  0  0
M  END
>  <MODEL>
4

>  <REMARK>
 VINA RESULT:      -7.5      2.059      2.948
  Name = 
  9 active torsions:
  status: ('A' for Active; 'I' for Inactive)
    1  A    between atoms: N_1  and  N_5
    2  A    between atoms: C_6  and  S_25
    3  A    between atoms: C_6  and  O_28
    4  A    between atoms: C_9  and  N_12
    5  A    between atoms: C_11  and  S_25
    6  A    between atoms: C_11  and  C_29
    7  A    between atoms: C_16  and  O_28
    8  A    between atoms: C_19  and  C_20
    9  A    between atoms: C_20  and  C_29
                            x       y       z     vdW  Elec       q    Type
                         _______ _______ _______ _____ _____    ______ ____

>  <TORSDO>
F 9

$$$$
=
 OpenBabel10222416373D

 32 34  0  0  1  0  0  0  0  0999 V2000
  191.2210  177.1850  139.5210 N   0  0  0  0  0  0  0  0  0  0  0  0
  191.5870  177.3340  141.9270 C   0  0  0  0  0  2  0  0  0  0  0  0
  188.7340  177.4800  142.2280 C   0  0  2  0  0  3  0  0  0  0  0  0
  190.7200  177.3450  140.7070 C   0  0  0  0  0  0  0  0  0  0  0  0
  189.3070  177.5370  140.8790 N   0  0  0  0  0  0  0  0  0  0  0  0
  189.5770  178.2650  143.2460 C   0  0  0  0  0  2  0  0  0  0  0  0
  191.0700  178.3970  142.8960 C   0  0  1  0  0  3  0  0  0  0  0  0
  188.6010  176.0370  142.6810 C   0  0  0  0  0  1  0  0  0  0  0  0
  188.4750  177.9040  139.7360 C   0  0  1  0  0  3  0  0  0  0  0  0
  188.3500  176.7540  138.7680 C   0  0  0  0  0  2  0  0  0  0  0  0
  186.2240  178.6530  138.0070 O   0  0  0  0  0  0  0  0  0  0  0  0
  187.1750  178.1280  137.1090 C   0  0  0  0  0  0  0  0  0  0  0  0
  187.0880  178.5270  135.7470 N   0  0  0  0  0  1  0  0  0  0  0  0
  184.8760  179.0040  140.0550 C   0  0  0  0  0  1  0  0  0  0  0  0
  186.1580  178.6150  139.4140 C   0  0  0  0  0  0  0  0  0  0  0  0
  188.1090  177.2880  137.4420 N   0  0  0  0  0  0  0  0  0  0  0  0
  187.1510  178.2880  140.1850 N   0  0  0  0  0  0  0  0  0  0  0  0
  193.2540  174.1200  137.2560 C   0  0  0  0  0  3  0  0  0  0  0  0
  192.3460  174.9450  137.8810 C   0  0  2  0  0  3  0  0  0  0  0  0
  192.5940  176.9950  139.3100 N   0  0  0  0  0  2  0  0  0  0  0  0
  194.3880  175.6800  138.3020 N   0  0  0  0  0  0  0  0  0  0  0  0
  194.4880  174.6000  137.5370 N   0  0  0  0  0  0  0  0  0  0  0  0
  190.9300  174.8170  137.8490 N   0  0  0  0  0  1  0  0  0  0  0  0
  193.0840  175.9070  138.5240 C   0  0  0  0  0  0  0  0  0  0  0  0
  191.9450  178.5120  144.1450 C   0  0  0  0  0  2  0  0  0  0  0  0
  191.3010  177.9100  145.3930 C   0  0  0  0  0  2  0  0  0  0  0  0
  191.6810  176.4500  145.5800 C   0  0  0  0  0  2  0  0  0  0  0  0
  191.6590  176.0020  147.3430 S   0  0  0  0  0  0  0  0  0  0  0  0
  190.3010  177.1480  147.7190 C   0  0  0  0  0  2  0  0  0  0  0  0
  189.0810  176.4750  147.6440 O   0  0  0  0  0  0  0  0  0  0  0  0
  187.5090  177.5240  146.2020 C   0  0  0  0  0  1  0  0  0  0  0  0
  188.1260  177.4880  147.5880 C   0  0  0  0  0  2  0  0  0  0  0  0
  1  4  2  0  0  0  0
  2  7  1  0  0  0  0
  3  8  1  1  0  0  0
  3  6  1  0  0  0  0
  4  5  1  0  0  0  0
  4  2  1  0  0  0  0
  5  3  1  0  0  0  0
  7  6  1  0  0  0  0
  7 25  1  1  0  0  0
  9 10  1  6  0  0  0
  9 17  1  0  0  0  0
  9  5  1  0  0  0  0
 11 15  1  0  0  0  0
 12 16  2  0  0  0  0
 12 11  1  0  0  0  0
 13 12  1  0  0  0  0
 15 14  1  0  0  0  0
 15 17  2  0  0  0  0
 16 10  1  0  0  0  0
 18 22  2  0  0  0  0
 18 19  1  0  0  0  0
 19 23  1  6  0  0  0
 19 24  1  0  0  0  0
 20  1  1  0  0  0  0
 21 24  2  0  0  0  0
 22 21  1  0  0  0  0
 24 20  1  0  0  0  0
 25 26  1  0  0  0  0
 26 27  1  0  0  0  0
 27 28  1  0  0  0  0
 28 29  1  0  0  0  0
 30 29  1  0  0  0  0
 31 32  1  0  0  0  0
 32 30  1  0  0  0  0
M  END
>  <MODEL>
5

>  <REMARK>
 VINA RESULT:      -7.0      2.733      5.898
  Name = 
  9 active torsions:
  status: ('A' for Active; 'I' for Inactive)
    1  A    between atoms: N_1  and  N_5
    2  A    between atoms: C_6  and  S_25
    3  A    between atoms: C_6  and  O_28
    4  A    between atoms: C_9  and  N_12
    5  A    between atoms: C_11  and  S_25
    6  A    between atoms: C_11  and  C_29
    7  A    between atoms: C_16  and  O_28
    8  A    between atoms: C_19  and  C_20
    9  A    between atoms: C_20  and  C_29
                            x       y       z     vdW  Elec       q    Type
                         _______ _______ _______ _____ _____    ______ ____

>  <TORSDO>
F 9

$$$$
=
 OpenBabel10222416373D

 32 34  0  0  1  0  0  0  0  0999 V2000
  187.7570  177.9680  141.8040 N   0  0  0  0  0  0  0  0  0  0  0  0
  189.9490  177.2580  141.0030 C   0  0  0  0  0  2  0  0  0  0  0  0
  190.4820  176.3220  143.6650 C   0  0  2  0  0  3  0  0  0  0  0  0
  188.9230  177.4670  142.0730 C   0  0  0  0  0  0  0  0  0  0  0  0
  189.2610  177.0960  143.4190 N   0  0  0  0  0  0  0  0  0  0  0  0
  191.6810  176.8670  142.8730 C   0  0  0  0  0  2  0  0  0  0  0  0
  191.3220  177.6120  141.5740 C   0  0  1  0  0  3  0  0  0  0  0  0
  190.2570  174.8620  143.3110 C   0  0  0  0  0  1  0  0  0  0  0  0
  188.4590  177.5900  144.5370 C   0  0  1  0  0  3  0  0  0  0  0  0
  187.2180  176.7540  144.7210 C   0  0  0  0  0  2  0  0  0  0  0  0
  187.4860  178.3190  147.2080 O   0  0  0  0  0  0  0  0  0  0  0  0
  186.3130  178.2670  146.4280 C   0  0  0  0  0  0  0  0  0  0  0  0
  185.1850  179.0030  146.8820 N   0  0  0  0  0  1  0  0  0  0  0  0
  189.7470  177.8070  148.0810 C   0  0  0  0  0  1  0  0  0  0  0  0
  188.7970  177.8780  146.9400 C   0  0  0  0  0  0  0  0  0  0  0  0
  186.1930  177.5750  145.3340 N   0  0  0  0  0  0  0  0  0  0  0  0
  189.2360  177.5580  145.7600 N   0  0  0  0  0  0  0  0  0  0  0  0
  183.8660  179.0030  140.2400 C   0  0  0  0  0  3  0  0  0  0  0  0
  184.9480  178.6380  141.0100 C   0  0  2  0  0  3  0  0  0  0  0  0
  187.3890  178.3420  140.5030 N   0  0  0  0  0  2  0  0  0  0  0  0
  185.6330  179.0030  138.9400 N   0  0  0  0  0  0  0  0  0  0  0  0
  184.3230  179.2150  138.9850 N   0  0  0  0  0  0  0  0  0  0  0  0
  184.9270  178.3270  142.3980 N   0  0  0  0  0  1  0  0  0  0  0  0
  186.0340  178.6480  140.1710 C   0  0  0  0  0  0  0  0  0  0  0  0
  192.4280  177.5030  140.5240 C   0  0  0  0  0  2  0  0  0  0  0  0
  191.9110  177.1290  139.1360 C   0  0  0  0  0  2  0  0  0  0  0  0
  192.9580  176.3860  138.3220 C   0  0  0  0  0  2  0  0  0  0  0  0
  192.1720  175.4250  136.9910 S   0  0  0  0  0  0  0  0  0  0  0  0
  190.4940  175.8850  137.5160 C   0  0  0  0  0  2  0  0  0  0  0  0
  189.8730  176.6290  136.5130 O   0  0  0  0  0  0  0  0  0  0  0  0
  189.0550  178.7440  137.2290 C   0  0  0  0  0  1  0  0  0  0  0  0
  188.8010  177.2500  137.1510 C   0  0  0  0  0  2  0  0  0  0  0  0
  1  4  2  0  0  0  0
  2  7  1  0  0  0  0
  2  4  1  0  0  0  0
  3  8  1  6  0  0  0
  4  5  1  0  0  0  0
  5  3  1  0  0  0  0
  6  3  1  0  0  0  0
  7 25  1  6  0  0  0
  7  6  1  0  0  0  0
  9  5  1  6  0  0  0
  9 10  1  0  0  0  0
  9 17  1  0  0  0  0
 10 16  1  0  0  0  0
 12 13  1  0  0  0  0
 12 11  1  0  0  0  0
 15 11  1  0  0  0  0
 15 14  1  0  0  0  0
 16 12  2  0  0  0  0
 17 15  2  0  0  0  0
 18 19  1  0  0  0  0
 19 23  1  1  0  0  0
 20  1  1  0  0  0  0
 21 22  1  0  0  0  0
 21 24  2  0  0  0  0
 22 18  2  0  0  0  0
 24 20  1  0  0  0  0
 24 19  1  0  0  0  0
 26 25  1  0  0  0  0
 27 26  1  0  0  0  0
 28 29  1  0  0  0  0
 28 27  1  0  0  0  0
 30 32  1  0  0  0  0
 30 29  1  0  0  0  0
 32 31  1  0  0  0  0
M  END
>  <MODEL>
6

>  <REMARK>
 VINA RESULT:      -6.9      3.262      7.256
  Name = 
  9 active torsions:
  status: ('A' for Active; 'I' for Inactive)
    1  A    between atoms: N_1  and  N_5
    2  A    between atoms: C_6  and  S_25
    3  A    between atoms: C_6  and  O_28
    4  A    between atoms: C_9  and  N_12
    5  A    between atoms: C_11  and  S_25
    6  A    between atoms: C_11  and  C_29
    7  A    between atoms: C_16  and  O_28
    8  A    between atoms: C_19  and  C_20
    9  A    between atoms: C_20  and  C_29
                            x       y       z     vdW  Elec       q    Type
                         _______ _______ _______ _____ _____    ______ ____

>  <TORSDO>
F 9

$$$$
=
 OpenBabel10222416373D

 32 34  0  0  1  0  0  0  0  0999 V2000
  187.7390  177.9640  141.7370 N   0  0  0  0  0  0  0  0  0  0  0  0
  189.9340  177.2800  140.9230 C   0  0  0  0  0  2  0  0  0  0  0  0
  190.4890  176.3380  143.5790 C   0  0  2  0  0  3  0  0  0  0  0  0
  188.9110  177.4740  141.9990 C   0  0  0  0  0  0  0  0  0  0  0  0
  189.2590  177.1010  143.3420 N   0  0  0  0  0  0  0  0  0  0  0  0
  191.6790  176.8980  142.7830 C   0  0  0  0  0  2  0  0  0  0  0  0
  191.3060  177.6460  141.4890 C   0  0  1  0  0  3  0  0  0  0  0  0
  190.2770  174.8780  143.2200 C   0  0  0  0  0  1  0  0  0  0  0  0
  188.4580  177.5830  144.4650 C   0  0  1  0  0  3  0  0  0  0  0  0
  187.2070  176.7560  144.6280 C   0  0  0  0  0  2  0  0  0  0  0  0
  187.4810  178.2710  147.1460 O   0  0  0  0  0  0  0  0  0  0  0  0
  186.3110  178.2470  146.3600 C   0  0  0  0  0  0  0  0  0  0  0  0
  185.1880  178.9860  146.8240 N   0  0  0  0  0  1  0  0  0  0  0  0
  189.7330  177.7190  148.0180 C   0  0  0  0  0  1  0  0  0  0  0  0
  188.7890  177.8220  146.8750 C   0  0  0  0  0  0  0  0  0  0  0  0
  186.1880  177.5760  145.2530 N   0  0  0  0  0  0  0  0  0  0  0  0
  189.2290  177.5190  145.6910 N   0  0  0  0  0  0  0  0  0  0  0  0
  183.8350  178.9980  140.2050 C   0  0  0  0  0  3  0  0  0  0  0  0
  184.9230  178.6340  140.9660 C   0  0  2  0  0  3  0  0  0  0  0  0
  187.3610  178.3400  140.4400 N   0  0  0  0  0  2  0  0  0  0  0  0
  185.5920  179.0020  138.8910 N   0  0  0  0  0  0  0  0  0  0  0  0
  184.2830  179.2130  138.9470 N   0  0  0  0  0  0  0  0  0  0  0  0
  184.9130  178.3210  142.3540 N   0  0  0  0  0  1  0  0  0  0  0  0
  186.0020  178.6450  140.1180 C   0  0  0  0  0  0  0  0  0  0  0  0
  192.4080  177.5520  140.4340 C   0  0  0  0  0  2  0  0  0  0  0  0
  191.9950  176.7570  139.1950 C   0  0  0  0  0  2  0  0  0  0  0  0
  193.1800  176.4590  138.2910 C   0  0  0  0  0  2  0  0  0  0  0  0
  192.8660  174.9720  137.2910 S   0  0  0  0  0  0  0  0  0  0  0  0
  194.3080  174.0950  137.9630 C   0  0  0  0  0  2  0  0  0  0  0  0
  195.0950  174.9780  138.7020 O   0  0  0  0  0  0  0  0  0  0  0  0
  196.7960  173.5370  137.8740 C   0  0  0  0  0  1  0  0  0  0  0  0
  196.1990  174.2210  139.0900 C   0  0  0  0  0  2  0  0  0  0  0  0
  1  4  2  0  0  0  0
  2  7  1  0  0  0  0
  2  4  1  0  0  0  0
  3  8  1  6  0  0  0
  4  5  1  0  0  0  0
  5  3  1  0  0  0  0
  6  3  1  0  0  0  0
  7 25  1  6  0  0  0
  7  6  1  0  0  0  0
  9  5  1  6  0  0  0
  9 10  1  0  0  0  0
  9 17  1  0  0  0  0
 10 16  1  0  0  0  0
 12 13  1  0  0  0  0
 12 11  1  0  0  0  0
 15 11  1  0  0  0  0
 15 14  1  0  0  0  0
 16 12  2  0  0  0  0
 17 15  2  0  0  0  0
 18 19  1  0  0  0  0
 19 23  1  1  0  0  0
 20  1  1  0  0  0  0
 21 22  1  0  0  0  0
 21 24  2  0  0  0  0
 22 18  2  0  0  0  0
 24 20  1  0  0  0  0
 24 19  1  0  0  0  0
 26 25  1  0  0  0  0
 27 26  1  0  0  0  0
 28 29  1  0  0  0  0
 28 27  1  0  0  0  0
 29 30  1  0  0  0  0
 30 32  1  0  0  0  0
 31 32  1  0  0  0  0
M  END
>  <MODEL>
7

>  <REMARK>
 VINA RESULT:      -6.9      3.580      8.094
  Name = 
  9 active torsions:
  status: ('A' for Active; 'I' for Inactive)
    1  A    between atoms: N_1  and  N_5
    2  A    between atoms: C_6  and  S_25
    3  A    between atoms: C_6  and  O_28
    4  A    between atoms: C_9  and  N_12
    5  A    between atoms: C_11  and  S_25
    6  A    between atoms: C_11  and  C_29
    7  A    between atoms: C_16  and  O_28
    8  A    between atoms: C_19  and  C_20
    9  A    between atoms: C_20  and  C_29
                            x       y       z     vdW  Elec       q    Type
                         _______ _______ _______ _____ _____    ______ ____

>  <TORSDO>
F 9

$$$$
=
 OpenBabel10222416373D

 32 34  0  0  1  0  0  0  0  0999 V2000
  183.9520  179.4710  139.5890 N   0  0  0  0  0  0  0  0  0  0  0  0
  183.3530  178.5480  141.7660 C   0  0  0  0  0  2  0  0  0  0  0  0
  180.6080  178.6870  140.9320 C   0  0  2  0  0  3  0  0  0  0  0  0
  183.0220  179.1260  140.4260 C   0  0  0  0  0  0  0  0  0  0  0  0
  181.6380  179.2920  140.0810 N   0  0  0  0  0  0  0  0  0  0  0  0
  180.8870  178.9140  142.4260 C   0  0  0  0  0  2  0  0  0  0  0  0
  182.3700  179.1130  142.7920 C   0  0  1  0  0  3  0  0  0  0  0  0
  180.5070  177.1970  140.6520 C   0  0  0  0  0  1  0  0  0  0  0  0
  181.2610  180.1560  138.9640 C   0  0  1  0  0  3  0  0  0  0  0  0
  180.5780  179.3640  137.8760 C   0  0  0  0  0  2  0  0  0  0  0  0
  179.9930  182.1940  137.2730 O   0  0  0  0  0  0  0  0  0  0  0  0
  180.5400  181.2830  136.3460 C   0  0  0  0  0  0  0  0  0  0  0  0
  180.8070  181.7580  135.0330 N   0  0  0  0  0  1  0  0  0  0  0  0
  178.9310  183.1080  139.3150 C   0  0  0  0  0  1  0  0  0  0  0  0
  179.8050  182.0970  138.6660 C   0  0  0  0  0  0  0  0  0  0  0  0
  180.7940  180.0360  136.6100 N   0  0  0  0  0  0  0  0  0  0  0  0
  180.3650  181.2000  139.4210 N   0  0  0  0  0  0  0  0  0  0  0  0
  187.0010  177.2440  137.4910 C   0  0  0  0  0  3  0  0  0  0  0  0
  185.8430  177.8470  137.9280 C   0  0  2  0  0  3  0  0  0  0  0  0
  185.3150  179.3250  139.8880 N   0  0  0  0  0  2  0  0  0  0  0  0
  187.4840  178.3590  139.3170 N   0  0  0  0  0  0  0  0  0  0  0  0
  187.9780  177.5790  138.3640 N   0  0  0  0  0  0  0  0  0  0  0  0
  184.5660  177.7700  137.3050 N   0  0  0  0  0  1  0  0  0  0  0  0
  186.1770  178.5350  139.0680 C   0  0  0  0  0  0  0  0  0  0  0  0
  182.6810  178.6360  144.2100 C   0  0  0  0  0  2  0  0  0  0  0  0
  184.1050  178.9580  144.6600 C   0  0  0  0  0  2  0  0  0  0  0  0
  184.3260  178.6250  146.1260 C   0  0  0  0  0  2  0  0  0  0  0  0
  186.0550  178.9360  146.6010 S   0  0  0  0  0  0  0  0  0  0  0  0
  186.6830  177.5660  145.5870 C   0  0  0  0  0  2  0  0  0  0  0  0
  188.0250  177.7860  145.2750 O   0  0  0  0  0  0  0  0  0  0  0  0
  187.1550  177.5080  143.0800 C   0  0  0  0  0  1  0  0  0  0  0  0
  188.2220  177.1000  144.0780 C   0  0  0  0  0  2  0  0  0  0  0  0
  1 20  1  0  0  0  0
  1  4  2  0  0  0  0
  2  7  1  0  0  0  0
  3  8  1  1  0  0  0
  3  6  1  0  0  0  0
  4  2  1  0  0  0  0
  5  4  1  0  0  0  0
  5  3  1  0  0  0  0
  6  7  1  0  0  0  0
  7 25  1  1  0  0  0
  9 10  1  6  0  0  0
  9 17  1  0  0  0  0
  9  5  1  0  0  0  0
 11 15  1  0  0  0  0
 12 16  2  0  0  0  0
 12 11  1  0  0  0  0
 13 12  1  0  0  0  0
 15 14  1  0  0  0  0
 15 17  2  0  0  0  0
 16 10  1  0  0  0  0
 18 19  1  0  0  0  0
 18 22  2  0  0  0  0
 19 23  1  6  0  0  0
 19 24  1  0  0  0  0
 22 21  1  0  0  0  0
 24 21  2  0  0  0  0
 24 20  1  0  0  0  0
 25 26  1  0  0  0  0
 26 27  1  0  0  0  0
 27 28  1  0  0  0  0
 29 28  1  0  0  0  0
 30 29  1  0  0  0  0
 31 32  1  0  0  0  0
 32 30  1  0  0  0  0
M  END
>  <MODEL>
8

>  <REMARK>
 VINA RESULT:      -6.7      3.302      7.537
  Name = 
  9 active torsions:
  status: ('A' for Active; 'I' for Inactive)
    1  A    between atoms: N_1  and  N_5
    2  A    between atoms: C_6  and  S_25
    3  A    between atoms: C_6  and  O_28
    4  A    between atoms: C_9  and  N_12
    5  A    between atoms: C_11  and  S_25
    6  A    between atoms: C_11  and  C_29
    7  A    between atoms: C_16  and  O_28
    8  A    between atoms: C_19  and  C_20
    9  A    between atoms: C_20  and  C_29
                            x       y       z     vdW  Elec       q    Type
                         _______ _______ _______ _____ _____    ______ ____

>  <TORSDO>
F 9

$$$$
=
 OpenBabel10222416373D

 32 34  0  0  1  0  0  0  0  0999 V2000
  190.7860  177.2120  139.6730 N   0  0  0  0  0  0  0  0  0  0  0  0
  191.3510  177.4530  142.0340 C   0  0  0  0  0  2  0  0  0  0  0  0
  188.5340  177.3770  142.5900 C   0  0  2  0  0  3  0  0  0  0  0  0
  190.3810  177.3620  140.8970 C   0  0  0  0  0  0  0  0  0  0  0  0
  188.9780  177.4440  141.1930 N   0  0  0  0  0  0  0  0  0  0  0  0
  189.3960  178.2540  143.5120 C   0  0  0  0  0  2  0  0  0  0  0  0
  190.8370  178.4960  143.0250 C   0  0  1  0  0  3  0  0  0  0  0  0
  188.5620  175.9400  143.0800 C   0  0  0  0  0  1  0  0  0  0  0  0
  188.0200  177.7120  140.1230 C   0  0  1  0  0  3  0  0  0  0  0  0
  187.0110  178.7490  140.5520 C   0  0  0  0  0  2  0  0  0  0  0  0
  186.7510  178.5660  137.6180 O   0  0  0  0  0  0  0  0  0  0  0  0
  185.6710  178.4510  138.5170 C   0  0  0  0  0  0  0  0  0  0  0  0
  184.3740  178.2540  137.9690 N   0  0  0  0  0  1  0  0  0  0  0  0
  189.0170  179.0030  136.7170 C   0  0  0  0  0  1  0  0  0  0  0  0
  188.1430  178.5670  137.8370 C   0  0  0  0  0  0  0  0  0  0  0  0
  185.7840  178.5360  139.8090 N   0  0  0  0  0  0  0  0  0  0  0  0
  188.7110  178.1870  138.9410 N   0  0  0  0  0  0  0  0  0  0  0  0
  192.8260  174.3670  137.1440 C   0  0  0  0  0  3  0  0  0  0  0  0
  191.9200  175.1060  137.8710 C   0  0  2  0  0  3  0  0  0  0  0  0
  192.1460  177.1270  139.3430 N   0  0  0  0  0  2  0  0  0  0  0  0
  193.9350  175.9750  138.1440 N   0  0  0  0  0  0  0  0  0  0  0  0
  194.0430  174.9260  137.3370 N   0  0  0  0  0  0  0  0  0  0  0  0
  190.5180  174.8760  137.9520 N   0  0  0  0  0  1  0  0  0  0  0  0
  192.6420  176.1000  138.4820 C   0  0  0  0  0  0  0  0  0  0  0  0
  191.8070  178.7140  144.1860 C   0  0  0  0  0  2  0  0  0  0  0  0
  191.3280  178.0960  145.5000 C   0  0  0  0  0  2  0  0  0  0  0  0
  191.6800  176.6210  145.5940 C   0  0  0  0  0  2  0  0  0  0  0  0
  191.6110  176.0540  147.3210 S   0  0  0  0  0  0  0  0  0  0  0  0
  190.2000  177.1250  147.7200 C   0  0  0  0  0  2  0  0  0  0  0  0
  189.0090  176.4880  147.3720 O   0  0  0  0  0  0  0  0  0  0  0  0
  187.1930  177.5590  146.2720 C   0  0  0  0  0  1  0  0  0  0  0  0
  188.0290  177.4640  147.5350 C   0  0  0  0  0  2  0  0  0  0  0  0
  1  4  2  0  0  0  0
  2  7  1  0  0  0  0
  3  8  1  1  0  0  0
  3  6  1  0  0  0  0
  4  5  1  0  0  0  0
  4  2  1  0  0  0  0
  5  3  1  0  0  0  0
  7  6  1  0  0  0  0
  7 25  1  1  0  0  0
  9 10  1  1  0  0  0
  9  5  1  0  0  0  0
 11 15  1  0  0  0  0
 11 12  1  0  0  0  0
 12 16  2  0  0  0  0
 13 12  1  0  0  0  0
 14 15  1  0  0  0  0
 15 17  2  0  0  0  0
 16 10  1  0  0  0  0
 17  9  1  0  0  0  0
 18 22  2  0  0  0  0
 18 19  1  0  0  0  0
 19 23  1  6  0  0  0
 19 24  1  0  0  0  0
 20  1  1  0  0  0  0
 21 24  2  0  0  0  0
 22 21  1  0  0  0  0
 24 20  1  0  0  0  0
 25 26  1  0  0  0  0
 26 27  1  0  0  0  0
 27 28  1  0  0  0  0
 28 29  1  0  0  0  0
 30 32  1  0  0  0  0
 30 29  1  0  0  0  0
 31 32  1  0  0  0  0
M  END
>  <MODEL>
9

>  <REMARK>
 VINA RESULT:      -6.6      2.605      5.683
  Name = 
  9 active torsions:
  status: ('A' for Active; 'I' for Inactive)
    1  A    between atoms: N_1  and  N_5
    2  A    between atoms: C_6  and  S_25
    3  A    between atoms: C_6  and  O_28
    4  A    between atoms: C_9  and  N_12
    5  A    between atoms: C_11  and  S_25
    6  A    between atoms: C_11  and  C_29
    7  A    between atoms: C_16  and  O_28
    8  A    between atoms: C_19  and  C_20
    9  A    between atoms: C_20  and  C_29
                            x       y       z     vdW  Elec       q    Type
                         _______ _______ _______ _____ _____    ______ ____

>  <TORSDO>
F 9

$$$$
