=
 OpenBabel10222417303D

 59 65  0  0  1  0  0  0  0  0999 V2000
  188.9060  177.1080  139.3720 C   0  0  2  0  0  3  0  0  0  0  0  0
  180.9330  178.0840  135.2620 N   0  0  0  0  0  0  0  0  0  0  0  0
  189.6120  177.1610  134.5940 C   0  0  0  0  0  2  0  0  0  0  0  0
  183.2890  179.0440  139.9800 C   0  0  0  0  0  2  0  0  0  0  0  0
  187.8980  179.1010  140.5310 C   0  0  0  0  0  2  0  0  0  0  0  0
  188.1450  177.2930  134.9390 C   0  0  2  0  0  3  0  0  0  0  0  0
  185.6820  180.0730  142.2990 O   0  0  0  0  0  1  0  0  0  0  0  0
  183.7900  178.4390  138.7080 C   0  0  0  0  0  3  0  0  0  0  0  0
  190.3660  176.4550  135.4200 C   0  0  1  0  0  3  0  0  0  0  0  0
  181.2330  178.0690  136.7200 C   0  0  2  0  0  3  0  0  0  0  0  0
  189.3360  177.6710  138.1030 N   0  0  0  0  0  2  0  0  0  0  0  0
  185.4900  179.3710  141.1110 C   0  0  2  0  0  3  0  0  0  0  0  0
  190.0720  175.7820  136.6430 C   0  0  1  0  0  0  0  0  0  0  0  0
  189.0950  178.1500  140.4740 C   0  0  1  0  0  3  0  0  0  0  0  0
  183.4440  177.2240  138.2680 C   0  0  0  0  0  0  0  0  0  0  0  0
  182.4060  176.4260  138.9590 C   0  0  0  0  0  0  0  0  0  0  0  0
  179.6550  177.4590  134.9600 C   0  0  0  0  0  1  0  0  0  0  0  0
  190.0980  175.7290  139.4390 S   0  0  0  0  0  0  0  0  0  0  0  0
  183.9880  176.7160  136.9550 C   0  0  1  0  0  3  0  0  0  0  0  0
  190.3550  176.6540  137.8930 C   0  0  2  0  0  3  0  0  0  0  0  0
  181.7920  177.0440  135.8490 C   0  0  2  0  0  3  0  0  0  0  0  0
  182.7780  175.5890  139.8230 O   0  0  0  0  0  0  0  0  0  0  0  0
  188.6250  175.2580  136.5260 C   0  0  0  0  0  2  0  0  0  0  0  0
  191.0920  174.7940  136.5010 N   0  0  0  0  0  2  0  0  0  0  0  0
  184.1640  178.6430  141.1560 C   0  0  0  0  0  2  0  0  0  0  0  0
  191.6010  175.6120  135.3930 C   0  0  0  0  0  0  0  0  0  0  0  0
  187.8260  178.6360  135.1320 O   0  0  0  0  0  1  0  0  0  0  0  0
  183.2730  177.3550  135.7620 C   0  0  0  0  0  2  0  0  0  0  0  0
  186.6140  178.3780  140.9160 C   0  0  0  0  0  2  0  0  0  0  0  0
  180.9960  176.5320  138.6720 N   0  0  0  0  0  2  0  0  0  0  0  0
  192.6160  175.5590  134.6440 O   0  0  0  0  0  0  0  0  0  0  0  0
  187.7060  176.4560  136.1760 C   0  0  2  0  0  3  0  0  0  0  0  0
  185.4640  176.9360  136.8690 C   0  0  0  0  0  3  0  0  0  0  0  0
  180.2870  177.3470  137.6700 C   0  0  1  0  0  3  0  0  0  0  0  0
  186.2540  176.1330  136.1760 C   0  0  0  0  0  3  0  0  0  0  0  0
  189.3260  177.5560  141.7800 N   0  0  0  0  0  2  0  0  0  0  0  0
  190.6330  177.4880  142.3410 C   0  0  0  0  0  0  0  0  0  0  0  0
  191.6520  177.6510  141.6170 O   0  0  0  0  0  0  0  0  0  0  0  0
  190.8000  177.2760  143.7980 C   0  0  0  0  0  2  0  0  0  0  0  0
  189.5340  176.8990  144.4080 N   0  0  0  0  0  2  0  0  0  0  0  0
  189.8900  178.2470  146.2830 O   0  0  0  0  0  0  0  0  0  0  0  0
  189.1370  177.4360  145.6710 C   0  0  0  0  0  0  0  0  0  0  0  0
  184.9520  178.6200  146.5620 C   0  0  0  0  0  2  0  0  0  0  0  0
  185.8750  178.0400  147.6480 C   0  0  0  0  0  2  0  0  0  0  0  0
  188.1670  177.9340  148.5900 C   0  0  0  0  0  1  0  0  0  0  0  0
  187.7970  177.1010  146.2590 C   0  0  1  0  0  3  0  0  0  0  0  0
  185.6920  179.1210  145.3190 C   0  0  0  0  0  2  0  0  0  0  0  0
  187.3650  178.1270  147.3190 C   0  0  1  0  0  3  0  0  0  0  0  0
  186.1950  177.9870  144.4300 C   0  0  0  0  0  2  0  0  0  0  0  0
  186.7440  176.7730  145.1910 C   0  0  0  0  0  2  0  0  0  0  0  0
  179.8780  179.5090  138.7680 C   0  0  0  0  0  3  0  0  0  0  0  0
  179.4010  178.3440  138.3390 C   0  0  0  0  0  3  0  0  0  0  0  0
  179.0130  180.4870  139.4930 C   0  0  0  0  0  2  0  0  0  0  0  0
  179.4580  181.9130  139.2230 C   0  0  0  0  0  2  0  0  0  0  0  0
  180.5430  181.8980  138.1700 C   0  0  0  0  0  2  0  0  0  0  0  0
  180.8080  184.6540  135.4480 C   0  0  0  0  0  1  0  0  0  0  0  0
  180.6090  183.1710  137.4770 N   0  0  0  0  0  2  0  0  0  0  0  0
  180.8270  182.2860  135.3220 O   0  0  0  0  0  0  0  0  0  0  0  0
  180.7560  183.3000  136.0640 C   0  0  0  0  0  0  0  0  0  0  0  0
  1 11  1  6  0  0  0
  1 18  1  0  0  0  0
  1 14  1  0  0  0  0
  2 21  1  0  0  0  0
  3  6  1  0  0  0  0
  4 25  1  0  0  0  0
  5 29  1  0  0  0  0
  6 27  1  1  0  0  0
  6 32  1  0  0  0  0
  8  4  1  0  0  0  0
  9  3  1  6  0  0  0
  9 13  1  0  0  0  0
 10  2  1  6  0  0  0
 10 34  1  0  0  0  0
 12 25  1  0  0  0  0
 12  7  1  1  0  0  0
 13 23  1  1  0  0  0
 13 20  1  0  0  0  0
 14  5  1  0  0  0  0
 14 36  1  1  0  0  0
 15  8  2  0  0  0  0
 15 16  1  0  0  0  0
 16 22  2  0  0  0  0
 17  2  1  0  0  0  0
 19 28  1  6  0  0  0
 19 15  1  0  0  0  0
 20 11  1  1  0  0  0
 20 18  1  0  0  0  0
 21 28  1  6  0  0  0
 21 10  1  0  0  0  0
 24 13  1  0  0  0  0
 26  9  1  0  0  0  0
 26 24  1  0  0  0  0
 29 12  1  0  0  0  0
 30 16  1  0  0  0  0
 31 26  2  0  0  0  0
 32 35  1  6  0  0  0
 32 23  1  0  0  0  0
 33 19  1  0  0  0  0
 34 52  1  1  0  0  0
 34 30  1  0  0  0  0
 35 33  2  0  0  0  0
 36 37  1  0  0  0  0
 37 39  1  0  0  0  0
 38 37  2  0  0  0  0
 39 40  1  0  0  0  0
 40 42  1  0  0  0  0
 42 41  2  0  0  0  0
 43 44  1  0  0  0  0
 46 42  1  6  0  0  0
 46 48  1  0  0  0  0
 47 43  1  0  0  0  0
 48 44  1  0  0  0  0
 48 45  1  1  0  0  0
 49 50  1  0  0  0  0
 49 47  1  0  0  0  0
 50 46  1  0  0  0  0
 51 53  1  0  0  0  0
 52 51  2  0  0  0  0
 54 53  1  0  0  0  0
 55 54  1  0  0  0  0
 56 59  1  0  0  0  0
 57 55  1  0  0  0  0
 58 59  2  0  0  0  0
 59 57  1  0  0  0  0
M  END
>  <MODEL>
1

>  <REMARK>
 VINA RESULT:      -8.2      0.000      0.000
  Name = 
  9 active torsions:
  status: ('A' for Active; 'I' for Inactive)
    1  A    between atoms: C_1  and  C_13
    2  A    between atoms: C_1  and  C_16
    3  A    between atoms: C_8  and  C_43
    4  A    between atoms: N_11  and  C_27
    5  A    between atoms: C_14  and  C_23
    6  A    between atoms: C_16  and  C_54
    7  A    between atoms: N_18  and  C_23
    8  A    between atoms: N_26  and  C_54
    9  A    between atoms: C_55  and  C_57
                            x       y       z     vdW  Elec       q    Type
                         _______ _______ _______ _____ _____    ______ ____

>  <TORSDO>
F 9

$$$$
=
 OpenBabel10222417303D

 59 65  0  0  1  0  0  0  0  0999 V2000
  189.0550  177.0210  139.3460 C   0  0  2  0  0  3  0  0  0  0  0  0
  181.2030  177.4720  134.9230 N   0  0  0  0  0  0  0  0  0  0  0  0
  189.9360  176.9720  134.5970 C   0  0  0  0  0  2  0  0  0  0  0  0
  183.3290  178.6870  139.6910 C   0  0  0  0  0  2  0  0  0  0  0  0
  187.9060  178.9930  140.4050 C   0  0  0  0  0  2  0  0  0  0  0  0
  188.4520  177.0390  134.8850 C   0  0  2  0  0  3  0  0  0  0  0  0
  185.5800  179.9030  142.0620 O   0  0  0  0  0  1  0  0  0  0  0  0
  183.9070  178.0720  138.4570 C   0  0  0  0  0  3  0  0  0  0  0  0
  190.6920  176.3300  135.4710 C   0  0  1  0  0  3  0  0  0  0  0  0
  181.4480  177.5140  136.3900 C   0  0  2  0  0  3  0  0  0  0  0  0
  189.5030  177.5690  138.0770 N   0  0  0  0  0  2  0  0  0  0  0  0
  185.4670  179.1580  140.8900 C   0  0  2  0  0  3  0  0  0  0  0  0
  190.3860  175.6780  136.7030 C   0  0  1  0  0  0  0  0  0  0  0  0
  189.1500  178.1040  140.4210 C   0  0  1  0  0  3  0  0  0  0  0  0
  183.6390  176.8280  138.0430 C   0  0  0  0  0  0  0  0  0  0  0  0
  182.6170  175.9990  138.7200 C   0  0  0  0  0  0  0  0  0  0  0  0
  179.9700  176.7740  134.5940 C   0  0  0  0  0  1  0  0  0  0  0  0
  190.3100  175.7070  139.4990 S   0  0  0  0  0  0  0  0  0  0  0  0
  184.2560  176.3100  136.7660 C   0  0  1  0  0  3  0  0  0  0  0  0
  190.5780  176.5990  137.9350 C   0  0  2  0  0  3  0  0  0  0  0  0
  182.0900  176.4950  135.5720 C   0  0  2  0  0  3  0  0  0  0  0  0
  182.9970  175.2070  139.6220 O   0  0  0  0  0  0  0  0  0  0  0  0
  188.9730  175.0780  136.5500 C   0  0  0  0  0  2  0  0  0  0  0  0
  191.4590  174.7390  136.6280 N   0  0  0  0  0  2  0  0  0  0  0  0
  184.1790  178.3650  140.9100 C   0  0  0  0  0  2  0  0  0  0  0  0
  191.9680  175.5500  135.5150 C   0  0  0  0  0  0  0  0  0  0  0  0
  188.0590  178.3690  135.0250 O   0  0  0  0  0  1  0  0  0  0  0  0
  183.5560  176.8770  135.5300 C   0  0  0  0  0  2  0  0  0  0  0  0
  186.6460  178.2170  140.7670 C   0  0  0  0  0  2  0  0  0  0  0  0
  181.2150  176.0250  138.3800 N   0  0  0  0  0  2  0  0  0  0  0  0
  193.0120  175.5270  134.8050 O   0  0  0  0  0  0  0  0  0  0  0  0
  188.0100  176.2170  136.1300 C   0  0  2  0  0  3  0  0  0  0  0  0
  185.7220  176.6030  136.7270 C   0  0  0  0  0  3  0  0  0  0  0  0
  180.5050  176.7730  137.3280 C   0  0  1  0  0  3  0  0  0  0  0  0
  186.5760  175.8210  136.0880 C   0  0  0  0  0  3  0  0  0  0  0  0
  189.3610  177.5600  141.7530 N   0  0  0  0  0  2  0  0  0  0  0  0
  190.6430  177.5960  142.3710 C   0  0  0  0  0  0  0  0  0  0  0  0
  191.6800  177.8090  141.6880 O   0  0  0  0  0  0  0  0  0  0  0  0
  190.7580  177.4320  143.8400 C   0  0  0  0  0  2  0  0  0  0  0  0
  189.4480  177.2180  144.4340 N   0  0  0  0  0  2  0  0  0  0  0  0
  190.2650  177.4030  146.6150 O   0  0  0  0  0  0  0  0  0  0  0  0
  189.2730  177.2200  145.8520 C   0  0  0  0  0  0  0  0  0  0  0  0
  185.1810  178.8220  146.4790 C   0  0  0  0  0  2  0  0  0  0  0  0
  186.0490  178.3440  147.6560 C   0  0  0  0  0  2  0  0  0  0  0  0
  188.3180  178.2110  148.6470 C   0  0  0  0  0  1  0  0  0  0  0  0
  187.9070  177.0740  146.4570 C   0  0  1  0  0  3  0  0  0  0  0  0
  185.9670  179.0800  145.1910 C   0  0  0  0  0  2  0  0  0  0  0  0
  187.5440  178.2730  147.3470 C   0  0  1  0  0  3  0  0  0  0  0  0
  186.3910  177.7940  144.4870 C   0  0  0  0  0  2  0  0  0  0  0  0
  186.8420  176.6690  145.4280 C   0  0  0  0  0  2  0  0  0  0  0  0
  179.9570  178.9190  138.3980 C   0  0  0  0  0  3  0  0  0  0  0  0
  179.5450  177.7430  137.9340 C   0  0  0  0  0  3  0  0  0  0  0  0
  179.0160  179.8700  139.0600 C   0  0  0  0  0  2  0  0  0  0  0  0
  178.9310  179.6040  140.5520 C   0  0  0  0  0  2  0  0  0  0  0  0
  179.8180  180.5890  141.2790 C   0  0  0  0  0  2  0  0  0  0  0  0
  181.9610  178.6850  143.8980 C   0  0  0  0  0  1  0  0  0  0  0  0
  180.8980  179.9050  141.9640 N   0  0  0  0  0  2  0  0  0  0  0  0
  179.7240  179.4710  143.9400 O   0  0  0  0  0  0  0  0  0  0  0  0
  180.7940  179.3770  143.2840 C   0  0  0  0  0  0  0  0  0  0  0  0
  1 11  1  6  0  0  0
  1 18  1  0  0  0  0
  1 14  1  0  0  0  0
  2 21  1  0  0  0  0
  3  6  1  0  0  0  0
  4 25  1  0  0  0  0
  5 14  1  0  0  0  0
  5 29  1  0  0  0  0
  6 27  1  1  0  0  0
  6 32  1  0  0  0  0
  8  4  1  0  0  0  0
  9  3  1  6  0  0  0
  9 26  1  0  0  0  0
  9 13  1  0  0  0  0
 10  2  1  6  0  0  0
 10 34  1  0  0  0  0
 12 25  1  0  0  0  0
 12  7  1  1  0  0  0
 13 23  1  6  0  0  0
 13 20  1  0  0  0  0
 14 36  1  1  0  0  0
 15  8  2  0  0  0  0
 15 16  1  0  0  0  0
 16 22  2  0  0  0  0
 17  2  1  0  0  0  0
 19 28  1  6  0  0  0
 19 15  1  0  0  0  0
 20 11  1  6  0  0  0
 20 18  1  0  0  0  0
 21 28  1  6  0  0  0
 21 10  1  0  0  0  0
 24 13  1  0  0  0  0
 26 24  1  0  0  0  0
 29 12  1  0  0  0  0
 30 16  1  0  0  0  0
 31 26  2  0  0  0  0
 32 35  1  6  0  0  0
 32 23  1  0  0  0  0
 33 19  1  0  0  0  0
 34 52  1  1  0  0  0
 34 30  1  0  0  0  0
 35 33  2  0  0  0  0
 36 37  1  0  0  0  0
 37 39  1  0  0  0  0
 38 37  2  0  0  0  0
 39 40  1  0  0  0  0
 40 42  1  0  0  0  0
 42 41  2  0  0  0  0
 43 44  1  0  0  0  0
 46 42  1  6  0  0  0
 46 48  1  0  0  0  0
 47 43  1  0  0  0  0
 48 44  1  0  0  0  0
 48 45  1  1  0  0  0
 49 47  1  0  0  0  0
 49 50  1  0  0  0  0
 50 46  1  0  0  0  0
 51 53  1  0  0  0  0
 52 51  2  0  0  0  0
 53 54  1  0  0  0  0
 54 55  1  0  0  0  0
 55 57  1  0  0  0  0
 57 59  1  0  0  0  0
 59 56  1  0  0  0  0
 59 58  2  0  0  0  0
M  END
>  <MODEL>
2

>  <REMARK>
 VINA RESULT:      -8.0      1.766      2.330
  Name = 
  9 active torsions:
  status: ('A' for Active; 'I' for Inactive)
    1  A    between atoms: C_1  and  C_13
    2  A    between atoms: C_1  and  C_16
    3  A    between atoms: C_8  and  C_43
    4  A    between atoms: N_11  and  C_27
    5  A    between atoms: C_14  and  C_23
    6  A    between atoms: C_16  and  C_54
    7  A    between atoms: N_18  and  C_23
    8  A    between atoms: N_26  and  C_54
    9  A    between atoms: C_55  and  C_57
                            x       y       z     vdW  Elec       q    Type
                         _______ _______ _______ _____ _____    ______ ____

>  <TORSDO>
F 9

$$$$
=
 OpenBabel10222417303D

 59 65  0  0  1  0  0  0  0  0999 V2000
  185.6750  177.0120  137.3890 C   0  0  2  0  0  3  0  0  0  0  0  0
  185.5530  179.6830  146.0070 N   0  0  0  0  0  0  0  0  0  0  0  0
  181.6650  179.5890  138.1660 C   0  0  0  0  0  2  0  0  0  0  0  0
  189.0090  178.1210  142.2190 C   0  0  0  0  0  2  0  0  0  0  0  0
  187.9410  178.0610  137.7030 C   0  0  0  0  0  2  0  0  0  0  0  0
  182.4950  179.4630  139.4240 C   0  0  2  0  0  3  0  0  0  0  0  0
  190.5780  177.8750  139.1140 O   0  0  0  0  0  1  0  0  0  0  0  0
  187.5240  178.2920  142.2200 C   0  0  0  0  0  3  0  0  0  0  0  0
  181.7130  178.5860  137.3070 C   0  0  1  0  0  3  0  0  0  0  0  0
  186.6060  178.9180  145.2850 C   0  0  2  0  0  3  0  0  0  0  0  0
  184.8070  178.1730  137.2890 N   0  0  0  0  0  2  0  0  0  0  0  0
  189.3410  177.8930  139.7560 C   0  0  2  0  0  3  0  0  0  0  0  0
  182.4450  177.3600  137.3090 C   0  0  1  0  0  0  0  0  0  0  0  0
  187.0160  177.3290  136.7280 C   0  0  1  0  0  3  0  0  0  0  0  0
  186.6750  177.4750  142.8530 C   0  0  0  0  0  0  0  0  0  0  0  0
  187.1670  176.3940  143.7360 C   0  0  0  0  0  0  0  0  0  0  0  0
  185.4220  179.2590  147.3920 C   0  0  0  0  0  1  0  0  0  0  0  0
  184.6340  175.8510  136.4440 S   0  0  0  0  0  0  0  0  0  0  0  0
  185.1910  177.7520  142.8120 C   0  0  1  0  0  3  0  0  0  0  0  0
  183.7860  177.4580  136.5380 C   0  0  2  0  0  3  0  0  0  0  0  0
  185.2090  178.5250  145.1690 C   0  0  2  0  0  3  0  0  0  0  0  0
  187.3070  175.2430  143.2430 O   0  0  0  0  0  0  0  0  0  0  0  0
  182.5690  176.9190  138.7830 C   0  0  0  0  0  2  0  0  0  0  0  0
  181.4920  176.6340  136.5320 N   0  0  0  0  0  2  0  0  0  0  0  0
  189.4510  177.1970  141.0960 C   0  0  0  0  0  2  0  0  0  0  0  0
  180.8540  177.9310  136.2720 C   0  0  0  0  0  0  0  0  0  0  0  0
  183.4330  180.4920  139.4740 O   0  0  0  0  0  1  0  0  0  0  0  0
  184.8030  178.8920  143.7550 C   0  0  0  0  0  2  0  0  0  0  0  0
  188.3090  177.1930  138.8980 C   0  0  0  0  0  2  0  0  0  0  0  0
  187.4620  176.5780  145.1360 N   0  0  0  0  0  2  0  0  0  0  0  0
  179.8940  178.3180  135.5500 O   0  0  0  0  0  0  0  0  0  0  0  0
  183.2010  178.0860  139.5830 C   0  0  2  0  0  3  0  0  0  0  0  0
  184.7430  178.0430  141.4160 C   0  0  0  0  0  3  0  0  0  0  0  0
  187.3130  177.7680  145.9910 C   0  0  1  0  0  3  0  0  0  0  0  0
  183.5220  177.7540  140.9980 C   0  0  0  0  0  3  0  0  0  0  0  0
  187.6790  176.1480  136.1990 N   0  0  0  0  0  2  0  0  0  0  0  0
  188.7750  176.2560  135.2980 C   0  0  0  0  0  0  0  0  0  0  0  0
  189.0070  177.3390  134.6960 O   0  0  0  0  0  0  0  0  0  0  0  0
  189.6840  175.1030  135.1010 C   0  0  0  0  0  2  0  0  0  0  0  0
  191.0650  175.4960  135.3340 N   0  0  0  0  0  2  0  0  0  0  0  0
  191.6160  173.4490  136.3160 O   0  0  0  0  0  0  0  0  0  0  0  0
  191.9910  174.6010  135.9540 C   0  0  0  0  0  0  0  0  0  0  0  0
  196.1040  173.5320  137.2380 C   0  0  0  0  0  2  0  0  0  0  0  0
  195.4230  174.8300  137.7090 C   0  0  0  0  0  2  0  0  0  0  0  0
  193.3230  175.9310  138.4370 C   0  0  0  0  0  1  0  0  0  0  0  0
  193.4330  174.9850  136.1220 C   0  0  1  0  0  3  0  0  0  0  0  0
  195.1350  172.4950  136.6640 C   0  0  0  0  0  2  0  0  0  0  0  0
  193.9010  174.8240  137.5770 C   0  0  1  0  0  3  0  0  0  0  0  0
  194.6360  172.8590  135.2680 C   0  0  0  0  0  2  0  0  0  0  0  0
  194.3440  174.3510  135.0620 C   0  0  0  0  0  2  0  0  0  0  0  0
  189.3210  177.5390  147.3910 C   0  0  0  0  0  3  0  0  0  0  0  0
  188.6450  178.2320  146.4800 C   0  0  0  0  0  3  0  0  0  0  0  0
  190.6260  178.0260  147.9320 C   0  0  0  0  0  2  0  0  0  0  0  0
  191.6120  176.8830  148.0890 C   0  0  0  0  0  2  0  0  0  0  0  0
  191.7790  176.1920  146.7540 C   0  0  0  0  0  2  0  0  0  0  0  0
  191.9460  178.0160  143.3300 C   0  0  0  0  0  1  0  0  0  0  0  0
  192.0280  177.1560  145.7000 N   0  0  0  0  0  2  0  0  0  0  0  0
  191.0530  175.9150  143.9720 O   0  0  0  0  0  0  0  0  0  0  0  0
  191.6500  176.9610  144.3380 C   0  0  0  0  0  0  0  0  0  0  0  0
  1 18  1  6  0  0  0
  2 17  1  0  0  0  0
  3  6  1  0  0  0  0
  4  8  1  0  0  0  0
  5 29  1  0  0  0  0
  6 27  1  6  0  0  0
  6 32  1  0  0  0  0
  8 15  2  0  0  0  0
  9 13  1  0  0  0  0
  9  3  1  1  0  0  0
 10 34  1  0  0  0  0
 10  2  1  1  0  0  0
 11  1  1  0  0  0  0
 12  7  1  6  0  0  0
 12 25  1  0  0  0  0
 13 23  1  1  0  0  0
 14 36  1  1  0  0  0
 14  1  1  0  0  0  0
 14  5  1  0  0  0  0
 15 16  1  0  0  0  0
 16 30  1  0  0  0  0
 19 33  1  6  0  0  0
 19 15  1  0  0  0  0
 19 28  1  0  0  0  0
 20 18  1  1  0  0  0
 20 11  1  0  0  0  0
 20 13  1  0  0  0  0
 21 28  1  6  0  0  0
 21 10  1  0  0  0  0
 21  2  1  0  0  0  0
 22 16  2  0  0  0  0
 24 13  1  0  0  0  0
 25  4  1  0  0  0  0
 26 24  1  0  0  0  0
 26  9  1  0  0  0  0
 29 12  1  0  0  0  0
 30 34  1  0  0  0  0
 31 26  2  0  0  0  0
 32 23  1  1  0  0  0
 32 35  1  0  0  0  0
 34 52  1  6  0  0  0
 35 33  2  0  0  0  0
 37 36  1  0  0  0  0
 38 37  2  0  0  0  0
 39 37  1  0  0  0  0
 39 40  1  0  0  0  0
 40 42  1  0  0  0  0
 42 41  2  0  0  0  0
 43 44  1  0  0  0  0
 46 42  1  1  0  0  0
 46 48  1  0  0  0  0
 47 43  1  0  0  0  0
 48 44  1  0  0  0  0
 48 45  1  1  0  0  0
 49 47  1  0  0  0  0
 50 49  1  0  0  0  0
 50 46  1  0  0  0  0
 51 53  1  0  0  0  0
 52 51  2  0  0  0  0
 53 54  1  0  0  0  0
 55 54  1  0  0  0  0
 56 59  1  0  0  0  0
 57 55  1  0  0  0  0
 58 59  2  0  0  0  0
 59 57  1  0  0  0  0
M  END
>  <MODEL>
3

>  <REMARK>
 VINA RESULT:      -7.1      2.609     10.083
  Name = 
  9 active torsions:
  status: ('A' for Active; 'I' for Inactive)
    1  A    between atoms: C_1  and  C_13
    2  A    between atoms: C_1  and  C_16
    3  A    between atoms: C_8  and  C_43
    4  A    between atoms: N_11  and  C_27
    5  A    between atoms: C_14  and  C_23
    6  A    between atoms: C_16  and  C_54
    7  A    between atoms: N_18  and  C_23
    8  A    between atoms: N_26  and  C_54
    9  A    between atoms: C_55  and  C_57
                            x       y       z     vdW  Elec       q    Type
                         _______ _______ _______ _____ _____    ______ ____

>  <TORSDO>
F 9

$$$$
=
 OpenBabel10222417303D

 59 65  0  0  1  0  0  0  0  0999 V2000
  189.6400  177.1410  140.1900 C   0  0  2  0  0  3  0  0  0  0  0  0
  180.9000  178.6080  141.8870 N   0  0  0  0  0  0  0  0  0  0  0  0
  188.8570  176.5880  144.9230 C   0  0  0  0  0  2  0  0  0  0  0  0
  184.1410  177.1950  137.8570 C   0  0  0  0  0  2  0  0  0  0  0  0
  188.4700  175.6590  138.5260 C   0  0  0  0  0  2  0  0  0  0  0  0
  187.5880  176.9650  144.1920 C   0  0  2  0  0  3  0  0  0  0  0  0
  186.6890  175.5700  136.1170 O   0  0  0  0  0  1  0  0  0  0  0  0
  184.4020  177.5290  139.2910 C   0  0  0  0  0  3  0  0  0  0  0  0
  189.9950  177.0530  144.4370 C   0  0  1  0  0  3  0  0  0  0  0  0
  181.6060  178.6070  140.5760 C   0  0  2  0  0  3  0  0  0  0  0  0
  189.4870  176.3970  141.4280 N   0  0  0  0  0  2  0  0  0  0  0  0
  186.3750  176.2280  137.3040 C   0  0  2  0  0  3  0  0  0  0  0  0
  190.2900  177.8530  143.2930 C   0  0  1  0  0  0  0  0  0  0  0  0
  189.8240  176.1580  139.0330 C   0  0  1  0  0  3  0  0  0  0  0  0
  184.3220  178.7640  139.8010 C   0  0  0  0  0  0  0  0  0  0  0  0
  183.8210  179.8960  138.9900 C   0  0  0  0  0  0  0  0  0  0  0  0
  179.8380  179.6000  141.9340 C   0  0  0  0  0  1  0  0  0  0  0  0
  191.1530  178.0530  140.6410 S   0  0  0  0  0  0  0  0  0  0  0  0
  184.5800  178.9900  141.2710 C   0  0  1  0  0  3  0  0  0  0  0  0
  190.6550  177.0090  142.0450 C   0  0  2  0  0  3  0  0  0  0  0  0
  182.1640  179.3390  141.7040 C   0  0  2  0  0  3  0  0  0  0  0  0
  184.6640  180.6120  138.3870 O   0  0  0  0  0  0  0  0  0  0  0  0
  189.0980  178.8160  143.1050 C   0  0  0  0  0  2  0  0  0  0  0  0
  191.4700  178.4410  143.8410 N   0  0  0  0  0  2  0  0  0  0  0  0
  185.4020  177.3530  137.0230 C   0  0  0  0  0  2  0  0  0  0  0  0
  191.3610  177.4400  144.9100 C   0  0  0  0  0  0  0  0  0  0  0  0
  186.9530  175.8150  143.7260 O   0  0  0  0  0  1  0  0  0  0  0  0
  183.3900  178.5550  142.1270 C   0  0  0  0  0  2  0  0  0  0  0  0
  187.6350  176.7840  137.9310 C   0  0  0  0  0  2  0  0  0  0  0  0
  182.4250  180.2440  138.8790 N   0  0  0  0  0  2  0  0  0  0  0  0
  192.0770  177.1140  145.8970 O   0  0  0  0  0  0  0  0  0  0  0  0
  187.8040  177.9690  143.0220 C   0  0  2  0  0  3  0  0  0  0  0  0
  185.8290  178.2920  141.7050 C   0  0  0  0  0  3  0  0  0  0  0  0
  181.2430  179.6520  139.5290 C   0  0  1  0  0  3  0  0  0  0  0  0
  186.5810  178.7510  142.6910 C   0  0  0  0  0  3  0  0  0  0  0  0
  190.5960  176.7170  137.9350 N   0  0  0  0  0  2  0  0  0  0  0  0
  191.5720  175.9410  137.2480 C   0  0  0  0  0  0  0  0  0  0  0  0
  192.0130  174.8720  137.7500 O   0  0  0  0  0  0  0  0  0  0  0  0
  192.0370  176.3620  135.9060 C   0  0  0  0  0  2  0  0  0  0  0  0
  193.0790  175.4700  135.4220 N   0  0  0  0  0  2  0  0  0  0  0  0
  194.7930  176.7630  136.3420 O   0  0  0  0  0  0  0  0  0  0  0  0
  194.4580  175.7360  135.6850 C   0  0  0  0  0  0  0  0  0  0  0  0
  197.9840  173.2290  136.6790 C   0  0  0  0  0  2  0  0  0  0  0  0
  197.9960  174.2030  135.4870 C   0  0  0  0  0  2  0  0  0  0  0  0
  197.2990  176.4100  134.5980 C   0  0  0  0  0  1  0  0  0  0  0  0
  195.5220  174.7720  135.2470 C   0  0  1  0  0  3  0  0  0  0  0  0
  196.8650  173.4970  137.6890 C   0  0  0  0  0  2  0  0  0  0  0  0
  196.9330  175.2970  135.5590 C   0  0  1  0  0  3  0  0  0  0  0  0
  195.4930  173.0580  137.1860 C   0  0  0  0  0  2  0  0  0  0  0  0
  195.2400  173.3310  135.6970 C   0  0  0  0  0  2  0  0  0  0  0  0
  179.7910  177.8450  138.7100 C   0  0  0  0  0  3  0  0  0  0  0  0
  180.3380  179.0400  138.5120 C   0  0  0  0  0  3  0  0  0  0  0  0
  178.9330  177.1980  137.6730 C   0  0  0  0  0  2  0  0  0  0  0  0
  179.0510  175.6860  137.7310 C   0  0  0  0  0  2  0  0  0  0  0  0
  180.1990  175.3190  138.6440 C   0  0  0  0  0  2  0  0  0  0  0  0
  178.9330  173.3280  141.7280 C   0  0  0  0  0  1  0  0  0  0  0  0
  179.8160  174.2590  139.5570 N   0  0  0  0  0  2  0  0  0  0  0  0
  179.1430  175.6530  141.3120 O   0  0  0  0  0  0  0  0  0  0  0  0
  179.3040  174.4860  140.8690 C   0  0  0  0  0  0  0  0  0  0  0  0
  1 18  1  1  0  0  0
  1 11  1  0  0  0  0
  2 17  1  0  0  0  0
  4  8  1  0  0  0  0
  5 14  1  0  0  0  0
  6 27  1  6  0  0  0
  6  3  1  0  0  0  0
  8 15  2  0  0  0  0
  9 26  1  0  0  0  0
  9  3  1  1  0  0  0
 10 21  1  0  0  0  0
 10  2  1  1  0  0  0
 11 20  1  0  0  0  0
 12  7  1  6  0  0  0
 12 29  1  0  0  0  0
 13 23  1  6  0  0  0
 13 24  1  0  0  0  0
 13  9  1  0  0  0  0
 14 36  1  6  0  0  0
 14  1  1  0  0  0  0
 15 19  1  0  0  0  0
 16 15  1  0  0  0  0
 19 33  1  1  0  0  0
 19 28  1  0  0  0  0
 20 18  1  6  0  0  0
 20 13  1  0  0  0  0
 21  2  1  0  0  0  0
 21 28  1  1  0  0  0
 22 16  2  0  0  0  0
 24 26  1  0  0  0  0
 25 12  1  0  0  0  0
 25  4  1  0  0  0  0
 26 31  2  0  0  0  0
 29  5  1  0  0  0  0
 30 16  1  0  0  0  0
 30 34  1  0  0  0  0
 32 35  1  1  0  0  0
 32 23  1  0  0  0  0
 32  6  1  0  0  0  0
 33 35  2  0  0  0  0
 34 52  1  6  0  0  0
 34 10  1  0  0  0  0
 37 38  2  0  0  0  0
 37 36  1  0  0  0  0
 39 37  1  0  0  0  0
 40 42  1  0  0  0  0
 40 39  1  0  0  0  0
 42 41  2  0  0  0  0
 43 47  1  0  0  0  0
 44 48  1  0  0  0  0
 44 43  1  0  0  0  0
 46 48  1  0  0  0  0
 46 42  1  1  0  0  0
 46 50  1  0  0  0  0
 48 45  1  6  0  0  0
 49 47  1  0  0  0  0
 50 49  1  0  0  0  0
 52 51  2  0  0  0  0
 53 54  1  0  0  0  0
 53 51  1  0  0  0  0
 54 55  1  0  0  0  0
 55 57  1  0  0  0  0
 57 59  1  0  0  0  0
 59 58  2  0  0  0  0
 59 56  1  0  0  0  0
M  END
>  <MODEL>
4

>  <REMARK>
 VINA RESULT:      -6.6      2.989      8.492
  Name = 
  9 active torsions:
  status: ('A' for Active; 'I' for Inactive)
    1  A    between atoms: C_1  and  C_13
    2  A    between atoms: C_1  and  C_16
    3  A    between atoms: C_8  and  C_43
    4  A    between atoms: N_11  and  C_27
    5  A    between atoms: C_14  and  C_23
    6  A    between atoms: C_16  and  C_54
    7  A    between atoms: N_18  and  C_23
    8  A    between atoms: N_26  and  C_54
    9  A    between atoms: C_55  and  C_57
                            x       y       z     vdW  Elec       q    Type
                         _______ _______ _______ _____ _____    ______ ____

>  <TORSDO>
F 9

$$$$
=
 OpenBabel10222417303D

 59 65  0  0  1  0  0  0  0  0999 V2000
  189.5900  177.1350  140.1960 C   0  0  2  0  0  3  0  0  0  0  0  0
  180.8500  178.5510  141.9340 N   0  0  0  0  0  0  0  0  0  0  0  0
  188.8330  176.5800  144.9330 C   0  0  0  0  0  2  0  0  0  0  0  0
  184.0800  177.1560  137.8900 C   0  0  0  0  0  2  0  0  0  0  0  0
  188.4210  175.6460  138.5380 C   0  0  0  0  0  2  0  0  0  0  0  0
  187.5580  176.9490  144.2080 C   0  0  2  0  0  3  0  0  0  0  0  0
  186.6300  175.5460  136.1380 O   0  0  0  0  0  1  0  0  0  0  0  0
  184.3450  177.4920  139.3220 C   0  0  0  0  0  3  0  0  0  0  0  0
  189.9660  177.0510  144.4420 C   0  0  1  0  0  3  0  0  0  0  0  0
  181.5490  178.5530  140.6200 C   0  0  2  0  0  3  0  0  0  0  0  0
  189.4480  176.3910  141.4350 N   0  0  0  0  0  2  0  0  0  0  0  0
  186.3170  176.2020  137.3260 C   0  0  2  0  0  3  0  0  0  0  0  0
  190.2500  177.8530  143.2960 C   0  0  1  0  0  0  0  0  0  0  0  0
  189.7750  176.1540  139.0390 C   0  0  1  0  0  3  0  0  0  0  0  0
  184.2610  178.7260  139.8320 C   0  0  0  0  0  0  0  0  0  0  0  0
  183.7490  179.8550  139.0230 C   0  0  0  0  0  0  0  0  0  0  0  0
  179.7820  179.5360  141.9860 C   0  0  0  0  0  1  0  0  0  0  0  0
  191.1000  178.0570  140.6390 S   0  0  0  0  0  0  0  0  0  0  0  0
  184.5250  178.9540  141.3010 C   0  0  1  0  0  3  0  0  0  0  0  0
  190.6140  177.0110  142.0460 C   0  0  2  0  0  3  0  0  0  0  0  0
  182.1080  179.2890  141.7460 C   0  0  2  0  0  3  0  0  0  0  0  0
  184.5840  180.5760  138.4150 O   0  0  0  0  0  0  0  0  0  0  0  0
  189.0520  178.8080  143.1130 C   0  0  0  0  0  2  0  0  0  0  0  0
  191.4290  178.4480  143.8380 N   0  0  0  0  0  2  0  0  0  0  0  0
  185.3360  177.3210  137.0500 C   0  0  0  0  0  2  0  0  0  0  0  0
  191.3310  177.4470  144.9080 C   0  0  0  0  0  0  0  0  0  0  0  0
  186.9280  175.7950  143.7450 O   0  0  0  0  0  1  0  0  0  0  0  0
  183.3410  178.5120  142.1630 C   0  0  0  0  0  2  0  0  0  0  0  0
  187.5760  176.7660  137.9460 C   0  0  0  0  0  2  0  0  0  0  0  0
  182.3510  180.1940  138.9190 N   0  0  0  0  0  2  0  0  0  0  0  0
  192.0550  177.1250  145.8910 O   0  0  0  0  0  0  0  0  0  0  0  0
  187.7620  177.9530  143.0370 C   0  0  2  0  0  3  0  0  0  0  0  0
  185.7800  178.2640  141.7290 C   0  0  0  0  0  3  0  0  0  0  0  0
  181.1760  179.5950  139.5750 C   0  0  1  0  0  3  0  0  0  0  0  0
  186.5340  178.7280  142.7120 C   0  0  0  0  0  3  0  0  0  0  0  0
  190.5390  176.7160  137.9370 N   0  0  0  0  0  2  0  0  0  0  0  0
  191.3320  175.8920  137.0910 C   0  0  0  0  0  0  0  0  0  0  0  0
  191.6440  174.7220  137.4420 O   0  0  0  0  0  0  0  0  0  0  0  0
  191.7550  176.3910  135.7610 C   0  0  0  0  0  2  0  0  0  0  0  0
  192.9330  175.6760  135.2970 N   0  0  0  0  0  2  0  0  0  0  0  0
  194.3540  176.8020  136.7710 O   0  0  0  0  0  0  0  0  0  0  0  0
  194.2210  175.9350  135.8590 C   0  0  0  0  0  0  0  0  0  0  0  0
  198.1660  174.1450  136.8280 C   0  0  0  0  0  2  0  0  0  0  0  0
  197.9620  175.0230  135.5800 C   0  0  0  0  0  2  0  0  0  0  0  0
  196.8570  177.0120  134.5950 C   0  0  0  0  0  1  0  0  0  0  0  0
  195.4200  175.1410  135.4290 C   0  0  1  0  0  3  0  0  0  0  0  0
  197.0570  174.2850  137.8740 C   0  0  0  0  0  2  0  0  0  0  0  0
  196.7280  175.9210  135.6380 C   0  0  1  0  0  3  0  0  0  0  0  0
  195.7650  173.5830  137.4660 C   0  0  0  0  0  2  0  0  0  0  0  0
  195.4110  173.7070  135.9780 C   0  0  0  0  0  2  0  0  0  0  0  0
  180.3860  177.6980  138.2250 C   0  0  0  0  0  3  0  0  0  0  0  0
  180.2690  178.9780  138.5620 C   0  0  0  0  0  3  0  0  0  0  0  0
  179.5240  177.0870  137.1690 C   0  0  0  0  0  2  0  0  0  0  0  0
  179.8370  175.6120  136.9960 C   0  0  0  0  0  2  0  0  0  0  0  0
  181.1350  175.4710  136.2350 C   0  0  0  0  0  2  0  0  0  0  0  0
  184.0130  172.9710  136.9770 C   0  0  0  0  0  1  0  0  0  0  0  0
  181.9840  174.4630  136.8420 N   0  0  0  0  0  2  0  0  0  0  0  0
  183.6340  174.4750  135.1830 O   0  0  0  0  0  0  0  0  0  0  0  0
  183.2090  174.0060  136.2710 C   0  0  0  0  0  0  0  0  0  0  0  0
  1 18  1  1  0  0  0
  1 11  1  0  0  0  0
  2 17  1  0  0  0  0
  4  8  1  0  0  0  0
  5 14  1  0  0  0  0
  6 27  1  6  0  0  0
  6  3  1  0  0  0  0
  8 15  2  0  0  0  0
  9 26  1  0  0  0  0
  9  3  1  1  0  0  0
 10 21  1  0  0  0  0
 10  2  1  1  0  0  0
 11 20  1  0  0  0  0
 12  7  1  6  0  0  0
 12 29  1  0  0  0  0
 13 23  1  6  0  0  0
 13 24  1  0  0  0  0
 13  9  1  0  0  0  0
 14 36  1  6  0  0  0
 14  1  1  0  0  0  0
 15 19  1  0  0  0  0
 16 15  1  0  0  0  0
 19 33  1  1  0  0  0
 19 28  1  0  0  0  0
 20 18  1  6  0  0  0
 20 13  1  0  0  0  0
 21  2  1  0  0  0  0
 21 28  1  1  0  0  0
 22 16  2  0  0  0  0
 24 26  1  0  0  0  0
 25 12  1  0  0  0  0
 25  4  1  0  0  0  0
 26 31  2  0  0  0  0
 29  5  1  0  0  0  0
 30 16  1  0  0  0  0
 30 34  1  0  0  0  0
 32 35  1  1  0  0  0
 32 23  1  0  0  0  0
 32  6  1  0  0  0  0
 33 35  2  0  0  0  0
 34 52  1  6  0  0  0
 34 10  1  0  0  0  0
 37 38  2  0  0  0  0
 37 36  1  0  0  0  0
 39 37  1  0  0  0  0
 40 39  1  0  0  0  0
 40 42  1  0  0  0  0
 42 41  2  0  0  0  0
 43 47  1  0  0  0  0
 44 48  1  0  0  0  0
 44 43  1  0  0  0  0
 46 48  1  0  0  0  0
 46 42  1  1  0  0  0
 46 50  1  0  0  0  0
 48 45  1  6  0  0  0
 49 47  1  0  0  0  0
 50 49  1  0  0  0  0
 51 52  2  0  0  0  0
 53 51  1  0  0  0  0
 54 53  1  0  0  0  0
 55 57  1  0  0  0  0
 55 54  1  0  0  0  0
 58 59  2  0  0  0  0
 59 57  1  0  0  0  0
 59 56  1  0  0  0  0
M  END
>  <MODEL>
5

>  <REMARK>
 VINA RESULT:      -6.6      2.905      8.380
  Name = 
  9 active torsions:
  status: ('A' for Active; 'I' for Inactive)
    1  A    between atoms: C_1  and  C_13
    2  A    between atoms: C_1  and  C_16
    3  A    between atoms: C_8  and  C_43
    4  A    between atoms: N_11  and  C_27
    5  A    between atoms: C_14  and  C_23
    6  A    between atoms: C_16  and  C_54
    7  A    between atoms: N_18  and  C_23
    8  A    between atoms: N_26  and  C_54
    9  A    between atoms: C_55  and  C_57
                            x       y       z     vdW  Elec       q    Type
                         _______ _______ _______ _____ _____    ______ ____

>  <TORSDO>
F 9

$$$$
=
 OpenBabel10222417303D

 59 65  0  0  1  0  0  0  0  0999 V2000
  183.7010  176.5210  137.0890 C   0  0  2  0  0  3  0  0  0  0  0  0
  191.7000  172.5840  135.7010 N   0  0  0  0  0  0  0  0  0  0  0  0
  183.0010  171.8120  136.2750 C   0  0  0  0  0  2  0  0  0  0  0  0
  189.5840  176.9180  138.0410 C   0  0  0  0  0  2  0  0  0  0  0  0
  185.0700  177.2810  139.0590 C   0  0  0  0  0  2  0  0  0  0  0  0
  184.4680  172.1750  136.2040 C   0  0  2  0  0  3  0  0  0  0  0  0
  187.4350  178.8890  139.9530 O   0  0  0  0  0  1  0  0  0  0  0  0
  188.9740  175.7800  137.2870 C   0  0  0  0  0  3  0  0  0  0  0  0
  182.1310  172.7370  135.9080 C   0  0  1  0  0  3  0  0  0  0  0  0
  191.4090  174.0030  136.0450 C   0  0  2  0  0  3  0  0  0  0  0  0
  183.3810  175.1490  137.4450 N   0  0  0  0  0  2  0  0  0  0  0  0
  187.4880  177.8790  138.9960 C   0  0  2  0  0  3  0  0  0  0  0  0
  182.2980  174.0820  135.4620 C   0  0  1  0  0  0  0  0  0  0  0  0
  183.7160  177.3780  138.3550 C   0  0  1  0  0  3  0  0  0  0  0  0
  189.0840  175.6120  135.9640 C   0  0  0  0  0  0  0  0  0  0  0  0
  189.9560  176.4880  135.1510 C   0  0  0  0  0  0  0  0  0  0  0  0
  192.8370  172.4630  134.8020 C   0  0  0  0  0  1  0  0  0  0  0  0
  182.2720  176.8280  135.9980 S   0  0  0  0  0  0  0  0  0  0  0  0
  188.4490  174.4120  135.3030 C   0  0  1  0  0  3  0  0  0  0  0  0
  182.1880  175.1170  136.6120 C   0  0  2  0  0  3  0  0  0  0  0  0
  190.6640  173.3420  134.9830 C   0  0  2  0  0  3  0  0  0  0  0  0
  189.4370  177.4920  134.5950 O   0  0  0  0  0  0  0  0  0  0  0  0
  183.6200  174.1270  134.6680 C   0  0  0  0  0  2  0  0  0  0  0  0
  181.1090  174.1100  134.6720 N   0  0  0  0  0  2  0  0  0  0  0  0
  188.6530  178.1200  138.0610 C   0  0  0  0  0  2  0  0  0  0  0  0
  180.7590  172.8400  135.3200 C   0  0  0  0  0  0  0  0  0  0  0  0
  185.0340  172.0990  137.4750 O   0  0  0  0  0  1  0  0  0  0  0  0
  189.2670  173.1400  135.5360 C   0  0  0  0  0  2  0  0  0  0  0  0
  186.1960  177.8520  138.2080 C   0  0  0  0  0  2  0  0  0  0  0  0
  191.3600  176.2370  134.9330 N   0  0  0  0  0  2  0  0  0  0  0  0
  179.7490  172.0830  135.3010 O   0  0  0  0  0  0  0  0  0  0  0  0
  184.7460  173.5710  135.5760 C   0  0  2  0  0  3  0  0  0  0  0  0
  187.0410  174.2310  135.7690 C   0  0  0  0  0  3  0  0  0  0  0  0
  192.2060  175.1150  135.3760 C   0  0  1  0  0  3  0  0  0  0  0  0
  186.1120  173.6890  134.9980 C   0  0  0  0  0  3  0  0  0  0  0  0
  183.3820  178.7700  138.0990 N   0  0  0  0  0  2  0  0  0  0  0  0
  182.7690  179.5790  139.0970 C   0  0  0  0  0  0  0  0  0  0  0  0
  182.2230  179.0530  140.1050 O   0  0  0  0  0  0  0  0  0  0  0  0
  182.8170  181.0550  138.9810 C   0  0  0  0  0  2  0  0  0  0  0  0
  181.5320  181.5750  138.5420 N   0  0  0  0  0  2  0  0  0  0  0  0
  182.4030  183.6910  138.0730 O   0  0  0  0  0  0  0  0  0  0  0  0
  181.3980  182.9240  138.0910 C   0  0  0  0  0  0  0  0  0  0  0  0
  179.1100  185.0910  134.9640 C   0  0  0  0  0  2  0  0  0  0  0  0
  178.9560  185.4290  136.4570 C   0  0  0  0  0  2  0  0  0  0  0  0
  180.0690  185.6850  138.6580 C   0  0  0  0  0  1  0  0  0  0  0  0
  180.0850  183.4320  137.5690 C   0  0  1  0  0  3  0  0  0  0  0  0
  180.3660  184.2790  134.6370 C   0  0  0  0  0  2  0  0  0  0  0  0
  180.1120  184.9500  137.3330 C   0  0  1  0  0  3  0  0  0  0  0  0
  180.2540  182.8170  135.0610 C   0  0  0  0  0  2  0  0  0  0  0  0
  179.5450  182.5920  136.4030 C   0  0  0  0  0  2  0  0  0  0  0  0
  193.4510  175.0210  137.4940 C   0  0  0  0  0  3  0  0  0  0  0  0
  193.2660  175.5950  136.3100 C   0  0  0  0  0  3  0  0  0  0  0  0
  194.4670  175.5330  138.4610 C   0  0  0  0  0  2  0  0  0  0  0  0
  195.3930  174.4210  138.9190 C   0  0  0  0  0  2  0  0  0  0  0  0
  196.7250  174.5720  138.2210 C   0  0  0  0  0  2  0  0  0  0  0  0
  197.0630  172.1690  135.1890 C   0  0  0  0  0  1  0  0  0  0  0  0
  196.9990  173.4260  137.3740 N   0  0  0  0  0  2  0  0  0  0  0  0
  196.2570  174.3910  135.3760 O   0  0  0  0  0  0  0  0  0  0  0  0
  196.7410  173.3940  135.9720 C   0  0  0  0  0  0  0  0  0  0  0  0
  1 18  1  6  0  0  0
  1 11  1  0  0  0  0
  1 14  1  0  0  0  0
  4 25  1  0  0  0  0
  6  3  1  0  0  0  0
  6 27  1  1  0  0  0
  8  4  1  0  0  0  0
  9  3  1  6  0  0  0
 10  2  1  6  0  0  0
 12  7  1  1  0  0  0
 13 23  1  6  0  0  0
 13  9  1  0  0  0  0
 13 20  1  0  0  0  0
 14 36  1  6  0  0  0
 14  5  1  0  0  0  0
 15  8  2  0  0  0  0
 16 15  1  0  0  0  0
 17  2  1  0  0  0  0
 19 28  1  1  0  0  0
 19 33  1  0  0  0  0
 19 15  1  0  0  0  0
 20 18  1  6  0  0  0
 20 11  1  0  0  0  0
 21 28  1  1  0  0  0
 21  2  1  0  0  0  0
 21 10  1  0  0  0  0
 22 16  2  0  0  0  0
 24 26  1  0  0  0  0
 24 13  1  0  0  0  0
 25 12  1  0  0  0  0
 26  9  1  0  0  0  0
 29 12  1  0  0  0  0
 29  5  1  0  0  0  0
 30 16  1  0  0  0  0
 30 34  1  0  0  0  0
 31 26  2  0  0  0  0
 32 23  1  6  0  0  0
 32  6  1  0  0  0  0
 34 10  1  0  0  0  0
 34 52  1  1  0  0  0
 35 32  1  0  0  0  0
 35 33  2  0  0  0  0
 36 37  1  0  0  0  0
 37 38  2  0  0  0  0
 39 37  1  0  0  0  0
 40 39  1  0  0  0  0
 41 42  2  0  0  0  0
 42 40  1  0  0  0  0
 43 44  1  0  0  0  0
 44 48  1  0  0  0  0
 46 42  1  6  0  0  0
 47 43  1  0  0  0  0
 47 49  1  0  0  0  0
 48 46  1  0  0  0  0
 48 45  1  1  0  0  0
 49 50  1  0  0  0  0
 50 46  1  0  0  0  0
 51 53  1  0  0  0  0
 52 51  2  0  0  0  0
 53 54  1  0  0  0  0
 55 54  1  0  0  0  0
 56 59  1  0  0  0  0
 57 55  1  0  0  0  0
 58 59  2  0  0  0  0
 59 57  1  0  0  0  0
M  END
>  <MODEL>
6

>  <REMARK>
 VINA RESULT:      -5.8      4.280     11.121
  Name = 
  9 active torsions:
  status: ('A' for Active; 'I' for Inactive)
    1  A    between atoms: C_1  and  C_13
    2  A    between atoms: C_1  and  C_16
    3  A    between atoms: C_8  and  C_43
    4  A    between atoms: N_11  and  C_27
    5  A    between atoms: C_14  and  C_23
    6  A    between atoms: C_16  and  C_54
    7  A    between atoms: N_18  and  C_23
    8  A    between atoms: N_26  and  C_54
    9  A    between atoms: C_55  and  C_57
                            x       y       z     vdW  Elec       q    Type
                         _______ _______ _______ _____ _____    ______ ____

>  <TORSDO>
F 9

$$$$
