=
 OpenBabel10222415383D

 40 45  0  0  1  0  0  0  0  0999 V2000
  186.1280  178.2000  139.3870 N   0  0  0  0  0  0  0  0  0  0  0  0
  184.6780  177.5050  137.4910 C   0  0  0  0  0  3  0  0  0  0  0  0
  182.7040  177.7530  140.2980 C   0  0  0  0  0  2  0  0  0  0  0  0
  183.3120  178.6900  139.2210 C   0  0  2  0  0  3  0  0  0  0  0  0
  184.2630  178.6590  143.0540 C   0  0  2  0  0  3  0  0  0  0  0  0
  182.2720  180.8150  138.2550 N   0  0  0  0  0  0  0  0  0  0  0  0
  186.4500  177.2190  142.5160 O   0  0  0  0  0  1  0  0  0  0  0  0
  187.3480  178.3190  139.9900 C   0  0  0  0  0  0  0  0  0  0  0  0
  188.6520  179.6910  141.6260 C   0  0  0  0  0  1  0  0  0  0  0  0
  180.9330  178.2460  142.1430 C   0  0  0  0  0  2  0  0  0  0  0  0
  180.3320  180.5090  140.2010 N   0  0  0  0  0  0  0  0  0  0  0  0
  187.1100  177.1130  137.5060 C   0  0  0  0  0  3  0  0  0  0  0  0
  186.5280  178.6130  142.3550 C   0  0  2  0  0  3  0  0  0  0  0  0
  185.2150  179.2040  142.1020 N   0  0  0  0  0  2  0  0  0  0  0  0
  182.2770  179.7490  139.0940 C   0  0  0  0  0  0  0  0  0  0  0  0
  182.9870  179.3820  142.9490 N   0  0  2  0  0  0  0  0  0  0  0  0
  181.5190  178.4470  140.8180 N   0  0  0  0  0  0  0  0  0  0  0  0
  185.9850  177.6180  138.1640 C   0  0  0  0  0  0  0  0  0  0  0  0
  183.9380  179.6560  144.0670 C   0  0  1  0  0  3  0  0  0  0  0  0
  181.9680  178.3810  143.2600 C   0  0  0  0  0  2  0  0  0  0  0  0
  188.4890  177.8130  139.3510 C   0  0  0  0  0  3  0  0  0  0  0  0
  183.5060  177.9680  137.9290 C   0  0  0  0  0  3  0  0  0  0  0  0
  179.2440  182.5410  139.4910 N   0  0  0  0  0  1  0  0  0  0  0  0
  187.4620  178.9310  141.2820 N   0  0  0  0  0  0  0  0  0  0  0  0
  188.3770  177.2020  138.0980 C   0  0  0  0  0  0  0  0  0  0  0  0
  181.3280  179.6050  140.0490 C   0  0  0  0  0  0  0  0  0  0  0  0
  181.2680  181.7350  138.3620 C   0  0  0  0  0  3  0  0  0  0  0  0
  180.2820  181.5800  139.3590 C   0  0  0  0  0  0  0  0  0  0  0  0
  190.7080  176.2600  138.2250 C   0  0  0  0  0  2  0  0  0  0  0  0
  191.5260  175.2390  137.4370 C   0  0  0  0  0  2  0  0  0  0  0  0
  191.8380  175.7630  136.1670 O   0  0  0  0  0  0  0  0  0  0  0  0
  189.5350  176.6550  137.4380 N   0  0  0  0  0  0  0  0  0  0  0  0
  190.6340  175.7670  135.4390 C   0  0  0  0  0  2  0  0  0  0  0  0
  189.7020  176.8440  135.9930 C   0  0  0  0  0  2  0  0  0  0  0  0
  183.6060  178.9620  145.3990 C   0  0  0  0  0  2  0  0  0  0  0  0
  184.7750  178.0940  145.8420 C   0  0  0  0  0  2  0  0  0  0  0  0
  185.7270  178.8820  146.7340 C   0  0  0  0  0  2  0  0  0  0  0  0
  187.0400  178.1430  146.8660 C   0  0  0  0  0  2  0  0  0  0  0  0
  187.2530  177.3750  145.7250 O   0  0  0  0  0  0  0  0  0  0  0  0
  188.6430  177.3800  145.5480 C   0  0  0  0  0  1  0  0  0  0  0  0
  1  8  1  0  0  0  0
  2 22  2  0  0  0  0
  2 18  1  0  0  0  0
  3 17  1  0  0  0  0
  4 22  1  6  0  0  0
  4  3  1  0  0  0  0
  5 14  1  6  0  0  0
  5 19  1  0  0  0  0
  6 27  2  0  0  0  0
  6 15  1  0  0  0  0
  8 24  1  0  0  0  0
 10 20  1  0  0  0  0
 12 25  2  0  0  0  0
 12 18  1  0  0  0  0
 13  7  1  6  0  0  0
 14 13  1  0  0  0  0
 15  4  1  0  0  0  0
 15 26  2  0  0  0  0
 16  5  1  0  0  0  0
 16 20  1  1  0  0  0
 16 19  1  0  0  0  0
 17 10  1  0  0  0  0
 18  1  2  0  0  0  0
 19 35  1  1  0  0  0
 21  8  2  0  0  0  0
 24  9  1  0  0  0  0
 24 13  1  0  0  0  0
 25 21  1  0  0  0  0
 26 11  1  0  0  0  0
 26 17  1  0  0  0  0
 27 28  1  0  0  0  0
 28 23  1  0  0  0  0
 28 11  2  0  0  0  0
 30 29  1  0  0  0  0
 31 30  1  0  0  0  0
 32 25  1  0  0  0  0
 32 29  1  0  0  0  0
 33 34  1  0  0  0  0
 33 31  1  0  0  0  0
 34 32  1  0  0  0  0
 35 36  1  0  0  0  0
 36 37  1  0  0  0  0
 37 38  1  0  0  0  0
 39 38  1  0  0  0  0
 40 39  1  0  0  0  0
M  END
>  <MODEL>
1

>  <REMARK>
 VINA RESULT:      -6.5      0.000      0.000
  Name = 
  6 active torsions:
  status: ('A' for Active; 'I' for Inactive)
    1  A    between atoms: C_4  and  C_8
    2  A    between atoms: C_4  and  C_30
    3  A    between atoms: C_8  and  C_25
    4  A    between atoms: C_24  and  C_30
    5  A    between atoms: C_25  and  O_27
    6  A    between atoms: N_32  and  C_35
                            x       y       z     vdW  Elec       q    Type
                         _______ _______ _______ _____ _____    ______ ____

>  <TORSDO>
F 6

$$$$
=
 OpenBabel10222415383D

 40 45  0  0  1  0  0  0  0  0999 V2000
  192.2810  175.2640  137.5700 N   0  0  0  0  0  0  0  0  0  0  0  0
  193.4070  176.8450  139.1250 C   0  0  0  0  0  3  0  0  0  0  0  0
  190.1450  177.8730  138.7480 C   0  0  0  0  0  2  0  0  0  0  0  0
  190.9440  176.8230  139.5660 C   0  0  2  0  0  3  0  0  0  0  0  0
  188.2950  176.0250  136.7450 C   0  0  2  0  0  3  0  0  0  0  0  0
  190.4540  176.0150  141.9400 N   0  0  0  0  0  0  0  0  0  0  0  0
  190.2680  175.6210  134.9860 O   0  0  0  0  0  1  0  0  0  0  0  0
  192.3070  174.3220  136.5820 C   0  0  0  0  0  0  0  0  0  0  0  0
  191.0720  172.3560  135.6500 C   0  0  0  0  0  1  0  0  0  0  0  0
  187.6620  178.6280  138.9610 C   0  0  0  0  0  2  0  0  0  0  0  0
  188.1110  177.4660  141.7370 N   0  0  0  0  0  0  0  0  0  0  0  0
  194.6530  175.4810  137.4950 C   0  0  0  0  0  3  0  0  0  0  0  0
  189.9140  174.5540  135.8290 C   0  0  2  0  0  3  0  0  0  0  0  0
  189.2960  175.0230  137.0680 N   0  0  0  0  0  2  0  0  0  0  0  0
  190.1770  176.7540  140.8370 C   0  0  0  0  0  0  0  0  0  0  0  0
  187.5270  176.3660  137.9520 N   0  0  2  0  0  0  0  0  0  0  0  0
  188.9250  178.1450  139.5180 N   0  0  0  0  0  0  0  0  0  0  0  0
  193.4190  175.8440  138.0420 C   0  0  0  0  0  0  0  0  0  0  0  0
  186.9570  175.4690  136.9030 C   0  0  1  0  0  3  0  0  0  0  0  0
  187.1830  177.7760  137.7860 C   0  0  0  0  0  2  0  0  0  0  0  0
  193.5340  173.9480  136.0140 C   0  0  0  0  0  3  0  0  0  0  0  0
  192.3440  177.2800  139.8040 C   0  0  0  0  0  3  0  0  0  0  0  0
  187.4280  176.7470  143.9340 N   0  0  0  0  0  1  0  0  0  0  0  0
  191.0880  173.7360  136.1040 N   0  0  0  0  0  0  0  0  0  0  0  0
  194.7220  174.5290  136.4680 C   0  0  0  0  0  0  0  0  0  0  0  0
  189.0260  177.4610  140.7390 C   0  0  0  0  0  0  0  0  0  0  0  0
  189.5660  176.0170  142.9770 C   0  0  0  0  0  3  0  0  0  0  0  0
  188.3680  176.7530  142.8690 C   0  0  0  0  0  0  0  0  0  0  0  0
  197.1270  175.0950  135.9880 C   0  0  0  0  0  2  0  0  0  0  0  0
  198.4280  174.3120  135.8130 C   0  0  0  0  0  2  0  0  0  0  0  0
  198.3850  173.5920  134.6030 O   0  0  0  0  0  0  0  0  0  0  0  0
  195.9890  174.1760  135.8800 N   0  0  0  0  0  0  0  0  0  0  0  0
  197.4640  172.5460  134.8030 C   0  0  0  0  0  2  0  0  0  0  0  0
  196.0470  173.1160  134.8680 C   0  0  0  0  0  2  0  0  0  0  0  0
  185.9900  176.1410  135.9160 C   0  0  0  0  0  2  0  0  0  0  0  0
  184.6740  175.3780  135.8700 C   0  0  0  0  0  2  0  0  0  0  0  0
  184.2500  174.9450  137.2690 C   0  0  0  0  0  2  0  0  0  0  0  0
  183.6150  176.1090  137.9980 C   0  0  0  0  0  2  0  0  0  0  0  0
  182.8900  175.6290  139.0850 O   0  0  0  0  0  0  0  0  0  0  0  0
  182.5910  176.7690  139.8430 C   0  0  0  0  0  1  0  0  0  0  0  0
  1 18  1  0  0  0  0
  2 22  2  0  0  0  0
  3 17  1  0  0  0  0
  4  3  1  6  0  0  0
  4 22  1  0  0  0  0
  4 15  1  0  0  0  0
  5 19  1  0  0  0  0
  5 14  1  1  0  0  0
  5 16  1  0  0  0  0
  6 27  1  0  0  0  0
  8  1  2  0  0  0  0
  9 24  1  0  0  0  0
 10 17  1  0  0  0  0
 11 28  1  0  0  0  0
 12 18  2  0  0  0  0
 13  7  1  6  0  0  0
 13 24  1  0  0  0  0
 13 14  1  0  0  0  0
 15  6  2  0  0  0  0
 16 20  1  6  0  0  0
 17 26  1  0  0  0  0
 18  2  1  0  0  0  0
 19 35  1  6  0  0  0
 19 16  1  0  0  0  0
 20 10  1  0  0  0  0
 21 25  2  0  0  0  0
 21  8  1  0  0  0  0
 24  8  1  0  0  0  0
 25 12  1  0  0  0  0
 26 15  1  0  0  0  0
 26 11  2  0  0  0  0
 28 27  2  0  0  0  0
 28 23  1  0  0  0  0
 30 29  1  0  0  0  0
 31 33  1  0  0  0  0
 31 30  1  0  0  0  0
 32 29  1  0  0  0  0
 32 25  1  0  0  0  0
 33 34  1  0  0  0  0
 34 32  1  0  0  0  0
 36 35  1  0  0  0  0
 36 37  1  0  0  0  0
 37 38  1  0  0  0  0
 38 39  1  0  0  0  0
 39 40  1  0  0  0  0
M  END
>  <MODEL>
2

>  <REMARK>
 VINA RESULT:      -6.0      4.250      8.445
  Name = 
  6 active torsions:
  status: ('A' for Active; 'I' for Inactive)
    1  A    between atoms: C_4  and  C_8
    2  A    between atoms: C_4  and  C_30
    3  A    between atoms: C_8  and  C_25
    4  A    between atoms: C_24  and  C_30
    5  A    between atoms: C_25  and  O_27
    6  A    between atoms: N_32  and  C_35
                            x       y       z     vdW  Elec       q    Type
                         _______ _______ _______ _____ _____    ______ ____

>  <TORSDO>
F 6

$$$$
=
 OpenBabel10222415383D

 40 45  0  0  1  0  0  0  0  0999 V2000
  192.2060  175.2210  137.5510 N   0  0  0  0  0  0  0  0  0  0  0  0
  193.3400  176.8030  139.0990 C   0  0  0  0  0  3  0  0  0  0  0  0
  190.0780  177.8330  138.7350 C   0  0  0  0  0  2  0  0  0  0  0  0
  190.8790  176.7830  139.5500 C   0  0  2  0  0  3  0  0  0  0  0  0
  188.2180  175.9840  136.7420 C   0  0  2  0  0  3  0  0  0  0  0  0
  190.3990  175.9790  141.9280 N   0  0  0  0  0  0  0  0  0  0  0  0
  190.1820  175.5770  134.9760 O   0  0  0  0  0  1  0  0  0  0  0  0
  192.2270  174.2780  136.5640 C   0  0  0  0  0  0  0  0  0  0  0  0
  190.9870  172.3120  135.6390 C   0  0  0  0  0  1  0  0  0  0  0  0
  187.5950  178.5900  138.9570 C   0  0  0  0  0  2  0  0  0  0  0  0
  188.0550  177.4310  141.7330 N   0  0  0  0  0  0  0  0  0  0  0  0
  194.5780  175.4370  137.4650 C   0  0  0  0  0  3  0  0  0  0  0  0
  189.8310  174.5110  135.8210 C   0  0  2  0  0  3  0  0  0  0  0  0
  189.2190  174.9820  137.0620 N   0  0  0  0  0  2  0  0  0  0  0  0
  190.1180  176.7170  140.8250 C   0  0  0  0  0  0  0  0  0  0  0  0
  187.4550  176.3270  137.9520 N   0  0  2  0  0  0  0  0  0  0  0  0
  188.8600  178.1070  139.5090 N   0  0  0  0  0  0  0  0  0  0  0  0
  193.3470  175.8010  138.0170 C   0  0  0  0  0  0  0  0  0  0  0  0
  186.8800  175.4280  136.9070 C   0  0  1  0  0  3  0  0  0  0  0  0
  187.1110  177.7370  137.7850 C   0  0  0  0  0  2  0  0  0  0  0  0
  193.4520  173.9030  135.9920 C   0  0  0  0  0  3  0  0  0  0  0  0
  192.2800  177.2400  139.7820 C   0  0  0  0  0  3  0  0  0  0  0  0
  187.3820  176.7150  143.9340 N   0  0  0  0  0  1  0  0  0  0  0  0
  191.0060  173.6930  136.0920 N   0  0  0  0  0  0  0  0  0  0  0  0
  194.6420  174.4830  136.4400 C   0  0  0  0  0  0  0  0  0  0  0  0
  188.9660  177.4240  140.7310 C   0  0  0  0  0  0  0  0  0  0  0  0
  189.5160  175.9820  142.9690 C   0  0  0  0  0  3  0  0  0  0  0  0
  188.3170  176.7200  142.8650 C   0  0  0  0  0  0  0  0  0  0  0  0
  196.2730  172.7160  135.6980 C   0  0  0  0  0  2  0  0  0  0  0  0
  197.3200  172.5780  134.5940 C   0  0  0  0  0  2  0  0  0  0  0  0
  198.4100  173.4280  134.8690 O   0  0  0  0  0  0  0  0  0  0  0  0
  195.9060  174.1280  135.8470 N   0  0  0  0  0  0  0  0  0  0  0  0
  197.9500  174.7390  134.6460 C   0  0  0  0  0  2  0  0  0  0  0  0
  196.9690  175.1340  135.7500 C   0  0  0  0  0  2  0  0  0  0  0  0
  185.9090  176.1000  135.9230 C   0  0  0  0  0  2  0  0  0  0  0  0
  184.5730  175.3720  135.9260 C   0  0  0  0  0  2  0  0  0  0  0  0
  184.2310  174.8730  137.3260 C   0  0  0  0  0  2  0  0  0  0  0  0
  183.5980  173.5010  137.2440 C   0  0  0  0  0  2  0  0  0  0  0  0
  184.5960  172.5320  137.2820 O   0  0  0  0  0  0  0  0  0  0  0  0
  184.1010  171.4810  136.4980 C   0  0  0  0  0  1  0  0  0  0  0  0
  1 18  1  0  0  0  0
  2 22  2  0  0  0  0
  3 17  1  0  0  0  0
  4  3  1  6  0  0  0
  4 22  1  0  0  0  0
  4 15  1  0  0  0  0
  5 19  1  0  0  0  0
  5 14  1  1  0  0  0
  5 16  1  0  0  0  0
  6 27  1  0  0  0  0
  8  1  2  0  0  0  0
  9 24  1  0  0  0  0
 10 17  1  0  0  0  0
 11 28  1  0  0  0  0
 12 18  2  0  0  0  0
 13  7  1  6  0  0  0
 13 24  1  0  0  0  0
 13 14  1  0  0  0  0
 15  6  2  0  0  0  0
 16 20  1  6  0  0  0
 17 26  1  0  0  0  0
 18  2  1  0  0  0  0
 19 35  1  6  0  0  0
 19 16  1  0  0  0  0
 20 10  1  0  0  0  0
 21 25  2  0  0  0  0
 21  8  1  0  0  0  0
 24  8  1  0  0  0  0
 25 12  1  0  0  0  0
 26 15  1  0  0  0  0
 26 11  2  0  0  0  0
 28 27  2  0  0  0  0
 28 23  1  0  0  0  0
 29 32  1  0  0  0  0
 30 31  1  0  0  0  0
 30 29  1  0  0  0  0
 32 25  1  0  0  0  0
 33 31  1  0  0  0  0
 33 34  1  0  0  0  0
 34 32  1  0  0  0  0
 35 36  1  0  0  0  0
 36 37  1  0  0  0  0
 38 39  1  0  0  0  0
 38 37  1  0  0  0  0
 40 39  1  0  0  0  0
M  END
>  <MODEL>
3

>  <REMARK>
 VINA RESULT:      -6.0      4.986      8.613
  Name = 
  6 active torsions:
  status: ('A' for Active; 'I' for Inactive)
    1  A    between atoms: C_4  and  C_8
    2  A    between atoms: C_4  and  C_30
    3  A    between atoms: C_8  and  C_25
    4  A    between atoms: C_24  and  C_30
    5  A    between atoms: C_25  and  O_27
    6  A    between atoms: N_32  and  C_35
                            x       y       z     vdW  Elec       q    Type
                         _______ _______ _______ _____ _____    ______ ____

>  <TORSDO>
F 6

$$$$
=
 OpenBabel10222415383D

 40 45  0  0  1  0  0  0  0  0999 V2000
  184.9030  178.0990  139.4260 N   0  0  0  0  0  0  0  0  0  0  0  0
  184.5110  177.9430  136.9760 C   0  0  0  0  0  3  0  0  0  0  0  0
  187.9010  177.7190  137.5230 C   0  0  0  0  0  2  0  0  0  0  0  0
  186.6540  176.7960  137.5730 C   0  0  2  0  0  3  0  0  0  0  0  0
  188.8450  177.8850  140.6740 C   0  0  2  0  0  3  0  0  0  0  0  0
  186.5460  174.3110  136.9880 N   0  0  0  0  0  0  0  0  0  0  0  0
  187.0400  179.7500  141.3140 O   0  0  0  0  0  1  0  0  0  0  0  0
  184.5220  178.4620  140.6870 C   0  0  0  0  0  0  0  0  0  0  0  0
  184.7890  177.8890  143.1070 C   0  0  0  0  0  1  0  0  0  0  0  0
  190.4330  177.1260  137.6750 C   0  0  0  0  0  2  0  0  0  0  0  0
  189.3010  174.4380  136.8100 N   0  0  0  0  0  0  0  0  0  0  0  0
  182.9030  179.0120  138.5060 C   0  0  0  0  0  3  0  0  0  0  0  0
  186.8060  178.4360  141.7510 C   0  0  2  0  0  3  0  0  0  0  0  0
  187.4770  177.4530  140.9020 N   0  0  0  0  0  2  0  0  0  0  0  0
  187.2090  175.4820  137.1570 C   0  0  0  0  0  0  0  0  0  0  0  0
  189.5940  176.8190  139.9900 N   0  0  2  0  0  0  0  0  0  0  0  0
  189.0510  176.8360  137.2930 N   0  0  0  0  0  0  0  0  0  0  0  0
  184.1240  178.3510  138.3390 C   0  0  0  0  0  0  0  0  0  0  0  0
  189.7670  177.0660  141.4530 C   0  0  1  0  0  3  0  0  0  0  0  0
  190.5550  177.5260  139.1450 C   0  0  0  0  0  2  0  0  0  0  0  0
  183.3050  179.1330  140.8760 C   0  0  0  0  0  3  0  0  0  0  0  0
  185.6030  177.2630  136.6220 C   0  0  0  0  0  3  0  0  0  0  0  0
  189.4180  172.0790  136.3240 N   0  0  0  0  0  1  0  0  0  0  0  0
  185.3710  178.1870  141.8100 N   0  0  0  0  0  0  0  0  0  0  0  0
  182.4830  179.4150  139.7810 C   0  0  0  0  0  0  0  0  0  0  0  0
  188.5600  175.5390  137.0740 C   0  0  0  0  0  0  0  0  0  0  0  0
  187.2580  173.1840  136.6940 C   0  0  0  0  0  3  0  0  0  0  0  0
  188.6650  173.2490  136.6100 C   0  0  0  0  0  0  0  0  0  0  0  0
  180.9430  181.2910  139.1150 C   0  0  0  0  0  2  0  0  0  0  0  0
  179.4320  181.5130  139.0750 C   0  0  0  0  0  2  0  0  0  0  0  0
  178.9350  181.6100  140.3900 O   0  0  0  0  0  0  0  0  0  0  0  0
  181.2410  180.1250  139.9530 N   0  0  0  0  0  0  0  0  0  0  0  0
  179.0050  180.3120  140.9300 C   0  0  0  0  0  2  0  0  0  0  0  0
  180.4660  179.9400  141.1830 C   0  0  0  0  0  2  0  0  0  0  0  0
  191.0040  177.8930  141.8400 C   0  0  0  0  0  2  0  0  0  0  0  0
  191.3410  177.6740  143.3070 C   0  0  0  0  0  2  0  0  0  0  0  0
  190.4530  178.5320  144.2010 C   0  0  0  0  0  2  0  0  0  0  0  0
  189.8100  177.6710  145.2670 C   0  0  0  0  0  2  0  0  0  0  0  0
  188.5390  177.2900  144.8450 O   0  0  0  0  0  0  0  0  0  0  0  0
  187.6760  177.7780  145.8350 C   0  0  0  0  0  1  0  0  0  0  0  0
  1  8  1  0  0  0  0
  2 18  1  0  0  0  0
  3  4  1  0  0  0  0
  4 22  1  6  0  0  0
  5 14  1  1  0  0  0
  5 19  1  0  0  0  0
  6 15  1  0  0  0  0
  8 21  2  0  0  0  0
  8 24  1  0  0  0  0
 10 20  1  0  0  0  0
 11 26  1  0  0  0  0
 12 25  2  0  0  0  0
 13  7  1  6  0  0  0
 13 24  1  0  0  0  0
 14 13  1  0  0  0  0
 15  4  1  0  0  0  0
 16 20  1  6  0  0  0
 16  5  1  0  0  0  0
 16 19  1  0  0  0  0
 17  3  1  0  0  0  0
 17 10  1  0  0  0  0
 18 12  1  0  0  0  0
 18  1  2  0  0  0  0
 19 35  1  6  0  0  0
 22  2  2  0  0  0  0
 23 28  1  0  0  0  0
 24  9  1  0  0  0  0
 25 32  1  0  0  0  0
 25 21  1  0  0  0  0
 26 15  2  0  0  0  0
 26 17  1  0  0  0  0
 27  6  2  0  0  0  0
 28 27  1  0  0  0  0
 28 11  2  0  0  0  0
 29 32  1  0  0  0  0
 30 29  1  0  0  0  0
 30 31  1  0  0  0  0
 31 33  1  0  0  0  0
 32 34  1  0  0  0  0
 33 34  1  0  0  0  0
 35 36  1  0  0  0  0
 36 37  1  0  0  0  0
 37 38  1  0  0  0  0
 39 38  1  0  0  0  0
 39 40  1  0  0  0  0
M  END
>  <MODEL>
4

>  <REMARK>
 VINA RESULT:      -5.6      2.475      7.910
  Name = 
  6 active torsions:
  status: ('A' for Active; 'I' for Inactive)
    1  A    between atoms: C_4  and  C_8
    2  A    between atoms: C_4  and  C_30
    3  A    between atoms: C_8  and  C_25
    4  A    between atoms: C_24  and  C_30
    5  A    between atoms: C_25  and  O_27
    6  A    between atoms: N_32  and  C_35
                            x       y       z     vdW  Elec       q    Type
                         _______ _______ _______ _____ _____    ______ ____

>  <TORSDO>
F 6

$$$$
=
 OpenBabel10222415383D

 40 45  0  0  1  0  0  0  0  0999 V2000
  188.6880  175.9830  137.5640 N   0  0  0  0  0  0  0  0  0  0  0  0
  189.5660  178.2000  138.2660 C   0  0  0  0  0  3  0  0  0  0  0  0
  186.1450  178.4530  137.9970 C   0  0  0  0  0  2  0  0  0  0  0  0
  187.1940  177.9440  139.0220 C   0  0  2  0  0  3  0  0  0  0  0  0
  184.5860  175.7010  137.0800 C   0  0  2  0  0  3  0  0  0  0  0  0
  187.0390  178.0390  141.5700 N   0  0  0  0  0  0  0  0  0  0  0  0
  186.4780  174.9850  135.3330 O   0  0  0  0  0  1  0  0  0  0  0  0
  188.8410  174.7510  136.9930 C   0  0  0  0  0  0  0  0  0  0  0  0
  187.9770  172.4040  137.0200 C   0  0  0  0  0  1  0  0  0  0  0  0
  183.5790  178.8120  138.2630 C   0  0  0  0  0  2  0  0  0  0  0  0
  184.4390  178.8940  141.1800 N   0  0  0  0  0  0  0  0  0  0  0  0
  190.9550  176.5420  137.0870 C   0  0  0  0  0  3  0  0  0  0  0  0
  186.4070  174.2800  136.5470 C   0  0  2  0  0  3  0  0  0  0  0  0
  185.7900  175.0790  137.6030 N   0  0  0  0  0  2  0  0  0  0  0  0
  186.5440  178.2430  140.3240 C   0  0  0  0  0  0  0  0  0  0  0  0
  183.8450  176.3460  138.1750 N   0  0  2  0  0  0  0  0  0  0  0  0
  184.9480  178.7940  138.7760 N   0  0  0  0  0  0  0  0  0  0  0  0
  189.7120  176.8780  137.6300 C   0  0  0  0  0  0  0  0  0  0  0  0
  183.4030  175.0350  137.6140 C   0  0  1  0  0  3  0  0  0  0  0  0
  183.2090  177.5080  137.5560 C   0  0  0  0  0  2  0  0  0  0  0  0
  190.0790  174.3970  136.4360 C   0  0  0  0  0  3  0  0  0  0  0  0
  188.4840  178.6810  138.8800 C   0  0  0  0  0  3  0  0  0  0  0  0
  184.0650  178.9700  143.5610 N   0  0  0  0  0  1  0  0  0  0  0  0
  187.7400  173.8350  136.9350 N   0  0  0  0  0  0  0  0  0  0  0  0
  191.1500  175.2940  136.4780 C   0  0  0  0  0  0  0  0  0  0  0  0
  185.2680  178.6570  140.1360 C   0  0  0  0  0  0  0  0  0  0  0  0
  186.2400  178.2920  142.6480 C   0  0  0  0  0  3  0  0  0  0  0  0
  184.9110  178.7230  142.4470 C   0  0  0  0  0  0  0  0  0  0  0  0
  193.3030  176.0190  135.3940 C   0  0  0  0  0  2  0  0  0  0  0  0
  194.7400  175.5040  135.3500 C   0  0  0  0  0  2  0  0  0  0  0  0
  194.7920  174.3160  134.5940 O   0  0  0  0  0  0  0  0  0  0  0  0
  192.4200  174.9570  135.8900 N   0  0  0  0  0  0  0  0  0  0  0  0
  194.1720  173.3250  135.3780 C   0  0  0  0  0  2  0  0  0  0  0  0
  192.6670  173.5840  135.4370 C   0  0  0  0  0  2  0  0  0  0  0  0
  182.2550  175.1080  136.5940 C   0  0  0  0  0  2  0  0  0  0  0  0
  181.0460  174.3440  137.1110 C   0  0  0  0  0  2  0  0  0  0  0  0
  180.1060  175.2700  137.8750 C   0  0  0  0  0  2  0  0  0  0  0  0
  180.2030  174.9930  139.3590 C   0  0  0  0  0  2  0  0  0  0  0  0
  180.9960  175.9670  139.9580 O   0  0  0  0  0  0  0  0  0  0  0  0
  180.2890  177.1630  139.7730 C   0  0  0  0  0  1  0  0  0  0  0  0
  1 18  1  0  0  0  0
  2 22  2  0  0  0  0
  3 17  1  0  0  0  0
  4  3  1  6  0  0  0
  4 15  1  0  0  0  0
  5 14  1  1  0  0  0
  5 19  1  0  0  0  0
  5 16  1  0  0  0  0
  6 27  1  0  0  0  0
  8  1  2  0  0  0  0
 10 17  1  0  0  0  0
 11 28  1  0  0  0  0
 12 18  2  0  0  0  0
 13  7  1  6  0  0  0
 13 24  1  0  0  0  0
 13 14  1  0  0  0  0
 15  6  2  0  0  0  0
 16 20  1  6  0  0  0
 17 26  1  0  0  0  0
 18  2  1  0  0  0  0
 19 35  1  6  0  0  0
 19 16  1  0  0  0  0
 20 10  1  0  0  0  0
 21 25  2  0  0  0  0
 21  8  1  0  0  0  0
 22  4  1  0  0  0  0
 24  8  1  0  0  0  0
 24  9  1  0  0  0  0
 25 12  1  0  0  0  0
 26 15  1  0  0  0  0
 26 11  2  0  0  0  0
 28 27  2  0  0  0  0
 28 23  1  0  0  0  0
 29 32  1  0  0  0  0
 30 29  1  0  0  0  0
 31 30  1  0  0  0  0
 31 33  1  0  0  0  0
 32 25  1  0  0  0  0
 33 34  1  0  0  0  0
 34 32  1  0  0  0  0
 35 36  1  0  0  0  0
 36 37  1  0  0  0  0
 37 38  1  0  0  0  0
 38 39  1  0  0  0  0
 40 39  1  0  0  0  0
M  END
>  <MODEL>
5

>  <REMARK>
 VINA RESULT:      -5.3      3.117      6.371
  Name = 
  6 active torsions:
  status: ('A' for Active; 'I' for Inactive)
    1  A    between atoms: C_4  and  C_8
    2  A    between atoms: C_4  and  C_30
    3  A    between atoms: C_8  and  C_25
    4  A    between atoms: C_24  and  C_30
    5  A    between atoms: C_25  and  O_27
    6  A    between atoms: N_32  and  C_35
                            x       y       z     vdW  Elec       q    Type
                         _______ _______ _______ _____ _____    ______ ____

>  <TORSDO>
F 6

$$$$
=
 OpenBabel10222415383D

 40 45  0  0  1  0  0  0  0  0999 V2000
  190.5260  175.0760  137.7180 N   0  0  0  0  0  0  0  0  0  0  0  0
  191.8440  176.8000  138.9320 C   0  0  0  0  0  3  0  0  0  0  0  0
  188.6780  178.0490  138.4290 C   0  0  0  0  0  2  0  0  0  0  0  0
  189.4060  177.0950  139.4130 C   0  0  2  0  0  3  0  0  0  0  0  0
  186.5990  176.0510  136.8370 C   0  0  2  0  0  3  0  0  0  0  0  0
  188.9290  176.7860  141.9040 N   0  0  0  0  0  0  0  0  0  0  0  0
  188.4640  175.1450  135.1490 O   0  0  0  0  0  1  0  0  0  0  0  0
  190.4310  173.9710  136.9210 C   0  0  0  0  0  0  0  0  0  0  0  0
  188.9920  171.9950  136.3930 C   0  0  0  0  0  1  0  0  0  0  0  0
  186.2820  179.0640  138.5410 C   0  0  0  0  0  2  0  0  0  0  0  0
  186.7210  178.3930  141.4760 N   0  0  0  0  0  0  0  0  0  0  0  0
  192.9040  175.0480  137.5610 C   0  0  0  0  0  3  0  0  0  0  0  0
  188.0440  174.2890  136.1810 C   0  0  2  0  0  3  0  0  0  0  0  0
  187.5160  175.0340  137.3220 N   0  0  0  0  0  2  0  0  0  0  0  0
  188.6820  177.3340  140.6880 C   0  0  0  0  0  0  0  0  0  0  0  0
  185.9070  176.6780  137.9730 N   0  0  2  0  0  0  0  0  0  0  0  0
  187.5150  178.5720  139.1560 N   0  0  0  0  0  0  0  0  0  0  0  0
  191.7280  175.6220  138.0530 C   0  0  0  0  0  0  0  0  0  0  0  0
  185.2220  175.6630  137.1190 C   0  0  1  0  0  3  0  0  0  0  0  0
  185.6870  178.0610  137.5530 C   0  0  0  0  0  2  0  0  0  0  0  0
  191.5990  173.3840  136.4120 C   0  0  0  0  0  3  0  0  0  0  0  0
  190.8500  177.4520  139.5370 C   0  0  0  0  0  3  0  0  0  0  0  0
  186.0540  178.1570  143.7810 N   0  0  0  0  0  1  0  0  0  0  0  0
  189.1490  173.4270  136.5830 N   0  0  0  0  0  0  0  0  0  0  0  0
  192.8500  173.9220  136.7290 C   0  0  0  0  0  0  0  0  0  0  0  0
  187.5960  178.1170  140.4810 C   0  0  0  0  0  0  0  0  0  0  0  0
  188.0820  177.0630  142.9380 C   0  0  0  0  0  3  0  0  0  0  0  0
  186.9520  177.8780  142.7160 C   0  0  0  0  0  0  0  0  0  0  0  0
  194.1670  171.8930  136.0320 C   0  0  0  0  0  2  0  0  0  0  0  0
  195.2310  171.5790  134.9810 C   0  0  0  0  0  2  0  0  0  0  0  0
  196.4410  172.2090  135.3320 O   0  0  0  0  0  0  0  0  0  0  0  0
  194.0580  173.3470  136.1940 N   0  0  0  0  0  0  0  0  0  0  0  0
  196.2420  173.5860  135.1160 C   0  0  0  0  0  2  0  0  0  0  0  0
  195.2910  174.1400  136.1760 C   0  0  0  0  0  2  0  0  0  0  0  0
  184.2860  176.2320  136.0410 C   0  0  0  0  0  2  0  0  0  0  0  0
  182.8340  175.9780  136.4210 C   0  0  0  0  0  2  0  0  0  0  0  0
  182.7410  174.9590  137.5510 C   0  0  0  0  0  2  0  0  0  0  0  0
  182.2210  175.6270  138.8060 C   0  0  0  0  0  2  0  0  0  0  0  0
  182.4860  176.9920  138.7440 O   0  0  0  0  0  0  0  0  0  0  0  0
  182.4960  177.4130  140.0800 C   0  0  0  0  0  1  0  0  0  0  0  0
  1 18  1  0  0  0  0
  2 22  2  0  0  0  0
  3 17  1  0  0  0  0
  4  3  1  6  0  0  0
  4 22  1  0  0  0  0
  4 15  1  0  0  0  0
  5 19  1  0  0  0  0
  5 14  1  1  0  0  0
  5 16  1  0  0  0  0
  6 27  1  0  0  0  0
  8  1  2  0  0  0  0
  9 24  1  0  0  0  0
 10 17  1  0  0  0  0
 11 28  1  0  0  0  0
 12 18  2  0  0  0  0
 13  7  1  6  0  0  0
 13 24  1  0  0  0  0
 13 14  1  0  0  0  0
 15  6  2  0  0  0  0
 16 20  1  6  0  0  0
 17 26  1  0  0  0  0
 18  2  1  0  0  0  0
 19 35  1  6  0  0  0
 19 16  1  0  0  0  0
 20 10  1  0  0  0  0
 21 25  2  0  0  0  0
 21  8  1  0  0  0  0
 24  8  1  0  0  0  0
 25 12  1  0  0  0  0
 26 15  1  0  0  0  0
 26 11  2  0  0  0  0
 28 27  2  0  0  0  0
 28 23  1  0  0  0  0
 29 32  1  0  0  0  0
 30 31  1  0  0  0  0
 30 29  1  0  0  0  0
 32 25  1  0  0  0  0
 33 31  1  0  0  0  0
 33 34  1  0  0  0  0
 34 32  1  0  0  0  0
 35 36  1  0  0  0  0
 36 37  1  0  0  0  0
 37 38  1  0  0  0  0
 39 38  1  0  0  0  0
 39 40  1  0  0  0  0
M  END
>  <MODEL>
6

>  <REMARK>
 VINA RESULT:      -4.9      3.641      7.416
  Name = 
  6 active torsions:
  status: ('A' for Active; 'I' for Inactive)
    1  A    between atoms: C_4  and  C_8
    2  A    between atoms: C_4  and  C_30
    3  A    between atoms: C_8  and  C_25
    4  A    between atoms: C_24  and  C_30
    5  A    between atoms: C_25  and  O_27
    6  A    between atoms: N_32  and  C_35
                            x       y       z     vdW  Elec       q    Type
                         _______ _______ _______ _____ _____    ______ ____

>  <TORSDO>
F 6

$$$$
=
 OpenBabel10222415383D

 40 45  0  0  1  0  0  0  0  0999 V2000
  188.7910  176.0540  137.6220 N   0  0  0  0  0  0  0  0  0  0  0  0
  189.7330  178.1850  138.4900 C   0  0  0  0  0  3  0  0  0  0  0  0
  186.3250  178.5700  138.2120 C   0  0  0  0  0  2  0  0  0  0  0  0
  187.3460  177.9520  139.2050 C   0  0  2  0  0  3  0  0  0  0  0  0
  184.6860  175.9440  137.0850 C   0  0  2  0  0  3  0  0  0  0  0  0
  187.1670  177.8690  141.7530 N   0  0  0  0  0  0  0  0  0  0  0  0
  186.5730  175.2940  135.3060 O   0  0  0  0  0  1  0  0  0  0  0  0
  188.9100  174.8630  136.9630 C   0  0  0  0  0  0  0  0  0  0  0  0
  187.9700  172.5500  136.8130 C   0  0  0  0  0  1  0  0  0  0  0  0
  183.7690  178.9920  138.4820 C   0  0  0  0  0  2  0  0  0  0  0  0
  184.6010  178.8340  141.4050 N   0  0  0  0  0  0  0  0  0  0  0  0
  191.0800  176.5710  137.2050 C   0  0  0  0  0  3  0  0  0  0  0  0
  186.4660  174.5050  136.4640 C   0  0  2  0  0  3  0  0  0  0  0  0
  185.8640  175.2460  137.5710 N   0  0  0  0  0  2  0  0  0  0  0  0
  186.6920  178.1780  140.5200 C   0  0  0  0  0  0  0  0  0  0  0  0
  183.9560  176.5330  138.2170 N   0  0  2  0  0  0  0  0  0  0  0  0
  185.1320  178.8920  139.0040 N   0  0  0  0  0  0  0  0  0  0  0  0
  189.8420  176.9080  137.7610 C   0  0  0  0  0  0  0  0  0  0  0  0
  183.4780  175.2810  137.5590 C   0  0  1  0  0  3  0  0  0  0  0  0
  183.3640  177.7560  137.6800 C   0  0  0  0  0  2  0  0  0  0  0  0
  190.1410  174.5090  136.3920 C   0  0  0  0  0  3  0  0  0  0  0  0
  188.6600  178.6550  139.1290 C   0  0  0  0  0  3  0  0  0  0  0  0
  184.2040  178.7510  143.7820 N   0  0  0  0  0  1  0  0  0  0  0  0
  187.7800  173.9900  136.8300 N   0  0  0  0  0  0  0  0  0  0  0  0
  191.2400  175.3650  136.5080 C   0  0  0  0  0  0  0  0  0  0  0  0
  185.4320  178.6470  140.3530 C   0  0  0  0  0  0  0  0  0  0  0  0
  186.3650  178.0690  142.8400 C   0  0  0  0  0  3  0  0  0  0  0  0
  185.0530  178.5570  142.6590 C   0  0  0  0  0  0  0  0  0  0  0  0
  193.2470  176.0420  135.1490 C   0  0  0  0  0  2  0  0  0  0  0  0
  194.7250  175.6580  135.1020 C   0  0  0  0  0  2  0  0  0  0  0  0
  194.8570  174.3510  134.5940 O   0  0  0  0  0  0  0  0  0  0  0  0
  192.5050  175.0290  135.9070 N   0  0  0  0  0  0  0  0  0  0  0  0
  194.3840  173.4900  135.6020 C   0  0  0  0  0  2  0  0  0  0  0  0
  192.8650  173.6200  135.7170 C   0  0  0  0  0  2  0  0  0  0  0  0
  182.3430  175.4650  136.5370 C   0  0  0  0  0  2  0  0  0  0  0  0
  182.5920  174.5930  135.3160 C   0  0  0  0  0  2  0  0  0  0  0  0
  181.3200  173.8580  134.9070 C   0  0  0  0  0  2  0  0  0  0  0  0
  181.3930  172.4150  135.3540 C   0  0  0  0  0  2  0  0  0  0  0  0
  180.1760  172.0480  135.9220 O   0  0  0  0  0  0  0  0  0  0  0  0
  180.5020  171.6260  137.2180 C   0  0  0  0  0  1  0  0  0  0  0  0
  1 18  1  0  0  0  0
  2 22  2  0  0  0  0
  3 17  1  0  0  0  0
  4  3  1  6  0  0  0
  4 15  1  0  0  0  0
  5 19  1  0  0  0  0
  5 14  1  1  0  0  0
  5 16  1  0  0  0  0
  6 27  1  0  0  0  0
  8  1  2  0  0  0  0
  9 24  1  0  0  0  0
 10 17  1  0  0  0  0
 11 28  1  0  0  0  0
 12 18  2  0  0  0  0
 13  7  1  6  0  0  0
 13 24  1  0  0  0  0
 13 14  1  0  0  0  0
 15  6  2  0  0  0  0
 16 20  1  6  0  0  0
 17 26  1  0  0  0  0
 18  2  1  0  0  0  0
 19 35  1  6  0  0  0
 19 16  1  0  0  0  0
 20 10  1  0  0  0  0
 21 25  2  0  0  0  0
 21  8  1  0  0  0  0
 22  4  1  0  0  0  0
 24  8  1  0  0  0  0
 25 12  1  0  0  0  0
 26 15  1  0  0  0  0
 26 11  2  0  0  0  0
 28 27  2  0  0  0  0
 28 23  1  0  0  0  0
 29 32  1  0  0  0  0
 30 29  1  0  0  0  0
 31 30  1  0  0  0  0
 31 33  1  0  0  0  0
 32 25  1  0  0  0  0
 33 34  1  0  0  0  0
 34 32  1  0  0  0  0
 36 35  1  0  0  0  0
 37 36  1  0  0  0  0
 37 38  1  0  0  0  0
 38 39  1  0  0  0  0
 39 40  1  0  0  0  0
M  END
>  <MODEL>
7

>  <REMARK>
 VINA RESULT:      -4.9      3.387      7.038
  Name = 
  6 active torsions:
  status: ('A' for Active; 'I' for Inactive)
    1  A    between atoms: C_4  and  C_8
    2  A    between atoms: C_4  and  C_30
    3  A    between atoms: C_8  and  C_25
    4  A    between atoms: C_24  and  C_30
    5  A    between atoms: C_25  and  O_27
    6  A    between atoms: N_32  and  C_35
                            x       y       z     vdW  Elec       q    Type
                         _______ _______ _______ _____ _____    ______ ____

>  <TORSDO>
F 6

$$$$
=
 OpenBabel10222415383D

 40 45  0  0  1  0  0  0  0  0999 V2000
  187.5600  177.4620  141.8810 N   0  0  0  0  0  0  0  0  0  0  0  0
  185.4990  178.8080  141.5340 C   0  0  0  0  0  3  0  0  0  0  0  0
  187.2800  178.8220  138.5900 C   0  0  0  0  0  2  0  0  0  0  0  0
  186.2970  177.8890  139.3470 C   0  0  2  0  0  3  0  0  0  0  0  0
  190.1070  177.1330  138.6330 C   0  0  2  0  0  3  0  0  0  0  0  0
  184.5480  176.3310  138.3250 N   0  0  0  0  0  0  0  0  0  0  0  0
  190.7380  177.8850  141.1200 O   0  0  0  0  0  1  0  0  0  0  0  0
  188.5090  176.8960  142.6840 C   0  0  0  0  0  0  0  0  0  0  0  0
  190.1220  174.9900  142.8500 C   0  0  0  0  0  1  0  0  0  0  0  0
  188.2040  178.6660  136.1600 C   0  0  0  0  0  2  0  0  0  0  0  0
  185.6930  176.9680  135.8920 N   0  0  0  0  0  0  0  0  0  0  0  0
  186.4670  178.4250  143.7670 C   0  0  0  0  0  3  0  0  0  0  0  0
  190.2870  176.5680  140.9290 C   0  0  2  0  0  3  0  0  0  0  0  0
  189.4530  176.4480  139.7340 N   0  0  0  0  0  2  0  0  0  0  0  0
  185.5630  177.2260  138.2380 C   0  0  0  0  0  0  0  0  0  0  0  0
  189.3880  176.8590  137.3800 N   0  0  2  0  0  0  0  0  0  0  0  0
  187.1650  178.4670  137.1700 N   0  0  0  0  0  0  0  0  0  0  0  0
  186.5430  178.2120  142.3880 C   0  0  0  0  0  0  0  0  0  0  0  0
  190.6700  176.1640  137.7010 C   0  0  1  0  0  3  0  0  0  0  0  0
  189.5480  178.0760  136.5870 C   0  0  0  0  0  2  0  0  0  0  0  0
  188.4560  177.1030  144.0700 C   0  0  0  0  0  3  0  0  0  0  0  0
  185.3700  178.6760  140.2130 C   0  0  0  0  0  3  0  0  0  0  0  0
  184.1810  175.4790  134.7460 N   0  0  0  0  0  1  0  0  0  0  0  0
  189.5710  176.1180  142.1160 N   0  0  0  0  0  0  0  0  0  0  0  0
  187.4300  177.8740  144.6240 C   0  0  0  0  0  0  0  0  0  0  0  0
  186.1250  177.5320  137.0440 C   0  0  0  0  0  0  0  0  0  0  0  0
  184.0690  175.7600  137.1810 C   0  0  0  0  0  3  0  0  0  0  0  0
  184.6590  176.0820  135.9410 C   0  0  0  0  0  0  0  0  0  0  0  0
  188.3720  177.5130  146.9300 C   0  0  0  0  0  2  0  0  0  0  0  0
  188.4580  178.3220  148.2230 C   0  0  0  0  0  2  0  0  0  0  0  0
  187.1750  178.4330  148.7960 O   0  0  0  0  0  0  0  0  0  0  0  0
  187.3730  178.1180  146.0430 N   0  0  0  0  0  0  0  0  0  0  0  0
  186.4530  179.3150  147.9700 C   0  0  0  0  0  2  0  0  0  0  0  0
  186.1360  178.6300  146.6410 C   0  0  0  0  0  2  0  0  0  0  0  0
  191.9220  176.7480  137.0280 C   0  0  0  0  0  2  0  0  0  0  0  0
  193.1760  176.2400  137.7240 C   0  0  0  0  0  2  0  0  0  0  0  0
  193.2920  174.7260  137.5950 C   0  0  0  0  0  2  0  0  0  0  0  0
  194.7390  174.3060  137.7300 C   0  0  0  0  0  2  0  0  0  0  0  0
  195.4240  175.2520  138.4880 O   0  0  0  0  0  0  0  0  0  0  0  0
  196.0910  174.5060  139.4690 C   0  0  0  0  0  1  0  0  0  0  0  0
  1 18  2  0  0  0  0
  1  8  1  0  0  0  0
  2 18  1  0  0  0  0
  4  3  1  6  0  0  0
  4 22  1  0  0  0  0
  5 14  1  1  0  0  0
  8 21  2  0  0  0  0
 10 20  1  0  0  0  0
 10 17  1  0  0  0  0
 11 28  2  0  0  0  0
 11 26  1  0  0  0  0
 12 25  2  0  0  0  0
 13  7  1  1  0  0  0
 13 24  1  0  0  0  0
 14 13  1  0  0  0  0
 15  6  1  0  0  0  0
 15  4  1  0  0  0  0
 16 20  1  6  0  0  0
 16 19  1  0  0  0  0
 16  5  1  0  0  0  0
 17  3  1  0  0  0  0
 18 12  1  0  0  0  0
 19 35  1  6  0  0  0
 19  5  1  0  0  0  0
 21 25  1  0  0  0  0
 22  2  2  0  0  0  0
 23 28  1  0  0  0  0
 24  8  1  0  0  0  0
 24  9  1  0  0  0  0
 25 32  1  0  0  0  0
 26 17  1  0  0  0  0
 26 15  2  0  0  0  0
 27  6  2  0  0  0  0
 28 27  1  0  0  0  0
 29 30  1  0  0  0  0
 30 31  1  0  0  0  0
 32 34  1  0  0  0  0
 32 29  1  0  0  0  0
 33 31  1  0  0  0  0
 34 33  1  0  0  0  0
 35 36  1  0  0  0  0
 37 36  1  0  0  0  0
 37 38  1  0  0  0  0
 38 39  1  0  0  0  0
 39 40  1  0  0  0  0
M  END
>  <MODEL>
8

>  <REMARK>
 VINA RESULT:      -4.8      3.344      8.303
  Name = 
  6 active torsions:
  status: ('A' for Active; 'I' for Inactive)
    1  A    between atoms: C_4  and  C_8
    2  A    between atoms: C_4  and  C_30
    3  A    between atoms: C_8  and  C_25
    4  A    between atoms: C_24  and  C_30
    5  A    between atoms: C_25  and  O_27
    6  A    between atoms: N_32  and  C_35
                            x       y       z     vdW  Elec       q    Type
                         _______ _______ _______ _____ _____    ______ ____

>  <TORSDO>
F 6

$$$$
=
 OpenBabel10222415383D

 40 45  0  0  1  0  0  0  0  0999 V2000
  186.6820  177.5790  142.5740 N   0  0  0  0  0  0  0  0  0  0  0  0
  184.4360  178.5820  142.9300 C   0  0  0  0  0  3  0  0  0  0  0  0
  185.2660  178.9940  139.6160 C   0  0  0  0  0  2  0  0  0  0  0  0
  184.6910  177.8870  140.5390 C   0  0  2  0  0  3  0  0  0  0  0  0
  188.1990  177.7880  138.7260 C   0  0  2  0  0  3  0  0  0  0  0  0
  182.9670  176.1040  139.9250 N   0  0  0  0  0  0  0  0  0  0  0  0
  189.4070  178.5400  140.9900 O   0  0  0  0  0  1  0  0  0  0  0  0
  187.8950  177.1450  143.0290 C   0  0  0  0  0  0  0  0  0  0  0  0
  189.7450  175.5230  142.5800 C   0  0  0  0  0  1  0  0  0  0  0  0
  185.4590  179.0800  137.0200 C   0  0  0  0  0  2  0  0  0  0  0  0
  183.2530  177.0070  137.3280 N   0  0  0  0  0  0  0  0  0  0  0  0
  186.0540  178.2810  144.7630 C   0  0  0  0  0  3  0  0  0  0  0  0
  189.1160  177.1760  140.8260 C   0  0  2  0  0  3  0  0  0  0  0  0
  187.9990  176.9660  139.9070 N   0  0  0  0  0  2  0  0  0  0  0  0
  183.7720  177.1550  139.6300 C   0  0  0  0  0  0  0  0  0  0  0  0
  187.1950  177.4460  137.7070 N   0  0  2  0  0  0  0  0  0  0  0  0
  184.7980  178.6770  138.2610 N   0  0  0  0  0  0  0  0  0  0  0  0
  185.7570  178.1330  143.4050 C   0  0  0  0  0  0  0  0  0  0  0  0
  188.6020  176.9580  137.5980 C   0  0  1  0  0  3  0  0  0  0  0  0
  186.9400  178.7010  137.0040 C   0  0  0  0  0  2  0  0  0  0  0  0
  188.2150  177.2910  144.3870 C   0  0  0  0  0  3  0  0  0  0  0  0
  183.9500  178.4800  141.6910 C   0  0  0  0  0  3  0  0  0  0  0  0
  181.7080  175.3350  136.5340 N   0  0  0  0  0  1  0  0  0  0  0  0
  188.8480  176.5720  142.1250 N   0  0  0  0  0  0  0  0  0  0  0  0
  187.2930  177.8630  145.2680 C   0  0  0  0  0  0  0  0  0  0  0  0
  183.9130  177.5920  138.3550 C   0  0  0  0  0  0  0  0  0  0  0  0
  182.2660  175.5050  138.9180 C   0  0  0  0  0  3  0  0  0  0  0  0
  182.4180  175.9640  137.5920 C   0  0  0  0  0  0  0  0  0  0  0  0
  188.8630  177.4930  147.2000 C   0  0  0  0  0  2  0  0  0  0  0  0
  189.2450  178.2530  148.4690 C   0  0  0  0  0  2  0  0  0  0  0  0
  188.1670  178.2250  149.3770 O   0  0  0  0  0  0  0  0  0  0  0  0
  187.6150  178.0430  146.6610 N   0  0  0  0  0  0  0  0  0  0  0  0
  187.1810  179.0730  148.8380 C   0  0  0  0  0  2  0  0  0  0  0  0
  186.5580  178.4180  147.6050 C   0  0  0  0  0  2  0  0  0  0  0  0
  189.5070  177.7630  136.6510 C   0  0  0  0  0  2  0  0  0  0  0  0
  190.5350  176.8470  136.0040 C   0  0  0  0  0  2  0  0  0  0  0  0
  191.2620  176.0190  137.0570 C   0  0  0  0  0  2  0  0  0  0  0  0
  191.2260  174.5550  136.6770 C   0  0  0  0  0  2  0  0  0  0  0  0
  190.4410  173.8610  137.5930 O   0  0  0  0  0  0  0  0  0  0  0  0
  189.3600  173.3790  136.8420 C   0  0  0  0  0  1  0  0  0  0  0  0
  1  8  2  0  0  0  0
  1 18  1  0  0  0  0
  2 18  1  0  0  0  0
  4  3  1  6  0  0  0
  4 22  1  0  0  0  0
  5 14  1  1  0  0  0
  8 21  1  0  0  0  0
 10 17  1  0  0  0  0
 11 28  2  0  0  0  0
 11 26  1  0  0  0  0
 12 25  1  0  0  0  0
 13  7  1  1  0  0  0
 13 24  1  0  0  0  0
 14 13  1  0  0  0  0
 15  6  1  0  0  0  0
 15  4  1  0  0  0  0
 16 20  1  6  0  0  0
 16  5  1  0  0  0  0
 17 26  1  0  0  0  0
 17  3  1  0  0  0  0
 18 12  2  0  0  0  0
 19 35  1  6  0  0  0
 19 16  1  0  0  0  0
 19  5  1  0  0  0  0
 20 10  1  0  0  0  0
 21 25  2  0  0  0  0
 22  2  2  0  0  0  0
 23 28  1  0  0  0  0
 24  9  1  0  0  0  0
 24  8  1  0  0  0  0
 25 32  1  0  0  0  0
 26 15  2  0  0  0  0
 27  6  2  0  0  0  0
 28 27  1  0  0  0  0
 29 30  1  0  0  0  0
 30 31  1  0  0  0  0
 32 29  1  0  0  0  0
 32 34  1  0  0  0  0
 33 31  1  0  0  0  0
 34 33  1  0  0  0  0
 36 35  1  0  0  0  0
 36 37  1  0  0  0  0
 38 37  1  0  0  0  0
 38 39  1  0  0  0  0
 40 39  1  0  0  0  0
M  END
>  <MODEL>
9

>  <REMARK>
 VINA RESULT:      -4.7      2.723      7.690
  Name = 
  6 active torsions:
  status: ('A' for Active; 'I' for Inactive)
    1  A    between atoms: C_4  and  C_8
    2  A    between atoms: C_4  and  C_30
    3  A    between atoms: C_8  and  C_25
    4  A    between atoms: C_24  and  C_30
    5  A    between atoms: C_25  and  O_27
    6  A    between atoms: N_32  and  C_35
                            x       y       z     vdW  Elec       q    Type
                         _______ _______ _______ _____ _____    ______ ____

>  <TORSDO>
F 6

$$$$
