=
 OpenBabel10222416163D

 46 48  0  0  1  0  0  0  0  0999 V2000
  189.5560  177.8390  136.7850 C   0  0  0  0  0  3  0  0  0  0  0  0
  190.1160  177.1730  137.8020 C   0  0  0  0  0  0  0  0  0  0  0  0
  190.9390  176.0630  137.5710 O   0  0  0  0  0  0  0  0  0  0  0  0
  191.6500  173.9030  136.7670 C   0  0  0  0  0  1  0  0  0  0  0  0
  190.5680  174.9680  136.7410 C   0  0  0  0  0  2  0  0  0  0  0  0
  189.8840  177.5980  139.2190 C   0  0  0  0  0  2  0  0  0  0  0  0
  190.7320  176.7740  140.1750 C   0  0  0  0  0  2  0  0  0  0  0  0
  193.0240  177.3840  140.4370 O   0  0  0  0  0  1  0  0  0  0  0  0
  191.7350  177.6530  140.9050 C   0  0  2  0  0  3  0  0  0  0  0  0
  191.6690  177.3870  142.3320 N   0  0  0  0  0  2  0  0  0  0  0  0
  190.5320  176.5040  142.5600 C   0  0  1  0  0  3  0  0  0  0  0  0
  190.9980  175.2390  143.2650 C   0  0  0  0  0  1  0  0  0  0  0  0
  189.9770  178.1420  144.4560 C   0  0  0  0  0  2  0  0  0  0  0  0
  188.3200  176.2660  143.7550 C   0  0  0  0  0  2  0  0  0  0  0  0
  187.0060  176.9840  144.0690 C   0  0  0  0  0  2  0  0  0  0  0  0
  189.5490  177.8050  145.8980 C   0  0  1  0  0  3  0  0  0  0  0  0
  189.4270  177.2330  143.3310 C   0  0  2  0  0  3  0  0  0  0  0  0
  187.1680  178.2010  144.9820 C   0  0  0  0  0  2  0  0  0  0  0  0
  188.0410  177.9050  146.2000 C   0  0  0  0  0  2  0  0  0  0  0  0
  190.1290  176.4770  146.3660 C   0  0  0  0  0  2  0  0  0  0  0  0
  192.2740  175.3780  146.4390 O   0  0  0  0  0  1  0  0  0  0  0  0
  191.6220  176.5970  146.6560 C   0  0  2  0  0  3  0  0  0  0  0  0
  192.8360  176.3330  148.4590 O   0  0  0  0  0  1  0  0  0  0  0  0
  191.8570  177.0660  147.9610 O   0  0  0  0  0  0  0  0  0  0  0  0
  188.6750  179.0320  136.9720 C   0  0  0  0  0  2  0  0  0  0  0  0
  186.7030  178.0460  138.5970 S   0  0  0  0  0  0  0  0  0  0  0  0
  187.0380  177.5070  135.9210 C   0  0  0  0  0  2  0  0  0  0  0  0
  187.2170  178.6140  136.9460 C   0  0  2  0  0  3  0  0  0  0  0  0
  184.8020  176.4240  136.5590 C   0  0  2  0  0  3  0  0  0  0  0  0
  184.9630  178.4040  138.2170 C   0  0  0  0  0  2  0  0  0  0  0  0
  185.5690  177.2960  135.5530 C   0  0  0  0  0  2  0  0  0  0  0  0
  184.2090  177.1530  137.7760 C   0  0  1  0  0  3  0  0  0  0  0  0
  185.5330  175.1820  136.9640 C   0  0  0  0  0  3  0  0  0  0  0  0
  184.9330  174.2510  137.4750 O   0  0  0  0  0  0  0  0  0  0  0  0
  182.8250  177.5110  137.5070 N   0  0  0  0  0  2  0  0  0  0  0  0
  182.3880  178.4060  138.5690 C   0  0  0  0  0  2  0  0  0  0  0  0
  181.3160  177.7190  139.4180 C   0  0  1  0  0  3  0  0  0  0  0  0
  181.6730  177.8410  140.9150 C   0  0  0  0  0  3  0  0  0  0  0  0
  183.3830  178.5360  142.6170 C   0  0  0  0  0  2  0  0  0  0  0  0
  180.6110  178.6320  141.6900 C   0  0  0  0  0  2  0  0  0  0  0  0
  180.9470  178.6620  143.1770 C   0  0  0  0  0  2  0  0  0  0  0  0
  182.3150  179.3030  143.3920 C   0  0  0  0  0  2  0  0  0  0  0  0
  183.0350  178.5090  141.1320 C   0  0  0  0  0  2  0  0  0  0  0  0
  178.9320  177.2280  138.7970 C   0  0  0  0  0  1  0  0  0  0  0  0
  179.9320  178.3240  139.1160 C   0  0  2  0  0  3  0  0  0  0  0  0
  179.9820  179.1960  138.0250 O   0  0  0  0  0  1  0  0  0  0  0  0
  1 25  1  0  0  0  0
  1  2  2  0  0  0  0
  2  6  1  0  0  0  0
  3  2  1  0  0  0  0
  5  4  1  0  0  0  0
  5  3  1  0  0  0  0
  6  7  1  0  0  0  0
  7  9  1  0  0  0  0
  9  8  1  6  0  0  0
  9 10  1  0  0  0  0
 10 11  1  0  0  0  0
 11 12  1  1  0  0  0
 13 16  1  0  0  0  0
 14 15  1  0  0  0  0
 15 18  1  0  0  0  0
 16 19  1  0  0  0  0
 16 20  1  6  0  0  0
 17 11  1  1  0  0  0
 17 14  1  0  0  0  0
 17 13  1  0  0  0  0
 18 19  1  0  0  0  0
 20 22  1  0  0  0  0
 22 21  1  1  0  0  0
 22 24  1  0  0  0  0
 24 23  1  0  0  0  0
 27 28  1  0  0  0  0
 28 25  1  1  0  0  0
 28 26  1  0  0  0  0
 29 33  1  1  0  0  0
 29 32  1  0  0  0  0
 30 26  1  0  0  0  0
 31 27  1  0  0  0  0
 31 29  1  0  0  0  0
 32 35  1  6  0  0  0
 32 30  1  0  0  0  0
 33 34  2  0  0  0  0
 35 36  1  0  0  0  0
 37 36  1  6  0  0  0
 37 38  1  0  0  0  0
 38 43  1  0  0  0  0
 38 40  1  0  0  0  0
 39 42  1  0  0  0  0
 40 41  1  0  0  0  0
 41 42  1  0  0  0  0
 43 39  1  0  0  0  0
 45 44  1  6  0  0  0
 45 37  1  0  0  0  0
 46 45  1  0  0  0  0
M  END
>  <MODEL>
1

>  <REMARK>
 VINA RESULT:      -7.1      0.000      0.000
  Name = 
  19 active torsions:
  status: ('A' for Active; 'I' for Inactive)
    1  A    between atoms: O_4  and  C_14
    2  A    between atoms: O_4  and  C_19
    3  A    between atoms: C_6  and  C_31
    4  A    between atoms: C_6  and  C_41
    5  A    between atoms: C_9  and  C_33
    6  A    between atoms: C_13  and  C_42
    7  A    between atoms: C_16  and  O_32
    8  A    between atoms: C_16  and  C_44
    9  A    between atoms: C_17  and  C_42
   10  A    between atoms: C_18  and  C_24
   11  A    between atoms: C_19  and  C_31
   12  A    between atoms: C_20  and  C_44
   13  A    between atoms: N_21  and  C_29
   14  A    between atoms: N_21  and  C_41
   15  A    between atoms: C_22  and  C_29
   16  A    between atoms: C_23  and  C_33
   17  A    between atoms: N_27  and  C_39
   18  A    between atoms: N_27  and  C_43
   19  A    between atoms: C_33  and  C_43
                            x       y       z     vdW  Elec       q    Type
                         _______ _______ _______ _____ _____    ______ ____

>  <TORSDO>
F 19

$$$$
=
 OpenBabel10222416163D

 46 48  0  0  1  0  0  0  0  0999 V2000
  187.3080  177.6990  145.4440 C   0  0  0  0  0  3  0  0  0  0  0  0
  186.5560  178.3730  146.3220 C   0  0  0  0  0  0  0  0  0  0  0  0
  186.7650  178.2430  147.7010 O   0  0  0  0  0  0  0  0  0  0  0  0
  188.8600  177.0480  147.7520 C   0  0  0  0  0  1  0  0  0  0  0  0
  188.0560  178.2130  148.3010 C   0  0  0  0  0  2  0  0  0  0  0  0
  185.4680  179.2910  145.8550 C   0  0  0  0  0  2  0  0  0  0  0  0
  184.1990  178.5110  145.5490 C   0  0  0  0  0  2  0  0  0  0  0  0
  182.1990  178.8230  144.2840 O   0  0  0  0  0  1  0  0  0  0  0  0
  183.5880  178.9660  144.2330 C   0  0  2  0  0  3  0  0  0  0  0  0
  184.1210  178.1620  143.1450 N   0  0  0  0  0  2  0  0  0  0  0  0
  183.9210  178.9090  141.9100 C   0  0  1  0  0  3  0  0  0  0  0  0
  185.2680  179.3110  141.3290 C   0  0  0  0  0  1  0  0  0  0  0  0
  183.6040  178.1780  139.4710 C   0  0  0  0  0  2  0  0  0  0  0  0
  181.5840  178.4170  141.0890 C   0  0  0  0  0  2  0  0  0  0  0  0
  180.6870  177.3220  140.5090 C   0  0  0  0  0  2  0  0  0  0  0  0
  182.6680  178.7980  138.4150 C   0  0  1  0  0  3  0  0  0  0  0  0
  183.0720  178.1030  140.9220 C   0  0  2  0  0  3  0  0  0  0  0  0
  181.0860  176.8760  139.1010 C   0  0  0  0  0  2  0  0  0  0  0  0
  181.3410  178.0560  138.1650 C   0  0  0  0  0  2  0  0  0  0  0  0
  182.4440  180.2840  138.6580 C   0  0  0  0  0  2  0  0  0  0  0  0
  181.1480  181.0160  136.7600 O   0  0  0  0  0  1  0  0  0  0  0  0
  181.0850  180.7330  138.1290 C   0  0  2  0  0  3  0  0  0  0  0  0
  179.8020  181.3530  139.7910 O   0  0  0  0  0  1  0  0  0  0  0  0
  180.5910  181.8360  138.8480 O   0  0  0  0  0  0  0  0  0  0  0  0
  187.1330  177.8030  143.9630 C   0  0  0  0  0  2  0  0  0  0  0  0
  188.8580  176.1350  142.6420 S   0  0  0  0  0  0  0  0  0  0  0  0
  189.5460  178.2430  144.2690 C   0  0  0  0  0  2  0  0  0  0  0  0
  188.4850  177.8010  143.2760 C   0  0  2  0  0  3  0  0  0  0  0  0
  191.7480  177.4400  143.2270 C   0  0  2  0  0  3  0  0  0  0  0  0
  190.0080  176.8210  141.4150 C   0  0  0  0  0  2  0  0  0  0  0  0
  190.8520  178.6370  143.5780 C   0  0  0  0  0  2  0  0  0  0  0  0
  191.4560  176.7440  141.8870 C   0  0  1  0  0  3  0  0  0  0  0  0
  191.9000  176.4500  144.3400 C   0  0  0  0  0  3  0  0  0  0  0  0
  192.1320  175.2780  144.0970 O   0  0  0  0  0  0  0  0  0  0  0  0
  192.3170  177.2920  140.8510 N   0  0  0  0  0  2  0  0  0  0  0  0
  191.5280  177.3940  139.6320 C   0  0  0  0  0  2  0  0  0  0  0  0
  191.9790  176.3270  138.6320 C   0  0  1  0  0  3  0  0  0  0  0  0
  190.9740  176.2450  137.4620 C   0  0  0  0  0  3  0  0  0  0  0  0
  189.2880  174.8450  136.2360 C   0  0  0  0  0  2  0  0  0  0  0  0
  189.9570  177.3930  137.5050 C   0  0  0  0  0  2  0  0  0  0  0  0
  189.0330  177.3340  136.2930 C   0  0  0  0  0  2  0  0  0  0  0  0
  188.2920  176.0010  136.2650 C   0  0  0  0  0  2  0  0  0  0  0  0
  190.2090  174.9160  137.4490 C   0  0  0  0  0  2  0  0  0  0  0  0
  193.5190  176.3420  136.6480 C   0  0  0  0  0  1  0  0  0  0  0  0
  193.4030  176.6360  138.1310 C   0  0  2  0  0  3  0  0  0  0  0  0
  194.3580  175.8670  138.8010 O   0  0  0  0  0  1  0  0  0  0  0  0
  1  2  2  0  0  0  0
  2  3  1  0  0  0  0
  3  5  1  0  0  0  0
  4  5  1  0  0  0  0
  6  2  1  0  0  0  0
  7  6  1  0  0  0  0
  9  8  1  1  0  0  0
  9  7  1  0  0  0  0
 10  9  1  0  0  0  0
 11 12  1  6  0  0  0
 11 10  1  0  0  0  0
 13 17  1  0  0  0  0
 15 14  1  0  0  0  0
 16 20  1  1  0  0  0
 16 13  1  0  0  0  0
 17 14  1  0  0  0  0
 17 11  1  1  0  0  0
 18 15  1  0  0  0  0
 19 16  1  0  0  0  0
 19 18  1  0  0  0  0
 22 21  1  6  0  0  0
 22 20  1  0  0  0  0
 22 24  1  0  0  0  0
 24 23  1  0  0  0  0
 25  1  1  0  0  0  0
 26 28  1  0  0  0  0
 28 25  1  1  0  0  0
 28 27  1  0  0  0  0
 29 31  1  0  0  0  0
 29 33  1  1  0  0  0
 30 32  1  0  0  0  0
 30 26  1  0  0  0  0
 31 27  1  0  0  0  0
 32 35  1  6  0  0  0
 32 29  1  0  0  0  0
 34 33  2  0  0  0  0
 36 35  1  0  0  0  0
 37 36  1  1  0  0  0
 38 40  1  0  0  0  0
 38 37  1  0  0  0  0
 39 42  1  0  0  0  0
 39 43  1  0  0  0  0
 41 40  1  0  0  0  0
 42 41  1  0  0  0  0
 43 38  1  0  0  0  0
 45 44  1  6  0  0  0
 45 37  1  0  0  0  0
 45 46  1  0  0  0  0
M  END
>  <MODEL>
2

>  <REMARK>
 VINA RESULT:      -7.0      2.542     10.308
  Name = 
  19 active torsions:
  status: ('A' for Active; 'I' for Inactive)
    1  A    between atoms: O_4  and  C_14
    2  A    between atoms: O_4  and  C_19
    3  A    between atoms: C_6  and  C_31
    4  A    between atoms: C_6  and  C_41
    5  A    between atoms: C_9  and  C_33
    6  A    between atoms: C_13  and  C_42
    7  A    between atoms: C_16  and  O_32
    8  A    between atoms: C_16  and  C_44
    9  A    between atoms: C_17  and  C_42
   10  A    between atoms: C_18  and  C_24
   11  A    between atoms: C_19  and  C_31
   12  A    between atoms: C_20  and  C_44
   13  A    between atoms: N_21  and  C_29
   14  A    between atoms: N_21  and  C_41
   15  A    between atoms: C_22  and  C_29
   16  A    between atoms: C_23  and  C_33
   17  A    between atoms: N_27  and  C_39
   18  A    between atoms: N_27  and  C_43
   19  A    between atoms: C_33  and  C_43
                            x       y       z     vdW  Elec       q    Type
                         _______ _______ _______ _____ _____    ______ ____

>  <TORSDO>
F 19

$$$$
=
 OpenBabel10222416163D

 46 48  0  0  1  0  0  0  0  0999 V2000
  189.0140  176.8730  144.1390 C   0  0  0  0  0  3  0  0  0  0  0  0
  190.3130  176.7970  143.8210 C   0  0  0  0  0  0  0  0  0  0  0  0
  191.3010  177.2350  144.7120 O   0  0  0  0  0  0  0  0  0  0  0  0
  191.1420  176.6780  147.0540 C   0  0  0  0  0  1  0  0  0  0  0  0
  191.8540  176.4180  145.7380 C   0  0  0  0  0  2  0  0  0  0  0  0
  190.7480  176.2360  142.5020 C   0  0  0  0  0  2  0  0  0  0  0  0
  191.3810  177.3170  141.6390 C   0  0  0  0  0  2  0  0  0  0  0  0
  189.2940  177.5770  140.5130 O   0  0  0  0  0  1  0  0  0  0  0  0
  190.6670  177.4290  140.3020 C   0  0  2  0  0  3  0  0  0  0  0  0
  190.9130  176.2310  139.5170 N   0  0  0  0  0  2  0  0  0  0  0  0
  191.5060  176.6500  138.2540 C   0  0  1  0  0  3  0  0  0  0  0  0
  193.0150  176.4640  138.3080 C   0  0  0  0  0  1  0  0  0  0  0  0
  190.1210  176.8420  136.1010 C   0  0  0  0  0  2  0  0  0  0  0  0
  190.0580  174.6970  137.5680 C   0  0  0  0  0  2  0  0  0  0  0  0
  189.8250  173.6640  136.4640 C   0  0  0  0  0  2  0  0  0  0  0  0
  188.6060  176.6160  135.9320 C   0  0  1  0  0  3  0  0  0  0  0  0
  190.8640  175.9020  137.0800 C   0  0  2  0  0  3  0  0  0  0  0  0
  189.3310  174.2660  135.1470 C   0  0  0  0  0  2  0  0  0  0  0  0
  188.1830  175.2530  135.3510 C   0  0  0  0  0  2  0  0  0  0  0  0
  187.8370  176.9480  137.2040 C   0  0  0  0  0  2  0  0  0  0  0  0
  188.4270  179.2020  137.8280 O   0  0  0  0  0  1  0  0  0  0  0  0
  187.4300  178.4180  137.2370 C   0  0  2  0  0  3  0  0  0  0  0  0
  186.4620  178.6850  139.1820 O   0  0  0  0  0  1  0  0  0  0  0  0
  186.1970  178.5960  137.8910 O   0  0  0  0  0  0  0  0  0  0  0  0
  187.9200  176.4160  143.2310 C   0  0  0  0  0  2  0  0  0  0  0  0
  186.2770  178.5820  142.8910 S   0  0  0  0  0  0  0  0  0  0  0  0
  186.6160  177.1330  145.2040 C   0  0  0  0  0  2  0  0  0  0  0  0
  186.5880  176.9780  143.6930 C   0  0  2  0  0  3  0  0  0  0  0  0
  184.6980  178.7640  145.6970 C   0  0  2  0  0  3  0  0  0  0  0  0
  184.4880  178.4000  143.1430 C   0  0  0  0  0  2  0  0  0  0  0  0
  185.2150  177.3200  145.7880 C   0  0  0  0  0  2  0  0  0  0  0  0
  184.0080  179.1560  144.3790 C   0  0  1  0  0  3  0  0  0  0  0  0
  185.6980  179.7940  146.1210 C   0  0  0  0  0  3  0  0  0  0  0  0
  185.9430  179.9670  147.3030 O   0  0  0  0  0  0  0  0  0  0  0  0
  182.5700  178.9810  144.5060 N   0  0  0  0  0  2  0  0  0  0  0  0
  182.0760  178.4640  143.2390 C   0  0  0  0  0  2  0  0  0  0  0  0
  180.8370  179.2510  142.8050 C   0  0  1  0  0  3  0  0  0  0  0  0
  180.7350  179.2640  141.2640 C   0  0  0  0  0  3  0  0  0  0  0  0
  179.9090  180.4730  139.2240 C   0  0  0  0  0  2  0  0  0  0  0  0
  182.1130  179.1320  140.6020 C   0  0  0  0  0  2  0  0  0  0  0  0
  181.9720  179.0610  139.0860 C   0  0  0  0  0  2  0  0  0  0  0  0
  181.2770  180.3170  138.5650 C   0  0  0  0  0  2  0  0  0  0  0  0
  180.0620  180.5380  140.7400 C   0  0  0  0  0  2  0  0  0  0  0  0
  178.9640  179.6300  144.4350 C   0  0  0  0  0  1  0  0  0  0  0  0
  179.5730  178.6500  143.4500 C   0  0  2  0  0  3  0  0  0  0  0  0
  179.8630  177.4680  144.1370 O   0  0  0  0  0  1  0  0  0  0  0  0
  2  1  2  0  0  0  0
  2  3  1  0  0  0  0
  3  5  1  0  0  0  0
  5  4  1  0  0  0  0
  6  2  1  0  0  0  0
  7  6  1  0  0  0  0
  9  8  1  1  0  0  0
  9  7  1  0  0  0  0
 10  9  1  0  0  0  0
 11 12  1  1  0  0  0
 11 10  1  0  0  0  0
 13 17  1  0  0  0  0
 15 14  1  0  0  0  0
 16 13  1  0  0  0  0
 16 20  1  1  0  0  0
 17 14  1  0  0  0  0
 17 11  1  1  0  0  0
 18 19  1  0  0  0  0
 18 15  1  0  0  0  0
 19 16  1  0  0  0  0
 20 22  1  0  0  0  0
 22 21  1  1  0  0  0
 22 24  1  0  0  0  0
 24 23  1  0  0  0  0
 25  1  1  0  0  0  0
 26 30  1  0  0  0  0
 26 28  1  0  0  0  0
 27 31  1  0  0  0  0
 28 25  1  6  0  0  0
 28 27  1  0  0  0  0
 29 31  1  0  0  0  0
 29 33  1  6  0  0  0
 30 32  1  0  0  0  0
 32 35  1  1  0  0  0
 32 29  1  0  0  0  0
 33 34  2  0  0  0  0
 36 35  1  0  0  0  0
 37 36  1  6  0  0  0
 37 45  1  0  0  0  0
 38 37  1  0  0  0  0
 39 43  1  0  0  0  0
 40 38  1  0  0  0  0
 41 40  1  0  0  0  0
 42 41  1  0  0  0  0
 42 39  1  0  0  0  0
 43 38  1  0  0  0  0
 45 46  1  0  0  0  0
 45 44  1  1  0  0  0
M  END
>  <MODEL>
3

>  <REMARK>
 VINA RESULT:      -7.0      2.715      7.459
  Name = 
  19 active torsions:
  status: ('A' for Active; 'I' for Inactive)
    1  A    between atoms: O_4  and  C_14
    2  A    between atoms: O_4  and  C_19
    3  A    between atoms: C_6  and  C_31
    4  A    between atoms: C_6  and  C_41
    5  A    between atoms: C_9  and  C_33
    6  A    between atoms: C_13  and  C_42
    7  A    between atoms: C_16  and  O_32
    8  A    between atoms: C_16  and  C_44
    9  A    between atoms: C_17  and  C_42
   10  A    between atoms: C_18  and  C_24
   11  A    between atoms: C_19  and  C_31
   12  A    between atoms: C_20  and  C_44
   13  A    between atoms: N_21  and  C_29
   14  A    between atoms: N_21  and  C_41
   15  A    between atoms: C_22  and  C_29
   16  A    between atoms: C_23  and  C_33
   17  A    between atoms: N_27  and  C_39
   18  A    between atoms: N_27  and  C_43
   19  A    between atoms: C_33  and  C_43
                            x       y       z     vdW  Elec       q    Type
                         _______ _______ _______ _____ _____    ______ ____

>  <TORSDO>
F 19

$$$$
=
 OpenBabel10222416163D

 46 48  0  0  1  0  0  0  0  0999 V2000
  188.4800  176.9020  135.2920 C   0  0  0  0  0  3  0  0  0  0  0  0
  189.6170  176.4680  135.8500 C   0  0  0  0  0  0  0  0  0  0  0  0
  190.2030  175.2600  135.4480 O   0  0  0  0  0  0  0  0  0  0  0  0
  189.4930  173.2770  136.6240 C   0  0  0  0  0  1  0  0  0  0  0  0
  189.4800  174.0420  135.3120 C   0  0  0  0  0  2  0  0  0  0  0  0
  190.3000  177.2640  136.9190 C   0  0  0  0  0  2  0  0  0  0  0  0
  190.3580  176.4800  138.2210 C   0  0  0  0  0  2  0  0  0  0  0  0
  191.6650  177.4300  139.9770 O   0  0  0  0  0  1  0  0  0  0  0  0
  190.3850  177.4180  139.4170 C   0  0  2  0  0  3  0  0  0  0  0  0
  189.4230  176.9690  140.4090 N   0  0  0  0  0  2  0  0  0  0  0  0
  189.3480  177.9950  141.4410 C   0  0  1  0  0  3  0  0  0  0  0  0
  187.9030  178.4350  141.6240 C   0  0  0  0  0  1  0  0  0  0  0  0
  189.0730  176.5040  143.5120 C   0  0  0  0  0  2  0  0  0  0  0  0
  190.5200  178.6620  143.5770 C   0  0  0  0  0  2  0  0  0  0  0  0
  191.5650  178.2140  144.6000 C   0  0  0  0  0  2  0  0  0  0  0  0
  188.6130  176.9240  144.9220 C   0  0  1  0  0  3  0  0  0  0  0  0
  189.9790  177.4970  142.7460 C   0  0  2  0  0  3  0  0  0  0  0  0
  191.1450  176.9930  145.4200 C   0  0  0  0  0  2  0  0  0  0  0  0
  189.7260  177.1190  145.9700 C   0  0  0  0  0  2  0  0  0  0  0  0
  187.6670  178.1160  144.8780 C   0  0  0  0  0  2  0  0  0  0  0  0
  185.8400  177.0310  146.0180 O   0  0  0  0  0  1  0  0  0  0  0  0
  186.7210  178.1170  146.0750 C   0  0  2  0  0  3  0  0  0  0  0  0
  185.3650  179.2990  147.3230 O   0  0  0  0  0  1  0  0  0  0  0  0
  186.0170  179.3310  146.1750 O   0  0  0  0  0  0  0  0  0  0  0  0
  187.8150  178.1830  135.6770 C   0  0  0  0  0  2  0  0  0  0  0  0
  186.2900  177.6750  137.8950 S   0  0  0  0  0  0  0  0  0  0  0  0
  185.8680  176.6940  135.3600 C   0  0  0  0  0  2  0  0  0  0  0  0
  186.3790  177.9220  136.0940 C   0  0  2  0  0  3  0  0  0  0  0  0
  183.8200  175.9650  136.7230 C   0  0  2  0  0  3  0  0  0  0  0  0
  184.5370  178.1500  137.9080 C   0  0  0  0  0  2  0  0  0  0  0  0
  184.3430  176.5840  135.4180 C   0  0  0  0  0  2  0  0  0  0  0  0
  183.6180  176.9330  137.9010 C   0  0  1  0  0  3  0  0  0  0  0  0
  184.5550  174.7310  137.1450 C   0  0  0  0  0  3  0  0  0  0  0  0
  183.9970  173.8760  137.8110 O   0  0  0  0  0  0  0  0  0  0  0  0
  182.2370  177.3880  137.9300 N   0  0  0  0  0  2  0  0  0  0  0  0
  182.1620  178.5070  138.8590 C   0  0  0  0  0  2  0  0  0  0  0  0
  181.5640  178.0390  140.1870 C   0  0  1  0  0  3  0  0  0  0  0  0
  182.3290  178.6830  141.3640 C   0  0  0  0  0  3  0  0  0  0  0  0
  182.2890  179.3390  143.7880 C   0  0  0  0  0  2  0  0  0  0  0  0
  183.6920  178.0130  141.5900 C   0  0  0  0  0  2  0  0  0  0  0  0
  184.4580  178.7240  142.7000 C   0  0  0  0  0  2  0  0  0  0  0  0
  183.6550  178.6890  143.9970 C   0  0  0  0  0  2  0  0  0  0  0  0
  181.5340  178.6230  142.6730 C   0  0  0  0  0  2  0  0  0  0  0  0
  179.2430  177.1140  140.4390 C   0  0  0  0  0  1  0  0  0  0  0  0
  180.0610  178.3760  140.2400 C   0  0  2  0  0  3  0  0  0  0  0  0
  179.6330  178.9890  139.0600 O   0  0  0  0  0  1  0  0  0  0  0  0
  1 25  1  0  0  0  0
  1  2  2  0  0  0  0
  2  6  1  0  0  0  0
  3  2  1  0  0  0  0
  5  3  1  0  0  0  0
  5  4  1  0  0  0  0
  6  7  1  0  0  0  0
  7  9  1  0  0  0  0
  9  8  1  1  0  0  0
  9 10  1  0  0  0  0
 10 11  1  0  0  0  0
 11 12  1  1  0  0  0
 13 16  1  0  0  0  0
 14 15  1  0  0  0  0
 15 18  1  0  0  0  0
 16 20  1  6  0  0  0
 16 19  1  0  0  0  0
 17 11  1  6  0  0  0
 17 13  1  0  0  0  0
 17 14  1  0  0  0  0
 18 19  1  0  0  0  0
 20 22  1  0  0  0  0
 22 21  1  6  0  0  0
 22 24  1  0  0  0  0
 24 23  1  0  0  0  0
 26 30  1  0  0  0  0
 27 31  1  0  0  0  0
 27 28  1  0  0  0  0
 28 25  1  6  0  0  0
 28 26  1  0  0  0  0
 29 33  1  1  0  0  0
 29 32  1  0  0  0  0
 31 29  1  0  0  0  0
 32 30  1  0  0  0  0
 32 35  1  6  0  0  0
 33 34  2  0  0  0  0
 35 36  1  0  0  0  0
 37 36  1  6  0  0  0
 37 45  1  0  0  0  0
 37 38  1  0  0  0  0
 38 40  1  0  0  0  0
 38 43  1  0  0  0  0
 39 42  1  0  0  0  0
 40 41  1  0  0  0  0
 41 42  1  0  0  0  0
 43 39  1  0  0  0  0
 45 44  1  6  0  0  0
 46 45  1  0  0  0  0
M  END
>  <MODEL>
4

>  <REMARK>
 VINA RESULT:      -6.9      2.149      2.887
  Name = 
  19 active torsions:
  status: ('A' for Active; 'I' for Inactive)
    1  A    between atoms: O_4  and  C_14
    2  A    between atoms: O_4  and  C_19
    3  A    between atoms: C_6  and  C_31
    4  A    between atoms: C_6  and  C_41
    5  A    between atoms: C_9  and  C_33
    6  A    between atoms: C_13  and  C_42
    7  A    between atoms: C_16  and  O_32
    8  A    between atoms: C_16  and  C_44
    9  A    between atoms: C_17  and  C_42
   10  A    between atoms: C_18  and  C_24
   11  A    between atoms: C_19  and  C_31
   12  A    between atoms: C_20  and  C_44
   13  A    between atoms: N_21  and  C_29
   14  A    between atoms: N_21  and  C_41
   15  A    between atoms: C_22  and  C_29
   16  A    between atoms: C_23  and  C_33
   17  A    between atoms: N_27  and  C_39
   18  A    between atoms: N_27  and  C_43
   19  A    between atoms: C_33  and  C_43
                            x       y       z     vdW  Elec       q    Type
                         _______ _______ _______ _____ _____    ______ ____

>  <TORSDO>
F 19

$$$$
=
 OpenBabel10222416163D

 46 48  0  0  1  0  0  0  0  0999 V2000
  189.5670  176.4630  136.9120 C   0  0  0  0  0  3  0  0  0  0  0  0
  189.9840  176.3210  138.1760 C   0  0  0  0  0  0  0  0  0  0  0  0
  190.9360  175.3510  138.5170 O   0  0  0  0  0  0  0  0  0  0  0  0
  191.8800  173.8180  136.9110 C   0  0  0  0  0  1  0  0  0  0  0  0
  192.0930  175.0760  137.7340 C   0  0  0  0  0  2  0  0  0  0  0  0
  189.4460  177.1970  139.2650 C   0  0  0  0  0  2  0  0  0  0  0  0
  189.9790  176.7610  140.6210 C   0  0  0  0  0  2  0  0  0  0  0  0
  192.2710  177.4050  140.7910 O   0  0  0  0  0  1  0  0  0  0  0  0
  190.9750  177.7740  141.1620 C   0  0  2  0  0  3  0  0  0  0  0  0
  190.8780  177.8260  142.6110 N   0  0  0  0  0  2  0  0  0  0  0  0
  190.4460  176.5120  143.0680 C   0  0  1  0  0  3  0  0  0  0  0  0
  191.6320  175.7490  143.6380 C   0  0  0  0  0  1  0  0  0  0  0  0
  187.9330  176.1940  143.4830 C   0  0  0  0  0  2  0  0  0  0  0  0
  189.2970  178.0130  144.7430 C   0  0  0  0  0  2  0  0  0  0  0  0
  188.5180  178.0200  146.0600 C   0  0  0  0  0  2  0  0  0  0  0  0
  186.8230  177.2600  143.4080 C   0  0  1  0  0  3  0  0  0  0  0  0
  189.2930  176.6390  144.0700 C   0  0  2  0  0  3  0  0  0  0  0  0
  187.1400  177.3630  145.9680 C   0  0  0  0  0  2  0  0  0  0  0  0
  186.3450  177.8400  144.7530 C   0  0  0  0  0  2  0  0  0  0  0  0
  187.1590  178.3600  142.4100 C   0  0  0  0  0  2  0  0  0  0  0  0
  184.7930  178.0990  142.0250 O   0  0  0  0  0  1  0  0  0  0  0  0
  185.9010  178.9060  141.7420 C   0  0  2  0  0  3  0  0  0  0  0  0
  184.9800  179.6240  139.8910 O   0  0  0  0  0  1  0  0  0  0  0  0
  186.0760  179.0510  140.3540 O   0  0  0  0  0  0  0  0  0  0  0  0
  188.5590  177.4820  136.4910 C   0  0  0  0  0  2  0  0  0  0  0  0
  185.9310  177.2130  137.2170 S   0  0  0  0  0  0  0  0  0  0  0  0
  187.5020  175.2980  136.0210 C   0  0  0  0  0  2  0  0  0  0  0  0
  187.2740  176.7990  136.0590 C   0  0  2  0  0  3  0  0  0  0  0  0
  185.1350  174.3090  136.0630 C   0  0  2  0  0  3  0  0  0  0  0  0
  184.6810  176.8540  135.9490 C   0  0  0  0  0  2  0  0  0  0  0  0
  186.4060  174.5700  135.2400 C   0  0  0  0  0  2  0  0  0  0  0  0
  184.1040  175.4500  136.1010 C   0  0  1  0  0  3  0  0  0  0  0  0
  185.4010  173.7610  137.4300 C   0  0  0  0  0  3  0  0  0  0  0  0
  186.1440  172.8070  137.5800 O   0  0  0  0  0  0  0  0  0  0  0  0
  183.1020  175.2410  135.0680 N   0  0  0  0  0  2  0  0  0  0  0  0
  181.8160  175.6440  135.6160 C   0  0  0  0  0  2  0  0  0  0  0  0
  181.4930  174.8050  136.8540 C   0  0  1  0  0  3  0  0  0  0  0  0
  180.6650  175.6420  137.8540 C   0  0  0  0  0  3  0  0  0  0  0  0
  180.3380  176.3370  140.2450 C   0  0  0  0  0  2  0  0  0  0  0  0
  180.5910  177.1160  137.4370 C   0  0  0  0  0  2  0  0  0  0  0  0
  179.6980  177.8970  138.3960 C   0  0  0  0  0  2  0  0  0  0  0  0
  180.2440  177.7990  139.8170 C   0  0  0  0  0  2  0  0  0  0  0  0
  181.2290  175.5650  139.2780 C   0  0  0  0  0  2  0  0  0  0  0  0
  179.2690  173.7920  136.2760 C   0  0  0  0  0  1  0  0  0  0  0  0
  180.7510  173.5180  136.4450 C   0  0  2  0  0  3  0  0  0  0  0  0
  180.8990  172.5150  137.4070 O   0  0  0  0  0  1  0  0  0  0  0  0
  1  2  2  0  0  0  0
  2  3  1  0  0  0  0
  2  6  1  0  0  0  0
  4  5  1  0  0  0  0
  5  3  1  0  0  0  0
  6  7  1  0  0  0  0
  7  9  1  0  0  0  0
  9  8  1  1  0  0  0
  9 10  1  0  0  0  0
 10 11  1  0  0  0  0
 11 12  1  1  0  0  0
 13 17  1  0  0  0  0
 14 15  1  0  0  0  0
 16 20  1  6  0  0  0
 16 13  1  0  0  0  0
 16 19  1  0  0  0  0
 17 11  1  6  0  0  0
 17 14  1  0  0  0  0
 18 15  1  0  0  0  0
 19 18  1  0  0  0  0
 22 21  1  6  0  0  0
 22 20  1  0  0  0  0
 23 24  1  0  0  0  0
 24 22  1  0  0  0  0
 25  1  1  0  0  0  0
 27 28  1  0  0  0  0
 28 25  1  1  0  0  0
 28 26  1  0  0  0  0
 29 32  1  0  0  0  0
 29 33  1  1  0  0  0
 30 32  1  0  0  0  0
 30 26  1  0  0  0  0
 31 27  1  0  0  0  0
 31 29  1  0  0  0  0
 32 35  1  6  0  0  0
 33 34  2  0  0  0  0
 35 36  1  0  0  0  0
 37 36  1  6  0  0  0
 37 38  1  0  0  0  0
 38 43  1  0  0  0  0
 40 38  1  0  0  0  0
 40 41  1  0  0  0  0
 41 42  1  0  0  0  0
 42 39  1  0  0  0  0
 43 39  1  0  0  0  0
 45 44  1  1  0  0  0
 45 37  1  0  0  0  0
 45 46  1  0  0  0  0
M  END
>  <MODEL>
5

>  <REMARK>
 VINA RESULT:      -6.9      2.586      4.089
  Name = 
  19 active torsions:
  status: ('A' for Active; 'I' for Inactive)
    1  A    between atoms: O_4  and  C_14
    2  A    between atoms: O_4  and  C_19
    3  A    between atoms: C_6  and  C_31
    4  A    between atoms: C_6  and  C_41
    5  A    between atoms: C_9  and  C_33
    6  A    between atoms: C_13  and  C_42
    7  A    between atoms: C_16  and  O_32
    8  A    between atoms: C_16  and  C_44
    9  A    between atoms: C_17  and  C_42
   10  A    between atoms: C_18  and  C_24
   11  A    between atoms: C_19  and  C_31
   12  A    between atoms: C_20  and  C_44
   13  A    between atoms: N_21  and  C_29
   14  A    between atoms: N_21  and  C_41
   15  A    between atoms: C_22  and  C_29
   16  A    between atoms: C_23  and  C_33
   17  A    between atoms: N_27  and  C_39
   18  A    between atoms: N_27  and  C_43
   19  A    between atoms: C_33  and  C_43
                            x       y       z     vdW  Elec       q    Type
                         _______ _______ _______ _____ _____    ______ ____

>  <TORSDO>
F 19

$$$$
=
 OpenBabel10222416163D

 46 48  0  0  1  0  0  0  0  0999 V2000
  189.3570  177.6510  136.5920 C   0  0  0  0  0  3  0  0  0  0  0  0
  190.1280  177.1490  137.5650 C   0  0  0  0  0  0  0  0  0  0  0  0
  190.9520  176.0400  137.3320 O   0  0  0  0  0  0  0  0  0  0  0  0
  192.7640  175.8860  135.7470 C   0  0  0  0  0  1  0  0  0  0  0  0
  191.3040  175.5800  136.0310 C   0  0  0  0  0  2  0  0  0  0  0  0
  190.1340  177.7600  138.9320 C   0  0  0  0  0  2  0  0  0  0  0  0
  190.3430  176.6950  139.9980 C   0  0  0  0  0  2  0  0  0  0  0  0
  191.8550  177.2830  141.7470 O   0  0  0  0  0  1  0  0  0  0  0  0
  190.5100  177.3280  141.3700 C   0  0  2  0  0  3  0  0  0  0  0  0
  189.7070  176.6040  142.3410 N   0  0  0  0  0  2  0  0  0  0  0  0
  188.8400  177.5720  142.9990 C   0  0  1  0  0  3  0  0  0  0  0  0
  187.5390  177.7090  142.2220 C   0  0  0  0  0  1  0  0  0  0  0  0
  187.1300  176.8560  144.7740 C   0  0  0  0  0  2  0  0  0  0  0  0
  189.2690  178.1900  145.4110 C   0  0  0  0  0  2  0  0  0  0  0  0
  189.4990  177.6120  146.8080 C   0  0  0  0  0  2  0  0  0  0  0  0
  186.4210  177.7470  145.8130 C   0  0  1  0  0  3  0  0  0  0  0  0
  188.6100  177.1850  144.4640 C   0  0  2  0  0  3  0  0  0  0  0  0
  188.2790  176.8980  147.3920 C   0  0  0  0  0  2  0  0  0  0  0  0
  186.9970  177.7150  147.2420 C   0  0  0  0  0  2  0  0  0  0  0  0
  186.2430  179.1730  145.3110 C   0  0  0  0  0  2  0  0  0  0  0  0
  183.9320  178.4930  145.4190 O   0  0  0  0  0  1  0  0  0  0  0  0
  184.8100  179.4240  144.8520 C   0  0  2  0  0  3  0  0  0  0  0  0
  184.0760  178.3100  143.1170 O   0  0  0  0  0  1  0  0  0  0  0  0
  184.7090  179.4200  143.4490 O   0  0  0  0  0  0  0  0  0  0  0  0
  188.4640  178.8330  136.7820 C   0  0  0  0  0  2  0  0  0  0  0  0
  186.5850  177.8550  138.5190 S   0  0  0  0  0  0  0  0  0  0  0  0
  186.8090  177.2540  135.8450 C   0  0  0  0  0  2  0  0  0  0  0  0
  187.0130  178.3900  136.8330 C   0  0  2  0  0  3  0  0  0  0  0  0
  184.6250  176.1490  136.6110 C   0  0  2  0  0  3  0  0  0  0  0  0
  184.8240  178.1730  138.2100 C   0  0  0  0  0  2  0  0  0  0  0  0
  185.3290  177.0080  135.5500 C   0  0  0  0  0  2  0  0  0  0  0  0
  184.0730  176.8990  137.8350 C   0  0  1  0  0  3  0  0  0  0  0  0
  185.3950  174.9300  137.0130 C   0  0  0  0  0  3  0  0  0  0  0  0
  184.9420  173.8170  136.8100 O   0  0  0  0  0  0  0  0  0  0  0  0
  182.6730  177.2260  137.6210 N   0  0  0  0  0  2  0  0  0  0  0  0
  182.5810  178.6660  137.4310 C   0  0  0  0  0  2  0  0  0  0  0  0
  181.6290  179.2670  138.4660 C   0  0  1  0  0  3  0  0  0  0  0  0
  180.8220  180.4210  137.8320 C   0  0  0  0  0  3  0  0  0  0  0  0
  180.3960  182.8940  137.7590 C   0  0  0  0  0  2  0  0  0  0  0  0
  180.9310  180.4160  136.3010 C   0  0  0  0  0  2  0  0  0  0  0  0
  180.0570  181.5120  135.7010 C   0  0  0  0  0  2  0  0  0  0  0  0
  180.4850  182.8750  136.2360 C   0  0  0  0  0  2  0  0  0  0  0  0
  181.2700  181.7920  138.3490 C   0  0  0  0  0  2  0  0  0  0  0  0
  179.2480  178.5590  138.8350 C   0  0  0  0  0  1  0  0  0  0  0  0
  180.7020  178.1740  139.0330 C   0  0  2  0  0  3  0  0  0  0  0  0
  180.9160  177.9800  140.4000 O   0  0  0  0  0  1  0  0  0  0  0  0
  1 25  1  0  0  0  0
  1  2  2  0  0  0  0
  2  6  1  0  0  0  0
  3  2  1  0  0  0  0
  4  5  1  0  0  0  0
  5  3  1  0  0  0  0
  6  7  1  0  0  0  0
  7  9  1  0  0  0  0
  9  8  1  1  0  0  0
  9 10  1  0  0  0  0
 10 11  1  0  0  0  0
 11 12  1  6  0  0  0
 13 16  1  0  0  0  0
 14 15  1  0  0  0  0
 15 18  1  0  0  0  0
 16 20  1  6  0  0  0
 16 19  1  0  0  0  0
 17 11  1  6  0  0  0
 17 13  1  0  0  0  0
 17 14  1  0  0  0  0
 19 18  1  0  0  0  0
 22 20  1  0  0  0  0
 22 21  1  1  0  0  0
 23 24  1  0  0  0  0
 24 22  1  0  0  0  0
 27 28  1  0  0  0  0
 28 25  1  1  0  0  0
 28 26  1  0  0  0  0
 29 33  1  1  0  0  0
 29 32  1  0  0  0  0
 30 26  1  0  0  0  0
 31 27  1  0  0  0  0
 31 29  1  0  0  0  0
 32 35  1  6  0  0  0
 32 30  1  0  0  0  0
 34 33  2  0  0  0  0
 36 35  1  0  0  0  0
 37 36  1  6  0  0  0
 37 45  1  0  0  0  0
 38 43  1  0  0  0  0
 38 37  1  0  0  0  0
 39 43  1  0  0  0  0
 40 38  1  0  0  0  0
 41 42  1  0  0  0  0
 41 40  1  0  0  0  0
 42 39  1  0  0  0  0
 45 44  1  1  0  0  0
 45 46  1  0  0  0  0
M  END
>  <MODEL>
6

>  <REMARK>
 VINA RESULT:      -6.7      2.659      3.940
  Name = 
  19 active torsions:
  status: ('A' for Active; 'I' for Inactive)
    1  A    between atoms: O_4  and  C_14
    2  A    between atoms: O_4  and  C_19
    3  A    between atoms: C_6  and  C_31
    4  A    between atoms: C_6  and  C_41
    5  A    between atoms: C_9  and  C_33
    6  A    between atoms: C_13  and  C_42
    7  A    between atoms: C_16  and  O_32
    8  A    between atoms: C_16  and  C_44
    9  A    between atoms: C_17  and  C_42
   10  A    between atoms: C_18  and  C_24
   11  A    between atoms: C_19  and  C_31
   12  A    between atoms: C_20  and  C_44
   13  A    between atoms: N_21  and  C_29
   14  A    between atoms: N_21  and  C_41
   15  A    between atoms: C_22  and  C_29
   16  A    between atoms: C_23  and  C_33
   17  A    between atoms: N_27  and  C_39
   18  A    between atoms: N_27  and  C_43
   19  A    between atoms: C_33  and  C_43
                            x       y       z     vdW  Elec       q    Type
                         _______ _______ _______ _____ _____    ______ ____

>  <TORSDO>
F 19

$$$$
=
 OpenBabel10222416163D

 46 48  0  0  1  0  0  0  0  0999 V2000
  189.2400  177.4700  136.4490 C   0  0  0  0  0  3  0  0  0  0  0  0
  190.0890  177.0400  137.3910 C   0  0  0  0  0  0  0  0  0  0  0  0
  190.9540  175.9650  137.1450 O   0  0  0  0  0  0  0  0  0  0  0  0
  192.5760  174.5820  136.0180 C   0  0  0  0  0  1  0  0  0  0  0  0
  191.6450  175.7760  135.9150 C   0  0  0  0  0  2  0  0  0  0  0  0
  190.1420  177.6980  138.7350 C   0  0  0  0  0  2  0  0  0  0  0  0
  190.8410  176.8020  139.7470 C   0  0  0  0  0  2  0  0  0  0  0  0
  191.8820  177.1500  141.8650 O   0  0  0  0  0  1  0  0  0  0  0  0
  190.6980  177.3600  141.1540 C   0  0  2  0  0  3  0  0  0  0  0  0
  189.5970  176.6950  141.8310 N   0  0  0  0  0  2  0  0  0  0  0  0
  188.9390  177.6860  142.6720 C   0  0  1  0  0  3  0  0  0  0  0  0
  187.5540  177.9890  142.1220 C   0  0  0  0  0  1  0  0  0  0  0  0
  187.5040  176.7150  144.5660 C   0  0  0  0  0  2  0  0  0  0  0  0
  189.5420  178.2520  145.0590 C   0  0  0  0  0  2  0  0  0  0  0  0
  189.9730  177.6480  146.3970 C   0  0  0  0  0  2  0  0  0  0  0  0
  186.8130  177.4800  145.7120 C   0  0  1  0  0  3  0  0  0  0  0  0
  188.9020  177.2180  144.1310 C   0  0  2  0  0  3  0  0  0  0  0  0
  188.9010  176.7810  147.0590 C   0  0  0  0  0  2  0  0  0  0  0  0
  187.5310  177.4560  147.0750 C   0  0  0  0  0  2  0  0  0  0  0  0
  186.4350  178.8970  145.3010 C   0  0  0  0  0  2  0  0  0  0  0  0
  184.4200  178.6280  146.6000 O   0  0  0  0  0  1  0  0  0  0  0  0
  184.9270  179.1150  145.3900 C   0  0  2  0  0  3  0  0  0  0  0  0
  183.1540  179.2380  144.1120 O   0  0  0  0  0  1  0  0  0  0  0  0
  184.2580  178.5370  144.2960 O   0  0  0  0  0  0  0  0  0  0  0  0
  188.3000  178.6140  136.6540 C   0  0  0  0  0  2  0  0  0  0  0  0
  186.3450  177.7810  138.3820 S   0  0  0  0  0  0  0  0  0  0  0  0
  186.7720  176.8550  135.8270 C   0  0  0  0  0  2  0  0  0  0  0  0
  186.8670  178.1160  136.6700 C   0  0  2  0  0  3  0  0  0  0  0  0
  184.5810  175.7600  136.5920 C   0  0  2  0  0  3  0  0  0  0  0  0
  184.5980  177.9780  137.9240 C   0  0  0  0  0  2  0  0  0  0  0  0
  185.3250  176.5080  135.4740 C   0  0  0  0  0  2  0  0  0  0  0  0
  183.9210  176.6340  137.6710 C   0  0  1  0  0  3  0  0  0  0  0  0
  185.3670  174.6380  137.1960 C   0  0  0  0  0  3  0  0  0  0  0  0
  185.6070  173.6340  136.5490 O   0  0  0  0  0  0  0  0  0  0  0  0
  182.5280  176.8690  137.3290 N   0  0  0  0  0  2  0  0  0  0  0  0
  182.0760  178.0230  138.0910 C   0  0  0  0  0  2  0  0  0  0  0  0
  180.5480  178.1040  138.0540 C   0  0  1  0  0  3  0  0  0  0  0  0
  180.0130  178.5890  139.4190 C   0  0  0  0  0  3  0  0  0  0  0  0
  179.8270  178.1380  141.8820 C   0  0  0  0  0  2  0  0  0  0  0  0
  180.4790  180.0160  139.7370 C   0  0  0  0  0  2  0  0  0  0  0  0
  179.8670  180.4970  141.0480 C   0  0  0  0  0  2  0  0  0  0  0  0
  180.2700  179.5660  142.1880 C   0  0  0  0  0  2  0  0  0  0  0  0
  180.4410  177.6690  140.5680 C   0  0  0  0  0  2  0  0  0  0  0  0
  179.2820  178.2510  135.8890 C   0  0  0  0  0  1  0  0  0  0  0  0
  180.0930  179.0290  136.9080 C   0  0  2  0  0  3  0  0  0  0  0  0
  181.1850  179.6000  136.2490 O   0  0  0  0  0  1  0  0  0  0  0  0
  1 25  1  0  0  0  0
  1  2  2  0  0  0  0
  2  6  1  0  0  0  0
  3  2  1  0  0  0  0
  5  4  1  0  0  0  0
  5  3  1  0  0  0  0
  6  7  1  0  0  0  0
  7  9  1  0  0  0  0
  9 10  1  0  0  0  0
  9  8  1  1  0  0  0
 10 11  1  0  0  0  0
 11 12  1  6  0  0  0
 13 16  1  0  0  0  0
 14 15  1  0  0  0  0
 15 18  1  0  0  0  0
 16 20  1  6  0  0  0
 16 19  1  0  0  0  0
 17 11  1  6  0  0  0
 17 13  1  0  0  0  0
 17 14  1  0  0  0  0
 18 19  1  0  0  0  0
 20 22  1  0  0  0  0
 22 21  1  1  0  0  0
 23 24  1  0  0  0  0
 24 22  1  0  0  0  0
 27 28  1  0  0  0  0
 28 25  1  1  0  0  0
 28 26  1  0  0  0  0
 29 33  1  1  0  0  0
 29 32  1  0  0  0  0
 30 26  1  0  0  0  0
 31 27  1  0  0  0  0
 31 29  1  0  0  0  0
 32 35  1  6  0  0  0
 32 30  1  0  0  0  0
 34 33  2  0  0  0  0
 35 36  1  0  0  0  0
 37 36  1  1  0  0  0
 37 38  1  0  0  0  0
 38 40  1  0  0  0  0
 38 43  1  0  0  0  0
 39 42  1  0  0  0  0
 40 41  1  0  0  0  0
 41 42  1  0  0  0  0
 43 39  1  0  0  0  0
 45 44  1  6  0  0  0
 45 37  1  0  0  0  0
 46 45  1  0  0  0  0
M  END
>  <MODEL>
7

>  <REMARK>
 VINA RESULT:      -6.5      2.284      3.314
  Name = 
  19 active torsions:
  status: ('A' for Active; 'I' for Inactive)
    1  A    between atoms: O_4  and  C_14
    2  A    between atoms: O_4  and  C_19
    3  A    between atoms: C_6  and  C_31
    4  A    between atoms: C_6  and  C_41
    5  A    between atoms: C_9  and  C_33
    6  A    between atoms: C_13  and  C_42
    7  A    between atoms: C_16  and  O_32
    8  A    between atoms: C_16  and  C_44
    9  A    between atoms: C_17  and  C_42
   10  A    between atoms: C_18  and  C_24
   11  A    between atoms: C_19  and  C_31
   12  A    between atoms: C_20  and  C_44
   13  A    between atoms: N_21  and  C_29
   14  A    between atoms: N_21  and  C_41
   15  A    between atoms: C_22  and  C_29
   16  A    between atoms: C_23  and  C_33
   17  A    between atoms: N_27  and  C_39
   18  A    between atoms: N_27  and  C_43
   19  A    between atoms: C_33  and  C_43
                            x       y       z     vdW  Elec       q    Type
                         _______ _______ _______ _____ _____    ______ ____

>  <TORSDO>
F 19

$$$$
=
 OpenBabel10222416163D

 46 48  0  0  1  0  0  0  0  0999 V2000
  190.7040  175.5660  134.9640 C   0  0  0  0  0  3  0  0  0  0  0  0
  191.4020  175.8670  136.0660 C   0  0  0  0  0  0  0  0  0  0  0  0
  192.7230  176.3280  135.9800 O   0  0  0  0  0  0  0  0  0  0  0  0
  194.5310  174.8780  136.6470 C   0  0  0  0  0  1  0  0  0  0  0  0
  193.8010  175.5390  135.4910 C   0  0  0  0  0  2  0  0  0  0  0  0
  190.7900  175.7240  137.4260 C   0  0  0  0  0  2  0  0  0  0  0  0
  190.6950  177.0740  138.1190 C   0  0  0  0  0  2  0  0  0  0  0  0
  192.5800  176.3070  139.3650 O   0  0  0  0  0  1  0  0  0  0  0  0
  191.3950  177.0400  139.4690 C   0  0  2  0  0  3  0  0  0  0  0  0
  190.5230  176.4220  140.4540 N   0  0  0  0  0  2  0  0  0  0  0  0
  191.0400  176.7650  141.7720 C   0  0  1  0  0  3  0  0  0  0  0  0
  192.1350  177.8130  141.6380 C   0  0  0  0  0  1  0  0  0  0  0  0
  190.3890  178.1610  143.8250 C   0  0  0  0  0  2  0  0  0  0  0  0
  189.0610  176.0270  143.1580 C   0  0  0  0  0  2  0  0  0  0  0  0
  187.6760  176.4490  143.6490 C   0  0  0  0  0  2  0  0  0  0  0  0
  190.1960  177.6720  145.2740 C   0  0  1  0  0  3  0  0  0  0  0  0
  189.9050  177.2170  142.6980 C   0  0  2  0  0  3  0  0  0  0  0  0
  187.6970  177.6260  144.6260 C   0  0  0  0  0  2  0  0  0  0  0  0
  188.7400  177.4510  145.7290 C   0  0  0  0  0  2  0  0  0  0  0  0
  191.0710  176.4660  145.5870 C   0  0  0  0  0  2  0  0  0  0  0  0
  191.2240  177.6560  147.6790 O   0  0  0  0  0  1  0  0  0  0  0  0
  191.4330  176.4150  147.0690 C   0  0  2  0  0  3  0  0  0  0  0  0
  192.8690  175.6580  148.5380 O   0  0  0  0  0  1  0  0  0  0  0  0
  192.7550  175.9760  147.2610 O   0  0  0  0  0  0  0  0  0  0  0  0
  189.2930  175.0760  134.9960 C   0  0  0  0  0  2  0  0  0  0  0  0
  187.3420  175.1770  136.9160 S   0  0  0  0  0  0  0  0  0  0  0  0
  187.5790  176.8380  134.7360 C   0  0  0  0  0  2  0  0  0  0  0  0
  188.4140  176.0630  135.7410 C   0  0  2  0  0  3  0  0  0  0  0  0
  185.6740  177.8260  136.1420 C   0  0  2  0  0  3  0  0  0  0  0  0
  187.1530  176.6750  137.9260 C   0  0  0  0  0  2  0  0  0  0  0  0
  186.9630  178.0960  135.3500 C   0  0  0  0  0  2  0  0  0  0  0  0
  185.8550  177.4130  137.6120 C   0  0  1  0  0  3  0  0  0  0  0  0
  184.7040  176.9330  135.4340 C   0  0  0  0  0  3  0  0  0  0  0  0
  184.3670  175.8710  135.9290 O   0  0  0  0  0  0  0  0  0  0  0  0
  185.7630  178.5850  138.4670 N   0  0  0  0  0  2  0  0  0  0  0  0
  184.3530  178.8300  138.7280 C   0  0  0  0  0  2  0  0  0  0  0  0
  183.8670  177.9170  139.8560 C   0  0  1  0  0  3  0  0  0  0  0  0
  183.7350  178.7240  141.1660 C   0  0  0  0  0  3  0  0  0  0  0  0
  182.3750  179.1720  143.2290 C   0  0  0  0  0  2  0  0  0  0  0  0
  184.9850  178.5880  142.0460 C   0  0  0  0  0  2  0  0  0  0  0  0
  184.8600  179.4620  143.2890 C   0  0  0  0  0  2  0  0  0  0  0  0
  183.6280  179.0570  144.0930 C   0  0  0  0  0  2  0  0  0  0  0  0
  182.5120  178.2980  141.9870 C   0  0  0  0  0  2  0  0  0  0  0  0
  182.7580  175.8070  139.0660 C   0  0  0  0  0  1  0  0  0  0  0  0
  182.5330  177.2530  139.4650 C   0  0  2  0  0  3  0  0  0  0  0  0
  181.9310  177.9110  138.3890 O   0  0  0  0  0  1  0  0  0  0  0  0
  1 25  1  0  0  0  0
  1  2  2  0  0  0  0
  2  6  1  0  0  0  0
  3  2  1  0  0  0  0
  5  3  1  0  0  0  0
  5  4  1  0  0  0  0
  6  7  1  0  0  0  0
  7  9  1  0  0  0  0
  9  8  1  6  0  0  0
  9 10  1  0  0  0  0
 10 11  1  0  0  0  0
 11 12  1  6  0  0  0
 13 16  1  0  0  0  0
 14 15  1  0  0  0  0
 15 18  1  0  0  0  0
 16 20  1  6  0  0  0
 16 19  1  0  0  0  0
 17 11  1  1  0  0  0
 17 14  1  0  0  0  0
 17 13  1  0  0  0  0
 18 19  1  0  0  0  0
 20 22  1  0  0  0  0
 22 24  1  0  0  0  0
 22 21  1  6  0  0  0
 24 23  1  0  0  0  0
 26 30  1  0  0  0  0
 27 31  1  0  0  0  0
 27 28  1  0  0  0  0
 28 25  1  6  0  0  0
 28 26  1  0  0  0  0
 29 33  1  6  0  0  0
 29 32  1  0  0  0  0
 31 29  1  0  0  0  0
 32 30  1  0  0  0  0
 32 35  1  1  0  0  0
 33 34  2  0  0  0  0
 35 36  1  0  0  0  0
 37 36  1  6  0  0  0
 37 38  1  0  0  0  0
 38 43  1  0  0  0  0
 38 40  1  0  0  0  0
 39 42  1  0  0  0  0
 40 41  1  0  0  0  0
 41 42  1  0  0  0  0
 43 39  1  0  0  0  0
 45 44  1  6  0  0  0
 45 37  1  0  0  0  0
 46 45  1  0  0  0  0
M  END
>  <MODEL>
8

>  <REMARK>
 VINA RESULT:      -6.4      1.693      2.394
  Name = 
  19 active torsions:
  status: ('A' for Active; 'I' for Inactive)
    1  A    between atoms: O_4  and  C_14
    2  A    between atoms: O_4  and  C_19
    3  A    between atoms: C_6  and  C_31
    4  A    between atoms: C_6  and  C_41
    5  A    between atoms: C_9  and  C_33
    6  A    between atoms: C_13  and  C_42
    7  A    between atoms: C_16  and  O_32
    8  A    between atoms: C_16  and  C_44
    9  A    between atoms: C_17  and  C_42
   10  A    between atoms: C_18  and  C_24
   11  A    between atoms: C_19  and  C_31
   12  A    between atoms: C_20  and  C_44
   13  A    between atoms: N_21  and  C_29
   14  A    between atoms: N_21  and  C_41
   15  A    between atoms: C_22  and  C_29
   16  A    between atoms: C_23  and  C_33
   17  A    between atoms: N_27  and  C_39
   18  A    between atoms: N_27  and  C_43
   19  A    between atoms: C_33  and  C_43
                            x       y       z     vdW  Elec       q    Type
                         _______ _______ _______ _____ _____    ______ ____

>  <TORSDO>
F 19

$$$$
=
 OpenBabel10222416163D

 46 48  0  0  1  0  0  0  0  0999 V2000
  182.4130  178.6970  141.0310 C   0  0  0  0  0  3  0  0  0  0  0  0
  181.7570  178.5750  142.1920 C   0  0  0  0  0  0  0  0  0  0  0  0
  180.3630  178.7070  142.2500 O   0  0  0  0  0  0  0  0  0  0  0  0
  179.2170  177.7850  140.3370 C   0  0  0  0  0  1  0  0  0  0  0  0
  179.5560  179.0380  141.1250 C   0  0  0  0  0  2  0  0  0  0  0  0
  182.4940  178.2910  143.4640 C   0  0  0  0  0  2  0  0  0  0  0  0
  183.0510  179.5740  144.0620 C   0  0  0  0  0  2  0  0  0  0  0  0
  185.2920  180.3900  143.9730 O   0  0  0  0  0  1  0  0  0  0  0  0
  184.4900  179.3800  144.5130 C   0  0  2  0  0  3  0  0  0  0  0  0
  184.9710  178.0840  144.0640 N   0  0  0  0  0  2  0  0  0  0  0  0
  186.4130  178.0580  144.2660 C   0  0  1  0  0  3  0  0  0  0  0  0
  186.7470  177.1980  145.4750 C   0  0  0  0  0  1  0  0  0  0  0  0
  188.1110  176.4200  143.2550 C   0  0  0  0  0  2  0  0  0  0  0  0
  187.7120  178.7710  142.2200 C   0  0  0  0  0  2  0  0  0  0  0  0
  187.9840  178.4310  140.7530 C   0  0  0  0  0  2  0  0  0  0  0  0
  189.5980  176.6770  142.9440 C   0  0  1  0  0  3  0  0  0  0  0  0
  187.1300  177.5880  142.9950 C   0  0  2  0  0  3  0  0  0  0  0  0
  188.7320  177.1120  140.5520 C   0  0  0  0  0  2  0  0  0  0  0  0
  189.9430  176.9800  141.4730 C   0  0  0  0  0  2  0  0  0  0  0  0
  190.2060  177.7060  143.8870 C   0  0  0  0  0  2  0  0  0  0  0  0
  191.7140  175.8520  144.2110 O   0  0  0  0  0  1  0  0  0  0  0  0
  191.5320  177.2170  144.4620 C   0  0  2  0  0  3  0  0  0  0  0  0
  192.0350  176.3790  146.4200 O   0  0  0  0  0  1  0  0  0  0  0  0
  191.6310  177.4930  145.8370 O   0  0  0  0  0  0  0  0  0  0  0  0
  183.8960  178.5610  140.9090 C   0  0  0  0  0  2  0  0  0  0  0  0
  184.9840  178.8340  138.4100 S   0  0  0  0  0  0  0  0  0  0  0  0
  182.9870  177.0910  139.1420 C   0  0  0  0  0  2  0  0  0  0  0  0
  184.2470  177.7520  139.6740 C   0  0  2  0  0  3  0  0  0  0  0  0
  183.5850  176.4660  136.7270 C   0  0  2  0  0  3  0  0  0  0  0  0
  185.8150  177.4190  137.6320 C   0  0  0  0  0  2  0  0  0  0  0  0
  183.3010  175.9680  138.1530 C   0  0  0  0  0  2  0  0  0  0  0  0
  185.0340  176.8900  136.4330 C   0  0  1  0  0  3  0  0  0  0  0  0
  182.6030  177.4820  136.2330 C   0  0  0  0  0  3  0  0  0  0  0  0
  181.4920  177.1390  135.8650 O   0  0  0  0  0  0  0  0  0  0  0  0
  185.7640  175.7750  135.8530 N   0  0  0  0  0  2  0  0  0  0  0  0
  186.5600  175.1710  136.9110 C   0  0  0  0  0  2  0  0  0  0  0  0
  187.8070  174.5160  136.3150 C   0  0  1  0  0  3  0  0  0  0  0  0
  189.0670  175.0100  137.0580 C   0  0  0  0  0  3  0  0  0  0  0  0
  191.4960  174.6200  137.5630 C   0  0  0  0  0  2  0  0  0  0  0  0
  189.3950  176.4690  136.7130 C   0  0  0  0  0  2  0  0  0  0  0  0
  190.5910  176.9530  137.5250 C   0  0  0  0  0  2  0  0  0  0  0  0
  191.8080  176.0790  137.2380 C   0  0  0  0  0  2  0  0  0  0  0  0
  190.2960  174.1470  136.7480 C   0  0  0  0  0  2  0  0  0  0  0  0
  186.9590  172.4600  135.1470 C   0  0  0  0  0  1  0  0  0  0  0  0
  187.6810  172.9810  136.3750 C   0  0  2  0  0  3  0  0  0  0  0  0
  186.9670  172.5710  137.5040 O   0  0  0  0  0  1  0  0  0  0  0  0
  1  2  2  0  0  0  0
  2  3  1  0  0  0  0
  2  6  1  0  0  0  0
  4  5  1  0  0  0  0
  5  3  1  0  0  0  0
  6  7  1  0  0  0  0
  7  9  1  0  0  0  0
  9  8  1  6  0  0  0
 10 11  1  0  0  0  0
 10  9  1  0  0  0  0
 11 12  1  1  0  0  0
 14 17  1  0  0  0  0
 15 14  1  0  0  0  0
 16 13  1  0  0  0  0
 16 20  1  1  0  0  0
 17 13  1  0  0  0  0
 17 11  1  1  0  0  0
 18 15  1  0  0  0  0
 18 19  1  0  0  0  0
 19 16  1  0  0  0  0
 20 22  1  0  0  0  0
 22 21  1  1  0  0  0
 22 24  1  0  0  0  0
 24 23  1  0  0  0  0
 25  1  1  0  0  0  0
 26 28  1  0  0  0  0
 27 28  1  0  0  0  0
 28 25  1  1  0  0  0
 29 33  1  1  0  0  0
 29 31  1  0  0  0  0
 30 26  1  0  0  0  0
 31 27  1  0  0  0  0
 32 35  1  1  0  0  0
 32 29  1  0  0  0  0
 32 30  1  0  0  0  0
 34 33  2  0  0  0  0
 35 36  1  0  0  0  0
 37 45  1  0  0  0  0
 37 36  1  1  0  0  0
 37 38  1  0  0  0  0
 40 38  1  0  0  0  0
 40 41  1  0  0  0  0
 42 41  1  0  0  0  0
 42 39  1  0  0  0  0
 43 38  1  0  0  0  0
 43 39  1  0  0  0  0
 45 44  1  6  0  0  0
 45 46  1  0  0  0  0
M  END
>  <MODEL>
9

>  <REMARK>
 VINA RESULT:      -6.3      2.449      7.156
  Name = 
  19 active torsions:
  status: ('A' for Active; 'I' for Inactive)
    1  A    between atoms: O_4  and  C_14
    2  A    between atoms: O_4  and  C_19
    3  A    between atoms: C_6  and  C_31
    4  A    between atoms: C_6  and  C_41
    5  A    between atoms: C_9  and  C_33
    6  A    between atoms: C_13  and  C_42
    7  A    between atoms: C_16  and  O_32
    8  A    between atoms: C_16  and  C_44
    9  A    between atoms: C_17  and  C_42
   10  A    between atoms: C_18  and  C_24
   11  A    between atoms: C_19  and  C_31
   12  A    between atoms: C_20  and  C_44
   13  A    between atoms: N_21  and  C_29
   14  A    between atoms: N_21  and  C_41
   15  A    between atoms: C_22  and  C_29
   16  A    between atoms: C_23  and  C_33
   17  A    between atoms: N_27  and  C_39
   18  A    between atoms: N_27  and  C_43
   19  A    between atoms: C_33  and  C_43
                            x       y       z     vdW  Elec       q    Type
                         _______ _______ _______ _____ _____    ______ ____

>  <TORSDO>
F 19

$$$$
