=
 OpenBabel10222415433D

 44 50  0  0  1  0  0  0  0  0999 V2000
  187.9440  177.3790  146.4570 C   0  0  0  0  0  3  0  0  0  0  0  0
  186.5950  177.9460  143.3030 C   0  0  0  0  0  0  0  0  0  0  0  0
  185.7500  178.2530  145.4920 C   0  0  0  0  0  3  0  0  0  0  0  0
  189.2560  177.4910  142.4630 C   0  0  0  0  0  0  0  0  0  0  0  0
  187.4010  177.2760  144.0860 C   0  0  0  0  0  0  0  0  0  0  0  0
  191.7000  177.1940  145.8960 N   0  0  0  0  0  2  0  0  0  0  0  0
  185.5500  178.5520  144.0670 N   0  0  0  0  0  0  0  0  0  0  0  0
  187.0310  177.4780  145.4750 C   0  0  0  0  0  0  0  0  0  0  0  0
  190.5770  177.1950  146.7880 C   0  0  0  0  0  0  0  0  0  0  0  0
  188.7140  176.7230  143.6550 C   0  0  0  0  0  0  0  0  0  0  0  0
  189.3200  176.9550  146.0780 C   0  0  0  0  0  0  0  0  0  0  0  0
  190.5790  177.7480  142.3550 C   0  0  0  0  0  3  0  0  0  0  0  0
  186.9950  178.2860  141.9150 C   0  0  0  0  0  3  0  0  0  0  0  0
  189.6590  176.7600  144.8090 C   0  0  0  0  0  0  0  0  0  0  0  0
  191.5330  177.4690  143.4710 C   0  0  0  0  0  3  0  0  0  0  0  0
  190.6730  177.4310  148.0190 O   0  0  0  0  0  0  0  0  0  0  0  0
  191.0700  176.9890  144.6330 C   0  0  0  0  0  0  0  0  0  0  0  0
  188.2600  178.0510  141.5010 C   0  0  0  0  0  0  0  0  0  0  0  0
  188.6520  178.4180  140.1110 C   0  0  0  0  0  2  0  0  0  0  0  0
  187.4730  178.4280  139.2590 N   0  0  0  0  0  2  0  0  0  0  0  0
  187.6040  174.4550  136.8150 C   0  0  0  0  0  2  0  0  0  0  0  0
  183.9880  175.3370  136.3700 C   0  0  0  0  0  0  0  0  0  0  0  0
  183.2980  174.2930  136.5220 O   0  0  0  0  0  1  0  0  0  0  0  0
  186.1380  174.0630  136.7700 C   0  0  0  0  0  2  0  0  0  0  0  0
  185.4090  175.2930  136.5330 N   0  0  0  0  0  0  0  0  0  0  0  0
  188.7840  176.8870  137.3260 S   0  0  0  0  0  0  0  0  0  0  0  0
  187.3550  177.6300  138.0790 C   0  0  0  0  0  0  0  0  0  0  0  0
  186.2670  176.4450  136.3360 C   0  0  2  0  0  3  0  0  0  0  0  0
  187.6840  175.8800  136.2780 C   0  0  2  0  0  3  0  0  0  0  0  0
  186.1930  177.3420  137.5220 C   0  0  0  0  0  3  0  0  0  0  0  0
  183.3570  176.5310  136.0390 O   0  0  0  0  0  0  0  0  0  0  0  0
  184.5870  179.5220  143.5640 C   0  0  0  0  0  2  0  0  0  0  0  0
  183.2420  179.3550  144.2610 C   0  0  0  0  0  2  0  0  0  0  0  0
  182.1380  179.0560  143.2570 C   0  0  0  0  0  2  0  0  0  0  0  0
  182.7170  178.5900  142.0080 N   0  0  0  0  0  2  0  0  0  0  0  0
  181.6330  178.5190  141.0430 C   0  0  0  0  0  2  0  0  0  0  0  0
  182.1670  178.2030  139.7230 N   0  0  0  0  0  0  0  0  0  0  0  0
  181.3590  179.0630  137.6170 C   0  0  0  0  0  2  0  0  0  0  0  0
  182.1800  179.1760  138.6600 C   0  0  0  0  0  0  0  0  0  0  0  0
  184.3620  180.0190  139.2380 N   0  0  0  0  0  1  0  0  0  0  0  0
  183.0470  180.3890  138.7460 C   0  0  0  0  0  2  0  0  0  0  0  0
  182.7310  176.8720  139.5340 C   0  0  0  0  0  2  0  0  0  0  0  0
  180.9570  175.6220  138.6890 C   0  0  0  0  0  1  0  0  0  0  0  0
  181.7460  175.8610  139.8820 N   0  0  0  0  0  2  0  0  0  0  0  0
  2  7  1  0  0  0  0
  2  5  1  0  0  0  0
  4 10  1  0  0  0  0
  5  8  1  0  0  0  0
  6  9  1  0  0  0  0
  7  3  1  0  0  0  0
  8  3  2  0  0  0  0
  8  1  1  0  0  0  0
  9 16  2  0  0  0  0
 10  5  2  0  0  0  0
 10 14  1  0  0  0  0
 11  1  2  0  0  0  0
 11  9  1  0  0  0  0
 12  4  1  0  0  0  0
 12 15  2  0  0  0  0
 13  2  2  0  0  0  0
 14 11  1  0  0  0  0
 15 17  1  0  0  0  0
 17 14  2  0  0  0  0
 17  6  1  0  0  0  0
 18 13  1  0  0  0  0
 18  4  2  0  0  0  0
 19 18  1  0  0  0  0
 20 19  1  0  0  0  0
 22 23  1  0  0  0  0
 22 25  1  0  0  0  0
 24 21  1  0  0  0  0
 25 24  1  0  0  0  0
 26 27  1  0  0  0  0
 27 20  1  0  0  0  0
 28 25  1  0  0  0  0
 28 30  1  1  0  0  0
 29 28  1  0  0  0  0
 29 21  1  1  0  0  0
 29 26  1  0  0  0  0
 30 27  2  0  0  0  0
 31 22  2  0  0  0  0
 32  7  1  0  0  0  0
 32 33  1  0  0  0  0
 34 33  1  0  0  0  0
 35 34  1  0  0  0  0
 36 35  1  0  0  0  0
 37 36  1  0  0  0  0
 38 39  2  0  0  0  0
 39 41  1  0  0  0  0
 39 37  1  0  0  0  0
 41 40  1  0  0  0  0
 42 37  1  0  0  0  0
 42 44  1  0  0  0  0
 43 44  1  0  0  0  0
M  END
>  <MODEL>
1

>  <REMARK>
 VINA RESULT:      -8.8      0.000      0.000
  Name = 
  13 active torsions:
  status: ('A' for Active; 'I' for Inactive)
    1  A    between atoms: C_1  and  N_3
    2  A    between atoms: C_1  and  C_44
    3  A    between atoms: N_3  and  C_29
    4  A    between atoms: C_4  and  N_10
    5  A    between atoms: C_4  and  N_42
    6  A    between atoms: N_10  and  C_19
    7  A    between atoms: C_16  and  N_22
    8  A    between atoms: C_16  and  C_24
    9  A    between atoms: C_19  and  C_24
   10  A    between atoms: N_20  and  C_21
   11  A    between atoms: C_21  and  N_42
   12  A    between atoms: C_31  and  C_32
   13  A    between atoms: C_32  and  N_42
                            x       y       z     vdW  Elec       q    Type
                         _______ _______ _______ _____ _____    ______ ____

>  <TORSDO>
F 13

$$$$
=
 OpenBabel10222415433D

 44 50  0  0  1  0  0  0  0  0999 V2000
  186.6320  177.8770  146.1700 C   0  0  0  0  0  3  0  0  0  0  0  0
  187.2050  177.7610  142.7430 C   0  0  0  0  0  0  0  0  0  0  0  0
  185.3850  178.5310  144.0430 C   0  0  0  0  0  3  0  0  0  0  0  0
  189.8390  177.1290  143.5540 C   0  0  0  0  0  0  0  0  0  0  0  0
  187.3990  177.2710  143.9410 C   0  0  0  0  0  0  0  0  0  0  0  0
  190.0770  177.5650  147.7490 N   0  0  0  0  0  2  0  0  0  0  0  0
  185.9940  178.5200  142.7070 N   0  0  0  0  0  0  0  0  0  0  0  0
  186.3850  177.7660  144.8530 C   0  0  0  0  0  0  0  0  0  0  0  0
  188.6630  177.7590  147.8850 C   0  0  0  0  0  0  0  0  0  0  0  0
  188.6700  176.6350  144.3850 C   0  0  0  0  0  0  0  0  0  0  0  0
  187.9440  177.3770  146.6690 C   0  0  0  0  0  0  0  0  0  0  0  0
  191.0430  177.3530  144.1250 C   0  0  0  0  0  3  0  0  0  0  0  0
  188.3080  177.7950  141.7500 C   0  0  0  0  0  3  0  0  0  0  0  0
  188.8700  176.9150  145.8380 C   0  0  0  0  0  0  0  0  0  0  0  0
  191.2340  177.3160  145.6080 C   0  0  0  0  0  3  0  0  0  0  0  0
  188.1300  178.2530  148.9100 O   0  0  0  0  0  0  0  0  0  0  0  0
  190.1810  177.0970  146.4060 C   0  0  0  0  0  0  0  0  0  0  0  0
  189.5650  177.4740  142.1260 C   0  0  0  0  0  0  0  0  0  0  0  0
  190.6650  177.5340  141.1230 C   0  0  0  0  0  2  0  0  0  0  0  0
  190.6110  176.3550  140.2710 N   0  0  0  0  0  2  0  0  0  0  0  0
  188.6870  174.7200  136.3470 C   0  0  0  0  0  2  0  0  0  0  0  0
  186.5870  177.7870  136.8360 C   0  0  0  0  0  0  0  0  0  0  0  0
  185.3840  177.4900  136.6110 O   0  0  0  0  0  0  0  0  0  0  0  0
  187.3410  175.4230  136.3390 C   0  0  0  0  0  2  0  0  0  0  0  0
  187.6040  176.7830  136.7650 N   0  0  0  0  0  0  0  0  0  0  0  0
  191.0050  175.3260  137.6990 S   0  0  0  0  0  0  0  0  0  0  0  0
  190.2460  176.4060  138.8900 C   0  0  0  0  0  0  0  0  0  0  0  0
  189.0120  177.0610  136.9740 C   0  0  2  0  0  3  0  0  0  0  0  0
  189.7410  175.8150  136.4790 C   0  0  2  0  0  3  0  0  0  0  0  0
  189.2920  177.1950  138.4300 C   0  0  0  0  0  3  0  0  0  0  0  0
  186.9190  179.1000  137.1490 O   0  0  0  0  0  1  0  0  0  0  0  0
  185.5570  179.3620  141.6030 C   0  0  0  0  0  2  0  0  0  0  0  0
  184.8350  178.5330  140.5460 C   0  0  0  0  0  2  0  0  0  0  0  0
  184.2240  179.4240  139.4740 C   0  0  0  0  0  2  0  0  0  0  0  0
  183.0230  178.8060  138.9400 N   0  0  0  0  0  2  0  0  0  0  0  0
  181.8960  179.4180  139.6240 C   0  0  0  0  0  2  0  0  0  0  0  0
  181.3690  178.4990  140.6260 N   0  0  0  0  0  0  0  0  0  0  0  0
  181.8660  178.9650  142.9420 C   0  0  0  0  0  2  0  0  0  0  0  0
  180.9880  178.9510  141.9410 C   0  0  0  0  0  0  0  0  0  0  0  0
  179.6430  180.9490  142.0310 N   0  0  0  0  0  1  0  0  0  0  0  0
  179.6230  179.5060  142.1920 C   0  0  0  0  0  2  0  0  0  0  0  0
  181.1990  177.1070  140.2290 C   0  0  0  0  0  2  0  0  0  0  0  0
  179.7020  175.5400  139.3790 C   0  0  0  0  0  1  0  0  0  0  0  0
  179.7850  176.7960  140.0980 N   0  0  0  0  0  2  0  0  0  0  0  0
  1 11  2  0  0  0  0
  2  5  1  0  0  0  0
  3  8  2  0  0  0  0
  4 12  1  0  0  0  0
  4 10  1  0  0  0  0
  5 10  2  0  0  0  0
  5  8  1  0  0  0  0
  6  9  1  0  0  0  0
  7  2  1  0  0  0  0
  7  3  1  0  0  0  0
  8  1  1  0  0  0  0
  9 16  2  0  0  0  0
 10 14  1  0  0  0  0
 11  9  1  0  0  0  0
 12 15  2  0  0  0  0
 13 18  1  0  0  0  0
 13  2  2  0  0  0  0
 14 17  2  0  0  0  0
 14 11  1  0  0  0  0
 15 17  1  0  0  0  0
 17  6  1  0  0  0  0
 18  4  2  0  0  0  0
 19 18  1  0  0  0  0
 20 19  1  0  0  0  0
 22 31  1  0  0  0  0
 23 22  2  0  0  0  0
 24 21  1  0  0  0  0
 24 25  1  0  0  0  0
 25 22  1  0  0  0  0
 25 28  1  0  0  0  0
 26 27  1  0  0  0  0
 27 20  1  0  0  0  0
 28 30  1  1  0  0  0
 29 21  1  1  0  0  0
 29 28  1  0  0  0  0
 29 26  1  0  0  0  0
 30 27  2  0  0  0  0
 32  7  1  0  0  0  0
 33 32  1  0  0  0  0
 34 33  1  0  0  0  0
 35 34  1  0  0  0  0
 35 36  1  0  0  0  0
 36 37  1  0  0  0  0
 37 39  1  0  0  0  0
 39 41  1  0  0  0  0
 39 38  2  0  0  0  0
 40 41  1  0  0  0  0
 42 37  1  0  0  0  0
 43 44  1  0  0  0  0
 44 42  1  0  0  0  0
M  END
>  <MODEL>
2

>  <REMARK>
 VINA RESULT:      -8.7      1.890      2.751
  Name = 
  13 active torsions:
  status: ('A' for Active; 'I' for Inactive)
    1  A    between atoms: C_1  and  N_3
    2  A    between atoms: C_1  and  C_44
    3  A    between atoms: N_3  and  C_29
    4  A    between atoms: C_4  and  N_10
    5  A    between atoms: C_4  and  N_42
    6  A    between atoms: N_10  and  C_19
    7  A    between atoms: C_16  and  N_22
    8  A    between atoms: C_16  and  C_24
    9  A    between atoms: C_19  and  C_24
   10  A    between atoms: N_20  and  C_21
   11  A    between atoms: C_21  and  N_42
   12  A    between atoms: C_31  and  C_32
   13  A    between atoms: C_32  and  N_42
                            x       y       z     vdW  Elec       q    Type
                         _______ _______ _______ _____ _____    ______ ____

>  <TORSDO>
F 13

$$$$
=
 OpenBabel10222415433D

 44 50  0  0  1  0  0  0  0  0999 V2000
  187.9680  177.3130  146.4760 C   0  0  0  0  0  3  0  0  0  0  0  0
  186.6510  177.9420  143.3200 C   0  0  0  0  0  0  0  0  0  0  0  0
  185.7890  178.2170  145.5060 C   0  0  0  0  0  3  0  0  0  0  0  0
  189.3160  177.4830  142.4960 C   0  0  0  0  0  0  0  0  0  0  0  0
  187.4460  177.2540  144.0990 C   0  0  0  0  0  0  0  0  0  0  0  0
  191.7270  177.1120  145.9440 N   0  0  0  0  0  2  0  0  0  0  0  0
  185.6030  178.5430  144.0860 N   0  0  0  0  0  0  0  0  0  0  0  0
  187.0640  177.4350  145.4870 C   0  0  0  0  0  0  0  0  0  0  0  0
  190.5970  177.1050  146.8270 C   0  0  0  0  0  0  0  0  0  0  0  0
  188.7590  176.6990  143.6690 C   0  0  0  0  0  0  0  0  0  0  0  0
  189.3450  176.8850  146.1020 C   0  0  0  0  0  0  0  0  0  0  0  0
  190.6410  177.7330  142.4030 C   0  0  0  0  0  3  0  0  0  0  0  0
  187.0650  178.3030  141.9420 C   0  0  0  0  0  3  0  0  0  0  0  0
  189.6940  176.7100  144.8330 C   0  0  0  0  0  0  0  0  0  0  0  0
  191.5840  177.4280  143.5230 C   0  0  0  0  0  3  0  0  0  0  0  0
  190.6840  177.3200  148.0620 O   0  0  0  0  0  0  0  0  0  0  0  0
  191.1080  176.9320  144.6730 C   0  0  0  0  0  0  0  0  0  0  0  0
  188.3320  178.0660  141.5350 C   0  0  0  0  0  0  0  0  0  0  0  0
  188.7390  178.4530  140.1550 C   0  0  0  0  0  2  0  0  0  0  0  0
  187.6070  178.3040  139.2540 N   0  0  0  0  0  2  0  0  0  0  0  0
  188.8200  177.3970  134.8400 C   0  0  0  0  0  2  0  0  0  0  0  0
  190.5980  174.5810  136.5630 C   0  0  0  0  0  0  0  0  0  0  0  0
  191.7520  174.4720  136.0680 O   0  0  0  0  0  0  0  0  0  0  0  0
  190.0400  176.5110  135.0240 C   0  0  0  0  0  2  0  0  0  0  0  0
  189.7160  175.6160  136.1160 N   0  0  0  0  0  0  0  0  0  0  0  0
  186.7930  178.0220  136.5910 S   0  0  0  0  0  0  0  0  0  0  0  0
  187.6570  177.5180  138.0610 C   0  0  0  0  0  0  0  0  0  0  0  0
  188.3630  175.7760  136.6130 C   0  0  2  0  0  3  0  0  0  0  0  0
  187.6980  176.7520  135.6460 C   0  0  2  0  0  3  0  0  0  0  0  0
  188.3890  176.4240  137.9540 C   0  0  0  0  0  3  0  0  0  0  0  0
  190.1880  173.6860  137.5450 O   0  0  0  0  0  1  0  0  0  0  0  0
  184.6520  179.5270  143.5910 C   0  0  0  0  0  2  0  0  0  0  0  0
  183.3380  179.4390  144.3600 C   0  0  0  0  0  2  0  0  0  0  0  0
  182.2580  178.7660  143.5240 C   0  0  0  0  0  2  0  0  0  0  0  0
  182.6280  178.7960  142.1200 N   0  0  0  0  0  2  0  0  0  0  0  0
  181.4030  179.0140  141.3670 C   0  0  0  0  0  2  0  0  0  0  0  0
  181.6810  178.9330  139.9380 N   0  0  0  0  0  0  0  0  0  0  0  0
  182.5920  177.0190  138.7840 C   0  0  0  0  0  2  0  0  0  0  0  0
  182.7900  178.1680  139.4250 C   0  0  0  0  0  0  0  0  0  0  0  0
  184.2060  180.1010  139.1610 N   0  0  0  0  0  1  0  0  0  0  0  0
  184.1860  178.6930  139.5150 C   0  0  0  0  0  2  0  0  0  0  0  0
  180.7630  179.6230  139.0410 C   0  0  0  0  0  2  0  0  0  0  0  0
  181.1250  181.7650  138.2030 C   0  0  0  0  0  1  0  0  0  0  0  0
  180.7020  181.0350  139.3820 N   0  0  0  0  0  2  0  0  0  0  0  0
  2  7  1  0  0  0  0
  2  5  1  0  0  0  0
  4 10  1  0  0  0  0
  5  8  1  0  0  0  0
  6  9  1  0  0  0  0
  7  3  1  0  0  0  0
  8  3  2  0  0  0  0
  8  1  1  0  0  0  0
  9 16  2  0  0  0  0
 10  5  2  0  0  0  0
 10 14  1  0  0  0  0
 11  1  2  0  0  0  0
 11  9  1  0  0  0  0
 12  4  1  0  0  0  0
 12 15  2  0  0  0  0
 13  2  2  0  0  0  0
 14 11  1  0  0  0  0
 15 17  1  0  0  0  0
 17 14  2  0  0  0  0
 17  6  1  0  0  0  0
 18 13  1  0  0  0  0
 18  4  2  0  0  0  0
 19 18  1  0  0  0  0
 20 19  1  0  0  0  0
 21 24  1  0  0  0  0
 22 31  1  0  0  0  0
 23 22  2  0  0  0  0
 24 25  1  0  0  0  0
 25 22  1  0  0  0  0
 25 28  1  0  0  0  0
 26 27  1  0  0  0  0
 27 20  1  0  0  0  0
 28 30  1  1  0  0  0
 29 21  1  1  0  0  0
 29 26  1  0  0  0  0
 29 28  1  0  0  0  0
 30 27  2  0  0  0  0
 32  7  1  0  0  0  0
 32 33  1  0  0  0  0
 34 33  1  0  0  0  0
 35 34  1  0  0  0  0
 36 35  1  0  0  0  0
 37 36  1  0  0  0  0
 38 39  2  0  0  0  0
 39 41  1  0  0  0  0
 39 37  1  0  0  0  0
 40 41  1  0  0  0  0
 42 44  1  0  0  0  0
 42 37  1  0  0  0  0
 43 44  1  0  0  0  0
M  END
>  <MODEL>
3

>  <REMARK>
 VINA RESULT:      -8.6      2.127      2.785
  Name = 
  13 active torsions:
  status: ('A' for Active; 'I' for Inactive)
    1  A    between atoms: C_1  and  N_3
    2  A    between atoms: C_1  and  C_44
    3  A    between atoms: N_3  and  C_29
    4  A    between atoms: C_4  and  N_10
    5  A    between atoms: C_4  and  N_42
    6  A    between atoms: N_10  and  C_19
    7  A    between atoms: C_16  and  N_22
    8  A    between atoms: C_16  and  C_24
    9  A    between atoms: C_19  and  C_24
   10  A    between atoms: N_20  and  C_21
   11  A    between atoms: C_21  and  N_42
   12  A    between atoms: C_31  and  C_32
   13  A    between atoms: C_32  and  N_42
                            x       y       z     vdW  Elec       q    Type
                         _______ _______ _______ _____ _____    ______ ____

>  <TORSDO>
F 13

$$$$
=
 OpenBabel10222415433D

 44 50  0  0  1  0  0  0  0  0999 V2000
  186.6610  177.8950  146.2740 C   0  0  0  0  0  3  0  0  0  0  0  0
  187.2400  177.7700  142.8470 C   0  0  0  0  0  0  0  0  0  0  0  0
  185.4210  178.5500  144.1430 C   0  0  0  0  0  3  0  0  0  0  0  0
  189.8700  177.1280  143.6650 C   0  0  0  0  0  0  0  0  0  0  0  0
  187.4300  177.2820  144.0470 C   0  0  0  0  0  0  0  0  0  0  0  0
  190.1020  177.5710  147.8590 N   0  0  0  0  0  2  0  0  0  0  0  0
  186.0330  178.5340  142.8070 N   0  0  0  0  0  0  0  0  0  0  0  0
  186.4160  177.7830  144.9560 C   0  0  0  0  0  0  0  0  0  0  0  0
  188.6880  177.7720  147.9930 C   0  0  0  0  0  0  0  0  0  0  0  0
  188.6970  176.6410  144.4950 C   0  0  0  0  0  0  0  0  0  0  0  0
  187.9700  177.3910  146.7760 C   0  0  0  0  0  0  0  0  0  0  0  0
  191.0740  177.3480  144.2380 C   0  0  0  0  0  3  0  0  0  0  0  0
  188.3450  177.7980  141.8570 C   0  0  0  0  0  3  0  0  0  0  0  0
  188.8950  176.9230  145.9470 C   0  0  0  0  0  0  0  0  0  0  0  0
  191.2620  177.3130  145.7210 C   0  0  0  0  0  3  0  0  0  0  0  0
  188.1550  178.2700  149.0150 O   0  0  0  0  0  0  0  0  0  0  0  0
  190.2060  177.1000  146.5180 C   0  0  0  0  0  0  0  0  0  0  0  0
  189.6000  177.4710  142.2360 C   0  0  0  0  0  0  0  0  0  0  0  0
  190.7020  177.5240  141.2340 C   0  0  0  0  0  2  0  0  0  0  0  0
  190.5650  176.4160  140.3020 N   0  0  0  0  0  2  0  0  0  0  0  0
  189.3400  175.1410  135.9830 C   0  0  0  0  0  2  0  0  0  0  0  0
  187.0880  178.1070  136.4170 C   0  0  0  0  0  0  0  0  0  0  0  0
  185.9450  177.8110  135.9750 O   0  0  0  0  0  0  0  0  0  0  0  0
  187.9900  175.8170  135.8260 C   0  0  0  0  0  2  0  0  0  0  0  0
  188.1360  177.1330  136.4150 N   0  0  0  0  0  0  0  0  0  0  0  0
  191.3940  175.6520  137.7400 S   0  0  0  0  0  0  0  0  0  0  0  0
  190.4220  176.5960  138.8910 C   0  0  0  0  0  0  0  0  0  0  0  0
  189.4830  177.4150  136.8720 C   0  0  2  0  0  3  0  0  0  0  0  0
  190.3230  176.2360  136.3860 C   0  0  2  0  0  3  0  0  0  0  0  0
  189.5260  177.4090  138.3600 C   0  0  0  0  0  3  0  0  0  0  0  0
  187.3220  179.3880  136.9020 O   0  0  0  0  0  1  0  0  0  0  0  0
  185.6010  179.3760  141.7010 C   0  0  0  0  0  2  0  0  0  0  0  0
  184.5400  178.6660  140.8670 C   0  0  0  0  0  2  0  0  0  0  0  0
  184.8690  178.7430  139.3830 C   0  0  0  0  0  2  0  0  0  0  0  0
  183.6440  178.8140  138.6060 N   0  0  0  0  0  2  0  0  0  0  0  0
  183.0650  180.1240  138.8510 C   0  0  0  0  0  2  0  0  0  0  0  0
  181.6250  180.0770  138.6290 N   0  0  0  0  0  0  0  0  0  0  0  0
  180.8260  181.5880  136.9250 C   0  0  0  0  0  2  0  0  0  0  0  0
  181.0500  180.3410  137.3340 C   0  0  0  0  0  0  0  0  0  0  0  0
  180.9730  179.6900  135.0150 N   0  0  0  0  0  1  0  0  0  0  0  0
  180.7790  179.2260  136.3770 C   0  0  0  0  0  2  0  0  0  0  0  0
  180.7880  179.7070  139.7630 C   0  0  0  0  0  2  0  0  0  0  0  0
  180.8680  177.5360  140.6010 C   0  0  0  0  0  1  0  0  0  0  0  0
  180.2630  178.3640  139.5770 N   0  0  0  0  0  2  0  0  0  0  0  0
  1 11  2  0  0  0  0
  2  5  1  0  0  0  0
  3  8  2  0  0  0  0
  4 12  1  0  0  0  0
  4 10  1  0  0  0  0
  5 10  2  0  0  0  0
  5  8  1  0  0  0  0
  6  9  1  0  0  0  0
  7  2  1  0  0  0  0
  7  3  1  0  0  0  0
  8  1  1  0  0  0  0
  9 16  2  0  0  0  0
 10 14  1  0  0  0  0
 11  9  1  0  0  0  0
 12 15  2  0  0  0  0
 13 18  1  0  0  0  0
 13  2  2  0  0  0  0
 14 17  2  0  0  0  0
 14 11  1  0  0  0  0
 15 17  1  0  0  0  0
 17  6  1  0  0  0  0
 18  4  2  0  0  0  0
 19 18  1  0  0  0  0
 20 19  1  0  0  0  0
 22 31  1  0  0  0  0
 23 22  2  0  0  0  0
 24 21  1  0  0  0  0
 24 25  1  0  0  0  0
 25 22  1  0  0  0  0
 25 28  1  0  0  0  0
 26 27  1  0  0  0  0
 27 20  1  0  0  0  0
 28 30  1  1  0  0  0
 29 21  1  1  0  0  0
 29 28  1  0  0  0  0
 29 26  1  0  0  0  0
 30 27  2  0  0  0  0
 32  7  1  0  0  0  0
 33 32  1  0  0  0  0
 34 33  1  0  0  0  0
 35 36  1  0  0  0  0
 35 34  1  0  0  0  0
 37 36  1  0  0  0  0
 37 42  1  0  0  0  0
 38 39  2  0  0  0  0
 39 37  1  0  0  0  0
 40 41  1  0  0  0  0
 41 39  1  0  0  0  0
 44 42  1  0  0  0  0
 44 43  1  0  0  0  0
M  END
>  <MODEL>
4

>  <REMARK>
 VINA RESULT:      -8.4      2.122      2.844
  Name = 
  13 active torsions:
  status: ('A' for Active; 'I' for Inactive)
    1  A    between atoms: C_1  and  N_3
    2  A    between atoms: C_1  and  C_44
    3  A    between atoms: N_3  and  C_29
    4  A    between atoms: C_4  and  N_10
    5  A    between atoms: C_4  and  N_42
    6  A    between atoms: N_10  and  C_19
    7  A    between atoms: C_16  and  N_22
    8  A    between atoms: C_16  and  C_24
    9  A    between atoms: C_19  and  C_24
   10  A    between atoms: N_20  and  C_21
   11  A    between atoms: C_21  and  N_42
   12  A    between atoms: C_31  and  C_32
   13  A    between atoms: C_32  and  N_42
                            x       y       z     vdW  Elec       q    Type
                         _______ _______ _______ _____ _____    ______ ____

>  <TORSDO>
F 13

$$$$
=
 OpenBabel10222415433D

 44 50  0  0  1  0  0  0  0  0999 V2000
  187.9800  177.2420  146.2690 C   0  0  0  0  0  3  0  0  0  0  0  0
  186.6600  177.9010  143.1200 C   0  0  0  0  0  0  0  0  0  0  0  0
  185.7730  178.0830  145.3060 C   0  0  0  0  0  3  0  0  0  0  0  0
  189.3480  177.5740  142.3060 C   0  0  0  0  0  0  0  0  0  0  0  0
  187.4770  177.2250  143.8870 C   0  0  0  0  0  0  0  0  0  0  0  0
  191.7480  177.2080  145.7630 N   0  0  0  0  0  2  0  0  0  0  0  0
  185.5840  178.4380  143.8930 N   0  0  0  0  0  0  0  0  0  0  0  0
  187.0790  177.3530  145.2770 C   0  0  0  0  0  0  0  0  0  0  0  0
  190.6130  177.1320  146.6350 C   0  0  0  0  0  0  0  0  0  0  0  0
  188.8150  176.7360  143.4540 C   0  0  0  0  0  0  0  0  0  0  0  0
  189.3760  176.8810  145.8950 C   0  0  0  0  0  0  0  0  0  0  0  0
  190.6630  177.8800  142.2300 C   0  0  0  0  0  3  0  0  0  0  0  0
  187.0700  178.3150  141.7560 C   0  0  0  0  0  3  0  0  0  0  0  0
  189.7410  176.7540  144.6240 C   0  0  0  0  0  0  0  0  0  0  0  0
  191.6090  177.5840  143.3500 C   0  0  0  0  0  3  0  0  0  0  0  0
  190.6820  177.3170  147.8760 O   0  0  0  0  0  0  0  0  0  0  0  0
  191.1450  177.0380  144.4820 C   0  0  0  0  0  0  0  0  0  0  0  0
  188.3480  178.1420  141.3530 C   0  0  0  0  0  0  0  0  0  0  0  0
  188.7480  178.5820  139.9860 C   0  0  0  0  0  2  0  0  0  0  0  0
  188.2060  177.6600  139.0000 N   0  0  0  0  0  2  0  0  0  0  0  0
  190.2140  175.4880  135.3910 C   0  0  0  0  0  2  0  0  0  0  0  0
  193.2770  176.3790  137.3610 C   0  0  0  0  0  0  0  0  0  0  0  0
  194.1530  176.8130  136.5660 O   0  0  0  0  0  0  0  0  0  0  0  0
  191.6410  176.0030  135.4670 C   0  0  0  0  0  2  0  0  0  0  0  0
  191.9830  176.0070  136.8750 N   0  0  0  0  0  0  0  0  0  0  0  0
  188.2340  175.4370  137.3000 S   0  0  0  0  0  0  0  0  0  0  0  0
  188.9850  176.6370  138.3760 C   0  0  0  0  0  0  0  0  0  0  0  0
  190.9410  175.4640  137.7250 C   0  0  2  0  0  3  0  0  0  0  0  0
  189.8940  174.9070  136.7640 C   0  0  2  0  0  3  0  0  0  0  0  0
  190.2980  176.5600  138.5010 C   0  0  0  0  0  3  0  0  0  0  0  0
  193.5790  176.2610  138.7120 O   0  0  0  0  0  1  0  0  0  0  0  0
  184.5960  179.3960  143.4170 C   0  0  0  0  0  2  0  0  0  0  0  0
  183.3500  179.3650  144.2940 C   0  0  0  0  0  2  0  0  0  0  0  0
  182.1150  179.0080  143.4780 C   0  0  0  0  0  2  0  0  0  0  0  0
  182.5100  178.5380  142.1610 N   0  0  0  0  0  2  0  0  0  0  0  0
  181.5410  179.0710  141.2170 C   0  0  0  0  0  2  0  0  0  0  0  0
  181.6270  178.3400  139.9580 N   0  0  0  0  0  0  0  0  0  0  0  0
  181.3230  176.1010  139.1100 C   0  0  0  0  0  2  0  0  0  0  0  0
  180.8120  177.1800  139.7000 C   0  0  0  0  0  0  0  0  0  0  0  0
  179.3070  176.2650  141.3450 N   0  0  0  0  0  1  0  0  0  0  0  0
  179.3970  177.1190  140.1740 C   0  0  0  0  0  2  0  0  0  0  0  0
  182.5400  178.8600  138.9480 C   0  0  0  0  0  2  0  0  0  0  0  0
  184.8390  178.6290  138.6640 C   0  0  0  0  0  1  0  0  0  0  0  0
  183.8260  179.1670  139.5520 N   0  0  0  0  0  2  0  0  0  0  0  0
  2  5  1  0  0  0  0
  2  7  1  0  0  0  0
  4 10  1  0  0  0  0
  5  8  1  0  0  0  0
  6  9  1  0  0  0  0
  7  3  1  0  0  0  0
  8  3  2  0  0  0  0
  8  1  1  0  0  0  0
  9 16  2  0  0  0  0
 10  5  2  0  0  0  0
 10 14  1  0  0  0  0
 11  1  2  0  0  0  0
 11  9  1  0  0  0  0
 12  4  1  0  0  0  0
 12 15  2  0  0  0  0
 13  2  2  0  0  0  0
 14 11  1  0  0  0  0
 15 17  1  0  0  0  0
 17 14  2  0  0  0  0
 17  6  1  0  0  0  0
 18 13  1  0  0  0  0
 18  4  2  0  0  0  0
 19 18  1  0  0  0  0
 20 19  1  0  0  0  0
 21 24  1  0  0  0  0
 22 31  1  0  0  0  0
 23 22  2  0  0  0  0
 24 25  1  0  0  0  0
 25 22  1  0  0  0  0
 25 28  1  0  0  0  0
 26 27  1  0  0  0  0
 27 30  2  0  0  0  0
 27 20  1  0  0  0  0
 28 30  1  6  0  0  0
 29 21  1  6  0  0  0
 29 26  1  0  0  0  0
 29 28  1  0  0  0  0
 32  7  1  0  0  0  0
 32 33  1  0  0  0  0
 34 33  1  0  0  0  0
 35 34  1  0  0  0  0
 36 35  1  0  0  0  0
 37 36  1  0  0  0  0
 38 39  2  0  0  0  0
 39 37  1  0  0  0  0
 39 41  1  0  0  0  0
 41 40  1  0  0  0  0
 42 44  1  0  0  0  0
 42 37  1  0  0  0  0
 43 44  1  0  0  0  0
M  END
>  <MODEL>
5

>  <REMARK>
 VINA RESULT:      -8.3      2.872      3.705
  Name = 
  13 active torsions:
  status: ('A' for Active; 'I' for Inactive)
    1  A    between atoms: C_1  and  N_3
    2  A    between atoms: C_1  and  C_44
    3  A    between atoms: N_3  and  C_29
    4  A    between atoms: C_4  and  N_10
    5  A    between atoms: C_4  and  N_42
    6  A    between atoms: N_10  and  C_19
    7  A    between atoms: C_16  and  N_22
    8  A    between atoms: C_16  and  C_24
    9  A    between atoms: C_19  and  C_24
   10  A    between atoms: N_20  and  C_21
   11  A    between atoms: C_21  and  N_42
   12  A    between atoms: C_31  and  C_32
   13  A    between atoms: C_32  and  N_42
                            x       y       z     vdW  Elec       q    Type
                         _______ _______ _______ _____ _____    ______ ____

>  <TORSDO>
F 13

$$$$
=
 OpenBabel10222415433D

 44 50  0  0  1  0  0  0  0  0999 V2000
  187.9650  177.3210  146.6950 C   0  0  0  0  0  3  0  0  0  0  0  0
  186.4330  178.0070  143.6490 C   0  0  0  0  0  0  0  0  0  0  0  0
  185.7150  178.2170  145.8940 C   0  0  0  0  0  3  0  0  0  0  0  0
  189.0440  177.6060  142.6400 C   0  0  0  0  0  0  0  0  0  0  0  0
  187.2870  177.3110  144.3570 C   0  0  0  0  0  0  0  0  0  0  0  0
  191.6830  177.1870  145.9120 N   0  0  0  0  0  2  0  0  0  0  0  0
  185.4320  178.5740  144.4970 N   0  0  0  0  0  0  0  0  0  0  0  0
  186.9960  177.4540  145.7710 C   0  0  0  0  0  0  0  0  0  0  0  0
  190.6140  177.1420  146.8660 C   0  0  0  0  0  0  0  0  0  0  0  0
  188.5760  176.7860  143.8270 C   0  0  0  0  0  0  0  0  0  0  0  0
  189.3200  176.9230  146.2200 C   0  0  0  0  0  0  0  0  0  0  0  0
  190.3570  177.8780  142.4660 C   0  0  0  0  0  3  0  0  0  0  0  0
  186.7510  178.4060  142.2560 C   0  0  0  0  0  3  0  0  0  0  0  0
  189.5860  176.7830  144.9260 C   0  0  0  0  0  0  0  0  0  0  0  0
  191.3760  177.5600  143.5140 C   0  0  0  0  0  3  0  0  0  0  0  0
  190.7800  177.3290  148.0970 O   0  0  0  0  0  0  0  0  0  0  0  0
  190.9830  177.0290  144.6790 C   0  0  0  0  0  0  0  0  0  0  0  0
  187.9910  178.1980  141.7610 C   0  0  0  0  0  0  0  0  0  0  0  0
  188.3010  178.6240  140.3670 C   0  0  0  0  0  2  0  0  0  0  0  0
  187.2110  178.2340  139.4850 N   0  0  0  0  0  2  0  0  0  0  0  0
  189.2280  176.3660  135.7140 C   0  0  0  0  0  2  0  0  0  0  0  0
  185.7790  174.9440  135.3410 C   0  0  0  0  0  0  0  0  0  0  0  0
  185.8780  173.7300  135.0190 O   0  0  0  0  0  0  0  0  0  0  0  0
  188.2950  175.2110  135.3970 C   0  0  0  0  0  2  0  0  0  0  0  0
  186.9530  175.7220  135.5940 N   0  0  0  0  0  0  0  0  0  0  0  0
  188.8130  178.6280  137.2250 S   0  0  0  0  0  0  0  0  0  0  0  0
  187.3810  178.0160  138.0830 C   0  0  0  0  0  0  0  0  0  0  0  0
  186.9160  177.1320  135.9310 C   0  0  2  0  0  3  0  0  0  0  0  0
  188.3550  177.6150  135.7790 C   0  0  2  0  0  3  0  0  0  0  0  0
  186.5370  177.3010  137.3610 C   0  0  0  0  0  3  0  0  0  0  0  0
  184.5200  175.5230  135.4460 O   0  0  0  0  0  1  0  0  0  0  0  0
  184.4370  179.5560  144.0900 C   0  0  0  0  0  2  0  0  0  0  0  0
  183.0280  179.0060  144.2850 C   0  0  0  0  0  2  0  0  0  0  0  0
  182.1470  179.3220  143.0850 C   0  0  0  0  0  2  0  0  0  0  0  0
  182.6680  178.6640  141.8990 N   0  0  0  0  0  2  0  0  0  0  0  0
  181.5540  178.5140  140.9780 C   0  0  0  0  0  2  0  0  0  0  0  0
  182.0250  178.6640  139.6060 N   0  0  0  0  0  0  0  0  0  0  0  0
  182.6280  177.6730  137.4890 C   0  0  0  0  0  2  0  0  0  0  0  0
  182.2950  177.5220  138.7690 C   0  0  0  0  0  0  0  0  0  0  0  0
  183.0610  175.2550  138.4760 N   0  0  0  0  0  1  0  0  0  0  0  0
  182.3020  176.1410  139.3410 C   0  0  0  0  0  2  0  0  0  0  0  0
  182.1700  180.0220  139.0970 C   0  0  0  0  0  2  0  0  0  0  0  0
  180.8740  181.0460  137.4560 C   0  0  0  0  0  1  0  0  0  0  0  0
  180.8610  180.5970  138.8340 N   0  0  0  0  0  2  0  0  0  0  0  0
  2  5  1  0  0  0  0
  2  7  1  0  0  0  0
  4 10  1  0  0  0  0
  5  8  1  0  0  0  0
  6  9  1  0  0  0  0
  7  3  1  0  0  0  0
  8  3  2  0  0  0  0
  8  1  1  0  0  0  0
  9 16  2  0  0  0  0
 10  5  2  0  0  0  0
 10 14  1  0  0  0  0
 11  1  2  0  0  0  0
 11  9  1  0  0  0  0
 12  4  1  0  0  0  0
 12 15  2  0  0  0  0
 13  2  2  0  0  0  0
 14 11  1  0  0  0  0
 15 17  1  0  0  0  0
 17 14  2  0  0  0  0
 17  6  1  0  0  0  0
 18 13  1  0  0  0  0
 18  4  2  0  0  0  0
 19 18  1  0  0  0  0
 20 19  1  0  0  0  0
 22 31  1  0  0  0  0
 22 25  1  0  0  0  0
 23 22  2  0  0  0  0
 24 25  1  0  0  0  0
 24 21  1  0  0  0  0
 25 28  1  0  0  0  0
 26 27  1  0  0  0  0
 27 20  1  0  0  0  0
 28 30  1  1  0  0  0
 29 21  1  1  0  0  0
 29 28  1  0  0  0  0
 29 26  1  0  0  0  0
 30 27  2  0  0  0  0
 32 33  1  0  0  0  0
 32  7  1  0  0  0  0
 34 33  1  0  0  0  0
 35 34  1  0  0  0  0
 36 35  1  0  0  0  0
 37 36  1  0  0  0  0
 38 39  2  0  0  0  0
 39 41  1  0  0  0  0
 39 37  1  0  0  0  0
 40 41  1  0  0  0  0
 42 37  1  0  0  0  0
 43 44  1  0  0  0  0
 44 42  1  0  0  0  0
M  END
>  <MODEL>
6

>  <REMARK>
 VINA RESULT:      -8.1      1.134      1.918
  Name = 
  13 active torsions:
  status: ('A' for Active; 'I' for Inactive)
    1  A    between atoms: C_1  and  N_3
    2  A    between atoms: C_1  and  C_44
    3  A    between atoms: N_3  and  C_29
    4  A    between atoms: C_4  and  N_10
    5  A    between atoms: C_4  and  N_42
    6  A    between atoms: N_10  and  C_19
    7  A    between atoms: C_16  and  N_22
    8  A    between atoms: C_16  and  C_24
    9  A    between atoms: C_19  and  C_24
   10  A    between atoms: N_20  and  C_21
   11  A    between atoms: C_21  and  N_42
   12  A    between atoms: C_31  and  C_32
   13  A    between atoms: C_32  and  N_42
                            x       y       z     vdW  Elec       q    Type
                         _______ _______ _______ _____ _____    ______ ____

>  <TORSDO>
F 13

$$$$
=
 OpenBabel10222415433D

 44 50  0  0  1  0  0  0  0  0999 V2000
  191.6390  177.1330  144.1480 C   0  0  0  0  0  3  0  0  0  0  0  0
  188.8930  178.0030  142.2010 C   0  0  0  0  0  0  0  0  0  0  0  0
  191.0840  177.2900  141.6630 C   0  0  0  0  0  3  0  0  0  0  0  0
  187.5370  177.8940  144.6800 C   0  0  0  0  0  0  0  0  0  0  0  0
  189.5820  178.1260  143.3070 C   0  0  0  0  0  0  0  0  0  0  0  0
  190.2000  176.3710  147.5840 N   0  0  0  0  0  2  0  0  0  0  0  0
  189.7290  177.5230  141.1450 N   0  0  0  0  0  0  0  0  0  0  0  0
  190.9280  177.6190  143.1150 C   0  0  0  0  0  0  0  0  0  0  0  0
  191.3220  176.4220  146.6920 C   0  0  0  0  0  0  0  0  0  0  0  0
  188.9760  178.3740  144.6440 C   0  0  0  0  0  0  0  0  0  0  0  0
  191.0350  177.2300  145.5060 C   0  0  0  0  0  0  0  0  0  0  0  0
  187.0360  177.3070  145.7900 C   0  0  0  0  0  3  0  0  0  0  0  0
  187.4090  178.0120  142.2280 C   0  0  0  0  0  3  0  0  0  0  0  0
  189.8070  177.7030  145.6850 C   0  0  0  0  0  0  0  0  0  0  0  0
  187.9050  176.9300  146.9460 C   0  0  0  0  0  3  0  0  0  0  0  0
  192.3920  175.7960  146.8930 O   0  0  0  0  0  0  0  0  0  0  0  0
  189.2270  177.1360  146.8760 C   0  0  0  0  0  0  0  0  0  0  0  0
  186.7550  177.9810  143.4100 C   0  0  0  0  0  0  0  0  0  0  0  0
  185.2650  177.9700  143.4190 C   0  0  0  0  0  2  0  0  0  0  0  0
  184.7650  179.0860  142.6320 N   0  0  0  0  0  2  0  0  0  0  0  0
  182.7200  176.8210  139.1020 C   0  0  0  0  0  2  0  0  0  0  0  0
  179.7810  177.1630  141.4040 C   0  0  0  0  0  0  0  0  0  0  0  0
  179.1570  176.0680  141.4250 O   0  0  0  0  0  0  0  0  0  0  0  0
  181.4820  176.2480  139.7700 C   0  0  0  0  0  2  0  0  0  0  0  0
  180.9800  177.2960  140.6350 N   0  0  0  0  0  0  0  0  0  0  0  0
  184.3620  178.8900  139.8700 S   0  0  0  0  0  0  0  0  0  0  0  0
  183.8270  178.9300  141.5650 C   0  0  0  0  0  0  0  0  0  0  0  0
  181.7270  178.5350  140.5350 C   0  0  2  0  0  3  0  0  0  0  0  0
  182.7010  178.3200  139.3790 C   0  0  2  0  0  3  0  0  0  0  0  0
  182.5350  178.7410  141.7680 C   0  0  0  0  0  3  0  0  0  0  0  0
  179.2920  178.2410  142.1330 O   0  0  0  0  0  1  0  0  0  0  0  0
  189.2700  177.0880  139.8340 C   0  0  0  0  0  2  0  0  0  0  0  0
  189.4340  178.2040  138.8080 C   0  0  0  0  0  2  0  0  0  0  0  0
  188.7400  177.8520  137.5010 C   0  0  0  0  0  2  0  0  0  0  0  0
  189.1510  176.5300  137.0610 N   0  0  0  0  0  2  0  0  0  0  0  0
  190.4690  176.6760  136.4660 C   0  0  0  0  0  2  0  0  0  0  0  0
  191.2930  175.5200  136.8030 N   0  0  0  0  0  0  0  0  0  0  0  0
  192.7090  176.7120  138.3540 C   0  0  0  0  0  2  0  0  0  0  0  0
  192.5070  175.6550  137.5690 C   0  0  0  0  0  0  0  0  0  0  0  0
  194.7330  175.0260  138.2470 N   0  0  0  0  0  1  0  0  0  0  0  0
  193.5290  174.5650  137.5780 C   0  0  0  0  0  2  0  0  0  0  0  0
  190.8160  174.2130  136.3710 C   0  0  0  0  0  2  0  0  0  0  0  0
  188.8710  172.9960  136.7680 C   0  0  0  0  0  1  0  0  0  0  0  0
  190.0140  173.6050  137.4200 N   0  0  0  0  0  2  0  0  0  0  0  0
  1 11  2  0  0  0  0
  2 13  2  0  0  0  0
  2  5  1  0  0  0  0
  3  8  2  0  0  0  0
  4 12  1  0  0  0  0
  5 10  2  0  0  0  0
  7  3  1  0  0  0  0
  7  2  1  0  0  0  0
  8  5  1  0  0  0  0
  8  1  1  0  0  0  0
  9 16  2  0  0  0  0
  9  6  1  0  0  0  0
 10  4  1  0  0  0  0
 10 14  1  0  0  0  0
 11 14  1  0  0  0  0
 11  9  1  0  0  0  0
 12 15  2  0  0  0  0
 13 18  1  0  0  0  0
 14 17  2  0  0  0  0
 17 15  1  0  0  0  0
 17  6  1  0  0  0  0
 18 19  1  0  0  0  0
 18  4  2  0  0  0  0
 20 19  1  0  0  0  0
 21 24  1  0  0  0  0
 22 23  2  0  0  0  0
 22 31  1  0  0  0  0
 24 25  1  0  0  0  0
 25 22  1  0  0  0  0
 26 27  1  0  0  0  0
 27 30  2  0  0  0  0
 27 20  1  0  0  0  0
 28 25  1  0  0  0  0
 28 30  1  1  0  0  0
 29 21  1  1  0  0  0
 29 26  1  0  0  0  0
 29 28  1  0  0  0  0
 32  7  1  0  0  0  0
 33 32  1  0  0  0  0
 34 33  1  0  0  0  0
 35 34  1  0  0  0  0
 36 37  1  0  0  0  0
 36 35  1  0  0  0  0
 37 39  1  0  0  0  0
 39 41  1  0  0  0  0
 39 38  2  0  0  0  0
 41 40  1  0  0  0  0
 42 37  1  0  0  0  0
 42 44  1  0  0  0  0
 43 44  1  0  0  0  0
M  END
>  <MODEL>
7

>  <REMARK>
 VINA RESULT:      -8.0      3.130      6.608
  Name = 
  13 active torsions:
  status: ('A' for Active; 'I' for Inactive)
    1  A    between atoms: C_1  and  N_3
    2  A    between atoms: C_1  and  C_44
    3  A    between atoms: N_3  and  C_29
    4  A    between atoms: C_4  and  N_10
    5  A    between atoms: C_4  and  N_42
    6  A    between atoms: N_10  and  C_19
    7  A    between atoms: C_16  and  N_22
    8  A    between atoms: C_16  and  C_24
    9  A    between atoms: C_19  and  C_24
   10  A    between atoms: N_20  and  C_21
   11  A    between atoms: C_21  and  N_42
   12  A    between atoms: C_31  and  C_32
   13  A    between atoms: C_32  and  N_42
                            x       y       z     vdW  Elec       q    Type
                         _______ _______ _______ _____ _____    ______ ____

>  <TORSDO>
F 13

$$$$
=
 OpenBabel10222415433D

 44 50  0  0  1  0  0  0  0  0999 V2000
  191.6770  177.2840  144.0140 C   0  0  0  0  0  3  0  0  0  0  0  0
  189.0210  177.9600  141.8730 C   0  0  0  0  0  0  0  0  0  0  0  0
  191.2570  177.2830  141.4970 C   0  0  0  0  0  3  0  0  0  0  0  0
  187.5320  177.9510  144.2770 C   0  0  0  0  0  0  0  0  0  0  0  0
  189.6440  178.1660  143.0050 C   0  0  0  0  0  0  0  0  0  0  0  0
  190.0690  176.6770  147.4050 N   0  0  0  0  0  2  0  0  0  0  0  0
  189.9280  177.4460  140.8940 N   0  0  0  0  0  0  0  0  0  0  0  0
  191.0120  177.6890  142.9170 C   0  0  0  0  0  0  0  0  0  0  0  0
  191.2370  176.7110  146.5740 C   0  0  0  0  0  0  0  0  0  0  0  0
  188.9580  178.4720  144.2900 C   0  0  0  0  0  0  0  0  0  0  0  0
  190.9950  177.4410  145.3290 C   0  0  0  0  0  0  0  0  0  0  0  0
  186.9860  177.4140  145.3900 C   0  0  0  0  0  3  0  0  0  0  0  0
  187.5390  177.9250  141.8180 C   0  0  0  0  0  3  0  0  0  0  0  0
  189.7470  177.8860  145.4130 C   0  0  0  0  0  0  0  0  0  0  0  0
  187.7990  177.1290  146.6120 C   0  0  0  0  0  3  0  0  0  0  0  0
  192.3110  176.1290  146.8690 O   0  0  0  0  0  0  0  0  0  0  0  0
  189.1170  177.3710  146.6010 C   0  0  0  0  0  0  0  0  0  0  0  0
  186.8210  177.9430  142.9630 C   0  0  0  0  0  0  0  0  0  0  0  0
  185.3340  177.8870  142.8920 C   0  0  0  0  0  2  0  0  0  0  0  0
  184.8410  179.0170  142.1200 N   0  0  0  0  0  2  0  0  0  0  0  0
  182.4490  176.9760  138.6720 C   0  0  0  0  0  2  0  0  0  0  0  0
  179.8230  176.9500  141.3470 C   0  0  0  0  0  0  0  0  0  0  0  0
  179.2530  175.8260  141.3400 O   0  0  0  0  0  0  0  0  0  0  0  0
  181.3340  176.2790  139.4310 C   0  0  0  0  0  2  0  0  0  0  0  0
  180.9050  177.2160  140.4500 N   0  0  0  0  0  0  0  0  0  0  0  0
  184.0900  179.0520  139.4240 S   0  0  0  0  0  0  0  0  0  0  0  0
  183.7790  178.9090  141.1690 C   0  0  0  0  0  0  0  0  0  0  0  0
  181.5810  178.4970  140.3780 C   0  0  2  0  0  3  0  0  0  0  0  0
  182.4040  178.4410  139.0930 C   0  0  2  0  0  3  0  0  0  0  0  0
  182.5340  178.6330  141.5140 C   0  0  0  0  0  3  0  0  0  0  0  0
  179.3890  177.9300  142.2330 O   0  0  0  0  0  1  0  0  0  0  0  0
  189.5550  176.9230  139.5870 C   0  0  0  0  0  2  0  0  0  0  0  0
  190.7960  176.6100  138.7580 C   0  0  0  0  0  2  0  0  0  0  0  0
  190.6590  175.2660  138.0560 C   0  0  0  0  0  2  0  0  0  0  0  0
  191.9750  174.7240  137.7620 N   0  0  0  0  0  2  0  0  0  0  0  0
  192.8550  175.8580  137.5350 C   0  0  0  0  0  2  0  0  0  0  0  0
  194.0610  175.4160  136.8420 N   0  0  0  0  0  0  0  0  0  0  0  0
  195.0640  173.2460  136.5150 C   0  0  0  0  0  2  0  0  0  0  0  0
  194.8300  174.2900  137.3070 C   0  0  0  0  0  0  0  0  0  0  0  0
  196.8040  174.8620  138.5650 N   0  0  0  0  0  1  0  0  0  0  0  0
  195.4670  174.3060  138.6590 C   0  0  0  0  0  2  0  0  0  0  0  0
  194.4330  176.1340  135.6300 C   0  0  0  0  0  2  0  0  0  0  0  0
  195.9110  177.8040  134.9600 C   0  0  0  0  0  1  0  0  0  0  0  0
  195.8170  176.5700  135.7150 N   0  0  0  0  0  2  0  0  0  0  0  0
  1 11  2  0  0  0  0
  2  5  1  0  0  0  0
  3  8  2  0  0  0  0
  4 10  1  0  0  0  0
  4 12  1  0  0  0  0
  5 10  2  0  0  0  0
  7  3  1  0  0  0  0
  7  2  1  0  0  0  0
  8  5  1  0  0  0  0
  8  1  1  0  0  0  0
  9 16  2  0  0  0  0
  9  6  1  0  0  0  0
 10 14  1  0  0  0  0
 11 14  1  0  0  0  0
 11  9  1  0  0  0  0
 12 15  2  0  0  0  0
 13  2  2  0  0  0  0
 13 18  1  0  0  0  0
 14 17  2  0  0  0  0
 17 15  1  0  0  0  0
 17  6  1  0  0  0  0
 18  4  2  0  0  0  0
 19 18  1  0  0  0  0
 20 19  1  0  0  0  0
 21 24  1  0  0  0  0
 22 31  1  0  0  0  0
 23 22  2  0  0  0  0
 24 25  1  0  0  0  0
 25 22  1  0  0  0  0
 26 27  1  0  0  0  0
 27 30  2  0  0  0  0
 27 20  1  0  0  0  0
 28 25  1  0  0  0  0
 28 30  1  1  0  0  0
 29 21  1  1  0  0  0
 29 26  1  0  0  0  0
 29 28  1  0  0  0  0
 32  7  1  0  0  0  0
 33 32  1  0  0  0  0
 34 33  1  0  0  0  0
 35 34  1  0  0  0  0
 36 35  1  0  0  0  0
 37 39  1  0  0  0  0
 37 36  1  0  0  0  0
 38 39  2  0  0  0  0
 39 41  1  0  0  0  0
 40 41  1  0  0  0  0
 42 44  1  0  0  0  0
 42 37  1  0  0  0  0
 43 44  1  0  0  0  0
M  END
>  <MODEL>
8

>  <REMARK>
 VINA RESULT:      -8.0      4.214      7.905
  Name = 
  13 active torsions:
  status: ('A' for Active; 'I' for Inactive)
    1  A    between atoms: C_1  and  N_3
    2  A    between atoms: C_1  and  C_44
    3  A    between atoms: N_3  and  C_29
    4  A    between atoms: C_4  and  N_10
    5  A    between atoms: C_4  and  N_42
    6  A    between atoms: N_10  and  C_19
    7  A    between atoms: C_16  and  N_22
    8  A    between atoms: C_16  and  C_24
    9  A    between atoms: C_19  and  C_24
   10  A    between atoms: N_20  and  C_21
   11  A    between atoms: C_21  and  N_42
   12  A    between atoms: C_31  and  C_32
   13  A    between atoms: C_32  and  N_42
                            x       y       z     vdW  Elec       q    Type
                         _______ _______ _______ _____ _____    ______ ____

>  <TORSDO>
F 13

$$$$
=
 OpenBabel10222415433D

 44 50  0  0  1  0  0  0  0  0999 V2000
  191.6830  176.8920  144.1460 C   0  0  0  0  0  3  0  0  0  0  0  0
  188.8930  177.9700  142.3710 C   0  0  0  0  0  0  0  0  0  0  0  0
  190.9810  177.0810  141.7000 C   0  0  0  0  0  3  0  0  0  0  0  0
  187.6970  177.9810  144.9330 C   0  0  0  0  0  0  0  0  0  0  0  0
  189.6610  178.0430  143.4280 C   0  0  0  0  0  0  0  0  0  0  0  0
  190.4150  176.2650  147.6750 N   0  0  0  0  0  2  0  0  0  0  0  0
  189.6180  177.4200  141.2680 N   0  0  0  0  0  0  0  0  0  0  0  0
  190.9460  177.4280  143.1560 C   0  0  0  0  0  0  0  0  0  0  0  0
  191.4760  176.2210  146.7120 C   0  0  0  0  0  0  0  0  0  0  0  0
  189.1640  178.3450  144.7990 C   0  0  0  0  0  0  0  0  0  0  0  0
  191.1780  177.0440  145.5390 C   0  0  0  0  0  0  0  0  0  0  0  0
  187.2250  177.4420  146.0790 C   0  0  0  0  0  3  0  0  0  0  0  0
  187.4200  178.0970  142.4930 C   0  0  0  0  0  3  0  0  0  0  0  0
  190.0060  177.6140  145.7920 C   0  0  0  0  0  0  0  0  0  0  0  0
  188.1350  177.0020  147.1800 C   0  0  0  0  0  3  0  0  0  0  0  0
  192.5040  175.5120  146.8490 O   0  0  0  0  0  0  0  0  0  0  0  0
  189.4620  177.1010  147.0230 C   0  0  0  0  0  0  0  0  0  0  0  0
  186.8440  178.1250  143.7160 C   0  0  0  0  0  0  0  0  0  0  0  0
  185.3620  178.2320  143.8210 C   0  0  0  0  0  2  0  0  0  0  0  0
  184.8340  178.8770  142.6290 N   0  0  0  0  0  2  0  0  0  0  0  0
  180.7450  179.8230  140.5900 C   0  0  0  0  0  2  0  0  0  0  0  0
  182.3020  177.7160  137.9080 C   0  0  0  0  0  0  0  0  0  0  0  0
  182.0830  178.2600  136.7920 O   0  0  0  0  0  0  0  0  0  0  0  0
  181.0490  179.5450  139.1280 C   0  0  0  0  0  2  0  0  0  0  0  0
  181.8540  178.3400  139.1150 N   0  0  0  0  0  0  0  0  0  0  0  0
  182.0490  179.0010  142.8680 S   0  0  0  0  0  0  0  0  0  0  0  0
  183.5650  178.5480  142.0590 C   0  0  0  0  0  0  0  0  0  0  0  0
  182.0370  177.7530  140.4280 C   0  0  2  0  0  3  0  0  0  0  0  0
  181.1320  178.5610  141.3550 C   0  0  2  0  0  3  0  0  0  0  0  0
  183.4400  177.9570  140.8840 C   0  0  0  0  0  3  0  0  0  0  0  0
  182.9800  176.5040  137.9550 O   0  0  0  0  0  1  0  0  0  0  0  0
  189.0410  177.0160  139.9940 C   0  0  0  0  0  2  0  0  0  0  0  0
  189.5320  177.9220  138.8700 C   0  0  0  0  0  2  0  0  0  0  0  0
  190.1180  177.1070  137.7260 C   0  0  0  0  0  2  0  0  0  0  0  0
  189.4540  177.4510  136.4810 N   0  0  0  0  0  2  0  0  0  0  0  0
  188.8340  176.2330  135.9850 C   0  0  0  0  0  2  0  0  0  0  0  0
  187.4840  176.1110  136.5240 N   0  0  0  0  0  0  0  0  0  0  0  0
  186.0740  177.8730  137.3800 C   0  0  0  0  0  2  0  0  0  0  0  0
  186.5020  177.1510  136.3460 C   0  0  0  0  0  0  0  0  0  0  0  0
  184.6350  177.0680  134.8240 N   0  0  0  0  0  1  0  0  0  0  0  0
  186.0090  177.5110  134.9820 C   0  0  0  0  0  2  0  0  0  0  0  0
  187.1530  174.8710  137.2140 C   0  0  0  0  0  2  0  0  0  0  0  0
  185.2620  173.5640  137.5810 C   0  0  0  0  0  1  0  0  0  0  0  0
  186.0430  174.2120  136.5460 N   0  0  0  0  0  2  0  0  0  0  0  0
  1 11  2  0  0  0  0
  2 13  2  0  0  0  0
  2  5  1  0  0  0  0
  3  8  2  0  0  0  0
  4 12  1  0  0  0  0
  5 10  2  0  0  0  0
  7  3  1  0  0  0  0
  7  2  1  0  0  0  0
  8  5  1  0  0  0  0
  8  1  1  0  0  0  0
  9 16  2  0  0  0  0
  9  6  1  0  0  0  0
 10  4  1  0  0  0  0
 10 14  1  0  0  0  0
 11 14  1  0  0  0  0
 11  9  1  0  0  0  0
 12 15  2  0  0  0  0
 13 18  1  0  0  0  0
 14 17  2  0  0  0  0
 17 15  1  0  0  0  0
 17  6  1  0  0  0  0
 18 19  1  0  0  0  0
 18  4  2  0  0  0  0
 20 19  1  0  0  0  0
 22 31  1  0  0  0  0
 22 25  1  0  0  0  0
 23 22  2  0  0  0  0
 24 21  1  0  0  0  0
 25 24  1  0  0  0  0
 25 28  1  0  0  0  0
 27 20  1  0  0  0  0
 27 26  1  0  0  0  0
 28 30  1  1  0  0  0
 28 29  1  0  0  0  0
 29 21  1  6  0  0  0
 29 26  1  0  0  0  0
 30 27  2  0  0  0  0
 32  7  1  0  0  0  0
 33 32  1  0  0  0  0
 34 33  1  0  0  0  0
 35 34  1  0  0  0  0
 36 35  1  0  0  0  0
 36 37  1  0  0  0  0
 37 42  1  0  0  0  0
 39 37  1  0  0  0  0
 39 38  2  0  0  0  0
 40 41  1  0  0  0  0
 41 39  1  0  0  0  0
 44 42  1  0  0  0  0
 44 43  1  0  0  0  0
M  END
>  <MODEL>
9

>  <REMARK>
 VINA RESULT:      -8.0      2.143      5.493
  Name = 
  13 active torsions:
  status: ('A' for Active; 'I' for Inactive)
    1  A    between atoms: C_1  and  N_3
    2  A    between atoms: C_1  and  C_44
    3  A    between atoms: N_3  and  C_29
    4  A    between atoms: C_4  and  N_10
    5  A    between atoms: C_4  and  N_42
    6  A    between atoms: N_10  and  C_19
    7  A    between atoms: C_16  and  N_22
    8  A    between atoms: C_16  and  C_24
    9  A    between atoms: C_19  and  C_24
   10  A    between atoms: N_20  and  C_21
   11  A    between atoms: C_21  and  N_42
   12  A    between atoms: C_31  and  C_32
   13  A    between atoms: C_32  and  N_42
                            x       y       z     vdW  Elec       q    Type
                         _______ _______ _______ _____ _____    ______ ____

>  <TORSDO>
F 13

$$$$
