=
 OpenBabel10222421163D

 37 41  0  0  1  0  0  0  0  0999 V2000
  186.3840  177.7110  144.2450 C   0  0  0  0  0  3  0  0  0  0  0  0
  185.1310  178.2510  142.1820 C   0  0  0  0  0  1  0  0  0  0  0  0
  187.7100  178.3680  137.3880 C   0  0  0  0  0  2  0  0  0  0  0  0
  190.1290  174.4210  136.1360 O   0  0  0  0  0  0  0  0  0  0  0  0
  187.6410  177.9910  142.0980 C   0  0  0  0  0  0  0  0  0  0  0  0
  188.4640  178.1100  138.7070 C   0  0  1  0  0  3  0  0  0  0  0  0
  189.9020  177.4400  146.3170 N   0  0  0  0  0  1  0  0  0  0  0  0
  187.4900  177.5140  144.8930 N   0  0  0  0  0  0  0  0  0  0  0  0
  189.5940  175.9970  138.2330 C   0  0  0  0  0  2  0  0  0  0  0  0
  188.7520  177.5440  144.2140 C   0  0  0  0  0  0  0  0  0  0  0  0
  187.6920  177.5380  139.7310 O   0  0  0  0  0  0  0  0  0  0  0  0
  187.6920  175.5220  136.0540 C   0  0  0  0  0  2  0  0  0  0  0  0
  186.0490  177.8090  135.7860 O   0  0  0  0  0  1  0  0  0  0  0  0
  189.9060  177.5260  144.8950 C   0  0  0  0  0  0  0  0  0  0  0  0
  187.6540  178.5440  140.7010 C   0  0  0  0  0  2  0  0  0  0  0  0
  190.1860  176.7760  140.8740 C   0  0  0  0  0  2  0  0  0  0  0  0
  190.6050  177.6410  139.6840 C   0  0  0  0  0  2  0  0  0  0  0  0
  186.4000  177.9800  142.8370 N   0  0  0  0  0  0  0  0  0  0  0  0
  186.7770  176.0140  137.1720 C   0  0  0  0  0  2  0  0  0  0  0  0
  190.0150  176.8270  135.6980 O   0  0  0  0  0  0  0  0  0  0  0  0
  191.1620  177.6360  144.2030 N   0  0  0  0  0  0  0  0  0  0  0  0
  191.2480  177.6460  142.9050 C   0  0  0  0  0  3  0  0  0  0  0  0
  188.7890  177.6860  142.7440 C   0  0  0  0  0  0  0  0  0  0  0  0
  189.7520  177.4290  138.5050 N   0  0  2  0  0  0  0  0  0  0  0  0
  189.4140  175.6950  136.4850 S   0  0  0  0  0  0  0  0  0  0  0  0
  186.4580  177.5180  137.0890 C   0  0  1  0  0  0  0  0  0  0  0  0
  190.0700  177.5620  142.0920 N   0  0  0  0  0  0  0  0  0  0  0  0
  185.3160  177.8980  138.0150 C   0  0  0  0  0  0  0  0  0  0  0  0
  183.0940  178.6690  139.5710 C   0  0  0  0  0  0  0  0  0  0  0  0
  184.0130  179.6300  139.1260 C   0  0  0  0  0  3  0  0  0  0  0  0
  183.2810  177.3270  139.2280 C   0  0  0  0  0  3  0  0  0  0  0  0
  184.3780  176.9460  138.4510 C   0  0  0  0  0  3  0  0  0  0  0  0
  185.1080  179.2470  138.3490 C   0  0  0  0  0  3  0  0  0  0  0  0
  181.9660  179.0350  140.3690 N   0  0  0  0  0  2  0  0  0  0  0  0
  181.1830  178.0680  141.1210 C   0  0  0  0  0  2  0  0  0  0  0  0
  181.5300  179.0590  143.0600 C   0  0  0  0  0  1  0  0  0  0  0  0
  180.5190  178.7170  142.1610 O   0  0  0  0  0  0  0  0  0  0  0  0
  1  8  2  0  0  0  0
  2 18  1  0  0  0  0
  4 25  2  0  0  0  0
  5 23  2  0  0  0  0
  5 18  1  0  0  0  0
  6  3  1  6  0  0  0
  6 11  1  0  0  0  0
 10  8  1  0  0  0  0
 10 14  2  0  0  0  0
 11 15  1  0  0  0  0
 12 25  1  0  0  0  0
 12 19  1  0  0  0  0
 14  7  1  0  0  0  0
 15  5  1  0  0  0  0
 16 27  1  0  0  0  0
 17 16  1  0  0  0  0
 18  1  1  0  0  0  0
 20 25  2  0  0  0  0
 21 14  1  0  0  0  0
 22 21  2  0  0  0  0
 23 10  1  0  0  0  0
 24  9  1  1  0  0  0
 24  6  1  0  0  0  0
 24 17  1  0  0  0  0
 25  9  1  0  0  0  0
 26 13  1  6  0  0  0
 26 19  1  0  0  0  0
 26  3  1  0  0  0  0
 26 28  1  0  0  0  0
 27 23  1  0  0  0  0
 27 22  1  0  0  0  0
 28 33  2  0  0  0  0
 28 32  1  0  0  0  0
 29 34  1  0  0  0  0
 30 29  2  0  0  0  0
 31 29  1  0  0  0  0
 32 31  2  0  0  0  0
 33 30  1  0  0  0  0
 34 35  1  0  0  0  0
 35 37  1  0  0  0  0
 37 36  1  0  0  0  0
M  END
>  <MODEL>
1

>  <REMARK>
 VINA RESULT:      -7.9      0.000      0.000
  Name = 
  4 active torsions:
  status: ('A' for Active; 'I' for Inactive)
    1  A    between atoms: C_4  and  C_36
    2  A    between atoms: C_5  and  N_15
    3  A    between atoms: N_15  and  C_27
    4  A    between atoms: O_23  and  C_27
                            x       y       z     vdW  Elec       q    Type
                         _______ _______ _______ _____ _____    ______ ____

>  <TORSDO>
F 4

$$$$
=
 OpenBabel10222421163D

 37 41  0  0  1  0  0  0  0  0999 V2000
  186.2190  177.8730  143.9010 C   0  0  0  0  0  3  0  0  0  0  0  0
  185.2860  178.2050  141.6350 C   0  0  0  0  0  1  0  0  0  0  0  0
  188.5580  177.9700  137.2880 C   0  0  0  0  0  2  0  0  0  0  0  0
  191.1780  173.9880  136.7660 O   0  0  0  0  0  0  0  0  0  0  0  0
  187.7820  177.9970  141.9500 C   0  0  0  0  0  0  0  0  0  0  0  0
  189.1060  177.8440  138.7230 C   0  0  1  0  0  3  0  0  0  0  0  0
  189.3860  177.8630  146.4910 N   0  0  0  0  0  1  0  0  0  0  0  0
  187.2160  177.7580  144.7210 N   0  0  0  0  0  0  0  0  0  0  0  0
  190.3160  175.7250  138.6120 C   0  0  0  0  0  2  0  0  0  0  0  0
  188.5660  177.7600  144.2390 C   0  0  0  0  0  0  0  0  0  0  0  0
  188.1950  177.3440  139.6670 O   0  0  0  0  0  0  0  0  0  0  0  0
  188.7710  175.0200  136.2230 C   0  0  0  0  0  2  0  0  0  0  0  0
  187.1630  177.2360  135.5110 O   0  0  0  0  0  1  0  0  0  0  0  0
  189.6040  177.8270  145.0830 C   0  0  0  0  0  0  0  0  0  0  0  0
  188.0000  178.4280  140.5270 C   0  0  0  0  0  2  0  0  0  0  0  0
  190.4950  176.7410  141.2320 C   0  0  0  0  0  2  0  0  0  0  0  0
  191.0800  177.5110  140.0460 C   0  0  0  0  0  2  0  0  0  0  0  0
  186.4440  178.0200  142.4930 N   0  0  0  0  0  0  0  0  0  0  0  0
  187.6920  175.5840  137.1440 C   0  0  0  0  0  2  0  0  0  0  0  0
  191.1070  176.3430  136.1050 O   0  0  0  0  0  0  0  0  0  0  0  0
  190.9490  177.9070  144.5800 N   0  0  0  0  0  0  0  0  0  0  0  0
  191.2300  177.8070  143.3140 C   0  0  0  0  0  3  0  0  0  0  0  0
  188.8230  177.7760  142.7850 C   0  0  0  0  0  0  0  0  0  0  0  0
  190.4170  177.1790  138.7770 N   0  0  2  0  0  0  0  0  0  0  0  0
  190.4050  175.2700  136.8900 S   0  0  0  0  0  0  0  0  0  0  0  0
  187.3740  177.0680  136.8810 C   0  0  1  0  0  0  0  0  0  0  0  0
  190.1890  177.6260  142.3450 N   0  0  0  0  0  0  0  0  0  0  0  0
  186.1020  177.5000  137.5890 C   0  0  0  0  0  0  0  0  0  0  0  0
  183.6700  178.3670  138.7240 C   0  0  0  0  0  0  0  0  0  0  0  0
  184.6880  179.2890  138.4440 C   0  0  0  0  0  3  0  0  0  0  0  0
  183.8640  177.0160  138.4260 C   0  0  0  0  0  3  0  0  0  0  0  0
  185.0660  176.5870  137.8570 C   0  0  0  0  0  3  0  0  0  0  0  0
  185.8880  178.8590  137.8750 C   0  0  0  0  0  3  0  0  0  0  0  0
  182.4330  178.7830  139.3080 N   0  0  0  0  0  2  0  0  0  0  0  0
  181.5180  179.7000  138.6490 C   0  0  0  0  0  2  0  0  0  0  0  0
  181.1040  181.7870  138.0700 C   0  0  0  0  0  1  0  0  0  0  0  0
  181.9200  181.0120  138.8960 O   0  0  0  0  0  0  0  0  0  0  0  0
  1  8  2  0  0  0  0
  2 18  1  0  0  0  0
  4 25  2  0  0  0  0
  5 18  1  0  0  0  0
  5 23  2  0  0  0  0
  6  3  1  6  0  0  0
  6 24  1  0  0  0  0
  6 11  1  0  0  0  0
 10  8  1  0  0  0  0
 10 14  2  0  0  0  0
 11 15  1  0  0  0  0
 12 25  1  0  0  0  0
 12 19  1  0  0  0  0
 14  7  1  0  0  0  0
 15  5  1  0  0  0  0
 16 27  1  0  0  0  0
 17 16  1  0  0  0  0
 18  1  1  0  0  0  0
 20 25  2  0  0  0  0
 21 14  1  0  0  0  0
 22 21  2  0  0  0  0
 23 10  1  0  0  0  0
 24  9  1  1  0  0  0
 24 17  1  0  0  0  0
 25  9  1  0  0  0  0
 26 13  1  6  0  0  0
 26 19  1  0  0  0  0
 26  3  1  0  0  0  0
 26 28  1  0  0  0  0
 27 23  1  0  0  0  0
 27 22  1  0  0  0  0
 28 32  2  0  0  0  0
 28 33  1  0  0  0  0
 29 34  1  0  0  0  0
 30 29  1  0  0  0  0
 31 29  2  0  0  0  0
 32 31  1  0  0  0  0
 33 30  2  0  0  0  0
 35 37  1  0  0  0  0
 35 34  1  0  0  0  0
 36 37  1  0  0  0  0
M  END
>  <MODEL>
2

>  <REMARK>
 VINA RESULT:      -7.0      1.320      1.494
  Name = 
  4 active torsions:
  status: ('A' for Active; 'I' for Inactive)
    1  A    between atoms: C_4  and  C_36
    2  A    between atoms: C_5  and  N_15
    3  A    between atoms: N_15  and  C_27
    4  A    between atoms: O_23  and  C_27
                            x       y       z     vdW  Elec       q    Type
                         _______ _______ _______ _____ _____    ______ ____

>  <TORSDO>
F 4

$$$$
=
 OpenBabel10222421163D

 37 41  0  0  1  0  0  0  0  0999 V2000
  190.2590  176.8160  141.7690 C   0  0  0  0  0  3  0  0  0  0  0  0
  188.2920  177.8390  142.8650 C   0  0  0  0  0  1  0  0  0  0  0  0
  184.0150  179.3920  139.8750 C   0  0  0  0  0  2  0  0  0  0  0  0
  182.0230  176.0630  137.0560 O   0  0  0  0  0  0  0  0  0  0  0  0
  188.4150  177.7350  140.3460 C   0  0  0  0  0  0  0  0  0  0  0  0
  185.2910  178.8200  139.2280 C   0  0  1  0  0  3  0  0  0  0  0  0
  192.5530  176.1600  138.4450 N   0  0  0  0  0  1  0  0  0  0  0  0
  190.9470  176.5030  140.7150 N   0  0  0  0  0  0  0  0  0  0  0  0
  184.3940  176.9760  137.9010 C   0  0  0  0  0  2  0  0  0  0  0  0
  190.4420  176.7810  139.4020 C   0  0  0  0  0  0  0  0  0  0  0  0
  186.0340  177.9510  140.0440 O   0  0  0  0  0  0  0  0  0  0  0  0
  181.9730  177.0230  139.5530 C   0  0  0  0  0  2  0  0  0  0  0  0
  182.1500  179.2130  141.3350 O   0  0  0  0  0  1  0  0  0  0  0  0
  191.2150  176.6340  138.3170 C   0  0  0  0  0  0  0  0  0  0  0  0
  187.2270  178.6500  140.2480 C   0  0  0  0  0  2  0  0  0  0  0  0
  187.1950  177.0290  137.6140 C   0  0  0  0  0  2  0  0  0  0  0  0
  186.3330  178.2070  137.1560 C   0  0  0  0  0  2  0  0  0  0  0  0
  188.9850  177.4610  141.6450 N   0  0  0  0  0  0  0  0  0  0  0  0
  183.0760  177.1440  140.6010 C   0  0  0  0  0  2  0  0  0  0  0  0
  182.2360  178.4880  137.3140 O   0  0  0  0  0  0  0  0  0  0  0  0
  190.7190  176.9900  137.0150 N   0  0  0  0  0  0  0  0  0  0  0  0
  189.4880  177.3600  136.8120 C   0  0  0  0  0  3  0  0  0  0  0  0
  189.0780  177.3220  139.2420 C   0  0  0  0  0  0  0  0  0  0  0  0
  185.0560  178.2850  137.8780 N   0  0  2  0  0  0  0  0  0  0  0  0
  182.6200  177.1570  137.8960 S   0  0  0  0  0  0  0  0  0  0  0  0
  183.3640  178.5960  141.0260 C   0  0  1  0  0  0  0  0  0  0  0  0
  188.5600  177.4440  137.9010 N   0  0  0  0  0  0  0  0  0  0  0  0
  184.2290  178.6520  142.2740 C   0  0  0  0  0  0  0  0  0  0  0  0
  185.6650  178.7230  144.7000 C   0  0  0  0  0  0  0  0  0  0  0  0
  184.9400  179.8450  144.2730 C   0  0  0  0  0  3  0  0  0  0  0  0
  185.6610  177.5640  143.9190 C   0  0  0  0  0  3  0  0  0  0  0  0
  184.9440  177.5260  142.7210 C   0  0  0  0  0  3  0  0  0  0  0  0
  184.2230  179.8050  143.0760 C   0  0  0  0  0  3  0  0  0  0  0  0
  186.4080  178.7400  145.9210 N   0  0  0  0  0  2  0  0  0  0  0  0
  187.0910  177.5700  146.4460 C   0  0  0  0  0  2  0  0  0  0  0  0
  188.8820  177.5350  147.7320 C   0  0  0  0  0  1  0  0  0  0  0  0
  188.4680  177.7870  146.4230 O   0  0  0  0  0  0  0  0  0  0  0  0
  3 26  1  0  0  0  0
  4 25  2  0  0  0  0
  5 18  1  0  0  0  0
  6  3  1  1  0  0  0
  6 11  1  0  0  0  0
  8  1  2  0  0  0  0
 10  8  1  0  0  0  0
 11 15  1  0  0  0  0
 12 19  1  0  0  0  0
 14  7  1  0  0  0  0
 14 10  2  0  0  0  0
 15  5  1  0  0  0  0
 16 27  1  0  0  0  0
 17 16  1  0  0  0  0
 18  1  1  0  0  0  0
 18  2  1  0  0  0  0
 19 26  1  0  0  0  0
 20 25  2  0  0  0  0
 21 14  1  0  0  0  0
 22 21  2  0  0  0  0
 22 27  1  0  0  0  0
 23 10  1  0  0  0  0
 23  5  2  0  0  0  0
 24 17  1  1  0  0  0
 24  9  1  0  0  0  0
 24  6  1  0  0  0  0
 25  9  1  0  0  0  0
 25 12  1  0  0  0  0
 26 13  1  1  0  0  0
 26 28  1  0  0  0  0
 27 23  1  0  0  0  0
 28 32  2  0  0  0  0
 28 33  1  0  0  0  0
 29 34  1  0  0  0  0
 30 29  1  0  0  0  0
 31 29  2  0  0  0  0
 32 31  1  0  0  0  0
 33 30  2  0  0  0  0
 34 35  1  0  0  0  0
 37 35  1  0  0  0  0
 37 36  1  0  0  0  0
M  END
>  <MODEL>
3

>  <REMARK>
 VINA RESULT:      -5.9      2.652      5.771
  Name = 
  4 active torsions:
  status: ('A' for Active; 'I' for Inactive)
    1  A    between atoms: C_4  and  C_36
    2  A    between atoms: C_5  and  N_15
    3  A    between atoms: N_15  and  C_27
    4  A    between atoms: O_23  and  C_27
                            x       y       z     vdW  Elec       q    Type
                         _______ _______ _______ _____ _____    ______ ____

>  <TORSDO>
F 4

$$$$
=
 OpenBabel10222421163D

 37 41  0  0  1  0  0  0  0  0999 V2000
  189.9130  177.3230  140.6930 C   0  0  0  0  0  3  0  0  0  0  0  0
  187.5940  178.1290  140.9940 C   0  0  0  0  0  1  0  0  0  0  0  0
  183.9910  177.6150  136.9450 C   0  0  0  0  0  2  0  0  0  0  0  0
  183.3410  173.2060  135.1730 O   0  0  0  0  0  0  0  0  0  0  0  0
  188.3510  177.2900  138.7370 C   0  0  0  0  0  0  0  0  0  0  0  0
  185.4640  177.1960  136.7760 C   0  0  1  0  0  3  0  0  0  0  0  0
  193.0330  176.2510  138.2740 N   0  0  0  0  0  1  0  0  0  0  0  0
  190.8820  176.8770  139.9560 N   0  0  0  0  0  0  0  0  0  0  0  0
  185.2440  174.8750  136.0470 C   0  0  0  0  0  2  0  0  0  0  0  0
  190.6780  176.6090  138.5630 C   0  0  0  0  0  0  0  0  0  0  0  0
  186.1170  176.8250  137.9630 O   0  0  0  0  0  0  0  0  0  0  0  0
  182.5170  174.8440  137.1210 C   0  0  0  0  0  2  0  0  0  0  0  0
  181.8800  177.4500  138.0200 O   0  0  0  0  0  1  0  0  0  0  0  0
  191.7080  176.3260  137.7540 C   0  0  0  0  0  0  0  0  0  0  0  0
  187.0890  177.8170  138.1150 C   0  0  0  0  0  2  0  0  0  0  0  0
  187.9800  175.5090  136.2590 C   0  0  0  0  0  2  0  0  0  0  0  0
  187.0740  176.2460  135.2710 C   0  0  0  0  0  2  0  0  0  0  0  0
  188.6190  177.5730  140.1280 N   0  0  0  0  0  0  0  0  0  0  0  0
  183.2900  175.5420  138.2370 C   0  0  0  0  0  2  0  0  0  0  0  0
  183.0760  175.5700  134.5940 O   0  0  0  0  0  0  0  0  0  0  0  0
  191.4980  176.1360  136.3440 N   0  0  0  0  0  0  0  0  0  0  0  0
  190.3110  176.1190  135.8100 C   0  0  0  0  0  3  0  0  0  0  0  0
  189.3250  176.7300  137.9840 C   0  0  0  0  0  0  0  0  0  0  0  0
  185.6630  176.2320  135.6820 N   0  0  2  0  0  0  0  0  0  0  0  0
  183.5210  174.6140  135.6660 S   0  0  0  0  0  0  0  0  0  0  0  0
  183.2180  177.0780  138.1670 C   0  0  1  0  0  0  0  0  0  0  0  0
  189.1420  176.3070  136.6170 N   0  0  0  0  0  0  0  0  0  0  0  0
  183.7260  177.7190  139.4470 C   0  0  0  0  0  0  0  0  0  0  0  0
  184.5050  179.0310  141.8200 C   0  0  0  0  0  0  0  0  0  0  0  0
  184.7330  179.6300  140.5730 C   0  0  0  0  0  3  0  0  0  0  0  0
  183.8780  177.7830  141.8790 C   0  0  0  0  0  3  0  0  0  0  0  0
  183.4850  177.1370  140.7040 C   0  0  0  0  0  3  0  0  0  0  0  0
  184.3390  178.9830  139.4000 C   0  0  0  0  0  3  0  0  0  0  0  0
  184.9000  179.6730  143.0340 N   0  0  0  0  0  2  0  0  0  0  0  0
  184.5400  179.1660  144.3480 C   0  0  0  0  0  2  0  0  0  0  0  0
  185.4500  178.4980  146.2420 C   0  0  0  0  0  1  0  0  0  0  0  0
  185.5460  179.4840  145.2590 O   0  0  0  0  0  0  0  0  0  0  0  0
  3 26  1  0  0  0  0
  4 25  2  0  0  0  0
  5 18  1  0  0  0  0
  6  3  1  1  0  0  0
  6 11  1  0  0  0  0
  8  1  2  0  0  0  0
 10  8  1  0  0  0  0
 11 15  1  0  0  0  0
 12 19  1  0  0  0  0
 14  7  1  0  0  0  0
 14 10  2  0  0  0  0
 15  5  1  0  0  0  0
 16 27  1  0  0  0  0
 17 16  1  0  0  0  0
 18  1  1  0  0  0  0
 18  2  1  0  0  0  0
 20 25  2  0  0  0  0
 21 14  1  0  0  0  0
 22 21  2  0  0  0  0
 22 27  1  0  0  0  0
 23 10  1  0  0  0  0
 23  5  2  0  0  0  0
 24 17  1  1  0  0  0
 24  9  1  0  0  0  0
 24  6  1  0  0  0  0
 25  9  1  0  0  0  0
 25 12  1  0  0  0  0
 26 13  1  6  0  0  0
 26 19  1  0  0  0  0
 26 28  1  0  0  0  0
 27 23  1  0  0  0  0
 28 32  1  0  0  0  0
 29 31  1  0  0  0  0
 29 34  1  0  0  0  0
 30 29  2  0  0  0  0
 32 31  2  0  0  0  0
 33 28  2  0  0  0  0
 33 30  1  0  0  0  0
 34 35  1  0  0  0  0
 35 37  1  0  0  0  0
 37 36  1  0  0  0  0
M  END
>  <MODEL>
4

>  <REMARK>
 VINA RESULT:      -5.5      2.842      5.020
  Name = 
  4 active torsions:
  status: ('A' for Active; 'I' for Inactive)
    1  A    between atoms: C_4  and  C_36
    2  A    between atoms: C_5  and  N_15
    3  A    between atoms: N_15  and  C_27
    4  A    between atoms: O_23  and  C_27
                            x       y       z     vdW  Elec       q    Type
                         _______ _______ _______ _____ _____    ______ ____

>  <TORSDO>
F 4

$$$$
=
 OpenBabel10222421163D

 37 41  0  0  1  0  0  0  0  0999 V2000
  182.4290  177.3710  138.5210 C   0  0  0  0  0  3  0  0  0  0  0  0
  184.7680  177.5530  137.7380 C   0  0  0  0  0  1  0  0  0  0  0  0
  188.6930  179.0040  141.2210 C   0  0  0  0  0  2  0  0  0  0  0  0
  189.1290  176.3760  145.2090 O   0  0  0  0  0  0  0  0  0  0  0  0
  184.1660  178.2690  140.0830 C   0  0  0  0  0  0  0  0  0  0  0  0
  187.2130  178.9510  141.6460 C   0  0  1  0  0  3  0  0  0  0  0  0
  179.4800  178.2950  141.2030 N   0  0  0  0  0  1  0  0  0  0  0  0
  181.5020  177.5580  139.4080 N   0  0  0  0  0  0  0  0  0  0  0  0
  187.3020  177.4660  143.5830 C   0  0  0  0  0  2  0  0  0  0  0  0
  181.8170  178.1160  140.6900 C   0  0  0  0  0  0  0  0  0  0  0  0
  186.4170  178.0530  140.9170 O   0  0  0  0  0  0  0  0  0  0  0  0
  189.8970  176.4750  142.6480 C   0  0  0  0  0  2  0  0  0  0  0  0
  190.6660  177.9820  140.3810 O   0  0  0  0  0  1  0  0  0  0  0  0
  180.8510  178.4850  141.5420 C   0  0  0  0  0  0  0  0  0  0  0  0
  185.5250  178.8920  140.2440 C   0  0  0  0  0  2  0  0  0  0  0  0
  184.6240  178.2070  143.1230 C   0  0  0  0  0  2  0  0  0  0  0  0
  185.6830  179.2550  143.4690 C   0  0  0  0  0  2  0  0  0  0  0  0
  183.7880  177.7330  138.7970 N   0  0  0  0  0  0  0  0  0  0  0  0
  189.0810  176.4960  141.3580 C   0  0  0  0  0  2  0  0  0  0  0  0
  189.6540  178.5850  144.2940 O   0  0  0  0  0  0  0  0  0  0  0  0
  181.1830  179.1150  142.7920 N   0  0  0  0  0  0  0  0  0  0  0  0
  182.4100  179.2560  143.2010 C   0  0  0  0  0  3  0  0  0  0  0  0
  183.2260  178.3740  141.0490 C   0  0  0  0  0  0  0  0  0  0  0  0
  187.0410  178.8270  143.1010 N   0  0  2  0  0  0  0  0  0  0  0  0
  189.0240  177.2540  143.9940 S   0  0  0  0  0  0  0  0  0  0  0  0
  189.2930  177.7690  140.5180 C   0  0  1  0  0  0  0  0  0  0  0  0
  183.5060  178.7950  142.4010 N   0  0  0  0  0  0  0  0  0  0  0  0
  188.7190  177.6160  139.1190 C   0  0  0  0  0  0  0  0  0  0  0  0
  187.8440  177.3480  136.4520 C   0  0  0  0  0  0  0  0  0  0  0  0
  188.1560  178.6130  136.9700 C   0  0  0  0  0  3  0  0  0  0  0  0
  187.9820  176.2190  137.2640 C   0  0  0  0  0  3  0  0  0  0  0  0
  188.4220  176.3510  138.5830 C   0  0  0  0  0  3  0  0  0  0  0  0
  188.5970  178.7420  138.2880 C   0  0  0  0  0  3  0  0  0  0  0  0
  187.3900  177.1890  135.1060 N   0  0  0  0  0  2  0  0  0  0  0  0
  186.8610  175.9360  134.5940 C   0  0  0  0  0  2  0  0  0  0  0  0
  185.1960  174.5430  134.9800 C   0  0  0  0  0  1  0  0  0  0  0  0
  185.4830  175.8960  134.7970 O   0  0  0  0  0  0  0  0  0  0  0  0
  1 18  1  0  0  0  0
  1  8  2  0  0  0  0
  2 18  1  0  0  0  0
  5 15  1  0  0  0  0
  5 23  2  0  0  0  0
  6  3  1  1  0  0  0
  6 24  1  0  0  0  0
  7 14  1  0  0  0  0
  8 10  1  0  0  0  0
  9 25  1  0  0  0  0
 10 23  1  0  0  0  0
 10 14  2  0  0  0  0
 11  6  1  0  0  0  0
 12 25  1  0  0  0  0
 14 21  1  0  0  0  0
 15 11  1  0  0  0  0
 16 17  1  0  0  0  0
 18  5  1  0  0  0  0
 19 12  1  0  0  0  0
 21 22  2  0  0  0  0
 23 27  1  0  0  0  0
 24 17  1  6  0  0  0
 24  9  1  0  0  0  0
 25 20  2  0  0  0  0
 25  4  2  0  0  0  0
 26 13  1  6  0  0  0
 26  3  1  0  0  0  0
 26 19  1  0  0  0  0
 27 16  1  0  0  0  0
 27 22  1  0  0  0  0
 28 26  1  0  0  0  0
 29 30  2  0  0  0  0
 29 31  1  0  0  0  0
 30 33  1  0  0  0  0
 31 32  2  0  0  0  0
 32 28  1  0  0  0  0
 33 28  2  0  0  0  0
 34 29  1  0  0  0  0
 35 37  1  0  0  0  0
 35 34  1  0  0  0  0
 37 36  1  0  0  0  0
M  END
>  <MODEL>
5

>  <REMARK>
 VINA RESULT:      -5.5      2.723      6.816
  Name = 
  4 active torsions:
  status: ('A' for Active; 'I' for Inactive)
    1  A    between atoms: C_4  and  C_36
    2  A    between atoms: C_5  and  N_15
    3  A    between atoms: N_15  and  C_27
    4  A    between atoms: O_23  and  C_27
                            x       y       z     vdW  Elec       q    Type
                         _______ _______ _______ _____ _____    ______ ____

>  <TORSDO>
F 4

$$$$
=
 OpenBabel10222421163D

 37 41  0  0  1  0  0  0  0  0999 V2000
  180.4580  174.8700  139.5170 C   0  0  0  0  0  3  0  0  0  0  0  0
  181.9160  174.1650  137.6480 C   0  0  0  0  0  1  0  0  0  0  0  0
  186.0670  177.3300  136.0980 C   0  0  0  0  0  2  0  0  0  0  0  0
  189.2330  178.5590  139.4830 O   0  0  0  0  0  0  0  0  0  0  0  0
  182.2050  176.4540  138.6750 C   0  0  0  0  0  0  0  0  0  0  0  0
  185.0890  177.7630  137.2060 C   0  0  1  0  0  3  0  0  0  0  0  0
  178.9310  177.7840  141.9500 N   0  0  0  0  0  1  0  0  0  0  0  0
  180.0380  175.7520  140.3700 N   0  0  0  0  0  0  0  0  0  0  0  0
  186.6090  178.2370  139.0580 C   0  0  0  0  0  2  0  0  0  0  0  0
  180.6490  177.0460  140.4470 C   0  0  0  0  0  0  0  0  0  0  0  0
  184.4730  176.7100  137.9010 O   0  0  0  0  0  0  0  0  0  0  0  0
  188.6630  176.6250  137.7250 C   0  0  0  0  0  2  0  0  0  0  0  0
  187.6750  175.8330  135.1950 O   0  0  0  0  0  1  0  0  0  0  0  0
  180.1110  178.0240  141.1880 C   0  0  0  0  0  0  0  0  0  0  0  0
  183.1260  176.8430  137.5540 C   0  0  0  0  0  2  0  0  0  0  0  0
  183.9610  178.6460  139.9240 C   0  0  0  0  0  2  0  0  0  0  0  0
  184.5580  179.4840  138.7920 C   0  0  0  0  0  2  0  0  0  0  0  0
  181.5330  175.1760  138.6200 N   0  0  0  0  0  0  0  0  0  0  0  0
  187.4200  175.7540  137.5630 C   0  0  0  0  0  2  0  0  0  0  0  0
  188.3820  179.2640  137.2990 O   0  0  0  0  0  0  0  0  0  0  0  0
  180.6910  179.3390  141.1930 N   0  0  0  0  0  0  0  0  0  0  0  0
  181.8060  179.6150  140.5810 C   0  0  0  0  0  3  0  0  0  0  0  0
  181.8420  177.3420  139.6280 C   0  0  0  0  0  0  0  0  0  0  0  0
  185.6520  178.7910  138.0950 N   0  0  2  0  0  0  0  0  0  0  0  0
  188.2610  178.2320  138.3860 S   0  0  0  0  0  0  0  0  0  0  0  0
  186.7160  175.9340  136.2050 C   0  0  1  0  0  0  0  0  0  0  0  0
  182.5090  178.6020  139.8480 N   0  0  0  0  0  0  0  0  0  0  0  0
  185.6870  174.8440  135.9610 C   0  0  0  0  0  0  0  0  0  0  0  0
  183.8930  172.7540  135.3530 C   0  0  0  0  0  0  0  0  0  0  0  0
  183.8900  173.9330  134.5940 C   0  0  0  0  0  3  0  0  0  0  0  0
  184.8010  172.6180  136.4070 C   0  0  0  0  0  3  0  0  0  0  0  0
  185.6940  173.6490  136.7040 C   0  0  0  0  0  3  0  0  0  0  0  0
  184.7840  174.9630  134.8910 C   0  0  0  0  0  3  0  0  0  0  0  0
  182.9860  171.6860  135.0690 N   0  0  0  0  0  2  0  0  0  0  0  0
  181.9940  171.2180  136.0230 C   0  0  0  0  0  2  0  0  0  0  0  0
  179.8650  171.1300  136.5890 C   0  0  0  0  0  1  0  0  0  0  0  0
  180.7240  171.6050  135.5980 O   0  0  0  0  0  0  0  0  0  0  0  0
  1  8  2  0  0  0  0
  2 18  1  0  0  0  0
  3 26  1  0  0  0  0
  5 23  2  0  0  0  0
  6  3  1  1  0  0  0
  6 11  1  0  0  0  0
  6 24  1  0  0  0  0
  8 10  1  0  0  0  0
 10 14  2  0  0  0  0
 12 25  1  0  0  0  0
 14 21  1  0  0  0  0
 14  7  1  0  0  0  0
 15 11  1  0  0  0  0
 15  5  1  0  0  0  0
 17 16  1  0  0  0  0
 18  5  1  0  0  0  0
 18  1  1  0  0  0  0
 19 12  1  0  0  0  0
 20 25  2  0  0  0  0
 22 21  2  0  0  0  0
 23 27  1  0  0  0  0
 23 10  1  0  0  0  0
 24 17  1  1  0  0  0
 24  9  1  0  0  0  0
 25  9  1  0  0  0  0
 25  4  2  0  0  0  0
 26 13  1  6  0  0  0
 26 19  1  0  0  0  0
 27 16  1  0  0  0  0
 27 22  1  0  0  0  0
 28 26  1  0  0  0  0
 28 32  1  0  0  0  0
 29 31  1  0  0  0  0
 30 33  1  0  0  0  0
 30 29  2  0  0  0  0
 31 32  2  0  0  0  0
 33 28  2  0  0  0  0
 34 29  1  0  0  0  0
 34 35  1  0  0  0  0
 37 35  1  0  0  0  0
 37 36  1  0  0  0  0
M  END
>  <MODEL>
6

>  <REMARK>
 VINA RESULT:      -5.4      3.984      6.906
  Name = 
  4 active torsions:
  status: ('A' for Active; 'I' for Inactive)
    1  A    between atoms: C_4  and  C_36
    2  A    between atoms: C_5  and  N_15
    3  A    between atoms: N_15  and  C_27
    4  A    between atoms: O_23  and  C_27
                            x       y       z     vdW  Elec       q    Type
                         _______ _______ _______ _____ _____    ______ ____

>  <TORSDO>
F 4

$$$$
=
 OpenBabel10222421163D

 37 41  0  0  1  0  0  0  0  0999 V2000
  186.8980  178.4610  140.6110 C   0  0  0  0  0  3  0  0  0  0  0  0
  184.4760  178.8140  140.9650 C   0  0  0  0  0  1  0  0  0  0  0  0
  180.9500  177.6650  136.9770 C   0  0  0  0  0  2  0  0  0  0  0  0
  181.1030  173.2280  135.1660 O   0  0  0  0  0  0  0  0  0  0  0  0
  185.3300  178.1510  138.6840 C   0  0  0  0  0  0  0  0  0  0  0  0
  182.4720  177.5320  136.7770 C   0  0  1  0  0  3  0  0  0  0  0  0
  190.1130  178.0140  138.1200 N   0  0  0  0  0  1  0  0  0  0  0  0
  187.9180  178.2110  139.8500 N   0  0  0  0  0  0  0  0  0  0  0  0
  182.6770  175.2170  136.0240 C   0  0  0  0  0  2  0  0  0  0  0  0
  187.7400  177.9210  138.4580 C   0  0  0  0  0  0  0  0  0  0  0  0
  183.2070  177.2800  137.9460 O   0  0  0  0  0  0  0  0  0  0  0  0
  180.0270  174.6650  137.1480 C   0  0  0  0  0  2  0  0  0  0  0  0
  178.9310  177.0970  138.0900 O   0  0  0  0  0  1  0  0  0  0  0  0
  188.7870  177.8440  137.6270 C   0  0  0  0  0  0  0  0  0  0  0  0
  183.9790  178.4370  138.0920 C   0  0  0  0  0  2  0  0  0  0  0  0
  185.2480  176.3530  136.1920 C   0  0  0  0  0  2  0  0  0  0  0  0
  184.2000  176.9150  135.2300 C   0  0  0  0  0  2  0  0  0  0  0  0
  185.5690  178.4680  140.0730 N   0  0  0  0  0  0  0  0  0  0  0  0
  180.6780  175.4870  138.2580 C   0  0  0  0  0  2  0  0  0  0  0  0
  180.3870  175.5040  134.6210 O   0  0  0  0  0  0  0  0  0  0  0  0
  188.5870  177.6290  136.2190 N   0  0  0  0  0  0  0  0  0  0  0  0
  187.4140  177.3930  135.7060 C   0  0  0  0  0  3  0  0  0  0  0  0
  186.3760  177.7910  137.9060 C   0  0  0  0  0  0  0  0  0  0  0  0
  182.8250  176.6320  135.6670 N   0  0  2  0  0  0  0  0  0  0  0  0
  181.0260  174.6400  135.6720 S   0  0  0  0  0  0  0  0  0  0  0  0
  180.3180  176.9830  138.2080 C   0  0  1  0  0  0  0  0  0  0  0  0
  186.2470  177.3520  136.5380 N   0  0  0  0  0  0  0  0  0  0  0  0
  180.7220  177.6970  139.4860 C   0  0  0  0  0  0  0  0  0  0  0  0
  181.2760  179.0320  141.9080 C   0  0  0  0  0  0  0  0  0  0  0  0
  180.8170  179.7490  140.7940 C   0  0  0  0  0  3  0  0  0  0  0  0
  181.4450  177.6480  141.8120 C   0  0  0  0  0  3  0  0  0  0  0  0
  181.1640  176.9860  140.6150 C   0  0  0  0  0  3  0  0  0  0  0  0
  180.5360  179.0850  139.5980 C   0  0  0  0  0  3  0  0  0  0  0  0
  181.5720  179.6890  143.1420 N   0  0  0  0  0  2  0  0  0  0  0  0
  182.4610  179.1240  144.1440 C   0  0  0  0  0  2  0  0  0  0  0  0
  184.4980  179.1280  144.9870 C   0  0  0  0  0  1  0  0  0  0  0  0
  183.6190  179.8960  144.2240 O   0  0  0  0  0  0  0  0  0  0  0  0
  3 26  1  0  0  0  0
  4 25  2  0  0  0  0
  5 18  1  0  0  0  0
  6  3  1  1  0  0  0
  6 11  1  0  0  0  0
  8  1  2  0  0  0  0
 10  8  1  0  0  0  0
 11 15  1  0  0  0  0
 12 19  1  0  0  0  0
 14  7  1  0  0  0  0
 14 10  2  0  0  0  0
 15  5  1  0  0  0  0
 16 27  1  0  0  0  0
 17 16  1  0  0  0  0
 18  1  1  0  0  0  0
 18  2  1  0  0  0  0
 20 25  2  0  0  0  0
 21 14  1  0  0  0  0
 22 21  2  0  0  0  0
 22 27  1  0  0  0  0
 23 10  1  0  0  0  0
 23  5  2  0  0  0  0
 24 17  1  1  0  0  0
 24  9  1  0  0  0  0
 24  6  1  0  0  0  0
 25  9  1  0  0  0  0
 25 12  1  0  0  0  0
 26 13  1  6  0  0  0
 26 19  1  0  0  0  0
 26 28  1  0  0  0  0
 27 23  1  0  0  0  0
 28 33  2  0  0  0  0
 28 32  1  0  0  0  0
 29 34  1  0  0  0  0
 30 29  2  0  0  0  0
 31 29  1  0  0  0  0
 32 31  2  0  0  0  0
 33 30  1  0  0  0  0
 34 35  1  0  0  0  0
 35 37  1  0  0  0  0
 37 36  1  0  0  0  0
M  END
>  <MODEL>
7

>  <REMARK>
 VINA RESULT:      -5.1      3.696      6.087
  Name = 
  4 active torsions:
  status: ('A' for Active; 'I' for Inactive)
    1  A    between atoms: C_4  and  C_36
    2  A    between atoms: C_5  and  N_15
    3  A    between atoms: N_15  and  C_27
    4  A    between atoms: O_23  and  C_27
                            x       y       z     vdW  Elec       q    Type
                         _______ _______ _______ _____ _____    ______ ____

>  <TORSDO>
F 4

$$$$
