=
 OpenBabel10222419173D

 35 42  0  0  1  0  0  0  0  0999 V2000
  189.4380  177.4570  139.7690 C   0  0  0  0  0  0  0  0  0  0  0  0
  188.4040  177.3150  138.7220 C   0  0  0  0  0  2  0  0  0  0  0  0
  190.6040  176.5750  139.5340 C   0  0  0  0  0  2  0  0  0  0  0  0
  189.1010  177.7890  140.9820 C   0  0  0  0  0  0  0  0  0  0  0  0
  190.3210  175.8830  138.2060 C   0  0  1  0  0  3  0  0  0  0  0  0
  188.8330  176.0940  137.9310 C   0  0  0  0  0  2  0  0  0  0  0  0
  188.7410  178.1150  142.1970 C   0  0  0  0  0  3  0  0  0  0  0  0
  187.1790  178.0460  144.1860 C   0  0  2  0  0  3  0  0  0  0  0  0
  185.7500  177.7120  144.6010 C   0  0  2  0  0  3  0  0  0  0  0  0
  185.0750  179.3050  142.6110 C   0  0  2  0  0  3  0  0  0  0  0  0
  184.6560  178.3300  143.7230 C   0  0  2  0  0  0  0  0  0  0  0  0
  184.4770  178.8510  141.2920 C   0  0  0  0  0  2  0  0  0  0  0  0
  187.3110  178.0020  142.6580 C   0  0  1  0  0  3  0  0  0  0  0  0
  186.4790  179.1220  142.0260 C   0  0  1  0  0  3  0  0  0  0  0  0
  185.0310  178.9700  145.0460 C   0  0  1  0  0  3  0  0  0  0  0  0
  188.0970  177.0340  144.8510 C   0  0  0  0  0  1  0  0  0  0  0  0
  185.8700  178.6630  140.7140 C   0  0  0  0  0  2  0  0  0  0  0  0
  183.5810  178.9290  144.6050 C   0  0  0  0  0  2  0  0  0  0  0  0
  191.1630  176.4910  137.0750 C   0  0  1  0  0  3  0  0  0  0  0  0
  192.1800  174.3300  135.7700 S   0  0  0  0  0  0  0  0  0  0  0  0
  192.6440  176.4580  137.3890 C   0  0  0  0  0  2  0  0  0  0  0  0
  190.9880  175.7030  135.7890 C   0  0  0  0  0  2  0  0  0  0  0  0
  193.1460  175.0490  137.1290 C   0  0  2  0  0  3  0  0  0  0  0  0
  195.7900  171.7420  137.7240 C   0  0  0  0  0  2  0  0  0  0  0  0
  198.8520  173.3860  135.9700 C   0  0  0  0  0  2  0  0  0  0  0  0
  196.8510  174.3020  136.7950 C   0  0  1  0  0  3  0  0  0  0  0  0
  196.6010  175.4110  134.6860 O   0  0  0  0  0  1  0  0  0  0  0  0
  194.5440  175.0750  136.7660 N   0  0  0  0  0  0  0  0  0  0  0  0
  195.0370  173.0440  138.0720 C   0  0  0  0  0  2  0  0  0  0  0  0
  197.2870  171.9700  137.4320 C   0  0  0  0  0  2  0  0  0  0  0  0
  198.7690  174.8500  135.5030 C   0  0  0  0  0  2  0  0  0  0  0  0
  197.3720  175.3660  135.8500 C   0  0  2  0  0  3  0  0  0  0  0  0
  195.3930  174.1730  137.1280 C   0  0  0  0  0  0  0  0  0  0  0  0
  196.7830  172.5460  135.1590 O   0  0  0  0  0  1  0  0  0  0  0  0
  197.4310  172.9990  136.3150 C   0  0  2  0  0  0  0  0  0  0  0  0
  1  4  2  0  0  0  0
  2  1  1  0  0  0  0
  3  1  1  0  0  0  0
  4  7  2  0  0  0  0
  5  6  1  6  0  0  0
  5  3  1  0  0  0  0
  6  2  1  0  0  0  0
  7 13  1  0  0  0  0
  8  9  1  0  0  0  0
  8 16  1  1  0  0  0
  9 15  1  0  0  0  0
 10 11  1  0  0  0  0
 11  9  1  0  0  0  0
 11 18  1  0  0  0  0
 11 15  1  0  0  0  0
 12 10  1  0  0  0  0
 13  8  1  0  0  0  0
 14 10  1  0  0  0  0
 14 13  1  0  0  0  0
 17 12  1  0  0  0  0
 17 14  1  0  0  0  0
 18 15  1  0  0  0  0
 19 21  1  0  0  0  0
 19  5  1  0  0  0  0
 20 22  1  0  0  0  0
 20 23  1  0  0  0  0
 22 19  1  0  0  0  0
 23 21  1  0  0  0  0
 24 29  1  0  0  0  0
 25 35  1  0  0  0  0
 26 33  1  0  0  0  0
 27 32  1  0  0  0  0
 28 33  2  0  0  0  0
 28 23  1  0  0  0  0
 30 24  1  0  0  0  0
 31 32  1  0  0  0  0
 31 25  1  0  0  0  0
 32 26  1  0  0  0  0
 33 29  1  0  0  0  0
 34 35  1  0  0  0  0
 35 26  1  0  0  0  0
 35 30  1  0  0  0  0
M  END
>  <MODEL>
1

>  <REMARK>
 VINA RESULT:      -9.5      0.000      0.000
  Name = 
  3 active torsions:
  status: ('A' for Active; 'I' for Inactive)
    1  A    between atoms: C_4  and  C_22
    2  A    between atoms: N_9  and  C_29
    3  A    between atoms: C_16  and  C_35
                            x       y       z     vdW  Elec       q    Type
                         _______ _______ _______ _____ _____    ______ ____

>  <TORSDO>
F 3

$$$$
=
 OpenBabel10222419173D

 35 42  0  0  1  0  0  0  0  0999 V2000
  190.7640  177.1610  141.7750 C   0  0  0  0  0  0  0  0  0  0  0  0
  189.5390  177.8710  141.3480 C   0  0  0  0  0  2  0  0  0  0  0  0
  191.2660  176.2290  140.7390 C   0  0  0  0  0  2  0  0  0  0  0  0
  190.9740  176.9150  143.0360 C   0  0  0  0  0  0  0  0  0  0  0  0
  190.3360  176.4180  139.5460 C   0  0  1  0  0  3  0  0  0  0  0  0
  189.1090  177.1540  140.0830 C   0  0  0  0  0  2  0  0  0  0  0  0
  191.1620  176.6690  144.3070 C   0  0  0  0  0  3  0  0  0  0  0  0
  190.5240  177.1160  146.7140 C   0  0  2  0  0  3  0  0  0  0  0  0
  189.3860  176.9750  147.7190 C   0  0  2  0  0  3  0  0  0  0  0  0
  187.9460  178.1730  145.8640 C   0  0  2  0  0  3  0  0  0  0  0  0
  188.0230  177.4770  147.2320 C   0  0  2  0  0  0  0  0  0  0  0  0
  186.8780  177.5040  145.0170 C   0  0  0  0  0  2  0  0  0  0  0  0
  190.0360  176.7530  145.3060 C   0  0  1  0  0  3  0  0  0  0  0  0
  189.0020  177.7770  144.8280 C   0  0  1  0  0  3  0  0  0  0  0  0
  188.8830  178.3440  148.1310 C   0  0  1  0  0  3  0  0  0  0  0  0
  191.6490  176.1980  147.1650 C   0  0  0  0  0  1  0  0  0  0  0  0
  187.9280  177.1050  143.9930 C   0  0  0  0  0  2  0  0  0  0  0  0
  187.3780  178.3160  148.3150 C   0  0  0  0  0  2  0  0  0  0  0  0
  191.0120  177.2440  138.4430 C   0  0  1  0  0  3  0  0  0  0  0  0
  191.4810  175.4420  136.4580 S   0  0  0  0  0  0  0  0  0  0  0  0
  192.5100  177.0250  138.4070 C   0  0  0  0  0  2  0  0  0  0  0  0
  190.4950  176.8410  137.0740 C   0  0  0  0  0  2  0  0  0  0  0  0
  192.7740  175.7040  137.7070 C   0  0  2  0  0  3  0  0  0  0  0  0
  195.5570  172.4660  137.9120 C   0  0  0  0  0  2  0  0  0  0  0  0
  198.1600  174.0510  135.4880 C   0  0  0  0  0  2  0  0  0  0  0  0
  196.3490  174.9860  136.6590 C   0  0  1  0  0  3  0  0  0  0  0  0
  195.6490  175.9770  134.5940 O   0  0  0  0  0  1  0  0  0  0  0  0
  194.0670  175.7270  137.0640 N   0  0  0  0  0  0  0  0  0  0  0  0
  194.8620  173.7750  138.3420 C   0  0  0  0  0  2  0  0  0  0  0  0
  196.9580  172.6960  137.3090 C   0  0  0  0  0  2  0  0  0  0  0  0
  197.9510  175.4870  134.9760 C   0  0  0  0  0  2  0  0  0  0  0  0
  196.6420  176.0030  135.5760 C   0  0  2  0  0  3  0  0  0  0  0  0
  194.9930  174.8560  137.2900 C   0  0  0  0  0  0  0  0  0  0  0  0
  195.9890  173.1440  135.1620 O   0  0  0  0  0  1  0  0  0  0  0  0
  196.8480  173.6660  136.1360 C   0  0  2  0  0  0  0  0  0  0  0  0
  1  4  2  0  0  0  0
  2  1  1  0  0  0  0
  3  1  1  0  0  0  0
  4  7  2  0  0  0  0
  5  6  1  1  0  0  0
  5  3  1  0  0  0  0
  6  2  1  0  0  0  0
  7 13  1  0  0  0  0
  8 16  1  1  0  0  0
  8  9  1  0  0  0  0
  9 15  1  0  0  0  0
 10 11  1  0  0  0  0
 11  9  1  0  0  0  0
 11 15  1  0  0  0  0
 11 18  1  0  0  0  0
 12 10  1  0  0  0  0
 13  8  1  0  0  0  0
 14 13  1  0  0  0  0
 14 10  1  0  0  0  0
 15 18  1  0  0  0  0
 17 14  1  0  0  0  0
 17 12  1  0  0  0  0
 19  5  1  0  0  0  0
 20 22  1  0  0  0  0
 20 23  1  0  0  0  0
 21 19  1  0  0  0  0
 22 19  1  0  0  0  0
 23 21  1  0  0  0  0
 24 29  1  0  0  0  0
 25 35  1  0  0  0  0
 26 33  1  0  0  0  0
 27 32  1  0  0  0  0
 28 33  2  0  0  0  0
 28 23  1  0  0  0  0
 30 24  1  0  0  0  0
 31 25  1  0  0  0  0
 31 32  1  0  0  0  0
 32 26  1  0  0  0  0
 33 29  1  0  0  0  0
 34 35  1  0  0  0  0
 35 26  1  0  0  0  0
 35 30  1  0  0  0  0
M  END
>  <MODEL>
2

>  <REMARK>
 VINA RESULT:      -9.4      1.859      2.904
  Name = 
  3 active torsions:
  status: ('A' for Active; 'I' for Inactive)
    1  A    between atoms: C_4  and  C_22
    2  A    between atoms: N_9  and  C_29
    3  A    between atoms: C_16  and  C_35
                            x       y       z     vdW  Elec       q    Type
                         _______ _______ _______ _____ _____    ______ ____

>  <TORSDO>
F 3

$$$$
=
 OpenBabel10222419173D

 35 42  0  0  1  0  0  0  0  0999 V2000
  188.6910  177.2900  140.8020 C   0  0  0  0  0  0  0  0  0  0  0  0
  190.0490  176.7240  140.6540 C   0  0  0  0  0  2  0  0  0  0  0  0
  188.2870  178.1010  139.6310 C   0  0  0  0  0  2  0  0  0  0  0  0
  188.2220  177.5660  141.9840 C   0  0  0  0  0  0  0  0  0  0  0  0
  189.4400  177.9770  138.6410 C   0  0  1  0  0  3  0  0  0  0  0  0
  190.6210  177.4300  139.4400 C   0  0  0  0  0  2  0  0  0  0  0  0
  187.7710  177.8450  143.1810 C   0  0  0  0  0  3  0  0  0  0  0  0
  188.1730  177.1780  145.5880 C   0  0  2  0  0  3  0  0  0  0  0  0
  189.0210  177.4960  146.8150 C   0  0  2  0  0  3  0  0  0  0  0  0
  191.0530  177.2410  145.1540 C   0  0  2  0  0  3  0  0  0  0  0  0
  190.5290  177.5890  146.5560 C   0  0  2  0  0  0  0  0  0  0  0  0
  191.9100  178.3830  144.6390 C   0  0  0  0  0  2  0  0  0  0  0  0
  188.6920  177.9520  144.3690 C   0  0  1  0  0  3  0  0  0  0  0  0
  190.0870  177.4520  143.9840 C   0  0  1  0  0  3  0  0  0  0  0  0
  189.9270  176.3240  147.1380 C   0  0  1  0  0  3  0  0  0  0  0  0
  186.7370  177.5550  145.9140 C   0  0  0  0  0  1  0  0  0  0  0  0
  190.9470  178.5970  143.4820 C   0  0  0  0  0  2  0  0  0  0  0  0
  191.2730  176.8220  147.6290 C   0  0  0  0  0  2  0  0  0  0  0  0
  189.0830  177.0210  137.4940 C   0  0  1  0  0  3  0  0  0  0  0  0
  187.3020  178.4250  135.9890 S   0  0  0  0  0  0  0  0  0  0  0  0
  187.7350  176.3640  137.7010 C   0  0  0  0  0  2  0  0  0  0  0  0
  188.9880  177.7710  136.1780 C   0  0  0  0  0  2  0  0  0  0  0  0
  186.6610  177.3670  137.3200 C   0  0  2  0  0  3  0  0  0  0  0  0
  182.6940  178.7030  138.1870 C   0  0  0  0  0  2  0  0  0  0  0  0
  180.9050  176.0110  136.0170 C   0  0  0  0  0  2  0  0  0  0  0  0
  183.1030  176.1410  136.8420 C   0  0  1  0  0  3  0  0  0  0  0  0
  183.8620  175.6610  134.6210 O   0  0  0  0  0  1  0  0  0  0  0  0
  185.4750  176.6820  136.8620 N   0  0  0  0  0  0  0  0  0  0  0  0
  184.0180  177.9400  138.4020 C   0  0  0  0  0  2  0  0  0  0  0  0
  181.5290  177.7850  137.7650 C   0  0  0  0  0  2  0  0  0  0  0  0
  181.7290  174.8910  135.3580 C   0  0  0  0  0  2  0  0  0  0  0  0
  183.1960  175.1220  135.7250 C   0  0  2  0  0  3  0  0  0  0  0  0
  184.2860  176.9500  137.2880 C   0  0  0  0  0  0  0  0  0  0  0  0
  182.2260  177.9100  135.4750 O   0  0  0  0  0  1  0  0  0  0  0  0
  181.9240  177.0160  136.5090 C   0  0  2  0  0  0  0  0  0  0  0  0
  1  4  2  0  0  0  0
  2  1  1  0  0  0  0
  3  1  1  0  0  0  0
  4  7  2  0  0  0  0
  5  6  1  1  0  0  0
  5  3  1  0  0  0  0
  6  2  1  0  0  0  0
  7 13  1  0  0  0  0
  8 16  1  1  0  0  0
  8  9  1  0  0  0  0
  9 15  1  0  0  0  0
 10 11  1  0  0  0  0
 11  9  1  0  0  0  0
 11 15  1  0  0  0  0
 11 18  1  0  0  0  0
 12 10  1  0  0  0  0
 13  8  1  0  0  0  0
 14 13  1  0  0  0  0
 14 10  1  0  0  0  0
 15 18  1  0  0  0  0
 17 14  1  0  0  0  0
 17 12  1  0  0  0  0
 19 21  1  0  0  0  0
 19  5  1  0  0  0  0
 20 22  1  0  0  0  0
 20 23  1  0  0  0  0
 22 19  1  0  0  0  0
 23 21  1  0  0  0  0
 24 29  1  0  0  0  0
 25 35  1  0  0  0  0
 26 33  1  0  0  0  0
 27 32  1  0  0  0  0
 28 33  2  0  0  0  0
 28 23  1  0  0  0  0
 30 24  1  0  0  0  0
 31 32  1  0  0  0  0
 31 25  1  0  0  0  0
 32 26  1  0  0  0  0
 33 29  1  0  0  0  0
 34 35  1  0  0  0  0
 35 26  1  0  0  0  0
 35 30  1  0  0  0  0
M  END
>  <MODEL>
3

>  <REMARK>
 VINA RESULT:      -8.7      5.800      9.319
  Name = 
  3 active torsions:
  status: ('A' for Active; 'I' for Inactive)
    1  A    between atoms: C_4  and  C_22
    2  A    between atoms: N_9  and  C_29
    3  A    between atoms: C_16  and  C_35
                            x       y       z     vdW  Elec       q    Type
                         _______ _______ _______ _____ _____    ______ ____

>  <TORSDO>
F 3

$$$$
=
 OpenBabel10222419173D

 35 42  0  0  1  0  0  0  0  0999 V2000
  183.7880  178.2870  141.3950 C   0  0  0  0  0  0  0  0  0  0  0  0
  182.4400  178.3890  141.9920 C   0  0  0  0  0  2  0  0  0  0  0  0
  184.8490  178.7720  142.3070 C   0  0  0  0  0  2  0  0  0  0  0  0
  183.9420  178.3750  140.1050 C   0  0  0  0  0  0  0  0  0  0  0  0
  184.1280  179.1380  143.6000 C   0  0  1  0  0  3  0  0  0  0  0  0
  182.6450  179.2220  143.2440 C   0  0  0  0  0  2  0  0  0  0  0  0
  184.0770  178.4760  138.8070 C   0  0  0  0  0  3  0  0  0  0  0  0
  182.1400  177.9510  137.2660 C   0  0  2  0  0  3  0  0  0  0  0  0
  181.1990  178.5700  136.2390 C   0  0  2  0  0  3  0  0  0  0  0  0
  180.7790  180.3870  138.1020 C   0  0  2  0  0  3  0  0  0  0  0  0
  180.5410  179.8850  136.6690 C   0  0  2  0  0  0  0  0  0  0  0  0
  181.2820  181.8180  138.0570 C   0  0  0  0  0  2  0  0  0  0  0  0
  182.9840  179.0420  137.9380 C   0  0  1  0  0  3  0  0  0  0  0  0
  182.0870  179.9590  138.7750 C   0  0  1  0  0  3  0  0  0  0  0  0
  179.7800  178.5770  136.7720 C   0  0  1  0  0  3  0  0  0  0  0  0
  183.0150  176.9440  136.5370 C   0  0  0  0  0  1  0  0  0  0  0  0
  182.5830  181.3920  138.7190 C   0  0  0  0  0  2  0  0  0  0  0  0
  179.0640  179.8410  136.3380 C   0  0  0  0  0  2  0  0  0  0  0  0
  184.3570  178.0720  144.6810 C   0  0  1  0  0  3  0  0  0  0  0  0
  185.7610  179.3780  146.6130 S   0  0  0  0  0  0  0  0  0  0  0  0
  185.7640  177.5150  144.6390 C   0  0  0  0  0  2  0  0  0  0  0  0
  184.1800  178.6640  146.0670 C   0  0  0  0  0  2  0  0  0  0  0  0
  186.6860  178.5210  145.3060 C   0  0  2  0  0  3  0  0  0  0  0  0
  190.0510  177.2100  143.0180 C   0  0  0  0  0  2  0  0  0  0  0  0
  192.1390  176.0030  146.0740 C   0  0  0  0  0  2  0  0  0  0  0  0
  189.8540  176.5040  145.8470 C   0  0  1  0  0  3  0  0  0  0  0  0
  190.0590  177.8720  147.8040 O   0  0  0  0  0  1  0  0  0  0  0  0
  187.8260  177.8480  145.8840 N   0  0  0  0  0  0  0  0  0  0  0  0
  188.6600  177.1250  143.6810 C   0  0  0  0  0  2  0  0  0  0  0  0
  191.1200  176.3690  143.7460 C   0  0  0  0  0  2  0  0  0  0  0  0
  191.5110  176.0090  147.4780 C   0  0  0  0  0  2  0  0  0  0  0  0
  190.0870  176.5530  147.3430 C   0  0  2  0  0  3  0  0  0  0  0  0
  188.7420  177.2650  145.1860 C   0  0  0  0  0  0  0  0  0  0  0  0
  191.5070  178.1570  145.2960 O   0  0  0  0  0  1  0  0  0  0  0  0
  191.1850  176.7960  145.2090 C   0  0  2  0  0  0  0  0  0  0  0  0
  1  2  1  0  0  0  0
  1  3  1  0  0  0  0
  2  6  1  0  0  0  0
  4  1  2  0  0  0  0
  5  3  1  6  0  0  0
  5 19  1  0  0  0  0
  6  5  1  0  0  0  0
  7  4  2  0  0  0  0
  8 16  1  6  0  0  0
  8 13  1  0  0  0  0
  9 11  1  0  0  0  0
  9 15  1  0  0  0  0
  9  8  1  0  0  0  0
 10 14  1  0  0  0  0
 11 15  1  0  0  0  0
 11 10  1  0  0  0  0
 12 10  1  0  0  0  0
 12 17  1  0  0  0  0
 13 14  1  0  0  0  0
 13  7  1  0  0  0  0
 17 14  1  0  0  0  0
 18 11  1  0  0  0  0
 18 15  1  0  0  0  0
 19 22  1  0  0  0  0
 21 19  1  0  0  0  0
 21 23  1  0  0  0  0
 22 20  1  0  0  0  0
 23 28  1  0  0  0  0
 23 20  1  0  0  0  0
 24 29  1  0  0  0  0
 24 30  1  0  0  0  0
 25 31  1  0  0  0  0
 26 32  1  0  0  0  0
 29 33  1  0  0  0  0
 30 35  1  0  0  0  0
 32 31  1  0  0  0  0
 32 27  1  0  0  0  0
 33 26  1  0  0  0  0
 33 28  2  0  0  0  0
 35 34  1  0  0  0  0
 35 26  1  0  0  0  0
 35 25  1  0  0  0  0
M  END
>  <MODEL>
4

>  <REMARK>
 VINA RESULT:      -8.7      7.145      9.880
  Name = 
  3 active torsions:
  status: ('A' for Active; 'I' for Inactive)
    1  A    between atoms: C_4  and  C_22
    2  A    between atoms: N_9  and  C_29
    3  A    between atoms: C_16  and  C_35
                            x       y       z     vdW  Elec       q    Type
                         _______ _______ _______ _____ _____    ______ ____

>  <TORSDO>
F 3

$$$$
=
 OpenBabel10222419173D

 35 42  0  0  1  0  0  0  0  0999 V2000
  187.2800  177.7640  142.2950 C   0  0  0  0  0  0  0  0  0  0  0  0
  187.1530  177.1640  143.6410 C   0  0  0  0  0  2  0  0  0  0  0  0
  188.6250  178.3350  142.0550 C   0  0  0  0  0  2  0  0  0  0  0  0
  186.2370  178.2700  141.7030 C   0  0  0  0  0  0  0  0  0  0  0  0
  189.4280  178.0080  143.3090 C   0  0  1  0  0  3  0  0  0  0  0  0
  188.4040  177.6140  144.3720 C   0  0  0  0  0  2  0  0  0  0  0  0
  185.1790  178.7830  141.1280 C   0  0  0  0  0  3  0  0  0  0  0  0
  182.6510  178.6820  141.1800 C   0  0  2  0  0  3  0  0  0  0  0  0
  181.4260  179.2270  141.9060 C   0  0  2  0  0  3  0  0  0  0  0  0
  182.6940  178.4540  144.0850 C   0  0  2  0  0  3  0  0  0  0  0  0
  181.4920  179.1590  143.4350 C   0  0  2  0  0  0  0  0  0  0  0  0
  183.3330  179.3840  145.1000 C   0  0  0  0  0  2  0  0  0  0  0  0
  183.9320  179.1100  141.9090 C   0  0  1  0  0  3  0  0  0  0  0  0
  184.0010  178.4430  143.2860 C   0  0  1  0  0  3  0  0  0  0  0  0
  180.7250  178.1090  142.6530 C   0  0  1  0  0  3  0  0  0  0  0  0
  182.6180  179.2180  139.7580 C   0  0  0  0  0  1  0  0  0  0  0  0
  184.6290  179.3780  144.3040 C   0  0  0  0  0  2  0  0  0  0  0  0
  180.1820  178.6220  143.9730 C   0  0  0  0  0  2  0  0  0  0  0  0
  190.4030  176.8500  143.0540 C   0  0  1  0  0  3  0  0  0  0  0  0
  192.0590  177.7930  141.1110 S   0  0  0  0  0  0  0  0  0  0  0  0
  190.0620  176.0870  141.7910 C   0  0  0  0  0  2  0  0  0  0  0  0
  191.8170  177.3690  142.8620 C   0  0  0  0  0  2  0  0  0  0  0  0
  190.5640  176.8930  140.6070 C   0  0  2  0  0  3  0  0  0  0  0  0
  188.6410  177.1310  136.7960 C   0  0  0  0  0  2  0  0  0  0  0  0
  190.8440  174.4110  135.0900 C   0  0  0  0  0  2  0  0  0  0  0  0
  190.4960  174.9410  137.3540 C   0  0  1  0  0  3  0  0  0  0  0  0
  192.8770  174.9560  137.6170 O   0  0  0  0  0  1  0  0  0  0  0  0
  190.8790  176.0160  139.5020 N   0  0  0  0  0  0  0  0  0  0  0  0
  188.8590  176.6770  138.2550 C   0  0  0  0  0  2  0  0  0  0  0  0
  188.9690  176.0300  135.7660 C   0  0  0  0  0  2  0  0  0  0  0  0
  191.8590  173.6150  135.9290 C   0  0  0  0  0  2  0  0  0  0  0  0
  191.7770  174.1330  137.3660 C   0  0  2  0  0  3  0  0  0  0  0  0
  190.1690  175.9370  138.4280 C   0  0  0  0  0  0  0  0  0  0  0  0
  191.2920  176.6230  135.8350 O   0  0  0  0  0  1  0  0  0  0  0  0
  190.4010  175.5510  135.9810 C   0  0  2  0  0  0  0  0  0  0  0  0
  1  2  1  0  0  0  0
  2  6  1  0  0  0  0
  3  1  1  0  0  0  0
  4  1  2  0  0  0  0
  5  3  1  6  0  0  0
  5  6  1  0  0  0  0
  7  4  2  0  0  0  0
  7 13  1  0  0  0  0
  8 16  1  6  0  0  0
  8  9  1  0  0  0  0
  8 13  1  0  0  0  0
  9 15  1  0  0  0  0
  9 11  1  0  0  0  0
 10 12  1  0  0  0  0
 11 18  1  0  0  0  0
 11 10  1  0  0  0  0
 13 14  1  0  0  0  0
 14 10  1  0  0  0  0
 14 17  1  0  0  0  0
 15 11  1  0  0  0  0
 15 18  1  0  0  0  0
 17 12  1  0  0  0  0
 19  5  1  0  0  0  0
 20 22  1  0  0  0  0
 21 19  1  0  0  0  0
 22 19  1  0  0  0  0
 23 20  1  0  0  0  0
 23 21  1  0  0  0  0
 24 29  1  0  0  0  0
 25 31  1  0  0  0  0
 25 35  1  0  0  0  0
 26 32  1  0  0  0  0
 26 33  1  0  0  0  0
 28 23  1  0  0  0  0
 29 33  1  0  0  0  0
 30 35  1  0  0  0  0
 30 24  1  0  0  0  0
 31 32  1  0  0  0  0
 32 27  1  0  0  0  0
 33 28  2  0  0  0  0
 34 35  1  0  0  0  0
 35 26  1  0  0  0  0
M  END
>  <MODEL>
5

>  <REMARK>
 VINA RESULT:      -8.1      3.436      5.727
  Name = 
  3 active torsions:
  status: ('A' for Active; 'I' for Inactive)
    1  A    between atoms: C_4  and  C_22
    2  A    between atoms: N_9  and  C_29
    3  A    between atoms: C_16  and  C_35
                            x       y       z     vdW  Elec       q    Type
                         _______ _______ _______ _____ _____    ______ ____

>  <TORSDO>
F 3

$$$$
=
 OpenBabel10222419173D

 35 42  0  0  1  0  0  0  0  0999 V2000
  188.5670  177.2110  141.3040 C   0  0  0  0  0  0  0  0  0  0  0  0
  189.9650  176.8180  141.5830 C   0  0  0  0  0  2  0  0  0  0  0  0
  188.4180  177.8740  139.9880 C   0  0  0  0  0  2  0  0  0  0  0  0
  187.7620  177.5070  142.2830 C   0  0  0  0  0  0  0  0  0  0  0  0
  189.8060  177.8320  139.3600 C   0  0  1  0  0  3  0  0  0  0  0  0
  190.7720  177.5040  140.4970 C   0  0  0  0  0  2  0  0  0  0  0  0
  186.9710  177.8110  143.2800 C   0  0  0  0  0  3  0  0  0  0  0  0
  186.4170  178.1170  145.7300 C   0  0  2  0  0  3  0  0  0  0  0  0
  186.9730  178.6490  147.0470 C   0  0  2  0  0  3  0  0  0  0  0  0
  189.0580  177.1390  146.4770 C   0  0  2  0  0  3  0  0  0  0  0  0
  188.3880  178.1760  147.3940 C   0  0  2  0  0  0  0  0  0  0  0  0
  190.4180  177.6540  146.0440 C   0  0  0  0  0  2  0  0  0  0  0  0
  187.5100  178.1240  144.6530 C   0  0  1  0  0  3  0  0  0  0  0  0
  188.6090  177.1210  145.0130 C   0  0  1  0  0  3  0  0  0  0  0  0
  187.1810  177.5060  148.0220 C   0  0  1  0  0  3  0  0  0  0  0  0
  185.2460  179.0020  145.3370 C   0  0  0  0  0  1  0  0  0  0  0  0
  189.9700  177.6430  144.5910 C   0  0  0  0  0  2  0  0  0  0  0  0
  188.4340  177.7400  148.8430 C   0  0  0  0  0  2  0  0  0  0  0  0
  189.8850  176.7560  138.2670 C   0  0  1  0  0  3  0  0  0  0  0  0
  188.5690  177.8590  136.1550 S   0  0  0  0  0  0  0  0  0  0  0  0
  188.5850  175.9940  138.1260 C   0  0  0  0  0  2  0  0  0  0  0  0
  190.1530  177.3840  136.9120 C   0  0  0  0  0  2  0  0  0  0  0  0
  187.6180  176.8570  137.3350 C   0  0  2  0  0  3  0  0  0  0  0  0
  188.1070  172.6390  136.8430 C   0  0  0  0  0  2  0  0  0  0  0  0
  184.6930  172.0680  135.0600 C   0  0  0  0  0  2  0  0  0  0  0  0
  185.9390  174.0220  135.4550 C   0  0  1  0  0  3  0  0  0  0  0  0
  183.9320  175.0130  136.3110 O   0  0  0  0  0  1  0  0  0  0  0  0
  186.6790  176.0280  136.6160 N   0  0  0  0  0  0  0  0  0  0  0  0
  188.2580  174.1380  136.5090 C   0  0  0  0  0  2  0  0  0  0  0  0
  187.1080  171.9120  135.9200 C   0  0  0  0  0  2  0  0  0  0  0  0
  183.8190  173.2760  134.6820 C   0  0  0  0  0  2  0  0  0  0  0  0
  184.5470  174.5370  135.1500 C   0  0  2  0  0  3  0  0  0  0  0  0
  186.9180  174.8040  136.2810 C   0  0  0  0  0  0  0  0  0  0  0  0
  185.2780  172.6280  137.2940 O   0  0  0  0  0  1  0  0  0  0  0  0
  185.7600  172.6230  135.9790 C   0  0  2  0  0  0  0  0  0  0  0  0
  1  2  1  0  0  0  0
  1  4  2  0  0  0  0
  3  1  1  0  0  0  0
  4  7  2  0  0  0  0
  5  3  1  1  0  0  0
  5  6  1  0  0  0  0
  6  2  1  0  0  0  0
  7 13  1  0  0  0  0
  8 16  1  6  0  0  0
  8  9  1  0  0  0  0
  9 11  1  0  0  0  0
  9 15  1  0  0  0  0
 10 11  1  0  0  0  0
 11 15  1  0  0  0  0
 11 18  1  0  0  0  0
 12 10  1  0  0  0  0
 13 14  1  0  0  0  0
 13  8  1  0  0  0  0
 14 10  1  0  0  0  0
 15 18  1  0  0  0  0
 17 14  1  0  0  0  0
 17 12  1  0  0  0  0
 19  5  1  0  0  0  0
 20 22  1  0  0  0  0
 20 23  1  0  0  0  0
 21 19  1  0  0  0  0
 22 19  1  0  0  0  0
 23 21  1  0  0  0  0
 25 35  1  0  0  0  0
 26 35  1  0  0  0  0
 26 33  1  0  0  0  0
 28 23  1  0  0  0  0
 29 24  1  0  0  0  0
 30 35  1  0  0  0  0
 30 24  1  0  0  0  0
 31 25  1  0  0  0  0
 31 32  1  0  0  0  0
 32 26  1  0  0  0  0
 32 27  1  0  0  0  0
 33 29  1  0  0  0  0
 33 28  2  0  0  0  0
 35 34  1  0  0  0  0
M  END
>  <MODEL>
6

>  <REMARK>
 VINA RESULT:      -7.8      5.394      7.358
  Name = 
  3 active torsions:
  status: ('A' for Active; 'I' for Inactive)
    1  A    between atoms: C_4  and  C_22
    2  A    between atoms: N_9  and  C_29
    3  A    between atoms: C_16  and  C_35
                            x       y       z     vdW  Elec       q    Type
                         _______ _______ _______ _____ _____    ______ ____

>  <TORSDO>
F 3

$$$$
=
 OpenBabel10222419173D

 35 42  0  0  1  0  0  0  0  0999 V2000
  192.6820  174.6490  137.3910 C   0  0  0  0  0  0  0  0  0  0  0  0
  192.1900  174.4460  136.0110 C   0  0  0  0  0  2  0  0  0  0  0  0
  192.2060  175.9220  137.9780 C   0  0  0  0  0  2  0  0  0  0  0  0
  193.8210  174.1400  137.7620 C   0  0  0  0  0  0  0  0  0  0  0  0
  191.2900  176.5320  136.9240 C   0  0  1  0  0  3  0  0  0  0  0  0
  191.5890  175.7840  135.6250 C   0  0  0  0  0  2  0  0  0  0  0  0
  194.9730  173.6280  138.1130 C   0  0  0  0  0  3  0  0  0  0  0  0
  197.4150  173.1840  137.6220 C   0  0  2  0  0  3  0  0  0  0  0  0
  198.3990  172.9080  136.4900 C   0  0  2  0  0  3  0  0  0  0  0  0
  196.6840  171.0240  135.8070 C   0  0  2  0  0  3  0  0  0  0  0  0
  197.9690  171.8130  135.5070 C   0  0  2  0  0  0  0  0  0  0  0  0
  195.7710  171.0700  134.5960 C   0  0  0  0  0  2  0  0  0  0  0  0
  195.9750  173.1560  137.0910 C   0  0  1  0  0  3  0  0  0  0  0  0
  195.6110  171.7410  136.6320 C   0  0  1  0  0  3  0  0  0  0  0  0
  198.9560  171.5040  136.6170 C   0  0  1  0  0  3  0  0  0  0  0  0
  197.7630  174.5410  138.2100 C   0  0  0  0  0  1  0  0  0  0  0  0
  194.7080  171.7880  135.4140 C   0  0  0  0  0  2  0  0  0  0  0  0
  199.1370  170.8860  135.2440 C   0  0  0  0  0  2  0  0  0  0  0  0
  189.8140  176.3630  137.3090 C   0  0  1  0  0  3  0  0  0  0  0  0
  189.1800  178.7020  138.5480 S   0  0  0  0  0  0  0  0  0  0  0  0
  189.6450  176.0380  138.7780 C   0  0  0  0  0  2  0  0  0  0  0  0
  189.0440  177.6490  137.0710 C   0  0  0  0  0  2  0  0  0  0  0  0
  189.7970  177.3280  139.5640 C   0  0  2  0  0  3  0  0  0  0  0  0
  191.6040  176.9530  143.4200 C   0  0  0  0  0  2  0  0  0  0  0  0
  188.2790  177.2390  145.4250 C   0  0  0  0  0  2  0  0  0  0  0  0
  188.6980  176.7930  143.1550 C   0  0  1  0  0  3  0  0  0  0  0  0
  187.0930  178.4920  142.6250 O   0  0  0  0  0  1  0  0  0  0  0  0
  189.0400  177.2590  140.7920 N   0  0  0  0  0  0  0  0  0  0  0  0
  190.9910  176.4840  142.0830 C   0  0  0  0  0  2  0  0  0  0  0  0
  190.6650  176.7330  144.6250 C   0  0  0  0  0  2  0  0  0  0  0  0
  186.9370  177.2830  144.6750 C   0  0  0  0  0  2  0  0  0  0  0  0
  187.2430  177.2170  143.1780 C   0  0  2  0  0  3  0  0  0  0  0  0
  189.5540  176.9360  141.9310 C   0  0  0  0  0  0  0  0  0  0  0  0
  189.5450  178.8020  144.1610 O   0  0  0  0  0  1  0  0  0  0  0  0
  189.3350  177.4310  144.3600 C   0  0  2  0  0  0  0  0  0  0  0  0
  1  4  2  0  0  0  0
  1  3  1  0  0  0  0
  2  1  1  0  0  0  0
  4  7  2  0  0  0  0
  5  6  1  6  0  0  0
  5 19  1  0  0  0  0
  5  3  1  0  0  0  0
  6  2  1  0  0  0  0
  8 16  1  6  0  0  0
  9 15  1  0  0  0  0
  9  8  1  0  0  0  0
 10 14  1  0  0  0  0
 11 10  1  0  0  0  0
 11  9  1  0  0  0  0
 11 15  1  0  0  0  0
 12 17  1  0  0  0  0
 12 10  1  0  0  0  0
 13  8  1  0  0  0  0
 13  7  1  0  0  0  0
 14 13  1  0  0  0  0
 17 14  1  0  0  0  0
 18 11  1  0  0  0  0
 18 15  1  0  0  0  0
 19 21  1  0  0  0  0
 20 23  1  0  0  0  0
 21 23  1  0  0  0  0
 22 19  1  0  0  0  0
 22 20  1  0  0  0  0
 23 28  1  0  0  0  0
 24 30  1  0  0  0  0
 26 32  1  0  0  0  0
 26 35  1  0  0  0  0
 27 32  1  0  0  0  0
 28 33  2  0  0  0  0
 29 24  1  0  0  0  0
 31 25  1  0  0  0  0
 32 31  1  0  0  0  0
 33 29  1  0  0  0  0
 33 26  1  0  0  0  0
 34 35  1  0  0  0  0
 35 30  1  0  0  0  0
 35 25  1  0  0  0  0
M  END
>  <MODEL>
7

>  <REMARK>
 VINA RESULT:      -7.7      3.827     11.131
  Name = 
  3 active torsions:
  status: ('A' for Active; 'I' for Inactive)
    1  A    between atoms: C_4  and  C_22
    2  A    between atoms: N_9  and  C_29
    3  A    between atoms: C_16  and  C_35
                            x       y       z     vdW  Elec       q    Type
                         _______ _______ _______ _____ _____    ______ ____

>  <TORSDO>
F 3

$$$$
=
 OpenBabel10222419173D

 35 42  0  0  1  0  0  0  0  0999 V2000
  186.0980  178.0090  137.5840 C   0  0  0  0  0  0  0  0  0  0  0  0
  186.3020  178.8140  136.3600 C   0  0  0  0  0  2  0  0  0  0  0  0
  187.1500  176.9840  137.7670 C   0  0  0  0  0  2  0  0  0  0  0  0
  184.8960  177.8060  138.0400 C   0  0  0  0  0  0  0  0  0  0  0  0
  188.1290  177.2040  136.6190 C   0  0  1  0  0  3  0  0  0  0  0  0
  187.3960  178.0810  135.6060 C   0  0  0  0  0  2  0  0  0  0  0  0
  183.6800  177.6040  138.4790 C   0  0  0  0  0  3  0  0  0  0  0  0
  181.9580  179.2890  137.7030 C   0  0  2  0  0  3  0  0  0  0  0  0
  180.6220  179.4190  136.9800 C   0  0  2  0  0  3  0  0  0  0  0  0
  181.7810  177.9570  135.1170 C   0  0  2  0  0  3  0  0  0  0  0  0
  180.5230  178.6600  135.6530 C   0  0  2  0  0  0  0  0  0  0  0  0
  181.4570  176.5050  134.8180 C   0  0  0  0  0  2  0  0  0  0  0  0
  182.4730  177.8460  137.6090 C   0  0  1  0  0  3  0  0  0  0  0  0
  182.8130  177.5030  136.1550 C   0  0  1  0  0  3  0  0  0  0  0  0
  180.8120  180.1490  135.6650 C   0  0  1  0  0  3  0  0  0  0  0  0
  181.7400  179.7050  139.1480 C   0  0  0  0  0  1  0  0  0  0  0  0
  182.4760  176.0550  135.8530 C   0  0  0  0  0  2  0  0  0  0  0  0
  179.9050  179.5590  134.6030 C   0  0  0  0  0  2  0  0  0  0  0  0
  189.4040  177.9060  137.1070 C   0  0  1  0  0  3  0  0  0  0  0  0
  190.6900  176.0030  138.5680 S   0  0  0  0  0  0  0  0  0  0  0  0
  189.2980  178.3320  138.5560 C   0  0  0  0  0  2  0  0  0  0  0  0
  190.5960  176.9700  137.0310 C   0  0  0  0  0  2  0  0  0  0  0  0
  189.5290  177.1080  139.4240 C   0  0  2  0  0  3  0  0  0  0  0  0
  187.2350  177.2970  143.0260 C   0  0  0  0  0  2  0  0  0  0  0  0
  190.2450  178.1380  145.3480 C   0  0  0  0  0  2  0  0  0  0  0  0
  190.0000  178.2460  143.0120 C   0  0  1  0  0  3  0  0  0  0  0  0
  192.0550  177.0280  142.8370 O   0  0  0  0  0  1  0  0  0  0  0  0
  190.0850  177.4960  140.6990 N   0  0  0  0  0  0  0  0  0  0  0  0
  187.8560  177.8000  141.7050 C   0  0  0  0  0  2  0  0  0  0  0  0
  187.9260  177.8780  144.2770 C   0  0  0  0  0  2  0  0  0  0  0  0
  191.6300  178.4070  144.7340 C   0  0  0  0  0  2  0  0  0  0  0  0
  191.5010  178.2520  143.2180 C   0  0  2  0  0  3  0  0  0  0  0  0
  189.3690  177.7600  141.7400 C   0  0  0  0  0  0  0  0  0  0  0  0
  189.6120  176.1760  144.1660 O   0  0  0  0  0  1  0  0  0  0  0  0
  189.4170  177.5620  144.2200 C   0  0  2  0  0  0  0  0  0  0  0  0
  1  3  1  0  0  0  0
  1  4  2  0  0  0  0
  2  1  1  0  0  0  0
  4  7  2  0  0  0  0
  5  6  1  6  0  0  0
  5 19  1  0  0  0  0
  5  3  1  0  0  0  0
  6  2  1  0  0  0  0
  8 16  1  1  0  0  0
  9  8  1  0  0  0  0
 10 11  1  0  0  0  0
 10 14  1  0  0  0  0
 11 15  1  0  0  0  0
 11  9  1  0  0  0  0
 12 10  1  0  0  0  0
 12 17  1  0  0  0  0
 13  8  1  0  0  0  0
 13  7  1  0  0  0  0
 14 13  1  0  0  0  0
 15  9  1  0  0  0  0
 17 14  1  0  0  0  0
 18 11  1  0  0  0  0
 18 15  1  0  0  0  0
 19 21  1  0  0  0  0
 20 23  1  0  0  0  0
 21 23  1  0  0  0  0
 22 19  1  0  0  0  0
 22 20  1  0  0  0  0
 23 28  1  0  0  0  0
 24 30  1  0  0  0  0
 26 32  1  0  0  0  0
 26 35  1  0  0  0  0
 27 32  1  0  0  0  0
 28 33  2  0  0  0  0
 29 33  1  0  0  0  0
 29 24  1  0  0  0  0
 31 25  1  0  0  0  0
 32 31  1  0  0  0  0
 33 26  1  0  0  0  0
 34 35  1  0  0  0  0
 35 30  1  0  0  0  0
 35 25  1  0  0  0  0
M  END
>  <MODEL>
8

>  <REMARK>
 VINA RESULT:      -7.5      4.939      8.304
  Name = 
  3 active torsions:
  status: ('A' for Active; 'I' for Inactive)
    1  A    between atoms: C_4  and  C_22
    2  A    between atoms: N_9  and  C_29
    3  A    between atoms: C_16  and  C_35
                            x       y       z     vdW  Elec       q    Type
                         _______ _______ _______ _____ _____    ______ ____

>  <TORSDO>
F 3

$$$$
=
 OpenBabel10222419173D

 35 42  0  0  1  0  0  0  0  0999 V2000
  182.1150  179.3150  141.0580 C   0  0  0  0  0  0  0  0  0  0  0  0
  183.2040  179.2890  140.0590 C   0  0  0  0  0  2  0  0  0  0  0  0
  182.4750  178.6030  142.3060 C   0  0  0  0  0  2  0  0  0  0  0  0
  180.8730  179.3740  140.6720 C   0  0  0  0  0  0  0  0  0  0  0  0
  183.9200  178.1600  142.1100 C   0  0  1  0  0  3  0  0  0  0  0  0
  184.1990  178.2870  140.6140 C   0  0  0  0  0  2  0  0  0  0  0  0
  179.6310  179.4240  140.2630 C   0  0  0  0  0  3  0  0  0  0  0  0
  179.6040  180.2240  137.8630 C   0  0  2  0  0  3  0  0  0  0  0  0
  179.0060  179.9360  136.4900 C   0  0  2  0  0  3  0  0  0  0  0  0
  179.8640  177.4790  136.9180 C   0  0  2  0  0  3  0  0  0  0  0  0
  179.0930  178.4750  136.0360 C   0  0  2  0  0  0  0  0  0  0  0  0
  178.9780  176.2840  137.2200 C   0  0  0  0  0  2  0  0  0  0  0  0
  179.2490  179.0970  138.8420 C   0  0  1  0  0  3  0  0  0  0  0  0
  179.9330  177.7950  138.4150 C   0  0  1  0  0  3  0  0  0  0  0  0
  180.0940  179.4970  135.5310 C   0  0  1  0  0  3  0  0  0  0  0  0
  179.0520  181.5600  138.3320 C   0  0  0  0  0  1  0  0  0  0  0  0
  179.0420  176.6010  138.7050 C   0  0  0  0  0  2  0  0  0  0  0  0
  179.5680  178.4220  134.5990 C   0  0  0  0  0  2  0  0  0  0  0  0
  184.8840  179.0490  142.9090 C   0  0  1  0  0  3  0  0  0  0  0  0
  187.3540  178.2510  142.0910 S   0  0  0  0  0  0  0  0  0  0  0  0
  185.5040  178.3080  144.0750 C   0  0  0  0  0  2  0  0  0  0  0  0
  186.0400  179.5070  142.0390 C   0  0  0  0  0  2  0  0  0  0  0  0
  186.6180  177.4300  143.5330 C   0  0  2  0  0  3  0  0  0  0  0  0
  190.6170  176.2160  142.6340 C   0  0  0  0  0  2  0  0  0  0  0  0
  191.9260  176.4880  146.2900 C   0  0  0  0  0  2  0  0  0  0  0  0
  189.7450  176.3990  145.4170 C   0  0  1  0  0  3  0  0  0  0  0  0
  189.2340  178.3170  146.7590 O   0  0  0  0  0  1  0  0  0  0  0  0
  187.6320  177.2270  144.5420 N   0  0  0  0  0  0  0  0  0  0  0  0
  189.1200  176.0490  142.9700 C   0  0  0  0  0  2  0  0  0  0  0  0
  191.5430  175.8880  143.8230 C   0  0  0  0  0  2  0  0  0  0  0  0
  190.9430  176.7970  147.4320 C   0  0  0  0  0  2  0  0  0  0  0  0
  189.5530  176.9580  146.8120 C   0  0  2  0  0  3  0  0  0  0  0  0
  188.7690  176.6630  144.3090 C   0  0  0  0  0  0  0  0  0  0  0  0
  191.2640  178.1090  144.6840 O   0  0  0  0  0  1  0  0  0  0  0  0
  191.1520  176.7530  145.0170 C   0  0  2  0  0  0  0  0  0  0  0  0
  1  3  1  0  0  0  0
  2  6  1  0  0  0  0
  2  1  1  0  0  0  0
  4  1  2  0  0  0  0
  5  6  1  6  0  0  0
  5  3  1  0  0  0  0
  5 19  1  0  0  0  0
  7  4  2  0  0  0  0
  8 16  1  1  0  0  0
  8 13  1  0  0  0  0
  9  8  1  0  0  0  0
 10 12  1  0  0  0  0
 10 14  1  0  0  0  0
 11  9  1  0  0  0  0
 11 10  1  0  0  0  0
 12 17  1  0  0  0  0
 13  7  1  0  0  0  0
 14 17  1  0  0  0  0
 14 13  1  0  0  0  0
 15 11  1  0  0  0  0
 15  9  1  0  0  0  0
 18 15  1  0  0  0  0
 18 11  1  0  0  0  0
 19 21  1  0  0  0  0
 20 23  1  0  0  0  0
 22 20  1  0  0  0  0
 22 19  1  0  0  0  0
 23 21  1  0  0  0  0
 23 28  1  0  0  0  0
 24 29  1  0  0  0  0
 24 30  1  0  0  0  0
 25 31  1  0  0  0  0
 26 32  1  0  0  0  0
 27 32  1  0  0  0  0
 29 33  1  0  0  0  0
 30 35  1  0  0  0  0
 32 31  1  0  0  0  0
 33 28  2  0  0  0  0
 33 26  1  0  0  0  0
 34 35  1  0  0  0  0
 35 26  1  0  0  0  0
 35 25  1  0  0  0  0
M  END
>  <MODEL>
9

>  <REMARK>
 VINA RESULT:      -7.4      6.576      9.942
  Name = 
  3 active torsions:
  status: ('A' for Active; 'I' for Inactive)
    1  A    between atoms: C_4  and  C_22
    2  A    between atoms: N_9  and  C_29
    3  A    between atoms: C_16  and  C_35
                            x       y       z     vdW  Elec       q    Type
                         _______ _______ _______ _____ _____    ______ ____

>  <TORSDO>
F 3

$$$$
