=
 OpenBabel10222417083D

 25 27  0  0  1  0  0  0  0  0999 V2000
  188.5360  177.8300  141.2960 C   0  0  0  0  0  0  0  0  0  0  0  0
  186.7530  178.0950  142.5260 C   0  0  0  0  0  0  0  0  0  0  0  0
  185.0920  179.6750  139.7380 O   0  0  0  0  0  0  0  0  0  0  0  0
  189.9170  177.8300  139.3800 N   0  0  0  0  0  0  0  0  0  0  0  0
  188.0840  177.6680  142.5910 C   0  0  0  0  0  3  0  0  0  0  0  0
  185.1370  178.9890  140.7950 C   0  0  0  0  0  0  0  0  0  0  0  0
  190.7320  177.1180  141.3860 O   0  0  0  0  0  0  0  0  0  0  0  0
  187.6660  178.5700  139.2120 N   0  0  0  0  0  2  0  0  0  0  0  0
  186.4040  178.4890  141.2680 N   0  0  0  0  0  0  0  0  0  0  0  0
  188.8790  178.3210  138.6340 C   0  0  0  0  0  3  0  0  0  0  0  0
  187.5200  178.3230  140.5380 C   0  0  0  0  0  0  0  0  0  0  0  0
  189.7710  177.5750  140.7120 C   0  0  0  0  0  0  0  0  0  0  0  0
  183.8600  178.7130  141.5480 C   0  0  1  0  0  3  0  0  0  0  0  0
  182.7020  179.2680  140.8240 N   0  0  0  0  0  2  0  0  0  0  0  0
  182.8970  177.8110  140.8710 C   0  0  1  0  0  3  0  0  0  0  0  0
  183.3010  177.3070  139.4850 C   0  0  1  0  0  3  0  0  0  0  0  0
  182.9320  175.9090  139.3520 N   0  0  0  0  0  1  0  0  0  0  0  0
  182.6500  178.0550  138.5020 O   0  0  0  0  0  0  0  0  0  0  0  0
  183.1620  177.5800  137.2950 C   0  0  0  0  0  1  0  0  0  0  0  0
  185.8490  178.1190  143.7130 C   0  0  0  0  0  2  0  0  0  0  0  0
  186.4230  177.2560  144.8170 C   0  0  0  0  0  2  0  0  0  0  0  0
  186.7170  178.1170  146.0370 C   0  0  0  0  0  2  0  0  0  0  0  0
  187.8230  177.5330  146.9110 C   0  0  0  0  0  3  0  0  0  0  0  0
  189.1620  177.5360  146.1940 C   0  0  0  0  0  1  0  0  0  0  0  0
  187.9330  178.2630  148.2380 C   0  0  0  0  0  1  0  0  0  0  0  0
  1  5  1  0  0  0  0
  2  5  2  0  0  0  0
  2 20  1  0  0  0  0
  3  6  2  0  0  0  0
  4 12  1  0  0  0  0
  6  9  1  0  0  0  0
  8 11  1  0  0  0  0
  9  2  1  0  0  0  0
 10  8  1  0  0  0  0
 10  4  2  0  0  0  0
 11  9  1  0  0  0  0
 11  1  2  0  0  0  0
 12  1  1  0  0  0  0
 12  7  2  0  0  0  0
 13  6  1  6  0  0  0
 14 15  1  0  0  0  0
 14 13  1  0  0  0  0
 15 16  1  6  0  0  0
 15 13  1  0  0  0  0
 16 17  1  1  0  0  0
 18 16  1  0  0  0  0
 19 18  1  0  0  0  0
 20 21  1  0  0  0  0
 21 22  1  0  0  0  0
 22 23  1  0  0  0  0
 23 25  1  0  0  0  0
 24 23  1  0  0  0  0
M  END
>  <MODEL>
1

>  <REMARK>
 VINA RESULT:      -7.2      0.000      0.000
  Name = 
  7 active torsions:
  status: ('A' for Active; 'I' for Inactive)
    1  A    between atoms: C_2  and  C_3
    2  A    between atoms: C_2  and  C_5
    3  A    between atoms: C_3  and  C_20
    4  A    between atoms: C_4  and  C_20
    5  A    between atoms: C_7  and  C_13
    6  A    between atoms: O_10  and  C_16
    7  A    between atoms: C_16  and  C_22
                            x       y       z     vdW  Elec       q    Type
                         _______ _______ _______ _____ _____    ______ ____

>  <TORSDO>
F 7

$$$$
=
 OpenBabel10222417083D

 25 27  0  0  1  0  0  0  0  0999 V2000
  189.1050  177.2460  141.2630 C   0  0  0  0  0  0  0  0  0  0  0  0
  187.6710  177.3020  142.9060 C   0  0  0  0  0  0  0  0  0  0  0  0
  185.7350  179.7580  141.1040 O   0  0  0  0  0  0  0  0  0  0  0  0
  190.0510  177.6740  139.1410 N   0  0  0  0  0  2  0  0  0  0  0  0
  188.9070  176.7590  142.5400 C   0  0  0  0  0  3  0  0  0  0  0  0
  185.8910  178.7960  141.9040 C   0  0  0  0  0  0  0  0  0  0  0  0
  191.1390  176.3470  140.6400 O   0  0  0  0  0  0  0  0  0  0  0  0
  187.9510  178.6270  139.7110 N   0  0  0  0  0  0  0  0  0  0  0  0
  187.1370  178.0710  141.9150 N   0  0  0  0  0  0  0  0  0  0  0  0
  188.9690  178.4490  138.8170 C   0  0  0  0  0  3  0  0  0  0  0  0
  188.0420  178.0230  140.9230 C   0  0  0  0  0  0  0  0  0  0  0  0
  190.1420  177.0610  140.3560 C   0  0  0  0  0  0  0  0  0  0  0  0
  184.7670  178.4290  142.8400 C   0  0  1  0  0  3  0  0  0  0  0  0
  183.6810  179.4230  142.7600 N   0  0  0  0  0  2  0  0  0  0  0  0
  183.4790  178.0810  142.1930 C   0  0  1  0  0  3  0  0  0  0  0  0
  183.4410  178.1730  140.6680 C   0  0  1  0  0  3  0  0  0  0  0  0
  183.0570  176.8870  140.1140 N   0  0  0  0  0  1  0  0  0  0  0  0
  182.5150  179.1420  140.2760 O   0  0  0  0  0  0  0  0  0  0  0  0
  182.9450  179.5580  139.0160 C   0  0  0  0  0  1  0  0  0  0  0  0
  187.0420  177.0650  144.2390 C   0  0  0  0  0  2  0  0  0  0  0  0
  187.8150  177.8030  145.3130 C   0  0  0  0  0  2  0  0  0  0  0  0
  187.2160  177.4890  146.6770 C   0  0  0  0  0  2  0  0  0  0  0  0
  188.2790  177.1310  147.7120 C   0  0  0  0  0  3  0  0  0  0  0  0
  189.6320  176.8940  147.0650 C   0  0  0  0  0  1  0  0  0  0  0  0
  188.3880  178.1930  148.7920 C   0  0  0  0  0  1  0  0  0  0  0  0
  1  5  1  0  0  0  0
  2 20  1  0  0  0  0
  3  6  2  0  0  0  0
  4 12  1  0  0  0  0
  5  2  2  0  0  0  0
  6  9  1  0  0  0  0
  8 11  1  0  0  0  0
  9  2  1  0  0  0  0
 10  4  1  0  0  0  0
 10  8  2  0  0  0  0
 11  1  2  0  0  0  0
 11  9  1  0  0  0  0
 12  7  2  0  0  0  0
 12  1  1  0  0  0  0
 13  6  1  6  0  0  0
 14 13  1  0  0  0  0
 15 16  1  6  0  0  0
 15 14  1  0  0  0  0
 15 13  1  0  0  0  0
 16 17  1  6  0  0  0
 18 16  1  0  0  0  0
 19 18  1  0  0  0  0
 20 21  1  0  0  0  0
 21 22  1  0  0  0  0
 22 23  1  0  0  0  0
 23 25  1  0  0  0  0
 24 23  1  0  0  0  0
M  END
>  <MODEL>
2

>  <REMARK>
 VINA RESULT:      -7.0      1.231      1.351
  Name = 
  7 active torsions:
  status: ('A' for Active; 'I' for Inactive)
    1  A    between atoms: C_2  and  C_3
    2  A    between atoms: C_2  and  C_5
    3  A    between atoms: C_3  and  C_20
    4  A    between atoms: C_4  and  C_20
    5  A    between atoms: C_7  and  C_13
    6  A    between atoms: O_10  and  C_16
    7  A    between atoms: C_16  and  C_22
                            x       y       z     vdW  Elec       q    Type
                         _______ _______ _______ _____ _____    ______ ____

>  <TORSDO>
F 7

$$$$
=
 OpenBabel10222417083D

 25 27  0  0  1  0  0  0  0  0999 V2000
  185.7780  178.2540  144.8450 C   0  0  0  0  0  0  0  0  0  0  0  0
  187.6510  177.6550  143.8990 C   0  0  0  0  0  0  0  0  0  0  0  0
  186.3100  178.6090  140.6870 O   0  0  0  0  0  0  0  0  0  0  0  0
  183.6160  179.1790  145.0740 N   0  0  0  0  0  0  0  0  0  0  0  0
  186.9850  177.6460  145.1300 C   0  0  0  0  0  3  0  0  0  0  0  0
  187.2330  178.4360  141.5290 C   0  0  0  0  0  0  0  0  0  0  0  0
  184.6700  178.2580  146.8720 O   0  0  0  0  0  0  0  0  0  0  0  0
  184.6980  179.2170  142.9590 N   0  0  0  0  0  2  0  0  0  0  0  0
  186.9040  178.2360  142.9190 N   0  0  0  0  0  0  0  0  0  0  0  0
  183.6190  179.5110  143.7450 C   0  0  0  0  0  3  0  0  0  0  0  0
  185.7580  178.5870  143.5260 C   0  0  0  0  0  0  0  0  0  0  0  0
  184.6830  178.5520  145.6480 C   0  0  0  0  0  0  0  0  0  0  0  0
  188.6660  178.4340  141.0590 C   0  0  1  0  0  3  0  0  0  0  0  0
  189.0320  177.1120  140.5200 N   0  0  0  0  0  2  0  0  0  0  0  0
  188.8640  178.2470  139.6010 C   0  0  1  0  0  3  0  0  0  0  0  0
  187.6000  178.0440  138.7670 C   0  0  1  0  0  3  0  0  0  0  0  0
  187.6000  178.9750  137.6520 N   0  0  0  0  0  1  0  0  0  0  0  0
  187.5610  176.7360  138.2800 O   0  0  0  0  0  0  0  0  0  0  0  0
  186.6980  176.7890  137.1850 C   0  0  0  0  0  1  0  0  0  0  0  0
  189.0120  177.0730  143.7090 C   0  0  0  0  0  2  0  0  0  0  0  0
  190.0120  177.8000  144.5850 C   0  0  0  0  0  2  0  0  0  0  0  0
  191.0670  176.8190  145.0750 C   0  0  0  0  0  2  0  0  0  0  0  0
  191.2400  176.8590  146.5920 C   0  0  0  0  0  3  0  0  0  0  0  0
  189.9020  176.8290  147.3080 C   0  0  0  0  0  1  0  0  0  0  0  0
  192.1290  175.7300  147.0830 C   0  0  0  0  0  1  0  0  0  0  0  0
  1  5  1  0  0  0  0
  1 12  1  0  0  0  0
  2  5  2  0  0  0  0
  3  6  2  0  0  0  0
  4 12  1  0  0  0  0
  6  9  1  0  0  0  0
  8 11  1  0  0  0  0
  8 10  1  0  0  0  0
  9 11  1  0  0  0  0
  9  2  1  0  0  0  0
 10  4  2  0  0  0  0
 11  1  2  0  0  0  0
 12  7  2  0  0  0  0
 13  6  1  6  0  0  0
 14 13  1  0  0  0  0
 15 16  1  6  0  0  0
 15 14  1  0  0  0  0
 15 13  1  0  0  0  0
 16 17  1  6  0  0  0
 18 16  1  0  0  0  0
 19 18  1  0  0  0  0
 20  2  1  0  0  0  0
 20 21  1  0  0  0  0
 21 22  1  0  0  0  0
 22 23  1  0  0  0  0
 23 25  1  0  0  0  0
 23 24  1  0  0  0  0
M  END
>  <MODEL>
3

>  <REMARK>
 VINA RESULT:      -7.0      2.574      4.942
  Name = 
  7 active torsions:
  status: ('A' for Active; 'I' for Inactive)
    1  A    between atoms: C_2  and  C_3
    2  A    between atoms: C_2  and  C_5
    3  A    between atoms: C_3  and  C_20
    4  A    between atoms: C_4  and  C_20
    5  A    between atoms: C_7  and  C_13
    6  A    between atoms: O_10  and  C_16
    7  A    between atoms: C_16  and  C_22
                            x       y       z     vdW  Elec       q    Type
                         _______ _______ _______ _____ _____    ______ ____

>  <TORSDO>
F 7

$$$$
=
 OpenBabel10222417083D

 25 27  0  0  1  0  0  0  0  0999 V2000
  188.9690  177.8910  139.2920 C   0  0  0  0  0  0  0  0  0  0  0  0
  187.7830  178.3360  141.0680 C   0  0  0  0  0  0  0  0  0  0  0  0
  189.5800  175.7840  142.8810 O   0  0  0  0  0  0  0  0  0  0  0  0
  190.6550  176.9280  137.9460 N   0  0  0  0  0  2  0  0  0  0  0  0
  187.8950  178.6520  139.7100 C   0  0  0  0  0  3  0  0  0  0  0  0
  188.9480  176.8700  142.7700 C   0  0  0  0  0  0  0  0  0  0  0  0
  189.1750  178.4120  137.0510 O   0  0  0  0  0  0  0  0  0  0  0  0
  190.5080  176.3500  140.2450 N   0  0  0  0  0  0  0  0  0  0  0  0
  188.7310  177.4410  141.4650 N   0  0  0  0  0  0  0  0  0  0  0  0
  191.1150  176.2260  139.0280 C   0  0  0  0  0  3  0  0  0  0  0  0
  189.4390  177.1800  140.3520 C   0  0  0  0  0  0  0  0  0  0  0  0
  189.5850  177.7680  138.0520 C   0  0  0  0  0  0  0  0  0  0  0  0
  188.4230  177.5440  144.0130 C   0  0  1  0  0  3  0  0  0  0  0  0
  188.8400  176.8060  145.2190 N   0  0  0  0  0  2  0  0  0  0  0  0
  189.4500  178.1100  144.9200 C   0  0  1  0  0  3  0  0  0  0  0  0
  190.9070  177.9080  144.5030 C   0  0  1  0  0  3  0  0  0  0  0  0
  191.4240  179.1400  143.9350 N   0  0  0  0  0  1  0  0  0  0  0  0
  191.6720  177.5530  145.6160 O   0  0  0  0  0  0  0  0  0  0  0  0
  191.8790  176.1800  145.4830 C   0  0  0  0  0  1  0  0  0  0  0  0
  186.7280  178.9130  141.9520 C   0  0  0  0  0  2  0  0  0  0  0  0
  185.3720  178.7920  141.2860 C   0  0  0  0  0  2  0  0  0  0  0  0
  184.3990  178.1070  142.2340 C   0  0  0  0  0  2  0  0  0  0  0  0
  183.8840  179.0480  143.3200 C   0  0  0  0  0  3  0  0  0  0  0  0
  182.3700  179.0030  143.4270 C   0  0  0  0  0  1  0  0  0  0  0  0
  184.5180  178.7480  144.6670 C   0  0  0  0  0  1  0  0  0  0  0  0
  1  5  1  0  0  0  0
  1 11  2  0  0  0  0
  2  9  1  0  0  0  0
  2 20  1  0  0  0  0
  4 12  1  0  0  0  0
  4 10  1  0  0  0  0
  5  2  2  0  0  0  0
  6  3  2  0  0  0  0
  7 12  2  0  0  0  0
  8 11  1  0  0  0  0
  9  6  1  0  0  0  0
 10  8  2  0  0  0  0
 11  9  1  0  0  0  0
 12  1  1  0  0  0  0
 13  6  1  6  0  0  0
 13 15  1  0  0  0  0
 13 14  1  0  0  0  0
 15 16  1  6  0  0  0
 15 14  1  0  0  0  0
 16 17  1  1  0  0  0
 16 18  1  0  0  0  0
 19 18  1  0  0  0  0
 21 20  1  0  0  0  0
 21 22  1  0  0  0  0
 22 23  1  0  0  0  0
 23 24  1  0  0  0  0
 23 25  1  0  0  0  0
M  END
>  <MODEL>
4

>  <REMARK>
 VINA RESULT:      -6.8      3.180      6.066
  Name = 
  7 active torsions:
  status: ('A' for Active; 'I' for Inactive)
    1  A    between atoms: C_2  and  C_3
    2  A    between atoms: C_2  and  C_5
    3  A    between atoms: C_3  and  C_20
    4  A    between atoms: C_4  and  C_20
    5  A    between atoms: C_7  and  C_13
    6  A    between atoms: O_10  and  C_16
    7  A    between atoms: C_16  and  C_22
                            x       y       z     vdW  Elec       q    Type
                         _______ _______ _______ _____ _____    ______ ____

>  <TORSDO>
F 7

$$$$
=
 OpenBabel10222417083D

 25 27  0  0  1  0  0  0  0  0999 V2000
  189.1020  177.2070  144.6090 C   0  0  0  0  0  0  0  0  0  0  0  0
  187.8850  177.8050  142.9000 C   0  0  0  0  0  0  0  0  0  0  0  0
  190.8490  177.8770  140.8410 O   0  0  0  0  0  0  0  0  0  0  0  0
  190.9980  176.5150  145.8360 N   0  0  0  0  0  0  0  0  0  0  0  0
  187.8120  177.5740  144.2780 C   0  0  0  0  0  3  0  0  0  0  0  0
  189.6160  177.7180  141.0570 C   0  0  0  0  0  0  0  0  0  0  0  0
  188.9950  176.8100  146.8820 O   0  0  0  0  0  0  0  0  0  0  0  0
  191.1800  176.8980  143.4980 N   0  0  0  0  0  2  0  0  0  0  0  0
  189.1380  177.5890  142.4100 N   0  0  0  0  0  0  0  0  0  0  0  0
  191.7470  176.5400  144.6890 C   0  0  0  0  0  3  0  0  0  0  0  0
  189.8640  177.2300  143.4830 C   0  0  0  0  0  0  0  0  0  0  0  0
  189.6740  176.8420  145.8220 C   0  0  0  0  0  0  0  0  0  0  0  0
  188.6660  177.6720  139.8870 C   0  0  1  0  0  3  0  0  0  0  0  0
  189.2180  178.4180  138.7410 N   0  0  0  0  0  2  0  0  0  0  0  0
  189.1550  176.9500  138.6880 C   0  0  1  0  0  3  0  0  0  0  0  0
  190.5690  176.3750  138.7750 C   0  0  1  0  0  3  0  0  0  0  0  0
  190.5560  174.9880  138.3440 N   0  0  0  0  0  1  0  0  0  0  0  0
  191.4270  177.1080  137.9530 O   0  0  0  0  0  0  0  0  0  0  0  0
  192.6510  176.4430  138.0330 C   0  0  0  0  0  1  0  0  0  0  0  0
  186.7140  178.2520  142.0890 C   0  0  0  0  0  2  0  0  0  0  0  0
  185.4350  178.0620  142.8790 C   0  0  0  0  0  2  0  0  0  0  0  0
  184.7800  179.4150  143.1200 C   0  0  0  0  0  2  0  0  0  0  0  0
  183.8660  179.4100  144.3430 C   0  0  0  0  0  3  0  0  0  0  0  0
  182.4870  178.8710  144.0080 C   0  0  0  0  0  1  0  0  0  0  0  0
  184.4750  178.6280  145.4930 C   0  0  0  0  0  1  0  0  0  0  0  0
  1 12  1  0  0  0  0
  2  5  2  0  0  0  0
  3  6  2  0  0  0  0
  5  1  1  0  0  0  0
  6  9  1  0  0  0  0
  8 10  1  0  0  0  0
  9  2  1  0  0  0  0
  9 11  1  0  0  0  0
 10  4  2  0  0  0  0
 11  8  1  0  0  0  0
 11  1  2  0  0  0  0
 12  4  1  0  0  0  0
 12  7  2  0  0  0  0
 13  6  1  1  0  0  0
 14 13  1  0  0  0  0
 15 14  1  0  0  0  0
 15 16  1  1  0  0  0
 15 13  1  0  0  0  0
 16 17  1  6  0  0  0
 18 19  1  0  0  0  0
 18 16  1  0  0  0  0
 20 21  1  0  0  0  0
 20  2  1  0  0  0  0
 21 22  1  0  0  0  0
 22 23  1  0  0  0  0
 23 25  1  0  0  0  0
 24 23  1  0  0  0  0
M  END
>  <MODEL>
5

>  <REMARK>
 VINA RESULT:      -6.7      3.577      5.689
  Name = 
  7 active torsions:
  status: ('A' for Active; 'I' for Inactive)
    1  A    between atoms: C_2  and  C_3
    2  A    between atoms: C_2  and  C_5
    3  A    between atoms: C_3  and  C_20
    4  A    between atoms: C_4  and  C_20
    5  A    between atoms: C_7  and  C_13
    6  A    between atoms: O_10  and  C_16
    7  A    between atoms: C_16  and  C_22
                            x       y       z     vdW  Elec       q    Type
                         _______ _______ _______ _____ _____    ______ ____

>  <TORSDO>
F 7

$$$$
=
 OpenBabel10222417083D

 25 27  0  0  1  0  0  0  0  0999 V2000
  189.1460  177.5670  143.0330 C   0  0  0  0  0  0  0  0  0  0  0  0
  187.3780  178.1610  141.9000 C   0  0  0  0  0  0  0  0  0  0  0  0
  189.4300  178.5760  138.9590 O   0  0  0  0  0  0  0  0  0  0  0  0
  191.3860  176.9600  143.4740 N   0  0  0  0  0  0  0  0  0  0  0  0
  187.8040  177.8500  143.1960 C   0  0  0  0  0  3  0  0  0  0  0  0
  188.3610  178.3090  139.5720 C   0  0  0  0  0  0  0  0  0  0  0  0
  189.8610  177.0400  145.1650 O   0  0  0  0  0  0  0  0  0  0  0  0
  190.7200  177.4830  141.2540 N   0  0  0  0  0  2  0  0  0  0  0  0
  188.3920  178.0700  140.9930 N   0  0  0  0  0  0  0  0  0  0  0  0
  191.6850  177.1060  142.1460 C   0  0  0  0  0  3  0  0  0  0  0  0
  189.4650  177.7120  141.7190 C   0  0  0  0  0  0  0  0  0  0  0  0
  190.1240  177.1830  143.9430 C   0  0  0  0  0  0  0  0  0  0  0  0
  187.0660  178.2540  138.8010 C   0  0  1  0  0  3  0  0  0  0  0  0
  187.2650  178.7260  137.4190 N   0  0  0  0  0  2  0  0  0  0  0  0
  187.0310  177.2960  137.6700 C   0  0  1  0  0  3  0  0  0  0  0  0
  188.3190  176.5150  137.4050 C   0  0  1  0  0  3  0  0  0  0  0  0
  188.0080  175.1040  137.2560 N   0  0  0  0  0  1  0  0  0  0  0  0
  188.9230  176.9840  136.2360 O   0  0  0  0  0  0  0  0  0  0  0  0
  190.1970  176.4160  136.2420 C   0  0  0  0  0  1  0  0  0  0  0  0
  185.9760  178.5580  141.5790 C   0  0  0  0  0  2  0  0  0  0  0  0
  185.0740  178.2690  142.7620 C   0  0  0  0  0  2  0  0  0  0  0  0
  184.6590  179.5790  143.4160 C   0  0  0  0  0  2  0  0  0  0  0  0
  183.8090  179.3620  144.6660 C   0  0  0  0  0  3  0  0  0  0  0  0
  182.5190  178.6280  144.3440 C   0  0  0  0  0  1  0  0  0  0  0  0
  184.5810  178.6280  145.7470 C   0  0  0  0  0  1  0  0  0  0  0  0
  1  5  1  0  0  0  0
  1 12  1  0  0  0  0
  2  5  2  0  0  0  0
  3  6  2  0  0  0  0
  4 12  1  0  0  0  0
  6  9  1  0  0  0  0
  8 11  1  0  0  0  0
  8 10  1  0  0  0  0
  9 11  1  0  0  0  0
  9  2  1  0  0  0  0
 10  4  2  0  0  0  0
 11  1  2  0  0  0  0
 12  7  2  0  0  0  0
 13  6  1  1  0  0  0
 14 15  1  0  0  0  0
 14 13  1  0  0  0  0
 15 16  1  1  0  0  0
 15 13  1  0  0  0  0
 16 17  1  6  0  0  0
 18 19  1  0  0  0  0
 18 16  1  0  0  0  0
 20  2  1  0  0  0  0
 20 21  1  0  0  0  0
 21 22  1  0  0  0  0
 22 23  1  0  0  0  0
 23 25  1  0  0  0  0
 24 23  1  0  0  0  0
M  END
>  <MODEL>
6

>  <REMARK>
 VINA RESULT:      -6.6      3.142      4.391
  Name = 
  7 active torsions:
  status: ('A' for Active; 'I' for Inactive)
    1  A    between atoms: C_2  and  C_3
    2  A    between atoms: C_2  and  C_5
    3  A    between atoms: C_3  and  C_20
    4  A    between atoms: C_4  and  C_20
    5  A    between atoms: C_7  and  C_13
    6  A    between atoms: O_10  and  C_16
    7  A    between atoms: C_16  and  C_22
                            x       y       z     vdW  Elec       q    Type
                         _______ _______ _______ _____ _____    ______ ____

>  <TORSDO>
F 7

$$$$
=
 OpenBabel10222417083D

 25 27  0  0  1  0  0  0  0  0999 V2000
  186.0070  178.2660  145.0400 C   0  0  0  0  0  0  0  0  0  0  0  0
  188.1470  177.8440  145.0740 C   0  0  0  0  0  0  0  0  0  0  0  0
  188.0360  177.1030  141.5430 O   0  0  0  0  0  0  0  0  0  0  0  0
  183.8400  178.6270  144.1690 N   0  0  0  0  0  0  0  0  0  0  0  0
  187.0690  178.1450  145.9140 C   0  0  0  0  0  3  0  0  0  0  0  0
  188.5840  177.5100  142.6040 C   0  0  0  0  0  0  0  0  0  0  0  0
  184.2190  178.7750  146.4120 O   0  0  0  0  0  0  0  0  0  0  0  0
  185.6330  178.1140  142.6970 N   0  0  0  0  0  2  0  0  0  0  0  0
  187.7750  177.7890  143.7640 N   0  0  0  0  0  0  0  0  0  0  0  0
  184.3140  178.4050  142.9040 C   0  0  0  0  0  3  0  0  0  0  0  0
  186.4560  178.0450  143.7750 C   0  0  0  0  0  0  0  0  0  0  0  0
  184.6660  178.5640  145.2540 C   0  0  0  0  0  0  0  0  0  0  0  0
  190.0810  177.6890  142.6360 C   0  0  1  0  0  3  0  0  0  0  0  0
  190.7620  176.4110  142.3650 N   0  0  0  0  0  2  0  0  0  0  0  0
  190.7830  177.4720  141.3480 C   0  0  1  0  0  3  0  0  0  0  0  0
  189.9090  177.0600  140.1630 C   0  0  1  0  0  3  0  0  0  0  0  0
  189.8300  178.1570  139.2150 N   0  0  0  0  0  1  0  0  0  0  0  0
  190.4630  175.9430  139.5350 O   0  0  0  0  0  0  0  0  0  0  0  0
  190.1060  176.0750  138.1930 C   0  0  0  0  0  1  0  0  0  0  0  0
  189.5290  177.6000  145.5830 C   0  0  0  0  0  2  0  0  0  0  0  0
  189.4690  176.9080  146.9300 C   0  0  0  0  0  2  0  0  0  0  0  0
  190.8190  177.0250  147.6220 C   0  0  0  0  0  2  0  0  0  0  0  0
  191.6690  175.7680  147.4580 C   0  0  0  0  0  3  0  0  0  0  0  0
  192.1470  175.5990  146.0270 C   0  0  0  0  0  1  0  0  0  0  0  0
  192.8490  175.7620  148.4140 C   0  0  0  0  0  1  0  0  0  0  0  0
  1 12  1  0  0  0  0
  1  5  1  0  0  0  0
  2 20  1  0  0  0  0
  2  5  2  0  0  0  0
  3  6  2  0  0  0  0
  4 12  1  0  0  0  0
  6  9  1  0  0  0  0
  8 10  1  0  0  0  0
  8 11  1  0  0  0  0
  9 11  1  0  0  0  0
  9  2  1  0  0  0  0
 10  4  2  0  0  0  0
 11  1  2  0  0  0  0
 12  7  2  0  0  0  0
 13  6  1  6  0  0  0
 14 13  1  0  0  0  0
 15 16  1  6  0  0  0
 15 14  1  0  0  0  0
 15 13  1  0  0  0  0
 16 17  1  6  0  0  0
 18 16  1  0  0  0  0
 19 18  1  0  0  0  0
 20 21  1  0  0  0  0
 21 22  1  0  0  0  0
 23 22  1  0  0  0  0
 23 25  1  0  0  0  0
 24 23  1  0  0  0  0
M  END
>  <MODEL>
7

>  <REMARK>
 VINA RESULT:      -6.5      2.783      5.791
  Name = 
  7 active torsions:
  status: ('A' for Active; 'I' for Inactive)
    1  A    between atoms: C_2  and  C_3
    2  A    between atoms: C_2  and  C_5
    3  A    between atoms: C_3  and  C_20
    4  A    between atoms: C_4  and  C_20
    5  A    between atoms: C_7  and  C_13
    6  A    between atoms: O_10  and  C_16
    7  A    between atoms: C_16  and  C_22
                            x       y       z     vdW  Elec       q    Type
                         _______ _______ _______ _____ _____    ______ ____

>  <TORSDO>
F 7

$$$$
=
 OpenBabel10222417083D

 25 27  0  0  1  0  0  0  0  0999 V2000
  186.7380  177.7290  144.0470 C   0  0  0  0  0  0  0  0  0  0  0  0
  188.3100  177.1040  142.6690 C   0  0  0  0  0  0  0  0  0  0  0  0
  186.4970  178.6280  139.9450 O   0  0  0  0  0  0  0  0  0  0  0  0
  184.7860  178.8050  144.8300 N   0  0  0  0  0  0  0  0  0  0  0  0
  187.8970  176.9790  144.0000 C   0  0  0  0  0  3  0  0  0  0  0  0
  187.5380  178.2520  140.5500 C   0  0  0  0  0  0  0  0  0  0  0  0
  186.0500  177.5420  146.2440 O   0  0  0  0  0  0  0  0  0  0  0  0
  185.4370  179.0470  142.5580 N   0  0  0  0  0  2  0  0  0  0  0  0
  187.4620  177.8860  141.9420 N   0  0  0  0  0  0  0  0  0  0  0  0
  184.5720  179.3220  143.5800 C   0  0  0  0  0  3  0  0  0  0  0  0
  186.5040  178.2490  142.8120 C   0  0  0  0  0  0  0  0  0  0  0  0
  185.8620  178.0070  145.0900 C   0  0  0  0  0  0  0  0  0  0  0  0
  188.8430  178.1880  139.7970 C   0  0  1  0  0  3  0  0  0  0  0  0
  188.9440  176.9250  139.0440 N   0  0  0  0  0  2  0  0  0  0  0  0
  188.7330  178.1860  138.3180 C   0  0  1  0  0  3  0  0  0  0  0  0
  187.3160  178.2130  137.7450 C   0  0  1  0  0  3  0  0  0  0  0  0
  187.2270  179.2400  136.7210 N   0  0  0  0  0  1  0  0  0  0  0  0
  187.0100  176.9720  137.1850 O   0  0  0  0  0  0  0  0  0  0  0  0
  185.9740  177.2310  136.2880 C   0  0  0  0  0  1  0  0  0  0  0  0
  189.5300  176.4340  142.1310 C   0  0  0  0  0  2  0  0  0  0  0  0
  190.4160  175.9810  143.2730 C   0  0  0  0  0  2  0  0  0  0  0  0
  191.6680  176.8450  143.3190 C   0  0  0  0  0  2  0  0  0  0  0  0
  191.6770  177.7970  144.5130 C   0  0  0  0  0  3  0  0  0  0  0  0
  190.9430  179.0890  144.2010 C   0  0  0  0  0  1  0  0  0  0  0  0
  191.0940  177.1430  145.7530 C   0  0  0  0  0  1  0  0  0  0  0  0
  1 12  1  0  0  0  0
  2  5  2  0  0  0  0
  3  6  2  0  0  0  0
  4 12  1  0  0  0  0
  5  1  1  0  0  0  0
  6  9  1  0  0  0  0
  8 11  1  0  0  0  0
  8 10  1  0  0  0  0
  9  2  1  0  0  0  0
  9 11  1  0  0  0  0
 10  4  2  0  0  0  0
 11  1  2  0  0  0  0
 12  7  2  0  0  0  0
 13  6  1  1  0  0  0
 14 13  1  0  0  0  0
 15 16  1  1  0  0  0
 15 14  1  0  0  0  0
 15 13  1  0  0  0  0
 16 17  1  6  0  0  0
 18 16  1  0  0  0  0
 19 18  1  0  0  0  0
 20  2  1  0  0  0  0
 20 21  1  0  0  0  0
 21 22  1  0  0  0  0
 22 23  1  0  0  0  0
 23 25  1  0  0  0  0
 24 23  1  0  0  0  0
M  END
>  <MODEL>
8

>  <REMARK>
 VINA RESULT:      -6.4      2.621      4.716
  Name = 
  7 active torsions:
  status: ('A' for Active; 'I' for Inactive)
    1  A    between atoms: C_2  and  C_3
    2  A    between atoms: C_2  and  C_5
    3  A    between atoms: C_3  and  C_20
    4  A    between atoms: C_4  and  C_20
    5  A    between atoms: C_7  and  C_13
    6  A    between atoms: O_10  and  C_16
    7  A    between atoms: C_16  and  C_22
                            x       y       z     vdW  Elec       q    Type
                         _______ _______ _______ _____ _____    ______ ____

>  <TORSDO>
F 7

$$$$
=
 OpenBabel10222417083D

 25 27  0  0  1  0  0  0  0  0999 V2000
  188.8930  177.9140  139.4540 C   0  0  0  0  0  0  0  0  0  0  0  0
  187.6960  178.2490  141.2480 C   0  0  0  0  0  0  0  0  0  0  0  0
  189.5960  175.7060  142.9650 O   0  0  0  0  0  0  0  0  0  0  0  0
  190.6100  177.0650  138.0710 N   0  0  0  0  0  2  0  0  0  0  0  0
  187.7920  178.6180  139.9010 C   0  0  0  0  0  3  0  0  0  0  0  0
  188.9220  176.7690  142.8940 C   0  0  0  0  0  0  0  0  0  0  0  0
  189.0710  178.5220  137.2330 O   0  0  0  0  0  0  0  0  0  0  0  0
  190.4920  176.4010  140.3490 N   0  0  0  0  0  0  0  0  0  0  0  0
  188.6800  177.3780  141.6100 N   0  0  0  0  0  0  0  0  0  0  0  0
  191.1000  176.3430  139.1270 C   0  0  0  0  0  3  0  0  0  0  0  0
  189.3930  177.1850  140.4880 C   0  0  0  0  0  0  0  0  0  0  0  0
  189.5090  177.8590  138.2100 C   0  0  0  0  0  0  0  0  0  0  0  0
  188.3760  177.3790  144.1610 C   0  0  1  0  0  3  0  0  0  0  0  0
  188.9620  176.7250  145.3450 N   0  0  0  0  0  2  0  0  0  0  0  0
  189.3600  178.0990  145.0040 C   0  0  1  0  0  3  0  0  0  0  0  0
  190.8050  178.1020  144.5050 C   0  0  1  0  0  3  0  0  0  0  0  0
  191.1340  179.4160  143.9810 N   0  0  0  0  0  1  0  0  0  0  0  0
  191.6690  177.7930  145.5580 O   0  0  0  0  0  0  0  0  0  0  0  0
  191.7260  176.4000  145.5740 C   0  0  0  0  0  1  0  0  0  0  0  0
  186.6230  178.7540  142.1530 C   0  0  0  0  0  2  0  0  0  0  0  0
  185.4370  179.2250  141.3360 C   0  0  0  0  0  2  0  0  0  0  0  0
  184.2730  178.2630  141.5300 C   0  0  0  0  0  2  0  0  0  0  0  0
  183.2010  178.4220  140.4540 C   0  0  0  0  0  3  0  0  0  0  0  0
  183.6260  179.4120  139.3840 C   0  0  0  0  0  1  0  0  0  0  0  0
  182.8370  177.0880  139.8260 C   0  0  0  0  0  1  0  0  0  0  0  0
  1  5  1  0  0  0  0
  1 11  2  0  0  0  0
  2  9  1  0  0  0  0
  2 20  1  0  0  0  0
  4 12  1  0  0  0  0
  4 10  1  0  0  0  0
  5  2  2  0  0  0  0
  6  3  2  0  0  0  0
  7 12  2  0  0  0  0
  8 11  1  0  0  0  0
  9  6  1  0  0  0  0
 10  8  2  0  0  0  0
 11  9  1  0  0  0  0
 12  1  1  0  0  0  0
 13  6  1  6  0  0  0
 13 15  1  0  0  0  0
 13 14  1  0  0  0  0
 15 16  1  6  0  0  0
 15 14  1  0  0  0  0
 16 17  1  1  0  0  0
 16 18  1  0  0  0  0
 18 19  1  0  0  0  0
 21 22  1  0  0  0  0
 21 20  1  0  0  0  0
 23 22  1  0  0  0  0
 24 23  1  0  0  0  0
 25 23  1  0  0  0  0
M  END
>  <MODEL>
9

>  <REMARK>
 VINA RESULT:      -6.2      2.956      6.483
  Name = 
  7 active torsions:
  status: ('A' for Active; 'I' for Inactive)
    1  A    between atoms: C_2  and  C_3
    2  A    between atoms: C_2  and  C_5
    3  A    between atoms: C_3  and  C_20
    4  A    between atoms: C_4  and  C_20
    5  A    between atoms: C_7  and  C_13
    6  A    between atoms: O_10  and  C_16
    7  A    between atoms: C_16  and  C_22
                            x       y       z     vdW  Elec       q    Type
                         _______ _______ _______ _____ _____    ______ ____

>  <TORSDO>
F 7

$$$$
