=
 OpenBabel10222417303D

 59 64  0  0  1  0  0  0  0  0999 V2000
  184.8690  175.1740  137.3250 C   0  0  0  0  0  3  0  0  0  0  0  0
  183.5480  175.2900  137.1580 C   0  0  0  0  0  0  0  0  0  0  0  0
  183.2990  178.1430  134.5960 C   0  0  0  0  0  1  0  0  0  0  0  0
  185.8460  176.1470  136.7250 C   0  0  2  0  0  3  0  0  0  0  0  0
  185.2540  176.8270  135.5540 N   0  0  0  0  0  0  0  0  0  0  0  0
  183.8290  177.0840  135.5180 C   0  0  0  0  0  0  0  0  0  0  0  0
  182.9950  176.3530  136.2940 C   0  0  0  0  0  0  0  0  0  0  0  0
  188.3530  176.3350  136.9420 C   0  0  0  0  0  2  0  0  0  0  0  0
  187.2030  175.4780  136.4030 C   0  0  1  0  0  3  0  0  0  0  0  0
  188.6650  173.4450  136.5690 C   0  0  0  0  0  2  0  0  0  0  0  0
  187.3360  174.0640  136.9870 C   0  0  0  0  0  2  0  0  0  0  0  0
  189.8240  174.3090  137.0630 C   0  0  2  0  0  3  0  0  0  0  0  0
  189.6960  175.7400  136.5330 C   0  0  0  0  0  2  0  0  0  0  0  0
  192.3230  174.1360  137.3370 N   0  0  0  0  0  2  0  0  0  0  0  0
  191.1890  172.8100  135.7390 N   0  0  0  0  0  2  0  0  0  0  0  0
  191.1330  173.7070  136.6700 C   0  0  0  0  0  0  0  0  0  0  0  0
  195.9570  173.8310  137.6740 C   0  0  2  0  0  3  0  0  0  0  0  0
  194.5450  173.7790  138.2440 C   0  0  0  0  0  2  0  0  0  0  0  0
  194.3050  174.3500  135.9290 C   0  0  0  0  0  2  0  0  0  0  0  0
  193.6400  173.5880  137.0520 C   0  0  2  0  0  3  0  0  0  0  0  0
  195.7960  174.4050  136.2540 C   0  0  1  0  0  3  0  0  0  0  0  0
  196.5420  172.4830  137.6260 N   0  0  2  0  0  0  0  0  0  0  0  0
  197.7530  172.5310  136.7980 C   0  0  0  0  0  2  0  0  0  0  0  0
  196.1190  170.1460  137.0180 C   0  0  0  0  0  2  0  0  0  0  0  0
  197.5950  170.0640  136.7150 C   0  0  0  0  0  3  0  0  0  0  0  0
  195.6080  171.5880  136.9360 C   0  0  0  0  0  2  0  0  0  0  0  0
  198.3630  171.1600  136.6550 C   0  0  0  0  0  3  0  0  0  0  0  0
  196.2760  175.7890  136.1920 N   0  0  0  0  0  0  0  0  0  0  0  0
  197.5860  175.7910  136.5480 O   0  0  0  0  0  1  0  0  0  0  0  0
  196.2400  176.2160  134.7970 C   0  0  0  0  0  2  0  0  0  0  0  0
  196.2250  178.7030  134.6320 C   0  0  0  0  0  1  0  0  0  0  0  0
  195.3710  177.4530  134.6450 C   0  0  0  0  0  2  0  0  0  0  0  0
  181.4960  176.5450  136.3370 C   0  0  2  0  0  3  0  0  0  0  0  0
  180.7290  175.9950  135.1420 C   0  0  0  0  0  1  0  0  0  0  0  0
  181.0480  177.9280  136.8170 C   0  0  0  0  0  2  0  0  0  0  0  0
  179.6010  177.9730  137.2840 C   0  0  0  0  0  2  0  0  0  0  0  0
  179.5560  178.2200  138.6580 O   0  0  0  0  0  0  0  0  0  0  0  0
  179.0720  179.4360  143.7400 C   0  0  0  0  0  1  0  0  0  0  0  0
  181.4250  177.9260  141.1120 C   0  0  0  0  0  0  0  0  0  0  0  0
  181.3630  177.3510  139.9080 C   0  0  0  0  0  3  0  0  0  0  0  0
  180.3170  178.6950  143.2950 C   0  0  0  0  0  0  0  0  0  0  0  0
  180.1330  178.2560  141.8270 C   0  0  2  0  0  3  0  0  0  0  0  0
  182.8370  179.0750  142.9620 C   0  0  1  0  0  3  0  0  0  0  0  0
  182.7340  178.3460  141.6560 C   0  0  0  0  0  0  0  0  0  0  0  0
  183.7930  178.0950  141.0220 O   0  0  0  0  0  0  0  0  0  0  0  0
  179.0050  176.5270  140.2600 C   0  0  2  0  0  3  0  0  0  0  0  0
  180.0420  177.0560  139.2550 C   0  0  1  0  0  3  0  0  0  0  0  0
  181.4960  179.6640  143.4220 C   0  0  0  0  0  2  0  0  0  0  0  0
  180.5110  177.5040  144.2290 C   0  0  0  0  0  1  0  0  0  0  0  0
  179.1100  177.1130  141.6850 C   0  0  0  0  0  2  0  0  0  0  0  0
  179.5010  174.4040  138.9640 C   0  0  0  0  0  1  0  0  0  0  0  0
  179.6690  174.4180  141.4460 C   0  0  0  0  0  1  0  0  0  0  0  0
  178.9440  174.9990  140.2480 C   0  0  0  0  0  3  0  0  0  0  0  0
  184.0960  179.0440  144.9390 C   0  0  0  0  0  1  0  0  0  0  0  0
  183.4010  178.2020  143.9810 N   0  0  0  0  0  2  0  0  0  0  0  0
  182.6680  174.3970  137.7800 O   0  0  0  0  0  0  0  0  0  0  0  0
  182.3380  173.1280  137.2370 C   0  0  0  0  0  1  0  0  0  0  0  0
  187.0000  178.5150  135.3130 C   0  0  0  0  0  1  0  0  0  0  0  0
  186.1200  177.5120  134.5960 C   0  0  0  0  0  2  0  0  0  0  0  0
  2  1  2  0  0  0  0
  2 56  1  0  0  0  0
  3  6  1  0  0  0  0
  4  1  1  6  0  0  0
  5  4  1  0  0  0  0
  6  5  1  0  0  0  0
  6  7  2  0  0  0  0
  7 33  1  0  0  0  0
  7  2  1  0  0  0  0
  9  4  1  0  0  0  0
  9  8  1  1  0  0  0
  9 11  1  0  0  0  0
 10 11  1  0  0  0  0
 10 12  1  0  0  0  0
 12 16  1  6  0  0  0
 13  8  1  0  0  0  0
 13 12  1  0  0  0  0
 15 16  2  0  0  0  0
 16 14  1  0  0  0  0
 17 18  1  6  0  0  0
 19 21  1  0  0  0  0
 19 20  1  0  0  0  0
 20 14  1  1  0  0  0
 20 18  1  0  0  0  0
 21 28  1  1  0  0  0
 21 17  1  0  0  0  0
 22 23  1  6  0  0  0
 22 17  1  0  0  0  0
 25 24  1  0  0  0  0
 26 24  1  0  0  0  0
 26 22  1  0  0  0  0
 27 25  2  0  0  0  0
 27 23  1  0  0  0  0
 28 29  1  0  0  0  0
 30 28  1  0  0  0  0
 31 32  1  0  0  0  0
 32 30  1  0  0  0  0
 33 34  1  6  0  0  0
 33 35  1  0  0  0  0
 35 36  1  0  0  0  0
 36 37  1  0  0  0  0
 39 44  1  0  0  0  0
 39 42  1  0  0  0  0
 40 39  2  0  0  0  0
 41 48  1  0  0  0  0
 41 38  1  0  0  0  0
 41 49  1  0  0  0  0
 42 50  1  1  0  0  0
 42 41  1  0  0  0  0
 43 48  1  0  0  0  0
 43 55  1  1  0  0  0
 44 43  1  0  0  0  0
 45 44  2  0  0  0  0
 46 53  1  1  0  0  0
 46 50  1  0  0  0  0
 47 37  1  1  0  0  0
 47 40  1  0  0  0  0
 47 46  1  0  0  0  0
 51 53  1  0  0  0  0
 53 52  1  0  0  0  0
 55 54  1  0  0  0  0
 57 56  1  0  0  0  0
 59 58  1  0  0  0  0
 59  5  1  0  0  0  0
M  END
>  <MODEL>
1

>  <REMARK>
 VINA RESULT:      -5.3      0.000      0.000
  Name = 
  16 active torsions:
  status: ('A' for Active; 'I' for Inactive)
    1  A    between atoms: N_2  and  C_4
    2  A    between atoms: C_3  and  O_22
    3  A    between atoms: C_5  and  C_6
    4  A    between atoms: C_5  and  C_12
    5  A    between atoms: C_6  and  C_50
    6  A    between atoms: N_10  and  C_40
    7  A    between atoms: N_10  and  C_41
    8  A    between atoms: C_12  and  O_54
    9  A    between atoms: C_18  and  N_45
   10  A    between atoms: C_23  and  C_51
   11  A    between atoms: C_24  and  C_42
   12  A    between atoms: N_25  and  C_26
   13  A    between atoms: C_34  and  O_54
   14  A    between atoms: C_36  and  C_40
   15  A    between atoms: N_47  and  C_49
   16  A    between atoms: C_56  and  C_57
                            x       y       z     vdW  Elec       q    Type
                         _______ _______ _______ _____ _____    ______ ____

>  <TORSDO>
F 16

$$$$
=
 OpenBabel10222417303D

 59 64  0  0  1  0  0  0  0  0999 V2000
  186.5420  178.1840  137.8550 C   0  0  0  0  0  3  0  0  0  0  0  0
  185.5830  177.6230  137.1110 C   0  0  0  0  0  0  0  0  0  0  0  0
  187.4750  174.7730  135.3610 C   0  0  0  0  0  1  0  0  0  0  0  0
  187.9870  177.7840  137.7440 C   0  0  2  0  0  3  0  0  0  0  0  0
  188.1100  176.4160  137.1960 N   0  0  0  0  0  0  0  0  0  0  0  0
  187.1270  175.9310  136.2490 C   0  0  0  0  0  0  0  0  0  0  0  0
  185.9050  176.5120  136.1920 C   0  0  0  0  0  0  0  0  0  0  0  0
  187.9120  177.3730  140.2320 C   0  0  0  0  0  2  0  0  0  0  0  0
  188.7400  177.9590  139.0840 C   0  0  1  0  0  3  0  0  0  0  0  0
  190.8310  177.5690  140.4150 C   0  0  0  0  0  2  0  0  0  0  0  0
  190.1240  177.2930  139.0930 C   0  0  0  0  0  2  0  0  0  0  0  0
  189.9990  177.0280  141.5770 C   0  0  2  0  0  3  0  0  0  0  0  0
  188.5960  177.6410  141.5690 C   0  0  0  0  0  2  0  0  0  0  0  0
  189.9030  177.3740  144.0720 N   0  0  0  0  0  2  0  0  0  0  0  0
  191.9720  177.4150  142.9260 N   0  0  0  0  0  2  0  0  0  0  0  0
  190.6860  177.2820  142.8790 C   0  0  0  0  0  0  0  0  0  0  0  0
  190.5400  176.6090  147.5960 C   0  0  2  0  0  3  0  0  0  0  0  0
  190.6020  176.2650  146.1130 C   0  0  0  0  0  2  0  0  0  0  0  0
  189.5560  178.4170  146.2510 C   0  0  0  0  0  2  0  0  0  0  0  0
  190.4780  177.5830  145.3910 C   0  0  2  0  0  3  0  0  0  0  0  0
  189.6790  177.8840  147.6760 C   0  0  1  0  0  3  0  0  0  0  0  0
  191.8900  176.8620  148.1220 N   0  0  2  0  0  0  0  0  0  0  0  0
  192.4840  175.5780  148.5140 C   0  0  0  0  0  2  0  0  0  0  0  0
  193.1730  178.0710  149.8260 C   0  0  0  0  0  2  0  0  0  0  0  0
  194.1450  176.9180  149.7660 C   0  0  0  0  0  3  0  0  0  0  0  0
  191.7780  177.6550  149.3500 C   0  0  0  0  0  2  0  0  0  0  0  0
  193.8480  175.7800  149.1240 C   0  0  0  0  0  3  0  0  0  0  0  0
  188.3510  177.5840  148.2210 N   0  0  0  0  0  0  0  0  0  0  0  0
  188.0040  178.6000  149.0510 O   0  0  0  0  0  1  0  0  0  0  0  0
  187.3940  177.6190  147.1210 C   0  0  0  0  0  2  0  0  0  0  0  0
  185.0880  178.3480  146.5150 C   0  0  0  0  0  1  0  0  0  0  0  0
  186.2720  178.5970  147.4260 C   0  0  0  0  0  2  0  0  0  0  0  0
  184.8130  176.0880  135.2380 C   0  0  2  0  0  3  0  0  0  0  0  0
  184.0260  177.2210  134.5940 C   0  0  0  0  0  1  0  0  0  0  0  0
  183.9710  174.9050  135.7240 C   0  0  0  0  0  2  0  0  0  0  0  0
  182.4710  175.1310  135.5970 C   0  0  0  0  0  2  0  0  0  0  0  0
  182.0490  176.0460  136.5650 O   0  0  0  0  0  0  0  0  0  0  0  0
  178.9330  179.3750  139.1630 C   0  0  0  0  0  1  0  0  0  0  0  0
  181.8350  176.8910  139.5380 C   0  0  0  0  0  0  0  0  0  0  0  0
  182.3590  175.8430  138.8980 C   0  0  0  0  0  3  0  0  0  0  0  0
  179.9060  178.5310  139.9620 C   0  0  0  0  0  0  0  0  0  0  0  0
  180.5430  177.4850  139.0210 C   0  0  2  0  0  3  0  0  0  0  0  0
  182.0730  178.7590  141.3250 C   0  0  1  0  0  3  0  0  0  0  0  0
  182.5860  177.5270  140.6420 C   0  0  0  0  0  0  0  0  0  0  0  0
  183.6800  177.0360  141.0270 O   0  0  0  0  0  0  0  0  0  0  0  0
  180.1710  175.2280  137.8060 C   0  0  2  0  0  3  0  0  0  0  0  0
  181.7030  175.2720  137.6730 C   0  0  1  0  0  3  0  0  0  0  0  0
  180.9770  179.4720  140.5220 C   0  0  0  0  0  2  0  0  0  0  0  0
  179.1320  177.8780  141.1030 C   0  0  0  0  0  1  0  0  0  0  0  0
  179.5460  176.3840  138.6150 C   0  0  0  0  0  2  0  0  0  0  0  0
  180.6340  172.7340  137.8460 C   0  0  0  0  0  1  0  0  0  0  0  0
  179.4870  173.8210  139.7680 C   0  0  0  0  0  1  0  0  0  0  0  0
  179.6910  173.8500  138.2660 C   0  0  0  0  0  3  0  0  0  0  0  0
  181.6000  179.6670  143.4340 C   0  0  0  0  0  1  0  0  0  0  0  0
  181.6110  178.4340  142.6660 N   0  0  0  0  0  2  0  0  0  0  0  0
  184.2580  178.0640  137.2030 O   0  0  0  0  0  0  0  0  0  0  0  0
  183.8660  179.1870  137.9760 C   0  0  0  0  0  1  0  0  0  0  0  0
  190.3670  176.1300  136.3150 C   0  0  0  0  0  1  0  0  0  0  0  0
  189.3620  175.6780  137.3540 C   0  0  0  0  0  2  0  0  0  0  0  0
  2 56  1  0  0  0  0
  2  1  2  0  0  0  0
  3  6  1  0  0  0  0
  4  1  1  1  0  0  0
  4  9  1  0  0  0  0
  5 59  1  0  0  0  0
  5  4  1  0  0  0  0
  6  5  1  0  0  0  0
  7  6  2  0  0  0  0
  7  2  1  0  0  0  0
  8 13  1  0  0  0  0
  9 11  1  6  0  0  0
  9  8  1  0  0  0  0
 10 12  1  0  0  0  0
 11 10  1  0  0  0  0
 12 16  1  1  0  0  0
 13 12  1  0  0  0  0
 16 15  2  0  0  0  0
 16 14  1  0  0  0  0
 17 18  1  6  0  0  0
 17 21  1  0  0  0  0
 17 22  1  0  0  0  0
 19 21  1  0  0  0  0
 20 14  1  6  0  0  0
 20 18  1  0  0  0  0
 20 19  1  0  0  0  0
 21 28  1  6  0  0  0
 22 23  1  1  0  0  0
 22 26  1  0  0  0  0
 23 27  1  0  0  0  0
 25 24  1  0  0  0  0
 26 24  1  0  0  0  0
 27 25  2  0  0  0  0
 28 29  1  0  0  0  0
 30 32  1  0  0  0  0
 30 28  1  0  0  0  0
 31 32  1  0  0  0  0
 33 34  1  1  0  0  0
 33 35  1  0  0  0  0
 33  7  1  0  0  0  0
 36 35  1  0  0  0  0
 36 37  1  0  0  0  0
 38 41  1  0  0  0  0
 39 44  1  0  0  0  0
 40 39  2  0  0  0  0
 41 48  1  0  0  0  0
 41 49  1  0  0  0  0
 42 50  1  1  0  0  0
 42 39  1  0  0  0  0
 42 41  1  0  0  0  0
 43 55  1  1  0  0  0
 44 45  2  0  0  0  0
 44 43  1  0  0  0  0
 46 53  1  1  0  0  0
 46 50  1  0  0  0  0
 47 37  1  6  0  0  0
 47 46  1  0  0  0  0
 47 40  1  0  0  0  0
 48 43  1  0  0  0  0
 51 53  1  0  0  0  0
 53 52  1  0  0  0  0
 55 54  1  0  0  0  0
 56 57  1  0  0  0  0
 58 59  1  0  0  0  0
M  END
>  <MODEL>
2

>  <REMARK>
 VINA RESULT:      -4.8      4.746      7.997
  Name = 
  16 active torsions:
  status: ('A' for Active; 'I' for Inactive)
    1  A    between atoms: N_2  and  C_4
    2  A    between atoms: C_3  and  O_22
    3  A    between atoms: C_5  and  C_6
    4  A    between atoms: C_5  and  C_12
    5  A    between atoms: C_6  and  C_50
    6  A    between atoms: N_10  and  C_40
    7  A    between atoms: N_10  and  C_41
    8  A    between atoms: C_12  and  O_54
    9  A    between atoms: C_18  and  N_45
   10  A    between atoms: C_23  and  C_51
   11  A    between atoms: C_24  and  C_42
   12  A    between atoms: N_25  and  C_26
   13  A    between atoms: C_34  and  O_54
   14  A    between atoms: C_36  and  C_40
   15  A    between atoms: N_47  and  C_49
   16  A    between atoms: C_56  and  C_57
                            x       y       z     vdW  Elec       q    Type
                         _______ _______ _______ _____ _____    ______ ____

>  <TORSDO>
F 16

$$$$
=
 OpenBabel10222417303D

 59 64  0  0  1  0  0  0  0  0999 V2000
  187.6170  178.1700  140.9390 C   0  0  0  0  0  3  0  0  0  0  0  0
  186.3540  178.0420  141.3580 C   0  0  0  0  0  0  0  0  0  0  0  0
  184.3540  179.0050  138.2210 C   0  0  0  0  0  1  0  0  0  0  0  0
  187.9660  178.7560  139.5980 C   0  0  2  0  0  3  0  0  0  0  0  0
  186.8300  178.6270  138.6600 N   0  0  0  0  0  0  0  0  0  0  0  0
  185.4730  178.6760  139.1640 C   0  0  0  0  0  0  0  0  0  0  0  0
  185.2310  178.4030  140.4680 C   0  0  0  0  0  0  0  0  0  0  0  0
  190.2670  177.8940  140.1700 C   0  0  0  0  0  2  0  0  0  0  0  0
  189.2770  178.1620  139.0320 C   0  0  1  0  0  3  0  0  0  0  0  0
  190.3860  176.3710  137.6690 C   0  0  0  0  0  2  0  0  0  0  0  0
  189.0640  176.8550  138.2540 C   0  0  0  0  0  2  0  0  0  0  0  0
  191.4000  176.1380  138.7880 C   0  0  2  0  0  3  0  0  0  0  0  0
  191.6010  177.4120  139.6110 C   0  0  0  0  0  2  0  0  0  0  0  0
  192.7400  174.3770  137.5810 N   0  0  0  0  0  2  0  0  0  0  0  0
  193.7660  176.3730  138.3300 N   0  0  0  0  0  2  0  0  0  0  0  0
  192.6980  175.6510  138.2290 C   0  0  0  0  0  0  0  0  0  0  0  0
  194.8710  173.2370  134.8280 C   0  0  2  0  0  3  0  0  0  0  0  0
  194.0680  174.3120  135.5500 C   0  0  0  0  0  2  0  0  0  0  0  0
  193.8540  172.3240  136.8730 C   0  0  0  0  0  2  0  0  0  0  0  0
  193.9440  173.8300  136.9740 C   0  0  2  0  0  3  0  0  0  0  0  0
  194.5460  171.9280  135.5710 C   0  0  1  0  0  3  0  0  0  0  0  0
  196.3090  173.5330  134.9040 N   0  0  2  0  0  0  0  0  0  0  0  0
  197.0100  172.3260  135.3580 C   0  0  0  0  0  2  0  0  0  0  0  0
  197.9940  174.9950  135.9210 C   0  0  0  0  0  2  0  0  0  0  0  0
  198.9300  173.8160  135.8220 C   0  0  0  0  0  3  0  0  0  0  0  0
  196.5290  174.5500  135.9370 C   0  0  0  0  0  2  0  0  0  0  0  0
  198.4860  172.5880  135.5190 C   0  0  0  0  0  3  0  0  0  0  0  0
  193.6650  171.0760  134.7670 N   0  0  0  0  0  0  0  0  0  0  0  0
  194.0660  169.7900  134.9310 O   0  0  0  0  0  1  0  0  0  0  0  0
  192.3230  171.1530  135.3350 C   0  0  0  0  0  2  0  0  0  0  0  0
  189.9420  170.5150  134.9660 C   0  0  0  0  0  1  0  0  0  0  0  0
  191.3800  170.2210  134.5940 C   0  0  0  0  0  2  0  0  0  0  0  0
  183.8560  178.4330  141.0950 C   0  0  2  0  0  3  0  0  0  0  0  0
  183.7880  179.0080  142.5030 C   0  0  0  0  0  1  0  0  0  0  0  0
  183.0300  177.1640  140.8700 C   0  0  0  0  0  2  0  0  0  0  0  0
  181.6140  177.4350  140.3830 C   0  0  0  0  0  2  0  0  0  0  0  0
  181.1820  176.3800  139.5760 O   0  0  0  0  0  0  0  0  0  0  0  0
  179.6440  172.1240  136.9200 C   0  0  0  0  0  1  0  0  0  0  0  0
  182.5620  174.5500  137.4910 C   0  0  0  0  0  0  0  0  0  0  0  0
  182.7740  175.7920  137.9320 C   0  0  0  0  0  3  0  0  0  0  0  0
  181.0020  172.7170  136.6010 C   0  0  0  0  0  0  0  0  0  0  0  0
  181.1360  174.0690  137.3340 C   0  0  2  0  0  3  0  0  0  0  0  0
  183.5050  172.2070  136.8900 C   0  0  1  0  0  3  0  0  0  0  0  0
  183.7080  173.6360  137.2970 C   0  0  0  0  0  0  0  0  0  0  0  0
  184.8840  174.0500  137.4740 O   0  0  0  0  0  0  0  0  0  0  0  0
  180.4590  176.5700  137.3010 C   0  0  2  0  0  3  0  0  0  0  0  0
  181.6280  176.6950  138.2920 C   0  0  1  0  0  3  0  0  0  0  0  0
  182.0610  171.7290  137.0990 C   0  0  0  0  0  2  0  0  0  0  0  0
  181.1000  172.8740  135.0860 C   0  0  0  0  0  1  0  0  0  0  0  0
  180.2450  175.1600  136.7100 C   0  0  0  0  0  2  0  0  0  0  0  0
  180.8880  179.0200  136.8050 C   0  0  0  0  0  1  0  0  0  0  0  0
  181.4730  177.2850  135.1200 C   0  0  0  0  0  1  0  0  0  0  0  0
  180.5130  177.6620  136.2320 C   0  0  0  0  0  3  0  0  0  0  0  0
  184.9750  171.0100  135.5120 C   0  0  0  0  0  1  0  0  0  0  0  0
  183.9250  172.0140  135.5100 N   0  0  0  0  0  2  0  0  0  0  0  0
  186.0720  177.5450  142.6360 O   0  0  0  0  0  0  0  0  0  0  0  0
  187.0520  177.4290  143.6560 C   0  0  0  0  0  1  0  0  0  0  0  0
  186.4150  177.6110  136.4800 C   0  0  0  0  0  1  0  0  0  0  0  0
  187.0550  178.7670  137.2230 C   0  0  0  0  0  2  0  0  0  0  0  0
  1  2  2  0  0  0  0
  2 56  1  0  0  0  0
  3  6  1  0  0  0  0
  4  1  1  1  0  0  0
  5  6  1  0  0  0  0
  5  4  1  0  0  0  0
  6  7  2  0  0  0  0
  7 33  1  0  0  0  0
  7  2  1  0  0  0  0
  9 11  1  1  0  0  0
  9  4  1  0  0  0  0
  9  8  1  0  0  0  0
 10 11  1  0  0  0  0
 10 12  1  0  0  0  0
 12 16  1  6  0  0  0
 12 13  1  0  0  0  0
 13  8  1  0  0  0  0
 14 16  1  0  0  0  0
 16 15  2  0  0  0  0
 17 22  1  0  0  0  0
 17 18  1  1  0  0  0
 17 21  1  0  0  0  0
 18 20  1  0  0  0  0
 19 20  1  0  0  0  0
 20 14  1  6  0  0  0
 21 28  1  6  0  0  0
 21 19  1  0  0  0  0
 22 23  1  1  0  0  0
 22 26  1  0  0  0  0
 23 27  1  0  0  0  0
 24 26  1  0  0  0  0
 25 24  1  0  0  0  0
 27 25  2  0  0  0  0
 28 29  1  0  0  0  0
 28 30  1  0  0  0  0
 32 31  1  0  0  0  0
 32 30  1  0  0  0  0
 33 34  1  1  0  0  0
 35 33  1  0  0  0  0
 36 35  1  0  0  0  0
 37 36  1  0  0  0  0
 39 40  2  0  0  0  0
 40 47  1  0  0  0  0
 41 38  1  0  0  0  0
 41 48  1  0  0  0  0
 41 42  1  0  0  0  0
 42 50  1  6  0  0  0
 42 39  1  0  0  0  0
 43 55  1  6  0  0  0
 43 48  1  0  0  0  0
 43 44  1  0  0  0  0
 44 45  2  0  0  0  0
 44 39  1  0  0  0  0
 46 53  1  6  0  0  0
 46 47  1  0  0  0  0
 47 37  1  1  0  0  0
 49 41  1  0  0  0  0
 50 46  1  0  0  0  0
 52 53  1  0  0  0  0
 53 51  1  0  0  0  0
 55 54  1  0  0  0  0
 56 57  1  0  0  0  0
 58 59  1  0  0  0  0
 59  5  1  0  0  0  0
M  END
>  <MODEL>
3

>  <REMARK>
 VINA RESULT:      -4.5      2.674      5.815
  Name = 
  16 active torsions:
  status: ('A' for Active; 'I' for Inactive)
    1  A    between atoms: N_2  and  C_4
    2  A    between atoms: C_3  and  O_22
    3  A    between atoms: C_5  and  C_6
    4  A    between atoms: C_5  and  C_12
    5  A    between atoms: C_6  and  C_50
    6  A    between atoms: N_10  and  C_40
    7  A    between atoms: N_10  and  C_41
    8  A    between atoms: C_12  and  O_54
    9  A    between atoms: C_18  and  N_45
   10  A    between atoms: C_23  and  C_51
   11  A    between atoms: C_24  and  C_42
   12  A    between atoms: N_25  and  C_26
   13  A    between atoms: C_34  and  O_54
   14  A    between atoms: C_36  and  C_40
   15  A    between atoms: N_47  and  C_49
   16  A    between atoms: C_56  and  C_57
                            x       y       z     vdW  Elec       q    Type
                         _______ _______ _______ _____ _____    ______ ____

>  <TORSDO>
F 16

$$$$
=
 OpenBabel10222417303D

 59 64  0  0  1  0  0  0  0  0999 V2000
  185.3540  178.5460  140.9940 C   0  0  0  0  0  3  0  0  0  0  0  0
  184.0910  178.3050  141.3570 C   0  0  0  0  0  0  0  0  0  0  0  0
  182.1940  178.7350  138.0440 C   0  0  0  0  0  1  0  0  0  0  0  0
  185.7170  179.0470  139.6220 C   0  0  2  0  0  3  0  0  0  0  0  0
  184.6650  178.6980  138.6440 N   0  0  0  0  0  0  0  0  0  0  0  0
  183.2830  178.6290  139.0700 C   0  0  0  0  0  0  0  0  0  0  0  0
  182.9920  178.4480  140.3800 C   0  0  0  0  0  0  0  0  0  0  0  0
  188.0560  178.5040  140.3970 C   0  0  0  0  0  2  0  0  0  0  0  0
  187.1210  178.5660  139.1850 C   0  0  1  0  0  3  0  0  0  0  0  0
  188.5100  176.8140  138.0460 C   0  0  0  0  0  2  0  0  0  0  0  0
  187.1060  177.1860  138.5110 C   0  0  0  0  0  2  0  0  0  0  0  0
  189.4670  176.7880  139.2370 C   0  0  2  0  0  3  0  0  0  0  0  0
  189.4710  178.1370  139.9580 C   0  0  0  0  0  2  0  0  0  0  0  0
  191.0160  175.7490  137.5410 N   0  0  0  0  0  2  0  0  0  0  0  0
  191.8670  176.6840  139.5410 N   0  0  0  0  0  2  0  0  0  0  0  0
  190.8440  176.4120  138.7960 C   0  0  0  0  0  0  0  0  0  0  0  0
  193.3320  174.3050  135.0990 C   0  0  2  0  0  3  0  0  0  0  0  0
  192.2520  175.3020  135.5020 C   0  0  0  0  0  2  0  0  0  0  0  0
  192.6930  173.9780  137.4510 C   0  0  0  0  0  2  0  0  0  0  0  0
  192.3160  175.3730  137.0070 C   0  0  2  0  0  3  0  0  0  0  0  0
  193.4450  173.3330  136.2890 C   0  0  1  0  0  3  0  0  0  0  0  0
  194.6100  174.9960  134.8710 N   0  0  2  0  0  0  0  0  0  0  0  0
  195.5480  174.6000  135.9280 C   0  0  0  0  0  2  0  0  0  0  0  0
  195.6760  177.1900  134.6320 C   0  0  0  0  0  2  0  0  0  0  0  0
  196.9050  176.5450  135.2240 C   0  0  0  0  0  3  0  0  0  0  0  0
  194.4010  176.4390  135.0260 C   0  0  0  0  0  2  0  0  0  0  0  0
  196.8600  175.3290  135.7860 C   0  0  0  0  0  3  0  0  0  0  0  0
  192.8520  172.0340  135.9610 N   0  0  0  0  0  0  0  0  0  0  0  0
  192.7210  171.9650  134.6120 O   0  0  0  0  0  1  0  0  0  0  0  0
  193.8100  170.9960  136.3250 C   0  0  0  0  0  2  0  0  0  0  0  0
  195.7570  169.6560  135.5320 C   0  0  0  0  0  1  0  0  0  0  0  0
  194.8660  170.8460  135.2430 C   0  0  0  0  0  2  0  0  0  0  0  0
  181.5860  178.3690  140.9290 C   0  0  2  0  0  3  0  0  0  0  0  0
  181.3070  179.2360  142.1490 C   0  0  0  0  0  1  0  0  0  0  0  0
  181.0100  176.9510  140.9930 C   0  0  0  0  0  2  0  0  0  0  0  0
  179.9420  176.6790  139.9440 C   0  0  0  0  0  2  0  0  0  0  0  0
  180.2390  175.4940  139.2660 O   0  0  0  0  0  0  0  0  0  0  0  0
  179.5340  171.0420  136.5780 C   0  0  0  0  0  1  0  0  0  0  0  0
  181.9510  173.9600  137.1890 C   0  0  0  0  0  0  0  0  0  0  0  0
  181.9270  175.2180  137.6360 C   0  0  0  0  0  3  0  0  0  0  0  0
  180.7640  171.8760  136.2750 C   0  0  0  0  0  0  0  0  0  0  0  0
  180.6400  173.2260  137.0150 C   0  0  2  0  0  3  0  0  0  0  0  0
  183.3140  171.8330  136.5890 C   0  0  1  0  0  3  0  0  0  0  0  0
  183.2480  173.2730  137.0030 C   0  0  0  0  0  0  0  0  0  0  0  0
  184.3260  173.8950  137.1940 O   0  0  0  0  0  0  0  0  0  0  0  0
  179.5150  175.5600  136.9840 C   0  0  2  0  0  3  0  0  0  0  0  0
  180.6320  175.8930  137.9880 C   0  0  1  0  0  3  0  0  0  0  0  0
  181.9810  171.0970  136.7810 C   0  0  0  0  0  2  0  0  0  0  0  0
  180.8450  172.0570  134.7630 C   0  0  0  0  0  1  0  0  0  0  0  0
  179.5700  174.1380  136.3860 C   0  0  0  0  0  2  0  0  0  0  0  0
  178.9330  177.9820  136.5030 C   0  0  0  0  0  1  0  0  0  0  0  0
  180.6750  176.8250  135.1540 C   0  0  0  0  0  1  0  0  0  0  0  0
  179.3780  176.6500  135.9200 C   0  0  0  0  0  3  0  0  0  0  0  0
  184.6120  170.5430  135.1240 C   0  0  0  0  0  1  0  0  0  0  0  0
  183.7760  171.7280  135.2130 N   0  0  0  0  0  2  0  0  0  0  0  0
  183.7890  177.8950  142.6610 O   0  0  0  0  0  0  0  0  0  0  0  0
  184.4110  178.4460  143.8120 C   0  0  0  0  0  1  0  0  0  0  0  0
  184.6970  177.3780  136.5920 C   0  0  0  0  0  1  0  0  0  0  0  0
  184.9620  178.7340  137.2130 C   0  0  0  0  0  2  0  0  0  0  0  0
  1  2  2  0  0  0  0
  2 56  1  0  0  0  0
  3  6  1  0  0  0  0
  4  1  1  1  0  0  0
  5  6  1  0  0  0  0
  5  4  1  0  0  0  0
  6  7  2  0  0  0  0
  7 33  1  0  0  0  0
  7  2  1  0  0  0  0
  9 11  1  1  0  0  0
  9  4  1  0  0  0  0
  9  8  1  0  0  0  0
 10 11  1  0  0  0  0
 10 12  1  0  0  0  0
 12 16  1  6  0  0  0
 12 13  1  0  0  0  0
 13  8  1  0  0  0  0
 14 16  1  0  0  0  0
 16 15  2  0  0  0  0
 17 18  1  1  0  0  0
 17 21  1  0  0  0  0
 18 20  1  0  0  0  0
 20 19  1  0  0  0  0
 20 14  1  1  0  0  0
 21 28  1  6  0  0  0
 21 19  1  0  0  0  0
 22 26  1  1  0  0  0
 22 17  1  0  0  0  0
 22 23  1  0  0  0  0
 24 26  1  0  0  0  0
 24 25  1  0  0  0  0
 25 27  2  0  0  0  0
 27 23  1  0  0  0  0
 28 30  1  0  0  0  0
 29 28  1  0  0  0  0
 32 31  1  0  0  0  0
 32 30  1  0  0  0  0
 33 35  1  0  0  0  0
 33 34  1  1  0  0  0
 36 35  1  0  0  0  0
 37 36  1  0  0  0  0
 39 40  2  0  0  0  0
 40 47  1  0  0  0  0
 41 38  1  0  0  0  0
 41 48  1  0  0  0  0
 41 42  1  0  0  0  0
 42 50  1  6  0  0  0
 42 39  1  0  0  0  0
 43 55  1  6  0  0  0
 43 48  1  0  0  0  0
 43 44  1  0  0  0  0
 44 39  1  0  0  0  0
 44 45  2  0  0  0  0
 46 53  1  6  0  0  0
 46 47  1  0  0  0  0
 47 37  1  1  0  0  0
 49 41  1  0  0  0  0
 50 46  1  0  0  0  0
 52 53  1  0  0  0  0
 53 51  1  0  0  0  0
 54 55  1  0  0  0  0
 56 57  1  0  0  0  0
 58 59  1  0  0  0  0
 59  5  1  0  0  0  0
M  END
>  <MODEL>
4

>  <REMARK>
 VINA RESULT:      -4.5      2.398      5.989
  Name = 
  16 active torsions:
  status: ('A' for Active; 'I' for Inactive)
    1  A    between atoms: N_2  and  C_4
    2  A    between atoms: C_3  and  O_22
    3  A    between atoms: C_5  and  C_6
    4  A    between atoms: C_5  and  C_12
    5  A    between atoms: C_6  and  C_50
    6  A    between atoms: N_10  and  C_40
    7  A    between atoms: N_10  and  C_41
    8  A    between atoms: C_12  and  O_54
    9  A    between atoms: C_18  and  N_45
   10  A    between atoms: C_23  and  C_51
   11  A    between atoms: C_24  and  C_42
   12  A    between atoms: N_25  and  C_26
   13  A    between atoms: C_34  and  O_54
   14  A    between atoms: C_36  and  C_40
   15  A    between atoms: N_47  and  C_49
   16  A    between atoms: C_56  and  C_57
                            x       y       z     vdW  Elec       q    Type
                         _______ _______ _______ _____ _____    ______ ____

>  <TORSDO>
F 16

$$$$
