=
 OpenBabel10222418433D

 41 43  0  0  1  0  0  0  0  0999 V2000
  185.6150  177.8050  137.6500 C   0  0  0  0  0  0  0  0  0  0  0  0
  188.0550  177.3700  137.2040 N   0  0  0  0  0  0  0  0  0  0  0  0
  187.4980  175.0420  136.9080 C   0  0  0  0  0  2  0  0  0  0  0  0
  186.6670  177.2280  136.9630 C   0  0  1  0  0  3  0  0  0  0  0  0
  188.4130  179.6670  137.2760 O   0  0  0  0  0  0  0  0  0  0  0  0
  189.5080  178.4530  138.9170 N   0  0  0  0  0  2  0  0  0  0  0  0
  185.1010  175.7440  137.3670 N   0  0  0  0  0  0  0  0  0  0  0  0
  185.5810  178.9780  138.1070 O   0  0  0  0  0  0  0  0  0  0  0  0
  188.6600  178.5380  137.7720 C   0  0  0  0  0  0  0  0  0  0  0  0
  184.4580  174.4600  137.5970 C   0  0  0  0  0  1  0  0  0  0  0  0
  186.3140  175.9380  136.8160 C   0  0  2  0  0  3  0  0  0  0  0  0
  184.6520  176.8880  137.8710 N   0  0  0  0  0  2  0  0  0  0  0  0
  188.6700  176.0360  137.1370 C   0  0  1  0  0  3  0  0  0  0  0  0
  189.7330  177.2430  139.5910 N   0  0  0  0  0  2  0  0  0  0  0  0
  189.4210  177.0400  140.9750 C   0  0  0  0  0  0  0  0  0  0  0  0
  189.5440  175.8810  141.4500 O   0  0  0  0  0  0  0  0  0  0  0  0
  188.9250  178.1130  141.8640 C   0  0  0  0  0  0  0  0  0  0  0  0
  187.6800  178.5670  141.7480 C   0  0  0  0  0  2  0  0  0  0  0  0
  189.8330  178.6630  142.7870 O   0  0  0  0  0  0  0  0  0  0  0  0
  189.3430  178.0710  145.1450 N   0  0  0  0  0  2  0  0  0  0  0  0
  190.2270  178.1180  144.0180 C   0  0  0  0  0  0  0  0  0  0  0  0
  191.3940  177.6570  144.1250 O   0  0  0  0  0  0  0  0  0  0  0  0
  189.7180  177.4790  146.4200 C   0  0  0  0  0  2  0  0  0  0  0  0
  188.5510  178.1420  148.5030 C   0  0  0  0  0  1  0  0  0  0  0  0
  188.4840  177.2570  147.2750 C   0  0  0  0  0  2  0  0  0  0  0  0
  189.6830  175.9660  135.9870 C   0  0  1  0  0  3  0  0  0  0  0  0
  190.0860  177.2510  135.6600 F   0  0  0  0  0  0  0  0  0  0  0  0
  192.0480  174.8100  138.3190 O   0  0  0  0  0  0  0  0  0  0  0  0
  190.9160  175.1360  136.3640 C   0  0  1  0  0  3  0  0  0  0  0  0
  192.1670  175.9620  136.2920 C   0  0  1  0  0  3  0  0  0  0  0  0
  192.6330  175.9310  137.7190 C   0  0  0  0  0  2  0  0  0  0  0  0
  190.8150  174.6930  137.7480 N   0  0  0  0  0  2  0  0  0  0  0  0
  193.1720  175.2530  135.3960 C   0  0  0  0  0  2  0  0  0  0  0  0
  194.5750  175.7770  135.6530 C   0  0  0  0  0  2  0  0  0  0  0  0
  196.6910  174.1910  135.3130 O   0  0  0  0  0  0  0  0  0  0  0  0
  194.7800  173.2490  136.5360 O   0  0  0  0  0  0  0  0  0  0  0  0
  195.6040  174.4830  136.3080 S   0  0  0  0  0  0  0  0  0  0  0  0
  196.1110  174.2910  139.0320 C   0  0  0  0  0  0  0  0  0  0  0  0
  196.3060  174.9990  137.8070 N   0  0  0  0  0  2  0  0  0  0  0  0
  196.6200  174.8170  140.2140 O   0  0  0  0  0  1  0  0  0  0  0  0
  195.4750  173.1990  139.0540 O   0  0  0  0  0  0  0  0  0  0  0  0
  1 12  1  0  0  0  0
  1  8  2  0  0  0  0
  2  9  1  0  0  0  0
  3 13  1  0  0  0  0
  4  2  1  0  0  0  0
  4  1  1  1  0  0  0
  5  9  2  0  0  0  0
  6 14  1  0  0  0  0
  7 10  1  0  0  0  0
  7 12  1  0  0  0  0
  9  6  1  0  0  0  0
 11  3  1  1  0  0  0
 11  4  1  0  0  0  0
 11  7  1  0  0  0  0
 13 26  1  6  0  0  0
 13  2  1  0  0  0  0
 14 15  1  0  0  0  0
 15 16  2  0  0  0  0
 15 17  1  0  0  0  0
 17 19  1  0  0  0  0
 18 17  2  0  0  0  0
 19 21  1  0  0  0  0
 20 23  1  0  0  0  0
 21 22  2  0  0  0  0
 21 20  1  0  0  0  0
 23 25  1  0  0  0  0
 25 24  1  0  0  0  0
 26 27  1  1  0  0  0
 29 26  1  1  0  0  0
 29 32  1  0  0  0  0
 30 33  1  6  0  0  0
 30 29  1  0  0  0  0
 30 31  1  0  0  0  0
 31 28  1  0  0  0  0
 32 28  1  0  0  0  0
 33 34  1  0  0  0  0
 34 37  1  0  0  0  0
 35 37  2  0  0  0  0
 37 36  2  0  0  0  0
 37 39  1  0  0  0  0
 38 41  2  0  0  0  0
 38 40  1  0  0  0  0
 39 38  1  0  0  0  0
M  END
>  <MODEL>
1

>  <REMARK>
 VINA RESULT:      -7.4      0.000      0.000
  Name = 
  12 active torsions:
  status: ('A' for Active; 'I' for Inactive)
    1  A    between atoms: C_1  and  N_29
    2  A    between atoms: C_1  and  C_38
    3  A    between atoms: N_2  and  N_15
    4  A    between atoms: O_3  and  C_12
    5  A    between atoms: O_3  and  C_31
    6  A    between atoms: C_12  and  C_27
    7  A    between atoms: N_13  and  S_33
    8  A    between atoms: C_14  and  C_24
    9  A    between atoms: C_17  and  C_34
   10  A    between atoms: C_19  and  S_33
   11  A    between atoms: C_19  and  C_34
   12  A    between atoms: C_24  and  C_37
                            x       y       z     vdW  Elec       q    Type
                         _______ _______ _______ _____ _____    ______ ____

>  <TORSDO>
F 12

$$$$
=
 OpenBabel10222418433D

 41 43  0  0  1  0  0  0  0  0999 V2000
  185.3650  177.1010  137.4150 C   0  0  0  0  0  0  0  0  0  0  0  0
  187.7460  177.3410  136.6300 N   0  0  0  0  0  0  0  0  0  0  0  0
  187.8150  174.9440  136.3800 C   0  0  0  0  0  2  0  0  0  0  0  0
  186.4310  176.8190  136.5820 C   0  0  1  0  0  3  0  0  0  0  0  0
  187.4660  179.6490  136.6860 O   0  0  0  0  0  0  0  0  0  0  0  0
  189.0660  178.8220  138.1430 N   0  0  0  0  0  2  0  0  0  0  0  0
  185.4030  174.9720  137.1760 N   0  0  0  0  0  0  0  0  0  0  0  0
  185.0730  178.2310  137.8900 O   0  0  0  0  0  0  0  0  0  0  0  0
  188.0790  178.6440  137.1270 C   0  0  0  0  0  0  0  0  0  0  0  0
  185.1760  173.5680  137.4740 C   0  0  0  0  0  1  0  0  0  0  0  0
  186.4300  175.4780  136.4650 C   0  0  2  0  0  3  0  0  0  0  0  0
  184.7310  175.9620  137.7530 N   0  0  0  0  0  2  0  0  0  0  0  0
  188.6890  176.2260  136.4600 C   0  0  1  0  0  3  0  0  0  0  0  0
  189.7040  177.7370  138.7620 N   0  0  0  0  0  2  0  0  0  0  0  0
  189.4450  177.3340  140.1120 C   0  0  0  0  0  0  0  0  0  0  0  0
  189.9770  176.2720  140.5300 O   0  0  0  0  0  0  0  0  0  0  0  0
  188.5550  178.0790  141.0280 C   0  0  0  0  0  0  0  0  0  0  0  0
  188.9710  178.4270  142.2430 C   0  0  0  0  0  2  0  0  0  0  0  0
  187.2480  178.3500  140.5860 O   0  0  0  0  0  0  0  0  0  0  0  0
  185.8350  178.0500  142.6020 N   0  0  0  0  0  2  0  0  0  0  0  0
  186.1440  178.7150  141.3720 C   0  0  0  0  0  0  0  0  0  0  0  0
  185.4110  179.6600  140.9750 O   0  0  0  0  0  0  0  0  0  0  0  0
  184.7180  178.4350  143.4500 C   0  0  0  0  0  2  0  0  0  0  0  0
  186.3660  177.6960  145.1470 C   0  0  0  0  0  1  0  0  0  0  0  0
  185.1860  178.6090  144.8840 C   0  0  0  0  0  2  0  0  0  0  0  0
  189.5150  176.4080  135.1810 C   0  0  1  0  0  3  0  0  0  0  0  0
  189.6950  177.7630  134.9480 F   0  0  0  0  0  0  0  0  0  0  0  0
  191.5520  173.5900  135.7010 O   0  0  0  0  0  0  0  0  0  0  0  0
  190.8880  175.7330  135.2880 C   0  0  1  0  0  3  0  0  0  0  0  0
  191.3580  175.6840  136.7130 C   0  0  1  0  0  3  0  0  0  0  0  0
  191.4410  174.2050  136.9540 C   0  0  0  0  0  2  0  0  0  0  0  0
  190.7970  174.3460  134.8550 N   0  0  0  0  0  2  0  0  0  0  0  0
  192.7430  176.3080  136.7950 C   0  0  0  0  0  2  0  0  0  0  0  0
  193.6670  175.4410  137.6320 C   0  0  0  0  0  2  0  0  0  0  0  0
  196.2430  175.3410  136.9520 O   0  0  0  0  0  0  0  0  0  0  0  0
  194.6060  174.9660  135.1600 O   0  0  0  0  0  0  0  0  0  0  0  0
  194.9240  174.7120  136.6050 S   0  0  0  0  0  0  0  0  0  0  0  0
  195.3550  172.4530  138.1620 C   0  0  0  0  0  0  0  0  0  0  0  0
  194.9950  173.0040  136.8950 N   0  0  0  0  0  2  0  0  0  0  0  0
  195.4900  171.0750  138.2950 O   0  0  0  0  0  0  0  0  0  0  0  0
  195.5580  173.2030  139.1590 O   0  0  0  0  0  1  0  0  0  0  0  0
  1 12  1  0  0  0  0
  1  8  2  0  0  0  0
  2  9  1  0  0  0  0
  3 13  1  0  0  0  0
  4  2  1  0  0  0  0
  4  1  1  1  0  0  0
  5  9  2  0  0  0  0
  6 14  1  0  0  0  0
  7 10  1  0  0  0  0
  7 12  1  0  0  0  0
  9  6  1  0  0  0  0
 11  3  1  1  0  0  0
 11  4  1  0  0  0  0
 11  7  1  0  0  0  0
 13 26  1  6  0  0  0
 13  2  1  0  0  0  0
 14 15  1  0  0  0  0
 15 16  2  0  0  0  0
 15 17  1  0  0  0  0
 17 18  2  0  0  0  0
 19 17  1  0  0  0  0
 19 21  1  0  0  0  0
 20 23  1  0  0  0  0
 21 20  1  0  0  0  0
 22 21  2  0  0  0  0
 23 25  1  0  0  0  0
 25 24  1  0  0  0  0
 26 27  1  1  0  0  0
 28 31  1  0  0  0  0
 29 26  1  1  0  0  0
 29 30  1  0  0  0  0
 30 33  1  6  0  0  0
 30 31  1  0  0  0  0
 32 29  1  0  0  0  0
 32 28  1  0  0  0  0
 33 34  1  0  0  0  0
 36 37  2  0  0  0  0
 37 39  1  0  0  0  0
 37 35  2  0  0  0  0
 37 34  1  0  0  0  0
 38 40  2  0  0  0  0
 38 41  1  0  0  0  0
 39 38  1  0  0  0  0
M  END
>  <MODEL>
2

>  <REMARK>
 VINA RESULT:      -7.4      1.963      2.532
  Name = 
  12 active torsions:
  status: ('A' for Active; 'I' for Inactive)
    1  A    between atoms: C_1  and  N_29
    2  A    between atoms: C_1  and  C_38
    3  A    between atoms: N_2  and  N_15
    4  A    between atoms: O_3  and  C_12
    5  A    between atoms: O_3  and  C_31
    6  A    between atoms: C_12  and  C_27
    7  A    between atoms: N_13  and  S_33
    8  A    between atoms: C_14  and  C_24
    9  A    between atoms: C_17  and  C_34
   10  A    between atoms: C_19  and  S_33
   11  A    between atoms: C_19  and  C_34
   12  A    between atoms: C_24  and  C_37
                            x       y       z     vdW  Elec       q    Type
                         _______ _______ _______ _____ _____    ______ ____

>  <TORSDO>
F 12

$$$$
=
 OpenBabel10222418433D

 41 43  0  0  1  0  0  0  0  0999 V2000
  186.1940  177.5840  137.6760 C   0  0  0  0  0  0  0  0  0  0  0  0
  188.6740  177.1440  137.6450 N   0  0  0  0  0  0  0  0  0  0  0  0
  188.1730  174.8500  137.0980 C   0  0  0  0  0  2  0  0  0  0  0  0
  187.3510  177.0390  137.1520 C   0  0  1  0  0  3  0  0  0  0  0  0
  189.0190  179.4260  137.9350 O   0  0  0  0  0  0  0  0  0  0  0  0
  189.7990  178.0910  139.6610 N   0  0  0  0  0  2  0  0  0  0  0  0
  185.7340  175.5550  137.1680 N   0  0  0  0  0  0  0  0  0  0  0  0
  186.0820  178.7250  138.1990 O   0  0  0  0  0  0  0  0  0  0  0  0
  189.1700  178.2630  138.3900 C   0  0  0  0  0  0  0  0  0  0  0  0
  185.0580  174.2680  137.1920 C   0  0  0  0  0  1  0  0  0  0  0  0
  187.0270  175.7670  136.8560 C   0  0  2  0  0  3  0  0  0  0  0  0
  185.2060  176.6690  137.6590 N   0  0  0  0  0  2  0  0  0  0  0  0
  189.2870  175.8090  137.5990 C   0  0  1  0  0  3  0  0  0  0  0  0
  189.8960  176.8360  140.2800 N   0  0  0  0  0  2  0  0  0  0  0  0
  190.0500  176.6640  141.6950 C   0  0  0  0  0  0  0  0  0  0  0  0
  190.0010  175.4960  142.1620 O   0  0  0  0  0  0  0  0  0  0  0  0
  190.2240  177.7890  142.6380 C   0  0  0  0  0  0  0  0  0  0  0  0
  191.4340  178.1240  143.0770 C   0  0  0  0  0  2  0  0  0  0  0  0
  189.0630  178.4430  143.0900 O   0  0  0  0  0  0  0  0  0  0  0  0
  188.3170  177.9210  145.3960 N   0  0  0  0  0  2  0  0  0  0  0  0
  188.1000  177.9460  143.9810 C   0  0  0  0  0  0  0  0  0  0  0  0
  187.0150  177.5130  143.5110 O   0  0  0  0  0  0  0  0  0  0  0  0
  187.3190  177.4430  146.3410 C   0  0  0  0  0  2  0  0  0  0  0  0
  185.0000  178.3090  146.4650 C   0  0  0  0  0  1  0  0  0  0  0  0
  186.4470  178.5960  146.8070 C   0  0  0  0  0  2  0  0  0  0  0  0
  190.4900  175.8000  136.6470 C   0  0  1  0  0  3  0  0  0  0  0  0
  190.5270  177.0000  135.9540 F   0  0  0  0  0  0  0  0  0  0  0  0
  193.6590  176.9330  137.6650 O   0  0  0  0  0  0  0  0  0  0  0  0
  191.8120  175.6190  137.4020 C   0  0  1  0  0  3  0  0  0  0  0  0
  192.8790  175.0660  136.5020 C   0  0  1  0  0  3  0  0  0  0  0  0
  193.8880  176.1780  136.5090 C   0  0  0  0  0  2  0  0  0  0  0  0
  192.3100  176.9110  137.8550 N   0  0  0  0  0  2  0  0  0  0  0  0
  193.4670  173.8190  137.1450 C   0  0  0  0  0  2  0  0  0  0  0  0
  194.4220  174.1980  138.2640 C   0  0  0  0  0  2  0  0  0  0  0  0
  195.8530  171.9490  138.2850 O   0  0  0  0  0  0  0  0  0  0  0  0
  197.0110  174.0080  138.9560 O   0  0  0  0  0  0  0  0  0  0  0  0
  196.0010  173.4190  138.0140 S   0  0  0  0  0  0  0  0  0  0  0  0
  197.1470  174.8690  135.9410 C   0  0  0  0  0  0  0  0  0  0  0  0
  196.5200  173.6620  136.3780 N   0  0  0  0  0  2  0  0  0  0  0  0
  197.4460  175.0360  134.5940 O   0  0  0  0  0  0  0  0  0  0  0  0
  197.4260  175.7870  136.7650 O   0  0  0  0  0  1  0  0  0  0  0  0
  1  8  2  0  0  0  0
  2  9  1  0  0  0  0
  3 13  1  0  0  0  0
  4  2  1  0  0  0  0
  4  1  1  1  0  0  0
  5  9  2  0  0  0  0
  6 14  1  0  0  0  0
  7 10  1  0  0  0  0
  7 12  1  0  0  0  0
  9  6  1  0  0  0  0
 11  3  1  1  0  0  0
 11  4  1  0  0  0  0
 11  7  1  0  0  0  0
 12  1  1  0  0  0  0
 13 26  1  6  0  0  0
 13  2  1  0  0  0  0
 14 15  1  0  0  0  0
 15 16  2  0  0  0  0
 15 17  1  0  0  0  0
 17 18  2  0  0  0  0
 17 19  1  0  0  0  0
 19 21  1  0  0  0  0
 20 23  1  0  0  0  0
 21 20  1  0  0  0  0
 22 21  2  0  0  0  0
 23 25  1  0  0  0  0
 24 25  1  0  0  0  0
 26 27  1  1  0  0  0
 28 32  1  0  0  0  0
 29 26  1  6  0  0  0
 29 32  1  0  0  0  0
 30 31  1  0  0  0  0
 30 33  1  1  0  0  0
 30 29  1  0  0  0  0
 31 28  1  0  0  0  0
 33 34  1  0  0  0  0
 37 34  1  0  0  0  0
 37 35  2  0  0  0  0
 37 36  2  0  0  0  0
 38 39  1  0  0  0  0
 38 41  1  0  0  0  0
 39 37  1  0  0  0  0
 40 38  2  0  0  0  0
M  END
>  <MODEL>
3

>  <REMARK>
 VINA RESULT:      -7.4      1.624      2.282
  Name = 
  12 active torsions:
  status: ('A' for Active; 'I' for Inactive)
    1  A    between atoms: C_1  and  N_29
    2  A    between atoms: C_1  and  C_38
    3  A    between atoms: N_2  and  N_15
    4  A    between atoms: O_3  and  C_12
    5  A    between atoms: O_3  and  C_31
    6  A    between atoms: C_12  and  C_27
    7  A    between atoms: N_13  and  S_33
    8  A    between atoms: C_14  and  C_24
    9  A    between atoms: C_17  and  C_34
   10  A    between atoms: C_19  and  S_33
   11  A    between atoms: C_19  and  C_34
   12  A    between atoms: C_24  and  C_37
                            x       y       z     vdW  Elec       q    Type
                         _______ _______ _______ _____ _____    ______ ____

>  <TORSDO>
F 12

$$$$
=
 OpenBabel10222418433D

 41 43  0  0  1  0  0  0  0  0999 V2000
  185.2940  176.7870  137.3090 C   0  0  0  0  0  0  0  0  0  0  0  0
  187.6830  177.1640  136.6050 N   0  0  0  0  0  0  0  0  0  0  0  0
  187.9180  174.7700  136.4290 C   0  0  0  0  0  2  0  0  0  0  0  0
  186.4070  176.5540  136.5240 C   0  0  1  0  0  3  0  0  0  0  0  0
  187.2490  179.4490  136.5820 O   0  0  0  0  0  0  0  0  0  0  0  0
  188.8430  178.7700  138.1210 N   0  0  0  0  0  2  0  0  0  0  0  0
  185.4810  174.6600  137.1350 N   0  0  0  0  0  0  0  0  0  0  0  0
  184.9100  177.9070  137.7390 O   0  0  0  0  0  0  0  0  0  0  0  0
  187.9090  178.4980  137.0750 C   0  0  0  0  0  0  0  0  0  0  0  0
  185.3350  173.2510  137.4650 C   0  0  0  0  0  1  0  0  0  0  0  0
  186.4980  175.2130  136.4480 C   0  0  2  0  0  3  0  0  0  0  0  0
  184.7230  175.6170  137.6580 N   0  0  0  0  0  2  0  0  0  0  0  0
  188.7020  176.1090  136.5030 C   0  0  1  0  0  3  0  0  0  0  0  0
  189.5270  177.7470  138.7940 N   0  0  0  0  0  2  0  0  0  0  0  0
  189.2830  177.4030  140.1640 C   0  0  0  0  0  0  0  0  0  0  0  0
  189.8600  176.3880  140.6350 O   0  0  0  0  0  0  0  0  0  0  0  0
  188.3590  178.1540  141.0410 C   0  0  0  0  0  0  0  0  0  0  0  0
  188.6360  178.3230  142.3310 C   0  0  0  0  0  2  0  0  0  0  0  0
  187.1630  178.6270  140.4710 O   0  0  0  0  0  0  0  0  0  0  0  0
  185.5930  178.1580  142.3320 N   0  0  0  0  0  2  0  0  0  0  0  0
  185.9390  178.8420  141.1220 C   0  0  0  0  0  0  0  0  0  0  0  0
  185.1290  179.6650  140.6210 O   0  0  0  0  0  0  0  0  0  0  0  0
  184.3450  178.3910  143.0430 C   0  0  0  0  0  2  0  0  0  0  0  0
  185.7160  178.3560  145.1080 C   0  0  0  0  0  1  0  0  0  0  0  0
  184.6200  179.0890  144.3630 C   0  0  0  0  0  2  0  0  0  0  0  0
  189.5630  176.3120  135.2500 C   0  0  1  0  0  3  0  0  0  0  0  0
  189.6880  177.6700  135.0010 F   0  0  0  0  0  0  0  0  0  0  0  0
  191.7500  173.5630  135.4150 O   0  0  0  0  0  0  0  0  0  0  0  0
  190.9610  175.7040  135.4150 C   0  0  1  0  0  3  0  0  0  0  0  0
  191.2250  175.3310  136.8450 C   0  0  1  0  0  3  0  0  0  0  0  0
  191.4050  173.8440  136.7420 C   0  0  0  0  0  2  0  0  0  0  0  0
  191.0590  174.4630  134.6600 N   0  0  0  0  0  2  0  0  0  0  0  0
  192.5220  175.9880  137.2930 C   0  0  0  0  0  2  0  0  0  0  0  0
  193.6090  174.9430  137.4790 C   0  0  0  0  0  2  0  0  0  0  0  0
  194.8710  174.3920  135.1960 O   0  0  0  0  0  0  0  0  0  0  0  0
  196.2700  175.0120  137.1170 O   0  0  0  0  0  0  0  0  0  0  0  0
  194.9800  175.2850  136.3980 S   0  0  0  0  0  0  0  0  0  0  0  0
  195.9410  177.5320  135.0790 C   0  0  0  0  0  0  0  0  0  0  0  0
  194.9310  176.9450  135.9010 N   0  0  0  0  0  2  0  0  0  0  0  0
  195.8910  178.8940  134.8020 O   0  0  0  0  0  1  0  0  0  0  0  0
  196.8810  176.8290  134.6080 O   0  0  0  0  0  0  0  0  0  0  0  0
  1 12  1  0  0  0  0
  1  8  2  0  0  0  0
  2  9  1  0  0  0  0
  3 13  1  0  0  0  0
  4  2  1  0  0  0  0
  4  1  1  1  0  0  0
  5  9  2  0  0  0  0
  6 14  1  0  0  0  0
  7 10  1  0  0  0  0
  7 12  1  0  0  0  0
  9  6  1  0  0  0  0
 11  3  1  1  0  0  0
 11  4  1  0  0  0  0
 11  7  1  0  0  0  0
 13 26  1  6  0  0  0
 13  2  1  0  0  0  0
 14 15  1  0  0  0  0
 15 16  2  0  0  0  0
 15 17  1  0  0  0  0
 17 18  2  0  0  0  0
 19 17  1  0  0  0  0
 19 21  1  0  0  0  0
 20 23  1  0  0  0  0
 21 20  1  0  0  0  0
 22 21  2  0  0  0  0
 23 25  1  0  0  0  0
 25 24  1  0  0  0  0
 26 27  1  1  0  0  0
 28 31  1  0  0  0  0
 29 26  1  1  0  0  0
 29 30  1  0  0  0  0
 30 33  1  6  0  0  0
 31 30  1  0  0  0  0
 32 29  1  0  0  0  0
 32 28  1  0  0  0  0
 33 34  1  0  0  0  0
 35 37  2  0  0  0  0
 37 36  2  0  0  0  0
 37 34  1  0  0  0  0
 38 39  1  0  0  0  0
 39 37  1  0  0  0  0
 40 38  1  0  0  0  0
 41 38  2  0  0  0  0
M  END
>  <MODEL>
4

>  <REMARK>
 VINA RESULT:      -7.2      2.199      3.093
  Name = 
  12 active torsions:
  status: ('A' for Active; 'I' for Inactive)
    1  A    between atoms: C_1  and  N_29
    2  A    between atoms: C_1  and  C_38
    3  A    between atoms: N_2  and  N_15
    4  A    between atoms: O_3  and  C_12
    5  A    between atoms: O_3  and  C_31
    6  A    between atoms: C_12  and  C_27
    7  A    between atoms: N_13  and  S_33
    8  A    between atoms: C_14  and  C_24
    9  A    between atoms: C_17  and  C_34
   10  A    between atoms: C_19  and  S_33
   11  A    between atoms: C_19  and  C_34
   12  A    between atoms: C_24  and  C_37
                            x       y       z     vdW  Elec       q    Type
                         _______ _______ _______ _____ _____    ______ ____

>  <TORSDO>
F 12

$$$$
=
 OpenBabel10222418433D

 41 43  0  0  1  0  0  0  0  0999 V2000
  180.9000  178.4040  140.0330 C   0  0  0  0  0  0  0  0  0  0  0  0
  183.2260  178.3720  139.0670 N   0  0  0  0  0  0  0  0  0  0  0  0
  183.0290  175.9750  138.8940 C   0  0  0  0  0  2  0  0  0  0  0  0
  181.8640  177.9900  139.1340 C   0  0  1  0  0  3  0  0  0  0  0  0
  183.1880  180.6980  139.0660 O   0  0  0  0  0  0  0  0  0  0  0  0
  184.8020  179.7460  140.4280 N   0  0  0  0  0  2  0  0  0  0  0  0
  180.7010  176.2770  139.8640 N   0  0  0  0  0  0  0  0  0  0  0  0
  180.7620  179.5700  140.4900 O   0  0  0  0  0  0  0  0  0  0  0  0
  183.7270  179.6450  139.4940 C   0  0  0  0  0  0  0  0  0  0  0  0
  180.3540  174.9120  140.2240 C   0  0  0  0  0  1  0  0  0  0  0  0
  181.7160  176.6540  139.0630 C   0  0  2  0  0  3  0  0  0  0  0  0
  180.1800  177.3460  140.4550 N   0  0  0  0  0  2  0  0  0  0  0  0
  184.0330  177.1600  138.8660 C   0  0  1  0  0  3  0  0  0  0  0  0
  185.3720  178.6160  141.0350 N   0  0  0  0  0  2  0  0  0  0  0  0
  185.1190  178.2380  142.3930 C   0  0  0  0  0  0  0  0  0  0  0  0
  185.5790  177.1390  142.8010 O   0  0  0  0  0  0  0  0  0  0  0  0
  184.3150  179.0520  143.3300 C   0  0  0  0  0  0  0  0  0  0  0  0
  183.0240  179.2740  143.0980 C   0  0  0  0  0  2  0  0  0  0  0  0
  184.9800  179.6220  144.4310 O   0  0  0  0  0  0  0  0  0  0  0  0
  186.5710  178.5830  146.0250 N   0  0  0  0  0  2  0  0  0  0  0  0
  185.2530  179.0130  145.6650 C   0  0  0  0  0  0  0  0  0  0  0  0
  184.3030  178.8470  146.4760 O   0  0  0  0  0  0  0  0  0  0  0  0
  186.8830  177.9820  147.3120 C   0  0  0  0  0  2  0  0  0  0  0  0
  189.0120  177.4870  146.1420 C   0  0  0  0  0  1  0  0  0  0  0  0
  188.3870  177.8470  147.4750 C   0  0  0  0  0  2  0  0  0  0  0  0
  184.7730  177.2220  137.5240 C   0  0  1  0  0  3  0  0  0  0  0  0
  184.2180  178.2270  136.7460 F   0  0  0  0  0  0  0  0  0  0  0  0
  187.6720  179.1130  136.9040 O   0  0  0  0  0  0  0  0  0  0  0  0
  186.2680  177.5050  137.7110 C   0  0  1  0  0  3  0  0  0  0  0  0
  187.0810  176.8730  136.6180 C   0  0  1  0  0  3  0  0  0  0  0  0
  187.6960  178.0760  135.9640 C   0  0  0  0  0  2  0  0  0  0  0  0
  186.5220  178.9360  137.6130 N   0  0  0  0  0  2  0  0  0  0  0  0
  188.1610  176.0070  137.2470 C   0  0  0  0  0  2  0  0  0  0  0  0
  189.4380  176.0710  136.4270 C   0  0  0  0  0  2  0  0  0  0  0  0
  190.6520  173.8240  137.1920 O   0  0  0  0  0  0  0  0  0  0  0  0
  190.7120  175.7100  138.7640 O   0  0  0  0  0  0  0  0  0  0  0  0
  190.7800  175.3160  137.3170 S   0  0  0  0  0  0  0  0  0  0  0  0
  193.5510  175.4680  137.2090 C   0  0  0  0  0  0  0  0  0  0  0  0
  192.2910  175.8330  136.6440 N   0  0  0  0  0  2  0  0  0  0  0  0
  194.7200  176.0010  136.6770 O   0  0  0  0  0  0  0  0  0  0  0  0
  193.6130  174.6740  138.1910 O   0  0  0  0  0  1  0  0  0  0  0  0
  1 12  1  0  0  0  0
  1  8  2  0  0  0  0
  2  4  1  0  0  0  0
  2  9  1  0  0  0  0
  4  1  1  1  0  0  0
  5  9  2  0  0  0  0
  6 14  1  0  0  0  0
  7 10  1  0  0  0  0
  7 12  1  0  0  0  0
  9  6  1  0  0  0  0
 11  3  1  1  0  0  0
 11  4  1  0  0  0  0
 11  7  1  0  0  0  0
 13 26  1  6  0  0  0
 13  3  1  0  0  0  0
 13  2  1  0  0  0  0
 14 15  1  0  0  0  0
 15 16  2  0  0  0  0
 15 17  1  0  0  0  0
 17 19  1  0  0  0  0
 18 17  2  0  0  0  0
 19 21  1  0  0  0  0
 20 23  1  0  0  0  0
 21 20  1  0  0  0  0
 21 22  2  0  0  0  0
 23 25  1  0  0  0  0
 24 25  1  0  0  0  0
 26 27  1  6  0  0  0
 28 32  1  0  0  0  0
 29 26  1  6  0  0  0
 30 33  1  1  0  0  0
 30 29  1  0  0  0  0
 31 30  1  0  0  0  0
 31 28  1  0  0  0  0
 32 29  1  0  0  0  0
 34 33  1  0  0  0  0
 34 37  1  0  0  0  0
 35 37  2  0  0  0  0
 37 36  2  0  0  0  0
 38 41  1  0  0  0  0
 39 38  1  0  0  0  0
 39 37  1  0  0  0  0
 40 38  2  0  0  0  0
M  END
>  <MODEL>
5

>  <REMARK>
 VINA RESULT:      -7.0      3.435      5.022
  Name = 
  12 active torsions:
  status: ('A' for Active; 'I' for Inactive)
    1  A    between atoms: C_1  and  N_29
    2  A    between atoms: C_1  and  C_38
    3  A    between atoms: N_2  and  N_15
    4  A    between atoms: O_3  and  C_12
    5  A    between atoms: O_3  and  C_31
    6  A    between atoms: C_12  and  C_27
    7  A    between atoms: N_13  and  S_33
    8  A    between atoms: C_14  and  C_24
    9  A    between atoms: C_17  and  C_34
   10  A    between atoms: C_19  and  S_33
   11  A    between atoms: C_19  and  C_34
   12  A    between atoms: C_24  and  C_37
                            x       y       z     vdW  Elec       q    Type
                         _______ _______ _______ _____ _____    ______ ____

>  <TORSDO>
F 12

$$$$
=
 OpenBabel10222418433D

 41 43  0  0  1  0  0  0  0  0999 V2000
  180.7470  178.1900  139.6240 C   0  0  0  0  0  0  0  0  0  0  0  0
  183.1070  178.2800  138.7510 N   0  0  0  0  0  0  0  0  0  0  0  0
  183.0520  175.8740  138.5990 C   0  0  0  0  0  2  0  0  0  0  0  0
  181.7670  177.8220  138.7690 C   0  0  1  0  0  3  0  0  0  0  0  0
  182.9400  180.6000  138.7190 O   0  0  0  0  0  0  0  0  0  0  0  0
  184.5500  179.7540  140.1550 N   0  0  0  0  0  2  0  0  0  0  0  0
  180.6740  176.0540  139.4740 N   0  0  0  0  0  0  0  0  0  0  0  0
  180.5270  179.3510  140.0610 O   0  0  0  0  0  0  0  0  0  0  0  0
  183.5190  179.5830  139.1810 C   0  0  0  0  0  0  0  0  0  0  0  0
  180.3900  174.6750  139.8370 C   0  0  0  0  0  1  0  0  0  0  0  0
  181.6970  176.4800  138.7080 C   0  0  2  0  0  3  0  0  0  0  0  0
  180.0710  177.0980  140.0310 N   0  0  0  0  0  2  0  0  0  0  0  0
  183.9880  177.1130  138.5960 C   0  0  1  0  0  3  0  0  0  0  0  0
  185.1570  178.6640  140.7970 N   0  0  0  0  0  2  0  0  0  0  0  0
  184.8370  178.2560  142.1330 C   0  0  0  0  0  0  0  0  0  0  0  0
  185.3470  177.1910  142.5690 O   0  0  0  0  0  0  0  0  0  0  0  0
  183.9100  179.0010  143.0120 C   0  0  0  0  0  0  0  0  0  0  0  0
  182.6140  179.0740  142.7220 C   0  0  0  0  0  2  0  0  0  0  0  0
  184.4610  179.6660  144.1220 O   0  0  0  0  0  0  0  0  0  0  0  0
  186.3220  178.7090  145.4530 N   0  0  0  0  0  2  0  0  0  0  0  0
  184.9480  179.0870  145.3030 C   0  0  0  0  0  0  0  0  0  0  0  0
  184.1450  178.9010  146.2560 O   0  0  0  0  0  0  0  0  0  0  0  0
  186.8560  178.1400  146.6810 C   0  0  0  0  0  2  0  0  0  0  0  0
  188.5940  177.0740  145.2710 C   0  0  0  0  0  1  0  0  0  0  0  0
  188.3440  177.8780  146.5300 C   0  0  0  0  0  2  0  0  0  0  0  0
  184.7760  177.2030  137.2830 C   0  0  1  0  0  3  0  0  0  0  0  0
  184.2080  178.1800  136.4800 F   0  0  0  0  0  0  0  0  0  0  0  0
  187.5940  179.2560  136.8240 O   0  0  0  0  0  0  0  0  0  0  0  0
  186.2500  177.5510  137.5260 C   0  0  1  0  0  3  0  0  0  0  0  0
  187.1230  177.0030  136.4350 C   0  0  1  0  0  3  0  0  0  0  0  0
  187.6960  178.2590  135.8460 C   0  0  0  0  0  2  0  0  0  0  0  0
  186.4340  178.9950  137.4900 N   0  0  0  0  0  2  0  0  0  0  0  0
  188.2270  176.1660  137.0640 C   0  0  0  0  0  2  0  0  0  0  0  0
  188.2400  176.3500  138.5710 C   0  0  0  0  0  2  0  0  0  0  0  0
  189.3900  178.5950  139.4360 O   0  0  0  0  0  0  0  0  0  0  0  0
  190.7240  177.1640  137.9500 O   0  0  0  0  0  0  0  0  0  0  0  0
  189.7320  177.1770  139.0770 S   0  0  0  0  0  0  0  0  0  0  0  0
  190.3780  176.9350  141.7680 C   0  0  0  0  0  0  0  0  0  0  0  0
  190.4070  176.3710  140.4560 N   0  0  0  0  0  2  0  0  0  0  0  0
  191.0270  176.2790  142.8080 O   0  0  0  0  0  1  0  0  0  0  0  0
  189.7770  178.0250  141.9900 O   0  0  0  0  0  0  0  0  0  0  0  0
  1 12  1  0  0  0  0
  1  8  2  0  0  0  0
  2  4  1  0  0  0  0
  2  9  1  0  0  0  0
  4  1  1  1  0  0  0
  5  9  2  0  0  0  0
  6 14  1  0  0  0  0
  7 10  1  0  0  0  0
  7 12  1  0  0  0  0
  9  6  1  0  0  0  0
 11  3  1  1  0  0  0
 11  4  1  0  0  0  0
 11  7  1  0  0  0  0
 13 26  1  6  0  0  0
 13  3  1  0  0  0  0
 13  2  1  0  0  0  0
 14 15  1  0  0  0  0
 15 16  2  0  0  0  0
 15 17  1  0  0  0  0
 17 19  1  0  0  0  0
 18 17  2  0  0  0  0
 19 21  1  0  0  0  0
 20 23  1  0  0  0  0
 21 20  1  0  0  0  0
 21 22  2  0  0  0  0
 24 25  1  0  0  0  0
 25 23  1  0  0  0  0
 26 27  1  6  0  0  0
 28 32  1  0  0  0  0
 29 26  1  6  0  0  0
 30 33  1  1  0  0  0
 30 29  1  0  0  0  0
 31 30  1  0  0  0  0
 31 28  1  0  0  0  0
 32 29  1  0  0  0  0
 33 34  1  0  0  0  0
 34 37  1  0  0  0  0
 36 37  2  0  0  0  0
 37 35  2  0  0  0  0
 37 39  1  0  0  0  0
 38 41  2  0  0  0  0
 38 40  1  0  0  0  0
 39 38  1  0  0  0  0
M  END
>  <MODEL>
6

>  <REMARK>
 VINA RESULT:      -6.9      3.748      5.631
  Name = 
  12 active torsions:
  status: ('A' for Active; 'I' for Inactive)
    1  A    between atoms: C_1  and  N_29
    2  A    between atoms: C_1  and  C_38
    3  A    between atoms: N_2  and  N_15
    4  A    between atoms: O_3  and  C_12
    5  A    between atoms: O_3  and  C_31
    6  A    between atoms: C_12  and  C_27
    7  A    between atoms: N_13  and  S_33
    8  A    between atoms: C_14  and  C_24
    9  A    between atoms: C_17  and  C_34
   10  A    between atoms: C_19  and  S_33
   11  A    between atoms: C_19  and  C_34
   12  A    between atoms: C_24  and  C_37
                            x       y       z     vdW  Elec       q    Type
                         _______ _______ _______ _____ _____    ______ ____

>  <TORSDO>
F 12

$$$$
=
 OpenBabel10222418433D

 41 43  0  0  1  0  0  0  0  0999 V2000
  179.2070  177.4920  140.9460 C   0  0  0  0  0  0  0  0  0  0  0  0
  180.9560  178.3110  139.3290 N   0  0  0  0  0  0  0  0  0  0  0  0
  181.3240  176.0130  138.6970 C   0  0  0  0  0  2  0  0  0  0  0  0
  179.8540  177.5150  139.7250 C   0  0  1  0  0  3  0  0  0  0  0  0
  180.3320  180.4890  139.8550 O   0  0  0  0  0  0  0  0  0  0  0  0
  182.5130  179.9350  140.4060 N   0  0  0  0  0  2  0  0  0  0  0  0
  179.5060  175.4480  140.3790 N   0  0  0  0  0  0  0  0  0  0  0  0
  178.9530  178.4920  141.6700 O   0  0  0  0  0  0  0  0  0  0  0  0
  181.2360  179.6150  139.8510 C   0  0  0  0  0  0  0  0  0  0  0  0
  179.6710  174.0100  140.5160 C   0  0  0  0  0  1  0  0  0  0  0  0
  180.0340  176.2190  139.4090 C   0  0  2  0  0  3  0  0  0  0  0  0
  178.9810  176.2190  141.3240 N   0  0  0  0  0  2  0  0  0  0  0  0
  181.9150  177.4480  138.6240 C   0  0  1  0  0  3  0  0  0  0  0  0
  183.5290  178.9760  140.5400 N   0  0  0  0  0  2  0  0  0  0  0  0
  183.9630  178.4580  141.8040 C   0  0  0  0  0  0  0  0  0  0  0  0
  184.7920  177.5110  141.8060 O   0  0  0  0  0  0  0  0  0  0  0  0
  183.4590  178.9510  143.1030 C   0  0  0  0  0  0  0  0  0  0  0  0
  182.1570  178.9340  143.3760 C   0  0  0  0  0  2  0  0  0  0  0  0
  184.3980  179.4860  144.0040 O   0  0  0  0  0  0  0  0  0  0  0  0
  186.1580  178.0740  145.0350 N   0  0  0  0  0  2  0  0  0  0  0  0
  184.9580  178.8510  145.1230 C   0  0  0  0  0  0  0  0  0  0  0  0
  184.3800  178.9760  146.2350 O   0  0  0  0  0  0  0  0  0  0  0  0
  186.7740  177.4370  146.1880 C   0  0  0  0  0  2  0  0  0  0  0  0
  189.0000  177.5350  145.1010 C   0  0  0  0  0  1  0  0  0  0  0  0
  188.2100  177.9080  146.3390 C   0  0  0  0  0  2  0  0  0  0  0  0
  182.0800  177.9010  137.1680 C   0  0  1  0  0  3  0  0  0  0  0  0
  181.9160  179.2760  137.1010 F   0  0  0  0  0  0  0  0  0  0  0  0
  184.4690  175.5540  136.0970 O   0  0  0  0  0  0  0  0  0  0  0  0
  183.4610  177.5350  136.6110 C   0  0  1  0  0  3  0  0  0  0  0  0
  184.4290  177.2330  137.7180 C   0  0  1  0  0  3  0  0  0  0  0  0
  184.7620  175.7950  137.4440 C   0  0  0  0  0  2  0  0  0  0  0  0
  183.3730  176.3160  135.8200 N   0  0  0  0  0  2  0  0  0  0  0  0
  185.6660  178.1020  137.5400 C   0  0  0  0  0  2  0  0  0  0  0  0
  186.3770  178.2910  138.8690 C   0  0  0  0  0  2  0  0  0  0  0  0
  188.8050  179.0110  138.0370 O   0  0  0  0  0  0  0  0  0  0  0  0
  188.2400  176.6260  137.8840 O   0  0  0  0  0  0  0  0  0  0  0  0
  188.0980  177.8700  138.7110 S   0  0  0  0  0  0  0  0  0  0  0  0
  190.1230  177.1600  140.4730 C   0  0  0  0  0  0  0  0  0  0  0  0
  188.7800  177.6050  140.2830 N   0  0  0  0  0  2  0  0  0  0  0  0
  190.5730  176.8710  141.7570 O   0  0  0  0  0  1  0  0  0  0  0  0
  190.9040  177.0180  139.4880 O   0  0  0  0  0  0  0  0  0  0  0  0
  1 12  1  0  0  0  0
  1  8  2  0  0  0  0
  2  4  1  0  0  0  0
  2  9  1  0  0  0  0
  4  1  1  1  0  0  0
  6 14  1  0  0  0  0
  7 10  1  0  0  0  0
  7 12  1  0  0  0  0
  9  5  2  0  0  0  0
  9  6  1  0  0  0  0
 11  3  1  1  0  0  0
 11  4  1  0  0  0  0
 11  7  1  0  0  0  0
 13 26  1  6  0  0  0
 13  3  1  0  0  0  0
 13  2  1  0  0  0  0
 14 15  1  0  0  0  0
 15 16  2  0  0  0  0
 15 17  1  0  0  0  0
 17 18  2  0  0  0  0
 17 19  1  0  0  0  0
 19 21  1  0  0  0  0
 20 21  1  0  0  0  0
 20 23  1  0  0  0  0
 21 22  2  0  0  0  0
 23 25  1  0  0  0  0
 24 25  1  0  0  0  0
 26 27  1  1  0  0  0
 28 31  1  0  0  0  0
 29 26  1  1  0  0  0
 29 30  1  0  0  0  0
 30 33  1  6  0  0  0
 31 30  1  0  0  0  0
 32 28  1  0  0  0  0
 32 29  1  0  0  0  0
 33 34  1  0  0  0  0
 35 37  2  0  0  0  0
 36 37  2  0  0  0  0
 37 34  1  0  0  0  0
 37 39  1  0  0  0  0
 38 40  1  0  0  0  0
 39 38  1  0  0  0  0
 41 38  2  0  0  0  0
M  END
>  <MODEL>
7

>  <REMARK>
 VINA RESULT:      -6.7      4.488      6.971
  Name = 
  12 active torsions:
  status: ('A' for Active; 'I' for Inactive)
    1  A    between atoms: C_1  and  N_29
    2  A    between atoms: C_1  and  C_38
    3  A    between atoms: N_2  and  N_15
    4  A    between atoms: O_3  and  C_12
    5  A    between atoms: O_3  and  C_31
    6  A    between atoms: C_12  and  C_27
    7  A    between atoms: N_13  and  S_33
    8  A    between atoms: C_14  and  C_24
    9  A    between atoms: C_17  and  C_34
   10  A    between atoms: C_19  and  S_33
   11  A    between atoms: C_19  and  C_34
   12  A    between atoms: C_24  and  C_37
                            x       y       z     vdW  Elec       q    Type
                         _______ _______ _______ _____ _____    ______ ____

>  <TORSDO>
F 12

$$$$
=
 OpenBabel10222418433D

 41 43  0  0  1  0  0  0  0  0999 V2000
  190.9020  176.7830  137.5260 C   0  0  0  0  0  0  0  0  0  0  0  0
  188.4240  177.0640  137.1760 N   0  0  0  0  0  0  0  0  0  0  0  0
  188.2480  177.6470  139.5100 C   0  0  0  0  0  2  0  0  0  0  0  0
  189.6930  177.4340  137.6830 C   0  0  1  0  0  3  0  0  0  0  0  0
  188.7690  176.7230  134.9020 O   0  0  0  0  0  0  0  0  0  0  0  0
  187.4460  175.1300  135.9410 N   0  0  0  0  0  0  0  0  0  0  0  0
  190.7650  177.3200  139.5950 N   0  0  0  0  0  0  0  0  0  0  0  0
  191.3060  176.2100  136.4780 O   0  0  0  0  0  0  0  0  0  0  0  0
  188.2230  176.3280  135.9630 C   0  0  0  0  0  0  0  0  0  0  0  0
  191.0080  177.2810  141.0280 C   0  0  0  0  0  1  0  0  0  0  0  0
  189.6390  177.7450  138.9910 C   0  0  2  0  0  3  0  0  0  0  0  0
  191.5580  176.7400  138.7020 N   0  0  0  0  0  2  0  0  0  0  0  0
  187.4380  177.2170  138.2560 C   0  0  1  0  0  3  0  0  0  0  0  0
  186.9050  174.5690  137.1080 N   0  0  0  0  0  0  0  0  0  0  0  0
  185.9310  173.5190  137.1010 C   0  0  0  0  0  0  0  0  0  0  0  0
  185.6050  173.0010  138.2010 O   0  0  0  0  0  0  0  0  0  0  0  0
  185.3160  172.9860  135.8660 C   0  0  0  0  0  0  0  0  0  0  0  0
  185.7970  171.8870  135.2900 C   0  0  0  0  0  2  0  0  0  0  0  0
  184.2530  173.7140  135.3020 O   0  0  0  0  0  0  0  0  0  0  0  0
  181.8300  173.2140  135.4760 N   0  0  0  0  0  2  0  0  0  0  0  0
  182.9920  173.9530  135.8710 C   0  0  0  0  0  0  0  0  0  0  0  0
  182.8920  174.8430  136.7560 O   0  0  0  0  0  0  0  0  0  0  0  0
  180.5210  173.4200  136.0770 C   0  0  0  0  0  2  0  0  0  0  0  0
  179.8820  173.3900  138.4710 C   0  0  0  0  0  1  0  0  0  0  0  0
  180.3700  172.5480  137.3110 C   0  0  0  0  0  2  0  0  0  0  0  0
  186.3930  178.2780  137.8860 C   0  0  1  0  0  3  0  0  0  0  0  0
  186.1930  178.2570  136.5150 F   0  0  0  0  0  0  0  0  0  0  0  0
  182.9130  178.6930  138.1660 O   0  0  0  0  0  0  0  0  0  0  0  0
  185.0540  178.0290  138.5900 C   0  0  1  0  0  3  0  0  0  0  0  0
  184.7350  179.1320  139.5560 C   0  0  1  0  0  3  0  0  0  0  0  0
  183.4730  179.6930  138.9700 C   0  0  0  0  0  2  0  0  0  0  0  0
  183.9710  178.0320  137.6170 N   0  0  0  0  0  2  0  0  0  0  0  0
  184.4550  178.5240  140.9220 C   0  0  0  0  0  2  0  0  0  0  0  0
  185.5750  178.8590  141.8920 C   0  0  0  0  0  2  0  0  0  0  0  0
  183.5970  178.2870  143.5860 O   0  0  0  0  0  0  0  0  0  0  0  0
  184.8040  180.3930  143.9580 O   0  0  0  0  0  0  0  0  0  0  0  0
  184.9420  178.9540  143.5520 S   0  0  0  0  0  0  0  0  0  0  0  0
  185.8520  178.1650  146.0540 C   0  0  0  0  0  0  0  0  0  0  0  0
  186.0250  178.1450  144.6370 N   0  0  0  0  0  2  0  0  0  0  0  0
  186.8150  177.5800  146.8690 O   0  0  0  0  0  1  0  0  0  0  0  0
  184.8390  178.7150  146.5740 O   0  0  0  0  0  0  0  0  0  0  0  0
  1 12  1  0  0  0  0
  2  4  1  0  0  0  0
  2 13  1  0  0  0  0
  4  1  1  1  0  0  0
  4 11  1  0  0  0  0
  5  9  2  0  0  0  0
  6  9  1  0  0  0  0
  6 14  2  0  0  0  0
  7 10  1  0  0  0  0
  8  1  2  0  0  0  0
  9  2  1  0  0  0  0
 11  3  1  1  0  0  0
 11  7  1  0  0  0  0
 12  7  1  0  0  0  0
 13 26  1  6  0  0  0
 13  3  1  0  0  0  0
 15 14  1  0  0  0  0
 15 16  2  0  0  0  0
 17 15  1  0  0  0  0
 18 17  2  0  0  0  0
 19 17  1  0  0  0  0
 19 21  1  0  0  0  0
 20 21  1  0  0  0  0
 20 23  1  0  0  0  0
 21 22  2  0  0  0  0
 23 25  1  0  0  0  0
 25 24  1  0  0  0  0
 26 27  1  6  0  0  0
 28 31  1  0  0  0  0
 29 26  1  6  0  0  0
 29 30  1  0  0  0  0
 30 33  1  1  0  0  0
 31 30  1  0  0  0  0
 32 28  1  0  0  0  0
 32 29  1  0  0  0  0
 33 34  1  0  0  0  0
 34 37  1  0  0  0  0
 37 35  2  0  0  0  0
 37 36  2  0  0  0  0
 37 39  1  0  0  0  0
 38 41  2  0  0  0  0
 38 40  1  0  0  0  0
 39 38  1  0  0  0  0
M  END
>  <MODEL>
8

>  <REMARK>
 VINA RESULT:      -6.6      4.021      9.523
  Name = 
  12 active torsions:
  status: ('A' for Active; 'I' for Inactive)
    1  A    between atoms: C_1  and  N_29
    2  A    between atoms: C_1  and  C_38
    3  A    between atoms: N_2  and  N_15
    4  A    between atoms: O_3  and  C_12
    5  A    between atoms: O_3  and  C_31
    6  A    between atoms: C_12  and  C_27
    7  A    between atoms: N_13  and  S_33
    8  A    between atoms: C_14  and  C_24
    9  A    between atoms: C_17  and  C_34
   10  A    between atoms: C_19  and  S_33
   11  A    between atoms: C_19  and  C_34
   12  A    between atoms: C_24  and  C_37
                            x       y       z     vdW  Elec       q    Type
                         _______ _______ _______ _____ _____    ______ ____

>  <TORSDO>
F 12

$$$$
=
 OpenBabel10222418433D

 41 43  0  0  1  0  0  0  0  0999 V2000
  182.3690  178.6430  142.7740 C   0  0  0  0  0  0  0  0  0  0  0  0
  183.2720  178.5400  140.4250 N   0  0  0  0  0  0  0  0  0  0  0  0
  185.3820  179.3210  141.2930 C   0  0  0  0  0  2  0  0  0  0  0  0
  183.3270  178.3380  141.8250 C   0  0  1  0  0  3  0  0  0  0  0  0
  181.2660  177.5660  139.7630 O   0  0  0  0  0  0  0  0  0  0  0  0
  181.7210  179.6220  138.7970 N   0  0  0  0  0  2  0  0  0  0  0  0
  184.2430  179.3150  143.5640 N   0  0  0  0  0  0  0  0  0  0  0  0
  181.1230  178.5110  142.6390 O   0  0  0  0  0  0  0  0  0  0  0  0
  182.0630  178.5330  139.6560 C   0  0  0  0  0  0  0  0  0  0  0  0
  185.1830  180.0820  144.3650 C   0  0  0  0  0  1  0  0  0  0  0  0
  184.4830  178.7830  142.3500 C   0  0  2  0  0  3  0  0  0  0  0  0
  182.9490  179.2220  143.8430 N   0  0  0  0  0  2  0  0  0  0  0  0
  184.5550  179.1140  139.9940 C   0  0  1  0  0  3  0  0  0  0  0  0
  182.5050  180.7830  138.7180 N   0  0  0  0  0  2  0  0  0  0  0  0
  182.0060  182.0420  138.2520 C   0  0  0  0  0  0  0  0  0  0  0  0
  182.7550  183.0500  138.3390 O   0  0  0  0  0  0  0  0  0  0  0  0
  180.6420  182.2280  137.7100 C   0  0  0  0  0  0  0  0  0  0  0  0
  179.6230  182.4990  138.5210 C   0  0  0  0  0  2  0  0  0  0  0  0
  180.4630  182.0510  136.3270 O   0  0  0  0  0  0  0  0  0  0  0  0
  181.0470  179.8020  135.4590 N   0  0  0  0  0  2  0  0  0  0  0  0
  180.1110  180.8670  135.6610 C   0  0  0  0  0  0  0  0  0  0  0  0
  178.9320  180.7470  135.2350 O   0  0  0  0  0  0  0  0  0  0  0  0
  180.6930  178.5520  134.8030 C   0  0  0  0  0  2  0  0  0  0  0  0
  181.7760  176.8420  136.2340 C   0  0  0  0  0  1  0  0  0  0  0  0
  180.4540  177.4680  135.8400 C   0  0  0  0  0  2  0  0  0  0  0  0
  185.2750  178.1640  139.0290 C   0  0  1  0  0  3  0  0  0  0  0  0
  184.5650  178.1050  137.8400 F   0  0  0  0  0  0  0  0  0  0  0  0
  188.1400  178.2790  136.9950 O   0  0  0  0  0  0  0  0  0  0  0  0
  186.7060  178.6290  138.7340 C   0  0  1  0  0  3  0  0  0  0  0  0
  187.7110  177.6120  139.1900 C   0  0  1  0  0  3  0  0  0  0  0  0
  188.3640  177.2290  137.8930 C   0  0  0  0  0  2  0  0  0  0  0  0
  186.9020  178.7610  137.2970 N   0  0  0  0  0  2  0  0  0  0  0  0
  188.7190  178.2930  140.1040 C   0  0  0  0  0  2  0  0  0  0  0  0
  189.8480  177.3390  140.4530 C   0  0  0  0  0  2  0  0  0  0  0  0
  190.6920  178.0470  142.8810 O   0  0  0  0  0  0  0  0  0  0  0  0
  190.4320  175.6420  142.4530 O   0  0  0  0  0  0  0  0  0  0  0  0
  189.8520  177.0040  142.2000 S   0  0  0  0  0  0  0  0  0  0  0  0
  187.9360  177.1600  144.2050 C   0  0  0  0  0  0  0  0  0  0  0  0
  188.2310  177.0690  142.8100 N   0  0  0  0  0  2  0  0  0  0  0  0
  186.6130  177.1060  144.6300 O   0  0  0  0  0  0  0  0  0  0  0  0
  188.8640  177.2820  145.0550 O   0  0  0  0  0  1  0  0  0  0  0  0
  1 12  1  0  0  0  0
  2  4  1  0  0  0  0
  4 11  1  0  0  0  0
  4  1  1  1  0  0  0
  6  9  1  0  0  0  0
  7 12  1  0  0  0  0
  7 10  1  0  0  0  0
  8  1  2  0  0  0  0
  9  5  2  0  0  0  0
  9  2  1  0  0  0  0
 11  3  1  6  0  0  0
 11  7  1  0  0  0  0
 13 26  1  6  0  0  0
 13  2  1  0  0  0  0
 13  3  1  0  0  0  0
 14  6  1  0  0  0  0
 15 16  2  0  0  0  0
 15 14  1  0  0  0  0
 17 15  1  0  0  0  0
 17 18  2  0  0  0  0
 19 17  1  0  0  0  0
 20 21  1  0  0  0  0
 21 19  1  0  0  0  0
 22 21  2  0  0  0  0
 23 20  1  0  0  0  0
 23 25  1  0  0  0  0
 25 24  1  0  0  0  0
 26 27  1  6  0  0  0
 28 32  1  0  0  0  0
 28 31  1  0  0  0  0
 29 26  1  6  0  0  0
 29 30  1  0  0  0  0
 30 33  1  1  0  0  0
 31 30  1  0  0  0  0
 32 29  1  0  0  0  0
 33 34  1  0  0  0  0
 34 37  1  0  0  0  0
 37 36  2  0  0  0  0
 37 39  1  0  0  0  0
 37 35  2  0  0  0  0
 38 40  2  0  0  0  0
 38 41  1  0  0  0  0
 39 38  1  0  0  0  0
M  END
>  <MODEL>
9

>  <REMARK>
 VINA RESULT:      -6.4      4.587      9.083
  Name = 
  12 active torsions:
  status: ('A' for Active; 'I' for Inactive)
    1  A    between atoms: C_1  and  N_29
    2  A    between atoms: C_1  and  C_38
    3  A    between atoms: N_2  and  N_15
    4  A    between atoms: O_3  and  C_12
    5  A    between atoms: O_3  and  C_31
    6  A    between atoms: C_12  and  C_27
    7  A    between atoms: N_13  and  S_33
    8  A    between atoms: C_14  and  C_24
    9  A    between atoms: C_17  and  C_34
   10  A    between atoms: C_19  and  S_33
   11  A    between atoms: C_19  and  C_34
   12  A    between atoms: C_24  and  C_37
                            x       y       z     vdW  Elec       q    Type
                         _______ _______ _______ _____ _____    ______ ____

>  <TORSDO>
F 12

$$$$
