=
 OpenBabel10222416353D

 32 34  0  0  1  0  0  0  0  0999 V2000
  185.7400  177.2570  136.9740 C   0  0  0  0  0  2  0  0  0  0  0  0
  187.1770  177.1740  136.4910 C   0  0  1  0  0  3  0  0  0  0  0  0
  187.9190  178.4760  136.8300 C   0  0  0  0  0  2  0  0  0  0  0  0
  187.8490  175.9190  137.0700 C   0  0  0  0  0  2  0  0  0  0  0  0
  188.7290  176.2450  138.2730 C   0  0  0  0  0  2  0  0  0  0  0  0
  189.8530  177.2170  137.8850 C   0  0  1  0  0  3  0  0  0  0  0  0
  189.4300  178.2570  136.8350 C   0  0  0  0  0  2  0  0  0  0  0  0
  190.3450  177.8960  139.0720 N   0  0  0  0  0  2  0  0  0  0  0  0
  189.3210  177.4000  140.4250 S   0  0  0  0  0  0  0  0  0  0  0  0
  190.7520  177.1720  141.5290 C   0  0  0  0  0  2  0  0  0  0  0  0
  191.3830  176.0540  143.7530 C   0  0  0  0  0  2  0  0  0  0  0  0
  190.9220  177.4590  144.0980 C   0  0  2  0  0  0  0  0  0  0  0  0
  190.3060  176.7290  142.9160 C   0  0  1  0  0  0  0  0  0  0  0  0
  191.8910  178.4240  143.8150 O   0  0  0  0  0  1  0  0  0  0  0  0
  190.1910  177.5560  145.4250 C   0  0  0  0  0  1  0  0  0  0  0  0
  188.9140  176.1480  143.1010 C   0  0  0  0  0  1  0  0  0  0  0  0
  185.4880  178.5370  137.5340 O   0  0  0  0  0  0  0  0  0  0  0  0
  184.0290  178.5210  141.7350 C   0  0  0  0  0  0  0  0  0  0  0  0
  185.5470  178.9400  139.8120 N   0  0  0  0  0  0  0  0  0  0  0  0
  183.1440  177.5720  141.0350 C   0  0  0  0  0  3  0  0  0  0  0  0
  185.1040  179.1010  141.1700 C   0  0  0  0  0  3  0  0  0  0  0  0
  183.3270  178.6670  138.8060 C   0  0  2  0  0  3  0  0  0  0  0  0
  182.8440  177.6060  139.7380 C   0  0  0  0  0  3  0  0  0  0  0  0
  184.8290  178.7090  138.7520 C   0  0  0  0  0  0  0  0  0  0  0  0
  182.8080  179.9170  139.1600 O   0  0  0  0  0  0  0  0  0  0  0  0
  181.8320  180.1920  138.1990 C   0  0  0  0  0  1  0  0  0  0  0  0
  183.7730  178.7330  143.1270 N   0  0  0  0  0  2  0  0  0  0  0  0
  184.4100  179.7370  143.8740 N   0  0  0  0  0  2  0  0  0  0  0  0
  184.9160  179.1170  145.0890 C   0  0  0  0  0  2  0  0  0  0  0  0
  185.9090  178.0170  144.7500 C   0  0  0  0  0  2  0  0  0  0  0  0
  186.7120  177.6040  145.9740 C   0  0  0  0  0  2  0  0  0  0  0  0
  186.3490  178.4660  147.1680 C   0  0  0  0  0  1  0  0  0  0  0  0
  1 17  1  0  0  0  0
  2  3  1  0  0  0  0
  2  1  1  1  0  0  0
  2  4  1  0  0  0  0
  3  7  1  0  0  0  0
  4  5  1  0  0  0  0
  6  5  1  0  0  0  0
  6  8  1  1  0  0  0
  7  6  1  0  0  0  0
  8  9  1  0  0  0  0
  9 10  1  0  0  0  0
 10 13  1  0  0  0  0
 11 12  1  0  0  0  0
 12 15  1  1  0  0  0
 13 16  1  1  0  0  0
 13 11  1  0  0  0  0
 13 12  1  0  0  0  0
 14 12  1  0  0  0  0
 17 24  1  0  0  0  0
 18 27  1  0  0  0  0
 19 21  1  0  0  0  0
 20 18  1  0  0  0  0
 21 18  2  0  0  0  0
 22 25  1  1  0  0  0
 22 23  1  0  0  0  0
 23 20  2  0  0  0  0
 24 22  1  0  0  0  0
 24 19  2  0  0  0  0
 26 25  1  0  0  0  0
 27 28  1  0  0  0  0
 28 29  1  0  0  0  0
 30 29  1  0  0  0  0
 30 31  1  0  0  0  0
 31 32  1  0  0  0  0
M  END
>  <MODEL>
1

>  <REMARK>
 VINA RESULT:      -6.7      0.000      0.000
  Name = 
  13 active torsions:
  status: ('A' for Active; 'I' for Inactive)
    1  A    between atoms: C_1  and  N_2
    2  A    between atoms: C_1  and  C_19
    3  A    between atoms: N_2  and  N_12
    4  A    between atoms: C_3  and  C_11
    5  A    between atoms: C_6  and  N_12
    6  A    between atoms: C_11  and  O_25
    7  A    between atoms: C_14  and  N_17
    8  A    between atoms: C_15  and  O_20
    9  A    between atoms: C_16  and  S_18
   10  A    between atoms: C_16  and  C_26
   11  A    between atoms: N_17  and  S_18
   12  A    between atoms: C_19  and  C_23
   13  A    between atoms: O_25  and  C_32
                            x       y       z     vdW  Elec       q    Type
                         _______ _______ _______ _____ _____    ______ ____

>  <TORSDO>
F 13

$$$$
=
 OpenBabel10222416353D

 32 34  0  0  1  0  0  0  0  0999 V2000
  184.5090  179.4770  144.0250 C   0  0  0  0  0  2  0  0  0  0  0  0
  184.8570  178.2790  144.8900 C   0  0  1  0  0  3  0  0  0  0  0  0
  186.2770  177.7910  144.5610 C   0  0  0  0  0  2  0  0  0  0  0  0
  184.6610  178.6310  146.3720 C   0  0  0  0  0  2  0  0  0  0  0  0
  185.9820  178.9630  147.0620 C   0  0  0  0  0  2  0  0  0  0  0  0
  186.9450  177.7690  147.0080 C   0  0  1  0  0  3  0  0  0  0  0  0
  186.8460  176.9580  145.7070 C   0  0  0  0  0  2  0  0  0  0  0  0
  188.3100  178.2330  147.1910 N   0  0  0  0  0  2  0  0  0  0  0  0
  189.3790  176.8530  146.9100 S   0  0  0  0  0  0  0  0  0  0  0  0
  190.5300  177.8460  145.9080 C   0  0  0  0  0  2  0  0  0  0  0  0
  189.8400  178.5440  143.5350 C   0  0  0  0  0  2  0  0  0  0  0  0
  191.3260  178.2390  143.4730 C   0  0  2  0  0  0  0  0  0  0  0  0
  190.4350  177.4700  144.4350 C   0  0  1  0  0  0  0  0  0  0  0  0
  192.1050  179.2660  144.0110 O   0  0  0  0  0  1  0  0  0  0  0  0
  191.7720  177.6240  142.1590 C   0  0  0  0  0  1  0  0  0  0  0  0
  190.0520  176.0500  144.0510 C   0  0  0  0  0  1  0  0  0  0  0  0
  183.5630  179.1020  143.0340 O   0  0  0  0  0  0  0  0  0  0  0  0
  185.2690  178.8480  138.9350 C   0  0  0  0  0  0  0  0  0  0  0  0
  185.1960  178.8170  141.4190 N   0  0  0  0  0  0  0  0  0  0  0  0
  183.9480  179.4730  138.7440 C   0  0  0  0  0  3  0  0  0  0  0  0
  185.8080  178.5840  140.1390 C   0  0  0  0  0  3  0  0  0  0  0  0
  182.8820  178.3980  140.7220 C   0  0  2  0  0  3  0  0  0  0  0  0
  182.8900  179.3060  139.5380 C   0  0  0  0  0  3  0  0  0  0  0  0
  183.9320  178.7920  141.7230 C   0  0  0  0  0  0  0  0  0  0  0  0
  183.0460  177.0650  140.3300 O   0  0  0  0  0  0  0  0  0  0  0  0
  181.7890  176.6630  139.8700 C   0  0  0  0  0  1  0  0  0  0  0  0
  186.0490  178.6220  137.7560 N   0  0  0  0  0  2  0  0  0  0  0  0
  187.0840  177.6760  137.6990 N   0  0  0  0  0  2  0  0  0  0  0  0
  188.3000  178.3850  137.3300 C   0  0  0  0  0  2  0  0  0  0  0  0
  189.1650  178.6300  138.5560 C   0  0  0  0  0  2  0  0  0  0  0  0
  189.2470  177.3850  139.4270 C   0  0  0  0  0  2  0  0  0  0  0  0
  190.3290  176.4490  138.9230 C   0  0  0  0  0  1  0  0  0  0  0  0
  2  1  1  6  0  0  0
  2  4  1  0  0  0  0
  3  2  1  0  0  0  0
  3  7  1  0  0  0  0
  4  5  1  0  0  0  0
  6  5  1  0  0  0  0
  6  8  1  6  0  0  0
  7  6  1  0  0  0  0
  9  8  1  0  0  0  0
 10  9  1  0  0  0  0
 11 13  1  0  0  0  0
 12 15  1  6  0  0  0
 12 11  1  0  0  0  0
 12 14  1  0  0  0  0
 12 13  1  0  0  0  0
 13 16  1  6  0  0  0
 13 10  1  0  0  0  0
 17  1  1  0  0  0  0
 18 21  2  0  0  0  0
 19 24  2  0  0  0  0
 20 18  1  0  0  0  0
 20 23  2  0  0  0  0
 21 19  1  0  0  0  0
 22 25  1  6  0  0  0
 22 24  1  0  0  0  0
 23 22  1  0  0  0  0
 24 17  1  0  0  0  0
 26 25  1  0  0  0  0
 27 18  1  0  0  0  0
 28 27  1  0  0  0  0
 29 28  1  0  0  0  0
 29 30  1  0  0  0  0
 30 31  1  0  0  0  0
 32 31  1  0  0  0  0
M  END
>  <MODEL>
2

>  <REMARK>
 VINA RESULT:      -6.6      2.110      6.057
  Name = 
  13 active torsions:
  status: ('A' for Active; 'I' for Inactive)
    1  A    between atoms: C_1  and  N_2
    2  A    between atoms: C_1  and  C_19
    3  A    between atoms: N_2  and  N_12
    4  A    between atoms: C_3  and  C_11
    5  A    between atoms: C_6  and  N_12
    6  A    between atoms: C_11  and  O_25
    7  A    between atoms: C_14  and  N_17
    8  A    between atoms: C_15  and  O_20
    9  A    between atoms: C_16  and  S_18
   10  A    between atoms: C_16  and  C_26
   11  A    between atoms: N_17  and  S_18
   12  A    between atoms: C_19  and  C_23
   13  A    between atoms: O_25  and  C_32
                            x       y       z     vdW  Elec       q    Type
                         _______ _______ _______ _____ _____    ______ ____

>  <TORSDO>
F 13

$$$$
=
 OpenBabel10222416353D

 32 34  0  0  1  0  0  0  0  0999 V2000
  190.5460  176.8690  139.5120 C   0  0  0  0  0  2  0  0  0  0  0  0
  189.9940  177.1230  138.1210 C   0  0  1  0  0  3  0  0  0  0  0  0
  189.3170  175.8520  137.5850 C   0  0  0  0  0  2  0  0  0  0  0  0
  189.0640  178.3460  138.1450 C   0  0  0  0  0  2  0  0  0  0  0  0
  187.5910  177.9450  138.1830 C   0  0  0  0  0  2  0  0  0  0  0  0
  187.2150  177.1190  136.9440 C   0  0  1  0  0  3  0  0  0  0  0  0
  188.3380  176.1870  136.4630 C   0  0  0  0  0  2  0  0  0  0  0  0
  186.0190  176.3410  137.2210 N   0  0  0  0  0  2  0  0  0  0  0  0
  184.6290  177.3190  136.7360 S   0  0  0  0  0  0  0  0  0  0  0  0
  183.9590  177.3500  138.4290 C   0  0  0  0  0  2  0  0  0  0  0  0
  182.4690  178.7880  139.9480 C   0  0  0  0  0  2  0  0  0  0  0  0
  183.1160  179.7420  138.9590 C   0  0  2  0  0  0  0  0  0  0  0  0
  182.7890  178.3200  138.5350 C   0  0  1  0  0  0  0  0  0  0  0  0
  184.4470  180.0210  139.2780 O   0  0  0  0  0  1  0  0  0  0  0  0
  182.2260  180.9030  138.5540 C   0  0  0  0  0  1  0  0  0  0  0  0
  181.5690  178.1150  137.6520 C   0  0  0  0  0  1  0  0  0  0  0  0
  190.0610  177.8530  140.4140 O   0  0  0  0  0  0  0  0  0  0  0  0
  188.5240  177.6750  144.5830 C   0  0  0  0  0  0  0  0  0  0  0  0
  188.4940  177.6110  142.0990 N   0  0  0  0  0  0  0  0  0  0  0  0
  189.8600  178.2840  144.7110 C   0  0  0  0  0  3  0  0  0  0  0  0
  187.9320  177.4040  143.4060 C   0  0  0  0  0  3  0  0  0  0  0  0
  190.8290  177.1690  142.7050 C   0  0  2  0  0  3  0  0  0  0  0  0
  190.8820  178.0930  143.8770 C   0  0  0  0  0  3  0  0  0  0  0  0
  189.7440  177.5650  141.7430 C   0  0  0  0  0  0  0  0  0  0  0  0
  190.6640  175.8440  143.1210 O   0  0  0  0  0  0  0  0  0  0  0  0
  191.7720  175.5740  143.9280 C   0  0  0  0  0  1  0  0  0  0  0  0
  187.7910  177.4750  145.7960 N   0  0  0  0  0  2  0  0  0  0  0  0
  186.4030  177.2590  145.8200 N   0  0  0  0  0  2  0  0  0  0  0  0
  185.8080  178.3540  146.5710 C   0  0  0  0  0  2  0  0  0  0  0  0
  184.5140  178.8070  145.9120 C   0  0  0  0  0  2  0  0  0  0  0  0
  184.6410  178.8120  144.3970 C   0  0  0  0  0  2  0  0  0  0  0  0
  183.2720  178.8590  143.7450 C   0  0  0  0  0  1  0  0  0  0  0  0
  1 17  1  0  0  0  0
  2  4  1  0  0  0  0
  2  1  1  1  0  0  0
  3  2  1  0  0  0  0
  4  5  1  0  0  0  0
  6  8  1  1  0  0  0
  6  5  1  0  0  0  0
  7  6  1  0  0  0  0
  7  3  1  0  0  0  0
  9  8  1  0  0  0  0
  9 10  1  0  0  0  0
 10 13  1  0  0  0  0
 12 15  1  6  0  0  0
 12 14  1  0  0  0  0
 12 11  1  0  0  0  0
 13 16  1  6  0  0  0
 13 12  1  0  0  0  0
 13 11  1  0  0  0  0
 17 24  1  0  0  0  0
 18 20  1  0  0  0  0
 18 27  1  0  0  0  0
 19 21  1  0  0  0  0
 21 18  2  0  0  0  0
 22 25  1  1  0  0  0
 22 23  1  0  0  0  0
 23 20  2  0  0  0  0
 24 19  2  0  0  0  0
 24 22  1  0  0  0  0
 25 26  1  0  0  0  0
 27 28  1  0  0  0  0
 28 29  1  0  0  0  0
 30 29  1  0  0  0  0
 31 30  1  0  0  0  0
 32 31  1  0  0  0  0
M  END
>  <MODEL>
3

>  <REMARK>
 VINA RESULT:      -6.5      2.234      6.648
  Name = 
  13 active torsions:
  status: ('A' for Active; 'I' for Inactive)
    1  A    between atoms: C_1  and  N_2
    2  A    between atoms: C_1  and  C_19
    3  A    between atoms: N_2  and  N_12
    4  A    between atoms: C_3  and  C_11
    5  A    between atoms: C_6  and  N_12
    6  A    between atoms: C_11  and  O_25
    7  A    between atoms: C_14  and  N_17
    8  A    between atoms: C_15  and  O_20
    9  A    between atoms: C_16  and  S_18
   10  A    between atoms: C_16  and  C_26
   11  A    between atoms: N_17  and  S_18
   12  A    between atoms: C_19  and  C_23
   13  A    between atoms: O_25  and  C_32
                            x       y       z     vdW  Elec       q    Type
                         _______ _______ _______ _____ _____    ______ ____

>  <TORSDO>
F 13

$$$$
=
 OpenBabel10222416353D

 32 34  0  0  1  0  0  0  0  0999 V2000
  188.7180  177.6640  139.9450 C   0  0  0  0  0  2  0  0  0  0  0  0
  189.9720  177.8010  139.1000 C   0  0  1  0  0  3  0  0  0  0  0  0
  190.9830  176.7080  139.4810 C   0  0  0  0  0  2  0  0  0  0  0  0
  189.6000  177.7960  137.6100 C   0  0  0  0  0  2  0  0  0  0  0  0
  189.8400  176.4330  136.9650 C   0  0  0  0  0  2  0  0  0  0  0  0
  191.3200  176.0330  137.0600 C   0  0  1  0  0  3  0  0  0  0  0  0
  191.9970  176.4880  138.3620 C   0  0  0  0  0  2  0  0  0  0  0  0
  191.4470  174.5920  136.9220 N   0  0  0  0  0  2  0  0  0  0  0  0
  192.6210  174.2870  135.6360 S   0  0  0  0  0  0  0  0  0  0  0  0
  193.7020  173.3240  136.7410 C   0  0  0  0  0  2  0  0  0  0  0  0
  195.0800  174.4850  138.5720 C   0  0  0  0  0  2  0  0  0  0  0  0
  195.9750  173.4100  137.9820 C   0  0  2  0  0  0  0  0  0  0  0  0
  194.9550  174.1120  137.1010 C   0  0  1  0  0  0  0  0  0  0  0  0
  195.6490  172.1320  138.4390 O   0  0  0  0  0  1  0  0  0  0  0  0
  197.4440  173.7930  137.9350 C   0  0  0  0  0  1  0  0  0  0  0  0
  195.4700  175.1720  136.1410 C   0  0  0  0  0  1  0  0  0  0  0  0
  188.8260  178.4700  141.1080 O   0  0  0  0  0  0  0  0  0  0  0  0
  191.0620  177.2730  144.7610 C   0  0  0  0  0  0  0  0  0  0  0  0
  189.9690  178.7620  143.0990 N   0  0  0  0  0  0  0  0  0  0  0  0
  191.0780  176.0700  143.9100 C   0  0  0  0  0  3  0  0  0  0  0  0
  190.5780  178.4650  144.3670 C   0  0  0  0  0  3  0  0  0  0  0  0
  188.9350  176.5670  142.7430 C   0  0  2  0  0  3  0  0  0  0  0  0
  190.1620  175.7550  142.9960 C   0  0  0  0  0  3  0  0  0  0  0  0
  189.2810  177.9700  142.3300 C   0  0  0  0  0  0  0  0  0  0  0  0
  188.0990  176.5720  143.8660 O   0  0  0  0  0  0  0  0  0  0  0  0
  186.9420  177.2380  143.4550 C   0  0  0  0  0  1  0  0  0  0  0  0
  191.7060  177.1680  146.0350 N   0  0  0  0  0  2  0  0  0  0  0  0
  191.2490  176.3130  147.0510 N   0  0  0  0  0  2  0  0  0  0  0  0
  189.8390  176.6070  147.2630 C   0  0  0  0  0  2  0  0  0  0  0  0
  189.6800  177.8490  148.1250 C   0  0  0  0  0  2  0  0  0  0  0  0
  188.2110  178.1720  148.3570 C   0  0  0  0  0  2  0  0  0  0  0  0
  187.4070  177.9510  147.0900 C   0  0  0  0  0  1  0  0  0  0  0  0
  1 17  1  0  0  0  0
  2  3  1  0  0  0  0
  2  1  1  1  0  0  0
  4  2  1  0  0  0  0
  5  6  1  0  0  0  0
  5  4  1  0  0  0  0
  6  8  1  1  0  0  0
  6  7  1  0  0  0  0
  7  3  1  0  0  0  0
  9 10  1  0  0  0  0
  9  8  1  0  0  0  0
 10 13  1  0  0  0  0
 12 15  1  6  0  0  0
 12 14  1  0  0  0  0
 12 11  1  0  0  0  0
 13 16  1  6  0  0  0
 13 12  1  0  0  0  0
 13 11  1  0  0  0  0
 17 24  1  0  0  0  0
 18 27  1  0  0  0  0
 19 21  1  0  0  0  0
 20 18  1  0  0  0  0
 21 18  2  0  0  0  0
 22 23  1  0  0  0  0
 22 25  1  1  0  0  0
 23 20  2  0  0  0  0
 24 22  1  0  0  0  0
 24 19  2  0  0  0  0
 26 25  1  0  0  0  0
 27 28  1  0  0  0  0
 28 29  1  0  0  0  0
 29 30  1  0  0  0  0
 30 31  1  0  0  0  0
 32 31  1  0  0  0  0
M  END
>  <MODEL>
4

>  <REMARK>
 VINA RESULT:      -6.5      4.418      6.579
  Name = 
  13 active torsions:
  status: ('A' for Active; 'I' for Inactive)
    1  A    between atoms: C_1  and  N_2
    2  A    between atoms: C_1  and  C_19
    3  A    between atoms: N_2  and  N_12
    4  A    between atoms: C_3  and  C_11
    5  A    between atoms: C_6  and  N_12
    6  A    between atoms: C_11  and  O_25
    7  A    between atoms: C_14  and  N_17
    8  A    between atoms: C_15  and  O_20
    9  A    between atoms: C_16  and  S_18
   10  A    between atoms: C_16  and  C_26
   11  A    between atoms: N_17  and  S_18
   12  A    between atoms: C_19  and  C_23
   13  A    between atoms: O_25  and  C_32
                            x       y       z     vdW  Elec       q    Type
                         _______ _______ _______ _____ _____    ______ ____

>  <TORSDO>
F 13

$$$$
=
 OpenBabel10222416353D

 32 34  0  0  1  0  0  0  0  0999 V2000
  184.4630  178.1150  141.9220 C   0  0  0  0  0  2  0  0  0  0  0  0
  183.4410  178.5010  140.8680 C   0  0  1  0  0  3  0  0  0  0  0  0
  184.1100  179.3440  139.7720 C   0  0  0  0  0  2  0  0  0  0  0  0
  182.7460  177.2400  140.3300 C   0  0  0  0  0  2  0  0  0  0  0  0
  183.3210  176.7990  138.9860 C   0  0  0  0  0  2  0  0  0  0  0  0
  183.1440  177.8970  137.9260 C   0  0  1  0  0  3  0  0  0  0  0  0
  183.2870  179.3210  138.4860 C   0  0  0  0  0  2  0  0  0  0  0  0
  184.1000  177.6970  136.8510 N   0  0  0  0  0  2  0  0  0  0  0  0
  185.3030  176.5350  137.4240 S   0  0  0  0  0  0  0  0  0  0  0  0
  186.6100  177.8010  137.4940 C   0  0  0  0  0  2  0  0  0  0  0  0
  188.9610  177.9690  136.4740 C   0  0  0  0  0  2  0  0  0  0  0  0
  189.1530  177.9030  137.9780 C   0  0  2  0  0  0  0  0  0  0  0  0
  187.9880  177.1730  137.3320 C   0  0  1  0  0  0  0  0  0  0  0  0
  188.8730  179.1190  138.6060 O   0  0  0  0  0  1  0  0  0  0  0  0
  190.4050  177.1570  138.4050 C   0  0  0  0  0  1  0  0  0  0  0  0
  188.1060  175.6660  137.1780 C   0  0  0  0  0  1  0  0  0  0  0  0
  185.7700  178.4420  141.4730 O   0  0  0  0  0  0  0  0  0  0  0  0
  189.7810  177.4000  143.0880 C   0  0  0  0  0  0  0  0  0  0  0  0
  188.0520  178.6400  141.8030 N   0  0  0  0  0  0  0  0  0  0  0  0
  188.9580  176.2060  143.3500 C   0  0  0  0  0  3  0  0  0  0  0  0
  189.3570  178.4630  142.3790 C   0  0  0  0  0  3  0  0  0  0  0  0
  186.7980  177.4320  143.5300 C   0  0  2  0  0  3  0  0  0  0  0  0
  187.6370  176.1970  143.5220 C   0  0  0  0  0  3  0  0  0  0  0  0
  186.9130  178.1820  142.2320 C   0  0  0  0  0  0  0  0  0  0  0  0
  187.1310  178.2560  144.6100 O   0  0  0  0  0  0  0  0  0  0  0  0
  186.2360  177.9070  145.6250 C   0  0  0  0  0  1  0  0  0  0  0  0
  191.1420  177.3530  143.5290 N   0  0  0  0  0  2  0  0  0  0  0  0
  191.5380  177.7430  144.8180 N   0  0  0  0  0  2  0  0  0  0  0  0
  191.6600  176.5340  145.6180 C   0  0  0  0  0  2  0  0  0  0  0  0
  191.1080  176.7650  147.0160 C   0  0  0  0  0  2  0  0  0  0  0  0
  189.5940  176.9050  146.9930 C   0  0  0  0  0  2  0  0  0  0  0  0
  189.1340  177.9200  148.0220 C   0  0  0  0  0  1  0  0  0  0  0  0
  2  1  1  1  0  0  0
  3  2  1  0  0  0  0
  4  2  1  0  0  0  0
  5  4  1  0  0  0  0
  6  8  1  6  0  0  0
  6  7  1  0  0  0  0
  6  5  1  0  0  0  0
  7  3  1  0  0  0  0
  8  9  1  0  0  0  0
  9 10  1  0  0  0  0
 11 13  1  0  0  0  0
 11 12  1  0  0  0  0
 12 15  1  1  0  0  0
 12 14  1  0  0  0  0
 13 16  1  6  0  0  0
 13 10  1  0  0  0  0
 13 12  1  0  0  0  0
 17  1  1  0  0  0  0
 17 24  1  0  0  0  0
 18 20  1  0  0  0  0
 18 27  1  0  0  0  0
 19 24  2  0  0  0  0
 19 21  1  0  0  0  0
 20 23  2  0  0  0  0
 21 18  2  0  0  0  0
 22 25  1  1  0  0  0
 23 22  1  0  0  0  0
 24 22  1  0  0  0  0
 25 26  1  0  0  0  0
 27 28  1  0  0  0  0
 28 29  1  0  0  0  0
 29 30  1  0  0  0  0
 31 30  1  0  0  0  0
 31 32  1  0  0  0  0
M  END
>  <MODEL>
5

>  <REMARK>
 VINA RESULT:      -6.5      2.508      6.046
  Name = 
  13 active torsions:
  status: ('A' for Active; 'I' for Inactive)
    1  A    between atoms: C_1  and  N_2
    2  A    between atoms: C_1  and  C_19
    3  A    between atoms: N_2  and  N_12
    4  A    between atoms: C_3  and  C_11
    5  A    between atoms: C_6  and  N_12
    6  A    between atoms: C_11  and  O_25
    7  A    between atoms: C_14  and  N_17
    8  A    between atoms: C_15  and  O_20
    9  A    between atoms: C_16  and  S_18
   10  A    between atoms: C_16  and  C_26
   11  A    between atoms: N_17  and  S_18
   12  A    between atoms: C_19  and  C_23
   13  A    between atoms: O_25  and  C_32
                            x       y       z     vdW  Elec       q    Type
                         _______ _______ _______ _____ _____    ______ ____

>  <TORSDO>
F 13

$$$$
=
 OpenBabel10222416353D

 32 34  0  0  1  0  0  0  0  0999 V2000
  185.4840  179.3800  142.2910 C   0  0  0  0  0  2  0  0  0  0  0  0
  185.3580  178.2540  143.3010 C   0  0  1  0  0  3  0  0  0  0  0  0
  186.7530  177.7570  143.7100 C   0  0  0  0  0  2  0  0  0  0  0  0
  184.5010  178.7150  144.4910 C   0  0  0  0  0  2  0  0  0  0  0  0
  185.3560  179.1120  145.6920 C   0  0  0  0  0  2  0  0  0  0  0  0
  186.2010  177.9260  146.1800 C   0  0  1  0  0  3  0  0  0  0  0  0
  186.7000  177.0180  145.0450 C   0  0  0  0  0  2  0  0  0  0  0  0
  187.3350  178.4170  146.9460 N   0  0  0  0  0  2  0  0  0  0  0  0
  188.5620  177.1440  146.9470 S   0  0  0  0  0  0  0  0  0  0  0  0
  189.7030  178.1340  145.9290 C   0  0  0  0  0  2  0  0  0  0  0  0
  189.8520  176.5370  143.9230 C   0  0  0  0  0  2  0  0  0  0  0  0
  190.8050  177.6820  143.6280 C   0  0  2  0  0  0  0  0  0  0  0  0
  190.5780  177.2370  145.0630 C   0  0  1  0  0  0  0  0  0  0  0  0
  190.1400  178.8360  143.2070 O   0  0  0  0  0  1  0  0  0  0  0  0
  192.0500  177.2640  142.8660 C   0  0  0  0  0  1  0  0  0  0  0  0
  191.6670  176.4020  145.7170 C   0  0  0  0  0  1  0  0  0  0  0  0
  185.3160  178.8730  140.9760 O   0  0  0  0  0  0  0  0  0  0  0  0
  181.5250  180.1210  139.0120 C   0  0  0  0  0  0  0  0  0  0  0  0
  183.9620  180.0230  139.4920 N   0  0  0  0  0  0  0  0  0  0  0  0
  181.0930  179.4390  140.2450 C   0  0  0  0  0  3  0  0  0  0  0  0
  182.8100  180.3850  138.7120 C   0  0  0  0  0  3  0  0  0  0  0  0
  183.0650  177.9250  140.3920 C   0  0  2  0  0  3  0  0  0  0  0  0
  181.7720  178.4850  140.8820 C   0  0  0  0  0  3  0  0  0  0  0  0
  184.1160  178.9930  140.2710 C   0  0  0  0  0  0  0  0  0  0  0  0
  182.8910  177.2610  139.1720 O   0  0  0  0  0  0  0  0  0  0  0  0
  182.3570  176.0150  139.5090 C   0  0  0  0  0  1  0  0  0  0  0  0
  180.4910  180.6200  138.1570 N   0  0  0  0  0  2  0  0  0  0  0  0
  180.7230  181.0000  136.8250 N   0  0  0  0  0  2  0  0  0  0  0  0
  180.2400  182.3640  136.6740 C   0  0  0  0  0  2  0  0  0  0  0  0
  181.1020  183.3240  137.4790 C   0  0  0  0  0  2  0  0  0  0  0  0
  181.1470  184.6990  136.8300 C   0  0  0  0  0  2  0  0  0  0  0  0
  180.8080  184.6050  135.3540 C   0  0  0  0  0  1  0  0  0  0  0  0
  2  1  1  6  0  0  0
  2  3  1  0  0  0  0
  2  4  1  0  0  0  0
  3  7  1  0  0  0  0
  4  5  1  0  0  0  0
  5  6  1  0  0  0  0
  6  8  1  6  0  0  0
  7  6  1  0  0  0  0
  8  9  1  0  0  0  0
 10  9  1  0  0  0  0
 11 13  1  0  0  0  0
 12 15  1  6  0  0  0
 12 11  1  0  0  0  0
 12 13  1  0  0  0  0
 13 16  1  1  0  0  0
 13 10  1  0  0  0  0
 14 12  1  0  0  0  0
 17  1  1  0  0  0  0
 18 20  1  0  0  0  0
 19 24  2  0  0  0  0
 20 23  2  0  0  0  0
 21 18  2  0  0  0  0
 21 19  1  0  0  0  0
 22 25  1  6  0  0  0
 22 23  1  0  0  0  0
 24 22  1  0  0  0  0
 24 17  1  0  0  0  0
 25 26  1  0  0  0  0
 27 18  1  0  0  0  0
 28 27  1  0  0  0  0
 29 28  1  0  0  0  0
 29 30  1  0  0  0  0
 31 30  1  0  0  0  0
 32 31  1  0  0  0  0
M  END
>  <MODEL>
6

>  <REMARK>
 VINA RESULT:      -6.3      3.448      6.581
  Name = 
  13 active torsions:
  status: ('A' for Active; 'I' for Inactive)
    1  A    between atoms: C_1  and  N_2
    2  A    between atoms: C_1  and  C_19
    3  A    between atoms: N_2  and  N_12
    4  A    between atoms: C_3  and  C_11
    5  A    between atoms: C_6  and  N_12
    6  A    between atoms: C_11  and  O_25
    7  A    between atoms: C_14  and  N_17
    8  A    between atoms: C_15  and  O_20
    9  A    between atoms: C_16  and  S_18
   10  A    between atoms: C_16  and  C_26
   11  A    between atoms: N_17  and  S_18
   12  A    between atoms: C_19  and  C_23
   13  A    between atoms: O_25  and  C_32
                            x       y       z     vdW  Elec       q    Type
                         _______ _______ _______ _____ _____    ______ ____

>  <TORSDO>
F 13

$$$$
=
 OpenBabel10222416353D

 32 34  0  0  1  0  0  0  0  0999 V2000
  190.6890  176.4040  139.2920 C   0  0  0  0  0  2  0  0  0  0  0  0
  190.5450  177.1840  137.9980 C   0  0  1  0  0  3  0  0  0  0  0  0
  190.3360  176.2170  136.8220 C   0  0  0  0  0  2  0  0  0  0  0  0
  189.4250  178.2260  138.1390 C   0  0  0  0  0  2  0  0  0  0  0  0
  188.1240  177.7580  137.4920 C   0  0  0  0  0  2  0  0  0  0  0  0
  188.3170  177.5060  135.9890 C   0  0  1  0  0  3  0  0  0  0  0  0
  189.6970  176.9320  135.6340 C   0  0  0  0  0  2  0  0  0  0  0  0
  187.2770  176.6130  135.5050 N   0  0  0  0  0  2  0  0  0  0  0  0
  186.4070  176.0020  136.9170 S   0  0  0  0  0  0  0  0  0  0  0  0
  184.8460  176.7790  136.3910 C   0  0  0  0  0  2  0  0  0  0  0  0
  182.5530  177.4220  137.3530 C   0  0  0  0  0  2  0  0  0  0  0  0
  183.0730  176.2850  138.2150 C   0  0  2  0  0  0  0  0  0  0  0  0
  184.0490  177.2700  137.5930 C   0  0  1  0  0  0  0  0  0  0  0  0
  182.9420  175.0400  137.5950 O   0  0  0  0  0  1  0  0  0  0  0  0
  182.6780  176.3930  139.6770 C   0  0  0  0  0  1  0  0  0  0  0  0
  184.6480  178.3300  138.5010 C   0  0  0  0  0  1  0  0  0  0  0  0
  191.2730  177.2250  140.2920 O   0  0  0  0  0  0  0  0  0  0  0  0
  189.9980  177.4610  144.5450 C   0  0  0  0  0  0  0  0  0  0  0  0
  191.4150  177.7920  142.5310 N   0  0  0  0  0  0  0  0  0  0  0  0
  189.1190  176.4360  143.9550 C   0  0  0  0  0  3  0  0  0  0  0  0
  191.0260  178.0350  143.8930 C   0  0  0  0  0  3  0  0  0  0  0  0
  189.1650  177.3730  141.6480 C   0  0  2  0  0  3  0  0  0  0  0  0
  188.7610  176.3670  142.6730 C   0  0  0  0  0  3  0  0  0  0  0  0
  190.6610  177.4610  141.5240 C   0  0  0  0  0  0  0  0  0  0  0  0
  188.6170  178.6280  141.9370 O   0  0  0  0  0  0  0  0  0  0  0  0
  187.3610  178.6270  141.3260 C   0  0  0  0  0  1  0  0  0  0  0  0
  189.7940  177.7630  145.9300 N   0  0  0  0  0  2  0  0  0  0  0  0
  188.8180  177.1250  146.7120 N   0  0  0  0  0  2  0  0  0  0  0  0
  187.7150  178.0590  146.8750 C   0  0  0  0  0  2  0  0  0  0  0  0
  186.4690  177.5370  146.1780 C   0  0  0  0  0  2  0  0  0  0  0  0
  185.2770  178.4480  146.4260 C   0  0  0  0  0  2  0  0  0  0  0  0
  184.7440  179.0000  145.1170 C   0  0  0  0  0  1  0  0  0  0  0  0
  1 17  1  0  0  0  0
  2  4  1  0  0  0  0
  2  1  1  1  0  0  0
  3  2  1  0  0  0  0
  5  4  1  0  0  0  0
  6  8  1  1  0  0  0
  6  5  1  0  0  0  0
  7  6  1  0  0  0  0
  7  3  1  0  0  0  0
  8  9  1  0  0  0  0
 10  9  1  0  0  0  0
 10 13  1  0  0  0  0
 11 13  1  0  0  0  0
 11 12  1  0  0  0  0
 12 15  1  1  0  0  0
 13 12  1  0  0  0  0
 13 16  1  1  0  0  0
 14 12  1  0  0  0  0
 17 24  1  0  0  0  0
 18 27  1  0  0  0  0
 19 21  1  0  0  0  0
 20 18  1  0  0  0  0
 21 18  2  0  0  0  0
 22 25  1  1  0  0  0
 22 23  1  0  0  0  0
 23 20  2  0  0  0  0
 24 22  1  0  0  0  0
 24 19  2  0  0  0  0
 26 25  1  0  0  0  0
 27 28  1  0  0  0  0
 28 29  1  0  0  0  0
 30 31  1  0  0  0  0
 30 29  1  0  0  0  0
 32 31  1  0  0  0  0
M  END
>  <MODEL>
7

>  <REMARK>
 VINA RESULT:      -6.3      2.822      6.320
  Name = 
  13 active torsions:
  status: ('A' for Active; 'I' for Inactive)
    1  A    between atoms: C_1  and  N_2
    2  A    between atoms: C_1  and  C_19
    3  A    between atoms: N_2  and  N_12
    4  A    between atoms: C_3  and  C_11
    5  A    between atoms: C_6  and  N_12
    6  A    between atoms: C_11  and  O_25
    7  A    between atoms: C_14  and  N_17
    8  A    between atoms: C_15  and  O_20
    9  A    between atoms: C_16  and  S_18
   10  A    between atoms: C_16  and  C_26
   11  A    between atoms: N_17  and  S_18
   12  A    between atoms: C_19  and  C_23
   13  A    between atoms: O_25  and  C_32
                            x       y       z     vdW  Elec       q    Type
                         _______ _______ _______ _____ _____    ______ ____

>  <TORSDO>
F 13

$$$$
=
 OpenBabel10222416353D

 32 34  0  0  1  0  0  0  0  0999 V2000
  182.2640  178.6830  144.0280 C   0  0  0  0  0  2  0  0  0  0  0  0
  183.5860  179.3110  144.4330 C   0  0  1  0  0  3  0  0  0  0  0  0
  184.1360  178.6140  145.6860 C   0  0  0  0  0  2  0  0  0  0  0  0
  184.5590  179.2870  143.2440 C   0  0  0  0  0  2  0  0  0  0  0  0
  185.5670  178.1450  143.3520 C   0  0  0  0  0  2  0  0  0  0  0  0
  186.4160  178.2810  144.6250 C   0  0  1  0  0  3  0  0  0  0  0  0
  185.6390  178.8450  145.8240 C   0  0  0  0  0  2  0  0  0  0  0  0
  186.9820  176.9880  144.9740 N   0  0  0  0  0  2  0  0  0  0  0  0
  187.9250  176.4330  143.5860 S   0  0  0  0  0  0  0  0  0  0  0  0
  189.1850  177.7260  143.8240 C   0  0  0  0  0  2  0  0  0  0  0  0
  191.5040  178.1210  144.8560 C   0  0  0  0  0  2  0  0  0  0  0  0
  190.7870  177.1510  145.7780 C   0  0  2  0  0  0  0  0  0  0  0  0
  190.5060  177.1240  144.2850 C   0  0  1  0  0  0  0  0  0  0  0  0
  189.8440  177.7830  146.5910 O   0  0  0  0  0  1  0  0  0  0  0  0
  191.7030  176.1250  146.4200 C   0  0  0  0  0  1  0  0  0  0  0  0
  191.1370  176.0030  143.4740 C   0  0  0  0  0  1  0  0  0  0  0  0
  181.7670  179.3100  142.8560 O   0  0  0  0  0  0  0  0  0  0  0  0
  180.5230  176.3860  139.7450 C   0  0  0  0  0  0  0  0  0  0  0  0
  180.3170  177.9680  141.6500 N   0  0  0  0  0  0  0  0  0  0  0  0
  181.9900  176.2660  139.7950 C   0  0  0  0  0  3  0  0  0  0  0  0
  179.8010  177.1380  140.5970 C   0  0  0  0  0  3  0  0  0  0  0  0
  182.4030  178.6100  140.5290 C   0  0  2  0  0  3  0  0  0  0  0  0
  182.8350  177.2290  140.1640 C   0  0  0  0  0  3  0  0  0  0  0  0
  181.4550  178.5980  141.6960 C   0  0  0  0  0  0  0  0  0  0  0  0
  181.8290  179.2610  139.4320 O   0  0  0  0  0  0  0  0  0  0  0  0
  182.8960  179.8810  138.7770 C   0  0  0  0  0  1  0  0  0  0  0  0
  179.8420  175.5570  138.7970 N   0  0  0  0  0  2  0  0  0  0  0  0
  179.8320  174.1550  138.8800 N   0  0  0  0  0  2  0  0  0  0  0  0
  180.1380  173.6410  137.5540 C   0  0  0  0  0  2  0  0  0  0  0  0
  181.6260  173.3540  137.4260 C   0  0  0  0  0  2  0  0  0  0  0  0
  181.8730  172.0720  136.6460 C   0  0  0  0  0  2  0  0  0  0  0  0
  183.2960  171.5880  136.8500 C   0  0  0  0  0  1  0  0  0  0  0  0
  2  1  1  6  0  0  0
  2  3  1  0  0  0  0
  3  7  1  0  0  0  0
  4  5  1  0  0  0  0
  4  2  1  0  0  0  0
  5  6  1  0  0  0  0
  6  8  1  1  0  0  0
  6  7  1  0  0  0  0
  9 10  1  0  0  0  0
  9  8  1  0  0  0  0
 10 13  1  0  0  0  0
 11 12  1  0  0  0  0
 12 15  1  1  0  0  0
 12 14  1  0  0  0  0
 13 16  1  6  0  0  0
 13 11  1  0  0  0  0
 13 12  1  0  0  0  0
 17  1  1  0  0  0  0
 18 20  1  0  0  0  0
 18 21  2  0  0  0  0
 19 24  2  0  0  0  0
 20 23  2  0  0  0  0
 21 19  1  0  0  0  0
 22 25  1  6  0  0  0
 22 24  1  0  0  0  0
 23 22  1  0  0  0  0
 24 17  1  0  0  0  0
 26 25  1  0  0  0  0
 27 28  1  0  0  0  0
 27 18  1  0  0  0  0
 29 28  1  0  0  0  0
 30 29  1  0  0  0  0
 31 32  1  0  0  0  0
 31 30  1  0  0  0  0
M  END
>  <MODEL>
8

>  <REMARK>
 VINA RESULT:      -6.2      3.625      6.567
  Name = 
  13 active torsions:
  status: ('A' for Active; 'I' for Inactive)
    1  A    between atoms: C_1  and  N_2
    2  A    between atoms: C_1  and  C_19
    3  A    between atoms: N_2  and  N_12
    4  A    between atoms: C_3  and  C_11
    5  A    between atoms: C_6  and  N_12
    6  A    between atoms: C_11  and  O_25
    7  A    between atoms: C_14  and  N_17
    8  A    between atoms: C_15  and  O_20
    9  A    between atoms: C_16  and  S_18
   10  A    between atoms: C_16  and  C_26
   11  A    between atoms: N_17  and  S_18
   12  A    between atoms: C_19  and  C_23
   13  A    between atoms: O_25  and  C_32
                            x       y       z     vdW  Elec       q    Type
                         _______ _______ _______ _____ _____    ______ ____

>  <TORSDO>
F 13

$$$$
=
 OpenBabel10222416353D

 32 34  0  0  1  0  0  0  0  0999 V2000
  182.5680  178.4120  143.8090 C   0  0  0  0  0  2  0  0  0  0  0  0
  183.6700  179.2160  144.4760 C   0  0  1  0  0  3  0  0  0  0  0  0
  184.0460  178.5740  145.8210 C   0  0  0  0  0  2  0  0  0  0  0  0
  184.8600  179.3650  143.5170 C   0  0  0  0  0  2  0  0  0  0  0  0
  185.9820  178.3800  143.8380 C   0  0  0  0  0  2  0  0  0  0  0  0
  186.5190  178.6050  145.2590 C   0  0  1  0  0  3  0  0  0  0  0  0
  185.4360  179.0180  146.2680 C   0  0  0  0  0  2  0  0  0  0  0  0
  187.1860  177.4000  145.7260 N   0  0  0  0  0  2  0  0  0  0  0  0
  188.7180  177.8940  146.4560 S   0  0  0  0  0  0  0  0  0  0  0  0
  189.6760  176.7490  145.4140 C   0  0  0  0  0  2  0  0  0  0  0  0
  190.6720  176.4470  143.0660 C   0  0  0  0  0  2  0  0  0  0  0  0
  189.2220  176.8520  142.8650 C   0  0  2  0  0  0  0  0  0  0  0  0
  189.9950  177.3770  144.0630 C   0  0  1  0  0  0  0  0  0  0  0  0
  188.3360  175.7960  143.0920 O   0  0  0  0  0  1  0  0  0  0  0  0
  188.9910  177.7200  141.6410 C   0  0  0  0  0  1  0  0  0  0  0  0
  190.4810  178.8150  144.0060 C   0  0  0  0  0  1  0  0  0  0  0  0
  182.0190  179.1480  142.7260 O   0  0  0  0  0  0  0  0  0  0  0  0
  183.0990  177.8930  138.5990 C   0  0  0  0  0  0  0  0  0  0  0  0
  183.0210  177.8630  141.0830 N   0  0  0  0  0  0  0  0  0  0  0  0
  182.5590  179.2550  138.4380 C   0  0  0  0  0  3  0  0  0  0  0  0
  183.3120  177.3050  139.7910 C   0  0  0  0  0  3  0  0  0  0  0  0
  181.0430  179.1500  140.4120 C   0  0  2  0  0  3  0  0  0  0  0  0
  181.6710  179.8360  139.2440 C   0  0  0  0  0  3  0  0  0  0  0  0
  182.0780  178.7000  141.4050 C   0  0  0  0  0  0  0  0  0  0  0  0
  180.2550  178.0730  139.9940 O   0  0  0  0  0  0  0  0  0  0  0  0
  179.3270  177.8800  141.0210 C   0  0  0  0  0  1  0  0  0  0  0  0
  183.5170  177.2220  137.4050 N   0  0  0  0  0  2  0  0  0  0  0  0
  184.7110  176.4880  137.3230 N   0  0  0  0  0  2  0  0  0  0  0  0
  185.6790  177.3120  136.6150 C   0  0  0  0  0  2  0  0  0  0  0  0
  186.6450  177.9570  137.5960 C   0  0  0  0  0  2  0  0  0  0  0  0
  187.6640  178.8240  136.8740 C   0  0  0  0  0  2  0  0  0  0  0  0
  189.0240  178.7190  137.5380 C   0  0  0  0  0  1  0  0  0  0  0  0
  2  1  1  6  0  0  0
  2  3  1  0  0  0  0
  3  7  1  0  0  0  0
  4  5  1  0  0  0  0
  4  2  1  0  0  0  0
  5  6  1  0  0  0  0
  6  8  1  1  0  0  0
  6  7  1  0  0  0  0
  8  9  1  0  0  0  0
 10  9  1  0  0  0  0
 11 13  1  0  0  0  0
 12 15  1  6  0  0  0
 12 11  1  0  0  0  0
 12 14  1  0  0  0  0
 12 13  1  0  0  0  0
 13 16  1  6  0  0  0
 13 10  1  0  0  0  0
 17  1  1  0  0  0  0
 18 21  2  0  0  0  0
 19 24  2  0  0  0  0
 20 18  1  0  0  0  0
 20 23  2  0  0  0  0
 21 19  1  0  0  0  0
 22 25  1  6  0  0  0
 22 24  1  0  0  0  0
 23 22  1  0  0  0  0
 24 17  1  0  0  0  0
 25 26  1  0  0  0  0
 27 18  1  0  0  0  0
 28 27  1  0  0  0  0
 29 28  1  0  0  0  0
 29 30  1  0  0  0  0
 31 32  1  0  0  0  0
 31 30  1  0  0  0  0
M  END
>  <MODEL>
9

>  <REMARK>
 VINA RESULT:      -6.2      2.592      6.157
  Name = 
  13 active torsions:
  status: ('A' for Active; 'I' for Inactive)
    1  A    between atoms: C_1  and  N_2
    2  A    between atoms: C_1  and  C_19
    3  A    between atoms: N_2  and  N_12
    4  A    between atoms: C_3  and  C_11
    5  A    between atoms: C_6  and  N_12
    6  A    between atoms: C_11  and  O_25
    7  A    between atoms: C_14  and  N_17
    8  A    between atoms: C_15  and  O_20
    9  A    between atoms: C_16  and  S_18
   10  A    between atoms: C_16  and  C_26
   11  A    between atoms: N_17  and  S_18
   12  A    between atoms: C_19  and  C_23
   13  A    between atoms: O_25  and  C_32
                            x       y       z     vdW  Elec       q    Type
                         _______ _______ _______ _____ _____    ______ ____

>  <TORSDO>
F 13

$$$$
