=
 OpenBabel10222416513D

 69 76  0  0  1  0  0  0  0  0999 V2000
  185.8830  177.8700  139.7360 C   0  0  0  0  0  3  0  0  0  0  0  0
  189.9690  177.0570  136.9850 C   0  0  0  0  0  0  0  0  0  0  0  0
  185.2640  178.4680  140.7610 C   0  0  0  0  0  0  0  0  0  0  0  0
  190.1870  177.2950  139.4070 N   0  0  0  0  0  0  0  0  0  0  0  0
  189.3750  177.2720  138.2160 C   0  0  0  0  0  0  0  0  0  0  0  0
  191.3460  176.6520  137.0040 C   0  0  1  0  0  3  0  0  0  0  0  0
  187.9080  177.2990  138.4800 C   0  0  0  0  0  0  0  0  0  0  0  0
  187.3490  177.9240  139.5460 C   0  0  0  0  0  0  0  0  0  0  0  0
  186.0470  179.2750  141.7680 C   0  0  0  0  0  2  0  0  0  0  0  0
  187.2570  178.4810  136.0810 C   0  0  0  0  0  2  0  0  0  0  0  0
  188.2650  177.7630  135.3290 N   0  0  0  0  0  0  0  0  0  0  0  0
  188.1410  178.7920  140.4920 C   0  0  0  0  0  2  0  0  0  0  0  0
  192.1020  176.6350  138.2290 N   0  0  0  0  0  0  0  0  0  0  0  0
  187.4970  178.8000  141.8740 C   0  0  0  0  0  2  0  0  0  0  0  0
  189.3720  177.1530  135.6590 C   0  0  0  0  0  0  0  0  0  0  0  0
  190.0690  176.6770  134.5950 N   0  0  0  0  0  2  0  0  0  0  0  0
  186.3110  177.4670  136.6850 C   0  0  0  0  0  2  0  0  0  0  0  0
  191.4470  177.0200  139.4350 C   0  0  0  0  0  0  0  0  0  0  0  0
  191.3310  176.2140  134.6840 C   0  0  0  0  0  3  0  0  0  0  0  0
  187.0680  176.6640  137.5680 O   0  0  0  0  0  0  0  0  0  0  0  0
  191.9620  176.2330  135.8690 N   0  0  0  0  0  0  0  0  0  0  0  0
  183.0640  177.5130  140.0140 N   0  0  0  0  0  2  0  0  0  0  0  0
  183.1800  179.1680  141.6500 O   0  0  0  0  0  0  0  0  0  0  0  0
  183.7950  178.4130  140.8490 C   0  0  0  0  0  0  0  0  0  0  0  0
  181.6620  177.5370  139.9570 N   0  0  0  0  0  2  0  0  0  0  0  0
  180.9670  178.4520  139.1050 C   0  0  0  0  0  0  0  0  0  0  0  0
  179.1430  179.7770  137.2450 C   0  0  0  0  0  3  0  0  0  0  0  0
  178.9560  179.7710  138.5690 C   0  0  0  0  0  3  0  0  0  0  0  0
  181.7300  178.9430  137.5420 S   0  0  0  0  0  0  0  0  0  0  0  0
  179.7800  178.9480  139.4720 C   0  0  0  0  0  3  0  0  0  0  0  0
  180.1670  178.9000  136.5860 C   0  0  1  0  0  3  0  0  0  0  0  0
  179.6260  177.4810  136.4370 C   0  0  0  0  0  2  0  0  0  0  0  0
  180.7180  176.5210  135.9840 C   0  0  0  0  0  2  0  0  0  0  0  0
  180.2330  175.0770  136.0330 C   0  0  1  0  0  3  0  0  0  0  0  0
  180.9490  172.6440  135.7200 C   0  0  1  0  0  3  0  0  0  0  0  0
  183.3140  172.5650  137.1920 O   0  0  0  0  0  0  0  0  0  0  0  0
  182.1840  171.7480  136.6250 S   0  0  0  0  0  0  0  0  0  0  0  0
  179.0230  173.3830  137.3900 C   0  0  0  0  0  2  0  0  0  0  0  0
  179.8510  172.2610  136.7440 C   0  0  2  0  0  3  0  0  0  0  0  0
  182.6290  170.4720  135.9710 O   0  0  0  0  0  0  0  0  0  0  0  0
  180.7240  174.7630  138.3770 O   0  0  0  0  0  1  0  0  0  0  0  0
  181.3650  174.1220  135.6800 C   0  0  0  0  0  2  0  0  0  0  0  0
  180.8020  171.5660  137.7140 C   0  0  0  0  0  2  0  0  0  0  0  0
  179.7010  174.7460  137.4210 C   0  0  1  0  0  3  0  0  0  0  0  0
  193.5350  176.3160  138.2220 C   0  0  0  0  0  2  0  0  0  0  0  0
  193.8840  175.2140  137.2150 C   0  0  1  0  0  3  0  0  0  0  0  0
  194.4910  172.9210  137.2250 C   0  0  0  0  0  2  0  0  0  0  0  0
  195.2650  175.1510  136.9810 O   0  0  0  0  0  0  0  0  0  0  0  0
  195.5110  173.8310  136.5730 C   0  0  0  0  0  2  0  0  0  0  0  0
  193.3990  173.8520  137.6610 C   0  0  0  0  0  2  0  0  0  0  0  0
  192.1950  177.1630  140.7230 C   0  0  0  0  0  2  0  0  0  0  0  0
  191.2460  177.5360  141.8470 C   0  0  0  0  0  2  0  0  0  0  0  0
  191.5980  176.7870  143.0430 N   0  0  0  0  0  2  0  0  0  0  0  0
  191.0880  177.5390  144.1800 C   0  0  1  0  0  3  0  0  0  0  0  0
  191.3210  179.0260  143.9590 C   0  0  0  0  0  1  0  0  0  0  0  0
  189.6400  177.2020  144.4110 C   0  0  0  0  0  0  0  0  0  0  0  0
  189.1720  176.2160  143.8650 O   0  0  0  0  0  0  0  0  0  0  0  0
  188.7430  178.0920  145.2300 C   0  0  0  0  0  2  0  0  0  0  0  0
  188.0170  177.3510  146.3550 C   0  0  1  0  0  3  0  0  0  0  0  0
  189.0030  176.6150  147.2550 C   0  0  0  0  0  2  0  0  0  0  0  0
  190.0520  177.5640  147.8170 C   0  0  0  0  0  2  0  0  0  0  0  0
  192.3590  177.4100  148.7350 O   0  0  0  0  0  1  0  0  0  0  0  0
  191.3620  176.8690  147.9340 C   0  0  0  0  0  0  0  0  0  0  0  0
  191.5730  175.7970  147.3090 O   0  0  0  0  0  0  0  0  0  0  0  0
  187.2430  178.2400  147.1120 O   0  0  0  0  0  0  0  0  0  0  0  0
  185.6000  179.9890  145.7100 O   0  0  0  0  0  1  0  0  0  0  0  0
  184.4960  178.0620  147.3450 O   0  0  0  0  0  1  0  0  0  0  0  0
  185.7680  178.4030  146.2820 P   0  0  0  0  0  0  0  0  0  0  0  0
  185.7100  177.4320  145.1200 O   0  0  0  0  0  0  0  0  0  0  0  0
  1  3  2  0  0  0  0
  2  6  1  0  0  0  0
  2  5  2  0  0  0  0
  3 24  1  0  0  0  0
  3  9  1  0  0  0  0
  4 18  2  0  0  0  0
  5  7  1  0  0  0  0
  5  4  1  0  0  0  0
  6 21  1  1  0  0  0
  6 13  1  0  0  0  0
  7  8  2  0  0  0  0
  8  1  1  0  0  0  0
  8 12  1  0  0  0  0
  9 14  1  0  0  0  0
 10 17  1  0  0  0  0
 11 15  2  0  0  0  0
 11 10  1  0  0  0  0
 12 14  1  0  0  0  0
 13 18  1  0  0  0  0
 15  2  1  0  0  0  0
 16 19  1  0  0  0  0
 16 15  1  0  0  0  0
 17 20  1  0  0  0  0
 18 51  1  0  0  0  0
 19 21  2  0  0  0  0
 20  7  1  0  0  0  0
 22 24  1  0  0  0  0
 24 23  2  0  0  0  0
 25 22  1  0  0  0  0
 26 30  2  0  0  0  0
 26 25  1  0  0  0  0
 27 28  2  0  0  0  0
 28 30  1  0  0  0  0
 29 26  1  0  0  0  0
 31 32  1  1  0  0  0
 31 27  1  0  0  0  0
 31 29  1  0  0  0  0
 33 32  1  0  0  0  0
 34 33  1  1  0  0  0
 34 44  1  0  0  0  0
 35 42  1  1  0  0  0
 35 37  1  0  0  0  0
 35 39  1  0  0  0  0
 37 36  2  0  0  0  0
 37 43  1  0  0  0  0
 38 44  1  0  0  0  0
 39 38  1  1  0  0  0
 39 43  1  0  0  0  0
 40 37  2  0  0  0  0
 42 34  1  0  0  0  0
 44 41  1  1  0  0  0
 45 13  1  0  0  0  0
 46 50  1  0  0  0  0
 46 45  1  1  0  0  0
 47 50  1  0  0  0  0
 48 46  1  0  0  0  0
 49 48  1  0  0  0  0
 49 47  1  0  0  0  0
 51 52  1  0  0  0  0
 52 53  1  0  0  0  0
 53 54  1  0  0  0  0
 54 55  1  6  0  0  0
 54 56  1  0  0  0  0
 56 58  1  0  0  0  0
 57 56  2  0  0  0  0
 59 58  1  6  0  0  0
 59 65  1  0  0  0  0
 59 60  1  0  0  0  0
 60 61  1  0  0  0  0
 61 63  1  0  0  0  0
 63 62  1  0  0  0  0
 64 63  2  0  0  0  0
 66 68  1  0  0  0  0
 68 65  1  0  0  0  0
 68 67  1  0  0  0  0
 69 68  2  0  0  0  0
M  END
>  <MODEL>
1

>  <REMARK>
 VINA RESULT:      -7.1      0.000      0.000
  Name = 
  20 active torsions:
  status: ('A' for Active; 'I' for Inactive)
    1  A    between atoms: N_2  and  C_38
    2  A    between atoms: N_2  and  C_66
    3  A    between atoms: C_3  and  C_43
    4  A    between atoms: C_4  and  N_20
    5  A    between atoms: C_6  and  C_63
    6  A    between atoms: C_14  and  C_60
    7  A    between atoms: C_19  and  C_43
    8  A    between atoms: C_19  and  C_67
    9  A    between atoms: N_20  and  N_39
   10  A    between atoms: C_22  and  C_48
   11  A    between atoms: C_22  and  C_64
   12  A    between atoms: C_31  and  C_38
   13  A    between atoms: C_31  and  C_65
   14  A    between atoms: N_33  and  C_60
   15  A    between atoms: C_42  and  C_57
   16  A    between atoms: C_42  and  C_66
   17  A    between atoms: O_45  and  P_52
   18  A    between atoms: O_45  and  C_55
   19  A    between atoms: C_55  and  C_64
   20  A    between atoms: C_55  and  C_65
                            x       y       z     vdW  Elec       q    Type
                         _______ _______ _______ _____ _____    ______ ____

>  <TORSDO>
F 20

$$$$
=
 OpenBabel10222416513D

 69 76  0  0  1  0  0  0  0  0999 V2000
  190.6940  176.8810  139.8700 C   0  0  0  0  0  3  0  0  0  0  0  0
  188.9910  177.4480  144.5290 C   0  0  0  0  0  0  0  0  0  0  0  0
  190.6530  177.1800  138.5660 C   0  0  0  0  0  0  0  0  0  0  0  0
  187.4070  177.4500  142.6690 N   0  0  0  0  0  0  0  0  0  0  0  0
  188.7560  177.3620  143.1680 C   0  0  0  0  0  0  0  0  0  0  0  0
  187.8350  177.4040  145.3790 C   0  0  1  0  0  3  0  0  0  0  0  0
  189.7640  176.9880  142.1340 C   0  0  0  0  0  0  0  0  0  0  0  0
  189.6540  177.3240  140.8250 C   0  0  0  0  0  0  0  0  0  0  0  0
  189.5430  178.0360  138.0070 C   0  0  0  0  0  2  0  0  0  0  0  0
  191.8690  178.2380  143.3910 C   0  0  0  0  0  2  0  0  0  0  0  0
  191.4220  177.8900  144.7240 N   0  0  0  0  0  0  0  0  0  0  0  0
  188.5820  178.2470  140.3040 C   0  0  0  0  0  2  0  0  0  0  0  0
  186.5040  177.4350  144.8310 N   0  0  0  0  0  0  0  0  0  0  0  0
  188.2680  177.9320  138.8450 C   0  0  0  0  0  2  0  0  0  0  0  0
  190.2670  177.5440  145.2260 C   0  0  0  0  0  0  0  0  0  0  0  0
  190.2850  177.3860  146.5750 N   0  0  0  0  0  2  0  0  0  0  0  0
  192.1200  176.9560  142.6300 C   0  0  0  0  0  2  0  0  0  0  0  0
  186.3550  177.5000  143.4150 C   0  0  0  0  0  0  0  0  0  0  0  0
  189.1710  177.2480  147.3190 C   0  0  0  0  0  3  0  0  0  0  0  0
  190.8860  176.2720  142.5440 O   0  0  0  0  0  0  0  0  0  0  0  0
  187.9670  177.2880  146.7250 N   0  0  0  0  0  0  0  0  0  0  0  0
  192.9750  176.2700  138.2640 N   0  0  0  0  0  2  0  0  0  0  0  0
  191.6320  176.8100  136.4380 O   0  0  0  0  0  0  0  0  0  0  0  0
  191.7560  176.7470  137.6910 C   0  0  0  0  0  0  0  0  0  0  0  0
  194.1000  175.9920  137.4720 N   0  0  0  0  0  2  0  0  0  0  0  0
  194.1930  174.7870  136.7070 C   0  0  0  0  0  0  0  0  0  0  0  0
  193.8630  172.6090  134.7860 C   0  0  0  0  0  3  0  0  0  0  0  0
  194.7070  173.6280  134.5940 C   0  0  0  0  0  3  0  0  0  0  0  0
  193.6000  173.2430  137.4340 S   0  0  0  0  0  0  0  0  0  0  0  0
  194.7270  174.8050  135.4800 C   0  0  0  0  0  3  0  0  0  0  0  0
  192.8400  172.6240  135.8850 C   0  0  1  0  0  3  0  0  0  0  0  0
  191.6330  173.4580  135.4670 C   0  0  0  0  0  2  0  0  0  0  0  0
  190.3830  172.5960  135.3500 C   0  0  0  0  0  2  0  0  0  0  0  0
  189.1490  173.4530  135.0940 C   0  0  1  0  0  3  0  0  0  0  0  0
  186.6020  173.5190  135.2880 C   0  0  1  0  0  3  0  0  0  0  0  0
  186.2180  172.6290  137.9010 O   0  0  0  0  0  0  0  0  0  0  0  0
  185.6190  173.4090  136.7610 S   0  0  0  0  0  0  0  0  0  0  0  0
  188.1220  175.6910  135.4270 C   0  0  0  0  0  2  0  0  0  0  0  0
  186.7210  175.0580  135.4250 C   0  0  2  0  0  3  0  0  0  0  0  0
  184.1680  173.1080  136.5190 O   0  0  0  0  0  0  0  0  0  0  0  0
  189.1920  174.5460  137.2480 O   0  0  0  0  0  1  0  0  0  0  0  0
  187.8870  172.7090  135.5100 C   0  0  0  0  0  2  0  0  0  0  0  0
  186.0130  175.1330  136.7760 C   0  0  0  0  0  2  0  0  0  0  0  0
  189.2450  174.7620  135.8650 C   0  0  1  0  0  3  0  0  0  0  0  0
  185.3310  177.4900  145.7120 C   0  0  0  0  0  2  0  0  0  0  0  0
  184.5930  178.8300  145.6200 C   0  0  1  0  0  3  0  0  0  0  0  0
  183.0370  179.9110  144.1910 C   0  0  0  0  0  2  0  0  0  0  0  0
  185.3110  179.7610  144.8540 O   0  0  0  0  0  0  0  0  0  0  0  0
  184.3480  180.6520  144.3570 C   0  0  0  0  0  2  0  0  0  0  0  0
  183.2040  178.6830  145.0360 C   0  0  0  0  0  2  0  0  0  0  0  0
  185.0140  177.6750  142.7740 C   0  0  0  0  0  2  0  0  0  0  0  0
  185.1530  178.4030  141.4490 C   0  0  0  0  0  2  0  0  0  0  0  0
  183.8510  178.4900  140.8090 N   0  0  0  0  0  2  0  0  0  0  0  0
  184.0480  179.1610  139.5330 C   0  0  1  0  0  3  0  0  0  0  0  0
  184.3730  178.1350  138.4580 C   0  0  0  0  0  1  0  0  0  0  0  0
  182.8410  179.9940  139.1990 C   0  0  0  0  0  0  0  0  0  0  0  0
  183.0070  181.0940  138.6950 O   0  0  0  0  0  0  0  0  0  0  0  0
  181.4470  179.5390  139.5420 C   0  0  0  0  0  2  0  0  0  0  0  0
  180.8470  178.5870  138.5030 C   0  0  1  0  0  3  0  0  0  0  0  0
  180.7690  177.1640  139.0430 C   0  0  0  0  0  2  0  0  0  0  0  0
  180.1840  176.2120  138.0090 C   0  0  0  0  0  2  0  0  0  0  0  0
  181.2550  173.9800  137.7620 O   0  0  0  0  0  1  0  0  0  0  0  0
  181.2510  175.3350  137.4570 C   0  0  0  0  0  0  0  0  0  0  0  0
  182.1510  175.8150  136.7190 O   0  0  0  0  0  0  0  0  0  0  0  0
  179.5760  179.0250  138.1100 O   0  0  0  0  0  0  0  0  0  0  0  0
  178.9370  178.4490  135.4670 O   0  0  0  0  0  0  0  0  0  0  0  0
  181.3760  179.5770  136.0890 O   0  0  0  0  0  1  0  0  0  0  0  0
  179.7340  179.5350  136.4960 P   0  0  0  0  0  0  0  0  0  0  0  0
  179.1510  180.9230  136.3240 O   0  0  0  0  0  1  0  0  0  0  0  0
  1  8  1  0  0  0  0
  2 15  1  0  0  0  0
  3  1  2  0  0  0  0
  4  5  1  0  0  0  0
  4 18  2  0  0  0  0
  5  2  2  0  0  0  0
  6  2  1  6  0  0  0
  6 21  1  0  0  0  0
  7 20  1  0  0  0  0
  7  5  1  0  0  0  0
  8  7  2  0  0  0  0
  9  3  1  0  0  0  0
  9 14  1  0  0  0  0
 10 11  1  0  0  0  0
 11 15  2  0  0  0  0
 12  8  1  0  0  0  0
 13  6  1  0  0  0  0
 13 45  1  0  0  0  0
 14 12  1  0  0  0  0
 15 16  1  0  0  0  0
 16 19  1  0  0  0  0
 17 10  1  0  0  0  0
 18 13  1  0  0  0  0
 20 17  1  0  0  0  0
 21 19  2  0  0  0  0
 23 24  2  0  0  0  0
 24 22  1  0  0  0  0
 24  3  1  0  0  0  0
 25 22  1  0  0  0  0
 26 29  1  0  0  0  0
 26 25  1  0  0  0  0
 27 31  1  0  0  0  0
 28 27  2  0  0  0  0
 28 30  1  0  0  0  0
 30 26  2  0  0  0  0
 31 32  1  6  0  0  0
 31 29  1  0  0  0  0
 33 32  1  0  0  0  0
 34 33  1  1  0  0  0
 34 42  1  0  0  0  0
 34 44  1  0  0  0  0
 35 39  1  0  0  0  0
 35 42  1  1  0  0  0
 35 37  1  0  0  0  0
 37 43  1  0  0  0  0
 37 36  2  0  0  0  0
 38 44  1  0  0  0  0
 39 38  1  1  0  0  0
 39 43  1  0  0  0  0
 40 37  2  0  0  0  0
 44 41  1  1  0  0  0
 46 45  1  6  0  0  0
 47 49  1  0  0  0  0
 47 50  1  0  0  0  0
 48 46  1  0  0  0  0
 49 48  1  0  0  0  0
 50 46  1  0  0  0  0
 51 18  1  0  0  0  0
 52 51  1  0  0  0  0
 53 52  1  0  0  0  0
 54 55  1  6  0  0  0
 54 53  1  0  0  0  0
 56 54  1  0  0  0  0
 56 58  1  0  0  0  0
 57 56  2  0  0  0  0
 59 60  1  1  0  0  0
 59 58  1  0  0  0  0
 61 60  1  0  0  0  0
 63 62  1  0  0  0  0
 63 61  1  0  0  0  0
 64 63  2  0  0  0  0
 65 59  1  0  0  0  0
 66 68  2  0  0  0  0
 67 68  1  0  0  0  0
 68 65  1  0  0  0  0
 69 68  1  0  0  0  0
M  END
>  <MODEL>
2

>  <REMARK>
 VINA RESULT:      -6.8      3.394     10.366
  Name = 
  20 active torsions:
  status: ('A' for Active; 'I' for Inactive)
    1  A    between atoms: N_2  and  C_38
    2  A    between atoms: N_2  and  C_66
    3  A    between atoms: C_3  and  C_43
    4  A    between atoms: C_4  and  N_20
    5  A    between atoms: C_6  and  C_63
    6  A    between atoms: C_14  and  C_60
    7  A    between atoms: C_19  and  C_43
    8  A    between atoms: C_19  and  C_67
    9  A    between atoms: N_20  and  N_39
   10  A    between atoms: C_22  and  C_48
   11  A    between atoms: C_22  and  C_64
   12  A    between atoms: C_31  and  C_38
   13  A    between atoms: C_31  and  C_65
   14  A    between atoms: N_33  and  C_60
   15  A    between atoms: C_42  and  C_57
   16  A    between atoms: C_42  and  C_66
   17  A    between atoms: O_45  and  P_52
   18  A    between atoms: O_45  and  C_55
   19  A    between atoms: C_55  and  C_64
   20  A    between atoms: C_55  and  C_65
                            x       y       z     vdW  Elec       q    Type
                         _______ _______ _______ _____ _____    ______ ____

>  <TORSDO>
F 20

$$$$
=
 OpenBabel10222416513D

 69 76  0  0  1  0  0  0  0  0999 V2000
  186.1530  177.8520  139.8270 C   0  0  0  0  0  3  0  0  0  0  0  0
  190.1040  176.8510  136.9440 C   0  0  0  0  0  0  0  0  0  0  0  0
  185.5790  178.5300  140.8290 C   0  0  0  0  0  0  0  0  0  0  0  0
  190.4430  177.3040  139.3200 N   0  0  0  0  0  0  0  0  0  0  0  0
  189.5710  177.1670  138.1810 C   0  0  0  0  0  0  0  0  0  0  0  0
  191.4870  176.4680  136.9250 C   0  0  1  0  0  3  0  0  0  0  0  0
  188.1190  177.1980  138.5200 C   0  0  0  0  0  0  0  0  0  0  0  0
  187.6070  177.9080  139.5560 C   0  0  0  0  0  0  0  0  0  0  0  0
  186.3990  179.4330  141.7170 C   0  0  0  0  0  2  0  0  0  0  0  0
  187.3240  178.1560  136.0650 C   0  0  0  0  0  2  0  0  0  0  0  0
  188.3040  177.3870  135.3260 N   0  0  0  0  0  0  0  0  0  0  0  0
  188.4310  178.8660  140.3780 C   0  0  0  0  0  2  0  0  0  0  0  0
  192.3060  176.5670  138.1040 N   0  0  0  0  0  0  0  0  0  0  0  0
  187.8600  178.9870  141.7880 C   0  0  0  0  0  2  0  0  0  0  0  0
  189.4360  176.8220  135.6480 C   0  0  0  0  0  0  0  0  0  0  0  0
  190.0850  176.2640  134.5940 N   0  0  0  0  0  2  0  0  0  0  0  0
  186.4280  177.1870  136.8050 C   0  0  0  0  0  2  0  0  0  0  0  0
  191.7080  177.0490  139.3050 C   0  0  0  0  0  0  0  0  0  0  0  0
  191.3580  175.8260  134.6560 C   0  0  0  0  0  3  0  0  0  0  0  0
  187.2440  176.4750  137.7140 O   0  0  0  0  0  0  0  0  0  0  0  0
  192.0500  175.9570  135.7990 N   0  0  0  0  0  0  0  0  0  0  0  0
  183.3250  177.7170  140.0760 N   0  0  0  0  0  2  0  0  0  0  0  0
  183.5630  179.0780  141.9510 O   0  0  0  0  0  0  0  0  0  0  0  0
  184.1180  178.4650  141.0000 C   0  0  0  0  0  0  0  0  0  0  0  0
  181.9220  177.7530  140.1130 N   0  0  0  0  0  2  0  0  0  0  0  0
  181.1490  177.8770  138.9150 C   0  0  0  0  0  0  0  0  0  0  0  0
  179.2970  177.5330  136.6800 C   0  0  0  0  0  3  0  0  0  0  0  0
  178.9800  178.2040  137.7920 C   0  0  0  0  0  3  0  0  0  0  0  0
  181.9550  177.5990  137.3220 S   0  0  0  0  0  0  0  0  0  0  0  0
  179.8540  178.2120  138.9780 C   0  0  0  0  0  3  0  0  0  0  0  0
  180.5390  176.6960  136.5870 C   0  0  1  0  0  3  0  0  0  0  0  0
  180.3130  175.3440  137.2580 C   0  0  0  0  0  2  0  0  0  0  0  0
  179.6790  174.3510  136.2950 C   0  0  0  0  0  2  0  0  0  0  0  0
  180.7340  173.4510  135.6630 C   0  0  1  0  0  3  0  0  0  0  0  0
  183.2460  173.1480  135.3040 C   0  0  1  0  0  3  0  0  0  0  0  0
  184.2320  173.5620  137.8770 O   0  0  0  0  0  0  0  0  0  0  0  0
  184.5040  172.9340  136.5370 S   0  0  0  0  0  0  0  0  0  0  0  0
  181.5480  171.1130  135.4440 C   0  0  0  0  0  2  0  0  0  0  0  0
  182.9830  171.6220  135.2390 C   0  0  2  0  0  3  0  0  0  0  0  0
  185.9040  173.1530  136.0390 O   0  0  0  0  0  0  0  0  0  0  0  0
  180.9900  172.0250  137.5960 O   0  0  0  0  0  1  0  0  0  0  0  0
  182.1290  174.0120  135.9060 C   0  0  0  0  0  2  0  0  0  0  0  0
  183.9280  171.2690  136.3840 C   0  0  0  0  0  2  0  0  0  0  0  0
  180.6430  172.0440  136.2400 C   0  0  1  0  0  3  0  0  0  0  0  0
  193.7410  176.2670  138.0480 C   0  0  0  0  0  2  0  0  0  0  0  0
  194.0440  174.7940  138.3460 C   0  0  1  0  0  3  0  0  0  0  0  0
  195.9290  173.3680  138.5420 C   0  0  0  0  0  2  0  0  0  0  0  0
  194.1130  174.0360  137.1680 O   0  0  0  0  0  0  0  0  0  0  0  0
  194.9350  172.9430  137.4800 C   0  0  0  0  0  2  0  0  0  0  0  0
  195.3310  174.6150  139.1210 C   0  0  0  0  0  2  0  0  0  0  0  0
  192.5200  177.3140  140.5340 C   0  0  0  0  0  2  0  0  0  0  0  0
  191.8550  176.6940  141.7500 C   0  0  0  0  0  2  0  0  0  0  0  0
  190.9510  177.6630  142.3490 N   0  0  0  0  0  2  0  0  0  0  0  0
  189.9880  176.9110  143.1410 C   0  0  1  0  0  3  0  0  0  0  0  0
  190.2300  175.4200  142.9630 C   0  0  0  0  0  1  0  0  0  0  0  0
  190.0540  177.3460  144.5790 C   0  0  0  0  0  0  0  0  0  0  0  0
  190.6790  176.6600  145.3720 O   0  0  0  0  0  0  0  0  0  0  0  0
  189.3070  178.5560  145.0740 C   0  0  0  0  0  2  0  0  0  0  0  0
  188.0700  178.2060  145.9070 C   0  0  1  0  0  3  0  0  0  0  0  0
  186.8910  177.8420  145.0130 C   0  0  0  0  0  2  0  0  0  0  0  0
  185.8830  178.9800  144.9370 C   0  0  0  0  0  2  0  0  0  0  0  0
  183.4120  178.7870  145.1570 O   0  0  0  0  0  0  0  0  0  0  0  0
  184.6700  178.6450  145.7300 C   0  0  0  0  0  0  0  0  0  0  0  0
  184.7770  178.2390  146.9170 O   0  0  0  0  0  1  0  0  0  0  0  0
  188.3520  177.1520  146.7870 O   0  0  0  0  0  0  0  0  0  0  0  0
  189.8360  178.1430  148.9180 O   0  0  0  0  0  1  0  0  0  0  0  0
  187.5340  176.6980  149.3860 O   0  0  0  0  0  1  0  0  0  0  0  0
  188.2730  177.8150  148.3510 P   0  0  0  0  0  0  0  0  0  0  0  0
  187.4540  179.0900  148.3400 O   0  0  0  0  0  0  0  0  0  0  0  0
  1  3  2  0  0  0  0
  2  5  2  0  0  0  0
  3 24  1  0  0  0  0
  3  9  1  0  0  0  0
  5  7  1  0  0  0  0
  5  4  1  0  0  0  0
  6 21  1  1  0  0  0
  6  2  1  0  0  0  0
  6 13  1  0  0  0  0
  7  8  2  0  0  0  0
  8  1  1  0  0  0  0
  8 12  1  0  0  0  0
  9 14  1  0  0  0  0
 10 17  1  0  0  0  0
 11 15  2  0  0  0  0
 11 10  1  0  0  0  0
 12 14  1  0  0  0  0
 13 18  1  0  0  0  0
 15  2  1  0  0  0  0
 16 19  1  0  0  0  0
 16 15  1  0  0  0  0
 17 20  1  0  0  0  0
 18  4  2  0  0  0  0
 18 51  1  0  0  0  0
 19 21  2  0  0  0  0
 20  7  1  0  0  0  0
 22 25  1  0  0  0  0
 22 24  1  0  0  0  0
 24 23  2  0  0  0  0
 26 30  2  0  0  0  0
 26 25  1  0  0  0  0
 27 28  2  0  0  0  0
 28 30  1  0  0  0  0
 29 26  1  0  0  0  0
 31 27  1  0  0  0  0
 31 32  1  1  0  0  0
 31 29  1  0  0  0  0
 33 32  1  0  0  0  0
 34 42  1  0  0  0  0
 34 44  1  0  0  0  0
 34 33  1  1  0  0  0
 35 42  1  1  0  0  0
 35 37  1  0  0  0  0
 37 36  2  0  0  0  0
 38 44  1  0  0  0  0
 39 35  1  0  0  0  0
 39 38  1  1  0  0  0
 39 43  1  0  0  0  0
 40 37  2  0  0  0  0
 43 37  1  0  0  0  0
 44 41  1  1  0  0  0
 45 13  1  0  0  0  0
 46 45  1  6  0  0  0
 46 50  1  0  0  0  0
 47 50  1  0  0  0  0
 48 49  1  0  0  0  0
 48 46  1  0  0  0  0
 49 47  1  0  0  0  0
 51 52  1  0  0  0  0
 52 53  1  0  0  0  0
 53 54  1  0  0  0  0
 54 55  1  1  0  0  0
 54 56  1  0  0  0  0
 56 58  1  0  0  0  0
 56 57  2  0  0  0  0
 58 59  1  0  0  0  0
 59 60  1  6  0  0  0
 59 65  1  0  0  0  0
 61 60  1  0  0  0  0
 61 63  1  0  0  0  0
 62 63  2  0  0  0  0
 63 64  1  0  0  0  0
 65 68  1  0  0  0  0
 68 66  1  0  0  0  0
 68 67  1  0  0  0  0
 69 68  2  0  0  0  0
M  END
>  <MODEL>
3

>  <REMARK>
 VINA RESULT:      -6.4      1.495      2.646
  Name = 
  20 active torsions:
  status: ('A' for Active; 'I' for Inactive)
    1  A    between atoms: N_2  and  C_38
    2  A    between atoms: N_2  and  C_66
    3  A    between atoms: C_3  and  C_43
    4  A    between atoms: C_4  and  N_20
    5  A    between atoms: C_6  and  C_63
    6  A    between atoms: C_14  and  C_60
    7  A    between atoms: C_19  and  C_43
    8  A    between atoms: C_19  and  C_67
    9  A    between atoms: N_20  and  N_39
   10  A    between atoms: C_22  and  C_48
   11  A    between atoms: C_22  and  C_64
   12  A    between atoms: C_31  and  C_38
   13  A    between atoms: C_31  and  C_65
   14  A    between atoms: N_33  and  C_60
   15  A    between atoms: C_42  and  C_57
   16  A    between atoms: C_42  and  C_66
   17  A    between atoms: O_45  and  P_52
   18  A    between atoms: O_45  and  C_55
   19  A    between atoms: C_55  and  C_64
   20  A    between atoms: C_55  and  C_65
                            x       y       z     vdW  Elec       q    Type
                         _______ _______ _______ _____ _____    ______ ____

>  <TORSDO>
F 20

$$$$
=
 OpenBabel10222416513D

 69 76  0  0  1  0  0  0  0  0999 V2000
  190.9260  176.7970  140.1960 C   0  0  0  0  0  3  0  0  0  0  0  0
  188.9330  177.4840  144.7210 C   0  0  0  0  0  0  0  0  0  0  0  0
  190.9480  177.0390  138.8800 C   0  0  0  0  0  0  0  0  0  0  0  0
  187.4610  177.3400  142.7770 N   0  0  0  0  0  0  0  0  0  0  0  0
  188.7810  177.3310  143.3550 C   0  0  0  0  0  0  0  0  0  0  0  0
  187.7320  177.4260  145.5060 C   0  0  1  0  0  3  0  0  0  0  0  0
  189.8620  176.9580  142.3970 C   0  0  0  0  0  0  0  0  0  0  0  0
  189.8150  177.2340  141.0700 C   0  0  0  0  0  0  0  0  0  0  0  0
  189.8390  177.8220  138.2220 C   0  0  0  0  0  2  0  0  0  0  0  0
  191.8380  178.3490  143.7140 C   0  0  0  0  0  2  0  0  0  0  0  0
  191.3290  178.0380  145.0340 N   0  0  0  0  0  0  0  0  0  0  0  0
  188.7380  178.0880  140.4500 C   0  0  0  0  0  2  0  0  0  0  0  0
  186.4350  177.3760  144.8830 N   0  0  0  0  0  0  0  0  0  0  0  0
  188.5220  177.6990  138.9910 C   0  0  0  0  0  2  0  0  0  0  0  0
  190.1620  177.6640  145.4850 C   0  0  0  0  0  0  0  0  0  0  0  0
  190.1080  177.5640  146.8380 N   0  0  0  0  0  2  0  0  0  0  0  0
  192.1850  177.0480  143.0260 C   0  0  0  0  0  2  0  0  0  0  0  0
  186.3670  177.3760  143.4600 C   0  0  0  0  0  0  0  0  0  0  0  0
  188.9590  177.4090  147.5240 C   0  0  0  0  0  3  0  0  0  0  0  0
  190.9860  176.3090  142.9010 O   0  0  0  0  0  0  0  0  0  0  0  0
  187.7910  177.3720  146.8620 N   0  0  0  0  0  0  0  0  0  0  0  0
  193.2780  176.1100  138.7470 N   0  0  0  0  0  2  0  0  0  0  0  0
  192.1000  176.7180  136.8320 O   0  0  0  0  0  0  0  0  0  0  0  0
  192.1160  176.6180  138.0880 C   0  0  0  0  0  0  0  0  0  0  0  0
  194.4640  175.8410  138.0450 N   0  0  0  0  0  2  0  0  0  0  0  0
  194.5060  174.8610  137.0040 C   0  0  0  0  0  0  0  0  0  0  0  0
  193.9490  173.0770  134.7570 C   0  0  0  0  0  3  0  0  0  0  0  0
  194.5100  174.2820  134.6080 C   0  0  0  0  0  3  0  0  0  0  0  0
  194.4350  173.1110  137.4480 S   0  0  0  0  0  0  0  0  0  0  0  0
  194.6150  175.2380  135.7240 C   0  0  0  0  0  3  0  0  0  0  0  0
  193.3370  172.6420  136.0560 C   0  0  1  0  0  3  0  0  0  0  0  0
  191.9400  173.2380  136.2050 C   0  0  0  0  0  2  0  0  0  0  0  0
  191.3760  173.6600  134.8550 C   0  0  0  0  0  2  0  0  0  0  0  0
  189.8920  173.9900  134.9610 C   0  0  1  0  0  3  0  0  0  0  0  0
  187.5370  173.0340  134.6880 C   0  0  1  0  0  3  0  0  0  0  0  0
  187.7480  170.6280  136.0780 O   0  0  0  0  0  0  0  0  0  0  0  0
  186.8020  171.6840  135.5730 S   0  0  0  0  0  0  0  0  0  0  0  0
  188.1240  174.9720  136.4060 C   0  0  0  0  0  2  0  0  0  0  0  0
  187.0740  174.0520  135.7610 C   0  0  2  0  0  3  0  0  0  0  0  0
  185.5590  171.1300  134.9390 O   0  0  0  0  0  0  0  0  0  0  0  0
  189.7020  173.3930  137.2940 O   0  0  0  0  0  1  0  0  0  0  0  0
  189.0480  172.7770  134.5940 C   0  0  0  0  0  2  0  0  0  0  0  0
  186.5110  173.0030  136.7150 C   0  0  0  0  0  2  0  0  0  0  0  0
  189.5500  174.4390  136.3760 C   0  0  1  0  0  3  0  0  0  0  0  0
  185.2120  177.4180  145.6940 C   0  0  0  0  0  2  0  0  0  0  0  0
  184.5140  178.7810  145.6300 C   0  0  1  0  0  3  0  0  0  0  0  0
  183.0150  179.9480  144.2100 C   0  0  0  0  0  2  0  0  0  0  0  0
  185.2710  179.7130  144.9040 O   0  0  0  0  0  0  0  0  0  0  0  0
  184.3430  180.6460  144.4190 C   0  0  0  0  0  2  0  0  0  0  0  0
  183.1320  178.6920  145.0210 C   0  0  0  0  0  2  0  0  0  0  0  0
  185.0590  177.4670  142.7370 C   0  0  0  0  0  2  0  0  0  0  0  0
  185.0870  178.6080  141.7360 C   0  0  0  0  0  2  0  0  0  0  0  0
  183.7750  178.7420  141.1240 N   0  0  0  0  0  2  0  0  0  0  0  0
  183.9920  179.1250  139.7360 C   0  0  1  0  0  3  0  0  0  0  0  0
  185.3090  178.5460  139.2430 C   0  0  0  0  0  1  0  0  0  0  0  0
  182.8170  178.7020  138.8970 C   0  0  0  0  0  0  0  0  0  0  0  0
  182.9880  178.5040  137.7050 O   0  0  0  0  0  0  0  0  0  0  0  0
  181.4310  178.5950  139.4750 C   0  0  0  0  0  2  0  0  0  0  0  0
  180.9310  177.1520  139.5910 C   0  0  1  0  0  3  0  0  0  0  0  0
  179.9370  177.0040  140.7360 C   0  0  0  0  0  2  0  0  0  0  0  0
  179.2390  178.3240  141.0370 C   0  0  0  0  0  2  0  0  0  0  0  0
  179.5540  177.9920  143.4820 O   0  0  0  0  0  1  0  0  0  0  0  0
  179.6480  178.8260  142.3760 C   0  0  0  0  0  0  0  0  0  0  0  0
  180.0740  180.0030  142.5120 O   0  0  0  0  0  0  0  0  0  0  0  0
  180.3470  176.7360  138.3870 O   0  0  0  0  0  0  0  0  0  0  0  0
  181.7780  175.5590  136.3160 O   0  0  0  0  0  0  0  0  0  0  0  0
  180.1790  174.0140  137.9470 O   0  0  0  0  0  1  0  0  0  0  0  0
  181.2110  175.3550  137.8990 P   0  0  0  0  0  0  0  0  0  0  0  0
  182.3780  175.1090  138.8330 O   0  0  0  0  0  1  0  0  0  0  0  0
  1  8  1  0  0  0  0
  2 15  1  0  0  0  0
  3  1  2  0  0  0  0
  4  5  1  0  0  0  0
  4 18  2  0  0  0  0
  5  2  2  0  0  0  0
  6  2  1  6  0  0  0
  6 21  1  0  0  0  0
  7 20  1  0  0  0  0
  7  5  1  0  0  0  0
  8  7  2  0  0  0  0
  9  3  1  0  0  0  0
  9 14  1  0  0  0  0
 10 11  1  0  0  0  0
 11 15  2  0  0  0  0
 12  8  1  0  0  0  0
 13  6  1  0  0  0  0
 13 45  1  0  0  0  0
 14 12  1  0  0  0  0
 15 16  1  0  0  0  0
 16 19  1  0  0  0  0
 17 10  1  0  0  0  0
 18 13  1  0  0  0  0
 20 17  1  0  0  0  0
 21 19  2  0  0  0  0
 23 24  2  0  0  0  0
 24 22  1  0  0  0  0
 24  3  1  0  0  0  0
 25 22  1  0  0  0  0
 26 29  1  0  0  0  0
 26 25  1  0  0  0  0
 27 31  1  0  0  0  0
 28 27  2  0  0  0  0
 28 30  1  0  0  0  0
 30 26  2  0  0  0  0
 31 32  1  1  0  0  0
 31 29  1  0  0  0  0
 33 32  1  0  0  0  0
 34 33  1  1  0  0  0
 34 44  1  0  0  0  0
 35 42  1  1  0  0  0
 35 37  1  0  0  0  0
 35 39  1  0  0  0  0
 37 36  2  0  0  0  0
 37 43  1  0  0  0  0
 39 38  1  1  0  0  0
 39 43  1  0  0  0  0
 40 37  2  0  0  0  0
 42 34  1  0  0  0  0
 44 38  1  0  0  0  0
 44 41  1  1  0  0  0
 46 45  1  6  0  0  0
 47 49  1  0  0  0  0
 47 50  1  0  0  0  0
 48 46  1  0  0  0  0
 49 48  1  0  0  0  0
 50 46  1  0  0  0  0
 51 18  1  0  0  0  0
 52 51  1  0  0  0  0
 53 52  1  0  0  0  0
 54 55  1  6  0  0  0
 54 53  1  0  0  0  0
 56 58  1  0  0  0  0
 56 54  1  0  0  0  0
 57 56  2  0  0  0  0
 59 58  1  6  0  0  0
 59 60  1  0  0  0  0
 60 61  1  0  0  0  0
 61 63  1  0  0  0  0
 63 64  2  0  0  0  0
 63 62  1  0  0  0  0
 65 59  1  0  0  0  0
 66 68  2  0  0  0  0
 68 67  1  0  0  0  0
 68 65  1  0  0  0  0
 68 69  1  0  0  0  0
M  END
>  <MODEL>
4

>  <REMARK>
 VINA RESULT:      -6.3      3.352     10.228
  Name = 
  20 active torsions:
  status: ('A' for Active; 'I' for Inactive)
    1  A    between atoms: N_2  and  C_38
    2  A    between atoms: N_2  and  C_66
    3  A    between atoms: C_3  and  C_43
    4  A    between atoms: C_4  and  N_20
    5  A    between atoms: C_6  and  C_63
    6  A    between atoms: C_14  and  C_60
    7  A    between atoms: C_19  and  C_43
    8  A    between atoms: C_19  and  C_67
    9  A    between atoms: N_20  and  N_39
   10  A    between atoms: C_22  and  C_48
   11  A    between atoms: C_22  and  C_64
   12  A    between atoms: C_31  and  C_38
   13  A    between atoms: C_31  and  C_65
   14  A    between atoms: N_33  and  C_60
   15  A    between atoms: C_42  and  C_57
   16  A    between atoms: C_42  and  C_66
   17  A    between atoms: O_45  and  P_52
   18  A    between atoms: O_45  and  C_55
   19  A    between atoms: C_55  and  C_64
   20  A    between atoms: C_55  and  C_65
                            x       y       z     vdW  Elec       q    Type
                         _______ _______ _______ _____ _____    ______ ____

>  <TORSDO>
F 20

$$$$
=
 OpenBabel10222416513D

 69 76  0  0  1  0  0  0  0  0999 V2000
  183.9590  178.3750  142.2620 C   0  0  0  0  0  3  0  0  0  0  0  0
  181.4530  177.8970  137.9710 C   0  0  0  0  0  0  0  0  0  0  0  0
  185.0650  178.7080  142.9390 C   0  0  0  0  0  0  0  0  0  0  0  0
  183.8330  177.3520  138.0310 N   0  0  0  0  0  0  0  0  0  0  0  0
  182.6330  177.8040  138.6880 C   0  0  0  0  0  0  0  0  0  0  0  0
  181.4590  177.3240  136.6550 C   0  0  0  0  0  0  0  0  0  0  0  0
  182.7640  177.9470  140.1660 C   0  0  0  0  0  0  0  0  0  0  0  0
  183.9230  178.2850  140.7860 C   0  0  0  0  0  0  0  0  0  0  0  0
  186.3390  179.0560  142.2090 C   0  0  0  0  0  2  0  0  0  0  0  0
  180.8210  179.8820  140.3930 C   0  0  0  0  0  2  0  0  0  0  0  0
  179.9680  179.2990  139.3770 N   0  0  0  0  0  0  0  0  0  0  0  0
  185.1600  178.7080  140.0340 C   0  0  0  0  0  2  0  0  0  0  0  0
  182.6750  176.8310  136.0620 N   0  0  0  0  0  0  0  0  0  0  0  0
  186.4120  178.3800  140.8390 C   0  0  0  0  0  2  0  0  0  0  0  0
  180.1800  178.4730  138.3880 C   0  0  0  0  0  0  0  0  0  0  0  0
  179.0840  178.2570  137.6160 N   0  0  0  0  0  0  0  0  0  0  0  0
  180.9870  178.8690  141.5040 C   0  0  0  0  0  2  0  0  0  0  0  0
  183.8800  176.9140  136.8190 C   0  0  0  0  0  0  0  0  0  0  0  0
  179.1280  177.6220  136.4280 C   0  0  0  0  0  3  0  0  0  0  0  0
  181.6300  177.7400  140.9470 O   0  0  0  0  0  0  0  0  0  0  0  0
  180.3070  177.1920  135.9500 N   0  0  0  0  0  0  0  0  0  0  0  0
  185.7560  177.9300  145.2250 N   0  0  0  0  0  2  0  0  0  0  0  0
  184.2810  179.7100  144.9400 O   0  0  0  0  0  0  0  0  0  0  0  0
  185.0050  178.8270  144.4060 C   0  0  0  0  0  0  0  0  0  0  0  0
  185.6100  177.9100  146.6210 N   0  0  0  0  0  2  0  0  0  0  0  0
  186.7430  178.0130  147.4890 C   0  0  0  0  0  0  0  0  0  0  0  0
  189.4080  178.2340  148.6680 C   0  0  0  0  0  3  0  0  0  0  0  0
  188.6500  179.2960  148.3760 C   0  0  0  0  0  3  0  0  0  0  0  0
  187.2620  176.5560  148.4230 S   0  0  0  0  0  0  0  0  0  0  0  0
  187.3930  179.1760  147.6170 C   0  0  0  0  0  3  0  0  0  0  0  0
  189.0560  176.8550  148.1930 C   0  0  1  0  0  3  0  0  0  0  0  0
  189.4830  176.6760  146.7390 C   0  0  0  0  0  2  0  0  0  0  0  0
  190.9990  176.7070  146.6020 C   0  0  0  0  0  2  0  0  0  0  0  0
  191.4150  177.2280  145.2320 C   0  0  1  0  0  3  0  0  0  0  0  0
  191.3610  176.7290  142.7270 C   0  0  1  0  0  3  0  0  0  0  0  0
  188.6860  176.0440  142.3530 O   0  0  0  0  0  0  0  0  0  0  0  0
  189.9370  176.5460  141.6840 S   0  0  0  0  0  0  0  0  0  0  0  0
  191.3970  179.1940  143.7120 C   0  0  0  0  0  2  0  0  0  0  0  0
  191.3970  178.2600  142.4910 C   0  0  2  0  0  3  0  0  0  0  0  0
  190.2170  175.8980  140.3590 O   0  0  0  0  0  0  0  0  0  0  0  0
  189.4030  178.5140  144.8680 O   0  0  0  0  0  1  0  0  0  0  0  0
  190.9810  176.2610  144.1390 C   0  0  0  0  0  2  0  0  0  0  0  0
  190.1020  178.3080  141.6840 C   0  0  0  0  0  2  0  0  0  0  0  0
  190.7970  178.5960  144.9770 C   0  0  1  0  0  3  0  0  0  0  0  0
  182.6890  176.3400  134.6790 C   0  0  0  0  0  2  0  0  0  0  0  0
  182.4640  174.8260  134.5940 C   0  0  1  0  0  3  0  0  0  0  0  0
  180.9580  173.1990  135.4390 C   0  0  0  0  0  2  0  0  0  0  0  0
  183.1250  174.1490  135.6300 O   0  0  0  0  0  0  0  0  0  0  0  0
  182.4070  172.9570  135.8080 C   0  0  0  0  0  2  0  0  0  0  0  0
  180.9960  174.4590  134.6260 C   0  0  0  0  0  2  0  0  0  0  0  0
  185.2060  176.5540  136.2250 C   0  0  0  0  0  2  0  0  0  0  0  0
  186.2820  177.5030  136.7190 C   0  0  0  0  0  2  0  0  0  0  0  0
  187.1980  177.8010  135.6300 N   0  0  0  0  0  2  0  0  0  0  0  0
  188.4010  178.3610  136.2280 C   0  0  1  0  0  3  0  0  0  0  0  0
  188.0370  179.1330  137.4870 C   0  0  0  0  0  1  0  0  0  0  0  0
  189.4040  177.2690  136.4820 C   0  0  0  0  0  0  0  0  0  0  0  0
  189.9110  177.1830  137.5890 O   0  0  0  0  0  0  0  0  0  0  0  0
  189.8510  176.3360  135.3880 C   0  0  0  0  0  2  0  0  0  0  0  0
  189.9020  174.8690  135.8250 C   0  0  1  0  0  3  0  0  0  0  0  0
  188.5880  174.1600  135.5220 C   0  0  0  0  0  2  0  0  0  0  0  0
  188.2570  173.1260  136.5900 C   0  0  0  0  0  2  0  0  0  0  0  0
  186.0540  172.4390  135.6620 O   0  0  0  0  0  0  0  0  0  0  0  0
  187.3460  172.0900  136.0360 C   0  0  0  0  0  0  0  0  0  0  0  0
  187.7360  170.9000  135.9090 O   0  0  0  0  0  1  0  0  0  0  0  0
  190.9650  174.2050  135.1980 O   0  0  0  0  0  0  0  0  0  0  0  0
  193.2920  172.9680  136.0800 O   0  0  0  0  0  1  0  0  0  0  0  0
  191.7040  174.3580  137.8550 O   0  0  0  0  0  1  0  0  0  0  0  0
  192.2830  174.3170  136.2650 P   0  0  0  0  0  0  0  0  0  0  0  0
  193.0690  175.5840  135.9970 O   0  0  0  0  0  0  0  0  0  0  0  0
  1  3  2  0  0  0  0
  2 15  1  0  0  0  0
  2  5  2  0  0  0  0
  3 24  1  0  0  0  0
  4  5  1  0  0  0  0
  5  7  1  0  0  0  0
  6  2  1  0  0  0  0
  7  8  2  0  0  0  0
  7 20  1  0  0  0  0
  8  1  1  0  0  0  0
  9  3  1  0  0  0  0
 10 17  1  0  0  0  0
 11 10  1  0  0  0  0
 12  8  1  0  0  0  0
 12 14  1  0  0  0  0
 13  6  1  0  0  0  0
 13 18  1  0  0  0  0
 14  9  1  0  0  0  0
 15 11  2  0  0  0  0
 16 15  1  0  0  0  0
 18  4  2  0  0  0  0
 19 16  2  0  0  0  0
 20 17  1  0  0  0  0
 21 19  1  0  0  0  0
 21  6  2  0  0  0  0
 22 25  1  0  0  0  0
 24 23  2  0  0  0  0
 24 22  1  0  0  0  0
 25 26  1  0  0  0  0
 26 30  2  0  0  0  0
 26 29  1  0  0  0  0
 28 27  2  0  0  0  0
 30 28  1  0  0  0  0
 31 32  1  6  0  0  0
 31 29  1  0  0  0  0
 31 27  1  0  0  0  0
 33 32  1  0  0  0  0
 34 33  1  1  0  0  0
 35 42  1  1  0  0  0
 37 36  2  0  0  0  0
 37 35  1  0  0  0  0
 38 44  1  0  0  0  0
 39 43  1  6  0  0  0
 39 35  1  0  0  0  0
 39 38  1  0  0  0  0
 40 37  2  0  0  0  0
 42 34  1  0  0  0  0
 43 37  1  0  0  0  0
 44 41  1  6  0  0  0
 44 34  1  0  0  0  0
 45 13  1  0  0  0  0
 46 50  1  0  0  0  0
 46 45  1  1  0  0  0
 46 48  1  0  0  0  0
 47 49  1  0  0  0  0
 48 49  1  0  0  0  0
 50 47  1  0  0  0  0
 51 52  1  0  0  0  0
 51 18  1  0  0  0  0
 53 54  1  0  0  0  0
 53 52  1  0  0  0  0
 54 56  1  0  0  0  0
 54 55  1  1  0  0  0
 56 57  2  0  0  0  0
 58 56  1  0  0  0  0
 59 58  1  6  0  0  0
 60 59  1  0  0  0  0
 60 61  1  0  0  0  0
 62 63  2  0  0  0  0
 63 61  1  0  0  0  0
 64 63  1  0  0  0  0
 65 59  1  0  0  0  0
 65 68  1  0  0  0  0
 66 68  1  0  0  0  0
 68 67  1  0  0  0  0
 69 68  2  0  0  0  0
M  END
>  <MODEL>
5

>  <REMARK>
 VINA RESULT:      -5.9      3.502     10.673
  Name = 
  20 active torsions:
  status: ('A' for Active; 'I' for Inactive)
    1  A    between atoms: N_2  and  C_38
    2  A    between atoms: N_2  and  C_66
    3  A    between atoms: C_3  and  C_43
    4  A    between atoms: C_4  and  N_20
    5  A    between atoms: C_6  and  C_63
    6  A    between atoms: C_14  and  C_60
    7  A    between atoms: C_19  and  C_43
    8  A    between atoms: C_19  and  C_67
    9  A    between atoms: N_20  and  N_39
   10  A    between atoms: C_22  and  C_48
   11  A    between atoms: C_22  and  C_64
   12  A    between atoms: C_31  and  C_38
   13  A    between atoms: C_31  and  C_65
   14  A    between atoms: N_33  and  C_60
   15  A    between atoms: C_42  and  C_57
   16  A    between atoms: C_42  and  C_66
   17  A    between atoms: O_45  and  P_52
   18  A    between atoms: O_45  and  C_55
   19  A    between atoms: C_55  and  C_64
   20  A    between atoms: C_55  and  C_65
                            x       y       z     vdW  Elec       q    Type
                         _______ _______ _______ _____ _____    ______ ____

>  <TORSDO>
F 20

$$$$
=
 OpenBabel10222416513D

 69 76  0  0  1  0  0  0  0  0999 V2000
  183.8180  178.4790  142.3920 C   0  0  0  0  0  3  0  0  0  0  0  0
  181.3120  178.0930  138.0910 C   0  0  0  0  0  0  0  0  0  0  0  0
  184.9150  178.8200  143.0780 C   0  0  0  0  0  0  0  0  0  0  0  0
  183.7090  177.6210  138.1240 N   0  0  0  0  0  0  0  0  0  0  0  0
  182.4970  178.0080  138.8000 C   0  0  0  0  0  0  0  0  0  0  0  0
  181.3330  177.5730  136.7530 C   0  0  0  0  0  0  0  0  0  0  0  0
  182.6300  178.0970  140.2830 C   0  0  0  0  0  0  0  0  0  0  0  0
  183.7790  178.4470  140.9130 C   0  0  0  0  0  0  0  0  0  0  0  0
  186.1750  179.2360  142.3600 C   0  0  0  0  0  2  0  0  0  0  0  0
  180.6270  179.9590  140.5900 C   0  0  0  0  0  2  0  0  0  0  0  0
  179.7900  179.3910  139.5550 N   0  0  0  0  0  0  0  0  0  0  0  0
  184.9990  178.9370  140.1750 C   0  0  0  0  0  2  0  0  0  0  0  0
  182.5610  177.1420  136.1380 N   0  0  0  0  0  0  0  0  0  0  0  0
  186.2650  178.6170  140.9640 C   0  0  0  0  0  2  0  0  0  0  0  0
  180.0240  178.6120  138.5330 C   0  0  0  0  0  0  0  0  0  0  0  0
  178.9320  178.3920  137.7560 N   0  0  0  0  0  0  0  0  0  0  0  0
  180.8290  178.9090  141.6600 C   0  0  0  0  0  2  0  0  0  0  0  0
  183.7660  177.2330  136.8950 C   0  0  0  0  0  0  0  0  0  0  0  0
  178.9920  177.8060  136.5440 C   0  0  0  0  0  3  0  0  0  0  0  0
  181.5050  177.8240  141.0580 O   0  0  0  0  0  0  0  0  0  0  0  0
  180.1820  177.4330  136.0450 N   0  0  0  0  0  0  0  0  0  0  0  0
  185.6220  177.9600  145.3300 N   0  0  0  0  0  2  0  0  0  0  0  0
  184.1210  179.7290  145.1200 O   0  0  0  0  0  0  0  0  0  0  0  0
  184.8570  178.8790  144.5490 C   0  0  0  0  0  0  0  0  0  0  0  0
  185.4790  177.8820  146.7250 N   0  0  0  0  0  2  0  0  0  0  0  0
  186.6100  177.9890  147.5960 C   0  0  0  0  0  0  0  0  0  0  0  0
  189.2680  178.2490  148.7810 C   0  0  0  0  0  3  0  0  0  0  0  0
  188.4820  179.2980  148.5210 C   0  0  0  0  0  3  0  0  0  0  0  0
  187.1700  176.5200  148.4850 S   0  0  0  0  0  0  0  0  0  0  0  0
  187.2270  179.1650  147.7590 C   0  0  0  0  0  3  0  0  0  0  0  0
  188.9540  176.8750  148.2630 C   0  0  1  0  0  3  0  0  0  0  0  0
  189.3850  176.7530  146.8040 C   0  0  0  0  0  2  0  0  0  0  0  0
  190.8770  176.4720  146.6930 C   0  0  0  0  0  2  0  0  0  0  0  0
  191.4380  177.0070  145.3800 C   0  0  1  0  0  3  0  0  0  0  0  0
  191.5130  176.6210  142.8550 C   0  0  1  0  0  3  0  0  0  0  0  0
  188.8160  176.2250  142.2720 O   0  0  0  0  0  0  0  0  0  0  0  0
  190.1550  176.6270  141.7130 S   0  0  0  0  0  0  0  0  0  0  0  0
  191.7190  179.0260  143.9600 C   0  0  0  0  0  2  0  0  0  0  0  0
  191.7140  178.1490  142.6970 C   0  0  2  0  0  3  0  0  0  0  0  0
  190.4640  176.0100  140.3790 O   0  0  0  0  0  0  0  0  0  0  0  0
  189.5920  178.5020  144.9470 O   0  0  0  0  0  1  0  0  0  0  0  0
  190.9910  176.1350  144.2150 C   0  0  0  0  0  2  0  0  0  0  0  0
  190.4900  178.3610  141.8100 C   0  0  0  0  0  2  0  0  0  0  0  0
  190.9750  178.4390  145.1520 C   0  0  1  0  0  3  0  0  0  0  0  0
  182.5850  176.7060  134.7370 C   0  0  0  0  0  2  0  0  0  0  0  0
  182.4340  175.1870  134.5940 C   0  0  1  0  0  3  0  0  0  0  0  0
  182.1980  173.2820  135.9870 C   0  0  0  0  0  2  0  0  0  0  0  0
  183.6800  174.5420  134.6270 O   0  0  0  0  0  0  0  0  0  0  0  0
  183.4100  173.2420  135.0780 C   0  0  0  0  0  2  0  0  0  0  0  0
  181.5450  174.5930  135.6640 C   0  0  0  0  0  2  0  0  0  0  0  0
  185.0990  176.9380  136.2840 C   0  0  0  0  0  2  0  0  0  0  0  0
  186.2050  177.6040  137.0830 C   0  0  0  0  0  2  0  0  0  0  0  0
  187.2900  177.9720  136.1870 N   0  0  0  0  0  2  0  0  0  0  0  0
  188.4370  178.2980  137.0220 C   0  0  1  0  0  3  0  0  0  0  0  0
  188.0360  178.2450  138.4890 C   0  0  0  0  0  1  0  0  0  0  0  0
  189.5860  177.3820  136.6970 C   0  0  0  0  0  0  0  0  0  0  0  0
  190.5390  177.3440  137.4580 O   0  0  0  0  0  0  0  0  0  0  0  0
  189.6200  176.5790  135.4240 C   0  0  0  0  0  2  0  0  0  0  0  0
  189.5480  175.0680  135.6580 C   0  0  1  0  0  3  0  0  0  0  0  0
  190.9410  174.4570  135.7390 C   0  0  0  0  0  2  0  0  0  0  0  0
  191.9000  175.1330  134.7690 C   0  0  0  0  0  2  0  0  0  0  0  0
  194.2500  175.7990  135.2360 O   0  0  0  0  0  0  0  0  0  0  0  0
  193.3050  174.7890  135.1120 C   0  0  0  0  0  0  0  0  0  0  0  0
  193.6430  173.5890  135.2870 O   0  0  0  0  0  1  0  0  0  0  0  0
  188.8280  174.7850  136.8270 O   0  0  0  0  0  0  0  0  0  0  0  0
  186.2030  173.8810  136.9570 O   0  0  0  0  0  1  0  0  0  0  0  0
  188.2950  172.1000  137.2010 O   0  0  0  0  0  1  0  0  0  0  0  0
  187.7710  173.5130  136.4310 P   0  0  0  0  0  0  0  0  0  0  0  0
  187.7660  173.2820  134.9330 O   0  0  0  0  0  0  0  0  0  0  0  0
  1  3  2  0  0  0  0
  2 15  1  0  0  0  0
  2  5  2  0  0  0  0
  3 24  1  0  0  0  0
  4  5  1  0  0  0  0
  5  7  1  0  0  0  0
  6  2  1  0  0  0  0
  7  8  2  0  0  0  0
  7 20  1  0  0  0  0
  8  1  1  0  0  0  0
  9  3  1  0  0  0  0
 10 17  1  0  0  0  0
 11 10  1  0  0  0  0
 12  8  1  0  0  0  0
 12 14  1  0  0  0  0
 13  6  1  0  0  0  0
 13 18  1  0  0  0  0
 14  9  1  0  0  0  0
 15 11  2  0  0  0  0
 16 15  1  0  0  0  0
 18  4  2  0  0  0  0
 19 16  2  0  0  0  0
 20 17  1  0  0  0  0
 21 19  1  0  0  0  0
 21  6  2  0  0  0  0
 22 25  1  0  0  0  0
 24 23  2  0  0  0  0
 24 22  1  0  0  0  0
 25 26  1  0  0  0  0
 26 30  2  0  0  0  0
 26 29  1  0  0  0  0
 28 27  2  0  0  0  0
 30 28  1  0  0  0  0
 31 32  1  6  0  0  0
 31 29  1  0  0  0  0
 31 27  1  0  0  0  0
 33 32  1  0  0  0  0
 34 33  1  1  0  0  0
 35 42  1  1  0  0  0
 37 43  1  0  0  0  0
 37 36  2  0  0  0  0
 37 35  1  0  0  0  0
 38 44  1  0  0  0  0
 39 43  1  6  0  0  0
 39 35  1  0  0  0  0
 39 38  1  0  0  0  0
 40 37  2  0  0  0  0
 42 34  1  0  0  0  0
 44 41  1  6  0  0  0
 44 34  1  0  0  0  0
 45 13  1  0  0  0  0
 46 48  1  0  0  0  0
 46 45  1  1  0  0  0
 46 50  1  0  0  0  0
 48 49  1  0  0  0  0
 49 47  1  0  0  0  0
 50 47  1  0  0  0  0
 51 18  1  0  0  0  0
 51 52  1  0  0  0  0
 53 54  1  0  0  0  0
 53 52  1  0  0  0  0
 54 55  1  1  0  0  0
 56 54  1  0  0  0  0
 56 57  2  0  0  0  0
 58 56  1  0  0  0  0
 59 58  1  1  0  0  0
 59 60  1  0  0  0  0
 59 65  1  0  0  0  0
 61 63  1  0  0  0  0
 61 60  1  0  0  0  0
 63 62  2  0  0  0  0
 63 64  1  0  0  0  0
 68 65  1  0  0  0  0
 68 66  1  0  0  0  0
 68 67  1  0  0  0  0
 69 68  2  0  0  0  0
M  END
>  <MODEL>
6

>  <REMARK>
 VINA RESULT:      -5.6      3.302     10.505
  Name = 
  20 active torsions:
  status: ('A' for Active; 'I' for Inactive)
    1  A    between atoms: N_2  and  C_38
    2  A    between atoms: N_2  and  C_66
    3  A    between atoms: C_3  and  C_43
    4  A    between atoms: C_4  and  N_20
    5  A    between atoms: C_6  and  C_63
    6  A    between atoms: C_14  and  C_60
    7  A    between atoms: C_19  and  C_43
    8  A    between atoms: C_19  and  C_67
    9  A    between atoms: N_20  and  N_39
   10  A    between atoms: C_22  and  C_48
   11  A    between atoms: C_22  and  C_64
   12  A    between atoms: C_31  and  C_38
   13  A    between atoms: C_31  and  C_65
   14  A    between atoms: N_33  and  C_60
   15  A    between atoms: C_42  and  C_57
   16  A    between atoms: C_42  and  C_66
   17  A    between atoms: O_45  and  P_52
   18  A    between atoms: O_45  and  C_55
   19  A    between atoms: C_55  and  C_64
   20  A    between atoms: C_55  and  C_65
                            x       y       z     vdW  Elec       q    Type
                         _______ _______ _______ _____ _____    ______ ____

>  <TORSDO>
F 20

$$$$
=
 OpenBabel10222416513D

 69 76  0  0  1  0  0  0  0  0999 V2000
  185.3490  177.9660  138.8160 C   0  0  0  0  0  3  0  0  0  0  0  0
  189.8510  176.9230  136.9260 C   0  0  0  0  0  0  0  0  0  0  0  0
  184.5730  178.5890  139.7110 C   0  0  0  0  0  0  0  0  0  0  0  0
  189.5860  177.1120  139.3470 N   0  0  0  0  0  0  0  0  0  0  0  0
  189.0340  177.1590  138.0170 C   0  0  0  0  0  0  0  0  0  0  0  0
  191.1680  176.4280  137.2120 C   0  0  1  0  0  3  0  0  0  0  0  0
  187.5480  177.2800  137.9800 C   0  0  0  0  0  0  0  0  0  0  0  0
  186.8240  177.9250  138.9280 C   0  0  0  0  0  0  0  0  0  0  0  0
  185.1830  179.3280  140.8760 C   0  0  0  0  0  2  0  0  0  0  0  0
  187.4730  178.5350  135.5320 C   0  0  0  0  0  2  0  0  0  0  0  0
  188.5660  177.7630  134.9800 N   0  0  0  0  0  0  0  0  0  0  0  0
  187.4590  178.7260  140.0370 C   0  0  0  0  0  2  0  0  0  0  0  0
  191.6560  176.3430  138.5640 N   0  0  0  0  0  0  0  0  0  0  0  0
  186.5490  178.7570  141.2610 C   0  0  0  0  0  2  0  0  0  0  0  0
  189.5430  177.0760  135.5100 C   0  0  0  0  0  0  0  0  0  0  0  0
  190.4110  176.5710  134.5960 N   0  0  0  0  0  2  0  0  0  0  0  0
  186.3630  177.5770  135.9040 C   0  0  0  0  0  2  0  0  0  0  0  0
  190.7950  176.7540  139.6230 C   0  0  0  0  0  0  0  0  0  0  0  0
  191.5970  176.0230  134.9260 C   0  0  0  0  0  3  0  0  0  0  0  0
  186.8730  176.7140  136.9010 O   0  0  0  0  0  0  0  0  0  0  0  0
  191.9740  175.9840  136.2140 N   0  0  0  0  0  0  0  0  0  0  0  0
  182.5510  178.0550  138.3190 N   0  0  0  0  0  2  0  0  0  0  0  0
  182.3680  179.1830  140.3490 O   0  0  0  0  0  0  0  0  0  0  0  0
  183.1170  178.6290  139.4990 C   0  0  0  0  0  0  0  0  0  0  0  0
  181.1910  178.2050  138.0060 N   0  0  0  0  0  2  0  0  0  0  0  0
  180.3630  177.0730  137.7230 C   0  0  0  0  0  0  0  0  0  0  0  0
  179.2690  174.4780  136.9430 C   0  0  0  0  0  3  0  0  0  0  0  0
  179.6860  174.7490  138.1840 C   0  0  0  0  0  3  0  0  0  0  0  0
  179.2540  177.1360  136.2980 S   0  0  0  0  0  0  0  0  0  0  0  0
  180.4010  175.9950  138.5150 C   0  0  0  0  0  3  0  0  0  0  0  0
  179.5520  175.4000  135.7930 C   0  0  1  0  0  3  0  0  0  0  0  0
  180.9770  175.1870  135.2890 C   0  0  0  0  0  2  0  0  0  0  0  0
  181.3550  173.7130  135.3120 C   0  0  0  0  0  2  0  0  0  0  0  0
  182.4060  173.4340  136.3800 C   0  0  1  0  0  3  0  0  0  0  0  0
  184.5280  172.1050  136.8930 C   0  0  1  0  0  3  0  0  0  0  0  0
  186.0580  172.5960  134.6160 O   0  0  0  0  0  0  0  0  0  0  0  0
  186.0950  172.1960  136.0670 S   0  0  0  0  0  0  0  0  0  0  0  0
  183.9950  174.4640  137.9890 C   0  0  0  0  0  2  0  0  0  0  0  0
  184.9220  173.2440  137.8680 C   0  0  2  0  0  3  0  0  0  0  0  0
  187.0150  171.0440  136.3530 O   0  0  0  0  0  0  0  0  0  0  0  0
  183.8730  175.2340  135.7160 O   0  0  0  0  0  1  0  0  0  0  0  0
  183.4290  172.4280  135.8700 C   0  0  0  0  0  2  0  0  0  0  0  0
  186.2550  173.5530  137.1900 C   0  0  0  0  0  2  0  0  0  0  0  0
  183.1130  174.7230  136.7750 C   0  0  1  0  0  3  0  0  0  0  0  0
  193.0380  175.9310  138.8370 C   0  0  0  0  0  2  0  0  0  0  0  0
  193.6980  175.2580  137.6280 C   0  0  1  0  0  3  0  0  0  0  0  0
  195.2160  173.4910  137.1820 C   0  0  0  0  0  2  0  0  0  0  0  0
  194.9370  175.8430  137.3280 O   0  0  0  0  0  0  0  0  0  0  0  0
  195.6680  174.8430  136.6690 C   0  0  0  0  0  2  0  0  0  0  0  0
  193.8940  173.7710  137.8310 C   0  0  0  0  0  2  0  0  0  0  0  0
  191.2730  176.8290  141.0380 C   0  0  0  0  0  2  0  0  0  0  0  0
  191.2470  178.2650  141.5300 C   0  0  0  0  0  2  0  0  0  0  0  0
  191.0260  178.2780  142.9670 N   0  0  0  0  0  2  0  0  0  0  0  0
  190.7560  176.9040  143.3660 C   0  0  1  0  0  3  0  0  0  0  0  0
  191.5050  176.5870  144.6520 C   0  0  0  0  0  1  0  0  0  0  0  0
  189.2720  176.6870  143.4870 C   0  0  0  0  0  0  0  0  0  0  0  0
  188.5760  176.8220  142.4930 O   0  0  0  0  0  0  0  0  0  0  0  0
  188.6220  176.3860  144.8110 C   0  0  0  0  0  2  0  0  0  0  0  0
  187.7400  177.5260  145.3270 C   0  0  1  0  0  3  0  0  0  0  0  0
  186.7400  177.9700  144.2670 C   0  0  0  0  0  2  0  0  0  0  0  0
  185.3070  177.7600  144.7360 C   0  0  0  0  0  2  0  0  0  0  0  0
  183.6140  179.5200  144.2610 O   0  0  0  0  0  0  0  0  0  0  0  0
  184.6700  179.0690  145.0420 C   0  0  0  0  0  0  0  0  0  0  0  0
  185.0860  179.7710  146.0010 O   0  0  0  0  0  1  0  0  0  0  0  0
  187.0680  177.1390  146.4940 O   0  0  0  0  0  0  0  0  0  0  0  0
  187.6960  176.9530  149.1950 O   0  0  0  0  0  1  0  0  0  0  0  0
  187.2910  179.4220  148.0340 O   0  0  0  0  0  1  0  0  0  0  0  0
  187.9070  177.8650  147.7820 P   0  0  0  0  0  0  0  0  0  0  0  0
  189.3820  177.9690  147.4550 O   0  0  0  0  0  0  0  0  0  0  0  0
  1  8  1  0  0  0  0
  1  3  2  0  0  0  0
  2  6  1  0  0  0  0
  2  5  2  0  0  0  0
  3  9  1  0  0  0  0
  4 18  2  0  0  0  0
  5  4  1  0  0  0  0
  6 21  1  1  0  0  0
  6 13  1  0  0  0  0
  7  5  1  0  0  0  0
  7  8  2  0  0  0  0
  8 12  1  0  0  0  0
  9 14  1  0  0  0  0
 10 17  1  0  0  0  0
 11 15  2  0  0  0  0
 11 10  1  0  0  0  0
 12 14  1  0  0  0  0
 13 45  1  0  0  0  0
 13 18  1  0  0  0  0
 15  2  1  0  0  0  0
 16 19  1  0  0  0  0
 16 15  1  0  0  0  0
 17 20  1  0  0  0  0
 18 51  1  0  0  0  0
 19 21  2  0  0  0  0
 20  7  1  0  0  0  0
 22 24  1  0  0  0  0
 24  3  1  0  0  0  0
 24 23  2  0  0  0  0
 25 22  1  0  0  0  0
 26 25  1  0  0  0  0
 26 30  2  0  0  0  0
 27 28  2  0  0  0  0
 28 30  1  0  0  0  0
 29 26  1  0  0  0  0
 31 32  1  1  0  0  0
 31 29  1  0  0  0  0
 31 27  1  0  0  0  0
 32 33  1  0  0  0  0
 34 33  1  6  0  0  0
 34 44  1  0  0  0  0
 35 42  1  6  0  0  0
 35 39  1  0  0  0  0
 36 37  2  0  0  0  0
 37 40  2  0  0  0  0
 37 35  1  0  0  0  0
 37 43  1  0  0  0  0
 39 43  1  6  0  0  0
 39 38  1  0  0  0  0
 42 34  1  0  0  0  0
 44 41  1  6  0  0  0
 44 38  1  0  0  0  0
 46 50  1  0  0  0  0
 46 45  1  1  0  0  0
 47 50  1  0  0  0  0
 48 46  1  0  0  0  0
 49 47  1  0  0  0  0
 49 48  1  0  0  0  0
 51 52  1  0  0  0  0
 52 53  1  0  0  0  0
 53 54  1  0  0  0  0
 54 56  1  0  0  0  0
 54 55  1  1  0  0  0
 56 58  1  0  0  0  0
 57 56  2  0  0  0  0
 58 59  1  0  0  0  0
 59 60  1  6  0  0  0
 59 65  1  0  0  0  0
 60 61  1  0  0  0  0
 61 63  1  0  0  0  0
 62 63  2  0  0  0  0
 63 64  1  0  0  0  0
 65 68  1  0  0  0  0
 68 67  1  0  0  0  0
 68 66  1  0  0  0  0
 69 68  2  0  0  0  0
M  END
>  <MODEL>
7

>  <REMARK>
 VINA RESULT:      -5.2      1.886      3.148
  Name = 
  20 active torsions:
  status: ('A' for Active; 'I' for Inactive)
    1  A    between atoms: N_2  and  C_38
    2  A    between atoms: N_2  and  C_66
    3  A    between atoms: C_3  and  C_43
    4  A    between atoms: C_4  and  N_20
    5  A    between atoms: C_6  and  C_63
    6  A    between atoms: C_14  and  C_60
    7  A    between atoms: C_19  and  C_43
    8  A    between atoms: C_19  and  C_67
    9  A    between atoms: N_20  and  N_39
   10  A    between atoms: C_22  and  C_48
   11  A    between atoms: C_22  and  C_64
   12  A    between atoms: C_31  and  C_38
   13  A    between atoms: C_31  and  C_65
   14  A    between atoms: N_33  and  C_60
   15  A    between atoms: C_42  and  C_57
   16  A    between atoms: C_42  and  C_66
   17  A    between atoms: O_45  and  P_52
   18  A    between atoms: O_45  and  C_55
   19  A    between atoms: C_55  and  C_64
   20  A    between atoms: C_55  and  C_65
                            x       y       z     vdW  Elec       q    Type
                         _______ _______ _______ _____ _____    ______ ____

>  <TORSDO>
F 20

$$$$
=
 OpenBabel10222416513D

 69 76  0  0  1  0  0  0  0  0999 V2000
  186.0330  177.7960  139.3070 C   0  0  0  0  0  3  0  0  0  0  0  0
  190.3340  176.8420  136.9600 C   0  0  0  0  0  0  0  0  0  0  0  0
  185.3370  178.4240  140.2640 C   0  0  0  0  0  0  0  0  0  0  0  0
  190.3320  177.1090  139.3880 N   0  0  0  0  0  0  0  0  0  0  0  0
  189.6340  177.0900  138.1280 C   0  0  0  0  0  0  0  0  0  0  0  0
  191.6920  176.4040  137.1120 C   0  0  1  0  0  3  0  0  0  0  0  0
  188.1500  177.1570  138.2530 C   0  0  0  0  0  0  0  0  0  0  0  0
  187.5110  177.8110  139.2550 C   0  0  0  0  0  0  0  0  0  0  0  0
  186.0440  179.2260  141.3290 C   0  0  0  0  0  2  0  0  0  0  0  0
  187.7560  178.3200  135.7900 C   0  0  0  0  0  2  0  0  0  0  0  0
  188.8100  177.5670  135.1440 N   0  0  0  0  0  0  0  0  0  0  0  0
  188.2340  178.6720  140.2600 C   0  0  0  0  0  2  0  0  0  0  0  0
  192.3310  176.3850  138.4030 N   0  0  0  0  0  0  0  0  0  0  0  0
  187.4640  178.7160  141.5760 C   0  0  0  0  0  2  0  0  0  0  0  0
  189.8650  176.9340  135.5830 C   0  0  0  0  0  0  0  0  0  0  0  0
  190.6460  176.4260  134.5940 N   0  0  0  0  0  2  0  0  0  0  0  0
  186.7320  177.3390  136.3150 C   0  0  0  0  0  2  0  0  0  0  0  0
  191.5760  176.8040  139.5380 C   0  0  0  0  0  0  0  0  0  0  0  0
  191.8810  175.9330  134.8060 C   0  0  0  0  0  3  0  0  0  0  0  0
  187.3820  176.5300  137.2750 O   0  0  0  0  0  0  0  0  0  0  0  0
  192.4000  175.9530  136.0450 N   0  0  0  0  0  0  0  0  0  0  0  0
  183.1800  177.2230  139.8020 N   0  0  0  0  0  2  0  0  0  0  0  0
  183.2090  179.4380  140.5230 O   0  0  0  0  0  0  0  0  0  0  0  0
  183.8660  178.4070  140.2150 C   0  0  0  0  0  0  0  0  0  0  0  0
  181.7910  177.2110  139.5960 N   0  0  0  0  0  2  0  0  0  0  0  0
  181.2330  177.3270  138.2840 C   0  0  0  0  0  0  0  0  0  0  0  0
  180.5810  177.1050  135.4440 C   0  0  0  0  0  3  0  0  0  0  0  0
  180.0090  176.3450  136.3840 C   0  0  0  0  0  3  0  0  0  0  0  0
  181.5420  178.8320  137.3330 S   0  0  0  0  0  0  0  0  0  0  0  0
  180.4790  176.3420  137.7800 C   0  0  0  0  0  3  0  0  0  0  0  0
  181.7770  177.9620  135.7370 C   0  0  1  0  0  3  0  0  0  0  0  0
  183.0450  177.1150  135.7290 C   0  0  0  0  0  2  0  0  0  0  0  0
  182.9770  176.0310  134.6610 C   0  0  0  0  0  2  0  0  0  0  0  0
  182.9220  174.6450  135.2900 C   0  0  1  0  0  3  0  0  0  0  0  0
  183.9010  172.2860  135.1840 C   0  0  1  0  0  3  0  0  0  0  0  0
  186.6340  172.8210  135.0780 O   0  0  0  0  0  0  0  0  0  0  0  0
  185.5880  171.7960  135.4280 S   0  0  0  0  0  0  0  0  0  0  0  0
  182.9870  173.3760  137.4260 C   0  0  0  0  0  2  0  0  0  0  0  0
  183.5970  172.1660  136.6980 C   0  0  2  0  0  3  0  0  0  0  0  0
  185.9100  170.4130  134.9410 O   0  0  0  0  0  0  0  0  0  0  0  0
  184.5950  175.1020  136.9710 O   0  0  0  0  0  1  0  0  0  0  0  0
  183.8960  173.7040  134.5940 C   0  0  0  0  0  2  0  0  0  0  0  0
  185.0370  171.8680  137.1070 C   0  0  0  0  0  2  0  0  0  0  0  0
  183.2620  174.7230  136.7730 C   0  0  1  0  0  3  0  0  0  0  0  0
  193.7490  176.0300  138.5330 C   0  0  0  0  0  2  0  0  0  0  0  0
  193.9990  174.5330  138.3240 C   0  0  1  0  0  3  0  0  0  0  0  0
  195.8320  173.0300  138.2300 C   0  0  0  0  0  2  0  0  0  0  0  0
  194.2200  174.2330  136.9710 O   0  0  0  0  0  0  0  0  0  0  0  0
  194.9870  173.0580  136.9740 C   0  0  0  0  0  2  0  0  0  0  0  0
  195.1710  174.0260  139.1360 C   0  0  0  0  0  2  0  0  0  0  0  0
  192.2050  176.9460  140.8880 C   0  0  0  0  0  2  0  0  0  0  0  0
  191.3300  177.7960  141.7920 C   0  0  0  0  0  2  0  0  0  0  0  0
  191.9300  177.8670  143.1140 N   0  0  0  0  0  2  0  0  0  0  0  0
  191.0600  178.6990  143.9310 C   0  0  1  0  0  3  0  0  0  0  0  0
  190.6840  179.9580  143.1640 C   0  0  0  0  0  1  0  0  0  0  0  0
  189.8610  177.9060  144.3760 C   0  0  0  0  0  0  0  0  0  0  0  0
  188.7560  178.2400  143.9790 O   0  0  0  0  0  0  0  0  0  0  0  0
  189.9850  176.7680  145.3540 C   0  0  0  0  0  2  0  0  0  0  0  0
  189.4310  177.1000  146.7430 C   0  0  1  0  0  3  0  0  0  0  0  0
  187.9080  177.1720  146.7240 C   0  0  0  0  0  2  0  0  0  0  0  0
  187.4100  178.4970  147.2830 C   0  0  0  0  0  2  0  0  0  0  0  0
  185.7490  178.7380  145.4470 O   0  0  0  0  0  0  0  0  0  0  0  0
  186.0270  178.7670  146.8080 C   0  0  0  0  0  0  0  0  0  0  0  0
  185.1090  179.0240  147.6300 O   0  0  0  0  0  1  0  0  0  0  0  0
  189.8580  176.1520  147.6820 O   0  0  0  0  0  0  0  0  0  0  0  0
  192.1040  175.9680  146.0560 O   0  0  0  0  0  0  0  0  0  0  0  0
  192.1570  174.9360  148.6140 O   0  0  0  0  0  1  0  0  0  0  0  0
  191.5570  176.1880  147.6450 P   0  0  0  0  0  0  0  0  0  0  0  0
  192.0660  177.5110  148.1820 O   0  0  0  0  0  1  0  0  0  0  0  0
  1  3  2  0  0  0  0
  2  6  1  0  0  0  0
  2  5  2  0  0  0  0
  3  9  1  0  0  0  0
  4 18  2  0  0  0  0
  5  7  1  0  0  0  0
  5  4  1  0  0  0  0
  6 21  1  1  0  0  0
  6 13  1  0  0  0  0
  7  8  2  0  0  0  0
  8  1  1  0  0  0  0
  8 12  1  0  0  0  0
  9 14  1  0  0  0  0
 10 17  1  0  0  0  0
 11 15  2  0  0  0  0
 11 10  1  0  0  0  0
 12 14  1  0  0  0  0
 13 45  1  0  0  0  0
 13 18  1  0  0  0  0
 15  2  1  0  0  0  0
 16 19  1  0  0  0  0
 16 15  1  0  0  0  0
 17 20  1  0  0  0  0
 18 51  1  0  0  0  0
 19 21  2  0  0  0  0
 20  7  1  0  0  0  0
 22 24  1  0  0  0  0
 24  3  1  0  0  0  0
 24 23  2  0  0  0  0
 25 22  1  0  0  0  0
 26 25  1  0  0  0  0
 27 31  1  0  0  0  0
 27 28  2  0  0  0  0
 28 30  1  0  0  0  0
 29 26  1  0  0  0  0
 30 26  2  0  0  0  0
 31 32  1  1  0  0  0
 31 29  1  0  0  0  0
 33 32  1  0  0  0  0
 34 33  1  6  0  0  0
 34 44  1  0  0  0  0
 35 42  1  1  0  0  0
 35 37  1  0  0  0  0
 35 39  1  0  0  0  0
 36 37  2  0  0  0  0
 37 43  1  0  0  0  0
 39 43  1  1  0  0  0
 39 38  1  0  0  0  0
 40 37  2  0  0  0  0
 42 34  1  0  0  0  0
 44 41  1  6  0  0  0
 44 38  1  0  0  0  0
 46 45  1  6  0  0  0
 46 50  1  0  0  0  0
 47 50  1  0  0  0  0
 48 49  1  0  0  0  0
 48 46  1  0  0  0  0
 49 47  1  0  0  0  0
 51 52  1  0  0  0  0
 52 53  1  0  0  0  0
 53 54  1  0  0  0  0
 54 55  1  6  0  0  0
 54 56  1  0  0  0  0
 56 58  1  0  0  0  0
 57 56  2  0  0  0  0
 59 58  1  6  0  0  0
 59 65  1  0  0  0  0
 60 59  1  0  0  0  0
 60 61  1  0  0  0  0
 62 63  2  0  0  0  0
 63 61  1  0  0  0  0
 63 64  1  0  0  0  0
 66 68  2  0  0  0  0
 68 65  1  0  0  0  0
 68 69  1  0  0  0  0
 68 67  1  0  0  0  0
M  END
>  <MODEL>
8

>  <REMARK>
 VINA RESULT:      -4.5      1.779      3.013
  Name = 
  20 active torsions:
  status: ('A' for Active; 'I' for Inactive)
    1  A    between atoms: N_2  and  C_38
    2  A    between atoms: N_2  and  C_66
    3  A    between atoms: C_3  and  C_43
    4  A    between atoms: C_4  and  N_20
    5  A    between atoms: C_6  and  C_63
    6  A    between atoms: C_14  and  C_60
    7  A    between atoms: C_19  and  C_43
    8  A    between atoms: C_19  and  C_67
    9  A    between atoms: N_20  and  N_39
   10  A    between atoms: C_22  and  C_48
   11  A    between atoms: C_22  and  C_64
   12  A    between atoms: C_31  and  C_38
   13  A    between atoms: C_31  and  C_65
   14  A    between atoms: N_33  and  C_60
   15  A    between atoms: C_42  and  C_57
   16  A    between atoms: C_42  and  C_66
   17  A    between atoms: O_45  and  P_52
   18  A    between atoms: O_45  and  C_55
   19  A    between atoms: C_55  and  C_64
   20  A    between atoms: C_55  and  C_65
                            x       y       z     vdW  Elec       q    Type
                         _______ _______ _______ _____ _____    ______ ____

>  <TORSDO>
F 20

$$$$
=
 OpenBabel10222416513D

 69 76  0  0  1  0  0  0  0  0999 V2000
  190.9940  176.5360  140.2850 C   0  0  0  0  0  3  0  0  0  0  0  0
  188.7920  177.1480  144.7240 C   0  0  0  0  0  0  0  0  0  0  0  0
  191.1370  176.8670  138.9960 C   0  0  0  0  0  0  0  0  0  0  0  0
  187.4520  177.3300  142.6900 N   0  0  0  0  0  0  0  0  0  0  0  0
  188.7180  177.1130  143.3430 C   0  0  0  0  0  0  0  0  0  0  0  0
  187.5430  177.1870  145.4280 C   0  0  0  0  0  0  0  0  0  0  0  0
  189.8080  176.6750  142.4250 C   0  0  0  0  0  0  0  0  0  0  0  0
  189.8870  177.0480  141.1230 C   0  0  0  0  0  0  0  0  0  0  0  0
  190.1790  177.8290  138.3370 C   0  0  0  0  0  2  0  0  0  0  0  0
  191.8440  177.7070  143.9620 C   0  0  0  0  0  2  0  0  0  0  0  0
  191.2110  177.3700  145.2210 N   0  0  0  0  0  0  0  0  0  0  0  0
  188.9670  178.0730  140.5090 C   0  0  0  0  0  2  0  0  0  0  0  0
  186.2950  177.3470  144.7280 N   0  0  0  0  0  0  0  0  0  0  0  0
  188.8070  177.8190  139.0130 C   0  0  0  0  0  2  0  0  0  0  0  0
  189.9790  177.1160  145.5710 C   0  0  0  0  0  0  0  0  0  0  0  0
  189.8200  176.9280  146.9060 N   0  0  0  0  0  0  0  0  0  0  0  0
  192.0760  176.4250  143.1960 C   0  0  0  0  0  2  0  0  0  0  0  0
  186.3250  177.4560  143.3070 C   0  0  0  0  0  0  0  0  0  0  0  0
  188.6160  176.8720  147.5080 C   0  0  0  0  0  3  0  0  0  0  0  0
  190.8080  175.8550  142.9410 O   0  0  0  0  0  0  0  0  0  0  0  0
  187.5010  177.0300  146.7770 N   0  0  0  0  0  0  0  0  0  0  0  0
  192.3340  176.4830  136.8210 N   0  0  0  0  0  2  0  0  0  0  0  0
  193.2480  175.7980  138.8520 O   0  0  0  0  0  0  0  0  0  0  0  0
  192.2960  176.3580  138.2440 C   0  0  0  0  0  0  0  0  0  0  0  0
  193.3440  175.8780  136.0560 N   0  0  0  0  0  2  0  0  0  0  0  0
  193.5660  174.4650  136.1010 C   0  0  0  0  0  0  0  0  0  0  0  0
  193.7590  171.6010  135.5520 C   0  0  0  0  0  3  0  0  0  0  0  0
  194.7530  172.4590  135.3000 C   0  0  0  0  0  3  0  0  0  0  0  0
  192.4820  173.4420  137.1200 S   0  0  0  0  0  0  0  0  0  0  0  0
  194.5740  173.9180  135.4100 C   0  0  0  0  0  3  0  0  0  0  0  0
  192.3790  172.0700  135.9090 C   0  0  1  0  0  3  0  0  0  0  0  0
  191.6200  172.4750  134.6490 C   0  0  0  0  0  2  0  0  0  0  0  0
  190.1270  172.2120  134.7980 C   0  0  0  0  0  2  0  0  0  0  0  0
  189.3320  173.5100  134.7210 C   0  0  1  0  0  3  0  0  0  0  0  0
  186.9720  174.4850  134.6240 C   0  0  1  0  0  3  0  0  0  0  0  0
  185.7090  173.0940  136.6830 O   0  0  0  0  0  0  0  0  0  0  0  0
  185.6830  174.3370  135.8340 S   0  0  0  0  0  0  0  0  0  0  0  0
  189.0270  175.7700  135.7080 C   0  0  0  0  0  2  0  0  0  0  0  0
  187.5410  175.7500  135.3150 C   0  0  2  0  0  3  0  0  0  0  0  0
  184.3150  174.6980  135.3310 O   0  0  0  0  0  0  0  0  0  0  0  0
  189.2050  173.8290  137.1120 O   0  0  0  0  0  1  0  0  0  0  0  0
  187.8380  173.2190  134.6920 C   0  0  0  0  0  2  0  0  0  0  0  0
  186.5920  175.6950  136.5100 C   0  0  0  0  0  2  0  0  0  0  0  0
  189.6550  174.3990  135.9150 C   0  0  1  0  0  3  0  0  0  0  0  0
  185.0340  177.4860  145.4650 C   0  0  0  0  0  2  0  0  0  0  0  0
  184.5590  178.9410  145.5430 C   0  0  1  0  0  3  0  0  0  0  0  0
  183.5390  180.5600  144.1410 C   0  0  0  0  0  2  0  0  0  0  0  0
  185.5650  179.8320  145.1400 O   0  0  0  0  0  0  0  0  0  0  0  0
  184.8870  180.9760  144.6920 C   0  0  0  0  0  2  0  0  0  0  0  0
  183.3210  179.1900  144.7090 C   0  0  0  0  0  2  0  0  0  0  0  0
  185.0920  177.7630  142.5170 C   0  0  0  0  0  2  0  0  0  0  0  0
  185.4420  178.5790  141.2860 C   0  0  0  0  0  2  0  0  0  0  0  0
  184.2190  179.0580  140.6630 N   0  0  0  0  0  2  0  0  0  0  0  0
  184.4310  179.0170  139.2240 C   0  0  1  0  0  3  0  0  0  0  0  0
  185.9130  178.8480  138.9280 C   0  0  0  0  0  1  0  0  0  0  0  0
  183.5860  177.9340  138.6110 C   0  0  0  0  0  0  0  0  0  0  0  0
  183.3190  176.9480  139.2790 O   0  0  0  0  0  0  0  0  0  0  0  0
  183.1310  178.0030  137.1770 C   0  0  0  0  0  2  0  0  0  0  0  0
  181.7350  177.4150  136.9540 C   0  0  1  0  0  3  0  0  0  0  0  0
  180.7860  178.4570  136.3760 C   0  0  0  0  0  2  0  0  0  0  0  0
  180.1560  179.3020  137.4750 C   0  0  0  0  0  2  0  0  0  0  0  0
  180.0750  181.7310  136.9440 O   0  0  0  0  0  0  0  0  0  0  0  0
  180.7670  180.6590  137.4910 C   0  0  0  0  0  0  0  0  0  0  0  0
  181.9070  180.8380  137.9940 O   0  0  0  0  0  1  0  0  0  0  0  0
  181.8000  176.2990  136.1090 O   0  0  0  0  0  0  0  0  0  0  0  0
  179.4180  174.8870  135.8710 O   0  0  0  0  0  0  0  0  0  0  0  0
  180.3410  175.6370  138.3600 O   0  0  0  0  0  1  0  0  0  0  0  0
  180.8050  175.1160  136.8180 P   0  0  0  0  0  0  0  0  0  0  0  0
  181.5570  173.8070  136.9480 O   0  0  0  0  0  1  0  0  0  0  0  0
  1  8  1  0  0  0  0
  2  6  1  0  0  0  0
  2 15  1  0  0  0  0
  3  1  2  0  0  0  0
  4 18  2  0  0  0  0
  4  5  1  0  0  0  0
  5  2  2  0  0  0  0
  6 21  2  0  0  0  0
  7 20  1  0  0  0  0
  7  5  1  0  0  0  0
  8  7  2  0  0  0  0
  9  3  1  0  0  0  0
  9 14  1  0  0  0  0
 10 11  1  0  0  0  0
 11 15  2  0  0  0  0
 12  8  1  0  0  0  0
 13  6  1  0  0  0  0
 13 45  1  0  0  0  0
 14 12  1  0  0  0  0
 15 16  1  0  0  0  0
 16 19  2  0  0  0  0
 17 10  1  0  0  0  0
 18 13  1  0  0  0  0
 20 17  1  0  0  0  0
 21 19  1  0  0  0  0
 22 24  1  0  0  0  0
 24 23  2  0  0  0  0
 24  3  1  0  0  0  0
 25 26  1  0  0  0  0
 25 22  1  0  0  0  0
 26 29  1  0  0  0  0
 27 31  1  0  0  0  0
 28 30  1  0  0  0  0
 28 27  2  0  0  0  0
 30 26  2  0  0  0  0
 31 32  1  6  0  0  0
 31 29  1  0  0  0  0
 32 33  1  0  0  0  0
 34 33  1  1  0  0  0
 34 44  1  0  0  0  0
 35 42  1  1  0  0  0
 35 39  1  0  0  0  0
 35 37  1  0  0  0  0
 37 43  1  0  0  0  0
 37 36  2  0  0  0  0
 38 44  1  0  0  0  0
 39 38  1  1  0  0  0
 39 43  1  0  0  0  0
 40 37  2  0  0  0  0
 42 34  1  0  0  0  0
 44 41  1  1  0  0  0
 46 45  1  6  0  0  0
 47 49  1  0  0  0  0
 47 50  1  0  0  0  0
 48 46  1  0  0  0  0
 49 48  1  0  0  0  0
 50 46  1  0  0  0  0
 51 18  1  0  0  0  0
 52 51  1  0  0  0  0
 53 52  1  0  0  0  0
 54 55  1  1  0  0  0
 54 53  1  0  0  0  0
 56 54  1  0  0  0  0
 56 57  2  0  0  0  0
 58 56  1  0  0  0  0
 59 60  1  6  0  0  0
 59 58  1  0  0  0  0
 60 61  1  0  0  0  0
 61 63  1  0  0  0  0
 62 63  2  0  0  0  0
 63 64  1  0  0  0  0
 65 68  1  0  0  0  0
 65 59  1  0  0  0  0
 66 68  2  0  0  0  0
 68 69  1  0  0  0  0
 68 67  1  0  0  0  0
M  END
>  <MODEL>
9

>  <REMARK>
 VINA RESULT:      -4.5      3.253     10.499
  Name = 
  20 active torsions:
  status: ('A' for Active; 'I' for Inactive)
    1  A    between atoms: N_2  and  C_38
    2  A    between atoms: N_2  and  C_66
    3  A    between atoms: C_3  and  C_43
    4  A    between atoms: C_4  and  N_20
    5  A    between atoms: C_6  and  C_63
    6  A    between atoms: C_14  and  C_60
    7  A    between atoms: C_19  and  C_43
    8  A    between atoms: C_19  and  C_67
    9  A    between atoms: N_20  and  N_39
   10  A    between atoms: C_22  and  C_48
   11  A    between atoms: C_22  and  C_64
   12  A    between atoms: C_31  and  C_38
   13  A    between atoms: C_31  and  C_65
   14  A    between atoms: N_33  and  C_60
   15  A    between atoms: C_42  and  C_57
   16  A    between atoms: C_42  and  C_66
   17  A    between atoms: O_45  and  P_52
   18  A    between atoms: O_45  and  C_55
   19  A    between atoms: C_55  and  C_64
   20  A    between atoms: C_55  and  C_65
                            x       y       z     vdW  Elec       q    Type
                         _______ _______ _______ _____ _____    ______ ____

>  <TORSDO>
F 20

$$$$
