=
 OpenBabel10222417223D

 43 50  0  0  1  0  0  0  0  0999 V2000
  183.6490  179.4910  139.0280 C   0  0  0  0  0  3  0  0  0  0  0  0
  189.8010  177.7960  141.7540 C   0  0  1  0  0  3  0  0  0  0  0  0
  190.4060  176.6090  141.0340 C   0  0  0  0  0  2  0  0  0  0  0  0
  185.3560  177.8430  143.2860 C   0  0  0  0  0  3  0  0  0  0  0  0
  185.8800  178.9870  139.9080 N   0  0  0  0  0  0  0  0  0  0  0  0
  190.0980  176.8360  139.5580 C   0  0  0  0  0  2  0  0  0  0  0  0
  186.6670  177.5160  143.7080 C   0  0  0  0  0  2  0  0  0  0  0  0
  188.7720  178.3000  140.8470 N   0  0  0  0  0  0  0  0  0  0  0  0
  189.1040  177.3830  142.9820 N   0  0  0  0  0  0  0  0  0  0  0  0
  181.8250  179.1300  140.6170 C   0  0  0  0  0  3  0  0  0  0  0  0
  188.8930  177.7670  139.5130 C   0  0  1  0  0  3  0  0  0  0  0  0
  187.7370  177.7400  142.8180 C   0  0  0  0  0  0  0  0  0  0  0  0
  184.5350  179.0860  140.0240 C   0  0  0  0  0  0  0  0  0  0  0  0
  185.1940  178.3620  141.9920 C   0  0  0  0  0  0  0  0  0  0  0  0
  187.5470  178.2530  141.5660 C   0  0  0  0  0  0  0  0  0  0  0  0
  184.0810  178.7100  141.2750 C   0  0  0  0  0  0  0  0  0  0  0  0
  182.7320  178.7210  141.6100 C   0  0  0  0  0  3  0  0  0  0  0  0
  186.2600  178.5460  141.1290 C   0  0  0  0  0  0  0  0  0  0  0  0
  182.2810  179.5130  139.3380 C   0  0  0  0  0  3  0  0  0  0  0  0
  189.7550  177.2170  144.2430 C   0  0  0  0  0  0  0  0  0  0  0  0
  191.0490  176.9140  146.7050 C   0  0  0  0  0  0  0  0  0  0  0  0
  191.6970  176.5320  145.5200 C   0  0  0  0  0  3  0  0  0  0  0  0
  191.0510  176.6850  144.2920 C   0  0  0  0  0  3  0  0  0  0  0  0
  189.1120  177.6050  145.4250 C   0  0  0  0  0  3  0  0  0  0  0  0
  189.7590  177.4550  146.6520 C   0  0  0  0  0  3  0  0  0  0  0  0
  191.7470  176.7780  148.0140 C   0  0  0  0  0  2  0  0  0  0  0  0
  192.7170  175.6930  147.9550 N   0  0  0  0  0  1  0  0  0  0  0  0
  189.1160  178.9030  138.5310 C   0  0  0  0  0  2  0  0  0  0  0  0
  188.9420  178.4410  137.0930 C   0  0  0  0  0  2  0  0  0  0  0  0
  187.0030  179.7160  136.4970 O   0  0  0  0  0  1  0  0  0  0  0  0
  187.4680  178.4140  136.7040 C   0  0  1  0  0  3  0  0  0  0  0  0
  187.2500  177.5930  135.4390 C   0  0  0  0  0  2  0  0  0  0  0  0
  186.3790  176.4550  135.7010 N   0  0  0  0  0  2  0  0  0  0  0  0
  182.7390  175.7750  139.9440 O   0  0  0  0  0  1  0  0  0  0  0  0
  182.2800  176.4490  136.4920 C   0  0  1  0  0  3  0  0  0  0  0  0
  180.9780  175.6740  138.3210 C   0  0  0  0  0  2  0  0  0  0  0  0
  184.1430  177.2530  135.0870 C   0  0  0  0  0  2  0  0  0  0  0  0
  183.1840  176.3770  137.6850 C   0  0  2  0  0  3  0  0  0  0  0  0
  180.9060  176.5760  137.0940 C   0  0  0  0  0  2  0  0  0  0  0  0
  185.1220  176.9510  136.2420 C   0  0  1  0  0  3  0  0  0  0  0  0
  182.7320  177.5920  135.6000 C   0  0  0  0  0  2  0  0  0  0  0  0
  184.5540  175.9090  137.2260 C   0  0  0  0  0  2  0  0  0  0  0  0
  182.4590  175.4350  138.6190 C   0  0  1  0  0  3  0  0  0  0  0  0
  1 19  2  0  0  0  0
  1 13  1  0  0  0  0
  2  3  1  6  0  0  0
  2  9  1  0  0  0  0
  4  7  1  0  0  0  0
  5 13  1  0  0  0  0
  5 18  2  0  0  0  0
  6  3  1  0  0  0  0
  8 15  1  0  0  0  0
  8  2  1  0  0  0  0
  9 20  1  0  0  0  0
 10 17  2  0  0  0  0
 11 28  1  6  0  0  0
 11  6  1  0  0  0  0
 11  8  1  0  0  0  0
 12  9  1  0  0  0  0
 12  7  1  0  0  0  0
 13 16  2  0  0  0  0
 14  4  2  0  0  0  0
 15 12  2  0  0  0  0
 16 17  1  0  0  0  0
 16 14  1  0  0  0  0
 18 15  1  0  0  0  0
 18 14  1  0  0  0  0
 19 10  1  0  0  0  0
 20 23  2  0  0  0  0
 20 24  1  0  0  0  0
 21 26  1  0  0  0  0
 22 21  2  0  0  0  0
 23 22  1  0  0  0  0
 24 25  2  0  0  0  0
 25 21  1  0  0  0  0
 27 26  1  0  0  0  0
 29 28  1  0  0  0  0
 31 30  1  6  0  0  0
 31 29  1  0  0  0  0
 32 33  1  0  0  0  0
 32 31  1  0  0  0  0
 35 41  1  6  0  0  0
 35 39  1  0  0  0  0
 35 38  1  0  0  0  0
 36 43  1  0  0  0  0
 37 41  1  0  0  0  0
 37 40  1  0  0  0  0
 38 42  1  6  0  0  0
 38 43  1  0  0  0  0
 39 36  1  0  0  0  0
 40 33  1  6  0  0  0
 40 42  1  0  0  0  0
 43 34  1  1  0  0  0
M  END
>  <MODEL>
1

>  <REMARK>
 VINA RESULT:      -9.6      0.000      0.000
  Name = 
  8 active torsions:
  status: ('A' for Active; 'I' for Inactive)
    1  A    between atoms: C_3  and  C_12
    2  A    between atoms: C_5  and  N_26
    3  A    between atoms: C_9  and  C_10
    4  A    between atoms: C_9  and  C_39
    5  A    between atoms: C_10  and  C_24
    6  A    between atoms: N_18  and  C_19
    7  A    between atoms: N_18  and  C_39
    8  A    between atoms: C_24  and  C_28
                            x       y       z     vdW  Elec       q    Type
                         _______ _______ _______ _____ _____    ______ ____

>  <TORSDO>
F 8

$$$$
=
 OpenBabel10222417223D

 43 50  0  0  1  0  0  0  0  0999 V2000
  183.5760  179.4480  139.1030 C   0  0  0  0  0  3  0  0  0  0  0  0
  189.7690  177.8110  141.7690 C   0  0  1  0  0  3  0  0  0  0  0  0
  190.3730  176.6220  141.0510 C   0  0  0  0  0  2  0  0  0  0  0  0
  185.3420  177.8420  143.3530 C   0  0  0  0  0  3  0  0  0  0  0  0
  185.8190  178.9640  139.9600 N   0  0  0  0  0  0  0  0  0  0  0  0
  190.0470  176.8360  139.5760 C   0  0  0  0  0  2  0  0  0  0  0  0
  186.6590  177.5250  143.7610 C   0  0  0  0  0  2  0  0  0  0  0  0
  188.7260  178.3010  140.8710 N   0  0  0  0  0  0  0  0  0  0  0  0
  189.0890  177.4020  143.0090 N   0  0  0  0  0  0  0  0  0  0  0  0
  181.7720  179.0870  140.7150 C   0  0  0  0  0  3  0  0  0  0  0  0
  188.8350  177.7600  139.5400 C   0  0  1  0  0  3  0  0  0  0  0  0
  187.7180  177.7490  142.8570 C   0  0  0  0  0  0  0  0  0  0  0  0
  184.4760  179.0560  140.0910 C   0  0  0  0  0  0  0  0  0  0  0  0
  185.1620  178.3490  142.0570 C   0  0  0  0  0  0  0  0  0  0  0  0
  187.5100  178.2530  141.6040 C   0  0  0  0  0  0  0  0  0  0  0  0
  184.0390  178.6860  141.3500 C   0  0  0  0  0  0  0  0  0  0  0  0
  182.6940  178.6910  141.7010 C   0  0  0  0  0  3  0  0  0  0  0  0
  186.2160  178.5340  141.1800 C   0  0  0  0  0  0  0  0  0  0  0  0
  182.2110  179.4630  139.4280 C   0  0  0  0  0  3  0  0  0  0  0  0
  189.7550  177.2490  144.2620 C   0  0  0  0  0  0  0  0  0  0  0  0
  191.0410  176.9260  146.7260 C   0  0  0  0  0  0  0  0  0  0  0  0
  189.7580  177.4910  146.6730 C   0  0  0  0  0  3  0  0  0  0  0  0
  189.1160  177.6510  145.4440 C   0  0  0  0  0  3  0  0  0  0  0  0
  191.0330  176.6770  144.3170 C   0  0  0  0  0  3  0  0  0  0  0  0
  191.6720  176.5160  145.5470 C   0  0  0  0  0  3  0  0  0  0  0  0
  191.7160  176.7290  148.0400 C   0  0  0  0  0  2  0  0  0  0  0  0
  192.8350  175.8080  147.8950 N   0  0  0  0  0  1  0  0  0  0  0  0
  189.0400  178.8900  138.5460 C   0  0  0  0  0  2  0  0  0  0  0  0
  189.0240  178.3840  137.1130 C   0  0  0  0  0  2  0  0  0  0  0  0
  187.0020  178.5290  135.8380 O   0  0  0  0  0  1  0  0  0  0  0  0
  187.6820  177.7460  136.7750 C   0  0  1  0  0  3  0  0  0  0  0  0
  187.8670  176.3400  136.2190 C   0  0  0  0  0  2  0  0  0  0  0  0
  187.5030  175.3360  137.2090 N   0  0  0  0  0  2  0  0  0  0  0  0
  182.0610  175.1300  135.7720 O   0  0  0  0  0  1  0  0  0  0  0  0
  184.2420  172.7300  137.2090 C   0  0  1  0  0  3  0  0  0  0  0  0
  181.9020  173.0520  136.9560 C   0  0  0  0  0  2  0  0  0  0  0  0
  186.6920  173.0230  137.1400 C   0  0  0  0  0  2  0  0  0  0  0  0
  184.0450  174.0360  136.5010 C   0  0  2  0  0  3  0  0  0  0  0  0
  182.9760  171.9710  136.9140 C   0  0  0  0  0  2  0  0  0  0  0  0
  186.4870  174.4670  136.6330 C   0  0  1  0  0  3  0  0  0  0  0  0
  185.5340  172.0970  136.7240 C   0  0  0  0  0  2  0  0  0  0  0  0
  185.0930  175.0170  136.9950 C   0  0  0  0  0  2  0  0  0  0  0  0
  182.6140  174.3990  136.8250 C   0  0  1  0  0  3  0  0  0  0  0  0
  1 19  2  0  0  0  0
  1 13  1  0  0  0  0
  2  3  1  6  0  0  0
  2  9  1  0  0  0  0
  4  7  1  0  0  0  0
  5 13  1  0  0  0  0
  5 18  2  0  0  0  0
  6  3  1  0  0  0  0
  8 15  1  0  0  0  0
  8  2  1  0  0  0  0
  9 20  1  0  0  0  0
 10 17  2  0  0  0  0
 11 28  1  6  0  0  0
 11  6  1  0  0  0  0
 11  8  1  0  0  0  0
 12  9  1  0  0  0  0
 12  7  1  0  0  0  0
 13 16  2  0  0  0  0
 14  4  2  0  0  0  0
 15 12  2  0  0  0  0
 16 17  1  0  0  0  0
 16 14  1  0  0  0  0
 18 15  1  0  0  0  0
 18 14  1  0  0  0  0
 19 10  1  0  0  0  0
 20 24  2  0  0  0  0
 20 23  1  0  0  0  0
 21 26  1  0  0  0  0
 22 21  1  0  0  0  0
 23 22  2  0  0  0  0
 24 25  1  0  0  0  0
 25 21  2  0  0  0  0
 27 26  1  0  0  0  0
 29 28  1  0  0  0  0
 31 30  1  6  0  0  0
 31 29  1  0  0  0  0
 32 31  1  0  0  0  0
 32 33  1  0  0  0  0
 35 41  1  6  0  0  0
 38 43  1  0  0  0  0
 38 42  1  1  0  0  0
 38 35  1  0  0  0  0
 39 36  1  0  0  0  0
 39 35  1  0  0  0  0
 40 42  1  0  0  0  0
 40 37  1  0  0  0  0
 40 33  1  1  0  0  0
 41 37  1  0  0  0  0
 43 34  1  6  0  0  0
 43 36  1  0  0  0  0
M  END
>  <MODEL>
2

>  <REMARK>
 VINA RESULT:      -9.5      1.576      2.125
  Name = 
  8 active torsions:
  status: ('A' for Active; 'I' for Inactive)
    1  A    between atoms: C_3  and  C_12
    2  A    between atoms: C_5  and  N_26
    3  A    between atoms: C_9  and  C_10
    4  A    between atoms: C_9  and  C_39
    5  A    between atoms: C_10  and  C_24
    6  A    between atoms: N_18  and  C_19
    7  A    between atoms: N_18  and  C_39
    8  A    between atoms: C_24  and  C_28
                            x       y       z     vdW  Elec       q    Type
                         _______ _______ _______ _____ _____    ______ ____

>  <TORSDO>
F 8

$$$$
=
 OpenBabel10222417223D

 43 50  0  0  1  0  0  0  0  0999 V2000
  183.5740  179.4670  139.0900 C   0  0  0  0  0  3  0  0  0  0  0  0
  189.7600  177.8120  141.7620 C   0  0  1  0  0  3  0  0  0  0  0  0
  190.3630  176.6250  141.0410 C   0  0  0  0  0  2  0  0  0  0  0  0
  185.3300  177.8430  143.3370 C   0  0  0  0  0  3  0  0  0  0  0  0
  185.8150  178.9760  139.9500 N   0  0  0  0  0  0  0  0  0  0  0  0
  190.0410  176.8440  139.5660 C   0  0  0  0  0  2  0  0  0  0  0  0
  186.6460  177.5240  143.7470 C   0  0  0  0  0  2  0  0  0  0  0  0
  188.7190  178.3070  140.8630 N   0  0  0  0  0  0  0  0  0  0  0  0
  189.0770  177.3990  142.9990 N   0  0  0  0  0  0  0  0  0  0  0  0
  181.7670  179.1030  140.6980 C   0  0  0  0  0  3  0  0  0  0  0  0
  188.8300  177.7690  139.5300 C   0  0  1  0  0  3  0  0  0  0  0  0
  187.7070  177.7490  142.8460 C   0  0  0  0  0  0  0  0  0  0  0  0
  184.4720  179.0700  140.0780 C   0  0  0  0  0  0  0  0  0  0  0  0
  185.1530  178.3560  142.0430 C   0  0  0  0  0  0  0  0  0  0  0  0
  187.5020  178.2570  141.5940 C   0  0  0  0  0  0  0  0  0  0  0  0
  184.0320  178.6960  141.3350 C   0  0  0  0  0  0  0  0  0  0  0  0
  182.6860  178.7020  141.6840 C   0  0  0  0  0  3  0  0  0  0  0  0
  186.2090  178.5420  141.1690 C   0  0  0  0  0  0  0  0  0  0  0  0
  182.2080  179.4830  139.4120 C   0  0  0  0  0  3  0  0  0  0  0  0
  189.7410  177.2410  144.2530 C   0  0  0  0  0  0  0  0  0  0  0  0
  191.0230  176.9070  146.7170 C   0  0  0  0  0  0  0  0  0  0  0  0
  189.7010  177.3740  146.6720 C   0  0  0  0  0  3  0  0  0  0  0  0
  189.0610  177.5400  145.4430 C   0  0  0  0  0  3  0  0  0  0  0  0
  191.0580  176.7670  144.2990 C   0  0  0  0  0  3  0  0  0  0  0  0
  191.6960  176.5990  145.5290 C   0  0  0  0  0  3  0  0  0  0  0  0
  191.6980  176.7030  148.0290 C   0  0  0  0  0  2  0  0  0  0  0  0
  192.8570  175.8350  147.8680 N   0  0  0  0  0  1  0  0  0  0  0  0
  189.0380  178.9030  138.5410 C   0  0  0  0  0  2  0  0  0  0  0  0
  188.6500  178.4920  137.1310 C   0  0  0  0  0  2  0  0  0  0  0  0
  186.3360  177.9250  136.8810 O   0  0  0  0  0  1  0  0  0  0  0  0
  187.5980  177.3890  137.1540 C   0  0  1  0  0  3  0  0  0  0  0  0
  187.9180  176.3040  136.1340 C   0  0  0  0  0  2  0  0  0  0  0  0
  189.2730  176.4520  135.6230 N   0  0  0  0  0  2  0  0  0  0  0  0
  194.0590  175.8960  138.5400 O   0  0  0  0  0  1  0  0  0  0  0  0
  192.5360  173.8830  136.0470 C   0  0  1  0  0  3  0  0  0  0  0  0
  194.6770  174.1250  137.0480 C   0  0  0  0  0  2  0  0  0  0  0  0
  190.1610  174.1740  135.4430 C   0  0  0  0  0  2  0  0  0  0  0  0
  192.4420  175.0020  137.0400 C   0  0  2  0  0  3  0  0  0  0  0  0
  193.7020  173.0680  136.5400 C   0  0  0  0  0  2  0  0  0  0  0  0
  190.1250  175.4710  136.2790 C   0  0  1  0  0  3  0  0  0  0  0  0
  191.1970  173.1710  135.9800 C   0  0  0  0  0  2  0  0  0  0  0  0
  191.5290  176.0750  136.4740 C   0  0  0  0  0  2  0  0  0  0  0  0
  193.8820  175.4160  137.2410 C   0  0  1  0  0  3  0  0  0  0  0  0
  1 19  2  0  0  0  0
  1 13  1  0  0  0  0
  2  3  1  6  0  0  0
  2  9  1  0  0  0  0
  4  7  1  0  0  0  0
  5 13  1  0  0  0  0
  5 18  2  0  0  0  0
  6  3  1  0  0  0  0
  8 15  1  0  0  0  0
  8  2  1  0  0  0  0
  9 20  1  0  0  0  0
 10 17  2  0  0  0  0
 11 28  1  6  0  0  0
 11  6  1  0  0  0  0
 11  8  1  0  0  0  0
 12  9  1  0  0  0  0
 12  7  1  0  0  0  0
 13 16  2  0  0  0  0
 14  4  2  0  0  0  0
 15 12  2  0  0  0  0
 16 17  1  0  0  0  0
 16 14  1  0  0  0  0
 18 15  1  0  0  0  0
 18 14  1  0  0  0  0
 19 10  1  0  0  0  0
 20 24  2  0  0  0  0
 20 23  1  0  0  0  0
 21 26  1  0  0  0  0
 22 21  1  0  0  0  0
 23 22  2  0  0  0  0
 24 25  1  0  0  0  0
 25 21  2  0  0  0  0
 27 26  1  0  0  0  0
 29 31  1  0  0  0  0
 29 28  1  0  0  0  0
 31 30  1  6  0  0  0
 32 31  1  0  0  0  0
 33 32  1  0  0  0  0
 35 41  1  1  0  0  0
 35 39  1  0  0  0  0
 35 38  1  0  0  0  0
 36 43  1  0  0  0  0
 37 41  1  0  0  0  0
 37 40  1  0  0  0  0
 38 42  1  6  0  0  0
 38 43  1  0  0  0  0
 39 36  1  0  0  0  0
 40 33  1  6  0  0  0
 40 42  1  0  0  0  0
 43 34  1  1  0  0  0
M  END
>  <MODEL>
3

>  <REMARK>
 VINA RESULT:      -9.4      2.598      5.021
  Name = 
  8 active torsions:
  status: ('A' for Active; 'I' for Inactive)
    1  A    between atoms: C_3  and  C_12
    2  A    between atoms: C_5  and  N_26
    3  A    between atoms: C_9  and  C_10
    4  A    between atoms: C_9  and  C_39
    5  A    between atoms: C_10  and  C_24
    6  A    between atoms: N_18  and  C_19
    7  A    between atoms: N_18  and  C_39
    8  A    between atoms: C_24  and  C_28
                            x       y       z     vdW  Elec       q    Type
                         _______ _______ _______ _____ _____    ______ ____

>  <TORSDO>
F 8

$$$$
=
 OpenBabel10222417223D

 43 50  0  0  1  0  0  0  0  0999 V2000
  192.0650  176.0000  145.6870 C   0  0  0  0  0  3  0  0  0  0  0  0
  186.6400  177.9040  141.8030 C   0  0  1  0  0  3  0  0  0  0  0  0
  186.9870  179.0900  140.9280 C   0  0  0  0  0  2  0  0  0  0  0  0
  187.5850  177.7800  146.4070 C   0  0  0  0  0  3  0  0  0  0  0  0
  190.1880  176.5780  144.2220 N   0  0  0  0  0  0  0  0  0  0  0  0
  188.4060  178.8250  140.4370 C   0  0  0  0  0  2  0  0  0  0  0  0
  186.5650  178.1490  145.4980 C   0  0  0  0  0  3  0  0  0  0  0  0
  187.9280  177.3560  142.2210 N   0  0  0  0  0  0  0  0  0  0  0  0
  185.9510  178.3260  143.0330 N   0  0  0  0  0  0  0  0  0  0  0  0
  191.6400  176.3510  148.0700 C   0  0  0  0  0  3  0  0  0  0  0  0
  189.0300  177.8630  141.4420 C   0  0  1  0  0  3  0  0  0  0  0  0
  186.7780  177.9320  144.1220 C   0  0  0  0  0  0  0  0  0  0  0  0
  190.7700  176.4480  145.4370 C   0  0  0  0  0  0  0  0  0  0  0  0
  188.7640  177.2310  145.8810 C   0  0  0  0  0  0  0  0  0  0  0  0
  187.9360  177.3880  143.6410 C   0  0  0  0  0  0  0  0  0  0  0  0
  189.9370  176.8390  146.4690 C   0  0  0  0  0  0  0  0  0  0  0  0
  190.3360  176.8030  147.8000 C   0  0  0  0  0  3  0  0  0  0  0  0
  188.9580  177.0540  144.5230 C   0  0  0  0  0  0  0  0  0  0  0  0
  192.4960  175.9520  147.0220 C   0  0  0  0  0  2  0  0  0  0  0  0
  184.5410  178.5350  143.1180 C   0  0  0  0  0  0  0  0  0  0  0  0
  181.7740  178.9140  143.2790 C   0  0  0  0  0  0  0  0  0  0  0  0
  182.3730  178.6380  142.0410 C   0  0  0  0  0  3  0  0  0  0  0  0
  183.7530  178.4480  141.9610 C   0  0  0  0  0  3  0  0  0  0  0  0
  183.9400  178.8030  144.3550 C   0  0  0  0  0  3  0  0  0  0  0  0
  182.5600  178.9900  144.4340 C   0  0  0  0  0  3  0  0  0  0  0  0
  180.2970  179.0900  143.3700 C   0  0  0  0  0  2  0  0  0  0  0  0
  179.6990  177.9600  144.0690 N   0  0  0  0  0  1  0  0  0  0  0  0
  189.7260  176.7120  140.7370 C   0  0  0  0  0  2  0  0  0  0  0  0
  190.9480  177.1860  139.9680 C   0  0  0  0  0  2  0  0  0  0  0  0
  190.6910  175.2210  138.6220 O   0  0  0  0  0  1  0  0  0  0  0  0
  190.9760  176.5880  138.5660 C   0  0  1  0  0  3  0  0  0  0  0  0
  189.9670  177.2770  137.6560 C   0  0  0  0  0  2  0  0  0  0  0  0
  189.2860  176.3110  136.8060 N   0  0  0  0  0  2  0  0  0  0  0  0
  184.8810  179.3350  138.5860 O   0  0  0  0  0  1  0  0  0  0  0  0
  185.1430  176.5780  136.3690 C   0  0  1  0  0  3  0  0  0  0  0  0
  183.4450  177.6820  137.6090 C   0  0  0  0  0  2  0  0  0  0  0  0
  187.3160  175.9160  135.4020 C   0  0  0  0  0  2  0  0  0  0  0  0
  185.8000  177.6830  137.1390 C   0  0  2  0  0  3  0  0  0  0  0  0
  183.7100  177.0230  136.2600 C   0  0  0  0  0  2  0  0  0  0  0  0
  188.0230  176.8880  136.3700 C   0  0  1  0  0  3  0  0  0  0  0  0
  185.8880  176.3800  135.0600 C   0  0  0  0  0  2  0  0  0  0  0  0
  187.1620  177.2030  137.6080 C   0  0  0  0  0  2  0  0  0  0  0  0
  184.8060  177.9850  138.2370 C   0  0  1  0  0  3  0  0  0  0  0  0
  1 19  1  0  0  0  0
  2  3  1  6  0  0  0
  2  8  1  0  0  0  0
  2  9  1  0  0  0  0
  5 18  2  0  0  0  0
  5 13  1  0  0  0  0
  6  3  1  0  0  0  0
  6 11  1  0  0  0  0
  7  4  2  0  0  0  0
  8 15  1  0  0  0  0
  9 20  1  0  0  0  0
  9 12  1  0  0  0  0
 11 28  1  6  0  0  0
 11  8  1  0  0  0  0
 12  7  1  0  0  0  0
 13  1  2  0  0  0  0
 13 16  1  0  0  0  0
 14  4  1  0  0  0  0
 14 16  2  0  0  0  0
 15 12  2  0  0  0  0
 15 18  1  0  0  0  0
 16 17  1  0  0  0  0
 17 10  2  0  0  0  0
 18 14  1  0  0  0  0
 19 10  1  0  0  0  0
 20 24  1  0  0  0  0
 21 26  1  0  0  0  0
 21 25  1  0  0  0  0
 22 21  2  0  0  0  0
 23 22  1  0  0  0  0
 23 20  2  0  0  0  0
 24 25  2  0  0  0  0
 26 27  1  0  0  0  0
 29 28  1  0  0  0  0
 31 30  1  1  0  0  0
 31 29  1  0  0  0  0
 32 31  1  0  0  0  0
 33 32  1  0  0  0  0
 35 41  1  6  0  0  0
 35 38  1  0  0  0  0
 36 43  1  0  0  0  0
 37 40  1  0  0  0  0
 38 42  1  1  0  0  0
 38 43  1  0  0  0  0
 39 35  1  0  0  0  0
 39 36  1  0  0  0  0
 40 33  1  1  0  0  0
 40 42  1  0  0  0  0
 41 37  1  0  0  0  0
 43 34  1  6  0  0  0
M  END
>  <MODEL>
4

>  <REMARK>
 VINA RESULT:      -9.3      2.165      6.507
  Name = 
  8 active torsions:
  status: ('A' for Active; 'I' for Inactive)
    1  A    between atoms: C_3  and  C_12
    2  A    between atoms: C_5  and  N_26
    3  A    between atoms: C_9  and  C_10
    4  A    between atoms: C_9  and  C_39
    5  A    between atoms: C_10  and  C_24
    6  A    between atoms: N_18  and  C_19
    7  A    between atoms: N_18  and  C_39
    8  A    between atoms: C_24  and  C_28
                            x       y       z     vdW  Elec       q    Type
                         _______ _______ _______ _____ _____    ______ ____

>  <TORSDO>
F 8

$$$$
=
 OpenBabel10222417223D

 43 50  0  0  1  0  0  0  0  0999 V2000
  191.2590  176.7160  146.2040 C   0  0  0  0  0  3  0  0  0  0  0  0
  185.9050  177.9130  141.9570 C   0  0  1  0  0  3  0  0  0  0  0  0
  186.2370  178.9980  140.9550 C   0  0  0  0  0  2  0  0  0  0  0  0
  186.6930  178.3820  146.5680 C   0  0  0  0  0  3  0  0  0  0  0  0
  189.4140  177.0360  144.6240 N   0  0  0  0  0  0  0  0  0  0  0  0
  187.6820  178.7350  140.5420 C   0  0  0  0  0  2  0  0  0  0  0  0
  185.6920  178.5960  145.5910 C   0  0  0  0  0  3  0  0  0  0  0  0
  187.1970  177.4730  142.4760 N   0  0  0  0  0  0  0  0  0  0  0  0
  185.1580  178.4510  143.1050 N   0  0  0  0  0  0  0  0  0  0  0  0
  190.7380  177.3320  148.5130 C   0  0  0  0  0  3  0  0  0  0  0  0
  188.3060  177.9280  141.6750 C   0  0  1  0  0  3  0  0  0  0  0  0
  185.9610  178.2250  144.2580 C   0  0  0  0  0  0  0  0  0  0  0  0
  189.9580  177.0770  145.8620 C   0  0  0  0  0  0  0  0  0  0  0  0
  187.9090  177.8230  146.1480 C   0  0  0  0  0  0  0  0  0  0  0  0
  187.1540  177.6750  143.8810 C   0  0  0  0  0  0  0  0  0  0  0  0
  189.0750  177.5540  146.8140 C   0  0  0  0  0  0  0  0  0  0  0  0
  189.4280  177.6940  148.1510 C   0  0  0  0  0  3  0  0  0  0  0  0
  188.1570  177.4920  144.8280 C   0  0  0  0  0  0  0  0  0  0  0  0
  191.6450  176.8470  147.5470 C   0  0  0  0  0  2  0  0  0  0  0  0
  183.7390  178.6090  143.1210 C   0  0  0  0  0  0  0  0  0  0  0  0
  180.9560  178.8910  143.1450 C   0  0  0  0  0  0  0  0  0  0  0  0
  181.6380  178.7740  141.9250 C   0  0  0  0  0  3  0  0  0  0  0  0
  183.0270  178.6320  141.9140 C   0  0  0  0  0  3  0  0  0  0  0  0
  183.0550  178.7180  144.3390 C   0  0  0  0  0  3  0  0  0  0  0  0
  181.6670  178.8570  144.3490 C   0  0  0  0  0  3  0  0  0  0  0  0
  179.4710  179.0140  143.1600 C   0  0  0  0  0  2  0  0  0  0  0  0
  178.9530  178.6800  144.4800 N   0  0  0  0  0  1  0  0  0  0  0  0
  189.0690  176.7310  141.1360 C   0  0  0  0  0  2  0  0  0  0  0  0
  190.5690  176.8980  141.3150 C   0  0  0  0  0  2  0  0  0  0  0  0
  192.5420  177.7620  140.2670 O   0  0  0  0  0  1  0  0  0  0  0  0
  191.2230  177.3710  140.0210 C   0  0  1  0  0  3  0  0  0  0  0  0
  191.2090  176.2730  138.9660 C   0  0  0  0  0  2  0  0  0  0  0  0
  191.7150  176.7670  137.6930 N   0  0  0  0  0  2  0  0  0  0  0  0
  195.1750  172.5390  139.0650 O   0  0  0  0  0  1  0  0  0  0  0  0
  195.3500  175.0500  136.5650 C   0  0  1  0  0  3  0  0  0  0  0  0
  196.8230  173.5170  137.6250 C   0  0  0  0  0  2  0  0  0  0  0  0
  193.3550  176.3530  135.9180 C   0  0  0  0  0  2  0  0  0  0  0  0
  194.5530  174.2990  137.5880 C   0  0  2  0  0  3  0  0  0  0  0  0
  196.5020  174.1290  136.2660 C   0  0  0  0  0  2  0  0  0  0  0  0
  192.5970  175.7580  137.1240 C   0  0  1  0  0  3  0  0  0  0  0  0
  194.4460  175.4000  135.3960 C   0  0  0  0  0  2  0  0  0  0  0  0
  193.5560  175.2540  138.2210 C   0  0  0  0  0  2  0  0  0  0  0  0
  195.6070  173.7510  138.5220 C   0  0  1  0  0  3  0  0  0  0  0  0
  1 19  1  0  0  0  0
  2  3  1  6  0  0  0
  2  8  1  0  0  0  0
  2  9  1  0  0  0  0
  5 18  2  0  0  0  0
  5 13  1  0  0  0  0
  6  3  1  0  0  0  0
  6 11  1  0  0  0  0
  7  4  2  0  0  0  0
  8 15  1  0  0  0  0
  9 20  1  0  0  0  0
  9 12  1  0  0  0  0
 11 28  1  6  0  0  0
 11  8  1  0  0  0  0
 12  7  1  0  0  0  0
 13  1  2  0  0  0  0
 13 16  1  0  0  0  0
 14  4  1  0  0  0  0
 14 16  2  0  0  0  0
 15 12  2  0  0  0  0
 15 18  1  0  0  0  0
 16 17  1  0  0  0  0
 17 10  2  0  0  0  0
 18 14  1  0  0  0  0
 19 10  1  0  0  0  0
 20 24  1  0  0  0  0
 21 26  1  0  0  0  0
 21 25  1  0  0  0  0
 22 21  2  0  0  0  0
 23 22  1  0  0  0  0
 23 20  2  0  0  0  0
 24 25  2  0  0  0  0
 26 27  1  0  0  0  0
 28 29  1  0  0  0  0
 31 30  1  1  0  0  0
 31 29  1  0  0  0  0
 32 31  1  0  0  0  0
 33 32  1  0  0  0  0
 35 41  1  6  0  0  0
 35 38  1  0  0  0  0
 36 43  1  0  0  0  0
 37 40  1  0  0  0  0
 38 42  1  1  0  0  0
 38 43  1  0  0  0  0
 39 35  1  0  0  0  0
 39 36  1  0  0  0  0
 40 33  1  1  0  0  0
 40 42  1  0  0  0  0
 41 37  1  0  0  0  0
 43 34  1  6  0  0  0
M  END
>  <MODEL>
5

>  <REMARK>
 VINA RESULT:      -8.7      3.959      8.856
  Name = 
  8 active torsions:
  status: ('A' for Active; 'I' for Inactive)
    1  A    between atoms: C_3  and  C_12
    2  A    between atoms: C_5  and  N_26
    3  A    between atoms: C_9  and  C_10
    4  A    between atoms: C_9  and  C_39
    5  A    between atoms: C_10  and  C_24
    6  A    between atoms: N_18  and  C_19
    7  A    between atoms: N_18  and  C_39
    8  A    between atoms: C_24  and  C_28
                            x       y       z     vdW  Elec       q    Type
                         _______ _______ _______ _____ _____    ______ ____

>  <TORSDO>
F 8

$$$$
=
 OpenBabel10222417223D

 43 50  0  0  1  0  0  0  0  0999 V2000
  184.2720  178.9290  142.4130 C   0  0  0  0  0  3  0  0  0  0  0  0
  190.6570  176.9420  144.2620 C   0  0  1  0  0  3  0  0  0  0  0  0
  191.0120  175.6080  143.6410 C   0  0  0  0  0  2  0  0  0  0  0  0
  186.6010  177.6980  146.5140 C   0  0  0  0  0  3  0  0  0  0  0  0
  186.5760  178.3020  142.9610 N   0  0  0  0  0  0  0  0  0  0  0  0
  190.4540  175.6630  142.2230 C   0  0  0  0  0  2  0  0  0  0  0  0
  187.9340  177.2860  146.7480 C   0  0  0  0  0  2  0  0  0  0  0  0
  189.5230  177.4290  143.4800 N   0  0  0  0  0  0  0  0  0  0  0  0
  190.1710  176.7820  145.6420 N   0  0  0  0  0  0  0  0  0  0  0  0
  182.7540  178.9960  144.3300 C   0  0  0  0  0  3  0  0  0  0  0  0
  189.3460  176.7090  142.2450 C   0  0  1  0  0  3  0  0  0  0  0  0
  188.8330  177.2650  145.6630 C   0  0  0  0  0  0  0  0  0  0  0  0
  185.2910  178.5670  143.2910 C   0  0  0  0  0  0  0  0  0  0  0  0
  186.2430  178.0490  145.2040 C   0  0  0  0  0  0  0  0  0  0  0  0
  188.4560  177.6200  144.3980 C   0  0  0  0  0  0  0  0  0  0  0  0
  185.0500  178.4200  144.6440 C   0  0  0  0  0  0  0  0  0  0  0  0
  183.7940  178.6280  145.2030 C   0  0  0  0  0  3  0  0  0  0  0  0
  187.1390  177.9930  144.1510 C   0  0  0  0  0  0  0  0  0  0  0  0
  182.9930  179.1470  142.9470 C   0  0  0  0  0  3  0  0  0  0  0  0
  191.0300  176.7180  146.7800 C   0  0  0  0  0  0  0  0  0  0  0  0
  192.6890  176.5830  149.0290 C   0  0  0  0  0  0  0  0  0  0  0  0
  191.7330  177.6040  148.9230 C   0  0  0  0  0  3  0  0  0  0  0  0
  190.9050  177.6700  147.8020 C   0  0  0  0  0  3  0  0  0  0  0  0
  191.9800  175.6940  146.8910 C   0  0  0  0  0  3  0  0  0  0  0  0
  192.8060  175.6270  148.0140 C   0  0  0  0  0  3  0  0  0  0  0  0
  193.5550  176.4940  150.2380 C   0  0  0  0  0  2  0  0  0  0  0  0
  194.6050  177.5030  150.1780 N   0  0  0  0  0  1  0  0  0  0  0  0
  189.4770  177.6680  141.0740 C   0  0  0  0  0  2  0  0  0  0  0  0
  190.7980  177.4830  140.3460 C   0  0  0  0  0  2  0  0  0  0  0  0
  190.9300  175.6270  138.8380 O   0  0  0  0  0  1  0  0  0  0  0  0
  190.5740  176.9760  138.9270 C   0  0  1  0  0  3  0  0  0  0  0  0
  189.1190  177.1430  138.5080 C   0  0  0  0  0  2  0  0  0  0  0  0
  189.0220  177.5580  137.1160 N   0  0  0  0  0  2  0  0  0  0  0  0
  184.4160  180.1280  139.0930 O   0  0  0  0  0  1  0  0  0  0  0  0
  184.8820  177.0720  137.3530 C   0  0  1  0  0  3  0  0  0  0  0  0
  183.1950  178.1100  138.6640 C   0  0  0  0  0  2  0  0  0  0  0  0
  186.9850  176.5900  136.1530 C   0  0  0  0  0  2  0  0  0  0  0  0
  185.4200  178.3950  137.8060 C   0  0  2  0  0  3  0  0  0  0  0  0
  183.3900  177.2530  137.4180 C   0  0  0  0  0  2  0  0  0  0  0  0
  187.6250  177.8320  136.8120 C   0  0  1  0  0  3  0  0  0  0  0  0
  185.4620  176.7460  135.9880 C   0  0  0  0  0  2  0  0  0  0  0  0
  186.8990  178.2380  138.1090 C   0  0  0  0  0  2  0  0  0  0  0  0
  184.5490  178.7420  138.9920 C   0  0  1  0  0  3  0  0  0  0  0  0
  1 19  2  0  0  0  0
  1 13  1  0  0  0  0
  2  3  1  6  0  0  0
  2  9  1  0  0  0  0
  4  7  1  0  0  0  0
  5 13  1  0  0  0  0
  5 18  2  0  0  0  0
  6 11  1  0  0  0  0
  6  3  1  0  0  0  0
  8  2  1  0  0  0  0
  8 15  1  0  0  0  0
  9 12  1  0  0  0  0
  9 20  1  0  0  0  0
 10 17  2  0  0  0  0
 11 28  1  6  0  0  0
 11  8  1  0  0  0  0
 12  7  1  0  0  0  0
 13 16  2  0  0  0  0
 14  4  2  0  0  0  0
 15 12  2  0  0  0  0
 16 17  1  0  0  0  0
 16 14  1  0  0  0  0
 18 15  1  0  0  0  0
 18 14  1  0  0  0  0
 19 10  1  0  0  0  0
 20 24  2  0  0  0  0
 20 23  1  0  0  0  0
 21 26  1  0  0  0  0
 22 21  1  0  0  0  0
 23 22  2  0  0  0  0
 24 25  1  0  0  0  0
 25 21  2  0  0  0  0
 27 26  1  0  0  0  0
 29 28  1  0  0  0  0
 31 30  1  1  0  0  0
 31 29  1  0  0  0  0
 32 31  1  0  0  0  0
 33 32  1  0  0  0  0
 35 41  1  6  0  0  0
 35 39  1  0  0  0  0
 35 38  1  0  0  0  0
 36 43  1  0  0  0  0
 37 40  1  0  0  0  0
 38 42  1  1  0  0  0
 38 43  1  0  0  0  0
 39 36  1  0  0  0  0
 40 33  1  1  0  0  0
 40 42  1  0  0  0  0
 41 37  1  0  0  0  0
 43 34  1  6  0  0  0
M  END
>  <MODEL>
6

>  <REMARK>
 VINA RESULT:      -8.6      1.979      3.422
  Name = 
  8 active torsions:
  status: ('A' for Active; 'I' for Inactive)
    1  A    between atoms: C_3  and  C_12
    2  A    between atoms: C_5  and  N_26
    3  A    between atoms: C_9  and  C_10
    4  A    between atoms: C_9  and  C_39
    5  A    between atoms: C_10  and  C_24
    6  A    between atoms: N_18  and  C_19
    7  A    between atoms: N_18  and  C_39
    8  A    between atoms: C_24  and  C_28
                            x       y       z     vdW  Elec       q    Type
                         _______ _______ _______ _____ _____    ______ ____

>  <TORSDO>
F 8

$$$$
=
 OpenBabel10222417223D

 43 50  0  0  1  0  0  0  0  0999 V2000
  183.6160  179.3900  139.1260 C   0  0  0  0  0  3  0  0  0  0  0  0
  189.7490  177.7220  141.9080 C   0  0  1  0  0  3  0  0  0  0  0  0
  190.3360  176.4990  141.2360 C   0  0  0  0  0  2  0  0  0  0  0  0
  185.3090  177.8930  143.4450 C   0  0  0  0  0  3  0  0  0  0  0  0
  185.8410  178.8910  140.0220 N   0  0  0  0  0  0  0  0  0  0  0  0
  190.0290  176.6690  139.7520 C   0  0  0  0  0  2  0  0  0  0  0  0
  186.6160  177.5650  143.8770 C   0  0  0  0  0  2  0  0  0  0  0  0
  188.7250  178.2030  140.9830 N   0  0  0  0  0  0  0  0  0  0  0  0
  189.0500  177.3690  143.1530 N   0  0  0  0  0  0  0  0  0  0  0  0
  181.7900  179.1200  140.7310 C   0  0  0  0  0  3  0  0  0  0  0  0
  188.8360  177.6140  139.6720 C   0  0  1  0  0  3  0  0  0  0  0  0
  187.6870  177.7380  142.9770 C   0  0  0  0  0  0  0  0  0  0  0  0
  184.4980  179.0140  140.1360 C   0  0  0  0  0  0  0  0  0  0  0  0
  185.1510  178.3610  142.1310 C   0  0  0  0  0  0  0  0  0  0  0  0
  187.5020  178.2030  141.7050 C   0  0  0  0  0  0  0  0  0  0  0  0
  184.0420  178.6960  141.4020 C   0  0  0  0  0  0  0  0  0  0  0  0
  182.6940  178.7390  141.7390 C   0  0  0  0  0  3  0  0  0  0  0  0
  186.2170  178.4950  141.2590 C   0  0  0  0  0  0  0  0  0  0  0  0
  182.2480  179.4430  139.4360 C   0  0  0  0  0  3  0  0  0  0  0  0
  189.7010  177.2450  144.4180 C   0  0  0  0  0  0  0  0  0  0  0  0
  190.9940  177.0270  146.8890 C   0  0  0  0  0  0  0  0  0  0  0  0
  191.6740  176.6880  145.7100 C   0  0  0  0  0  3  0  0  0  0  0  0
  191.0290  176.7980  144.4770 C   0  0  0  0  0  3  0  0  0  0  0  0
  189.0260  177.5900  145.5960 C   0  0  0  0  0  3  0  0  0  0  0  0
  189.6730  177.4820  146.8280 C   0  0  0  0  0  3  0  0  0  0  0  0
  191.6900  176.9370  148.2030 C   0  0  0  0  0  2  0  0  0  0  0  0
  192.8340  176.0400  148.1040 N   0  0  0  0  0  1  0  0  0  0  0  0
  189.0720  178.7060  138.6430 C   0  0  0  0  0  2  0  0  0  0  0  0
  188.1130  178.5870  137.4710 C   0  0  0  0  0  2  0  0  0  0  0  0
  190.0130  177.4460  136.5620 O   0  0  0  0  0  1  0  0  0  0  0  0
  188.8420  178.1260  136.2140 C   0  0  1  0  0  3  0  0  0  0  0  0
  187.9600  177.2150  135.3710 C   0  0  0  0  0  2  0  0  0  0  0  0
  188.6080  175.9310  135.1390 N   0  0  0  0  0  2  0  0  0  0  0  0
  187.9160  170.3550  135.5340 O   0  0  0  0  0  1  0  0  0  0  0  0
  185.6280  173.0610  135.7000 C   0  0  1  0  0  3  0  0  0  0  0  0
  185.5510  170.7110  135.3680 C   0  0  0  0  0  2  0  0  0  0  0  0
  186.4070  175.3750  136.0660 C   0  0  0  0  0  2  0  0  0  0  0  0
  187.0410  172.5610  135.7200 C   0  0  2  0  0  3  0  0  0  0  0  0
  184.8160  171.8490  136.0680 C   0  0  0  0  0  2  0  0  0  0  0  0
  187.8600  174.9020  135.8470 C   0  0  1  0  0  3  0  0  0  0  0  0
  185.5160  174.2550  136.6320 C   0  0  0  0  0  2  0  0  0  0  0  0
  187.9280  173.5900  135.0410 C   0  0  0  0  0  2  0  0  0  0  0  0
  186.9490  171.2230  135.0220 C   0  0  1  0  0  3  0  0  0  0  0  0
  1 19  2  0  0  0  0
  1 13  1  0  0  0  0
  2  3  1  6  0  0  0
  2  9  1  0  0  0  0
  4  7  1  0  0  0  0
  5 13  1  0  0  0  0
  5 18  2  0  0  0  0
  6  3  1  0  0  0  0
  8 15  1  0  0  0  0
  8  2  1  0  0  0  0
  9 20  1  0  0  0  0
 10 17  2  0  0  0  0
 11 28  1  6  0  0  0
 11  6  1  0  0  0  0
 11  8  1  0  0  0  0
 12  9  1  0  0  0  0
 12  7  1  0  0  0  0
 13 16  2  0  0  0  0
 14  4  2  0  0  0  0
 15 12  2  0  0  0  0
 16 17  1  0  0  0  0
 16 14  1  0  0  0  0
 18 15  1  0  0  0  0
 18 14  1  0  0  0  0
 19 10  1  0  0  0  0
 20 23  2  0  0  0  0
 20 24  1  0  0  0  0
 21 26  1  0  0  0  0
 22 21  2  0  0  0  0
 23 22  1  0  0  0  0
 24 25  2  0  0  0  0
 25 21  1  0  0  0  0
 27 26  1  0  0  0  0
 29 28  1  0  0  0  0
 31 30  1  1  0  0  0
 31 29  1  0  0  0  0
 32 31  1  0  0  0  0
 33 32  1  0  0  0  0
 35 38  1  0  0  0  0
 35 39  1  1  0  0  0
 35 41  1  0  0  0  0
 36 39  1  0  0  0  0
 37 41  1  0  0  0  0
 38 42  1  6  0  0  0
 40 33  1  6  0  0  0
 40 37  1  0  0  0  0
 42 40  1  0  0  0  0
 43 36  1  0  0  0  0
 43 34  1  1  0  0  0
 43 38  1  0  0  0  0
M  END
>  <MODEL>
7

>  <REMARK>
 VINA RESULT:      -8.5      2.385      2.908
  Name = 
  8 active torsions:
  status: ('A' for Active; 'I' for Inactive)
    1  A    between atoms: C_3  and  C_12
    2  A    between atoms: C_5  and  N_26
    3  A    between atoms: C_9  and  C_10
    4  A    between atoms: C_9  and  C_39
    5  A    between atoms: C_10  and  C_24
    6  A    between atoms: N_18  and  C_19
    7  A    between atoms: N_18  and  C_39
    8  A    between atoms: C_24  and  C_28
                            x       y       z     vdW  Elec       q    Type
                         _______ _______ _______ _____ _____    ______ ____

>  <TORSDO>
F 8

$$$$
=
 OpenBabel10222417223D

 43 50  0  0  1  0  0  0  0  0999 V2000
  186.5690  178.4550  137.3580 C   0  0  0  0  0  3  0  0  0  0  0  0
  187.2080  177.5390  144.2060 C   0  0  1  0  0  3  0  0  0  0  0  0
  186.6830  178.7390  144.9660 C   0  0  0  0  0  2  0  0  0  0  0  0
  190.1830  177.9260  140.5860 C   0  0  0  0  0  3  0  0  0  0  0  0
  186.6730  178.0650  139.7740 N   0  0  0  0  0  0  0  0  0  0  0  0
  185.4230  179.1680  144.2210 C   0  0  0  0  0  2  0  0  0  0  0  0
  190.1680  177.7610  141.9910 C   0  0  0  0  0  2  0  0  0  0  0  0
  186.6390  177.6670  142.8660 N   0  0  0  0  0  0  0  0  0  0  0  0
  188.6690  177.6020  144.0440 N   0  0  0  0  0  0  0  0  0  0  0  0
  188.7490  178.5900  136.2560 C   0  0  0  0  0  3  0  0  0  0  0  0
  185.5630  178.6240  142.8040 C   0  0  1  0  0  3  0  0  0  0  0  0
  188.9240  177.6550  142.6450 C   0  0  0  0  0  0  0  0  0  0  0  0
  187.2410  178.2380  138.5580 C   0  0  0  0  0  0  0  0  0  0  0  0
  188.9490  177.9900  139.9210 C   0  0  0  0  0  0  0  0  0  0  0  0
  187.7380  177.7140  141.9670 C   0  0  0  0  0  0  0  0  0  0  0  0
  188.6230  178.2030  138.6080 C   0  0  0  0  0  0  0  0  0  0  0  0
  189.4120  178.3730  137.4770 C   0  0  0  0  0  3  0  0  0  0  0  0
  187.7410  177.9100  140.5900 C   0  0  0  0  0  0  0  0  0  0  0  0
  187.3390  178.6290  136.1980 C   0  0  0  0  0  3  0  0  0  0  0  0
  189.5940  177.1240  145.0210 C   0  0  0  0  0  0  0  0  0  0  0  0
  191.3880  176.1640  146.9410 C   0  0  0  0  0  0  0  0  0  0  0  0
  190.1700  176.7350  147.3420 C   0  0  0  0  0  3  0  0  0  0  0  0
  189.2750  177.2130  146.3830 C   0  0  0  0  0  3  0  0  0  0  0  0
  190.8060  176.5460  144.6210 C   0  0  0  0  0  3  0  0  0  0  0  0
  191.6990  176.0670  145.5800 C   0  0  0  0  0  3  0  0  0  0  0  0
  192.3320  175.6280  147.9610 C   0  0  0  0  0  2  0  0  0  0  0  0
  192.7920  176.7020  148.8320 N   0  0  0  0  0  1  0  0  0  0  0  0
  184.2890  177.9280  142.3580 C   0  0  0  0  0  2  0  0  0  0  0  0
  183.6340  178.6540  141.1940 C   0  0  0  0  0  2  0  0  0  0  0  0
  181.3270  178.8360  141.8090 O   0  0  0  0  0  1  0  0  0  0  0  0
  182.2120  178.1540  140.9700 C   0  0  1  0  0  3  0  0  0  0  0  0
  181.7850  178.3460  139.5210 C   0  0  0  0  0  2  0  0  0  0  0  0
  180.9040  179.4980  139.3860 N   0  0  0  0  0  2  0  0  0  0  0  0
  182.3170  184.6470  137.5910 O   0  0  0  0  0  1  0  0  0  0  0  0
  180.4020  182.0490  136.1190 C   0  0  1  0  0  3  0  0  0  0  0  0
  180.7350  184.3800  135.8100 C   0  0  0  0  0  2  0  0  0  0  0  0
  180.5070  179.7370  136.9780 C   0  0  0  0  0  2  0  0  0  0  0  0
  181.3630  182.5060  137.1740 C   0  0  2  0  0  3  0  0  0  0  0  0
  180.5470  183.0810  135.0340 C   0  0  0  0  0  2  0  0  0  0  0  0
  181.2990  180.2460  138.2010 C   0  0  1  0  0  3  0  0  0  0  0  0
  180.7350  180.6180  135.7360 C   0  0  0  0  0  2  0  0  0  0  0  0
  181.0700  181.7490  138.4570 C   0  0  0  0  0  2  0  0  0  0  0  0
  181.1320  183.9990  137.2370 C   0  0  1  0  0  3  0  0  0  0  0  0
  1 13  1  0  0  0  0
  2  3  1  1  0  0  0
  4  7  1  0  0  0  0
  5 18  2  0  0  0  0
  6  3  1  0  0  0  0
  7 12  1  0  0  0  0
  8  2  1  0  0  0  0
  9  2  1  0  0  0  0
  9 20  1  0  0  0  0
 10 17  2  0  0  0  0
 11 28  1  1  0  0  0
 11  8  1  0  0  0  0
 11  6  1  0  0  0  0
 12  9  1  0  0  0  0
 13 16  2  0  0  0  0
 13  5  1  0  0  0  0
 14  4  2  0  0  0  0
 14 18  1  0  0  0  0
 15 12  2  0  0  0  0
 15  8  1  0  0  0  0
 16 14  1  0  0  0  0
 17 16  1  0  0  0  0
 18 15  1  0  0  0  0
 19 10  1  0  0  0  0
 19  1  2  0  0  0  0
 20 23  1  0  0  0  0
 21 22  1  0  0  0  0
 21 26  1  0  0  0  0
 23 22  2  0  0  0  0
 24 20  2  0  0  0  0
 24 25  1  0  0  0  0
 25 21  2  0  0  0  0
 26 27  1  0  0  0  0
 29 28  1  0  0  0  0
 31 29  1  0  0  0  0
 31 30  1  1  0  0  0
 32 31  1  0  0  0  0
 33 32  1  0  0  0  0
 35 39  1  6  0  0  0
 35 38  1  0  0  0  0
 36 43  1  0  0  0  0
 37 40  1  0  0  0  0
 38 43  1  0  0  0  0
 38 42  1  1  0  0  0
 39 36  1  0  0  0  0
 40 42  1  0  0  0  0
 40 33  1  1  0  0  0
 41 35  1  0  0  0  0
 41 37  1  0  0  0  0
 43 34  1  6  0  0  0
M  END
>  <MODEL>
8

>  <REMARK>
 VINA RESULT:      -8.4      2.605      5.317
  Name = 
  8 active torsions:
  status: ('A' for Active; 'I' for Inactive)
    1  A    between atoms: C_3  and  C_12
    2  A    between atoms: C_5  and  N_26
    3  A    between atoms: C_9  and  C_10
    4  A    between atoms: C_9  and  C_39
    5  A    between atoms: C_10  and  C_24
    6  A    between atoms: N_18  and  C_19
    7  A    between atoms: N_18  and  C_39
    8  A    between atoms: C_24  and  C_28
                            x       y       z     vdW  Elec       q    Type
                         _______ _______ _______ _____ _____    ______ ____

>  <TORSDO>
F 8

$$$$
=
 OpenBabel10222417223D

 43 50  0  0  1  0  0  0  0  0999 V2000
  183.4090  173.3750  137.2970 C   0  0  0  0  0  3  0  0  0  0  0  0
  189.4040  176.8630  137.5090 C   0  0  1  0  0  3  0  0  0  0  0  0
  189.3220  178.1340  136.6900 C   0  0  0  0  0  2  0  0  0  0  0  0
  188.0160  172.6840  135.8620 C   0  0  0  0  0  3  0  0  0  0  0  0
  185.4830  174.6660  137.4890 N   0  0  0  0  0  0  0  0  0  0  0  0
  187.9330  178.7000  136.9620 C   0  0  0  0  0  2  0  0  0  0  0  0
  189.1610  173.5090  135.9560 C   0  0  0  0  0  3  0  0  0  0  0  0
  188.0140  176.4700  137.7300 N   0  0  0  0  0  0  0  0  0  0  0  0
  190.0270  175.7700  136.7460 N   0  0  0  0  0  0  0  0  0  0  0  0
  183.6530  171.2250  136.1580 C   0  0  0  0  0  3  0  0  0  0  0  0
  187.0800  177.5240  137.4250 C   0  0  1  0  0  3  0  0  0  0  0  0
  189.0510  174.7420  136.6310 C   0  0  0  0  0  0  0  0  0  0  0  0
  184.7750  173.5770  137.1100 C   0  0  2  0  0  3  0  0  0  0  0  0
  186.8230  173.1500  136.4360 C   0  0  0  0  0  0  0  0  0  0  0  0
  187.8760  175.1640  137.1870 C   0  0  0  0  0  0  0  0  0  0  0  0
  185.5540  172.6360  136.4630 C   0  0  0  0  0  0  0  0  0  0  0  0
  185.0300  171.4450  135.9740 C   0  0  0  0  0  3  0  0  0  0  0  0
  186.7360  174.3770  137.0700 C   0  0  0  0  0  0  0  0  0  0  0  0
  182.8510  172.1810  136.8150 C   0  0  0  0  0  3  0  0  0  0  0  0
  191.4380  175.5630  136.6710 C   0  0  0  0  0  0  0  0  0  0  0  0
  194.1980  175.1270  136.5250 C   0  0  0  0  0  0  0  0  0  0  0  0
  193.5120  174.8850  137.7250 C   0  0  0  0  0  3  0  0  0  0  0  0
  192.1350  175.1020  137.7970 C   0  0  0  0  0  3  0  0  0  0  0  0
  192.1220  175.7960  135.4720 C   0  0  0  0  0  3  0  0  0  0  0  0
  193.4990  175.5760  135.4000 C   0  0  0  0  0  3  0  0  0  0  0  0
  195.6630  174.8700  136.4380 C   0  0  0  0  0  2  0  0  0  0  0  0
  196.3510  176.0520  135.9370 N   0  0  0  0  0  1  0  0  0  0  0  0
  186.2890  177.8790  138.6720 C   0  0  0  0  0  2  0  0  0  0  0  0
  184.9090  178.4140  138.3260 C   0  0  0  0  0  2  0  0  0  0  0  0
  183.2770  177.5890  139.8720 O   0  0  0  0  0  1  0  0  0  0  0  0
  184.0970  178.6850  139.5870 C   0  0  1  0  0  3  0  0  0  0  0  0
  185.0060  178.9600  140.7770 C   0  0  0  0  0  2  0  0  0  0  0  0
  184.5830  178.1980  141.9440 N   0  0  0  0  0  2  0  0  0  0  0  0
  189.6880  177.6700  144.2630 O   0  0  0  0  0  1  0  0  0  0  0  0
  186.4340  177.8240  145.6670 C   0  0  1  0  0  3  0  0  0  0  0  0
  188.6100  177.1520  146.3400 C   0  0  0  0  0  2  0  0  0  0  0  0
  184.5110  178.6440  144.3540 C   0  0  0  0  0  2  0  0  0  0  0  0
  187.3440  178.0150  144.4920 C   0  0  2  0  0  3  0  0  0  0  0  0
  187.3650  177.8700  146.8490 C   0  0  0  0  0  2  0  0  0  0  0  0
  185.3880  178.6130  143.0830 C   0  0  1  0  0  3  0  0  0  0  0  0
  185.3470  178.8830  145.6240 C   0  0  0  0  0  2  0  0  0  0  0  0
  186.5850  177.6520  143.2280 C   0  0  0  0  0  2  0  0  0  0  0  0
  188.5250  177.1280  144.8140 C   0  0  1  0  0  3  0  0  0  0  0  0
  2  3  1  6  0  0  0
  2  8  1  0  0  0  0
  3  6  1  0  0  0  0
  4  7  2  0  0  0  0
  4 14  1  0  0  0  0
  6 11  1  0  0  0  0
  7 12  1  0  0  0  0
  9  2  1  0  0  0  0
 10 19  1  0  0  0  0
 11  8  1  0  0  0  0
 11 28  1  1  0  0  0
 12  9  1  0  0  0  0
 12 15  2  0  0  0  0
 13  1  1  6  0  0  0
 13  5  1  0  0  0  0
 14 16  2  0  0  0  0
 14 18  1  0  0  0  0
 15  8  1  0  0  0  0
 16 13  1  0  0  0  0
 17 10  2  0  0  0  0
 17 16  1  0  0  0  0
 18 15  1  0  0  0  0
 18  5  2  0  0  0  0
 19  1  2  0  0  0  0
 20  9  1  0  0  0  0
 20 23  1  0  0  0  0
 21 22  1  0  0  0  0
 22 23  2  0  0  0  0
 24 20  2  0  0  0  0
 25 24  1  0  0  0  0
 25 21  2  0  0  0  0
 26 21  1  0  0  0  0
 27 26  1  0  0  0  0
 29 28  1  0  0  0  0
 29 31  1  0  0  0  0
 31 30  1  1  0  0  0
 31 32  1  0  0  0  0
 32 33  1  0  0  0  0
 35 41  1  1  0  0  0
 35 39  1  0  0  0  0
 36 39  1  0  0  0  0
 37 41  1  0  0  0  0
 38 42  1  6  0  0  0
 38 43  1  0  0  0  0
 38 35  1  0  0  0  0
 40 33  1  6  0  0  0
 40 42  1  0  0  0  0
 40 37  1  0  0  0  0
 43 34  1  6  0  0  0
 43 36  1  0  0  0  0
M  END
>  <MODEL>
9

>  <REMARK>
 VINA RESULT:      -8.4      3.641      8.001
  Name = 
  8 active torsions:
  status: ('A' for Active; 'I' for Inactive)
    1  A    between atoms: C_3  and  C_12
    2  A    between atoms: C_5  and  N_26
    3  A    between atoms: C_9  and  C_10
    4  A    between atoms: C_9  and  C_39
    5  A    between atoms: C_10  and  C_24
    6  A    between atoms: N_18  and  C_19
    7  A    between atoms: N_18  and  C_39
    8  A    between atoms: C_24  and  C_28
                            x       y       z     vdW  Elec       q    Type
                         _______ _______ _______ _____ _____    ______ ____

>  <TORSDO>
F 8

$$$$
