=
 OpenBabel10222418453D

 52 56  0  0  1  0  0  0  0  0999 V2000
  189.9240  177.5490  141.7870 C   0  0  2  0  0  3  0  0  0  0  0  0
  188.1310  178.9300  141.0480 O   0  0  0  0  0  0  0  0  0  0  0  0
  188.5360  178.1020  141.9060 C   0  0  0  0  0  0  0  0  0  0  0  0
  187.6920  177.6910  142.9920 N   0  0  0  0  0  2  0  0  0  0  0  0
  185.7900  178.3350  144.4510 C   0  0  0  0  0  3  0  0  0  0  0  0
  183.6100  178.7470  143.4740 C   0  0  0  0  0  0  0  0  0  0  0  0
  186.3120  178.0300  143.1850 C   0  0  0  0  0  0  0  0  0  0  0  0
  184.4460  178.6930  144.5930 C   0  0  0  0  0  3  0  0  0  0  0  0
  185.4760  178.0930  142.0660 C   0  0  0  0  0  3  0  0  0  0  0  0
  184.1330  178.4490  142.2070 C   0  0  0  0  0  3  0  0  0  0  0  0
  182.2430  179.1420  143.6390 N   0  0  0  0  0  2  0  0  0  0  0  0
  181.1720  178.7110  142.7490 C   0  0  0  0  0  2  0  0  0  0  0  0
  180.4770  179.9140  142.1310 C   0  0  0  0  0  2  0  0  0  0  0  0
  180.2040  179.6810  140.6530 C   0  0  0  0  0  2  0  0  0  0  0  0
  181.3530  178.9090  139.9990 C   0  0  0  0  0  2  0  0  0  0  0  0
  181.9220  179.5740  138.7380 C   0  0  1  0  0  0  0  0  0  0  0  0
  183.4210  179.3770  138.7790 C   0  0  0  0  0  0  0  0  0  0  0  0
  184.1750  180.3250  139.1310 O   0  0  0  0  0  1  0  0  0  0  0  0
  183.9850  178.1400  138.4960 O   0  0  0  0  0  0  0  0  0  0  0  0
  180.3160  178.0010  137.8330 F   0  0  0  0  0  0  0  0  0  0  0  0
  181.3140  178.8990  137.4980 C   0  0  0  0  0  2  0  0  0  0  0  0
  181.5630  181.0720  138.7740 C   0  0  0  0  0  2  0  0  0  0  0  0
  180.9740  181.6000  137.4730 C   0  0  0  0  0  1  0  0  0  0  0  0
  190.4340  177.6190  140.3540 C   0  0  0  0  0  2  0  0  0  0  0  0
  190.5570  176.2180  139.7810 C   0  0  0  0  0  2  0  0  0  0  0  0
  191.0890  176.2680  138.3590 C   0  0  2  0  0  0  0  0  0  0  0  0
  189.8630  174.4650  135.8070 N   0  0  0  0  0  0  0  0  0  0  0  0
  190.7410  175.3000  136.2640 C   0  0  0  0  0  0  0  0  0  0  0  0
  187.4210  174.2870  135.9250 C   0  0  0  0  0  0  0  0  0  0  0  0
  192.0100  174.8480  136.6970 N   0  0  0  0  0  2  0  0  0  0  0  0
  188.5850  174.8710  136.2780 C   0  0  0  0  0  0  0  0  0  0  0  0
  190.2050  176.3900  137.1160 C   0  0  1  0  0  3  0  0  0  0  0  0
  187.9040  176.5280  137.9230 O   0  0  0  0  0  0  0  0  0  0  0  0
  188.7830  175.9730  137.2130 C   0  0  0  0  0  0  0  0  0  0  0  0
  192.2160  175.2740  138.0770 C   0  0  1  0  0  3  0  0  0  0  0  0
  192.5060  176.7700  138.1790 C   0  0  0  0  0  2  0  0  0  0  0  0
  185.2250  175.3200  135.3390 C   0  0  0  0  0  2  0  0  0  0  0  0
  183.8910  175.7850  135.9190 C   0  0  0  0  0  2  0  0  0  0  0  0
  185.3990  173.7520  137.3030 C   0  0  0  0  0  2  0  0  0  0  0  0
  186.1230  174.8120  136.4680 C   0  0  0  0  0  3  0  0  0  0  0  0
  183.2380  174.6810  136.6250 N   0  0  0  0  0  0  0  0  0  0  0  0
  181.9930  175.2050  137.1520 C   0  0  0  0  0  1  0  0  0  0  0  0
  184.0600  174.3120  137.7750 C   0  0  0  0  0  2  0  0  0  0  0  0
  187.6400  171.9710  135.3090 O   0  0  0  0  0  0  0  0  0  0  0  0
  187.3630  173.1520  134.9760 C   0  0  0  0  0  3  0  0  0  0  0  0
  190.0340  176.1430  142.3760 C   0  0  0  0  0  2  0  0  0  0  0  0
  191.1430  176.0220  143.4170 C   0  0  0  0  0  2  0  0  0  0  0  0
  191.3290  177.3350  144.1550 C   0  0  0  0  0  2  0  0  0  0  0  0
  189.6540  177.3220  146.0400 N   0  0  0  0  0  2  0  0  0  0  0  0
  191.0050  177.1750  145.6020 C   0  0  0  0  0  0  0  0  0  0  0  0
  191.9210  176.8970  146.4240 O   0  0  0  0  0  0  0  0  0  0  0  0
  189.2650  177.1250  147.4250 C   0  0  0  0  0  1  0  0  0  0  0  0
  1 24  1  6  0  0  0
  1  3  1  0  0  0  0
  1 46  1  0  0  0  0
  2  3  2  0  0  0  0
  3  4  1  0  0  0  0
  4  7  1  0  0  0  0
  5  8  1  0  0  0  0
  6 11  1  0  0  0  0
  6  8  2  0  0  0  0
  7  5  2  0  0  0  0
  9 10  2  0  0  0  0
  9  7  1  0  0  0  0
 10  6  1  0  0  0  0
 12 11  1  0  0  0  0
 13 12  1  0  0  0  0
 14 13  1  0  0  0  0
 15 14  1  0  0  0  0
 16 21  1  6  0  0  0
 16 22  1  0  0  0  0
 16 17  1  0  0  0  0
 16 15  1  0  0  0  0
 17 18  1  0  0  0  0
 19 17  2  0  0  0  0
 21 20  1  0  0  0  0
 23 22  1  0  0  0  0
 25 24  1  0  0  0  0
 26 25  1  1  0  0  0
 27 28  2  0  0  0  0
 27 31  1  0  0  0  0
 28 30  1  0  0  0  0
 29 31  2  0  0  0  0
 29 40  1  0  0  0  0
 30 35  1  0  0  0  0
 31 34  1  0  0  0  0
 32 28  1  6  0  0  0
 32 34  1  0  0  0  0
 32 26  1  0  0  0  0
 34 33  2  0  0  0  0
 35 36  1  6  0  0  0
 35 26  1  0  0  0  0
 36 26  1  0  0  0  0
 37 38  1  0  0  0  0
 37 40  1  0  0  0  0
 38 41  1  0  0  0  0
 39 43  1  0  0  0  0
 40 39  1  0  0  0  0
 41 42  1  0  0  0  0
 41 43  1  0  0  0  0
 45 44  2  0  0  0  0
 45 29  1  0  0  0  0
 46 47  1  0  0  0  0
 47 48  1  0  0  0  0
 48 50  1  0  0  0  0
 49 52  1  0  0  0  0
 50 49  1  0  0  0  0
 50 51  2  0  0  0  0
M  END
>  <MODEL>
1

>  <REMARK>
 VINA RESULT:      -7.1      0.000      0.000
  Name = 
  20 active torsions:
  status: ('A' for Active; 'I' for Inactive)
    1  A    between atoms: C_1  and  C_49
    2  A    between atoms: C_3  and  N_4
    3  A    between atoms: C_3  and  C_35
    4  A    between atoms: N_4  and  C_19
    5  A    between atoms: C_12  and  C_47
    6  A    between atoms: C_14  and  C_23
    7  A    between atoms: C_14  and  C_52
    8  A    between atoms: C_15  and  C_20
    9  A    between atoms: C_15  and  C_31
   10  A    between atoms: C_16  and  C_23
   11  A    between atoms: C_18  and  C_24
   12  A    between atoms: C_21  and  C_47
   13  A    between atoms: C_22  and  N_36
   14  A    between atoms: C_24  and  C_42
   15  A    between atoms: C_24  and  C_52
   16  A    between atoms: C_27  and  C_47
   17  A    between atoms: C_28  and  C_33
   18  A    between atoms: C_28  and  C_47
   19  A    between atoms: C_33  and  C_35
   20  A    between atoms: C_42  and  C_49
                            x       y       z     vdW  Elec       q    Type
                         _______ _______ _______ _____ _____    ______ ____

>  <TORSDO>
F 20

$$$$
=
 OpenBabel10222418453D

 52 56  0  0  1  0  0  0  0  0999 V2000
  187.5850  178.4840  137.1470 C   0  0  2  0  0  3  0  0  0  0  0  0
  188.1630  177.4720  139.2230 O   0  0  0  0  0  0  0  0  0  0  0  0
  187.3370  178.1850  138.5940 C   0  0  0  0  0  0  0  0  0  0  0  0
  186.1660  178.7060  139.2420 N   0  0  0  0  0  2  0  0  0  0  0  0
  186.8300  178.6160  141.6320 C   0  0  0  0  0  3  0  0  0  0  0  0
  185.1240  178.4980  143.3510 C   0  0  0  0  0  0  0  0  0  0  0  0
  185.8420  178.6150  140.6350 C   0  0  0  0  0  0  0  0  0  0  0  0
  186.4720  178.5590  142.9820 C   0  0  0  0  0  3  0  0  0  0  0  0
  184.4950  178.5620  141.0070 C   0  0  0  0  0  3  0  0  0  0  0  0
  184.1360  178.5040  142.3560 C   0  0  0  0  0  3  0  0  0  0  0  0
  184.7800  178.4670  144.7400 N   0  0  0  0  0  2  0  0  0  0  0  0
  185.7260  178.7680  145.8070 C   0  0  0  0  0  2  0  0  0  0  0  0
  186.6390  177.5780  146.0610 C   0  0  0  0  0  2  0  0  0  0  0  0
  188.0840  178.0270  146.2110 C   0  0  0  0  0  2  0  0  0  0  0  0
  189.0490  176.8760  145.9130 C   0  0  0  0  0  2  0  0  0  0  0  0
  190.0480  177.1670  144.7850 C   0  0  1  0  0  0  0  0  0  0  0  0
  191.3630  176.5420  145.1940 C   0  0  0  0  0  0  0  0  0  0  0  0
  191.9110  176.8730  146.2800 O   0  0  0  0  0  1  0  0  0  0  0  0
  191.9520  175.5510  144.4190 O   0  0  0  0  0  0  0  0  0  0  0  0
  188.3280  175.8770  143.6660 F   0  0  0  0  0  0  0  0  0  0  0  0
  189.5270  176.5440  143.4800 C   0  0  0  0  0  2  0  0  0  0  0  0
  190.1880  178.6950  144.6420 C   0  0  0  0  0  2  0  0  0  0  0  0
  191.3810  179.1320  143.8020 C   0  0  0  0  0  1  0  0  0  0  0  0
  186.7300  177.6080  136.2400 C   0  0  0  0  0  2  0  0  0  0  0  0
  186.1040  176.4850  137.0480 C   0  0  0  0  0  2  0  0  0  0  0  0
  185.1470  175.6780  136.1870 C   0  0  2  0  0  0  0  0  0  0  0  0
  182.1390  174.5870  137.2020 N   0  0  0  0  0  0  0  0  0  0  0  0
  183.0610  174.6380  136.2940 C   0  0  0  0  0  0  0  0  0  0  0  0
  181.0130  176.2430  138.6160 C   0  0  0  0  0  0  0  0  0  0  0  0
  184.0100  173.5960  136.1710 N   0  0  0  0  0  2  0  0  0  0  0  0
  181.9580  175.9000  137.7170 C   0  0  0  0  0  0  0  0  0  0  0  0
  183.6520  175.9780  136.0550 C   0  0  1  0  0  3  0  0  0  0  0  0
  183.2260  177.9550  137.4230 O   0  0  0  0  0  0  0  0  0  0  0  0
  182.9860  176.7540  137.1310 C   0  0  0  0  0  0  0  0  0  0  0  0
  185.3490  174.1650  136.2750 C   0  0  1  0  0  3  0  0  0  0  0  0
  185.7480  174.9310  135.0160 C   0  0  0  0  0  2  0  0  0  0  0  0
  179.6510  178.3310  138.4940 C   0  0  0  0  0  2  0  0  0  0  0  0
  179.5300  179.7550  139.0340 C   0  0  0  0  0  2  0  0  0  0  0  0
  180.8990  177.7600  140.6050 C   0  0  0  0  0  2  0  0  0  0  0  0
  180.8990  177.6670  139.0770 C   0  0  0  0  0  3  0  0  0  0  0  0
  179.4520  179.7320  140.4950 N   0  0  0  0  0  0  0  0  0  0  0  0
  179.3530  181.1140  140.9260 C   0  0  0  0  0  1  0  0  0  0  0  0
  180.7150  179.2170  141.0220 C   0  0  0  0  0  2  0  0  0  0  0  0
  180.2140  174.6530  140.2360 O   0  0  0  0  0  0  0  0  0  0  0  0
  180.0390  175.2650  139.1500 C   0  0  0  0  0  3  0  0  0  0  0  0
  189.0700  178.4130  136.7920 C   0  0  0  0  0  2  0  0  0  0  0  0
  189.4720  177.0720  136.1860 C   0  0  0  0  0  2  0  0  0  0  0  0
  190.5500  176.4090  137.0240 C   0  0  0  0  0  2  0  0  0  0  0  0
  191.5310  174.1010  136.7560 N   0  0  0  0  0  2  0  0  0  0  0  0
  191.2990  175.4030  136.2160 C   0  0  0  0  0  0  0  0  0  0  0  0
  191.7060  175.7020  135.0600 O   0  0  0  0  0  0  0  0  0  0  0  0
  192.2050  173.0610  136.0000 C   0  0  0  0  0  1  0  0  0  0  0  0
  1 24  1  6  0  0  0
  1  3  1  0  0  0  0
  3  2  2  0  0  0  0
  3  4  1  0  0  0  0
  4  7  1  0  0  0  0
  5  8  1  0  0  0  0
  6 11  1  0  0  0  0
  7  9  1  0  0  0  0
  7  5  2  0  0  0  0
  8  6  2  0  0  0  0
  9 10  2  0  0  0  0
 10  6  1  0  0  0  0
 11 12  1  0  0  0  0
 12 13  1  0  0  0  0
 13 14  1  0  0  0  0
 15 14  1  0  0  0  0
 16 21  1  6  0  0  0
 16 17  1  0  0  0  0
 16 15  1  0  0  0  0
 17 18  1  0  0  0  0
 19 17  2  0  0  0  0
 21 20  1  0  0  0  0
 22 16  1  0  0  0  0
 23 22  1  0  0  0  0
 24 25  1  0  0  0  0
 26 35  1  0  0  0  0
 26 25  1  1  0  0  0
 27 31  1  0  0  0  0
 28 27  2  0  0  0  0
 29 40  1  0  0  0  0
 29 45  1  0  0  0  0
 30 35  1  0  0  0  0
 30 28  1  0  0  0  0
 31 29  2  0  0  0  0
 32 26  1  0  0  0  0
 32 28  1  1  0  0  0
 32 34  1  0  0  0  0
 34 33  2  0  0  0  0
 34 31  1  0  0  0  0
 35 36  1  6  0  0  0
 36 26  1  0  0  0  0
 37 38  1  0  0  0  0
 37 40  1  0  0  0  0
 38 41  1  0  0  0  0
 39 43  1  0  0  0  0
 40 39  1  0  0  0  0
 41 42  1  0  0  0  0
 41 43  1  0  0  0  0
 45 44  2  0  0  0  0
 46  1  1  0  0  0  0
 47 46  1  0  0  0  0
 47 48  1  0  0  0  0
 50 49  1  0  0  0  0
 50 48  1  0  0  0  0
 51 50  2  0  0  0  0
 52 49  1  0  0  0  0
M  END
>  <MODEL>
2

>  <REMARK>
 VINA RESULT:      -6.8      2.495      7.640
  Name = 
  20 active torsions:
  status: ('A' for Active; 'I' for Inactive)
    1  A    between atoms: C_1  and  C_49
    2  A    between atoms: C_3  and  N_4
    3  A    between atoms: C_3  and  C_35
    4  A    between atoms: N_4  and  C_19
    5  A    between atoms: C_12  and  C_47
    6  A    between atoms: C_14  and  C_23
    7  A    between atoms: C_14  and  C_52
    8  A    between atoms: C_15  and  C_20
    9  A    between atoms: C_15  and  C_31
   10  A    between atoms: C_16  and  C_23
   11  A    between atoms: C_18  and  C_24
   12  A    between atoms: C_21  and  C_47
   13  A    between atoms: C_22  and  N_36
   14  A    between atoms: C_24  and  C_42
   15  A    between atoms: C_24  and  C_52
   16  A    between atoms: C_27  and  C_47
   17  A    between atoms: C_28  and  C_33
   18  A    between atoms: C_28  and  C_47
   19  A    between atoms: C_33  and  C_35
   20  A    between atoms: C_42  and  C_49
                            x       y       z     vdW  Elec       q    Type
                         _______ _______ _______ _____ _____    ______ ____

>  <TORSDO>
F 20

$$$$
=
 OpenBabel10222418453D

 52 56  0  0  1  0  0  0  0  0999 V2000
  190.4180  177.3180  138.8420 C   0  0  2  0  0  3  0  0  0  0  0  0
  189.0330  177.6890  140.7420 O   0  0  0  0  0  0  0  0  0  0  0  0
  190.1960  177.4600  140.3170 C   0  0  0  0  0  0  0  0  0  0  0  0
  191.3040  177.3400  141.2220 N   0  0  0  0  0  2  0  0  0  0  0  0
  190.8850  178.4690  143.3920 C   0  0  0  0  0  3  0  0  0  0  0  0
  191.0980  177.2190  145.4590 C   0  0  0  0  0  0  0  0  0  0  0  0
  191.2470  177.3310  142.6540 C   0  0  0  0  0  0  0  0  0  0  0  0
  190.8100  178.4110  144.7870 C   0  0  0  0  0  3  0  0  0  0  0  0
  191.5270  176.1380  143.3280 C   0  0  0  0  0  3  0  0  0  0  0  0
  191.4530  176.0800  144.7210 C   0  0  0  0  0  3  0  0  0  0  0  0
  190.9880  177.1760  146.8860 N   0  0  0  0  0  2  0  0  0  0  0  0
  189.8050  176.6880  147.5830 C   0  0  0  0  0  2  0  0  0  0  0  0
  188.9980  177.8510  148.1410 C   0  0  0  0  0  2  0  0  0  0  0  0
  187.5810  177.8410  147.5870 C   0  0  0  0  0  2  0  0  0  0  0  0
  187.5060  178.6010  146.2600 C   0  0  0  0  0  2  0  0  0  0  0  0
  186.3220  178.2000  145.3710 C   0  0  1  0  0  0  0  0  0  0  0  0
  186.9000  177.4800  144.1730 C   0  0  0  0  0  0  0  0  0  0  0  0
  187.8000  176.6110  144.3290 O   0  0  0  0  0  1  0  0  0  0  0  0
  186.4070  177.7140  142.8950 O   0  0  0  0  0  0  0  0  0  0  0  0
  184.5610  177.9840  147.0220 F   0  0  0  0  0  0  0  0  0  0  0  0
  185.3870  177.2750  146.1670 C   0  0  0  0  0  2  0  0  0  0  0  0
  185.5820  179.4810  144.9370 C   0  0  0  0  0  2  0  0  0  0  0  0
  184.1460  179.2460  144.4890 C   0  0  0  0  0  1  0  0  0  0  0  0
  189.1720  177.6940  138.0500 C   0  0  0  0  0  2  0  0  0  0  0  0
  188.3960  176.4410  137.6830 C   0  0  0  0  0  2  0  0  0  0  0  0
  187.8850  176.5280  136.2550 C   0  0  2  0  0  0  0  0  0  0  0  0
  184.7170  175.9130  135.3300 N   0  0  0  0  0  0  0  0  0  0  0  0
  185.9380  176.2040  135.0100 C   0  0  0  0  0  0  0  0  0  0  0  0
  183.1190  176.7540  136.9870 C   0  0  0  0  0  0  0  0  0  0  0  0
  186.8370  175.1910  134.5990 N   0  0  0  0  0  2  0  0  0  0  0  0
  184.3520  176.7210  136.4420 C   0  0  0  0  0  0  0  0  0  0  0  0
  186.5920  177.2380  135.8490 C   0  0  1  0  0  3  0  0  0  0  0  0
  185.6500  178.1720  137.8990 O   0  0  0  0  0  0  0  0  0  0  0  0
  185.5420  177.4430  136.8780 C   0  0  0  0  0  0  0  0  0  0  0  0
  188.0120  175.2260  135.4640 C   0  0  1  0  0  3  0  0  0  0  0  0
  188.9180  176.4160  135.1540 C   0  0  0  0  0  2  0  0  0  0  0  0
  181.4950  178.3730  137.9740 C   0  0  0  0  0  2  0  0  0  0  0  0
  181.2110  179.2360  139.2020 C   0  0  0  0  0  2  0  0  0  0  0  0
  182.8780  176.8980  139.4760 C   0  0  0  0  0  2  0  0  0  0  0  0
  182.8380  177.6620  138.1500 C   0  0  0  0  0  3  0  0  0  0  0  0
  181.1860  178.4040  140.4060 N   0  0  0  0  0  0  0  0  0  0  0  0
  180.9240  179.2940  141.5200 C   0  0  0  0  0  1  0  0  0  0  0  0
  182.5220  177.8480  140.6160 C   0  0  0  0  0  2  0  0  0  0  0  0
  181.7080  174.8060  136.9020 O   0  0  0  0  0  0  0  0  0  0  0  0
  181.9980  175.9470  136.4550 C   0  0  0  0  0  3  0  0  0  0  0  0
  190.9480  175.9340  138.4700 C   0  0  0  0  0  2  0  0  0  0  0  0
  192.3040  175.9860  137.7730 C   0  0  0  0  0  2  0  0  0  0  0  0
  192.6430  174.6380  137.1640 C   0  0  0  0  0  2  0  0  0  0  0  0
  195.0600  175.0040  136.5410 N   0  0  0  0  0  2  0  0  0  0  0  0
  194.0910  174.3290  137.3440 C   0  0  0  0  0  0  0  0  0  0  0  0
  194.4510  173.4880  138.2130 O   0  0  0  0  0  0  0  0  0  0  0  0
  196.4860  174.7890  136.7050 C   0  0  0  0  0  1  0  0  0  0  0  0
  1 24  1  6  0  0  0
  1  3  1  0  0  0  0
  3  2  2  0  0  0  0
  3  4  1  0  0  0  0
  4  7  1  0  0  0  0
  5  8  1  0  0  0  0
  6 11  1  0  0  0  0
  7  9  1  0  0  0  0
  7  5  2  0  0  0  0
  8  6  2  0  0  0  0
  9 10  2  0  0  0  0
 10  6  1  0  0  0  0
 11 12  1  0  0  0  0
 12 13  1  0  0  0  0
 14 13  1  0  0  0  0
 15 14  1  0  0  0  0
 16 22  1  6  0  0  0
 16 21  1  0  0  0  0
 16 15  1  0  0  0  0
 17 18  1  0  0  0  0
 17 16  1  0  0  0  0
 19 17  2  0  0  0  0
 21 20  1  0  0  0  0
 23 22  1  0  0  0  0
 25 24  1  0  0  0  0
 26 25  1  1  0  0  0
 27 31  1  0  0  0  0
 28 27  2  0  0  0  0
 29 40  1  0  0  0  0
 30 28  1  0  0  0  0
 30 35  1  0  0  0  0
 31 34  1  0  0  0  0
 31 29  2  0  0  0  0
 32 28  1  6  0  0  0
 32 26  1  0  0  0  0
 32 34  1  0  0  0  0
 34 33  2  0  0  0  0
 35 36  1  6  0  0  0
 35 26  1  0  0  0  0
 36 26  1  0  0  0  0
 37 40  1  0  0  0  0
 37 38  1  0  0  0  0
 38 41  1  0  0  0  0
 39 43  1  0  0  0  0
 40 39  1  0  0  0  0
 41 43  1  0  0  0  0
 41 42  1  0  0  0  0
 45 44  2  0  0  0  0
 45 29  1  0  0  0  0
 46  1  1  0  0  0  0
 47 46  1  0  0  0  0
 48 50  1  0  0  0  0
 48 47  1  0  0  0  0
 49 52  1  0  0  0  0
 49 50  1  0  0  0  0
 50 51  2  0  0  0  0
M  END
>  <MODEL>
3

>  <REMARK>
 VINA RESULT:      -6.7      2.642      6.785
  Name = 
  20 active torsions:
  status: ('A' for Active; 'I' for Inactive)
    1  A    between atoms: C_1  and  C_49
    2  A    between atoms: C_3  and  N_4
    3  A    between atoms: C_3  and  C_35
    4  A    between atoms: N_4  and  C_19
    5  A    between atoms: C_12  and  C_47
    6  A    between atoms: C_14  and  C_23
    7  A    between atoms: C_14  and  C_52
    8  A    between atoms: C_15  and  C_20
    9  A    between atoms: C_15  and  C_31
   10  A    between atoms: C_16  and  C_23
   11  A    between atoms: C_18  and  C_24
   12  A    between atoms: C_21  and  C_47
   13  A    between atoms: C_22  and  N_36
   14  A    between atoms: C_24  and  C_42
   15  A    between atoms: C_24  and  C_52
   16  A    between atoms: C_27  and  C_47
   17  A    between atoms: C_28  and  C_33
   18  A    between atoms: C_28  and  C_47
   19  A    between atoms: C_33  and  C_35
   20  A    between atoms: C_42  and  C_49
                            x       y       z     vdW  Elec       q    Type
                         _______ _______ _______ _____ _____    ______ ____

>  <TORSDO>
F 20

$$$$
=
 OpenBabel10222418453D

 52 56  0  0  1  0  0  0  0  0999 V2000
  188.4390  178.4020  142.5570 C   0  0  2  0  0  3  0  0  0  0  0  0
  186.6780  177.2130  143.6300 O   0  0  0  0  0  0  0  0  0  0  0  0
  186.9900  178.1210  142.8150 C   0  0  0  0  0  0  0  0  0  0  0  0
  185.9810  178.8800  142.1320 N   0  0  0  0  0  2  0  0  0  0  0  0
  183.9930  179.0740  143.6050 C   0  0  0  0  0  3  0  0  0  0  0  0
  181.7750  178.7450  142.6820 C   0  0  0  0  0  0  0  0  0  0  0  0
  184.5650  178.8200  142.3490 C   0  0  0  0  0  0  0  0  0  0  0  0
  182.6040  179.0370  143.7690 C   0  0  0  0  0  3  0  0  0  0  0  0
  183.7330  178.5350  141.2620 C   0  0  0  0  0  3  0  0  0  0  0  0
  182.3460  178.4980  141.4250 C   0  0  0  0  0  3  0  0  0  0  0  0
  180.3550  178.7400  142.8670 N   0  0  0  0  0  2  0  0  0  0  0  0
  179.4120  179.1640  141.8390 C   0  0  0  0  0  2  0  0  0  0  0  0
  179.2740  180.6780  141.8350 C   0  0  0  0  0  2  0  0  0  0  0  0
  179.0140  181.1950  140.4290 C   0  0  0  0  0  2  0  0  0  0  0  0
  179.8410  180.4200  139.3990 C   0  0  0  0  0  2  0  0  0  0  0  0
  180.4070  181.2860  138.2650 C   0  0  1  0  0  0  0  0  0  0  0  0
  181.9090  181.3110  138.4430 C   0  0  0  0  0  0  0  0  0  0  0  0
  182.5640  180.2330  138.4520 O   0  0  0  0  0  0  0  0  0  0  0  0
  182.5960  182.5150  138.5330 O   0  0  0  0  0  1  0  0  0  0  0  0
  181.0560  180.7400  135.9950 F   0  0  0  0  0  0  0  0  0  0  0  0
  180.0260  180.6570  136.9160 C   0  0  0  0  0  2  0  0  0  0  0  0
  179.8160  182.7030  138.3930 C   0  0  0  0  0  2  0  0  0  0  0  0
  179.6950  183.4460  137.0690 C   0  0  0  0  0  1  0  0  0  0  0  0
  188.7390  178.4700  141.0660 C   0  0  0  0  0  2  0  0  0  0  0  0
  188.9480  177.0690  140.5170 C   0  0  0  0  0  2  0  0  0  0  0  0
  189.6010  177.1260  139.1460 C   0  0  2  0  0  0  0  0  0  0  0  0
  188.3560  175.6710  136.3890 N   0  0  0  0  0  0  0  0  0  0  0  0
  189.2990  176.3420  136.9680 C   0  0  0  0  0  0  0  0  0  0  0  0
  185.9120  175.8400  136.3100 C   0  0  0  0  0  0  0  0  0  0  0  0
  190.4520  175.6870  137.4620 N   0  0  0  0  0  2  0  0  0  0  0  0
  187.1110  176.2280  136.7900 C   0  0  0  0  0  0  0  0  0  0  0  0
  188.8500  177.4470  137.8520 C   0  0  1  0  0  3  0  0  0  0  0  0
  186.5310  177.8670  138.4910 O   0  0  0  0  0  0  0  0  0  0  0  0
  187.3810  177.2340  137.8120 C   0  0  0  0  0  0  0  0  0  0  0  0
  190.5980  175.9980  138.8810 C   0  0  1  0  0  3  0  0  0  0  0  0
  191.0840  177.4280  139.1090 C   0  0  0  0  0  2  0  0  0  0  0  0
  183.7280  176.8320  135.6180 C   0  0  0  0  0  2  0  0  0  0  0  0
  182.4380  177.4560  136.1460 C   0  0  0  0  0  2  0  0  0  0  0  0
  183.9370  175.6660  137.8410 C   0  0  0  0  0  2  0  0  0  0  0  0
  184.6580  176.5140  136.7890 C   0  0  0  0  0  3  0  0  0  0  0  0
  181.7800  176.5380  137.0770 N   0  0  0  0  0  0  0  0  0  0  0  0
  180.5780  177.2050  137.5390 C   0  0  0  0  0  1  0  0  0  0  0  0
  182.6400  176.3620  138.2460 C   0  0  0  0  0  2  0  0  0  0  0  0
  185.3260  173.6370  135.5390 O   0  0  0  0  0  0  0  0  0  0  0  0
  185.7770  174.7840  135.2820 C   0  0  0  0  0  3  0  0  0  0  0  0
  189.3540  177.4220  143.2910 C   0  0  0  0  0  2  0  0  0  0  0  0
  190.2220  178.0990  144.3470 C   0  0  0  0  0  2  0  0  0  0  0  0
  190.9470  177.0630  145.1870 C   0  0  0  0  0  2  0  0  0  0  0  0
  189.2800  177.8510  146.9070 N   0  0  0  0  0  2  0  0  0  0  0  0
  190.3230  176.9490  146.5360 C   0  0  0  0  0  0  0  0  0  0  0  0
  190.7090  176.0500  147.3330 O   0  0  0  0  0  0  0  0  0  0  0  0
  188.5950  177.7570  148.1830 C   0  0  0  0  0  1  0  0  0  0  0  0
  1 24  1  6  0  0  0
  1  3  1  0  0  0  0
  1 46  1  0  0  0  0
  3  2  2  0  0  0  0
  4  7  1  0  0  0  0
  4  3  1  0  0  0  0
  5  8  1  0  0  0  0
  6 11  1  0  0  0  0
  6  8  2  0  0  0  0
  7  5  2  0  0  0  0
  9 10  2  0  0  0  0
  9  7  1  0  0  0  0
 10  6  1  0  0  0  0
 12 11  1  0  0  0  0
 13 12  1  0  0  0  0
 14 13  1  0  0  0  0
 15 14  1  0  0  0  0
 16 21  1  6  0  0  0
 16 22  1  0  0  0  0
 16 17  1  0  0  0  0
 16 15  1  0  0  0  0
 17 18  2  0  0  0  0
 17 19  1  0  0  0  0
 20 21  1  0  0  0  0
 23 22  1  0  0  0  0
 25 24  1  0  0  0  0
 26 25  1  1  0  0  0
 27 31  1  0  0  0  0
 27 28  2  0  0  0  0
 28 30  1  0  0  0  0
 29 40  1  0  0  0  0
 29 31  2  0  0  0  0
 30 35  1  0  0  0  0
 31 34  1  0  0  0  0
 32 28  1  6  0  0  0
 32 26  1  0  0  0  0
 34 32  1  0  0  0  0
 34 33  2  0  0  0  0
 35 36  1  6  0  0  0
 35 26  1  0  0  0  0
 36 26  1  0  0  0  0
 37 38  1  0  0  0  0
 37 40  1  0  0  0  0
 38 41  1  0  0  0  0
 39 43  1  0  0  0  0
 40 39  1  0  0  0  0
 41 42  1  0  0  0  0
 41 43  1  0  0  0  0
 45 44  2  0  0  0  0
 45 29  1  0  0  0  0
 46 47  1  0  0  0  0
 47 48  1  0  0  0  0
 48 50  1  0  0  0  0
 49 52  1  0  0  0  0
 50 49  1  0  0  0  0
 50 51  2  0  0  0  0
M  END
>  <MODEL>
4

>  <REMARK>
 VINA RESULT:      -6.5      1.719      2.199
  Name = 
  20 active torsions:
  status: ('A' for Active; 'I' for Inactive)
    1  A    between atoms: C_1  and  C_49
    2  A    between atoms: C_3  and  N_4
    3  A    between atoms: C_3  and  C_35
    4  A    between atoms: N_4  and  C_19
    5  A    between atoms: C_12  and  C_47
    6  A    between atoms: C_14  and  C_23
    7  A    between atoms: C_14  and  C_52
    8  A    between atoms: C_15  and  C_20
    9  A    between atoms: C_15  and  C_31
   10  A    between atoms: C_16  and  C_23
   11  A    between atoms: C_18  and  C_24
   12  A    between atoms: C_21  and  C_47
   13  A    between atoms: C_22  and  N_36
   14  A    between atoms: C_24  and  C_42
   15  A    between atoms: C_24  and  C_52
   16  A    between atoms: C_27  and  C_47
   17  A    between atoms: C_28  and  C_33
   18  A    between atoms: C_28  and  C_47
   19  A    between atoms: C_33  and  C_35
   20  A    between atoms: C_42  and  C_49
                            x       y       z     vdW  Elec       q    Type
                         _______ _______ _______ _____ _____    ______ ____

>  <TORSDO>
F 20

$$$$
=
 OpenBabel10222418453D

 52 56  0  0  1  0  0  0  0  0999 V2000
  184.0450  178.4910  144.4490 C   0  0  2  0  0  3  0  0  0  0  0  0
  185.4580  179.7490  143.0040 O   0  0  0  0  0  0  0  0  0  0  0  0
  185.2270  178.6330  143.5400 C   0  0  0  0  0  0  0  0  0  0  0  0
  186.0750  177.5030  143.2860 N   0  0  0  0  0  2  0  0  0  0  0  0
  188.4050  176.7230  142.9350 C   0  0  0  0  0  3  0  0  0  0  0  0
  189.6510  177.4880  141.0010 C   0  0  0  0  0  0  0  0  0  0  0  0
  187.3010  177.4970  142.5440 C   0  0  0  0  0  0  0  0  0  0  0  0
  189.5730  176.7190  142.1660 C   0  0  0  0  0  3  0  0  0  0  0  0
  187.3800  178.2590  141.3740 C   0  0  0  0  0  3  0  0  0  0  0  0
  188.5460  178.2560  140.6060 C   0  0  0  0  0  3  0  0  0  0  0  0
  190.8470  177.4480  140.2150 N   0  0  0  0  0  2  0  0  0  0  0  0
  191.0260  176.5570  139.0750 C   0  0  0  0  0  2  0  0  0  0  0  0
  192.4400  176.6710  138.5270 C   0  0  0  0  0  2  0  0  0  0  0  0
  192.7120  175.5850  137.4980 C   0  0  0  0  0  2  0  0  0  0  0  0
  194.1150  175.7310  136.9030 C   0  0  0  0  0  2  0  0  0  0  0  0
  195.0070  174.4960  137.0820 C   0  0  1  0  0  0  0  0  0  0  0  0
  196.3210  174.8040  136.3990 C   0  0  0  0  0  0  0  0  0  0  0  0
  196.6020  175.9880  136.0710 O   0  0  0  0  0  0  0  0  0  0  0  0
  197.2630  173.8060  136.1830 O   0  0  0  0  0  1  0  0  0  0  0  0
  195.0390  172.9100  138.9140 F   0  0  0  0  0  0  0  0  0  0  0  0
  195.2160  174.2420  138.5830 C   0  0  0  0  0  2  0  0  0  0  0  0
  194.3120  173.2920  136.4170 C   0  0  0  0  0  2  0  0  0  0  0  0
  194.1200  173.4400  134.9130 C   0  0  0  0  0  1  0  0  0  0  0  0
  182.8010  179.1410  143.8560 C   0  0  0  0  0  2  0  0  0  0  0  0
  182.7100  178.8220  142.3730 C   0  0  0  0  0  2  0  0  0  0  0  0
  181.2650  178.5830  141.9670 C   0  0  2  0  0  0  0  0  0  0  0  0
  180.1750  178.4910  138.7940 N   0  0  0  0  0  0  0  0  0  0  0  0
  179.9220  178.4520  140.0640 C   0  0  0  0  0  0  0  0  0  0  0  0
  181.7930  177.3890  137.3200 C   0  0  0  0  0  0  0  0  0  0  0  0
  179.5090  179.6160  140.7530 N   0  0  0  0  0  2  0  0  0  0  0  0
  181.3030  177.6620  138.5460 C   0  0  0  0  0  0  0  0  0  0  0  0
  180.8330  177.6050  140.8730 C   0  0  1  0  0  3  0  0  0  0  0  0
  182.8780  176.5630  140.0380 O   0  0  0  0  0  0  0  0  0  0  0  0
  181.8220  177.2190  139.8350 C   0  0  0  0  0  0  0  0  0  0  0  0
  180.4250  179.8560  141.8630 C   0  0  1  0  0  3  0  0  0  0  0  0
  180.2070  178.8720  143.0110 C   0  0  0  0  0  2  0  0  0  0  0  0
  182.7350  175.4350  136.0840 C   0  0  0  0  0  2  0  0  0  0  0  0
  183.9830  174.5720  135.9150 C   0  0  0  0  0  2  0  0  0  0  0  0
  184.2570  177.2760  136.8820 C   0  0  0  0  0  2  0  0  0  0  0  0
  182.9800  176.4810  137.1720 C   0  0  0  0  0  3  0  0  0  0  0  0
  185.1280  175.4100  135.5580 N   0  0  0  0  0  0  0  0  0  0  0  0
  186.2680  174.5220  135.4290 C   0  0  0  0  0  1  0  0  0  0  0  0
  185.4170  176.3060  136.6760 C   0  0  0  0  0  2  0  0  0  0  0  0
  181.3240  179.1200  135.7150 O   0  0  0  0  0  0  0  0  0  0  0  0
  181.1780  177.9260  136.0860 C   0  0  0  0  0  3  0  0  0  0  0  0
  184.3430  178.9890  145.8620 C   0  0  0  0  0  2  0  0  0  0  0  0
  185.3070  178.0810  146.6200 C   0  0  0  0  0  2  0  0  0  0  0  0
  186.4740  178.8810  147.1700 C   0  0  0  0  0  2  0  0  0  0  0  0
  188.6260  177.8140  146.4030 N   0  0  0  0  0  2  0  0  0  0  0  0
  187.6450  177.9940  147.4250 C   0  0  0  0  0  0  0  0  0  0  0  0
  187.7700  177.4240  148.5440 O   0  0  0  0  0  0  0  0  0  0  0  0
  189.8170  177.0090  146.6080 C   0  0  0  0  0  1  0  0  0  0  0  0
  1 24  1  6  0  0  0
  1 46  1  0  0  0  0
  2  3  2  0  0  0  0
  3  1  1  0  0  0  0
  4  3  1  0  0  0  0
  6  8  1  0  0  0  0
  7  5  1  0  0  0  0
  7  4  1  0  0  0  0
  8  5  2  0  0  0  0
  9  7  2  0  0  0  0
 10  6  2  0  0  0  0
 10  9  1  0  0  0  0
 11  6  1  0  0  0  0
 12 11  1  0  0  0  0
 13 12  1  0  0  0  0
 14 13  1  0  0  0  0
 15 16  1  0  0  0  0
 15 14  1  0  0  0  0
 16 22  1  6  0  0  0
 16 21  1  0  0  0  0
 17 16  1  0  0  0  0
 18 17  2  0  0  0  0
 19 17  1  0  0  0  0
 21 20  1  0  0  0  0
 23 22  1  0  0  0  0
 25 24  1  0  0  0  0
 26 25  1  1  0  0  0
 26 36  1  0  0  0  0
 27 28  2  0  0  0  0
 28 30  1  0  0  0  0
 28 32  1  0  0  0  0
 29 31  2  0  0  0  0
 30 35  1  0  0  0  0
 31 27  1  0  0  0  0
 31 34  1  0  0  0  0
 32 34  1  6  0  0  0
 32 26  1  0  0  0  0
 34 33  2  0  0  0  0
 35 26  1  0  0  0  0
 35 36  1  1  0  0  0
 37 40  1  0  0  0  0
 38 37  1  0  0  0  0
 39 40  1  0  0  0  0
 40 29  1  0  0  0  0
 41 38  1  0  0  0  0
 41 43  1  0  0  0  0
 42 41  1  0  0  0  0
 43 39  1  0  0  0  0
 44 45  2  0  0  0  0
 45 29  1  0  0  0  0
 46 47  1  0  0  0  0
 47 48  1  0  0  0  0
 48 50  1  0  0  0  0
 49 52  1  0  0  0  0
 49 50  1  0  0  0  0
 50 51  2  0  0  0  0
M  END
>  <MODEL>
5

>  <REMARK>
 VINA RESULT:      -5.9      3.628      9.206
  Name = 
  20 active torsions:
  status: ('A' for Active; 'I' for Inactive)
    1  A    between atoms: C_1  and  C_49
    2  A    between atoms: C_3  and  N_4
    3  A    between atoms: C_3  and  C_35
    4  A    between atoms: N_4  and  C_19
    5  A    between atoms: C_12  and  C_47
    6  A    between atoms: C_14  and  C_23
    7  A    between atoms: C_14  and  C_52
    8  A    between atoms: C_15  and  C_20
    9  A    between atoms: C_15  and  C_31
   10  A    between atoms: C_16  and  C_23
   11  A    between atoms: C_18  and  C_24
   12  A    between atoms: C_21  and  C_47
   13  A    between atoms: C_22  and  N_36
   14  A    between atoms: C_24  and  C_42
   15  A    between atoms: C_24  and  C_52
   16  A    between atoms: C_27  and  C_47
   17  A    between atoms: C_28  and  C_33
   18  A    between atoms: C_28  and  C_47
   19  A    between atoms: C_33  and  C_35
   20  A    between atoms: C_42  and  C_49
                            x       y       z     vdW  Elec       q    Type
                         _______ _______ _______ _____ _____    ______ ____

>  <TORSDO>
F 20

$$$$
=
 OpenBabel10222418453D

 52 56  0  0  1  0  0  0  0  0999 V2000
  184.0540  178.4980  144.4670 C   0  0  2  0  0  3  0  0  0  0  0  0
  185.6230  179.5530  143.0200 O   0  0  0  0  0  0  0  0  0  0  0  0
  185.3500  178.5390  143.7150 C   0  0  0  0  0  0  0  0  0  0  0  0
  186.2550  177.4270  143.7880 N   0  0  0  0  0  2  0  0  0  0  0  0
  188.4750  176.3360  143.5800 C   0  0  0  0  0  3  0  0  0  0  0  0
  190.1220  177.2420  142.0490 C   0  0  0  0  0  0  0  0  0  0  0  0
  187.5740  177.3540  143.2310 C   0  0  0  0  0  0  0  0  0  0  0  0
  189.7420  176.2810  142.9900 C   0  0  0  0  0  3  0  0  0  0  0  0
  187.9550  178.3100  142.2840 C   0  0  0  0  0  3  0  0  0  0  0  0
  189.2200  178.2560  141.6950 C   0  0  0  0  0  3  0  0  0  0  0  0
  191.4140  177.1500  141.4380 N   0  0  0  0  0  2  0  0  0  0  0  0
  191.6600  177.4650  140.0360 C   0  0  0  0  0  2  0  0  0  0  0  0
  190.9150  176.4940  139.1330 C   0  0  0  0  0  2  0  0  0  0  0  0
  189.8710  177.2220  138.3000 C   0  0  0  0  0  2  0  0  0  0  0  0
  188.6490  176.3330  138.0530 C   0  0  0  0  0  2  0  0  0  0  0  0
  187.6430  176.9090  137.0490 C   0  0  1  0  0  0  0  0  0  0  0  0
  187.2060  178.2530  137.5900 C   0  0  0  0  0  0  0  0  0  0  0  0
  186.6630  178.3330  138.7250 O   0  0  0  0  0  1  0  0  0  0  0  0
  187.4550  179.4210  136.8800 O   0  0  0  0  0  0  0  0  0  0  0  0
  189.1490  175.9890  135.3880 F   0  0  0  0  0  0  0  0  0  0  0  0
  188.3300  177.0660  135.6830 C   0  0  0  0  0  2  0  0  0  0  0  0
  186.4460  175.9430  136.9500 C   0  0  0  0  0  2  0  0  0  0  0  0
  186.3000  175.2740  135.5890 C   0  0  0  0  0  1  0  0  0  0  0  0
  182.9830  179.3380  143.7840 C   0  0  0  0  0  2  0  0  0  0  0  0
  182.3680  178.5560  142.6370 C   0  0  0  0  0  2  0  0  0  0  0  0
  180.8520  178.6630  142.6710 C   0  0  2  0  0  0  0  0  0  0  0  0
  178.9310  179.2700  139.9860 N   0  0  0  0  0  0  0  0  0  0  0  0
  179.0390  179.0860  141.2640 C   0  0  0  0  0  0  0  0  0  0  0  0
  179.7790  178.1170  137.9960 C   0  0  0  0  0  0  0  0  0  0  0  0
  179.1120  180.1890  142.1470 N   0  0  0  0  0  2  0  0  0  0  0  0
  179.7240  178.2880  139.3330 C   0  0  0  0  0  0  0  0  0  0  0  0
  179.9210  177.9670  141.6770 C   0  0  1  0  0  3  0  0  0  0  0  0
  181.3570  176.6910  140.1690 O   0  0  0  0  0  0  0  0  0  0  0  0
  180.4660  177.5610  140.3570 C   0  0  0  0  0  0  0  0  0  0  0  0
  180.3310  180.0750  142.9420 C   0  0  1  0  0  3  0  0  0  0  0  0
  180.2220  178.9870  144.0080 C   0  0  0  0  0  2  0  0  0  0  0  0
  179.8980  176.2930  136.2960 C   0  0  0  0  0  2  0  0  0  0  0  0
  180.8200  175.2420  135.6820 C   0  0  0  0  0  2  0  0  0  0  0  0
  181.9700  177.5880  136.9060 C   0  0  0  0  0  2  0  0  0  0  0  0
  180.6370  177.0320  137.4130 C   0  0  0  0  0  3  0  0  0  0  0  0
  182.0260  175.8810  135.1520 N   0  0  0  0  0  0  0  0  0  0  0  0
  182.8490  174.8200  134.6020 C   0  0  0  0  0  1  0  0  0  0  0  0
  182.7750  176.4610  136.2650 C   0  0  0  0  0  2  0  0  0  0  0  0
  179.4840  179.8830  136.3880 O   0  0  0  0  0  0  0  0  0  0  0  0
  178.9840  178.9460  137.0620 C   0  0  0  0  0  3  0  0  0  0  0  0
  184.2330  178.8670  145.9390 C   0  0  0  0  0  2  0  0  0  0  0  0
  185.2880  178.0170  146.6400 C   0  0  0  0  0  2  0  0  0  0  0  0
  186.3930  178.8930  147.2010 C   0  0  0  0  0  2  0  0  0  0  0  0
  188.6500  177.8780  146.7160 N   0  0  0  0  0  2  0  0  0  0  0  0
  187.5600  178.0650  147.6190 C   0  0  0  0  0  0  0  0  0  0  0  0
  187.5840  177.5490  148.7710 O   0  0  0  0  0  0  0  0  0  0  0  0
  189.8390  177.1290  147.0830 C   0  0  0  0  0  1  0  0  0  0  0  0
  1 24  1  6  0  0  0
  1 46  1  0  0  0  0
  2  3  2  0  0  0  0
  3  4  1  0  0  0  0
  3  1  1  0  0  0  0
  6  8  1  0  0  0  0
  7  5  1  0  0  0  0
  7  4  1  0  0  0  0
  8  5  2  0  0  0  0
  9  7  2  0  0  0  0
 10  6  2  0  0  0  0
 10  9  1  0  0  0  0
 11  6  1  0  0  0  0
 12 11  1  0  0  0  0
 13 12  1  0  0  0  0
 14 13  1  0  0  0  0
 15 14  1  0  0  0  0
 16 21  1  6  0  0  0
 16 17  1  0  0  0  0
 16 15  1  0  0  0  0
 17 18  1  0  0  0  0
 19 17  2  0  0  0  0
 20 21  1  0  0  0  0
 22 16  1  0  0  0  0
 23 22  1  0  0  0  0
 25 24  1  0  0  0  0
 26 25  1  6  0  0  0
 26 35  1  0  0  0  0
 26 36  1  0  0  0  0
 27 28  2  0  0  0  0
 28 32  1  0  0  0  0
 28 30  1  0  0  0  0
 29 31  2  0  0  0  0
 30 35  1  0  0  0  0
 31 27  1  0  0  0  0
 31 34  1  0  0  0  0
 32 34  1  6  0  0  0
 32 26  1  0  0  0  0
 33 34  2  0  0  0  0
 35 36  1  1  0  0  0
 37 40  1  0  0  0  0
 38 37  1  0  0  0  0
 39 40  1  0  0  0  0
 40 29  1  0  0  0  0
 41 38  1  0  0  0  0
 41 43  1  0  0  0  0
 42 41  1  0  0  0  0
 43 39  1  0  0  0  0
 44 45  2  0  0  0  0
 45 29  1  0  0  0  0
 46 47  1  0  0  0  0
 47 48  1  0  0  0  0
 48 50  1  0  0  0  0
 49 52  1  0  0  0  0
 49 50  1  0  0  0  0
 50 51  2  0  0  0  0
M  END
>  <MODEL>
6

>  <REMARK>
 VINA RESULT:      -5.8      2.825      7.922
  Name = 
  20 active torsions:
  status: ('A' for Active; 'I' for Inactive)
    1  A    between atoms: C_1  and  C_49
    2  A    between atoms: C_3  and  N_4
    3  A    between atoms: C_3  and  C_35
    4  A    between atoms: N_4  and  C_19
    5  A    between atoms: C_12  and  C_47
    6  A    between atoms: C_14  and  C_23
    7  A    between atoms: C_14  and  C_52
    8  A    between atoms: C_15  and  C_20
    9  A    between atoms: C_15  and  C_31
   10  A    between atoms: C_16  and  C_23
   11  A    between atoms: C_18  and  C_24
   12  A    between atoms: C_21  and  C_47
   13  A    between atoms: C_22  and  N_36
   14  A    between atoms: C_24  and  C_42
   15  A    between atoms: C_24  and  C_52
   16  A    between atoms: C_27  and  C_47
   17  A    between atoms: C_28  and  C_33
   18  A    between atoms: C_28  and  C_47
   19  A    between atoms: C_33  and  C_35
   20  A    between atoms: C_42  and  C_49
                            x       y       z     vdW  Elec       q    Type
                         _______ _______ _______ _____ _____    ______ ____

>  <TORSDO>
F 20

$$$$
=
 OpenBabel10222418453D

 52 56  0  0  1  0  0  0  0  0999 V2000
  183.3330  178.0760  138.2740 C   0  0  2  0  0  3  0  0  0  0  0  0
  185.3950  177.1450  137.5340 O   0  0  0  0  0  0  0  0  0  0  0  0
  184.1520  176.9840  137.6550 C   0  0  0  0  0  0  0  0  0  0  0  0
  183.5140  175.7790  137.2050 N   0  0  0  0  0  2  0  0  0  0  0  0
  184.4090  174.4130  135.3350 C   0  0  0  0  0  3  0  0  0  0  0  0
  185.4850  172.2920  135.8030 C   0  0  0  0  0  0  0  0  0  0  0  0
  184.1590  174.6010  136.7040 C   0  0  0  0  0  0  0  0  0  0  0  0
  185.0690  173.2650  134.8890 C   0  0  0  0  0  3  0  0  0  0  0  0
  184.5830  173.6300  137.6170 C   0  0  0  0  0  3  0  0  0  0  0  0
  185.2420  172.4820  137.1710 C   0  0  0  0  0  3  0  0  0  0  0  0
  186.1840  171.1370  135.3270 N   0  0  0  0  0  2  0  0  0  0  0  0
  187.5930  170.8830  135.6010 C   0  0  0  0  0  2  0  0  0  0  0  0
  188.4700  171.8450  134.8130 C   0  0  0  0  0  2  0  0  0  0  0  0
  189.0330  172.9300  135.7180 C   0  0  0  0  0  2  0  0  0  0  0  0
  189.8410  173.9510  134.9130 C   0  0  0  0  0  2  0  0  0  0  0  0
  190.1640  175.2420  135.6750 C   0  0  1  0  0  0  0  0  0  0  0  0
  189.1580  176.2780  135.2250 C   0  0  0  0  0  0  0  0  0  0  0  0
  189.5410  177.3010  134.5940 O   0  0  0  0  0  0  0  0  0  0  0  0
  187.7980  176.0900  135.4370 O   0  0  0  0  0  1  0  0  0  0  0  0
  190.6950  173.8190  137.5630 F   0  0  0  0  0  0  0  0  0  0  0  0
  190.0400  174.9780  137.1840 C   0  0  0  0  0  2  0  0  0  0  0  0
  191.5980  175.6760  135.3130 C   0  0  0  0  0  2  0  0  0  0  0  0
  192.5090  174.5250  134.9060 C   0  0  0  0  0  1  0  0  0  0  0  0
  183.9260  178.5390  139.5980 C   0  0  0  0  0  2  0  0  0  0  0  0
  183.3000  177.7640  140.7430 C   0  0  0  0  0  2  0  0  0  0  0  0
  182.9190  178.7010  141.8770 C   0  0  2  0  0  0  0  0  0  0  0  0
  184.1340  178.4980  145.0000 N   0  0  0  0  0  0  0  0  0  0  0  0
  183.3350  179.0550  144.1460 C   0  0  0  0  0  0  0  0  0  0  0  0
  186.5070  177.8860  145.0010 C   0  0  0  0  0  0  0  0  0  0  0  0
  181.9820  178.6550  144.0560 N   0  0  0  0  0  2  0  0  0  0  0  0
  185.4030  178.3460  144.3780 C   0  0  0  0  0  0  0  0  0  0  0  0
  183.9270  179.3610  142.8200 C   0  0  1  0  0  3  0  0  0  0  0  0
  186.1370  178.6340  142.0770 O   0  0  0  0  0  0  0  0  0  0  0  0
  185.2640  178.7350  142.9790 C   0  0  0  0  0  0  0  0  0  0  0  0
  181.7020  178.2470  142.6830 C   0  0  1  0  0  3  0  0  0  0  0  0
  181.6060  179.4420  141.7370 C   0  0  0  0  0  2  0  0  0  0  0  0
  188.9870  178.1260  145.1610 C   0  0  0  0  0  2  0  0  0  0  0  0
  190.2920  177.9510  144.3870 C   0  0  0  0  0  2  0  0  0  0  0  0
  187.9820  176.3990  143.6280 C   0  0  0  0  0  2  0  0  0  0  0  0
  187.8050  177.7850  144.2520 C   0  0  0  0  0  3  0  0  0  0  0  0
  190.4080  176.5750  143.9040 N   0  0  0  0  0  0  0  0  0  0  0  0
  191.6600  176.4960  143.1750 C   0  0  0  0  0  1  0  0  0  0  0  0
  189.3410  176.3280  142.9360 C   0  0  0  0  0  2  0  0  0  0  0  0
  186.1110  178.2740  147.3430 O   0  0  0  0  0  0  0  0  0  0  0  0
  186.5050  177.5020  146.4310 C   0  0  0  0  0  3  0  0  0  0  0  0
  181.8600  177.6890  138.4000 C   0  0  0  0  0  2  0  0  0  0  0  0
  180.9170  178.7650  137.8700 C   0  0  0  0  0  2  0  0  0  0  0  0
  181.6020  180.1190  137.8630 C   0  0  0  0  0  2  0  0  0  0  0  0
  180.1440  182.1690  138.0520 N   0  0  0  0  0  2  0  0  0  0  0  0
  180.7230  181.1490  137.2370 C   0  0  0  0  0  0  0  0  0  0  0  0
  180.5120  181.1230  135.9930 O   0  0  0  0  0  0  0  0  0  0  0  0
  179.3250  183.2310  137.4950 C   0  0  0  0  0  1  0  0  0  0  0  0
  1 46  1  1  0  0  0
  1 24  1  0  0  0  0
  2  3  2  0  0  0  0
  3  1  1  0  0  0  0
  4  3  1  0  0  0  0
  5  7  1  0  0  0  0
  6 10  2  0  0  0  0
  7  4  1  0  0  0  0
  7  9  2  0  0  0  0
  8  5  2  0  0  0  0
  8  6  1  0  0  0  0
 10  9  1  0  0  0  0
 11 12  1  0  0  0  0
 11  6  1  0  0  0  0
 13 12  1  0  0  0  0
 13 14  1  0  0  0  0
 15 14  1  0  0  0  0
 16 15  1  6  0  0  0
 16 21  1  0  0  0  0
 17 19  1  0  0  0  0
 17 16  1  0  0  0  0
 18 17  2  0  0  0  0
 21 20  1  0  0  0  0
 22 16  1  0  0  0  0
 23 22  1  0  0  0  0
 24 25  1  0  0  0  0
 26 25  1  6  0  0  0
 26 35  1  0  0  0  0
 26 32  1  0  0  0  0
 28 27  2  0  0  0  0
 29 45  1  0  0  0  0
 30 28  1  0  0  0  0
 31 27  1  0  0  0  0
 31 29  2  0  0  0  0
 32 34  1  1  0  0  0
 32 28  1  0  0  0  0
 33 34  2  0  0  0  0
 34 31  1  0  0  0  0
 35 36  1  6  0  0  0
 35 30  1  0  0  0  0
 36 26  1  0  0  0  0
 38 37  1  0  0  0  0
 39 40  1  0  0  0  0
 40 29  1  0  0  0  0
 40 37  1  0  0  0  0
 41 38  1  0  0  0  0
 42 41  1  0  0  0  0
 43 39  1  0  0  0  0
 43 41  1  0  0  0  0
 45 44  2  0  0  0  0
 47 46  1  0  0  0  0
 48 47  1  0  0  0  0
 50 48  1  0  0  0  0
 50 49  1  0  0  0  0
 51 50  2  0  0  0  0
 52 49  1  0  0  0  0
M  END
>  <MODEL>
7

>  <REMARK>
 VINA RESULT:      -5.5      2.800     10.444
  Name = 
  20 active torsions:
  status: ('A' for Active; 'I' for Inactive)
    1  A    between atoms: C_1  and  C_49
    2  A    between atoms: C_3  and  N_4
    3  A    between atoms: C_3  and  C_35
    4  A    between atoms: N_4  and  C_19
    5  A    between atoms: C_12  and  C_47
    6  A    between atoms: C_14  and  C_23
    7  A    between atoms: C_14  and  C_52
    8  A    between atoms: C_15  and  C_20
    9  A    between atoms: C_15  and  C_31
   10  A    between atoms: C_16  and  C_23
   11  A    between atoms: C_18  and  C_24
   12  A    between atoms: C_21  and  C_47
   13  A    between atoms: C_22  and  N_36
   14  A    between atoms: C_24  and  C_42
   15  A    between atoms: C_24  and  C_52
   16  A    between atoms: C_27  and  C_47
   17  A    between atoms: C_28  and  C_33
   18  A    between atoms: C_28  and  C_47
   19  A    between atoms: C_33  and  C_35
   20  A    between atoms: C_42  and  C_49
                            x       y       z     vdW  Elec       q    Type
                         _______ _______ _______ _____ _____    ______ ____

>  <TORSDO>
F 20

$$$$
=
 OpenBabel10222418453D

 52 56  0  0  1  0  0  0  0  0999 V2000
  180.9330  179.4150  140.6060 C   0  0  2  0  0  3  0  0  0  0  0  0
  180.8760  179.2110  142.9770 O   0  0  0  0  0  0  0  0  0  0  0  0
  181.5910  179.2360  141.9400 C   0  0  0  0  0  0  0  0  0  0  0  0
  183.0180  179.1030  142.0230 N   0  0  0  0  0  2  0  0  0  0  0  0
  185.0890  178.2880  143.1220 C   0  0  0  0  0  3  0  0  0  0  0  0
  185.2600  178.3190  145.5400 C   0  0  0  0  0  0  0  0  0  0  0  0
  183.7880  178.8090  143.1960 C   0  0  0  0  0  0  0  0  0  0  0  0
  185.8200  178.0460  144.2890 C   0  0  0  0  0  3  0  0  0  0  0  0
  183.2330  179.0890  144.4480 C   0  0  0  0  0  3  0  0  0  0  0  0
  183.9620  178.8470  145.6140 C   0  0  0  0  0  3  0  0  0  0  0  0
  186.0360  178.0890  146.7200 N   0  0  0  0  0  2  0  0  0  0  0  0
  187.1460  177.1450  146.7770 C   0  0  0  0  0  2  0  0  0  0  0  0
  188.3540  177.7820  147.4460 C   0  0  0  0  0  2  0  0  0  0  0  0
  189.4850  177.9760  146.4490 C   0  0  0  0  0  2  0  0  0  0  0  0
  189.1640  177.2960  145.1150 C   0  0  0  0  0  2  0  0  0  0  0  0
  190.3920  177.0140  144.2390 C   0  0  1  0  0  0  0  0  0  0  0  0
  190.9900  178.3550  143.8800 C   0  0  0  0  0  0  0  0  0  0  0  0
  190.2410  179.3170  143.5570 O   0  0  0  0  0  0  0  0  0  0  0  0
  192.3600  178.5700  143.9620 O   0  0  0  0  0  1  0  0  0  0  0  0
  192.2570  175.4660  144.2130 F   0  0  0  0  0  0  0  0  0  0  0  0
  191.3930  176.1640  145.0390 C   0  0  0  0  0  2  0  0  0  0  0  0
  189.9260  176.2630  142.9760 C   0  0  0  0  0  2  0  0  0  0  0  0
  190.3210  176.9430  141.6710 C   0  0  0  0  0  1  0  0  0  0  0  0
  179.9160  178.3150  140.3300 C   0  0  0  0  0  2  0  0  0  0  0  0
  180.4860  176.9700  140.7480 C   0  0  0  0  0  2  0  0  0  0  0  0
  180.2010  175.9180  139.6880 C   0  0  2  0  0  0  0  0  0  0  0  0
  181.5110  175.9320  136.5980 N   0  0  0  0  0  0  0  0  0  0  0  0
  180.7180  175.4000  137.4720 C   0  0  0  0  0  0  0  0  0  0  0  0
  183.8420  176.6900  136.6140 C   0  0  0  0  0  0  0  0  0  0  0  0
  179.3400  175.7220  137.4870 N   0  0  0  0  0  2  0  0  0  0  0  0
  182.7470  176.2150  137.2420 C   0  0  0  0  0  0  0  0  0  0  0  0
  181.2800  175.2460  138.8370 C   0  0  1  0  0  3  0  0  0  0  0  0
  183.4150  176.1690  139.5800 O   0  0  0  0  0  0  0  0  0  0  0  0
  182.5820  175.9380  138.6640 C   0  0  0  0  0  0  0  0  0  0  0  0
  178.9880  176.2260  138.8100 C   0  0  1  0  0  3  0  0  0  0  0  0
  178.9310  175.1120  139.8530 C   0  0  0  0  0  2  0  0  0  0  0  0
  186.3360  176.5960  136.5480 C   0  0  0  0  0  2  0  0  0  0  0  0
  187.6000  176.9160  137.3430 C   0  0  0  0  0  2  0  0  0  0  0  0
  185.1750  178.3750  137.9010 C   0  0  0  0  0  2  0  0  0  0  0  0
  185.1040  176.9340  137.3900 C   0  0  0  0  0  3  0  0  0  0  0  0
  187.6160  178.3320  137.7120 N   0  0  0  0  0  0  0  0  0  0  0  0
  188.8340  178.5500  138.4690 C   0  0  0  0  0  1  0  0  0  0  0  0
  186.5020  178.5890  138.6240 C   0  0  0  0  0  2  0  0  0  0  0  0
  184.5890  177.8400  134.6360 O   0  0  0  0  0  0  0  0  0  0  0  0
  183.8670  176.9500  135.1570 C   0  0  0  0  0  3  0  0  0  0  0  0
  181.9530  179.5600  139.4770 C   0  0  0  0  0  2  0  0  0  0  0  0
  181.4460  180.4270  138.3280 C   0  0  0  0  0  2  0  0  0  0  0  0
  181.0690  179.5670  137.1360 C   0  0  0  0  0  2  0  0  0  0  0  0
  180.4190  181.7800  136.1160 N   0  0  0  0  0  2  0  0  0  0  0  0
  180.8010  180.4150  135.9390 C   0  0  0  0  0  0  0  0  0  0  0  0
  180.9300  179.9280  134.7820 O   0  0  0  0  0  0  0  0  0  0  0  0
  180.1990  182.6720  134.9920 C   0  0  0  0  0  1  0  0  0  0  0  0
  1 46  1  6  0  0  0
  1  3  1  0  0  0  0
  3  4  1  0  0  0  0
  3  2  2  0  0  0  0
  4  7  1  0  0  0  0
  5  7  2  0  0  0  0
  5  8  1  0  0  0  0
  6 10  1  0  0  0  0
  6 11  1  0  0  0  0
  7  9  1  0  0  0  0
  8  6  2  0  0  0  0
  9 10  2  0  0  0  0
 11 12  1  0  0  0  0
 12 13  1  0  0  0  0
 14 13  1  0  0  0  0
 15 14  1  0  0  0  0
 16 22  1  6  0  0  0
 16 21  1  0  0  0  0
 16 15  1  0  0  0  0
 17 19  1  0  0  0  0
 17 16  1  0  0  0  0
 18 17  2  0  0  0  0
 20 21  1  0  0  0  0
 23 22  1  0  0  0  0
 24  1  1  0  0  0  0
 24 25  1  0  0  0  0
 26 36  1  0  0  0  0
 26 25  1  1  0  0  0
 27 31  1  0  0  0  0
 27 28  2  0  0  0  0
 28 30  1  0  0  0  0
 29 31  2  0  0  0  0
 29 40  1  0  0  0  0
 30 35  1  0  0  0  0
 31 34  1  0  0  0  0
 32 28  1  6  0  0  0
 32 26  1  0  0  0  0
 34 32  1  0  0  0  0
 34 33  2  0  0  0  0
 35 26  1  0  0  0  0
 35 36  1  1  0  0  0
 37 38  1  0  0  0  0
 37 40  1  0  0  0  0
 38 41  1  0  0  0  0
 39 43  1  0  0  0  0
 40 39  1  0  0  0  0
 41 42  1  0  0  0  0
 41 43  1  0  0  0  0
 44 45  2  0  0  0  0
 45 29  1  0  0  0  0
 47 46  1  0  0  0  0
 48 47  1  0  0  0  0
 50 49  1  0  0  0  0
 50 48  1  0  0  0  0
 51 50  2  0  0  0  0
 52 49  1  0  0  0  0
M  END
>  <MODEL>
8

>  <REMARK>
 VINA RESULT:      -5.5      3.260      9.196
  Name = 
  20 active torsions:
  status: ('A' for Active; 'I' for Inactive)
    1  A    between atoms: C_1  and  C_49
    2  A    between atoms: C_3  and  N_4
    3  A    between atoms: C_3  and  C_35
    4  A    between atoms: N_4  and  C_19
    5  A    between atoms: C_12  and  C_47
    6  A    between atoms: C_14  and  C_23
    7  A    between atoms: C_14  and  C_52
    8  A    between atoms: C_15  and  C_20
    9  A    between atoms: C_15  and  C_31
   10  A    between atoms: C_16  and  C_23
   11  A    between atoms: C_18  and  C_24
   12  A    between atoms: C_21  and  C_47
   13  A    between atoms: C_22  and  N_36
   14  A    between atoms: C_24  and  C_42
   15  A    between atoms: C_24  and  C_52
   16  A    between atoms: C_27  and  C_47
   17  A    between atoms: C_28  and  C_33
   18  A    between atoms: C_28  and  C_47
   19  A    between atoms: C_33  and  C_35
   20  A    between atoms: C_42  and  C_49
                            x       y       z     vdW  Elec       q    Type
                         _______ _______ _______ _____ _____    ______ ____

>  <TORSDO>
F 20

$$$$
=
 OpenBabel10222418453D

 52 56  0  0  1  0  0  0  0  0999 V2000
  188.3890  177.5100  136.3830 C   0  0  2  0  0  3  0  0  0  0  0  0
  186.8220  179.0990  137.2120 O   0  0  0  0  0  0  0  0  0  0  0  0
  187.6360  178.1790  137.4920 C   0  0  0  0  0  0  0  0  0  0  0  0
  187.8520  177.7730  138.8520 N   0  0  0  0  0  2  0  0  0  0  0  0
  187.7560  178.3730  141.2580 C   0  0  0  0  0  3  0  0  0  0  0  0
  185.6770  179.1720  142.2170 C   0  0  0  0  0  0  0  0  0  0  0  0
  187.1350  178.2230  140.0080 C   0  0  0  0  0  0  0  0  0  0  0  0
  187.0300  178.8460  142.3560 C   0  0  0  0  0  3  0  0  0  0  0  0
  185.7850  178.5570  139.8710 C   0  0  0  0  0  3  0  0  0  0  0  0
  185.0580  179.0290  140.9660 C   0  0  0  0  0  3  0  0  0  0  0  0
  184.9600  179.6800  143.3470 N   0  0  0  0  0  2  0  0  0  0  0  0
  184.0340  178.8760  144.1350 C   0  0  0  0  0  2  0  0  0  0  0  0
  184.4210  178.9060  145.6060 C   0  0  0  0  0  2  0  0  0  0  0  0
  185.9040  179.2000  145.7700 C   0  0  0  0  0  2  0  0  0  0  0  0
  186.5520  178.2180  146.7500 C   0  0  0  0  0  2  0  0  0  0  0  0
  187.9450  177.7330  146.3270 C   0  0  1  0  0  0  0  0  0  0  0  0
  188.5690  177.0830  147.5430 C   0  0  0  0  0  0  0  0  0  0  0  0
  189.5850  176.3470  147.4160 O   0  0  0  0  0  0  0  0  0  0  0  0
  188.0790  177.3380  148.8170 O   0  0  0  0  0  1  0  0  0  0  0  0
  186.4910  176.6370  144.7280 F   0  0  0  0  0  0  0  0  0  0  0  0
  187.7970  176.7200  145.1810 C   0  0  0  0  0  2  0  0  0  0  0  0
  188.7690  178.9540  145.8740 C   0  0  0  0  0  2  0  0  0  0  0  0
  189.9100  178.6130  144.9240 C   0  0  0  0  0  1  0  0  0  0  0  0
  187.7360  176.1960  135.9750 C   0  0  0  0  0  2  0  0  0  0  0  0
  186.8850  175.6670  137.1170 C   0  0  0  0  0  2  0  0  0  0  0  0
  185.9300  174.5960  136.6180 C   0  0  2  0  0  0  0  0  0  0  0  0
  182.7230  174.3180  137.5690 N   0  0  0  0  0  0  0  0  0  0  0  0
  183.7320  173.8620  136.8980 C   0  0  0  0  0  0  0  0  0  0  0  0
  181.6690  176.5160  137.8250 C   0  0  0  0  0  0  0  0  0  0  0  0
  184.5550  172.8440  137.4350 N   0  0  0  0  0  2  0  0  0  0  0  0
  182.6520  175.7220  137.3550 C   0  0  0  0  0  0  0  0  0  0  0  0
  184.5050  174.8740  136.1360 C   0  0  1  0  0  3  0  0  0  0  0  0
  184.1850  177.2890  136.3020 O   0  0  0  0  0  0  0  0  0  0  0  0
  183.8320  176.1160  136.5920 C   0  0  0  0  0  0  0  0  0  0  0  0
  185.9360  173.3140  137.4530 C   0  0  1  0  0  3  0  0  0  0  0  0
  186.5530  173.3360  136.0560 C   0  0  0  0  0  2  0  0  0  0  0  0
  180.3010  178.4630  137.0700 C   0  0  0  0  0  2  0  0  0  0  0  0
  180.3350  179.9720  136.8320 C   0  0  0  0  0  2  0  0  0  0  0  0
  182.1720  178.8000  138.7220 C   0  0  0  0  0  2  0  0  0  0  0  0
  181.6830  177.9860  137.5210 C   0  0  0  0  0  3  0  0  0  0  0  0
  180.7310  180.6640  138.0590 N   0  0  0  0  0  0  0  0  0  0  0  0
  180.7500  182.0810  137.7470 C   0  0  0  0  0  1  0  0  0  0  0  0
  182.1050  180.2870  138.3850 C   0  0  0  0  0  2  0  0  0  0  0  0
  180.6250  175.6980  139.8330 O   0  0  0  0  0  0  0  0  0  0  0  0
  180.5330  175.9850  138.6110 C   0  0  0  0  0  3  0  0  0  0  0  0
  189.8720  177.3440  136.7140 C   0  0  0  0  0  2  0  0  0  0  0  0
  190.1280  176.2760  137.7720 C   0  0  0  0  0  2  0  0  0  0  0  0
  191.5100  176.4420  138.3750 C   0  0  0  0  0  2  0  0  0  0  0  0
  190.5190  176.1280  140.6730 N   0  0  0  0  0  2  0  0  0  0  0  0
  191.4140  176.8330  139.8110 C   0  0  0  0  0  0  0  0  0  0  0  0
  192.1330  177.7690  140.2570 O   0  0  0  0  0  0  0  0  0  0  0  0
  190.4190  176.4240  142.0910 C   0  0  0  0  0  1  0  0  0  0  0  0
  1 24  1  1  0  0  0
  1 46  1  0  0  0  0
  1  3  1  0  0  0  0
  2  3  2  0  0  0  0
  3  4  1  0  0  0  0
  4  7  1  0  0  0  0
  5  8  1  0  0  0  0
  6  8  2  0  0  0  0
  6 11  1  0  0  0  0
  7  5  2  0  0  0  0
  9  7  1  0  0  0  0
  9 10  2  0  0  0  0
 10  6  1  0  0  0  0
 11 12  1  0  0  0  0
 12 13  1  0  0  0  0
 13 14  1  0  0  0  0
 14 15  1  0  0  0  0
 16 21  1  6  0  0  0
 16 15  1  0  0  0  0
 16 17  1  0  0  0  0
 17 19  1  0  0  0  0
 18 17  2  0  0  0  0
 20 21  1  0  0  0  0
 22 16  1  0  0  0  0
 23 22  1  0  0  0  0
 24 25  1  0  0  0  0
 26 25  1  1  0  0  0
 26 35  1  0  0  0  0
 28 30  1  0  0  0  0
 28 27  2  0  0  0  0
 29 45  1  0  0  0  0
 30 35  1  0  0  0  0
 31 27  1  0  0  0  0
 31 29  2  0  0  0  0
 32 34  1  1  0  0  0
 32 26  1  0  0  0  0
 32 28  1  0  0  0  0
 33 34  2  0  0  0  0
 34 31  1  0  0  0  0
 35 36  1  6  0  0  0
 36 26  1  0  0  0  0
 37 40  1  0  0  0  0
 38 37  1  0  0  0  0
 38 41  1  0  0  0  0
 40 29  1  0  0  0  0
 40 39  1  0  0  0  0
 41 43  1  0  0  0  0
 42 41  1  0  0  0  0
 43 39  1  0  0  0  0
 45 44  2  0  0  0  0
 46 47  1  0  0  0  0
 47 48  1  0  0  0  0
 48 50  1  0  0  0  0
 49 52  1  0  0  0  0
 50 51  2  0  0  0  0
 50 49  1  0  0  0  0
M  END
>  <MODEL>
9

>  <REMARK>
 VINA RESULT:      -5.4      2.636      6.734
  Name = 
  20 active torsions:
  status: ('A' for Active; 'I' for Inactive)
    1  A    between atoms: C_1  and  C_49
    2  A    between atoms: C_3  and  N_4
    3  A    between atoms: C_3  and  C_35
    4  A    between atoms: N_4  and  C_19
    5  A    between atoms: C_12  and  C_47
    6  A    between atoms: C_14  and  C_23
    7  A    between atoms: C_14  and  C_52
    8  A    between atoms: C_15  and  C_20
    9  A    between atoms: C_15  and  C_31
   10  A    between atoms: C_16  and  C_23
   11  A    between atoms: C_18  and  C_24
   12  A    between atoms: C_21  and  C_47
   13  A    between atoms: C_22  and  N_36
   14  A    between atoms: C_24  and  C_42
   15  A    between atoms: C_24  and  C_52
   16  A    between atoms: C_27  and  C_47
   17  A    between atoms: C_28  and  C_33
   18  A    between atoms: C_28  and  C_47
   19  A    between atoms: C_33  and  C_35
   20  A    between atoms: C_42  and  C_49
                            x       y       z     vdW  Elec       q    Type
                         _______ _______ _______ _____ _____    ______ ____

>  <TORSDO>
F 20

$$$$
