=
 OpenBabel10222420063D

 27 30  0  0  1  0  0  0  0  0999 V2000
  187.7010  177.3860  144.0170 N   0  0  0  0  0  0  0  0  0  0  0  0
  187.8350  177.5590  146.4890 C   0  0  0  0  0  3  0  0  0  0  0  0
  187.3060  177.9500  147.7170 C   0  0  0  0  0  0  0  0  0  0  0  0
  185.5460  177.8040  142.9630 C   0  0  1  0  0  3  0  0  0  0  0  0
  182.5870  178.8640  141.9980 C   0  0  0  0  0  2  0  0  0  0  0  0
  183.0600  179.7810  143.1300 C   0  0  0  0  0  2  0  0  0  0  0  0
  187.1480  177.8250  145.2880 C   0  0  0  0  0  0  0  0  0  0  0  0
  187.0580  177.8470  142.7750 C   0  0  0  0  0  2  0  0  0  0  0  0
  185.1620  178.8100  144.0700 C   0  0  2  0  0  3  0  0  0  0  0  0
  185.8890  178.4610  145.3500 C   0  0  0  0  0  0  0  0  0  0  0  0
  188.0650  177.7130  148.9720 C   0  0  0  0  0  1  0  0  0  0  0  0
  185.3610  178.8480  146.5910 C   0  0  0  0  0  3  0  0  0  0  0  0
  183.4080  177.6580  141.8430 N   0  0  0  0  0  2  0  0  0  0  0  0
  184.8060  178.0310  141.6440 C   0  0  0  0  0  2  0  0  0  0  0  0
  183.6480  178.9800  144.2840 C   0  0  0  0  0  2  0  0  0  0  0  0
  186.0520  178.5710  147.7740 C   0  0  0  0  0  3  0  0  0  0  0  0
  190.0480  177.8830  144.4230 C   0  0  0  0  0  0  0  0  0  0  0  0
  190.7030  178.7440  143.4250 C   0  0  0  0  0  0  0  0  0  0  0  0
  190.1540  177.1100  141.7270 C   0  0  0  0  0  0  0  0  0  0  0  0
  189.0680  176.8430  143.9500 C   0  0  2  0  0  3  0  0  0  0  0  0
  190.2840  178.0230  145.6520 O   0  0  0  0  0  0  0  0  0  0  0  0
  189.4100  176.3660  142.5590 C   0  0  0  0  0  3  0  0  0  0  0  0
  190.7340  178.3550  142.1830 N   0  0  0  0  0  0  0  0  0  0  0  0
  191.3380  179.8890  143.7970 F   0  0  0  0  0  0  0  0  0  0  0  0
  190.4330  176.6400  140.3200 C   0  0  1  0  0  3  0  0  0  0  0  0
  189.4120  177.0770  139.4670 O   0  0  0  0  0  1  0  0  0  0  0  0
  191.7640  177.1690  139.8040 C   0  0  0  0  0  1  0  0  0  0  0  0
  1  7  1  0  0  0  0
  2  3  1  0  0  0  0
  3 16  2  0  0  0  0
  3 11  1  0  0  0  0
  4 14  1  6  0  0  0
  4  9  1  0  0  0  0
  5  6  1  0  0  0  0
  6 15  1  0  0  0  0
  7 10  1  0  0  0  0
  7  2  2  0  0  0  0
  8  4  1  0  0  0  0
  8  1  1  0  0  0  0
  9 15  1  1  0  0  0
  9 10  1  0  0  0  0
 10 12  2  0  0  0  0
 12 16  1  0  0  0  0
 13  5  1  0  0  0  0
 14 13  1  0  0  0  0
 17 21  2  0  0  0  0
 18 24  1  0  0  0  0
 18 17  1  0  0  0  0
 19 23  1  0  0  0  0
 19 22  2  0  0  0  0
 20 22  1  6  0  0  0
 20  1  1  0  0  0  0
 20 17  1  0  0  0  0
 23 18  2  0  0  0  0
 25 27  1  6  0  0  0
 25 19  1  0  0  0  0
 26 25  1  0  0  0  0
M  END
>  <MODEL>
1

>  <REMARK>
 VINA RESULT:      -8.9      0.000      0.000
  Name = 
  2 active torsions:
  status: ('A' for Active; 'I' for Inactive)
    1  A    between atoms: N_1  and  C_17
    2  A    between atoms: C_4  and  C_16
                            x       y       z     vdW  Elec       q    Type
                         _______ _______ _______ _____ _____    ______ ____

>  <TORSDO>
F 2

$$$$
=
 OpenBabel10222420063D

 27 30  0  0  1  0  0  0  0  0999 V2000
  188.1210  177.8330  140.3070 N   0  0  0  0  0  0  0  0  0  0  0  0
  189.7810  176.9140  141.9060 C   0  0  0  0  0  3  0  0  0  0  0  0
  190.1820  176.5920  143.2020 C   0  0  0  0  0  0  0  0  0  0  0  0
  185.8500  178.1940  141.1070 C   0  0  1  0  0  3  0  0  0  0  0  0
  183.0900  178.8970  142.7490 C   0  0  0  0  0  2  0  0  0  0  0  0
  184.2710  179.2930  143.6390 C   0  0  0  0  0  2  0  0  0  0  0  0
  188.5370  177.5290  141.6670 C   0  0  0  0  0  0  0  0  0  0  0  0
  186.9090  178.6450  140.1080 C   0  0  0  0  0  2  0  0  0  0  0  0
  186.3630  178.4920  142.5320 C   0  0  2  0  0  3  0  0  0  0  0  0
  187.6770  177.7790  142.7600 C   0  0  0  0  0  0  0  0  0  0  0  0
  191.5190  175.9940  143.4470 C   0  0  0  0  0  1  0  0  0  0  0  0
  188.0870  177.4470  144.0600 C   0  0  0  0  0  3  0  0  0  0  0  0
  183.4820  178.0980  141.5830 N   0  0  0  0  0  2  0  0  0  0  0  0
  184.4860  178.8160  140.8030 C   0  0  0  0  0  2  0  0  0  0  0  0
  185.3450  178.2140  143.6510 C   0  0  0  0  0  2  0  0  0  0  0  0
  189.3230  176.8320  144.2810 C   0  0  0  0  0  3  0  0  0  0  0  0
  188.7140  178.6560  138.0950 C   0  0  0  0  0  0  0  0  0  0  0  0
  187.8650  178.1870  136.9870 C   0  0  0  0  0  0  0  0  0  0  0  0
  188.4590  175.9130  137.5620 C   0  0  0  0  0  0  0  0  0  0  0  0
  189.0720  177.6910  139.1920 C   0  0  2  0  0  3  0  0  0  0  0  0
  189.1180  179.8480  138.1390 O   0  0  0  0  0  0  0  0  0  0  0  0
  189.1140  176.2730  138.6750 C   0  0  0  0  0  3  0  0  0  0  0  0
  187.7690  176.9070  136.7680 N   0  0  0  0  0  0  0  0  0  0  0  0
  187.2530  179.0700  136.1520 F   0  0  0  0  0  0  0  0  0  0  0  0
  188.4650  174.4770  137.0970 C   0  0  1  0  0  3  0  0  0  0  0  0
  187.7270  174.3620  135.9120 O   0  0  0  0  0  1  0  0  0  0  0  0
  189.8800  173.9730  136.8460 C   0  0  0  0  0  1  0  0  0  0  0  0
  1  7  1  0  0  0  0
  2  3  1  0  0  0  0
  3 11  1  0  0  0  0
  3 16  2  0  0  0  0
  4  8  1  6  0  0  0
  4  9  1  0  0  0  0
  5  6  1  0  0  0  0
  6 15  1  0  0  0  0
  7  2  2  0  0  0  0
  7 10  1  0  0  0  0
  8  1  1  0  0  0  0
  9 10  1  0  0  0  0
  9 15  1  1  0  0  0
 10 12  2  0  0  0  0
 12 16  1  0  0  0  0
 13  5  1  0  0  0  0
 14  4  1  0  0  0  0
 14 13  1  0  0  0  0
 17 21  2  0  0  0  0
 17 20  1  0  0  0  0
 18 17  1  0  0  0  0
 19 22  2  0  0  0  0
 20 22  1  6  0  0  0
 20  1  1  0  0  0  0
 23 18  2  0  0  0  0
 23 19  1  0  0  0  0
 24 18  1  0  0  0  0
 25 27  1  6  0  0  0
 25 19  1  0  0  0  0
 26 25  1  0  0  0  0
M  END
>  <MODEL>
2

>  <REMARK>
 VINA RESULT:      -8.4      3.193      4.714
  Name = 
  2 active torsions:
  status: ('A' for Active; 'I' for Inactive)
    1  A    between atoms: N_1  and  C_17
    2  A    between atoms: C_4  and  C_16
                            x       y       z     vdW  Elec       q    Type
                         _______ _______ _______ _____ _____    ______ ____

>  <TORSDO>
F 2

$$$$
=
 OpenBabel10222420063D

 27 30  0  0  1  0  0  0  0  0999 V2000
  189.0600  177.2190  138.7080 N   0  0  0  0  0  0  0  0  0  0  0  0
  191.3220  176.7280  137.8110 C   0  0  0  0  0  3  0  0  0  0  0  0
  192.7000  176.5970  137.9740 C   0  0  0  0  0  0  0  0  0  0  0  0
  188.7880  177.2910  141.1270 C   0  0  1  0  0  3  0  0  0  0  0  0
  189.0190  177.7040  144.3800 C   0  0  0  0  0  2  0  0  0  0  0  0
  190.2450  178.3640  143.7430 C   0  0  0  0  0  2  0  0  0  0  0  0
  190.5000  177.1130  138.8880 C   0  0  0  0  0  0  0  0  0  0  0  0
  188.2590  177.8080  139.7930 C   0  0  0  0  0  2  0  0  0  0  0  0
  190.2350  177.8000  141.3080 C   0  0  2  0  0  3  0  0  0  0  0  0
  191.0900  177.3270  140.1530 C   0  0  0  0  0  0  0  0  0  0  0  0
  193.5620  176.2420  136.8180 C   0  0  0  0  0  1  0  0  0  0  0  0
  192.4770  177.1880  140.3100 C   0  0  0  0  0  3  0  0  0  0  0  0
  188.2550  176.8700  143.4470 N   0  0  0  0  0  2  0  0  0  0  0  0
  187.8590  177.6600  142.2840 C   0  0  0  0  0  2  0  0  0  0  0  0
  190.8630  177.4720  142.6740 C   0  0  0  0  0  2  0  0  0  0  0  0
  193.2790  176.7990  139.2320 C   0  0  0  0  0  3  0  0  0  0  0  0
  187.2970  178.0560  137.2560 C   0  0  0  0  0  0  0  0  0  0  0  0
  185.9480  177.5270  137.5150 C   0  0  0  0  0  0  0  0  0  0  0  0
  186.7990  175.2970  137.1180 C   0  0  0  0  0  0  0  0  0  0  0  0
  188.4730  177.1230  137.3620 C   0  0  2  0  0  3  0  0  0  0  0  0
  187.4710  179.2700  136.9700 O   0  0  0  0  0  0  0  0  0  0  0  0
  188.0730  175.7050  137.0300 C   0  0  0  0  0  3  0  0  0  0  0  0
  185.7520  176.2420  137.4430 N   0  0  0  0  0  0  0  0  0  0  0  0
  184.9010  178.3650  137.7470 F   0  0  0  0  0  0  0  0  0  0  0  0
  186.4310  173.8600  136.8390 C   0  0  1  0  0  3  0  0  0  0  0  0
  187.4910  173.0230  137.2100 O   0  0  0  0  0  1  0  0  0  0  0  0
  185.1830  173.4400  137.6030 C   0  0  0  0  0  1  0  0  0  0  0  0
  1  7  1  0  0  0  0
  1  8  1  0  0  0  0
  2  3  2  0  0  0  0
  2  7  1  0  0  0  0
  3 16  1  0  0  0  0
  4  8  1  6  0  0  0
  4  9  1  0  0  0  0
  4 14  1  0  0  0  0
  6  5  1  0  0  0  0
  7 10  2  0  0  0  0
  9 15  1  1  0  0  0
 10 12  1  0  0  0  0
 10  9  1  0  0  0  0
 11  3  1  0  0  0  0
 13  5  1  0  0  0  0
 14 13  1  0  0  0  0
 15  6  1  0  0  0  0
 16 12  2  0  0  0  0
 17 20  1  0  0  0  0
 17 18  1  0  0  0  0
 18 24  1  0  0  0  0
 19 23  1  0  0  0  0
 20 22  1  1  0  0  0
 20  1  1  0  0  0  0
 21 17  2  0  0  0  0
 22 19  2  0  0  0  0
 23 18  2  0  0  0  0
 25 19  1  0  0  0  0
 25 26  1  0  0  0  0
 25 27  1  1  0  0  0
M  END
>  <MODEL>
3

>  <REMARK>
 VINA RESULT:      -8.3      4.004      7.646
  Name = 
  2 active torsions:
  status: ('A' for Active; 'I' for Inactive)
    1  A    between atoms: N_1  and  C_17
    2  A    between atoms: C_4  and  C_16
                            x       y       z     vdW  Elec       q    Type
                         _______ _______ _______ _____ _____    ______ ____

>  <TORSDO>
F 2

$$$$
=
 OpenBabel10222420063D

 27 30  0  0  1  0  0  0  0  0999 V2000
  188.3520  176.8240  143.8200 N   0  0  0  0  0  0  0  0  0  0  0  0
  186.2570  177.6920  142.8100 C   0  0  0  0  0  3  0  0  0  0  0  0
  185.0230  178.3300  142.9140 C   0  0  0  0  0  0  0  0  0  0  0  0
  188.9060  177.5410  146.0800 C   0  0  1  0  0  3  0  0  0  0  0  0
  188.9910  178.4330  149.2430 C   0  0  0  0  0  2  0  0  0  0  0  0
  187.5470  178.0440  148.9110 C   0  0  0  0  0  2  0  0  0  0  0  0
  187.0530  177.4670  143.9500 C   0  0  0  0  0  0  0  0  0  0  0  0
  189.0660  176.4330  145.0460 C   0  0  0  0  0  2  0  0  0  0  0  0
  187.4100  177.6530  146.4470 C   0  0  2  0  0  3  0  0  0  0  0  0
  186.6000  177.9370  145.2020 C   0  0  0  0  0  0  0  0  0  0  0  0
  184.1680  178.5130  141.7130 C   0  0  0  0  0  1  0  0  0  0  0  0
  185.3580  178.5820  145.2980 C   0  0  0  0  0  3  0  0  0  0  0  0
  189.8460  178.5630  148.0590 N   0  0  0  0  0  2  0  0  0  0  0  0
  189.8190  177.3230  147.2870 C   0  0  0  0  0  2  0  0  0  0  0  0
  187.1020  178.6420  147.5840 C   0  0  0  0  0  2  0  0  0  0  0  0
  184.5820  178.8040  144.1560 C   0  0  0  0  0  3  0  0  0  0  0  0
  190.2480  176.0280  142.5200 C   0  0  0  0  0  0  0  0  0  0  0  0
  191.0920  177.0700  141.9120 C   0  0  0  0  0  0  0  0  0  0  0  0
  189.1460  177.8820  140.7240 C   0  0  0  0  0  0  0  0  0  0  0  0
  188.7570  176.2240  142.5380 C   0  0  2  0  0  3  0  0  0  0  0  0
  190.7620  175.0000  143.0350 O   0  0  0  0  0  0  0  0  0  0  0  0
  188.3030  177.0590  141.3650 C   0  0  0  0  0  3  0  0  0  0  0  0
  190.5480  177.9150  141.0830 N   0  0  0  0  0  0  0  0  0  0  0  0
  192.4320  177.1090  142.1440 F   0  0  0  0  0  0  0  0  0  0  0  0
  188.6570  178.7530  139.5920 C   0  0  1  0  0  3  0  0  0  0  0  0
  189.5510  178.6740  138.5170 O   0  0  0  0  0  1  0  0  0  0  0  0
  187.2750  178.3300  139.1140 C   0  0  0  0  0  1  0  0  0  0  0  0
  1  7  1  0  0  0  0
  1  8  1  0  0  0  0
  2  3  2  0  0  0  0
  2  7  1  0  0  0  0
  3 16  1  0  0  0  0
  4  8  1  6  0  0  0
  4  9  1  0  0  0  0
  4 14  1  0  0  0  0
  6  5  1  0  0  0  0
  7 10  2  0  0  0  0
  9 15  1  1  0  0  0
 10 12  1  0  0  0  0
 10  9  1  0  0  0  0
 11  3  1  0  0  0  0
 13  5  1  0  0  0  0
 14 13  1  0  0  0  0
 15  6  1  0  0  0  0
 16 12  2  0  0  0  0
 17 20  1  0  0  0  0
 17 21  2  0  0  0  0
 18 24  1  0  0  0  0
 18 17  1  0  0  0  0
 19 23  1  0  0  0  0
 19 22  2  0  0  0  0
 20 22  1  6  0  0  0
 20  1  1  0  0  0  0
 23 18  2  0  0  0  0
 25 27  1  6  0  0  0
 25 19  1  0  0  0  0
 26 25  1  0  0  0  0
M  END
>  <MODEL>
4

>  <REMARK>
 VINA RESULT:      -8.3      1.911      4.606
  Name = 
  2 active torsions:
  status: ('A' for Active; 'I' for Inactive)
    1  A    between atoms: N_1  and  C_17
    2  A    between atoms: C_4  and  C_16
                            x       y       z     vdW  Elec       q    Type
                         _______ _______ _______ _____ _____    ______ ____

>  <TORSDO>
F 2

$$$$
=
 OpenBabel10222420063D

 27 30  0  0  1  0  0  0  0  0999 V2000
  186.3680  178.6180  141.0610 N   0  0  0  0  0  0  0  0  0  0  0  0
  185.9800  178.7950  143.5060 C   0  0  0  0  0  3  0  0  0  0  0  0
  185.1290  178.8370  144.6080 C   0  0  0  0  0  0  0  0  0  0  0  0
  184.5120  177.8870  139.6650 C   0  0  1  0  0  3  0  0  0  0  0  0
  181.6360  177.2920  138.1870 C   0  0  0  0  0  2  0  0  0  0  0  0
  181.3790  178.3020  139.3090 C   0  0  0  0  0  2  0  0  0  0  0  0
  185.4650  178.6900  142.1990 C   0  0  0  0  0  0  0  0  0  0  0  0
  185.7990  178.7040  139.7060 C   0  0  0  0  0  2  0  0  0  0  0  0
  183.4910  178.5340  140.6250 C   0  0  2  0  0  3  0  0  0  0  0  0
  184.0680  178.5870  142.0220 C   0  0  0  0  0  0  0  0  0  0  0  0
  185.6800  179.0030  145.9770 C   0  0  0  0  0  1  0  0  0  0  0  0
  183.2180  178.6260  143.1380 C   0  0  0  0  0  3  0  0  0  0  0  0
  182.9690  176.6820  138.2460 N   0  0  0  0  0  2  0  0  0  0  0  0
  183.9930  177.7240  138.2350 C   0  0  0  0  0  2  0  0  0  0  0  0
  182.0900  177.8990  140.5930 C   0  0  0  0  0  2  0  0  0  0  0  0
  183.7440  178.7240  144.4290 C   0  0  0  0  0  3  0  0  0  0  0  0
  188.5600  178.3670  140.0330 C   0  0  0  0  0  0  0  0  0  0  0  0
  189.1250  177.0080  140.0540 C   0  0  0  0  0  0  0  0  0  0  0  0
  188.9880  177.0400  142.4690 C   0  0  0  0  0  0  0  0  0  0  0  0
  187.8090  178.8570  141.2420 C   0  0  2  0  0  3  0  0  0  0  0  0
  188.6810  179.1020  139.0180 O   0  0  0  0  0  0  0  0  0  0  0  0
  188.3260  178.2060  142.5030 C   0  0  0  0  0  3  0  0  0  0  0  0
  189.3110  176.4210  141.2010 N   0  0  0  0  0  0  0  0  0  0  0  0
  189.5250  176.4000  138.9040 F   0  0  0  0  0  0  0  0  0  0  0  0
  189.4430  176.3780  143.7460 C   0  0  1  0  0  3  0  0  0  0  0  0
  190.8410  176.3050  143.7670 O   0  0  0  0  0  1  0  0  0  0  0  0
  188.9720  177.1430  144.9760 C   0  0  0  0  0  1  0  0  0  0  0  0
  1  7  1  0  0  0  0
  2  3  1  0  0  0  0
  3 11  1  0  0  0  0
  4 14  1  6  0  0  0
  4  8  1  0  0  0  0
  4  9  1  0  0  0  0
  5 13  1  0  0  0  0
  5  6  1  0  0  0  0
  6 15  1  0  0  0  0
  7  2  2  0  0  0  0
  8  1  1  0  0  0  0
  9 15  1  1  0  0  0
  9 10  1  0  0  0  0
 10  7  1  0  0  0  0
 10 12  2  0  0  0  0
 12 16  1  0  0  0  0
 14 13  1  0  0  0  0
 16  3  2  0  0  0  0
 17 18  1  0  0  0  0
 17 20  1  0  0  0  0
 18 23  2  0  0  0  0
 19 22  2  0  0  0  0
 19 25  1  0  0  0  0
 20  1  1  6  0  0  0
 20 22  1  0  0  0  0
 21 17  2  0  0  0  0
 23 19  1  0  0  0  0
 24 18  1  0  0  0  0
 25 26  1  0  0  0  0
 25 27  1  1  0  0  0
M  END
>  <MODEL>
5

>  <REMARK>
 VINA RESULT:      -8.2      2.423      4.119
  Name = 
  2 active torsions:
  status: ('A' for Active; 'I' for Inactive)
    1  A    between atoms: N_1  and  C_17
    2  A    between atoms: C_4  and  C_16
                            x       y       z     vdW  Elec       q    Type
                         _______ _______ _______ _____ _____    ______ ____

>  <TORSDO>
F 2

$$$$
=
 OpenBabel10222420063D

 27 30  0  0  1  0  0  0  0  0999 V2000
  189.3900  177.3720  139.7080 N   0  0  0  0  0  0  0  0  0  0  0  0
  187.0880  178.2700  139.4690 C   0  0  0  0  0  3  0  0  0  0  0  0
  185.8850  178.7120  140.0170 C   0  0  0  0  0  0  0  0  0  0  0  0
  190.4120  177.4360  141.9170 C   0  0  1  0  0  3  0  0  0  0  0  0
  191.1750  177.3460  145.1130 C   0  0  0  0  0  2  0  0  0  0  0  0
  189.7100  176.9220  144.9760 C   0  0  0  0  0  2  0  0  0  0  0  0
  188.1300  177.8030  140.2940 C   0  0  0  0  0  0  0  0  0  0  0  0
  190.3780  176.7110  140.5760 C   0  0  0  0  0  2  0  0  0  0  0  0
  189.0350  177.2720  142.5960 C   0  0  2  0  0  3  0  0  0  0  0  0
  187.9530  177.8250  141.6950 C   0  0  0  0  0  0  0  0  0  0  0  0
  184.7750  179.1520  139.1350 C   0  0  0  0  0  1  0  0  0  0  0  0
  186.7410  178.2750  142.2390 C   0  0  0  0  0  3  0  0  0  0  0  0
  191.7340  177.9160  143.8830 N   0  0  0  0  0  2  0  0  0  0  0  0
  191.5830  176.9680  142.7820 C   0  0  0  0  0  2  0  0  0  0  0  0
  188.9530  177.8370  144.0240 C   0  0  0  0  0  2  0  0  0  0  0  0
  185.7190  178.7430  141.4070 C   0  0  0  0  0  3  0  0  0  0  0  0
  188.9130  175.9210  137.8130 C   0  0  0  0  0  0  0  0  0  0  0  0
  189.7920  174.7490  137.6660 C   0  0  0  0  0  0  0  0  0  0  0  0
  191.6840  176.2490  137.5150 C   0  0  0  0  0  0  0  0  0  0  0  0
  189.5170  177.2290  138.2490 C   0  0  2  0  0  3  0  0  0  0  0  0
  187.6750  175.8300  137.6010 O   0  0  0  0  0  0  0  0  0  0  0  0
  190.9560  177.3380  137.8030 C   0  0  0  0  0  3  0  0  0  0  0  0
  191.0730  174.9370  137.5300 N   0  0  0  0  0  0  0  0  0  0  0  0
  189.2760  173.4920  137.5920 F   0  0  0  0  0  0  0  0  0  0  0  0
  193.1380  176.3780  137.1300 C   0  0  1  0  0  3  0  0  0  0  0  0
  193.9460  176.0770  138.2330 O   0  0  0  0  0  1  0  0  0  0  0  0
  193.5020  175.4430  135.9840 C   0  0  0  0  0  1  0  0  0  0  0  0
  1  7  1  0  0  0  0
  1  8  1  0  0  0  0
  2  3  2  0  0  0  0
  2  7  1  0  0  0  0
  3 16  1  0  0  0  0
  4  8  1  6  0  0  0
  4  9  1  0  0  0  0
  4 14  1  0  0  0  0
  6  5  1  0  0  0  0
  7 10  2  0  0  0  0
  9 15  1  1  0  0  0
 10 12  1  0  0  0  0
 10  9  1  0  0  0  0
 11  3  1  0  0  0  0
 13  5  1  0  0  0  0
 14 13  1  0  0  0  0
 15  6  1  0  0  0  0
 16 12  2  0  0  0  0
 17 20  1  0  0  0  0
 18 17  1  0  0  0  0
 19 23  1  0  0  0  0
 19 22  2  0  0  0  0
 20 22  1  1  0  0  0
 20  1  1  0  0  0  0
 21 17  2  0  0  0  0
 23 18  2  0  0  0  0
 24 18  1  0  0  0  0
 25 27  1  6  0  0  0
 25 19  1  0  0  0  0
 25 26  1  0  0  0  0
M  END
>  <MODEL>
6

>  <REMARK>
 VINA RESULT:      -8.1      3.743      6.489
  Name = 
  2 active torsions:
  status: ('A' for Active; 'I' for Inactive)
    1  A    between atoms: N_1  and  C_17
    2  A    between atoms: C_4  and  C_16
                            x       y       z     vdW  Elec       q    Type
                         _______ _______ _______ _____ _____    ______ ____

>  <TORSDO>
F 2

$$$$
=
 OpenBabel10222420063D

 27 30  0  0  1  0  0  0  0  0999 V2000
  186.2360  178.2650  139.3650 N   0  0  0  0  0  0  0  0  0  0  0  0
  187.8130  177.8300  137.4990 C   0  0  0  0  0  3  0  0  0  0  0  0
  189.0980  177.5910  137.0150 C   0  0  0  0  0  0  0  0  0  0  0  0
  187.0270  177.8790  141.6360 C   0  0  1  0  0  3  0  0  0  0  0  0
  188.6680  177.6350  144.4740 C   0  0  0  0  0  2  0  0  0  0  0  0
  189.5870  178.3350  143.4680 C   0  0  0  0  0  2  0  0  0  0  0  0
  187.5870  178.0440  138.8730 C   0  0  0  0  0  0  0  0  0  0  0  0
  186.0590  178.6760  140.7680 C   0  0  0  0  0  2  0  0  0  0  0  0
  188.4690  178.2590  141.2340 C   0  0  2  0  0  3  0  0  0  0  0  0
  188.6800  177.9730  139.7640 C   0  0  0  0  0  0  0  0  0  0  0  0
  189.3320  177.4210  135.5580 C   0  0  0  0  0  1  0  0  0  0  0  0
  189.9690  177.7270  139.2690 C   0  0  0  0  0  3  0  0  0  0  0  0
  187.4740  177.0440  143.8600 N   0  0  0  0  0  2  0  0  0  0  0  0
  186.7350  178.0680  143.1250 C   0  0  0  0  0  2  0  0  0  0  0  0
  189.5640  177.6350  142.1150 C   0  0  0  0  0  2  0  0  0  0  0  0
  190.1770  177.5100  137.9030 C   0  0  0  0  0  3  0  0  0  0  0  0
  184.0720  179.3350  139.0540 C   0  0  0  0  0  0  0  0  0  0  0  0
  182.9350  178.6880  139.7280 C   0  0  0  0  0  0  0  0  0  0  0  0
  183.4060  176.6700  138.4790 C   0  0  0  0  0  0  0  0  0  0  0  0
  185.1260  178.4680  138.4200 C   0  0  2  0  0  3  0  0  0  0  0  0
  184.1780  180.5890  139.0250 O   0  0  0  0  0  0  0  0  0  0  0  0
  184.5430  177.1540  137.9570 C   0  0  0  0  0  3  0  0  0  0  0  0
  182.6540  177.4500  139.4380 N   0  0  0  0  0  0  0  0  0  0  0  0
  182.1360  179.3870  140.5800 F   0  0  0  0  0  0  0  0  0  0  0  0
  182.8740  175.3260  138.0450 C   0  0  1  0  0  3  0  0  0  0  0  0
  182.0080  175.4920  136.9570 O   0  0  0  0  0  1  0  0  0  0  0  0
  183.9960  174.3800  137.6400 C   0  0  0  0  0  1  0  0  0  0  0  0
  1  8  1  0  0  0  0
  2  7  1  0  0  0  0
  3  2  2  0  0  0  0
  3 16  1  0  0  0  0
  4  8  1  6  0  0  0
  4 14  1  0  0  0  0
  6  5  1  0  0  0  0
  7  1  1  0  0  0  0
  7 10  2  0  0  0  0
  9  4  1  0  0  0  0
  9 15  1  1  0  0  0
 10  9  1  0  0  0  0
 11  3  1  0  0  0  0
 12 10  1  0  0  0  0
 13  5  1  0  0  0  0
 14 13  1  0  0  0  0
 15  6  1  0  0  0  0
 16 12  2  0  0  0  0
 17 18  1  0  0  0  0
 18 24  1  0  0  0  0
 19 23  1  0  0  0  0
 20 22  1  1  0  0  0
 20 17  1  0  0  0  0
 20  1  1  0  0  0  0
 21 17  2  0  0  0  0
 22 19  2  0  0  0  0
 23 18  2  0  0  0  0
 25 27  1  6  0  0  0
 25 19  1  0  0  0  0
 26 25  1  0  0  0  0
M  END
>  <MODEL>
7

>  <REMARK>
 VINA RESULT:      -8.0      3.939      7.728
  Name = 
  2 active torsions:
  status: ('A' for Active; 'I' for Inactive)
    1  A    between atoms: N_1  and  C_17
    2  A    between atoms: C_4  and  C_16
                            x       y       z     vdW  Elec       q    Type
                         _______ _______ _______ _____ _____    ______ ____

>  <TORSDO>
F 2

$$$$
=
 OpenBabel10222420063D

 27 30  0  0  1  0  0  0  0  0999 V2000
  187.4750  178.5390  142.4830 N   0  0  0  0  0  0  0  0  0  0  0  0
  187.8610  178.0490  144.8850 C   0  0  0  0  0  3  0  0  0  0  0  0
  187.3920  177.8340  146.1800 C   0  0  0  0  0  0  0  0  0  0  0  0
  185.2010  178.3430  141.6340 C   0  0  1  0  0  3  0  0  0  0  0  0
  181.9610  178.3620  141.0760 C   0  0  0  0  0  2  0  0  0  0  0  0
  182.2010  179.0320  142.4320 C   0  0  0  0  0  2  0  0  0  0  0  0
  186.9710  178.3450  143.8340 C   0  0  0  0  0  0  0  0  0  0  0  0
  186.5470  179.0350  141.4530 C   0  0  0  0  0  2  0  0  0  0  0  0
  184.6180  178.7570  143.0030 C   0  0  2  0  0  3  0  0  0  0  0  0
  185.5850  178.3820  144.1030 C   0  0  0  0  0  0  0  0  0  0  0  0
  188.3440  177.5770  147.2910 C   0  0  0  0  0  1  0  0  0  0  0  0
  185.1210  178.1600  145.4080 C   0  0  0  0  0  3  0  0  0  0  0  0
  183.1460  177.6790  140.5460 N   0  0  0  0  0  2  0  0  0  0  0  0
  184.2620  178.6180  140.4580 C   0  0  0  0  0  2  0  0  0  0  0  0
  183.1940  178.2430  143.2740 C   0  0  0  0  0  2  0  0  0  0  0  0
  186.0160  177.8610  146.4400 C   0  0  0  0  0  3  0  0  0  0  0  0
  189.2450  178.0470  140.8880 C   0  0  0  0  0  0  0  0  0  0  0  0
  189.6600  176.6370  140.8060 C   0  0  0  0  0  0  0  0  0  0  0  0
  190.2240  176.7170  143.1570 C   0  0  0  0  0  0  0  0  0  0  0  0
  188.9230  178.6290  142.2380 C   0  0  2  0  0  3  0  0  0  0  0  0
  189.1390  178.7500  139.8490 O   0  0  0  0  0  0  0  0  0  0  0  0
  189.7150  177.9460  143.3270 C   0  0  0  0  0  3  0  0  0  0  0  0
  190.1090  176.0500  141.8780 N   0  0  0  0  0  0  0  0  0  0  0  0
  189.6530  175.9730  139.6180 F   0  0  0  0  0  0  0  0  0  0  0  0
  190.9600  176.0290  144.2810 C   0  0  1  0  0  3  0  0  0  0  0  0
  192.0340  175.2950  143.7610 O   0  0  0  0  0  1  0  0  0  0  0  0
  191.4960  177.0290  145.2980 C   0  0  0  0  0  1  0  0  0  0  0  0
  1  7  1  0  0  0  0
  2  3  1  0  0  0  0
  3 16  2  0  0  0  0
  3 11  1  0  0  0  0
  4 14  1  6  0  0  0
  4  9  1  0  0  0  0
  5  6  1  0  0  0  0
  6 15  1  0  0  0  0
  7 10  1  0  0  0  0
  7  2  2  0  0  0  0
  8  4  1  0  0  0  0
  8  1  1  0  0  0  0
  9 15  1  1  0  0  0
  9 10  1  0  0  0  0
 10 12  2  0  0  0  0
 12 16  1  0  0  0  0
 13  5  1  0  0  0  0
 14 13  1  0  0  0  0
 17 20  1  0  0  0  0
 18 17  1  0  0  0  0
 18 23  2  0  0  0  0
 19 22  2  0  0  0  0
 19 25  1  0  0  0  0
 20  1  1  1  0  0  0
 20 22  1  0  0  0  0
 21 17  2  0  0  0  0
 23 19  1  0  0  0  0
 24 18  1  0  0  0  0
 25 27  1  1  0  0  0
 26 25  1  0  0  0  0
M  END
>  <MODEL>
8

>  <REMARK>
 VINA RESULT:      -8.0      1.908      2.888
  Name = 
  2 active torsions:
  status: ('A' for Active; 'I' for Inactive)
    1  A    between atoms: N_1  and  C_17
    2  A    between atoms: C_4  and  C_16
                            x       y       z     vdW  Elec       q    Type
                         _______ _______ _______ _____ _____    ______ ____

>  <TORSDO>
F 2

$$$$
=
 OpenBabel10222420063D

 27 30  0  0  1  0  0  0  0  0999 V2000
  186.2770  178.5270  140.1730 N   0  0  0  0  0  0  0  0  0  0  0  0
  185.2000  178.8620  142.3840 C   0  0  0  0  0  3  0  0  0  0  0  0
  184.0670  178.9410  143.1930 C   0  0  0  0  0  0  0  0  0  0  0  0
  184.9210  177.5950  138.3770 C   0  0  1  0  0  3  0  0  0  0  0  0
  182.6080  176.7390  136.2040 C   0  0  0  0  0  2  0  0  0  0  0  0
  182.0100  177.8140  137.1160 C   0  0  0  0  0  2  0  0  0  0  0  0
  185.0840  178.6330  140.9990 C   0  0  0  0  0  0  0  0  0  0  0  0
  186.1160  178.4820  138.7100 C   0  0  0  0  0  2  0  0  0  0  0  0
  183.6480  178.2560  138.9500 C   0  0  2  0  0  3  0  0  0  0  0  0
  183.7990  178.4430  140.4430 C   0  0  0  0  0  0  0  0  0  0  0  0
  184.1990  179.2360  144.6420 C   0  0  0  0  0  1  0  0  0  0  0  0
  182.6650  178.5190  141.2650 C   0  0  0  0  0  3  0  0  0  0  0  0
  183.8860  176.2080  136.6900 N   0  0  0  0  0  2  0  0  0  0  0  0
  184.8380  177.3000  136.8790 C   0  0  0  0  0  2  0  0  0  0  0  0
  182.3350  177.5450  138.5790 C   0  0  0  0  0  2  0  0  0  0  0  0
  182.7970  178.7400  142.6400 C   0  0  0  0  0  3  0  0  0  0  0  0
  188.6750  178.4410  139.7670 C   0  0  0  0  0  0  0  0  0  0  0  0
  189.3060  177.1220  139.9340 C   0  0  0  0  0  0  0  0  0  0  0  0
  188.5290  177.0950  142.2250 C   0  0  0  0  0  0  0  0  0  0  0  0
  187.5980  178.8550  140.7330 C   0  0  2  0  0  3  0  0  0  0  0  0
  189.0110  179.2030  138.8230 O   0  0  0  0  0  0  0  0  0  0  0  0
  187.8040  178.2140  142.0840 C   0  0  0  0  0  3  0  0  0  0  0  0
  189.2190  176.5250  141.0880 N   0  0  0  0  0  0  0  0  0  0  0  0
  190.0390  176.5650  138.9310 F   0  0  0  0  0  0  0  0  0  0  0  0
  188.6720  176.4370  143.5760 C   0  0  1  0  0  3  0  0  0  0  0  0
  190.0040  176.5190  144.0020 O   0  0  0  0  0  1  0  0  0  0  0  0
  187.7810  177.0980  144.6210 C   0  0  0  0  0  1  0  0  0  0  0  0
  1  7  1  0  0  0  0
  2  3  1  0  0  0  0
  3 11  1  0  0  0  0
  4 14  1  6  0  0  0
  4  8  1  0  0  0  0
  4  9  1  0  0  0  0
  5 13  1  0  0  0  0
  5  6  1  0  0  0  0
  6 15  1  0  0  0  0
  7  2  2  0  0  0  0
  8  1  1  0  0  0  0
  9 15  1  1  0  0  0
  9 10  1  0  0  0  0
 10  7  1  0  0  0  0
 10 12  2  0  0  0  0
 12 16  1  0  0  0  0
 13 14  1  0  0  0  0
 16  3  2  0  0  0  0
 17 18  1  0  0  0  0
 17 20  1  0  0  0  0
 18 23  2  0  0  0  0
 19 25  1  0  0  0  0
 20  1  1  6  0  0  0
 20 22  1  0  0  0  0
 21 17  2  0  0  0  0
 22 19  2  0  0  0  0
 23 19  1  0  0  0  0
 24 18  1  0  0  0  0
 25 26  1  0  0  0  0
 25 27  1  1  0  0  0
M  END
>  <MODEL>
9

>  <REMARK>
 VINA RESULT:      -7.9      3.032      5.110
  Name = 
  2 active torsions:
  status: ('A' for Active; 'I' for Inactive)
    1  A    between atoms: N_1  and  C_17
    2  A    between atoms: C_4  and  C_16
                            x       y       z     vdW  Elec       q    Type
                         _______ _______ _______ _____ _____    ______ ____

>  <TORSDO>
F 2

$$$$
