=
 OpenBabel10222418093D

 25 28  0  0  1  0  0  0  0  0999 V2000
  186.2220  177.9880  142.4490 N   0  0  0  0  0  0  0  0  0  0  0  0
  187.5000  177.8910  146.3940 C   0  0  0  0  0  3  0  0  0  0  0  0
  186.6220  177.9620  143.7450 C   0  0  0  0  0  0  0  0  0  0  0  0
  184.4070  178.6750  144.3960 C   0  0  0  0  0  0  0  0  0  0  0  0
  183.4140  179.0420  145.3490 N   0  0  0  0  0  1  0  0  0  0  0  0
  184.5470  178.3640  140.6860 C   0  0  0  0  0  1  0  0  0  0  0  0
  188.3820  177.5490  145.3660 C   0  0  0  0  0  0  0  0  0  0  0  0
  186.1820  178.2680  146.1250 C   0  0  0  0  0  0  0  0  0  0  0  0
  184.9580  178.3430  142.1140 C   0  0  0  0  0  0  0  0  0  0  0  0
  184.0690  178.6810  143.0800 N   0  0  0  0  0  0  0  0  0  0  0  0
  187.9340  177.5890  144.0420 C   0  0  0  0  0  3  0  0  0  0  0  0
  185.3300  178.6090  147.3020 C   0  0  0  0  0  1  0  0  0  0  0  0
  185.7200  178.3080  144.7820 C   0  0  0  0  0  0  0  0  0  0  0  0
  191.7050  175.2050  146.2950 N   0  0  0  0  0  2  0  0  0  0  0  0
  189.7710  177.1550  145.6720 C   0  0  0  0  0  0  0  0  0  0  0  0
  190.8060  176.8180  144.6600 C   0  0  2  0  0  3  0  0  0  0  0  0
  192.0120  176.4150  145.5130 C   0  0  1  0  0  3  0  0  0  0  0  0
  190.1890  176.9750  146.8750 N   0  0  0  0  0  0  0  0  0  0  0  0
  191.5760  176.5360  146.9130 C   0  0  1  0  0  3  0  0  0  0  0  0
  191.1480  178.0070  143.8050 C   0  0  0  0  0  0  0  0  0  0  0  0
  191.5390  179.0790  144.3400 O   0  0  0  0  0  0  0  0  0  0  0  0
  191.0200  177.9450  142.3840 N   0  0  0  0  0  2  0  0  0  0  0  0
  190.5710  176.7490  141.6910 C   0  0  0  0  0  2  0  0  0  0  0  0
  188.8040  177.4020  139.8710 N   0  0  0  0  0  0  0  0  0  0  0  0
  189.5850  177.1140  140.6750 C   0  0  0  0  0  0  0  0  0  0  0  0
  1  3  1  0  0  0  0
  3 11  2  0  0  0  0
  3 13  1  0  0  0  0
  4 13  1  0  0  0  0
  4  5  1  0  0  0  0
  6  9  1  0  0  0  0
  7 15  1  0  0  0  0
  7  2  2  0  0  0  0
  8  2  1  0  0  0  0
  8 12  1  0  0  0  0
  9  1  2  0  0  0  0
  9 10  1  0  0  0  0
 10  4  2  0  0  0  0
 11  7  1  0  0  0  0
 13  8  2  0  0  0  0
 15 18  2  0  0  0  0
 16 20  1  1  0  0  0
 16 17  1  0  0  0  0
 16 15  1  0  0  0  0
 17 14  1  6  0  0  0
 17 19  1  0  0  0  0
 18 19  1  0  0  0  0
 19 14  1  6  0  0  0
 20 21  2  0  0  0  0
 22 20  1  0  0  0  0
 23 22  1  0  0  0  0
 24 25  3  0  0  0  0
 25 23  1  0  0  0  0
M  END
>  <MODEL>
1

>  <REMARK>
 VINA RESULT:      -8.6      0.000      0.000
  Name = 
  4 active torsions:
  status: ('A' for Active; 'I' for Inactive)
    1  A    between atoms: C_4  and  C_11
    2  A    between atoms: C_5  and  C_10
    3  A    between atoms: C_12  and  C_22
    4  A    between atoms: C_12  and  N_23
                            x       y       z     vdW  Elec       q    Type
                         _______ _______ _______ _____ _____    ______ ____

>  <TORSDO>
F 4

$$$$
=
 OpenBabel10222418093D

 25 28  0  0  1  0  0  0  0  0999 V2000
  184.3650  178.5520  143.2160 N   0  0  0  0  0  0  0  0  0  0  0  0
  188.2230  177.6510  144.4460 C   0  0  0  0  0  3  0  0  0  0  0  0
  185.6220  178.2600  143.6370 C   0  0  0  0  0  0  0  0  0  0  0  0
  184.8950  178.6240  145.9120 C   0  0  0  0  0  0  0  0  0  0  0  0
  185.0960  178.6810  147.3220 N   0  0  0  0  0  1  0  0  0  0  0  0
  182.0220  179.1880  143.6110 C   0  0  0  0  0  1  0  0  0  0  0  0
  187.9000  177.6260  143.0860 C   0  0  0  0  0  0  0  0  0  0  0  0
  187.2680  177.9730  145.4130 C   0  0  0  0  0  0  0  0  0  0  0  0
  183.3890  178.8720  144.0990 C   0  0  0  0  0  0  0  0  0  0  0  0
  183.6580  178.9060  145.4270 N   0  0  0  0  0  0  0  0  0  0  0  0
  186.5950  177.9340  142.6900 C   0  0  0  0  0  3  0  0  0  0  0  0
  187.7270  177.9640  146.8330 C   0  0  0  0  0  1  0  0  0  0  0  0
  185.9400  178.2850  145.0170 C   0  0  0  0  0  0  0  0  0  0  0  0
  190.8760  178.0290  140.1910 N   0  0  0  0  0  2  0  0  0  0  0  0
  188.9240  177.2850  142.0790 C   0  0  0  0  0  0  0  0  0  0  0  0
  190.3540  177.0090  142.3750 C   0  0  2  0  0  3  0  0  0  0  0  0
  190.9630  176.7930  140.9870 C   0  0  1  0  0  3  0  0  0  0  0  0
  188.6780  177.2870  140.8160 N   0  0  0  0  0  0  0  0  0  0  0  0
  189.8610  176.9730  140.0290 C   0  0  1  0  0  3  0  0  0  0  0  0
  190.5130  175.7700  143.2120 C   0  0  0  0  0  0  0  0  0  0  0  0
  190.1010  174.6590  142.7830 O   0  0  0  0  0  0  0  0  0  0  0  0
  191.1180  175.8350  144.5040 N   0  0  0  0  0  2  0  0  0  0  0  0
  191.6150  177.0770  145.0730 C   0  0  0  0  0  2  0  0  0  0  0  0
  191.6500  176.8910  147.6860 N   0  0  0  0  0  0  0  0  0  0  0  0
  191.6350  176.9740  146.5320 C   0  0  0  0  0  0  0  0  0  0  0  0
  1  3  1  0  0  0  0
  1  9  2  0  0  0  0
  2  8  1  0  0  0  0
  3 13  1  0  0  0  0
  4  5  1  0  0  0  0
  6  9  1  0  0  0  0
  7  2  2  0  0  0  0
  8 12  1  0  0  0  0
  9 10  1  0  0  0  0
 10  4  2  0  0  0  0
 11  7  1  0  0  0  0
 11  3  2  0  0  0  0
 13  8  2  0  0  0  0
 13  4  1  0  0  0  0
 15 16  1  0  0  0  0
 15  7  1  0  0  0  0
 16 20  1  1  0  0  0
 17 14  1  6  0  0  0
 17 16  1  0  0  0  0
 18 15  2  0  0  0  0
 19 14  1  6  0  0  0
 19 18  1  0  0  0  0
 19 17  1  0  0  0  0
 20 22  1  0  0  0  0
 21 20  2  0  0  0  0
 22 23  1  0  0  0  0
 23 25  1  0  0  0  0
 25 24  3  0  0  0  0
M  END
>  <MODEL>
2

>  <REMARK>
 VINA RESULT:      -8.2      1.661      4.002
  Name = 
  4 active torsions:
  status: ('A' for Active; 'I' for Inactive)
    1  A    between atoms: C_4  and  C_11
    2  A    between atoms: C_5  and  C_10
    3  A    between atoms: C_12  and  C_22
    4  A    between atoms: C_12  and  N_23
                            x       y       z     vdW  Elec       q    Type
                         _______ _______ _______ _____ _____    ______ ____

>  <TORSDO>
F 4

$$$$
=
 OpenBabel10222418093D

 25 28  0  0  1  0  0  0  0  0999 V2000
  188.2290  177.5770  145.4820 N   0  0  0  0  0  0  0  0  0  0  0  0
  186.0410  178.5770  142.1020 C   0  0  0  0  0  3  0  0  0  0  0  0
  187.4970  177.9070  144.3870 C   0  0  0  0  0  0  0  0  0  0  0  0
  185.5930  178.2760  145.8270 C   0  0  0  0  0  0  0  0  0  0  0  0
  184.2360  178.6280  146.0830 N   0  0  0  0  0  1  0  0  0  0  0  0
  188.5030  177.2230  147.9010 C   0  0  0  0  0  1  0  0  0  0  0  0
  187.3860  178.2160  141.9820 C   0  0  0  0  0  0  0  0  0  0  0  0
  185.4070  178.6120  143.3460 C   0  0  0  0  0  0  0  0  0  0  0  0
  187.6790  177.5890  146.7190 C   0  0  0  0  0  0  0  0  0  0  0  0
  186.3780  177.9350  146.8820 N   0  0  0  0  0  0  0  0  0  0  0  0
  188.1070  177.8810  143.1310 C   0  0  0  0  0  3  0  0  0  0  0  0
  183.9700  179.0140  143.3520 C   0  0  0  0  0  1  0  0  0  0  0  0
  186.1350  178.2740  144.5180 C   0  0  0  0  0  0  0  0  0  0  0  0
  189.0550  179.4800  138.3740 N   0  0  0  0  0  2  0  0  0  0  0  0
  188.0370  178.1840  140.6570 C   0  0  0  0  0  0  0  0  0  0  0  0
  189.5050  178.1890  140.4260 C   0  0  2  0  0  3  0  0  0  0  0  0
  189.6200  178.2250  138.9000 C   0  0  1  0  0  3  0  0  0  0  0  0
  187.3700  178.2440  139.5580 N   0  0  0  0  0  0  0  0  0  0  0  0
  188.2390  178.2520  138.3910 C   0  0  1  0  0  3  0  0  0  0  0  0
  190.1510  176.9430  140.9670 C   0  0  0  0  0  0  0  0  0  0  0  0
  189.9150  175.8260  140.4340 O   0  0  0  0  0  0  0  0  0  0  0  0
  191.0250  177.0050  142.0950 N   0  0  0  0  0  2  0  0  0  0  0  0
  191.3440  178.2530  142.7680 C   0  0  0  0  0  2  0  0  0  0  0  0
  191.6810  177.8060  145.3280 N   0  0  0  0  0  0  0  0  0  0  0  0
  191.5330  178.0030  144.1980 C   0  0  0  0  0  0  0  0  0  0  0  0
  1  9  2  0  0  0  0
  2  8  1  0  0  0  0
  3 13  1  0  0  0  0
  3  1  1  0  0  0  0
  4  5  1  0  0  0  0
  4 10  2  0  0  0  0
  7  2  2  0  0  0  0
  7 11  1  0  0  0  0
  8 12  1  0  0  0  0
  8 13  2  0  0  0  0
  9 10  1  0  0  0  0
  9  6  1  0  0  0  0
 11  3  2  0  0  0  0
 13  4  1  0  0  0  0
 15  7  1  0  0  0  0
 16 15  1  0  0  0  0
 16 20  1  6  0  0  0
 17 14  1  1  0  0  0
 17 16  1  0  0  0  0
 18 15  2  0  0  0  0
 19 14  1  1  0  0  0
 19 17  1  0  0  0  0
 19 18  1  0  0  0  0
 20 22  1  0  0  0  0
 21 20  2  0  0  0  0
 22 23  1  0  0  0  0
 23 25  1  0  0  0  0
 25 24  3  0  0  0  0
M  END
>  <MODEL>
3

>  <REMARK>
 VINA RESULT:      -7.7      2.022      5.057
  Name = 
  4 active torsions:
  status: ('A' for Active; 'I' for Inactive)
    1  A    between atoms: C_4  and  C_11
    2  A    between atoms: C_5  and  C_10
    3  A    between atoms: C_12  and  C_22
    4  A    between atoms: C_12  and  N_23
                            x       y       z     vdW  Elec       q    Type
                         _______ _______ _______ _____ _____    ______ ____

>  <TORSDO>
F 4

$$$$
=
 OpenBabel10222418093D

 25 28  0  0  1  0  0  0  0  0999 V2000
  187.9570  177.6150  144.4140 N   0  0  0  0  0  0  0  0  0  0  0  0
  184.6750  178.7660  142.1520 C   0  0  0  0  0  3  0  0  0  0  0  0
  186.8730  177.9940  143.6900 C   0  0  0  0  0  0  0  0  0  0  0  0
  185.6710  178.3380  145.7580 C   0  0  0  0  0  0  0  0  0  0  0  0
  184.5240  178.6990  146.5210 N   0  0  0  0  0  1  0  0  0  0  0  0
  189.1220  177.1700  146.5350 C   0  0  0  0  0  1  0  0  0  0  0  0
  185.8630  178.3910  141.5190 C   0  0  0  0  0  0  0  0  0  0  0  0
  184.5640  178.7650  143.5450 C   0  0  0  0  0  0  0  0  0  0  0  0
  187.9210  177.5900  145.7670 C   0  0  0  0  0  0  0  0  0  0  0  0
  186.7890  177.9480  146.4230 N   0  0  0  0  0  0  0  0  0  0  0  0
  186.9580  178.0050  142.2970 C   0  0  0  0  0  3  0  0  0  0  0  0
  183.2490  179.1870  144.1100 C   0  0  0  0  0  1  0  0  0  0  0  0
  185.6740  178.3750  144.3410 C   0  0  0  0  0  0  0  0  0  0  0  0
  186.3690  177.0780  137.5920 N   0  0  0  0  0  2  0  0  0  0  0  0
  185.9600  178.3970  140.0460 C   0  0  0  0  0  0  0  0  0  0  0  0
  184.8130  178.2390  139.1140 C   0  0  2  0  0  3  0  0  0  0  0  0
  185.4790  178.2430  137.7350 C   0  0  1  0  0  3  0  0  0  0  0  0
  187.0870  178.4500  139.4280 N   0  0  0  0  0  0  0  0  0  0  0  0
  186.9230  178.3870  137.9830 C   0  0  1  0  0  3  0  0  0  0  0  0
  183.8480  179.3860  139.2290 C   0  0  0  0  0  0  0  0  0  0  0  0
  184.2380  180.5650  139.0170 O   0  0  0  0  0  0  0  0  0  0  0  0
  182.4850  179.1590  139.5930 N   0  0  0  0  0  2  0  0  0  0  0  0
  181.9590  177.8300  139.8590 C   0  0  0  0  0  2  0  0  0  0  0  0
  180.0980  177.9780  141.6980 N   0  0  0  0  0  0  0  0  0  0  0  0
  180.9200  177.9130  140.8860 C   0  0  0  0  0  0  0  0  0  0  0  0
  1  9  2  0  0  0  0
  2  8  1  0  0  0  0
  3 13  1  0  0  0  0
  3  1  1  0  0  0  0
  4 10  2  0  0  0  0
  4  5  1  0  0  0  0
  7  2  2  0  0  0  0
  7 11  1  0  0  0  0
  8 12  1  0  0  0  0
  8 13  2  0  0  0  0
  9 10  1  0  0  0  0
  9  6  1  0  0  0  0
 11  3  2  0  0  0  0
 13  4  1  0  0  0  0
 15  7  1  0  0  0  0
 16 20  1  6  0  0  0
 16 15  1  0  0  0  0
 17 14  1  1  0  0  0
 17 19  1  0  0  0  0
 17 16  1  0  0  0  0
 18 15  2  0  0  0  0
 19 14  1  1  0  0  0
 19 18  1  0  0  0  0
 20 22  1  0  0  0  0
 21 20  2  0  0  0  0
 22 23  1  0  0  0  0
 23 25  1  0  0  0  0
 25 24  3  0  0  0  0
M  END
>  <MODEL>
4

>  <REMARK>
 VINA RESULT:      -7.7      3.027      6.835
  Name = 
  4 active torsions:
  status: ('A' for Active; 'I' for Inactive)
    1  A    between atoms: C_4  and  C_11
    2  A    between atoms: C_5  and  C_10
    3  A    between atoms: C_12  and  C_22
    4  A    between atoms: C_12  and  N_23
                            x       y       z     vdW  Elec       q    Type
                         _______ _______ _______ _____ _____    ______ ____

>  <TORSDO>
F 4

$$$$
=
 OpenBabel10222418093D

 25 28  0  0  1  0  0  0  0  0999 V2000
  188.7850  177.1550  145.0710 N   0  0  0  0  0  0  0  0  0  0  0  0
  187.3160  177.9940  141.2840 C   0  0  0  0  0  3  0  0  0  0  0  0
  188.2880  177.4360  143.8400 C   0  0  0  0  0  0  0  0  0  0  0  0
  186.2510  178.2040  144.8890 C   0  0  0  0  0  0  0  0  0  0  0  0
  184.9330  178.7450  144.8720 N   0  0  0  0  0  1  0  0  0  0  0  0
  188.6240  177.0660  147.5250 C   0  0  0  0  0  1  0  0  0  0  0  0
  188.5990  177.4620  141.4330 C   0  0  0  0  0  0  0  0  0  0  0  0
  186.5060  178.2560  142.3910 C   0  0  0  0  0  0  0  0  0  0  0  0
  188.0550  177.3840  146.1890 C   0  0  0  0  0  0  0  0  0  0  0  0
  186.8060  177.9010  146.0910 N   0  0  0  0  0  0  0  0  0  0  0  0
  189.0770  177.1840  142.7160 C   0  0  0  0  0  3  0  0  0  0  0  0
  185.1550  178.8270  142.1110 C   0  0  0  0  0  1  0  0  0  0  0  0
  186.9860  177.9780  143.6990 C   0  0  0  0  0  0  0  0  0  0  0  0
  190.6830  175.4080  138.4590 N   0  0  0  0  0  2  0  0  0  0  0  0
  189.4390  177.1910  140.2490 C   0  0  0  0  0  0  0  0  0  0  0  0
  188.9440  177.1130  138.8500 C   0  0  2  0  0  3  0  0  0  0  0  0
  190.1970  176.7390  138.0550 C   0  0  1  0  0  3  0  0  0  0  0  0
  190.6890  176.9010  140.3410 N   0  0  0  0  0  0  0  0  0  0  0  0
  191.2830  176.6220  139.0420 C   0  0  1  0  0  3  0  0  0  0  0  0
  188.4060  178.4370  138.3820 C   0  0  0  0  0  0  0  0  0  0  0  0
  189.0900  179.4850  138.5310 O   0  0  0  0  0  0  0  0  0  0  0  0
  187.1150  178.5280  137.7790 N   0  0  0  0  0  2  0  0  0  0  0  0
  186.2640  177.3670  137.5760 C   0  0  0  0  0  2  0  0  0  0  0  0
  183.8390  177.9020  138.4130 N   0  0  0  0  0  0  0  0  0  0  0  0
  184.9100  177.6660  138.0440 C   0  0  0  0  0  0  0  0  0  0  0  0
  1  9  2  0  0  0  0
  2  7  2  0  0  0  0
  2  8  1  0  0  0  0
  3  1  1  0  0  0  0
  4 10  2  0  0  0  0
  5  4  1  0  0  0  0
  7 11  1  0  0  0  0
  8 13  2  0  0  0  0
  9  6  1  0  0  0  0
 10  9  1  0  0  0  0
 11  3  2  0  0  0  0
 12  8  1  0  0  0  0
 13  3  1  0  0  0  0
 13  4  1  0  0  0  0
 15 18  2  0  0  0  0
 15  7  1  0  0  0  0
 16 20  1  6  0  0  0
 16 15  1  0  0  0  0
 17 14  1  1  0  0  0
 17 16  1  0  0  0  0
 17 19  1  0  0  0  0
 19 14  1  1  0  0  0
 19 18  1  0  0  0  0
 20 21  2  0  0  0  0
 22 20  1  0  0  0  0
 23 22  1  0  0  0  0
 23 25  1  0  0  0  0
 25 24  3  0  0  0  0
M  END
>  <MODEL>
5

>  <REMARK>
 VINA RESULT:      -7.6      2.602      5.370
  Name = 
  4 active torsions:
  status: ('A' for Active; 'I' for Inactive)
    1  A    between atoms: C_4  and  C_11
    2  A    between atoms: C_5  and  C_10
    3  A    between atoms: C_12  and  C_22
    4  A    between atoms: C_12  and  N_23
                            x       y       z     vdW  Elec       q    Type
                         _______ _______ _______ _____ _____    ______ ____

>  <TORSDO>
F 4

$$$$
=
 OpenBabel10222418093D

 25 28  0  0  1  0  0  0  0  0999 V2000
  185.7130  178.1950  142.8220 N   0  0  0  0  0  0  0  0  0  0  0  0
  189.7180  177.1160  142.8140 C   0  0  0  0  0  3  0  0  0  0  0  0
  187.0230  177.8420  142.8390 C   0  0  0  0  0  0  0  0  0  0  0  0
  186.9640  177.9130  145.2530 C   0  0  0  0  0  0  0  0  0  0  0  0
  187.5450  177.7850  146.5470 N   0  0  0  0  0  1  0  0  0  0  0  0
  183.5960  178.7900  143.9250 C   0  0  0  0  0  1  0  0  0  0  0  0
  189.0340  177.2700  141.6050 C   0  0  0  0  0  0  0  0  0  0  0  0
  189.0800  177.3160  144.0400 C   0  0  0  0  0  0  0  0  0  0  0  0
  185.0300  178.4050  143.9730 C   0  0  0  0  0  0  0  0  0  0  0  0
  185.6540  178.2640  145.1680 N   0  0  0  0  0  0  0  0  0  0  0  0
  187.6860  177.6350  141.6270 C   0  0  0  0  0  3  0  0  0  0  0  0
  189.9090  177.1200  145.2650 C   0  0  0  0  0  1  0  0  0  0  0  0
  187.7080  177.6850  144.0690 C   0  0  0  0  0  0  0  0  0  0  0  0
  190.7730  175.3580  138.3310 N   0  0  0  0  0  2  0  0  0  0  0  0
  189.7280  177.0550  140.3200 C   0  0  0  0  0  0  0  0  0  0  0  0
  189.0680  177.0140  138.9890 C   0  0  2  0  0  3  0  0  0  0  0  0
  190.2210  176.6910  138.0360 C   0  0  1  0  0  3  0  0  0  0  0  0
  190.9850  176.7870  140.2500 N   0  0  0  0  0  0  0  0  0  0  0  0
  191.4200  176.5630  138.8790 C   0  0  1  0  0  3  0  0  0  0  0  0
  188.4570  178.3410  138.6360 C   0  0  0  0  0  0  0  0  0  0  0  0
  189.0550  179.4110  138.9300 O   0  0  0  0  0  0  0  0  0  0  0  0
  187.1900  178.4110  137.9800 N   0  0  0  0  0  2  0  0  0  0  0  0
  186.4350  177.2240  137.6120 C   0  0  0  0  0  2  0  0  0  0  0  0
  183.8780  177.6650  137.9740 N   0  0  0  0  0  0  0  0  0  0  0  0
  185.0070  177.4710  137.8140 C   0  0  0  0  0  0  0  0  0  0  0  0
  1  3  1  0  0  0  0
  1  9  2  0  0  0  0
  2  8  1  0  0  0  0
  3 13  1  0  0  0  0
  4  5  1  0  0  0  0
  6  9  1  0  0  0  0
  7 11  1  0  0  0  0
  7  2  2  0  0  0  0
  8 13  2  0  0  0  0
  8 12  1  0  0  0  0
  9 10  1  0  0  0  0
 10  4  2  0  0  0  0
 11  3  2  0  0  0  0
 13  4  1  0  0  0  0
 15  7  1  0  0  0  0
 16 20  1  6  0  0  0
 16 15  1  0  0  0  0
 17 14  1  1  0  0  0
 17 19  1  0  0  0  0
 17 16  1  0  0  0  0
 18 15  2  0  0  0  0
 19 14  1  1  0  0  0
 19 18  1  0  0  0  0
 20 21  2  0  0  0  0
 22 20  1  0  0  0  0
 23 25  1  0  0  0  0
 23 22  1  0  0  0  0
 25 24  3  0  0  0  0
M  END
>  <MODEL>
6

>  <REMARK>
 VINA RESULT:      -7.6      2.529      5.011
  Name = 
  4 active torsions:
  status: ('A' for Active; 'I' for Inactive)
    1  A    between atoms: C_4  and  C_11
    2  A    between atoms: C_5  and  C_10
    3  A    between atoms: C_12  and  C_22
    4  A    between atoms: C_12  and  N_23
                            x       y       z     vdW  Elec       q    Type
                         _______ _______ _______ _____ _____    ______ ____

>  <TORSDO>
F 4

$$$$
=
 OpenBabel10222418093D

 25 28  0  0  1  0  0  0  0  0999 V2000
  186.8950  177.9110  144.0360 N   0  0  0  0  0  0  0  0  0  0  0  0
  190.1400  177.3230  141.5200 C   0  0  0  0  0  3  0  0  0  0  0  0
  187.9680  177.7140  143.2280 C   0  0  0  0  0  0  0  0  0  0  0  0
  189.2840  177.1840  145.1830 C   0  0  0  0  0  0  0  0  0  0  0  0
  190.4880  176.8080  145.8470 N   0  0  0  0  0  1  0  0  0  0  0  0
  185.8020  177.9770  146.2390 C   0  0  0  0  0  1  0  0  0  0  0  0
  188.9010  177.6910  140.9870 C   0  0  0  0  0  0  0  0  0  0  0  0
  190.3150  177.1430  142.8940 C   0  0  0  0  0  0  0  0  0  0  0  0
  186.9920  177.7550  145.3780 C   0  0  0  0  0  0  0  0  0  0  0  0
  188.1740  177.3960  145.9360 N   0  0  0  0  0  0  0  0  0  0  0  0
  187.8200  177.8870  141.8500 C   0  0  0  0  0  3  0  0  0  0  0  0
  191.6810  176.7470  143.3470 C   0  0  0  0  0  1  0  0  0  0  0  0
  189.2190  177.3380  143.7760 C   0  0  0  0  0  0  0  0  0  0  0  0
  188.8530  179.4790  137.2180 N   0  0  0  0  0  2  0  0  0  0  0  0
  188.7380  177.8770  139.5320 C   0  0  0  0  0  0  0  0  0  0  0  0
  189.7810  177.5950  138.5120 C   0  0  2  0  0  3  0  0  0  0  0  0
  189.1180  178.0300  137.2030 C   0  0  1  0  0  3  0  0  0  0  0  0
  187.6810  178.4010  139.0170 N   0  0  0  0  0  0  0  0  0  0  0  0
  187.7830  178.5290  137.5710 C   0  0  1  0  0  3  0  0  0  0  0  0
  190.1200  176.1300  138.4630 C   0  0  0  0  0  0  0  0  0  0  0  0
  189.2040  175.2730  138.3410 O   0  0  0  0  0  0  0  0  0  0  0  0
  191.4750  175.6910  138.5680 N   0  0  0  0  0  2  0  0  0  0  0  0
  192.5870  176.6160  138.7150 C   0  0  0  0  0  2  0  0  0  0  0  0
  194.2010  176.3780  136.6650 N   0  0  0  0  0  0  0  0  0  0  0  0
  193.4880  176.4830  137.5700 C   0  0  0  0  0  0  0  0  0  0  0  0
  1  9  2  0  0  0  0
  2  8  1  0  0  0  0
  3 13  1  0  0  0  0
  3  1  1  0  0  0  0
  4  5  1  0  0  0  0
  4 10  2  0  0  0  0
  7  2  2  0  0  0  0
  7 11  1  0  0  0  0
  8 12  1  0  0  0  0
  8 13  2  0  0  0  0
  9 10  1  0  0  0  0
  9  6  1  0  0  0  0
 11  3  2  0  0  0  0
 13  4  1  0  0  0  0
 15  7  1  0  0  0  0
 16 20  1  6  0  0  0
 16 15  1  0  0  0  0
 17 14  1  1  0  0  0
 17 19  1  0  0  0  0
 17 16  1  0  0  0  0
 18 15  2  0  0  0  0
 19 14  1  1  0  0  0
 19 18  1  0  0  0  0
 20 22  1  0  0  0  0
 21 20  2  0  0  0  0
 22 23  1  0  0  0  0
 24 25  3  0  0  0  0
 25 23  1  0  0  0  0
M  END
>  <MODEL>
7

>  <REMARK>
 VINA RESULT:      -7.6      3.008      6.165
  Name = 
  4 active torsions:
  status: ('A' for Active; 'I' for Inactive)
    1  A    between atoms: C_4  and  C_11
    2  A    between atoms: C_5  and  C_10
    3  A    between atoms: C_12  and  C_22
    4  A    between atoms: C_12  and  N_23
                            x       y       z     vdW  Elec       q    Type
                         _______ _______ _______ _____ _____    ______ ____

>  <TORSDO>
F 4

$$$$
=
 OpenBabel10222418093D

 25 28  0  0  1  0  0  0  0  0999 V2000
  188.7150  177.4500  144.2180 N   0  0  0  0  0  0  0  0  0  0  0  0
  186.1180  178.5700  141.1840 C   0  0  0  0  0  3  0  0  0  0  0  0
  187.8510  177.8190  143.2380 C   0  0  0  0  0  0  0  0  0  0  0  0
  186.1320  178.0780  144.9160 C   0  0  0  0  0  0  0  0  0  0  0  0
  184.8110  178.3890  145.3510 N   0  0  0  0  0  1  0  0  0  0  0  0
  189.2870  176.9830  146.5650 C   0  0  0  0  0  1  0  0  0  0  0  0
  187.4430  178.2430  140.8830 C   0  0  0  0  0  0  0  0  0  0  0  0
  185.6400  178.5310  142.4960 C   0  0  0  0  0  0  0  0  0  0  0  0
  188.3200  177.3900  145.5120 C   0  0  0  0  0  0  0  0  0  0  0  0
  187.0450  177.7010  145.8490 N   0  0  0  0  0  0  0  0  0  0  0  0
  188.3030  177.8660  141.9180 C   0  0  0  0  0  3  0  0  0  0  0  0
  184.2090  178.9030  142.6970 C   0  0  0  0  0  1  0  0  0  0  0  0
  186.5100  178.1510  143.5520 C   0  0  0  0  0  0  0  0  0  0  0  0
  188.9110  179.7040  137.2630 N   0  0  0  0  0  2  0  0  0  0  0  0
  187.9280  178.2890  139.4900 C   0  0  0  0  0  0  0  0  0  0  0  0
  189.3380  178.0790  139.0680 C   0  0  2  0  0  3  0  0  0  0  0  0
  189.2890  178.3110  137.5560 C   0  0  1  0  0  3  0  0  0  0  0  0
  187.1670  178.6150  138.5040 N   0  0  0  0  0  0  0  0  0  0  0  0
  187.8900  178.6420  137.2410 C   0  0  1  0  0  3  0  0  0  0  0  0
  189.7980  176.6790  139.3660 C   0  0  0  0  0  0  0  0  0  0  0  0
  189.1510  175.6930  138.9230 O   0  0  0  0  0  0  0  0  0  0  0  0
  190.9610  176.4470  140.1620 N   0  0  0  0  0  2  0  0  0  0  0  0
  191.7590  177.5300  140.7130 C   0  0  0  0  0  2  0  0  0  0  0  0
  191.8660  177.3000  143.3210 N   0  0  0  0  0  0  0  0  0  0  0  0
  191.8190  177.4010  142.1690 C   0  0  0  0  0  0  0  0  0  0  0  0
  1  9  2  0  0  0  0
  2  8  1  0  0  0  0
  3 13  1  0  0  0  0
  3  1  1  0  0  0  0
  4  5  1  0  0  0  0
  4 10  2  0  0  0  0
  7  2  2  0  0  0  0
  7 11  1  0  0  0  0
  8 12  1  0  0  0  0
  8 13  2  0  0  0  0
  9 10  1  0  0  0  0
  9  6  1  0  0  0  0
 11  3  2  0  0  0  0
 13  4  1  0  0  0  0
 15  7  1  0  0  0  0
 16 20  1  6  0  0  0
 16 15  1  0  0  0  0
 17 14  1  1  0  0  0
 17 16  1  0  0  0  0
 18 15  2  0  0  0  0
 19 14  1  1  0  0  0
 19 17  1  0  0  0  0
 19 18  1  0  0  0  0
 20 22  1  0  0  0  0
 21 20  2  0  0  0  0
 22 23  1  0  0  0  0
 23 25  1  0  0  0  0
 25 24  3  0  0  0  0
M  END
>  <MODEL>
8

>  <REMARK>
 VINA RESULT:      -7.4      2.494      5.569
  Name = 
  4 active torsions:
  status: ('A' for Active; 'I' for Inactive)
    1  A    between atoms: C_4  and  C_11
    2  A    between atoms: C_5  and  C_10
    3  A    between atoms: C_12  and  C_22
    4  A    between atoms: C_12  and  N_23
                            x       y       z     vdW  Elec       q    Type
                         _______ _______ _______ _____ _____    ______ ____

>  <TORSDO>
F 4

$$$$
=
 OpenBabel10222418093D

 25 28  0  0  1  0  0  0  0  0999 V2000
  186.4650  178.1540  141.9500 N   0  0  0  0  0  0  0  0  0  0  0  0
  183.4320  178.6420  144.7370 C   0  0  0  0  0  3  0  0  0  0  0  0
  185.4860  178.3100  142.8760 C   0  0  0  0  0  0  0  0  0  0  0  0
  187.1200  177.9000  144.6080 C   0  0  0  0  0  0  0  0  0  0  0  0
  187.5330  177.7540  145.9640 N   0  0  0  0  0  1  0  0  0  0  0  0
  188.7920  177.7110  141.2840 C   0  0  0  0  0  1  0  0  0  0  0  0
  183.1530  178.7630  143.3730 C   0  0  0  0  0  0  0  0  0  0  0  0
  184.7220  178.3590  145.1920 C   0  0  0  0  0  0  0  0  0  0  0  0
  187.7390  177.8780  142.3200 C   0  0  0  0  0  0  0  0  0  0  0  0
  188.0540  177.7540  143.6320 N   0  0  0  0  0  0  0  0  0  0  0  0
  184.1870  178.5940  142.4490 C   0  0  0  0  0  3  0  0  0  0  0  0
  184.9010  178.2550  146.6700 C   0  0  0  0  0  1  0  0  0  0  0  0
  185.7780  178.1880  144.2580 C   0  0  0  0  0  0  0  0  0  0  0  0
  179.6950  180.8760  142.3810 N   0  0  0  0  0  2  0  0  0  0  0  0
  181.7820  179.0610  142.9130 C   0  0  0  0  0  0  0  0  0  0  0  0
  181.3910  179.3160  141.5020 C   0  0  2  0  0  3  0  0  0  0  0  0
  179.8990  179.6400  141.6050 C   0  0  1  0  0  3  0  0  0  0  0  0
  180.8000  179.2210  143.7280 N   0  0  0  0  0  0  0  0  0  0  0  0
  179.5650  179.5620  143.0360 C   0  0  1  0  0  3  0  0  0  0  0  0
  181.6010  178.0980  140.6450 C   0  0  0  0  0  0  0  0  0  0  0  0
  181.0120  177.0190  140.9230 O   0  0  0  0  0  0  0  0  0  0  0  0
  182.4780  178.1410  139.5180 N   0  0  0  0  0  2  0  0  0  0  0  0
  183.1980  179.3440  139.1340 C   0  0  0  0  0  2  0  0  0  0  0  0
  185.6810  178.7330  138.5630 N   0  0  0  0  0  0  0  0  0  0  0  0
  184.5840  179.0030  138.8150 C   0  0  0  0  0  0  0  0  0  0  0  0
  1  9  2  0  0  0  0
  1  3  1  0  0  0  0
  2  8  1  0  0  0  0
  3 13  1  0  0  0  0
  4  5  1  0  0  0  0
  6  9  1  0  0  0  0
  7  2  2  0  0  0  0
  8 12  1  0  0  0  0
  9 10  1  0  0  0  0
 10  4  2  0  0  0  0
 11  3  2  0  0  0  0
 11  7  1  0  0  0  0
 13  4  1  0  0  0  0
 13  8  2  0  0  0  0
 15  7  1  0  0  0  0
 15 18  2  0  0  0  0
 16 20  1  6  0  0  0
 16 17  1  0  0  0  0
 16 15  1  0  0  0  0
 17 14  1  1  0  0  0
 17 19  1  0  0  0  0
 19 14  1  1  0  0  0
 19 18  1  0  0  0  0
 20 21  2  0  0  0  0
 22 20  1  0  0  0  0
 23 22  1  0  0  0  0
 24 25  3  0  0  0  0
 25 23  1  0  0  0  0
M  END
>  <MODEL>
9

>  <REMARK>
 VINA RESULT:      -7.3      3.508      7.444
  Name = 
  4 active torsions:
  status: ('A' for Active; 'I' for Inactive)
    1  A    between atoms: C_4  and  C_11
    2  A    between atoms: C_5  and  C_10
    3  A    between atoms: C_12  and  C_22
    4  A    between atoms: C_12  and  N_23
                            x       y       z     vdW  Elec       q    Type
                         _______ _______ _______ _____ _____    ______ ____

>  <TORSDO>
F 4

$$$$
