=
 OpenBabel10222418113D

 45 49  0  0  1  0  0  0  0  0999 V2000
  190.0890  177.9460  141.8670 C   0  0  2  0  0  3  0  0  0  0  0  0
  190.9290  180.0780  144.0130 F   0  0  0  0  0  0  0  0  0  0  0  0
  192.3000  173.7720  144.7570 N   0  0  0  0  0  1  0  0  0  0  0  0
  191.2570  178.3430  145.5310 N   0  0  0  0  0  0  0  0  0  0  0  0
  192.3730  175.3250  146.6540 N   0  0  0  0  0  0  0  0  0  0  0  0
  191.0830  177.8610  143.0450 C   0  0  2  0  0  3  0  0  0  0  0  0
  191.3560  176.4250  143.4620 C   0  0  0  0  0  3  0  0  0  0  0  0
  192.1100  176.6130  146.8690 N   0  0  0  0  0  2  0  0  0  0  0  0
  190.6430  178.7480  144.2540 C   0  0  2  0  0  3  0  0  0  0  0  0
  192.0930  175.0440  145.3620 C   0  0  0  0  0  0  0  0  0  0  0  0
  191.6700  177.1280  145.7060 C   0  0  0  0  0  0  0  0  0  0  0  0
  191.6660  176.1830  144.7280 C   0  0  0  0  0  0  0  0  0  0  0  0
  188.1260  176.6340  142.5210 O   0  0  0  0  0  1  0  0  0  0  0  0
  188.6210  177.9320  142.3550 C   0  0  2  0  0  3  0  0  0  0  0  0
  187.7420  178.6680  141.3570 C   0  0  0  0  0  2  0  0  0  0  0  0
  186.3770  178.1770  141.4420 N   0  0  0  0  0  2  0  0  0  0  0  0
  184.7450  178.4770  143.1970 C   0  0  1  0  0  3  0  0  0  0  0  0
  184.1440  178.9880  141.9040 C   0  0  0  0  0  2  0  0  0  0  0  0
  185.6210  179.1740  142.1760 C   0  0  2  0  0  3  0  0  0  0  0  0
  184.4300  179.4530  144.3090 C   0  0  0  0  0  2  0  0  0  0  0  0
  184.5250  178.7720  145.5920 N   0  0  0  0  0  2  0  0  0  0  0  0
  187.8980  177.2590  146.0660 C   0  0  0  0  0  3  0  0  0  0  0  0
  186.6710  177.6110  145.4950 C   0  0  0  0  0  3  0  0  0  0  0  0
  187.3460  178.5390  148.0460 C   0  0  0  0  0  3  0  0  0  0  0  0
  185.7750  178.4270  146.1960 C   0  0  0  0  0  0  0  0  0  0  0  0
  186.1180  178.8910  147.4760 C   0  0  0  0  0  3  0  0  0  0  0  0
  188.2360  177.7230  147.3410 C   0  0  0  0  0  3  0  0  0  0  0  0
  190.9370  177.0970  139.7090 C   0  0  0  0  0  3  0  0  0  0  0  0
  190.3650  176.8400  140.8860 C   0  0  0  0  0  3  0  0  0  0  0  0
  191.2150  176.0030  138.7310 C   0  0  0  0  0  2  0  0  0  0  0  0
  192.2170  176.4630  137.6890 C   0  0  0  0  0  2  0  0  0  0  0  0
  191.7370  176.0450  136.2940 C   0  0  1  0  0  3  0  0  0  0  0  0
  193.2020  175.2180  134.5940 C   0  0  0  0  0  2  0  0  0  0  0  0
  192.4790  174.8590  135.8130 N   0  0  0  0  0  0  0  0  0  0  0  0
  194.6910  173.9400  135.9780 C   0  0  0  0  0  2  0  0  0  0  0  0
  193.5280  174.4900  136.7650 C   0  0  0  0  0  2  0  0  0  0  0  0
  194.6110  174.6570  134.6620 C   0  0  0  0  0  2  0  0  0  0  0  0
  190.2140  175.7660  136.3580 C   0  0  2  0  0  3  0  0  0  0  0  0
  189.8100  174.4310  135.7260 C   0  0  0  0  0  2  0  0  0  0  0  0
  189.3960  173.4080  136.7730 C   0  0  0  0  0  1  0  0  0  0  0  0
  189.4440  176.8430  135.7400 N   0  0  0  0  0  2  0  0  0  0  0  0
  188.2280  177.0100  136.5200 C   0  0  0  0  0  2  0  0  0  0  0  0
  189.2290  179.1030  137.0690 O   0  0  0  0  0  0  0  0  0  0  0  0
  188.2200  178.3550  137.1610 C   0  0  0  0  0  0  0  0  0  0  0  0
  187.0870  178.7970  137.8340 O   0  0  0  0  0  1  0  0  0  0  0  0
  1 29  1  6  0  0  0
  1 14  1  0  0  0  0
  3 10  1  0  0  0  0
  4 11  2  0  0  0  0
  5  8  1  0  0  0  0
  6  1  1  6  0  0  0
  6  7  1  0  0  0  0
  6  9  1  0  0  0  0
  7 12  2  0  0  0  0
  9  2  1  6  0  0  0
  9  4  1  0  0  0  0
 10  5  2  0  0  0  0
 11  8  1  0  0  0  0
 12 10  1  0  0  0  0
 12 11  1  0  0  0  0
 14 13  1  6  0  0  0
 15 16  1  0  0  0  0
 15 14  1  0  0  0  0
 17 20  1  1  0  0  0
 18 19  1  0  0  0  0
 18 17  1  0  0  0  0
 19 16  1  6  0  0  0
 19 17  1  0  0  0  0
 20 21  1  0  0  0  0
 21 25  1  0  0  0  0
 22 27  1  0  0  0  0
 23 22  2  0  0  0  0
 23 25  1  0  0  0  0
 25 26  2  0  0  0  0
 26 24  1  0  0  0  0
 27 24  2  0  0  0  0
 28 29  2  0  0  0  0
 30 28  1  0  0  0  0
 31 30  1  0  0  0  0
 32 38  1  0  0  0  0
 32 31  1  1  0  0  0
 33 37  1  0  0  0  0
 33 34  1  0  0  0  0
 34 32  1  0  0  0  0
 34 36  1  0  0  0  0
 35 36  1  0  0  0  0
 37 35  1  0  0  0  0
 38 39  1  6  0  0  0
 39 40  1  0  0  0  0
 41 38  1  0  0  0  0
 41 42  1  0  0  0  0
 42 44  1  0  0  0  0
 43 44  2  0  0  0  0
 44 45  1  0  0  0  0
M  END
>  <MODEL>
1

>  <REMARK>
 VINA RESULT:      -7.6      0.000      0.000
  Name = 
  18 active torsions:
  status: ('A' for Active; 'I' for Inactive)
    1  A    between atoms: C_6  and  C_12
    2  A    between atoms: C_6  and  C_17
    3  A    between atoms: C_6  and  C_30
    4  A    between atoms: N_8  and  C_23
    5  A    between atoms: N_8  and  C_44
    6  A    between atoms: C_9  and  C_13
    7  A    between atoms: C_10  and  C_39
    8  A    between atoms: C_13  and  C_45
    9  A    between atoms: N_14  and  C_21
   10  A    between atoms: N_14  and  C_39
   11  A    between atoms: C_18  and  C_44
   12  A    between atoms: C_20  and  C_21
   13  A    between atoms: C_22  and  N_27
   14  A    between atoms: C_22  and  C_39
   15  A    between atoms: C_22  and  C_45
   16  A    between atoms: C_30  and  C_41
   17  A    between atoms: C_38  and  N_40
   18  A    between atoms: N_40  and  C_41
                            x       y       z     vdW  Elec       q    Type
                         _______ _______ _______ _____ _____    ______ ____

>  <TORSDO>
F 18

$$$$
=
 OpenBabel10222418113D

 45 49  0  0  1  0  0  0  0  0999 V2000
  190.0780  177.9630  141.8960 C   0  0  2  0  0  3  0  0  0  0  0  0
  190.8860  180.0630  144.0860 F   0  0  0  0  0  0  0  0  0  0  0  0
  192.3440  173.7630  144.7060 N   0  0  0  0  0  1  0  0  0  0  0  0
  191.2360  178.3040  145.5700 N   0  0  0  0  0  0  0  0  0  0  0  0
  192.3930  175.2790  146.6340 N   0  0  0  0  0  0  0  0  0  0  0  0
  191.0720  177.8680  143.0740 C   0  0  2  0  0  3  0  0  0  0  0  0
  191.3640  176.4290  143.4630 C   0  0  0  0  0  3  0  0  0  0  0  0
  192.1120  176.5580  146.8740 N   0  0  0  0  0  2  0  0  0  0  0  0
  190.6180  178.7250  144.3010 C   0  0  2  0  0  3  0  0  0  0  0  0
  192.1180  175.0200  145.3360 C   0  0  0  0  0  0  0  0  0  0  0  0
  191.6660  177.0910  145.7210 C   0  0  0  0  0  0  0  0  0  0  0  0
  191.6760  176.1660  144.7250 C   0  0  0  0  0  0  0  0  0  0  0  0
  188.1400  176.5980  142.5150 O   0  0  0  0  0  1  0  0  0  0  0  0
  188.6100  177.9100  142.3810 C   0  0  2  0  0  3  0  0  0  0  0  0
  187.7190  178.6520  141.3990 C   0  0  0  0  0  2  0  0  0  0  0  0
  186.3590  178.1470  141.4840 N   0  0  0  0  0  2  0  0  0  0  0  0
  184.6870  178.4630  143.1980 C   0  0  1  0  0  3  0  0  0  0  0  0
  184.1150  178.9590  141.8860 C   0  0  0  0  0  2  0  0  0  0  0  0
  185.5850  179.1510  142.1900 C   0  0  2  0  0  3  0  0  0  0  0  0
  184.3450  179.4510  144.2930 C   0  0  0  0  0  2  0  0  0  0  0  0
  184.4540  178.7940  145.5870 N   0  0  0  0  0  2  0  0  0  0  0  0
  187.8100  177.2370  146.0380 C   0  0  0  0  0  3  0  0  0  0  0  0
  186.5780  177.5940  145.4810 C   0  0  0  0  0  3  0  0  0  0  0  0
  187.3180  178.5800  147.9920 C   0  0  0  0  0  3  0  0  0  0  0  0
  185.7100  178.4440  146.1760 C   0  0  0  0  0  0  0  0  0  0  0  0
  186.0850  178.9370  147.4360 C   0  0  0  0  0  3  0  0  0  0  0  0
  188.1800  177.7300  147.2930 C   0  0  0  0  0  3  0  0  0  0  0  0
  190.9720  177.1800  139.7320 C   0  0  0  0  0  3  0  0  0  0  0  0
  190.3770  176.8870  140.8900 C   0  0  0  0  0  3  0  0  0  0  0  0
  191.2710  176.1150  138.7290 C   0  0  0  0  0  2  0  0  0  0  0  0
  190.9670  176.6060  137.3260 C   0  0  0  0  0  2  0  0  0  0  0  0
  189.9130  175.6980  136.6810 C   0  0  1  0  0  3  0  0  0  0  0  0
  187.7800  176.3800  137.5190 C   0  0  0  0  0  2  0  0  0  0  0  0
  188.6810  176.4550  136.3710 N   0  0  0  0  0  0  0  0  0  0  0  0
  187.7860  178.6520  136.7410 C   0  0  0  0  0  2  0  0  0  0  0  0
  188.9780  177.8820  136.2310 C   0  0  0  0  0  2  0  0  0  0  0  0
  187.1950  177.7550  137.7890 C   0  0  0  0  0  2  0  0  0  0  0  0
  190.5200  175.0660  135.4020 C   0  0  2  0  0  3  0  0  0  0  0  0
  190.4470  173.5370  135.3830 C   0  0  0  0  0  2  0  0  0  0  0  0
  189.0260  173.0370  135.1750 C   0  0  0  0  0  1  0  0  0  0  0  0
  191.9050  175.4840  135.2020 N   0  0  0  0  0  2  0  0  0  0  0  0
  192.7360  174.2930  135.2920 C   0  0  0  0  0  2  0  0  0  0  0  0
  194.7140  175.3080  136.1520 O   0  0  0  0  0  0  0  0  0  0  0  0
  193.7800  174.4840  136.3380 C   0  0  0  0  0  0  0  0  0  0  0  0
  193.7040  173.7770  137.5320 O   0  0  0  0  0  1  0  0  0  0  0  0
  1 29  1  6  0  0  0
  1 14  1  0  0  0  0
  3 10  1  0  0  0  0
  4 11  2  0  0  0  0
  5  8  1  0  0  0  0
  6  1  1  6  0  0  0
  6  7  1  0  0  0  0
  6  9  1  0  0  0  0
  7 12  2  0  0  0  0
  9  2  1  6  0  0  0
  9  4  1  0  0  0  0
 10  5  2  0  0  0  0
 11  8  1  0  0  0  0
 12 10  1  0  0  0  0
 12 11  1  0  0  0  0
 14 13  1  6  0  0  0
 15 16  1  0  0  0  0
 15 14  1  0  0  0  0
 17 20  1  1  0  0  0
 18 19  1  0  0  0  0
 18 17  1  0  0  0  0
 19 16  1  6  0  0  0
 19 17  1  0  0  0  0
 20 21  1  0  0  0  0
 21 25  1  0  0  0  0
 22 27  1  0  0  0  0
 23 22  2  0  0  0  0
 23 25  1  0  0  0  0
 25 26  2  0  0  0  0
 26 24  1  0  0  0  0
 27 24  2  0  0  0  0
 28 29  2  0  0  0  0
 30 28  1  0  0  0  0
 31 30  1  0  0  0  0
 32 31  1  6  0  0  0
 33 37  1  0  0  0  0
 34 32  1  0  0  0  0
 34 33  1  0  0  0  0
 35 37  1  0  0  0  0
 36 34  1  0  0  0  0
 36 35  1  0  0  0  0
 38 39  1  1  0  0  0
 38 32  1  0  0  0  0
 40 39  1  0  0  0  0
 41 42  1  0  0  0  0
 41 38  1  0  0  0  0
 42 44  1  0  0  0  0
 43 44  2  0  0  0  0
 44 45  1  0  0  0  0
M  END
>  <MODEL>
2

>  <REMARK>
 VINA RESULT:      -7.5      1.567      3.139
  Name = 
  18 active torsions:
  status: ('A' for Active; 'I' for Inactive)
    1  A    between atoms: C_6  and  C_12
    2  A    between atoms: C_6  and  C_17
    3  A    between atoms: C_6  and  C_30
    4  A    between atoms: N_8  and  C_23
    5  A    between atoms: N_8  and  C_44
    6  A    between atoms: C_9  and  C_13
    7  A    between atoms: C_10  and  C_39
    8  A    between atoms: C_13  and  C_45
    9  A    between atoms: N_14  and  C_21
   10  A    between atoms: N_14  and  C_39
   11  A    between atoms: C_18  and  C_44
   12  A    between atoms: C_20  and  C_21
   13  A    between atoms: C_22  and  N_27
   14  A    between atoms: C_22  and  C_39
   15  A    between atoms: C_22  and  C_45
   16  A    between atoms: C_30  and  C_41
   17  A    between atoms: C_38  and  N_40
   18  A    between atoms: N_40  and  C_41
                            x       y       z     vdW  Elec       q    Type
                         _______ _______ _______ _____ _____    ______ ____

>  <TORSDO>
F 18

$$$$
=
 OpenBabel10222418113D

 45 49  0  0  1  0  0  0  0  0999 V2000
  184.3890  178.3520  142.8760 C   0  0  2  0  0  3  0  0  0  0  0  0
  181.2930  178.5220  143.3660 F   0  0  0  0  0  0  0  0  0  0  0  0
  183.7660  177.8800  137.3930 N   0  0  0  0  0  1  0  0  0  0  0  0
  181.0140  178.9960  141.1040 N   0  0  0  0  0  0  0  0  0  0  0  0
  181.4590  178.6360  137.7440 N   0  0  0  0  0  0  0  0  0  0  0  0
  183.1970  178.0180  141.9530 C   0  0  2  0  0  3  0  0  0  0  0  0
  183.5900  178.0220  140.4850 C   0  0  0  0  0  3  0  0  0  0  0  0
  180.6750  178.9210  138.7810 N   0  0  0  0  0  2  0  0  0  0  0  0
  181.9620  178.9360  142.2300 C   0  0  2  0  0  3  0  0  0  0  0  0
  182.6800  178.2970  138.2140 C   0  0  0  0  0  0  0  0  0  0  0  0
  181.4120  178.7550  139.8950 C   0  0  0  0  0  0  0  0  0  0  0  0
  182.6700  178.3410  139.5850 C   0  0  0  0  0  0  0  0  0  0  0  0
  184.9300  180.4490  144.0210 O   0  0  0  0  0  1  0  0  0  0  0  0
  184.0070  179.3990  143.9480 C   0  0  2  0  0  3  0  0  0  0  0  0
  183.9170  178.7300  145.3100 C   0  0  0  0  0  2  0  0  0  0  0  0
  184.8870  179.3200  146.2170 N   0  0  0  0  0  2  0  0  0  0  0  0
  187.0830  178.4520  146.7250 C   0  0  1  0  0  3  0  0  0  0  0  0
  186.3910  177.4690  145.8040 C   0  0  0  0  0  2  0  0  0  0  0  0
  185.5910  178.2180  146.8470 C   0  0  2  0  0  3  0  0  0  0  0  0
  187.7830  177.6880  147.8290 C   0  0  0  0  0  2  0  0  0  0  0  0
  189.2070  177.9850  147.7940 N   0  0  0  0  0  2  0  0  0  0  0  0
  191.9900  175.8260  146.5760 C   0  0  0  0  0  3  0  0  0  0  0  0
  191.0910  176.4750  147.4280 C   0  0  0  0  0  3  0  0  0  0  0  0
  190.9440  176.8800  144.6640 C   0  0  0  0  0  3  0  0  0  0  0  0
  190.1150  177.3310  146.9030 C   0  0  0  0  0  0  0  0  0  0  0  0
  190.0440  177.5310  145.5150 C   0  0  0  0  0  3  0  0  0  0  0  0
  191.9170  176.0280  145.1950 C   0  0  0  0  0  3  0  0  0  0  0  0
  186.7640  178.2350  142.2100 C   0  0  0  0  0  3  0  0  0  0  0  0
  185.5640  178.7960  142.0500 C   0  0  0  0  0  3  0  0  0  0  0  0
  187.9340  178.6730  141.3910 C   0  0  0  0  0  2  0  0  0  0  0  0
  188.8220  177.4880  141.0590 C   0  0  0  0  0  2  0  0  0  0  0  0
  188.6630  177.1260  139.5770 C   0  0  1  0  0  3  0  0  0  0  0  0
  189.0800  178.9620  138.1030 C   0  0  0  0  0  2  0  0  0  0  0  0
  188.0370  178.2360  138.8260 N   0  0  0  0  0  0  0  0  0  0  0  0
  187.2220  178.6660  136.6100 C   0  0  0  0  0  2  0  0  0  0  0  0
  187.1590  177.7150  137.7780 C   0  0  0  0  0  2  0  0  0  0  0  0
  188.6020  179.2490  136.6900 C   0  0  0  0  0  2  0  0  0  0  0  0
  190.0590  176.7750  139.0010 C   0  0  2  0  0  3  0  0  0  0  0  0
  190.0310  175.6250  137.9920 C   0  0  0  0  0  2  0  0  0  0  0  0
  190.6560  176.0190  136.6620 C   0  0  0  0  0  1  0  0  0  0  0  0
  191.0140  176.4630  140.0610 N   0  0  0  0  0  2  0  0  0  0  0  0
  192.0280  177.5050  140.0530 C   0  0  0  0  0  2  0  0  0  0  0  0
  194.3260  176.9600  140.3800 O   0  0  0  0  0  1  0  0  0  0  0  0
  193.3320  176.9390  139.6060 C   0  0  0  0  0  0  0  0  0  0  0  0
  193.4430  176.3580  138.3490 O   0  0  0  0  0  0  0  0  0  0  0  0
  1 29  1  6  0  0  0
  1 14  1  0  0  0  0
  3 10  1  0  0  0  0
  4  9  1  0  0  0  0
  5 10  2  0  0  0  0
  5  8  1  0  0  0  0
  6  9  1  0  0  0  0
  6  1  1  1  0  0  0
  7  6  1  0  0  0  0
  8 11  1  0  0  0  0
  9  2  1  1  0  0  0
 10 12  1  0  0  0  0
 11  4  2  0  0  0  0
 12 11  1  0  0  0  0
 12  7  2  0  0  0  0
 14 13  1  1  0  0  0
 14 15  1  0  0  0  0
 15 16  1  0  0  0  0
 17 19  1  0  0  0  0
 17 20  1  1  0  0  0
 18 17  1  0  0  0  0
 18 19  1  0  0  0  0
 19 16  1  6  0  0  0
 21 20  1  0  0  0  0
 22 23  1  0  0  0  0
 24 27  1  0  0  0  0
 24 26  2  0  0  0  0
 25 23  2  0  0  0  0
 25 21  1  0  0  0  0
 26 25  1  0  0  0  0
 27 22  2  0  0  0  0
 29 28  2  0  0  0  0
 30 28  1  0  0  0  0
 31 30  1  0  0  0  0
 32 31  1  1  0  0  0
 33 34  1  0  0  0  0
 34 32  1  0  0  0  0
 35 37  1  0  0  0  0
 35 36  1  0  0  0  0
 36 34  1  0  0  0  0
 37 33  1  0  0  0  0
 38 39  1  6  0  0  0
 38 32  1  0  0  0  0
 38 41  1  0  0  0  0
 40 39  1  0  0  0  0
 42 41  1  0  0  0  0
 44 42  1  0  0  0  0
 44 43  1  0  0  0  0
 45 44  2  0  0  0  0
M  END
>  <MODEL>
3

>  <REMARK>
 VINA RESULT:      -7.4      3.175      7.274
  Name = 
  18 active torsions:
  status: ('A' for Active; 'I' for Inactive)
    1  A    between atoms: C_6  and  C_12
    2  A    between atoms: C_6  and  C_17
    3  A    between atoms: C_6  and  C_30
    4  A    between atoms: N_8  and  C_23
    5  A    between atoms: N_8  and  C_44
    6  A    between atoms: C_9  and  C_13
    7  A    between atoms: C_10  and  C_39
    8  A    between atoms: C_13  and  C_45
    9  A    between atoms: N_14  and  C_21
   10  A    between atoms: N_14  and  C_39
   11  A    between atoms: C_18  and  C_44
   12  A    between atoms: C_20  and  C_21
   13  A    between atoms: C_22  and  N_27
   14  A    between atoms: C_22  and  C_39
   15  A    between atoms: C_22  and  C_45
   16  A    between atoms: C_30  and  C_41
   17  A    between atoms: C_38  and  N_40
   18  A    between atoms: N_40  and  C_41
                            x       y       z     vdW  Elec       q    Type
                         _______ _______ _______ _____ _____    ______ ____

>  <TORSDO>
F 18

$$$$
=
 OpenBabel10222418113D

 45 49  0  0  1  0  0  0  0  0999 V2000
  188.5270  177.4480  138.4070 C   0  0  2  0  0  3  0  0  0  0  0  0
  188.6980  174.9120  136.5640 F   0  0  0  0  0  0  0  0  0  0  0  0
  193.9010  177.1860  139.7190 N   0  0  0  0  0  1  0  0  0  0  0  0
  191.0140  175.1500  136.5410 N   0  0  0  0  0  0  0  0  0  0  0  0
  194.1310  175.6400  137.8290 N   0  0  0  0  0  0  0  0  0  0  0  0
  189.6150  176.3590  138.2800 C   0  0  2  0  0  3  0  0  0  0  0  0
  190.9590  176.8260  138.8110 C   0  0  0  0  0  3  0  0  0  0  0  0
  193.3230  175.0440  136.9550 N   0  0  0  0  0  2  0  0  0  0  0  0
  189.7230  175.8010  136.8230 C   0  0  2  0  0  3  0  0  0  0  0  0
  193.3820  176.4300  138.6300 C   0  0  0  0  0  0  0  0  0  0  0  0
  192.0720  175.4640  137.2190 C   0  0  0  0  0  0  0  0  0  0  0  0
  192.0610  176.3170  138.2780 C   0  0  0  0  0  0  0  0  0  0  0  0
  189.0000  179.6980  137.5630 O   0  0  0  0  0  1  0  0  0  0  0  0
  188.5490  178.4220  137.2060 C   0  0  2  0  0  3  0  0  0  0  0  0
  187.1530  178.5420  136.6170 C   0  0  0  0  0  2  0  0  0  0  0  0
  186.8560  177.3760  135.8030 N   0  0  0  0  0  2  0  0  0  0  0  0
  185.1890  176.0930  136.9900 C   0  0  1  0  0  3  0  0  0  0  0  0
  185.1210  175.7110  135.5260 C   0  0  0  0  0  2  0  0  0  0  0  0
  185.4290  177.1390  135.9210 C   0  0  2  0  0  3  0  0  0  0  0  0
  183.7820  176.2620  137.5230 C   0  0  0  0  0  2  0  0  0  0  0  0
  183.6030  177.6300  137.9870 N   0  0  0  0  0  2  0  0  0  0  0  0
  183.1690  178.0520  141.6650 C   0  0  0  0  0  3  0  0  0  0  0  0
  182.9450  177.6700  140.3380 C   0  0  0  0  0  3  0  0  0  0  0  0
  185.2180  179.1600  141.0000 C   0  0  0  0  0  3  0  0  0  0  0  0
  183.8540  178.0310  139.3370 C   0  0  0  0  0  0  0  0  0  0  0  0
  184.9940  178.7790  139.6730 C   0  0  0  0  0  3  0  0  0  0  0  0
  184.3060  178.7970  141.9960 C   0  0  0  0  0  3  0  0  0  0  0  0
  188.3710  177.5680  140.8690 C   0  0  0  0  0  3  0  0  0  0  0  0
  188.6800  178.1680  139.7180 C   0  0  0  0  0  3  0  0  0  0  0  0
  188.5200  178.2790  142.1730 C   0  0  0  0  0  2  0  0  0  0  0  0
  188.7470  177.2850  143.2970 C   0  0  0  0  0  2  0  0  0  0  0  0
  188.7000  178.0130  144.6460 C   0  0  1  0  0  3  0  0  0  0  0  0
  187.5730  178.2450  146.7420 C   0  0  0  0  0  2  0  0  0  0  0  0
  187.6090  177.4850  145.4930 N   0  0  0  0  0  0  0  0  0  0  0  0
  185.3110  177.9860  145.9760 C   0  0  0  0  0  2  0  0  0  0  0  0
  186.3080  177.7400  144.8720 C   0  0  0  0  0  2  0  0  0  0  0  0
  186.1320  178.5860  147.0800 C   0  0  0  0  0  2  0  0  0  0  0  0
  190.0770  177.8570  145.3410 C   0  0  2  0  0  3  0  0  0  0  0  0
  191.2630  178.1080  144.4070 C   0  0  0  0  0  2  0  0  0  0  0  0
  191.4720  179.5900  144.1350 C   0  0  0  0  0  1  0  0  0  0  0  0
  190.2200  176.5430  145.9600 N   0  0  0  0  0  2  0  0  0  0  0  0
  190.8650  176.7380  147.2490 C   0  0  0  0  0  2  0  0  0  0  0  0
  192.4020  175.1370  146.3780 O   0  0  0  0  0  0  0  0  0  0  0  0
  192.1020  175.9110  147.3260 C   0  0  0  0  0  0  0  0  0  0  0  0
  192.9430  176.0170  148.4270 O   0  0  0  0  0  1  0  0  0  0  0  0
  1 29  1  1  0  0  0
  4  9  1  0  0  0  0
  4 11  2  0  0  0  0
  5 10  2  0  0  0  0
  6  1  1  6  0  0  0
  6  7  1  0  0  0  0
  8 11  1  0  0  0  0
  8  5  1  0  0  0  0
  9  2  1  1  0  0  0
  9  6  1  0  0  0  0
 10  3  1  0  0  0  0
 11 12  1  0  0  0  0
 12 10  1  0  0  0  0
 12  7  2  0  0  0  0
 14 13  1  1  0  0  0
 14  1  1  0  0  0  0
 15 14  1  0  0  0  0
 16 15  1  0  0  0  0
 17 20  1  6  0  0  0
 18 19  1  0  0  0  0
 18 17  1  0  0  0  0
 19 16  1  1  0  0  0
 19 17  1  0  0  0  0
 20 21  1  0  0  0  0
 21 25  1  0  0  0  0
 22 27  1  0  0  0  0
 23 22  2  0  0  0  0
 24 27  2  0  0  0  0
 25 26  2  0  0  0  0
 25 23  1  0  0  0  0
 26 24  1  0  0  0  0
 28 30  1  0  0  0  0
 29 28  2  0  0  0  0
 30 31  1  0  0  0  0
 32 31  1  6  0  0  0
 32 38  1  0  0  0  0
 32 34  1  0  0  0  0
 33 37  1  0  0  0  0
 34 33  1  0  0  0  0
 35 37  1  0  0  0  0
 36 34  1  0  0  0  0
 36 35  1  0  0  0  0
 38 39  1  6  0  0  0
 38 41  1  0  0  0  0
 40 39  1  0  0  0  0
 41 42  1  0  0  0  0
 42 44  1  0  0  0  0
 43 44  2  0  0  0  0
 44 45  1  0  0  0  0
M  END
>  <MODEL>
4

>  <REMARK>
 VINA RESULT:      -7.3      2.869      8.574
  Name = 
  18 active torsions:
  status: ('A' for Active; 'I' for Inactive)
    1  A    between atoms: C_6  and  C_12
    2  A    between atoms: C_6  and  C_17
    3  A    between atoms: C_6  and  C_30
    4  A    between atoms: N_8  and  C_23
    5  A    between atoms: N_8  and  C_44
    6  A    between atoms: C_9  and  C_13
    7  A    between atoms: C_10  and  C_39
    8  A    between atoms: C_13  and  C_45
    9  A    between atoms: N_14  and  C_21
   10  A    between atoms: N_14  and  C_39
   11  A    between atoms: C_18  and  C_44
   12  A    between atoms: C_20  and  C_21
   13  A    between atoms: C_22  and  N_27
   14  A    between atoms: C_22  and  C_39
   15  A    between atoms: C_22  and  C_45
   16  A    between atoms: C_30  and  C_41
   17  A    between atoms: C_38  and  N_40
   18  A    between atoms: N_40  and  C_41
                            x       y       z     vdW  Elec       q    Type
                         _______ _______ _______ _____ _____    ______ ____

>  <TORSDO>
F 18

$$$$
=
 OpenBabel10222418113D

 45 49  0  0  1  0  0  0  0  0999 V2000
  184.5040  178.2930  142.5580 C   0  0  2  0  0  3  0  0  0  0  0  0
  181.4080  178.6420  142.9440 F   0  0  0  0  0  0  0  0  0  0  0  0
  184.0190  177.6520  137.0780 N   0  0  0  0  0  1  0  0  0  0  0  0
  181.2220  179.0470  140.6580 N   0  0  0  0  0  0  0  0  0  0  0  0
  181.7470  178.5390  137.3290 N   0  0  0  0  0  0  0  0  0  0  0  0
  183.3240  177.9880  141.6100 C   0  0  2  0  0  3  0  0  0  0  0  0
  183.7590  177.9170  140.1560 C   0  0  0  0  0  3  0  0  0  0  0  0
  180.9490  178.9040  138.3300 N   0  0  0  0  0  2  0  0  0  0  0  0
  182.1310  178.9780  141.8150 C   0  0  2  0  0  3  0  0  0  0  0  0
  182.9340  178.1550  137.8490 C   0  0  0  0  0  0  0  0  0  0  0  0
  181.6430  178.7410  139.4720 C   0  0  0  0  0  0  0  0  0  0  0  0
  182.8850  178.2500  139.2170 C   0  0  0  0  0  0  0  0  0  0  0  0
  185.1160  180.3890  143.6680 O   0  0  0  0  0  1  0  0  0  0  0  0
  184.1420  179.3870  143.5890 C   0  0  2  0  0  3  0  0  0  0  0  0
  183.9710  178.7600  144.9630 C   0  0  0  0  0  2  0  0  0  0  0  0
  184.9040  179.3590  145.9010 N   0  0  0  0  0  2  0  0  0  0  0  0
  187.0410  178.3780  146.4530 C   0  0  1  0  0  3  0  0  0  0  0  0
  186.2620  177.3740  145.6280 C   0  0  0  0  0  2  0  0  0  0  0  0
  185.5380  178.2660  146.6140 C   0  0  2  0  0  3  0  0  0  0  0  0
  187.7040  177.6590  147.6090 C   0  0  0  0  0  2  0  0  0  0  0  0
  189.1410  177.8830  147.5550 N   0  0  0  0  0  2  0  0  0  0  0  0
  191.6820  176.0850  145.5050 C   0  0  0  0  0  3  0  0  0  0  0  0
  190.8840  176.4740  146.5860 C   0  0  0  0  0  3  0  0  0  0  0  0
  190.6070  177.7480  144.1110 C   0  0  0  0  0  3  0  0  0  0  0  0
  189.9450  177.5010  146.4350 C   0  0  0  0  0  0  0  0  0  0  0  0
  189.8090  178.1380  145.1910 C   0  0  0  0  0  3  0  0  0  0  0  0
  191.5430  176.7220  144.2670 C   0  0  0  0  0  3  0  0  0  0  0  0
  186.9070  178.1100  142.0210 C   0  0  0  0  0  3  0  0  0  0  0  0
  185.7210  178.6580  141.7540 C   0  0  0  0  0  3  0  0  0  0  0  0
  188.1190  178.4690  141.2260 C   0  0  0  0  0  2  0  0  0  0  0  0
  188.6460  177.2550  140.4820 C   0  0  0  0  0  2  0  0  0  0  0  0
  189.8070  177.6730  139.5720 C   0  0  1  0  0  3  0  0  0  0  0  0
  191.6700  176.5840  138.5430 C   0  0  0  0  0  2  0  0  0  0  0  0
  191.0000  176.8350  139.8180 N   0  0  0  0  0  0  0  0  0  0  0  0
  193.3570  177.1280  140.1640 C   0  0  0  0  0  2  0  0  0  0  0  0
  191.9870  177.5670  140.6120 C   0  0  0  0  0  2  0  0  0  0  0  0
  193.1670  176.7650  138.7200 C   0  0  0  0  0  2  0  0  0  0  0  0
  189.3410  177.5700  138.0970 C   0  0  2  0  0  3  0  0  0  0  0  0
  189.0500  178.9270  137.4520 C   0  0  0  0  0  2  0  0  0  0  0  0
  187.6350  179.0030  136.8980 C   0  0  0  0  0  1  0  0  0  0  0  0
  188.1670  176.7120  137.9640 N   0  0  0  0  0  2  0  0  0  0  0  0
  188.5790  175.5220  137.2360 C   0  0  0  0  0  2  0  0  0  0  0  0
  186.5860  175.7900  135.9560 O   0  0  0  0  0  1  0  0  0  0  0  0
  187.7820  175.3930  135.9840 C   0  0  0  0  0  0  0  0  0  0  0  0
  188.3660  174.8680  134.8380 O   0  0  0  0  0  0  0  0  0  0  0  0
  1 29  1  6  0  0  0
  1 14  1  0  0  0  0
  3 10  1  0  0  0  0
  4  9  1  0  0  0  0
  5 10  2  0  0  0  0
  5  8  1  0  0  0  0
  6  9  1  0  0  0  0
  6  1  1  1  0  0  0
  7  6  1  0  0  0  0
  8 11  1  0  0  0  0
  9  2  1  1  0  0  0
 10 12  1  0  0  0  0
 11  4  2  0  0  0  0
 12 11  1  0  0  0  0
 12  7  2  0  0  0  0
 14 13  1  1  0  0  0
 14 15  1  0  0  0  0
 15 16  1  0  0  0  0
 17 19  1  0  0  0  0
 17 20  1  1  0  0  0
 18 17  1  0  0  0  0
 18 19  1  0  0  0  0
 19 16  1  6  0  0  0
 21 20  1  0  0  0  0
 22 23  1  0  0  0  0
 24 27  1  0  0  0  0
 24 26  2  0  0  0  0
 25 23  2  0  0  0  0
 25 21  1  0  0  0  0
 26 25  1  0  0  0  0
 27 22  2  0  0  0  0
 29 28  2  0  0  0  0
 30 28  1  0  0  0  0
 31 30  1  0  0  0  0
 32 34  1  0  0  0  0
 32 31  1  1  0  0  0
 33 37  1  0  0  0  0
 33 34  1  0  0  0  0
 34 36  1  0  0  0  0
 35 36  1  0  0  0  0
 37 35  1  0  0  0  0
 38 39  1  1  0  0  0
 38 32  1  0  0  0  0
 40 39  1  0  0  0  0
 41 38  1  0  0  0  0
 42 41  1  0  0  0  0
 43 44  1  0  0  0  0
 44 42  1  0  0  0  0
 45 44  2  0  0  0  0
M  END
>  <MODEL>
5

>  <REMARK>
 VINA RESULT:      -7.2      3.033      6.848
  Name = 
  18 active torsions:
  status: ('A' for Active; 'I' for Inactive)
    1  A    between atoms: C_6  and  C_12
    2  A    between atoms: C_6  and  C_17
    3  A    between atoms: C_6  and  C_30
    4  A    between atoms: N_8  and  C_23
    5  A    between atoms: N_8  and  C_44
    6  A    between atoms: C_9  and  C_13
    7  A    between atoms: C_10  and  C_39
    8  A    between atoms: C_13  and  C_45
    9  A    between atoms: N_14  and  C_21
   10  A    between atoms: N_14  and  C_39
   11  A    between atoms: C_18  and  C_44
   12  A    between atoms: C_20  and  C_21
   13  A    between atoms: C_22  and  N_27
   14  A    between atoms: C_22  and  C_39
   15  A    between atoms: C_22  and  C_45
   16  A    between atoms: C_30  and  C_41
   17  A    between atoms: C_38  and  N_40
   18  A    between atoms: N_40  and  C_41
                            x       y       z     vdW  Elec       q    Type
                         _______ _______ _______ _____ _____    ______ ____

>  <TORSDO>
F 18

$$$$
=
 OpenBabel10222418113D

 45 49  0  0  1  0  0  0  0  0999 V2000
  184.6080  177.8890  138.7970 C   0  0  2  0  0  3  0  0  0  0  0  0
  184.3180  175.8230  136.4510 F   0  0  0  0  0  0  0  0  0  0  0  0
  179.6020  176.6810  140.8360 N   0  0  0  0  0  1  0  0  0  0  0  0
  182.5640  174.8270  137.6150 N   0  0  0  0  0  0  0  0  0  0  0  0
  179.6720  174.6850  139.4130 N   0  0  0  0  0  0  0  0  0  0  0  0
  183.3690  177.1510  138.2440 C   0  0  2  0  0  3  0  0  0  0  0  0
  182.2330  177.1030  139.2510 C   0  0  0  0  0  3  0  0  0  0  0  0
  180.4840  174.1760  138.4880 N   0  0  0  0  0  2  0  0  0  0  0  0
  183.7250  175.7300  137.6960 C   0  0  2  0  0  3  0  0  0  0  0  0
  180.2180  175.8340  139.8720 C   0  0  0  0  0  0  0  0  0  0  0  0
  181.5310  175.0140  138.3740 C   0  0  0  0  0  0  0  0  0  0  0  0
  181.3920  176.0790  139.2080 C   0  0  0  0  0  0  0  0  0  0  0  0
  184.2330  180.2790  139.1830 O   0  0  0  0  0  1  0  0  0  0  0  0
  184.2110  179.0140  139.7810 C   0  0  2  0  0  3  0  0  0  0  0  0
  185.1610  179.0160  140.9680 C   0  0  0  0  0  2  0  0  0  0  0  0
  184.5270  178.3850  142.1120 N   0  0  0  0  0  2  0  0  0  0  0  0
  184.6300  178.4510  144.5240 C   0  0  1  0  0  3  0  0  0  0  0  0
  183.4900  179.3430  144.0780 C   0  0  0  0  0  2  0  0  0  0  0  0
  184.7520  179.2590  143.2480 C   0  0  2  0  0  3  0  0  0  0  0  0
  185.4090  179.1530  145.6160 C   0  0  0  0  0  2  0  0  0  0  0  0
  186.0200  178.1610  146.4880 N   0  0  0  0  0  2  0  0  0  0  0  0
  189.4260  177.0410  147.5050 C   0  0  0  0  0  3  0  0  0  0  0  0
  188.0750  177.3980  147.5630 C   0  0  0  0  0  3  0  0  0  0  0  0
  189.4410  177.4800  145.1230 C   0  0  0  0  0  3  0  0  0  0  0  0
  187.4010  177.7990  146.4030 C   0  0  0  0  0  0  0  0  0  0  0  0
  188.0900  177.8380  145.1810 C   0  0  0  0  0  3  0  0  0  0  0  0
  190.1090  177.0820  146.2850 C   0  0  0  0  0  3  0  0  0  0  0  0
  186.7520  178.1560  137.6010 C   0  0  0  0  0  3  0  0  0  0  0  0
  185.4430  178.4070  137.6590 C   0  0  0  0  0  3  0  0  0  0  0  0
  187.5860  178.6670  136.4730 C   0  0  0  0  0  2  0  0  0  0  0  0
  188.8680  177.8650  136.3540 C   0  0  0  0  0  2  0  0  0  0  0  0
  188.7730  176.6100  137.2300 C   0  0  1  0  0  3  0  0  0  0  0  0
  188.2030  174.2880  137.2340 C   0  0  0  0  0  2  0  0  0  0  0  0
  188.6710  175.3910  136.3980 N   0  0  0  0  0  0  0  0  0  0  0  0
  186.9940  174.1990  135.1610 C   0  0  0  0  0  2  0  0  0  0  0  0
  187.6280  175.5490  135.3830 C   0  0  0  0  0  2  0  0  0  0  0  0
  187.1350  173.5090  136.4870 C   0  0  0  0  0  2  0  0  0  0  0  0
  190.0150  176.5560  138.1560 C   0  0  2  0  0  3  0  0  0  0  0  0
  190.0020  177.6190  139.2570 C   0  0  0  0  0  2  0  0  0  0  0  0
  188.8140  177.4530  140.1940 C   0  0  0  0  0  1  0  0  0  0  0  0
  191.2570  176.6680  137.3950 N   0  0  0  0  0  2  0  0  0  0  0  0
  192.0810  175.5200  137.7380 C   0  0  0  0  0  2  0  0  0  0  0  0
  193.5720  177.0100  138.8520 O   0  0  0  0  0  1  0  0  0  0  0  0
  193.4400  175.9770  138.1430 C   0  0  0  0  0  0  0  0  0  0  0  0
  194.5600  175.2450  137.7680 O   0  0  0  0  0  0  0  0  0  0  0  0
  1 29  1  6  0  0  0
  1 14  1  0  0  0  0
  4  9  1  0  0  0  0
  4 11  2  0  0  0  0
  5 10  2  0  0  0  0
  6  1  1  1  0  0  0
  6  7  1  0  0  0  0
  8  5  1  0  0  0  0
  9  2  1  6  0  0  0
  9  6  1  0  0  0  0
 10  3  1  0  0  0  0
 11  8  1  0  0  0  0
 11 12  1  0  0  0  0
 12  7  2  0  0  0  0
 12 10  1  0  0  0  0
 14 13  1  6  0  0  0
 14 15  1  0  0  0  0
 15 16  1  0  0  0  0
 17 20  1  1  0  0  0
 18 17  1  0  0  0  0
 19 16  1  6  0  0  0
 19 18  1  0  0  0  0
 19 17  1  0  0  0  0
 20 21  1  0  0  0  0
 22 23  1  0  0  0  0
 24 26  2  0  0  0  0
 24 27  1  0  0  0  0
 25 21  1  0  0  0  0
 25 23  2  0  0  0  0
 26 25  1  0  0  0  0
 27 22  2  0  0  0  0
 28 29  2  0  0  0  0
 30 28  1  0  0  0  0
 31 30  1  0  0  0  0
 32 31  1  6  0  0  0
 32 38  1  0  0  0  0
 34 32  1  0  0  0  0
 34 33  1  0  0  0  0
 35 36  1  0  0  0  0
 35 37  1  0  0  0  0
 36 34  1  0  0  0  0
 37 33  1  0  0  0  0
 38 39  1  1  0  0  0
 39 40  1  0  0  0  0
 41 42  1  0  0  0  0
 41 38  1  0  0  0  0
 42 44  1  0  0  0  0
 44 43  1  0  0  0  0
 45 44  2  0  0  0  0
M  END
>  <MODEL>
6

>  <REMARK>
 VINA RESULT:      -7.1      3.783      7.202
  Name = 
  18 active torsions:
  status: ('A' for Active; 'I' for Inactive)
    1  A    between atoms: C_6  and  C_12
    2  A    between atoms: C_6  and  C_17
    3  A    between atoms: C_6  and  C_30
    4  A    between atoms: N_8  and  C_23
    5  A    between atoms: N_8  and  C_44
    6  A    between atoms: C_9  and  C_13
    7  A    between atoms: C_10  and  C_39
    8  A    between atoms: C_13  and  C_45
    9  A    between atoms: N_14  and  C_21
   10  A    between atoms: N_14  and  C_39
   11  A    between atoms: C_18  and  C_44
   12  A    between atoms: C_20  and  C_21
   13  A    between atoms: C_22  and  N_27
   14  A    between atoms: C_22  and  C_39
   15  A    between atoms: C_22  and  C_45
   16  A    between atoms: C_30  and  C_41
   17  A    between atoms: C_38  and  N_40
   18  A    between atoms: N_40  and  C_41
                            x       y       z     vdW  Elec       q    Type
                         _______ _______ _______ _____ _____    ______ ____

>  <TORSDO>
F 18

$$$$
=
 OpenBabel10222418113D

 45 49  0  0  1  0  0  0  0  0999 V2000
  184.3320  178.4740  141.4380 C   0  0  2  0  0  3  0  0  0  0  0  0
  182.2210  179.7620  143.3720 F   0  0  0  0  0  0  0  0  0  0  0  0
  188.0580  177.8490  145.4870 N   0  0  0  0  0  1  0  0  0  0  0  0
  183.4410  178.9300  145.1720 N   0  0  0  0  0  0  0  0  0  0  0  0
  186.2090  178.2560  147.0450 N   0  0  0  0  0  0  0  0  0  0  0  0
  184.4830  179.0540  142.8610 C   0  0  2  0  0  3  0  0  0  0  0  0
  185.7260  178.5350  143.5630 C   0  0  0  0  0  3  0  0  0  0  0  0
  184.9220  178.5880  146.9630 N   0  0  0  0  0  2  0  0  0  0  0  0
  183.1950  178.8460  143.7230 C   0  0  2  0  0  3  0  0  0  0  0  0
  186.6990  178.1430  145.7900 C   0  0  0  0  0  0  0  0  0  0  0  0
  184.6180  178.6830  145.6550 C   0  0  0  0  0  0  0  0  0  0  0  0
  185.7110  178.4340  144.8850 C   0  0  0  0  0  0  0  0  0  0  0  0
  184.5560  179.9650  139.5070 O   0  0  0  0  0  1  0  0  0  0  0  0
  185.2640  179.1850  140.4290 C   0  0  2  0  0  3  0  0  0  0  0  0
  186.0820  178.1530  139.6700 C   0  0  0  0  0  2  0  0  0  0  0  0
  187.4450  178.6250  139.5040 N   0  0  0  0  0  2  0  0  0  0  0  0
  189.7470  177.9300  139.7340 C   0  0  1  0  0  3  0  0  0  0  0  0
  189.2120  177.3590  138.4380 C   0  0  0  0  0  2  0  0  0  0  0  0
  188.3080  177.4660  139.6460 C   0  0  2  0  0  3  0  0  0  0  0  0
  190.5540  176.8670  140.4480 C   0  0  0  0  0  2  0  0  0  0  0  0
  191.5240  177.5040  141.3260 N   0  0  0  0  0  2  0  0  0  0  0  0
  191.6800  175.7170  144.5930 C   0  0  0  0  0  3  0  0  0  0  0  0
  191.6460  175.9640  143.2170 C   0  0  0  0  0  3  0  0  0  0  0  0
  191.5400  178.0950  145.0250 C   0  0  0  0  0  3  0  0  0  0  0  0
  191.5580  177.2760  142.7380 C   0  0  0  0  0  0  0  0  0  0  0  0
  191.5060  178.3430  143.6490 C   0  0  0  0  0  3  0  0  0  0  0  0
  191.6270  176.7820  145.4970 C   0  0  0  0  0  3  0  0  0  0  0  0
  182.3220  177.5120  140.3750 C   0  0  0  0  0  3  0  0  0  0  0  0
  182.8910  178.5360  141.0130 C   0  0  0  0  0  3  0  0  0  0  0  0
  180.8910  177.5680  139.9510 C   0  0  0  0  0  2  0  0  0  0  0  0
  180.7180  176.9410  138.5800 C   0  0  0  0  0  2  0  0  0  0  0  0
  181.5740  177.6970  137.5570 C   0  0  1  0  0  3  0  0  0  0  0  0
  183.8170  177.0930  136.9890 C   0  0  0  0  0  2  0  0  0  0  0  0
  182.4100  176.7620  136.7720 N   0  0  0  0  0  0  0  0  0  0  0  0
  183.5990  174.7050  137.1110 C   0  0  0  0  0  2  0  0  0  0  0  0
  182.2720  175.3980  137.2850 C   0  0  0  0  0  2  0  0  0  0  0  0
  184.6040  175.8140  137.2130 C   0  0  0  0  0  2  0  0  0  0  0  0
  180.6350  178.5180  136.6360 C   0  0  2  0  0  3  0  0  0  0  0  0
  180.5680  177.9870  135.2030 C   0  0  0  0  0  2  0  0  0  0  0  0
  179.3110  177.1660  134.9570 C   0  0  0  0  0  1  0  0  0  0  0  0
  181.0080  179.9300  136.6100 N   0  0  0  0  0  2  0  0  0  0  0  0
  180.1690  180.6190  137.5770 C   0  0  0  0  0  2  0  0  0  0  0  0
  181.9830  181.8050  138.5710 O   0  0  0  0  0  1  0  0  0  0  0  0
  180.8450  181.8660  138.0350 C   0  0  0  0  0  0  0  0  0  0  0  0
  180.2350  183.0990  137.8390 O   0  0  0  0  0  0  0  0  0  0  0  0
  1 29  1  6  0  0  0
  3 10  1  0  0  0  0
  4 11  2  0  0  0  0
  6  1  1  6  0  0  0
  6  7  1  0  0  0  0
  6  9  1  0  0  0  0
  7 12  2  0  0  0  0
  8  5  1  0  0  0  0
  9  2  1  6  0  0  0
  9  4  1  0  0  0  0
 10  5  2  0  0  0  0
 11  8  1  0  0  0  0
 12 11  1  0  0  0  0
 12 10  1  0  0  0  0
 14 13  1  6  0  0  0
 14  1  1  0  0  0  0
 15 14  1  0  0  0  0
 16 15  1  0  0  0  0
 17 20  1  1  0  0  0
 18 19  1  0  0  0  0
 18 17  1  0  0  0  0
 19 16  1  6  0  0  0
 19 17  1  0  0  0  0
 20 21  1  0  0  0  0
 21 25  1  0  0  0  0
 22 27  1  0  0  0  0
 23 22  2  0  0  0  0
 24 27  2  0  0  0  0
 25 23  1  0  0  0  0
 25 26  2  0  0  0  0
 26 24  1  0  0  0  0
 28 29  2  0  0  0  0
 30 28  1  0  0  0  0
 31 30  1  0  0  0  0
 32 31  1  1  0  0  0
 33 37  1  0  0  0  0
 34 33  1  0  0  0  0
 34 36  1  0  0  0  0
 34 32  1  0  0  0  0
 35 37  1  0  0  0  0
 35 36  1  0  0  0  0
 38 39  1  6  0  0  0
 38 32  1  0  0  0  0
 40 39  1  0  0  0  0
 41 38  1  0  0  0  0
 41 42  1  0  0  0  0
 42 44  1  0  0  0  0
 44 43  1  0  0  0  0
 45 44  2  0  0  0  0
M  END
>  <MODEL>
7

>  <REMARK>
 VINA RESULT:      -7.0      4.171      7.840
  Name = 
  18 active torsions:
  status: ('A' for Active; 'I' for Inactive)
    1  A    between atoms: C_6  and  C_12
    2  A    between atoms: C_6  and  C_17
    3  A    between atoms: C_6  and  C_30
    4  A    between atoms: N_8  and  C_23
    5  A    between atoms: N_8  and  C_44
    6  A    between atoms: C_9  and  C_13
    7  A    between atoms: C_10  and  C_39
    8  A    between atoms: C_13  and  C_45
    9  A    between atoms: N_14  and  C_21
   10  A    between atoms: N_14  and  C_39
   11  A    between atoms: C_18  and  C_44
   12  A    between atoms: C_20  and  C_21
   13  A    between atoms: C_22  and  N_27
   14  A    between atoms: C_22  and  C_39
   15  A    between atoms: C_22  and  C_45
   16  A    between atoms: C_30  and  C_41
   17  A    between atoms: C_38  and  N_40
   18  A    between atoms: N_40  and  C_41
                            x       y       z     vdW  Elec       q    Type
                         _______ _______ _______ _____ _____    ______ ____

>  <TORSDO>
F 18

$$$$
=
 OpenBabel10222418113D

 45 49  0  0  1  0  0  0  0  0999 V2000
  189.6120  176.7380  139.7830 C   0  0  2  0  0  3  0  0  0  0  0  0
  189.2310  179.6460  138.6630 F   0  0  0  0  0  0  0  0  0  0  0  0
  186.3120  174.5310  135.9220 N   0  0  0  0  0  1  0  0  0  0  0  0
  188.4180  178.7220  136.6870 N   0  0  0  0  0  0  0  0  0  0  0  0
  186.5410  176.6600  134.7270 N   0  0  0  0  0  0  0  0  0  0  0  0
  188.5760  177.3160  138.7940 C   0  0  2  0  0  3  0  0  0  0  0  0
  187.9390  176.2360  137.9360 C   0  0  0  0  0  3  0  0  0  0  0  0
  187.1040  177.8450  134.9490 N   0  0  0  0  0  2  0  0  0  0  0  0
  189.1690  178.4760  137.9300 C   0  0  2  0  0  3  0  0  0  0  0  0
  186.8000  175.8610  135.7860 C   0  0  0  0  0  0  0  0  0  0  0  0
  187.7090  177.7800  136.1490 C   0  0  0  0  0  0  0  0  0  0  0  0
  187.5230  176.5590  136.7190 C   0  0  0  0  0  0  0  0  0  0  0  0
  188.7070  178.4800  141.2490 O   0  0  0  0  0  1  0  0  0  0  0  0
  189.3760  177.2500  141.2230 C   0  0  2  0  0  3  0  0  0  0  0  0
  190.7080  177.4000  141.9390 C   0  0  0  0  0  2  0  0  0  0  0  0
  190.5150  178.0840  143.2070 N   0  0  0  0  0  2  0  0  0  0  0  0
  189.3020  177.9000  145.2880 C   0  0  1  0  0  3  0  0  0  0  0  0
  190.5680  177.0780  145.4070 C   0  0  0  0  0  2  0  0  0  0  0  0
  189.8370  177.1490  144.0850 C   0  0  2  0  0  3  0  0  0  0  0  0
  188.1460  177.1170  145.8710 C   0  0  0  0  0  2  0  0  0  0  0  0
  187.0550  178.0280  146.1850 N   0  0  0  0  0  2  0  0  0  0  0  0
  185.0950  178.2810  143.0240 C   0  0  0  0  0  3  0  0  0  0  0  0
  186.1450  178.0490  143.9190 C   0  0  0  0  0  3  0  0  0  0  0  0
  183.6750  178.9600  144.8650 C   0  0  0  0  0  3  0  0  0  0  0  0
  185.9660  178.2710  145.2900 C   0  0  0  0  0  0  0  0  0  0  0  0
  184.7250  178.7280  145.7600 C   0  0  0  0  0  3  0  0  0  0  0  0
  183.8610  178.7370  143.4980 C   0  0  0  0  0  3  0  0  0  0  0  0
  191.6460  176.2000  138.4890 C   0  0  0  0  0  3  0  0  0  0  0  0
  191.0030  177.0430  139.2990 C   0  0  0  0  0  3  0  0  0  0  0  0
  193.0270  176.4980  138.0060 C   0  0  0  0  0  2  0  0  0  0  0  0
  193.1420  176.2140  136.5200 C   0  0  0  0  0  2  0  0  0  0  0  0
  194.2180  175.1470  136.2820 C   0  0  1  0  0  3  0  0  0  0  0  0
  193.9330  172.7990  135.9380 C   0  0  0  0  0  2  0  0  0  0  0  0
  193.7410  174.1160  135.3350 N   0  0  0  0  0  0  0  0  0  0  0  0
  191.7520  172.8340  134.9340 C   0  0  0  0  0  2  0  0  0  0  0  0
  192.2940  174.2250  135.1460 C   0  0  0  0  0  2  0  0  0  0  0  0
  192.6910  171.9560  135.7090 C   0  0  0  0  0  2  0  0  0  0  0  0
  195.4990  175.8450  135.7550 C   0  0  2  0  0  3  0  0  0  0  0  0
  195.2350  176.8100  134.5970 C   0  0  0  0  0  2  0  0  0  0  0  0
  195.9060  178.1580  134.8130 C   0  0  0  0  0  1  0  0  0  0  0  0
  196.5120  174.8750  135.3520 N   0  0  0  0  0  2  0  0  0  0  0  0
  197.7440  175.2200  136.0450 C   0  0  0  0  0  2  0  0  0  0  0  0
  197.2630  173.5090  137.6340 O   0  0  0  0  0  0  0  0  0  0  0  0
  197.7180  174.6650  137.4280 C   0  0  0  0  0  0  0  0  0  0  0  0
  198.2260  175.4100  138.4850 O   0  0  0  0  0  1  0  0  0  0  0  0
  1 29  1  6  0  0  0
  1 14  1  0  0  0  0
  4  9  1  0  0  0  0
  5  8  1  0  0  0  0
  5 10  2  0  0  0  0
  6  1  1  6  0  0  0
  7  6  1  0  0  0  0
  8 11  1  0  0  0  0
  9  2  1  1  0  0  0
  9  6  1  0  0  0  0
 10  3  1  0  0  0  0
 10 12  1  0  0  0  0
 11  4  2  0  0  0  0
 11 12  1  0  0  0  0
 12  7  2  0  0  0  0
 14 13  1  6  0  0  0
 14 15  1  0  0  0  0
 15 16  1  0  0  0  0
 17 18  1  0  0  0  0
 17 20  1  1  0  0  0
 19 16  1  6  0  0  0
 19 17  1  0  0  0  0
 19 18  1  0  0  0  0
 20 21  1  0  0  0  0
 22 27  2  0  0  0  0
 22 23  1  0  0  0  0
 23 25  2  0  0  0  0
 24 26  2  0  0  0  0
 25 26  1  0  0  0  0
 25 21  1  0  0  0  0
 27 24  1  0  0  0  0
 28 29  2  0  0  0  0
 30 28  1  0  0  0  0
 31 30  1  0  0  0  0
 32 31  1  6  0  0  0
 34 33  1  0  0  0  0
 34 32  1  0  0  0  0
 35 36  1  0  0  0  0
 35 37  1  0  0  0  0
 36 34  1  0  0  0  0
 37 33  1  0  0  0  0
 38 39  1  6  0  0  0
 38 32  1  0  0  0  0
 39 40  1  0  0  0  0
 41 38  1  0  0  0  0
 41 42  1  0  0  0  0
 42 44  1  0  0  0  0
 44 43  2  0  0  0  0
 44 45  1  0  0  0  0
M  END
>  <MODEL>
8

>  <REMARK>
 VINA RESULT:      -6.9      2.981      6.565
  Name = 
  18 active torsions:
  status: ('A' for Active; 'I' for Inactive)
    1  A    between atoms: C_6  and  C_12
    2  A    between atoms: C_6  and  C_17
    3  A    between atoms: C_6  and  C_30
    4  A    between atoms: N_8  and  C_23
    5  A    between atoms: N_8  and  C_44
    6  A    between atoms: C_9  and  C_13
    7  A    between atoms: C_10  and  C_39
    8  A    between atoms: C_13  and  C_45
    9  A    between atoms: N_14  and  C_21
   10  A    between atoms: N_14  and  C_39
   11  A    between atoms: C_18  and  C_44
   12  A    between atoms: C_20  and  C_21
   13  A    between atoms: C_22  and  N_27
   14  A    between atoms: C_22  and  C_39
   15  A    between atoms: C_22  and  C_45
   16  A    between atoms: C_30  and  C_41
   17  A    between atoms: C_38  and  N_40
   18  A    between atoms: N_40  and  C_41
                            x       y       z     vdW  Elec       q    Type
                         _______ _______ _______ _____ _____    ______ ____

>  <TORSDO>
F 18

$$$$
=
 OpenBabel10222418113D

 45 49  0  0  1  0  0  0  0  0999 V2000
  188.7920  177.9990  140.2430 C   0  0  2  0  0  3  0  0  0  0  0  0
  189.0510  179.9390  137.7880 F   0  0  0  0  0  0  0  0  0  0  0  0
  188.1200  173.5570  137.0040 N   0  0  0  0  0  1  0  0  0  0  0  0
  189.4420  178.0870  136.4330 N   0  0  0  0  0  0  0  0  0  0  0  0
  188.9400  174.9610  135.1690 N   0  0  0  0  0  0  0  0  0  0  0  0
  188.4500  177.7970  138.7510 C   0  0  2  0  0  3  0  0  0  0  0  0
  188.3870  176.3270  138.3710 C   0  0  0  0  0  3  0  0  0  0  0  0
  189.2840  176.2360  134.9960 N   0  0  0  0  0  2  0  0  0  0  0  0
  189.4050  178.6030  137.8120 C   0  0  2  0  0  3  0  0  0  0  0  0
  188.5930  174.7860  136.4630 C   0  0  0  0  0  0  0  0  0  0  0  0
  189.1450  176.8500  136.1850 C   0  0  0  0  0  0  0  0  0  0  0  0
  188.6910  175.9820  137.1280 C   0  0  0  0  0  0  0  0  0  0  0  0
  188.8450  176.2540  141.9620 O   0  0  0  0  0  1  0  0  0  0  0  0
  189.5070  176.7640  140.8390 C   0  0  2  0  0  3  0  0  0  0  0  0
  190.9280  177.1330  141.2320 C   0  0  0  0  0  2  0  0  0  0  0  0
  190.9110  178.2470  142.1640 N   0  0  0  0  0  2  0  0  0  0  0  0
  190.2400  178.4380  144.4770 C   0  0  1  0  0  3  0  0  0  0  0  0
  191.7230  178.7320  144.3920 C   0  0  0  0  0  2  0  0  0  0  0  0
  191.1080  177.6870  143.4880 C   0  0  2  0  0  3  0  0  0  0  0  0
  189.9810  177.5420  145.6690 C   0  0  0  0  0  2  0  0  0  0  0  0
  188.7140  176.8480  145.4850 N   0  0  0  0  0  2  0  0  0  0  0  0
  185.3780  178.2490  144.5920 C   0  0  0  0  0  3  0  0  0  0  0  0
  186.6210  177.6150  144.4900 C   0  0  0  0  0  3  0  0  0  0  0  0
  185.7760  178.6560  146.9450 C   0  0  0  0  0  3  0  0  0  0  0  0
  187.4470  177.4990  145.6140 C   0  0  0  0  0  0  0  0  0  0  0  0
  187.0190  178.0230  146.8450 C   0  0  0  0  0  3  0  0  0  0  0  0
  184.9560  178.7690  145.8190 C   0  0  0  0  0  3  0  0  0  0  0  0
  186.4160  178.6570  140.3710 C   0  0  0  0  0  3  0  0  0  0  0  0
  187.5470  178.3510  141.0090 C   0  0  0  0  0  3  0  0  0  0  0  0
  185.1760  179.0070  141.1260 C   0  0  0  0  0  2  0  0  0  0  0  0
  184.1570  177.8870  141.0210 C   0  0  0  0  0  2  0  0  0  0  0  0
  183.4500  177.9610  139.6630 C   0  0  1  0  0  3  0  0  0  0  0  0
  181.9710  176.1540  139.1490 C   0  0  0  0  0  2  0  0  0  0  0  0
  183.3520  176.6210  139.0450 N   0  0  0  0  0  0  0  0  0  0  0  0
  182.7460  175.6620  136.9290 C   0  0  0  0  0  2  0  0  0  0  0  0
  183.6040  176.7000  137.6050 C   0  0  0  0  0  2  0  0  0  0  0  0
  181.5470  175.5430  137.8250 C   0  0  0  0  0  2  0  0  0  0  0  0
  182.0480  178.5890  139.8670 C   0  0  2  0  0  3  0  0  0  0  0  0
  181.8250  179.8640  139.0510 C   0  0  0  0  0  2  0  0  0  0  0  0
  181.1960  179.5720  137.6970 C   0  0  0  0  0  1  0  0  0  0  0  0
  181.7840  178.8670  141.2760 N   0  0  0  0  0  2  0  0  0  0  0  0
  180.3430  178.8220  141.4660 C   0  0  0  0  0  2  0  0  0  0  0  0
  179.7450  179.9690  143.4680 O   0  0  0  0  0  1  0  0  0  0  0  0
  179.8940  180.0270  142.2190 C   0  0  0  0  0  0  0  0  0  0  0  0
  179.6730  181.2230  141.5480 O   0  0  0  0  0  0  0  0  0  0  0  0
  1 14  1  0  0  0  0
  1 29  1  1  0  0  0
  4  9  1  0  0  0  0
  5 10  2  0  0  0  0
  6  1  1  1  0  0  0
  7  6  1  0  0  0  0
  8  5  1  0  0  0  0
  8 11  1  0  0  0  0
  9  2  1  6  0  0  0
  9  6  1  0  0  0  0
 10  3  1  0  0  0  0
 10 12  1  0  0  0  0
 11  4  2  0  0  0  0
 11 12  1  0  0  0  0
 12  7  2  0  0  0  0
 14 15  1  0  0  0  0
 14 13  1  1  0  0  0
 15 16  1  0  0  0  0
 17 20  1  1  0  0  0
 18 17  1  0  0  0  0
 19 16  1  6  0  0  0
 19 18  1  0  0  0  0
 19 17  1  0  0  0  0
 21 25  1  0  0  0  0
 21 20  1  0  0  0  0
 22 27  1  0  0  0  0
 23 22  2  0  0  0  0
 23 25  1  0  0  0  0
 25 26  2  0  0  0  0
 26 24  1  0  0  0  0
 27 24  2  0  0  0  0
 28 29  2  0  0  0  0
 28 30  1  0  0  0  0
 31 30  1  0  0  0  0
 32 38  1  0  0  0  0
 32 31  1  1  0  0  0
 34 33  1  0  0  0  0
 34 32  1  0  0  0  0
 35 36  1  0  0  0  0
 35 37  1  0  0  0  0
 36 34  1  0  0  0  0
 37 33  1  0  0  0  0
 38 39  1  6  0  0  0
 38 41  1  0  0  0  0
 40 39  1  0  0  0  0
 41 42  1  0  0  0  0
 42 44  1  0  0  0  0
 44 43  1  0  0  0  0
 45 44  2  0  0  0  0
M  END
>  <MODEL>
9

>  <REMARK>
 VINA RESULT:      -6.8      3.388      7.931
  Name = 
  18 active torsions:
  status: ('A' for Active; 'I' for Inactive)
    1  A    between atoms: C_6  and  C_12
    2  A    between atoms: C_6  and  C_17
    3  A    between atoms: C_6  and  C_30
    4  A    between atoms: N_8  and  C_23
    5  A    between atoms: N_8  and  C_44
    6  A    between atoms: C_9  and  C_13
    7  A    between atoms: C_10  and  C_39
    8  A    between atoms: C_13  and  C_45
    9  A    between atoms: N_14  and  C_21
   10  A    between atoms: N_14  and  C_39
   11  A    between atoms: C_18  and  C_44
   12  A    between atoms: C_20  and  C_21
   13  A    between atoms: C_22  and  N_27
   14  A    between atoms: C_22  and  C_39
   15  A    between atoms: C_22  and  C_45
   16  A    between atoms: C_30  and  C_41
   17  A    between atoms: C_38  and  N_40
   18  A    between atoms: N_40  and  C_41
                            x       y       z     vdW  Elec       q    Type
                         _______ _______ _______ _____ _____    ______ ____

>  <TORSDO>
F 18

$$$$
