=
 OpenBabel10222417063D

 55 59  0  0  1  0  0  0  0  0999 V2000
  187.1600  178.7010  138.3010 O   0  0  0  0  0  0  0  0  0  0  0  0
  188.3140  178.1120  137.7260 C   0  0  2  0  0  3  0  0  0  0  0  0
  186.3340  176.8870  137.2850 N   0  0  0  0  0  0  0  0  0  0  0  0
  187.7720  176.8440  137.0570 C   0  0  1  0  0  3  0  0  0  0  0  0
  186.0610  177.9290  137.9930 C   0  0  0  0  0  0  0  0  0  0  0  0
  190.5000  177.2290  138.4960 C   0  0  0  0  0  2  0  0  0  0  0  0
  189.3280  177.8050  138.7950 C   0  0  0  0  0  0  0  0  0  0  0  0
  189.0720  178.2890  140.1890 C   0  0  0  0  0  2  0  0  0  0  0  0
  188.8600  177.1730  141.1070 N   0  0  0  0  0  2  0  0  0  0  0  0
  189.9810  177.0960  142.0350 C   0  0  0  0  0  2  0  0  0  0  0  0
  187.3390  176.7510  144.4540 O   0  0  0  0  0  0  0  0  0  0  0  0
  188.1930  177.5350  143.6630 C   0  0  0  0  0  2  0  0  0  0  0  0
  189.5060  176.8080  143.4500 C   0  0  2  0  0  3  0  0  0  0  0  0
  187.9240  177.2760  146.7810 C   0  0  0  0  0  2  0  0  0  0  0  0
  186.9590  177.4760  145.6100 C   0  0  1  0  0  3  0  0  0  0  0  0
  189.3010  177.8770  146.5320 C   0  0  0  0  0  2  0  0  0  0  0  0
  190.2150  176.8590  145.8690 C   0  0  0  0  0  2  0  0  0  0  0  0
  190.5520  177.2860  144.4470 C   0  0  0  0  0  2  0  0  0  0  0  0
  186.6890  178.8420  145.3660 O   0  0  0  0  0  0  0  0  0  0  0  0
  185.3050  179.0860  145.5230 C   0  0  2  0  0  3  0  0  0  0  0  0
  184.6930  178.4040  146.7450 C   0  0  0  0  0  1  0  0  0  0  0  0
  185.1370  179.1710  143.0030 N   0  0  0  0  0  2  0  0  0  0  0  0
  183.3390  178.4480  144.3040 O   0  0  0  0  0  0  0  0  0  0  0  0
  184.4610  178.9280  141.7410 C   0  0  0  0  0  1  0  0  0  0  0  0
  184.5170  178.8950  144.2600 C   0  0  0  0  0  0  0  0  0  0  0  0
  188.0760  176.8270  135.5690 C   0  0  0  0  0  2  0  0  0  0  0  0
  188.1860  174.3350  135.4980 C   0  0  0  0  0  0  0  0  0  0  0  0
  190.4280  173.3040  135.7990 N   0  0  1  0  0  0  0  0  0  0  0  0
  192.4060  173.8370  137.1290 C   0  0  0  0  0  1  0  0  0  0  0  0
  191.0640  174.5290  135.2300 C   0  0  2  0  0  3  0  0  0  0  0  0
  186.9740  174.1200  135.2360 O   0  0  0  0  0  0  0  0  0  0  0  0
  191.0460  174.3260  136.6720 C   0  0  1  0  0  3  0  0  0  0  0  0
  188.7730  175.5960  135.2380 N   0  0  0  0  0  0  0  0  0  0  0  0
  190.1310  175.6500  134.7240 C   0  0  0  0  0  2  0  0  0  0  0  0
  189.0050  173.2980  136.1730 C   0  0  0  0  0  2  0  0  0  0  0  0
  184.6780  178.2770  138.4210 C   0  0  0  0  0  2  0  0  0  0  0  0
  183.7190  177.4290  137.7360 N   0  0  0  0  0  2  0  0  0  0  0  0
  182.5460  178.2530  137.4880 C   0  0  1  0  0  3  0  0  0  0  0  0
  180.4050  174.8390  137.3240 C   0  0  2  0  0  3  0  0  0  0  0  0
  181.1580  176.1300  137.3670 N   0  0  0  0  0  0  0  0  0  0  0  0
  181.4540  177.4280  136.8580 C   0  0  0  0  0  0  0  0  0  0  0  0
  181.3420  175.0000  138.3230 C   0  0  0  0  0  2  0  0  0  0  0  0
  180.8320  177.8430  135.8440 O   0  0  0  0  0  0  0  0  0  0  0  0
  180.9710  173.9490  136.2220 C   0  0  1  0  0  3  0  0  0  0  0  0
  182.6530  172.1060  136.5230 C   0  0  0  0  0  0  0  0  0  0  0  0
  182.9740  170.9740  136.9680 O   0  0  0  0  0  0  0  0  0  0  0  0
  181.3340  172.6320  136.7520 N   0  0  0  0  0  0  0  0  0  0  0  0
  183.6760  172.8910  135.7650 C   0  0  0  0  0  1  0  0  0  0  0  0
  180.3830  171.8940  137.5890 C   0  0  0  0  0  2  0  0  0  0  0  0
  179.2640  171.2940  136.7440 C   0  0  0  0  0  2  0  0  0  0  0  0
  179.7570  170.1610  135.9800 N   0  0  0  0  0  1  0  0  0  0  0  0
  179.0340  174.8180  135.1450 O   0  0  0  0  0  1  0  0  0  0  0  0
  180.0020  173.8180  135.0560 C   0  0  0  0  0  2  0  0  0  0  0  0
  182.1020  178.9040  138.7950 C   0  0  0  0  0  2  0  0  0  0  0  0
  181.5720  180.3010  138.5280 C   0  0  0  0  0  1  0  0  0  0  0  0
  2  1  1  0  0  0  0
  2  7  1  1  0  0  0
  3  5  2  0  0  0  0
  4 26  1  6  0  0  0
  4  3  1  0  0  0  0
  4  2  1  0  0  0  0
  5  1  1  0  0  0  0
  5 36  1  0  0  0  0
  6  7  2  0  0  0  0
  7  8  1  0  0  0  0
  8  9  1  0  0  0  0
  9 10  1  0  0  0  0
 11 15  1  0  0  0  0
 12 11  1  0  0  0  0
 13 10  1  6  0  0  0
 13 12  1  0  0  0  0
 13 18  1  0  0  0  0
 15 19  1  6  0  0  0
 15 14  1  0  0  0  0
 16 14  1  0  0  0  0
 17 16  1  0  0  0  0
 18 17  1  0  0  0  0
 19 20  1  0  0  0  0
 20 21  1  1  0  0  0
 22 25  1  0  0  0  0
 24 22  1  0  0  0  0
 25 23  2  0  0  0  0
 25 20  1  0  0  0  0
 27 35  1  0  0  0  0
 28 35  1  1  0  0  0
 28 32  1  0  0  0  0
 30 34  1  1  0  0  0
 30 28  1  0  0  0  0
 30 32  1  0  0  0  0
 31 27  2  0  0  0  0
 32 29  1  6  0  0  0
 33 27  1  0  0  0  0
 33 26  1  0  0  0  0
 34 33  1  0  0  0  0
 37 36  1  0  0  0  0
 38 37  1  0  0  0  0
 38 54  1  1  0  0  0
 39 44  1  6  0  0  0
 39 40  1  0  0  0  0
 39 42  1  0  0  0  0
 40 42  1  0  0  0  0
 41 40  1  0  0  0  0
 41 38  1  0  0  0  0
 43 41  2  0  0  0  0
 44 53  1  6  0  0  0
 44 47  1  0  0  0  0
 45 47  1  0  0  0  0
 45 46  2  0  0  0  0
 47 49  1  0  0  0  0
 48 45  1  0  0  0  0
 50 49  1  0  0  0  0
 51 50  1  0  0  0  0
 53 52  1  0  0  0  0
 55 54  1  0  0  0  0
M  END
>  <MODEL>
1

>  <REMARK>
 VINA RESULT:      -6.7      0.000      0.000
  Name = 
  20 active torsions:
  status: ('A' for Active; 'I' for Inactive)
    1  A    between atoms: C_3  and  C_12
    2  A    between atoms: C_3  and  N_25
    3  A    between atoms: C_5  and  C_37
    4  A    between atoms: C_5  and  O_38
    5  A    between atoms: C_8  and  C_10
    6  A    between atoms: C_8  and  N_31
    7  A    between atoms: C_9  and  N_25
    8  A    between atoms: C_9  and  C_28
    9  A    between atoms: C_9  and  C_41
   10  A    between atoms: C_15  and  N_19
   11  A    between atoms: C_15  and  C_43
   12  A    between atoms: C_18  and  N_33
   13  A    between atoms: C_18  and  C_42
   14  A    between atoms: N_19  and  C_26
   15  A    between atoms: C_22  and  C_26
   16  A    between atoms: C_26  and  C_47
   17  A    between atoms: N_31  and  C_39
   18  A    between atoms: C_34  and  C_35
   19  A    between atoms: C_34  and  C_39
   20  A    between atoms: O_38  and  C_44
                            x       y       z     vdW  Elec       q    Type
                         _______ _______ _______ _____ _____    ______ ____

>  <TORSDO>
F 20

$$$$
=
 OpenBabel10222417063D

 55 59  0  0  1  0  0  0  0  0999 V2000
  188.7290  176.8410  142.1240 O   0  0  0  0  0  0  0  0  0  0  0  0
  190.0570  177.1800  142.4840 C   0  0  2  0  0  3  0  0  0  0  0  0
  188.5210  178.9470  142.8500 N   0  0  0  0  0  0  0  0  0  0  0  0
  189.9410  178.6360  142.9480 C   0  0  1  0  0  3  0  0  0  0  0  0
  187.9070  177.9190  142.3720 C   0  0  0  0  0  0  0  0  0  0  0  0
  192.2870  177.2590  141.3990 C   0  0  0  0  0  2  0  0  0  0  0  0
  190.9710  177.0300  141.2970 C   0  0  0  0  0  0  0  0  0  0  0  0
  190.4100  176.4740  140.0230 C   0  0  0  0  0  2  0  0  0  0  0  0
  190.5270  177.4350  138.9300 N   0  0  0  0  0  2  0  0  0  0  0  0
  189.4420  178.4040  139.0250 C   0  0  0  0  0  2  0  0  0  0  0  0
  186.1420  178.1670  137.6110 O   0  0  0  0  0  0  0  0  0  0  0  0
  187.2520  177.5990  138.2550 C   0  0  0  0  0  2  0  0  0  0  0  0
  188.5170  178.3150  137.8230 C   0  0  2  0  0  3  0  0  0  0  0  0
  185.9690  177.0140  135.4490 C   0  0  0  0  0  2  0  0  0  0  0  0
  185.4510  177.1690  136.8810 C   0  0  1  0  0  3  0  0  0  0  0  0
  187.3860  176.4600  135.3810 C   0  0  0  0  0  2  0  0  0  0  0  0
  188.4030  177.5900  135.4110 C   0  0  0  0  0  2  0  0  0  0  0  0
  189.2090  177.5520  136.7020 C   0  0  0  0  0  2  0  0  0  0  0  0
  185.3590  175.9280  137.5530 O   0  0  0  0  0  0  0  0  0  0  0  0
  184.4210  175.1010  136.8910 C   0  0  2  0  0  3  0  0  0  0  0  0
  182.9730  175.3610  137.3010 C   0  0  0  0  0  1  0  0  0  0  0  0
  184.4990  172.8500  135.7450 N   0  0  0  0  0  2  0  0  0  0  0  0
  185.4280  173.1530  137.8650 O   0  0  0  0  0  0  0  0  0  0  0  0
  184.9140  171.4620  135.6420 C   0  0  0  0  0  1  0  0  0  0  0  0
  184.8020  173.6490  136.8890 C   0  0  0  0  0  0  0  0  0  0  0  0
  190.4270  178.8040  144.3770 C   0  0  0  0  0  2  0  0  0  0  0  0
  189.2370  177.2660  145.9410 C   0  0  0  0  0  0  0  0  0  0  0  0
  190.6500  175.7460  147.3080 N   0  0  1  0  0  0  0  0  0  0  0  0
  192.8390  175.9240  148.3780 C   0  0  0  0  0  1  0  0  0  0  0  0
  191.6960  175.7660  146.2440 C   0  0  2  0  0  3  0  0  0  0  0  0
  188.0600  177.5800  145.6230 O   0  0  0  0  0  0  0  0  0  0  0  0
  191.8580  176.5900  147.4340 C   0  0  1  0  0  3  0  0  0  0  0  0
  190.3200  177.5320  145.0700 N   0  0  0  0  0  0  0  0  0  0  0  0
  191.3860  176.5510  144.9510 C   0  0  0  0  0  2  0  0  0  0  0  0
  189.5280  176.6960  147.2800 C   0  0  0  0  0  2  0  0  0  0  0  0
  186.4380  177.8940  142.1310 C   0  0  0  0  0  2  0  0  0  0  0  0
  185.7280  177.9600  143.3960 N   0  0  0  0  0  2  0  0  0  0  0  0
  184.8620  179.1270  143.3190 C   0  0  1  0  0  3  0  0  0  0  0  0
  182.2040  178.0780  140.4730 C   0  0  2  0  0  3  0  0  0  0  0  0
  183.1640  178.4380  141.5610 N   0  0  0  0  0  0  0  0  0  0  0  0
  183.4670  178.7140  142.9260 C   0  0  0  0  0  0  0  0  0  0  0  0
  183.5210  178.2900  140.1210 C   0  0  0  0  0  2  0  0  0  0  0  0
  182.5420  178.6640  143.7800 O   0  0  0  0  0  0  0  0  0  0  0  0
  181.3670  179.2970  140.1000 C   0  0  1  0  0  3  0  0  0  0  0  0
  181.1750  180.4950  137.8990 C   0  0  0  0  0  0  0  0  0  0  0  0
  180.8930  180.5000  136.6730 O   0  0  0  0  0  0  0  0  0  0  0  0
  181.0420  179.2890  138.6710 N   0  0  0  0  0  0  0  0  0  0  0  0
  181.6590  181.7630  138.5260 C   0  0  0  0  0  1  0  0  0  0  0  0
  180.6700  178.0320  138.0140 C   0  0  0  0  0  2  0  0  0  0  0  0
  179.1730  177.7700  138.1450 C   0  0  0  0  0  2  0  0  0  0  0  0
  178.9310  176.3950  138.5450 N   0  0  0  0  0  1  0  0  0  0  0  0
  179.9080  178.1790  141.6140 O   0  0  0  0  0  1  0  0  0  0  0  0
  180.1040  179.3870  140.9450 C   0  0  0  0  0  2  0  0  0  0  0  0
  184.8950  179.8680  144.6520 C   0  0  0  0  0  2  0  0  0  0  0  0
  185.1740  178.8950  145.7830 C   0  0  0  0  0  1  0  0  0  0  0  0
  1  5  1  0  0  0  0
  1  2  1  0  0  0  0
  2  7  1  6  0  0  0
  2  4  1  0  0  0  0
  3  4  1  0  0  0  0
  4 26  1  1  0  0  0
  5  3  2  0  0  0  0
  7  6  2  0  0  0  0
  8  7  1  0  0  0  0
  9 10  1  0  0  0  0
  9  8  1  0  0  0  0
 11 12  1  0  0  0  0
 13 12  1  0  0  0  0
 13 10  1  1  0  0  0
 14 15  1  0  0  0  0
 15 19  1  1  0  0  0
 15 11  1  0  0  0  0
 16 17  1  0  0  0  0
 16 14  1  0  0  0  0
 17 18  1  0  0  0  0
 18 13  1  0  0  0  0
 20 21  1  1  0  0  0
 20 19  1  0  0  0  0
 22 25  1  0  0  0  0
 24 22  1  0  0  0  0
 25 20  1  0  0  0  0
 25 23  2  0  0  0  0
 26 33  1  0  0  0  0
 27 35  1  0  0  0  0
 28 35  1  6  0  0  0
 28 32  1  0  0  0  0
 30 34  1  6  0  0  0
 30 28  1  0  0  0  0
 30 32  1  0  0  0  0
 31 27  2  0  0  0  0
 32 29  1  1  0  0  0
 33 27  1  0  0  0  0
 34 33  1  0  0  0  0
 36  5  1  0  0  0  0
 36 37  1  0  0  0  0
 38 37  1  0  0  0  0
 38 54  1  1  0  0  0
 39 44  1  6  0  0  0
 39 40  1  0  0  0  0
 40 41  1  0  0  0  0
 41 38  1  0  0  0  0
 41 43  2  0  0  0  0
 42 39  1  0  0  0  0
 42 40  1  0  0  0  0
 44 53  1  1  0  0  0
 45 48  1  0  0  0  0
 45 47  1  0  0  0  0
 46 45  2  0  0  0  0
 47 44  1  0  0  0  0
 49 50  1  0  0  0  0
 49 47  1  0  0  0  0
 50 51  1  0  0  0  0
 53 52  1  0  0  0  0
 54 55  1  0  0  0  0
M  END
>  <MODEL>
2

>  <REMARK>
 VINA RESULT:      -6.6      2.762      8.093
  Name = 
  20 active torsions:
  status: ('A' for Active; 'I' for Inactive)
    1  A    between atoms: C_3  and  C_12
    2  A    between atoms: C_3  and  N_25
    3  A    between atoms: C_5  and  C_37
    4  A    between atoms: C_5  and  O_38
    5  A    between atoms: C_8  and  C_10
    6  A    between atoms: C_8  and  N_31
    7  A    between atoms: C_9  and  N_25
    8  A    between atoms: C_9  and  C_28
    9  A    between atoms: C_9  and  C_41
   10  A    between atoms: C_15  and  N_19
   11  A    between atoms: C_15  and  C_43
   12  A    between atoms: C_18  and  N_33
   13  A    between atoms: C_18  and  C_42
   14  A    between atoms: N_19  and  C_26
   15  A    between atoms: C_22  and  C_26
   16  A    between atoms: C_26  and  C_47
   17  A    between atoms: N_31  and  C_39
   18  A    between atoms: C_34  and  C_35
   19  A    between atoms: C_34  and  C_39
   20  A    between atoms: O_38  and  C_44
                            x       y       z     vdW  Elec       q    Type
                         _______ _______ _______ _____ _____    ______ ____

>  <TORSDO>
F 20

$$$$
=
 OpenBabel10222417063D

 55 59  0  0  1  0  0  0  0  0999 V2000
  188.4780  178.4170  138.2430 O   0  0  0  0  0  0  0  0  0  0  0  0
  189.7200  177.8470  137.8700 C   0  0  2  0  0  3  0  0  0  0  0  0
  187.8660  176.7400  136.8940 N   0  0  0  0  0  0  0  0  0  0  0  0
  189.3190  176.6690  136.9740 C   0  0  1  0  0  3  0  0  0  0  0  0
  187.4600  177.7170  137.6310 C   0  0  0  0  0  0  0  0  0  0  0  0
  191.5730  176.6390  138.9930 C   0  0  0  0  0  2  0  0  0  0  0  0
  190.4760  177.4010  139.0930 C   0  0  0  0  0  0  0  0  0  0  0  0
  190.0710  177.9480  140.4280 C   0  0  0  0  0  2  0  0  0  0  0  0
  190.5640  177.1080  141.5160 N   0  0  0  0  0  2  0  0  0  0  0  0
  189.5160  176.1760  141.9140 C   0  0  0  0  0  2  0  0  0  0  0  0
  187.2660  176.4580  144.7090 O   0  0  0  0  0  0  0  0  0  0  0  0
  187.9760  177.0170  143.6350 C   0  0  0  0  0  2  0  0  0  0  0  0
  189.2600  176.2420  143.4110 C   0  0  2  0  0  3  0  0  0  0  0  0
  188.1740  177.5200  146.7290 C   0  0  0  0  0  2  0  0  0  0  0  0
  187.0430  177.4450  145.7000 C   0  0  1  0  0  3  0  0  0  0  0  0
  189.4850  178.0240  146.1420 C   0  0  0  0  0  2  0  0  0  0  0  0
  190.3150  176.8640  145.6150 C   0  0  0  0  0  2  0  0  0  0  0  0
  190.4300  176.9320  144.0980 C   0  0  0  0  0  2  0  0  0  0  0  0
  186.7100  178.7160  145.1780 O   0  0  0  0  0  0  0  0  0  0  0  0
  185.3390  178.9770  145.4060 C   0  0  2  0  0  3  0  0  0  0  0  0
  184.7680  178.2550  146.6250 C   0  0  0  0  0  1  0  0  0  0  0  0
  185.1230  178.8670  142.8910 N   0  0  0  0  0  2  0  0  0  0  0  0
  183.2480  178.6800  144.2680 O   0  0  0  0  0  0  0  0  0  0  0  0
  184.3750  178.6650  141.6620 C   0  0  0  0  0  1  0  0  0  0  0  0
  184.4930  178.8500  144.1720 C   0  0  0  0  0  0  0  0  0  0  0  0
  189.9360  176.7870  135.5920 C   0  0  0  0  0  2  0  0  0  0  0  0
  190.1400  174.3060  135.4140 C   0  0  0  0  0  0  0  0  0  0  0  0
  192.3390  173.3170  136.0160 N   0  0  1  0  0  0  0  0  0  0  0  0
  194.0630  173.8250  137.6700 C   0  0  0  0  0  1  0  0  0  0  0  0
  193.0160  174.5870  135.6190 C   0  0  2  0  0  3  0  0  0  0  0  0
  188.9930  174.0750  134.9510 O   0  0  0  0  0  0  0  0  0  0  0  0
  192.7770  174.3040  137.0270 C   0  0  1  0  0  3  0  0  0  0  0  0
  190.7170  175.5940  135.3140 N   0  0  0  0  0  0  0  0  0  0  0  0
  192.1380  175.7100  135.0270 C   0  0  0  0  0  2  0  0  0  0  0  0
  190.8760  173.2550  136.1580 C   0  0  0  0  0  2  0  0  0  0  0  0
  186.0220  178.0700  137.7870 C   0  0  0  0  0  2  0  0  0  0  0  0
  185.2350  177.4060  136.7640 N   0  0  0  0  0  2  0  0  0  0  0  0
  184.0820  176.8330  137.4410 C   0  0  1  0  0  3  0  0  0  0  0  0
  181.4450  179.8360  137.9850 C   0  0  2  0  0  3  0  0  0  0  0  0
  182.4120  178.7230  137.7330 N   0  0  0  0  0  0  0  0  0  0  0  0
  182.8260  177.5550  137.0290 C   0  0  0  0  0  0  0  0  0  0  0  0
  182.5730  179.7770  138.7770 C   0  0  0  0  0  2  0  0  0  0  0  0
  182.0970  177.1100  136.1030 O   0  0  0  0  0  0  0  0  0  0  0  0
  180.2420  179.3080  138.7590 C   0  0  1  0  0  3  0  0  0  0  0  0
  179.8300  180.3640  141.0020 C   0  0  0  0  0  0  0  0  0  0  0  0
  179.3150  181.2650  141.7130 O   0  0  0  0  0  0  0  0  0  0  0  0
  179.6420  180.3660  139.5750 N   0  0  0  0  0  0  0  0  0  0  0  0
  180.6450  179.3040  141.6710 C   0  0  0  0  0  1  0  0  0  0  0  0
  178.9310  181.4730  138.9280 C   0  0  0  0  0  2  0  0  0  0  0  0
  179.8870  182.6110  138.5880 C   0  0  0  0  0  2  0  0  0  0  0  0
  179.5060  183.2350  137.3320 N   0  0  0  0  0  1  0  0  0  0  0  0
  179.1730  177.3070  138.0350 O   0  0  0  0  0  1  0  0  0  0  0  0
  179.2090  178.6860  137.8300 C   0  0  0  0  0  2  0  0  0  0  0  0
  184.0160  175.3370  137.1470 C   0  0  0  0  0  2  0  0  0  0  0  0
  183.2920  174.6160  138.2690 C   0  0  0  0  0  1  0  0  0  0  0  0
  2  1  1  0  0  0  0
  2  7  1  1  0  0  0
  3  4  1  0  0  0  0
  3  5  2  0  0  0  0
  4 26  1  6  0  0  0
  4  2  1  0  0  0  0
  5 36  1  0  0  0  0
  5  1  1  0  0  0  0
  6  7  2  0  0  0  0
  7  8  1  0  0  0  0
  8  9  1  0  0  0  0
  9 10  1  0  0  0  0
 11 15  1  0  0  0  0
 12 11  1  0  0  0  0
 13 10  1  6  0  0  0
 13 12  1  0  0  0  0
 13 18  1  0  0  0  0
 15 19  1  6  0  0  0
 15 14  1  0  0  0  0
 16 14  1  0  0  0  0
 17 16  1  0  0  0  0
 18 17  1  0  0  0  0
 19 20  1  0  0  0  0
 20 21  1  1  0  0  0
 22 25  1  0  0  0  0
 24 22  1  0  0  0  0
 25 23  2  0  0  0  0
 25 20  1  0  0  0  0
 27 35  1  0  0  0  0
 28 35  1  6  0  0  0
 28 32  1  0  0  0  0
 30 34  1  6  0  0  0
 30 28  1  0  0  0  0
 30 32  1  0  0  0  0
 31 27  2  0  0  0  0
 32 29  1  1  0  0  0
 33 27  1  0  0  0  0
 33 26  1  0  0  0  0
 34 33  1  0  0  0  0
 37 38  1  0  0  0  0
 37 36  1  0  0  0  0
 38 54  1  6  0  0  0
 39 44  1  1  0  0  0
 39 42  1  0  0  0  0
 40 39  1  0  0  0  0
 40 42  1  0  0  0  0
 41 38  1  0  0  0  0
 41 40  1  0  0  0  0
 43 41  2  0  0  0  0
 44 53  1  6  0  0  0
 44 47  1  0  0  0  0
 45 48  1  0  0  0  0
 45 46  2  0  0  0  0
 47 45  1  0  0  0  0
 49 47  1  0  0  0  0
 50 49  1  0  0  0  0
 51 50  1  0  0  0  0
 53 52  1  0  0  0  0
 54 55  1  0  0  0  0
M  END
>  <MODEL>
3

>  <REMARK>
 VINA RESULT:      -6.5      2.504      4.396
  Name = 
  20 active torsions:
  status: ('A' for Active; 'I' for Inactive)
    1  A    between atoms: C_3  and  C_12
    2  A    between atoms: C_3  and  N_25
    3  A    between atoms: C_5  and  C_37
    4  A    between atoms: C_5  and  O_38
    5  A    between atoms: C_8  and  C_10
    6  A    between atoms: C_8  and  N_31
    7  A    between atoms: C_9  and  N_25
    8  A    between atoms: C_9  and  C_28
    9  A    between atoms: C_9  and  C_41
   10  A    between atoms: C_15  and  N_19
   11  A    between atoms: C_15  and  C_43
   12  A    between atoms: C_18  and  N_33
   13  A    between atoms: C_18  and  C_42
   14  A    between atoms: N_19  and  C_26
   15  A    between atoms: C_22  and  C_26
   16  A    between atoms: C_26  and  C_47
   17  A    between atoms: N_31  and  C_39
   18  A    between atoms: C_34  and  C_35
   19  A    between atoms: C_34  and  C_39
   20  A    between atoms: O_38  and  C_44
                            x       y       z     vdW  Elec       q    Type
                         _______ _______ _______ _____ _____    ______ ____

>  <TORSDO>
F 20

$$$$
=
 OpenBabel10222417063D

 55 59  0  0  1  0  0  0  0  0999 V2000
  189.5130  178.1430  139.2460 O   0  0  0  0  0  0  0  0  0  0  0  0
  188.5430  178.5080  140.2120 C   0  0  2  0  0  3  0  0  0  0  0  0
  189.9620  176.7570  140.9430 N   0  0  0  0  0  0  0  0  0  0  0  0
  188.8100  177.5400  141.3700 C   0  0  1  0  0  3  0  0  0  0  0  0
  190.2920  177.1260  139.7530 C   0  0  0  0  0  0  0  0  0  0  0  0
  186.0730  178.6790  140.3560 C   0  0  0  0  0  2  0  0  0  0  0  0
  187.1580  178.3500  139.6440 C   0  0  0  0  0  0  0  0  0  0  0  0
  187.0120  177.9570  138.2050 C   0  0  0  0  0  2  0  0  0  0  0  0
  185.6610  178.2220  137.7190 N   0  0  0  0  0  2  0  0  0  0  0  0
  185.1170  177.0070  137.1260 C   0  0  0  0  0  2  0  0  0  0  0  0
  181.9080  178.4650  137.8510 O   0  0  0  0  0  0  0  0  0  0  0  0
  183.1990  178.0700  138.2350 C   0  0  0  0  0  2  0  0  0  0  0  0
  183.6320  176.8690  137.4170 C   0  0  2  0  0  3  0  0  0  0  0  0
  180.3700  177.0920  139.1870 C   0  0  0  0  0  2  0  0  0  0  0  0
  181.0490  178.4480  138.9770 C   0  0  1  0  0  3  0  0  0  0  0  0
  181.3440  175.9900  139.5800 C   0  0  0  0  0  2  0  0  0  0  0  0
  181.8920  175.2960  138.3430 C   0  0  0  0  0  2  0  0  0  0  0  0
  183.3800  175.5780  138.1850 C   0  0  0  0  0  2  0  0  0  0  0  0
  181.6480  178.9360  140.1620 O   0  0  0  0  0  0  0  0  0  0  0  0
  180.6520  179.1370  141.1460 C   0  0  2  0  0  3  0  0  0  0  0  0
  179.9590  180.4950  141.0560 C   0  0  0  0  0  1  0  0  0  0  0  0
  182.4320  179.0870  142.9390 N   0  0  0  0  0  2  0  0  0  0  0  0
  180.2960  178.2400  143.3430 O   0  0  0  0  0  0  0  0  0  0  0  0
  182.9040  178.8390  144.2900 C   0  0  0  0  0  1  0  0  0  0  0  0
  181.1010  178.7720  142.5320 C   0  0  0  0  0  0  0  0  0  0  0  0
  189.1190  178.2860  142.6570 C   0  0  0  0  0  2  0  0  0  0  0  0
  187.2300  177.5490  144.1120 C   0  0  0  0  0  0  0  0  0  0  0  0
  187.7490  177.1660  146.5120 N   0  0  1  0  0  0  0  0  0  0  0  0
  189.2330  178.2150  148.1440 C   0  0  0  0  0  1  0  0  0  0  0  0
  189.1580  176.8320  146.1510 C   0  0  2  0  0  3  0  0  0  0  0  0
  186.3520  177.4600  143.2150 O   0  0  0  0  0  0  0  0  0  0  0  0
  188.8390  178.1510  146.6810 C   0  0  1  0  0  3  0  0  0  0  0  0
  188.6070  177.5260  143.7840 N   0  0  0  0  0  0  0  0  0  0  0  0
  189.5270  176.8100  144.6520 C   0  0  0  0  0  2  0  0  0  0  0  0
  186.8420  177.7730  145.5260 C   0  0  0  0  0  2  0  0  0  0  0  0
  191.4290  176.5210  139.0050 C   0  0  0  0  0  2  0  0  0  0  0  0
  191.0190  175.2570  138.4180 N   0  0  0  0  0  2  0  0  0  0  0  0
  190.4580  175.5740  137.1140 C   0  0  1  0  0  3  0  0  0  0  0  0
  193.6450  173.6840  135.5220 C   0  0  2  0  0  3  0  0  0  0  0  0
  192.4510  174.4010  136.0650 N   0  0  0  0  0  0  0  0  0  0  0  0
  191.5240  175.4840  136.0540 C   0  0  0  0  0  0  0  0  0  0  0  0
  193.0040  173.1260  136.6080 C   0  0  0  0  0  2  0  0  0  0  0  0
  191.6500  176.3860  135.1830 O   0  0  0  0  0  0  0  0  0  0  0  0
  194.9200  174.3860  135.9790 C   0  0  1  0  0  3  0  0  0  0  0  0
  196.8230  173.3940  137.2860 C   0  0  0  0  0  0  0  0  0  0  0  0
  197.7810  172.5850  137.3880 O   0  0  0  0  0  0  0  0  0  0  0  0
  196.0290  173.4350  136.0880 N   0  0  0  0  0  0  0  0  0  0  0  0
  196.5260  174.2980  138.4390 C   0  0  0  0  0  1  0  0  0  0  0  0
  196.2680  172.4670  135.0130 C   0  0  0  0  0  2  0  0  0  0  0  0
  196.0270  171.0410  135.4990 C   0  0  0  0  0  2  0  0  0  0  0  0
  194.8530  170.4770  134.8550 N   0  0  0  0  0  1  0  0  0  0  0  0
  195.0510  176.7490  135.7150 O   0  0  0  0  0  1  0  0  0  0  0  0
  195.2830  175.5420  135.0570 C   0  0  0  0  0  2  0  0  0  0  0  0
  189.2790  174.6470  136.8340 C   0  0  0  0  0  2  0  0  0  0  0  0
  188.3160  175.3060  135.8630 C   0  0  0  0  0  1  0  0  0  0  0  0
  1  5  1  0  0  0  0
  1  2  1  0  0  0  0
  2  7  1  6  0  0  0
  2  4  1  0  0  0  0
  3  4  1  0  0  0  0
  4 26  1  1  0  0  0
  5  3  2  0  0  0  0
  7  6  2  0  0  0  0
  8  7  1  0  0  0  0
  9  8  1  0  0  0  0
 10  9  1  0  0  0  0
 11 12  1  0  0  0  0
 11 15  1  0  0  0  0
 13 10  1  1  0  0  0
 13 18  1  0  0  0  0
 13 12  1  0  0  0  0
 14 16  1  0  0  0  0
 15 14  1  0  0  0  0
 15 19  1  1  0  0  0
 17 16  1  0  0  0  0
 18 17  1  0  0  0  0
 19 20  1  0  0  0  0
 20 21  1  1  0  0  0
 20 25  1  0  0  0  0
 22 24  1  0  0  0  0
 25 22  1  0  0  0  0
 25 23  2  0  0  0  0
 26 33  1  0  0  0  0
 27 35  1  0  0  0  0
 28 35  1  6  0  0  0
 28 32  1  0  0  0  0
 30 34  1  6  0  0  0
 30 28  1  0  0  0  0
 30 32  1  0  0  0  0
 31 27  2  0  0  0  0
 32 29  1  1  0  0  0
 33 27  1  0  0  0  0
 33 34  1  0  0  0  0
 36  5  1  0  0  0  0
 37 36  1  0  0  0  0
 38 54  1  6  0  0  0
 38 37  1  0  0  0  0
 39 44  1  1  0  0  0
 39 40  1  0  0  0  0
 39 42  1  0  0  0  0
 40 42  1  0  0  0  0
 41 40  1  0  0  0  0
 41 38  1  0  0  0  0
 43 41  2  0  0  0  0
 44 53  1  6  0  0  0
 44 47  1  0  0  0  0
 45 46  2  0  0  0  0
 45 48  1  0  0  0  0
 47 45  1  0  0  0  0
 49 50  1  0  0  0  0
 49 47  1  0  0  0  0
 51 50  1  0  0  0  0
 53 52  1  0  0  0  0
 55 54  1  0  0  0  0
M  END
>  <MODEL>
4

>  <REMARK>
 VINA RESULT:      -6.4      3.257      9.950
  Name = 
  20 active torsions:
  status: ('A' for Active; 'I' for Inactive)
    1  A    between atoms: C_3  and  C_12
    2  A    between atoms: C_3  and  N_25
    3  A    between atoms: C_5  and  C_37
    4  A    between atoms: C_5  and  O_38
    5  A    between atoms: C_8  and  C_10
    6  A    between atoms: C_8  and  N_31
    7  A    between atoms: C_9  and  N_25
    8  A    between atoms: C_9  and  C_28
    9  A    between atoms: C_9  and  C_41
   10  A    between atoms: C_15  and  N_19
   11  A    between atoms: C_15  and  C_43
   12  A    between atoms: C_18  and  N_33
   13  A    between atoms: C_18  and  C_42
   14  A    between atoms: N_19  and  C_26
   15  A    between atoms: C_22  and  C_26
   16  A    between atoms: C_26  and  C_47
   17  A    between atoms: N_31  and  C_39
   18  A    between atoms: C_34  and  C_35
   19  A    between atoms: C_34  and  C_39
   20  A    between atoms: O_38  and  C_44
                            x       y       z     vdW  Elec       q    Type
                         _______ _______ _______ _____ _____    ______ ____

>  <TORSDO>
F 20

$$$$
=
 OpenBabel10222417063D

 55 59  0  0  1  0  0  0  0  0999 V2000
  187.3210  177.8160  140.1600 O   0  0  0  0  0  0  0  0  0  0  0  0
  188.6340  177.2880  140.2290 C   0  0  2  0  0  3  0  0  0  0  0  0
  188.0010  178.4530  142.1930 N   0  0  0  0  0  0  0  0  0  0  0  0
  189.1320  177.7490  141.6040 C   0  0  1  0  0  3  0  0  0  0  0  0
  187.0360  178.4700  141.3390 C   0  0  0  0  0  0  0  0  0  0  0  0
  189.1040  178.9320  138.4320 C   0  0  0  0  0  2  0  0  0  0  0  0
  189.4740  177.8340  139.1060 C   0  0  0  0  0  0  0  0  0  0  0  0
  190.8150  177.2190  138.8450 C   0  0  0  0  0  2  0  0  0  0  0  0
  190.7040  175.7780  138.6380 N   0  0  0  0  0  2  0  0  0  0  0  0
  190.1330  175.5250  137.3210 C   0  0  0  0  0  2  0  0  0  0  0  0
  192.2110  172.7820  136.2670 O   0  0  0  0  0  0  0  0  0  0  0  0
  191.9210  173.8500  137.1310 C   0  0  0  0  0  2  0  0  0  0  0  0
  191.1640  174.9270  136.3790 C   0  0  2  0  0  3  0  0  0  0  0  0
  194.3170  173.3830  135.1550 C   0  0  0  0  0  2  0  0  0  0  0  0
  193.6090  172.5600  136.2350 C   0  0  1  0  0  3  0  0  0  0  0  0
  194.2920  174.8800  135.4300 C   0  0  0  0  0  2  0  0  0  0  0  0
  193.0550  175.5150  134.8170 C   0  0  0  0  0  2  0  0  0  0  0  0
  192.1150  176.0180  135.9040 C   0  0  0  0  0  2  0  0  0  0  0  0
  194.2380  172.6800  137.4960 O   0  0  0  0  0  0  0  0  0  0  0  0
  195.5870  172.2680  137.3920 C   0  0  2  0  0  3  0  0  0  0  0  0
  195.8050  170.7870  137.6910 C   0  0  0  0  0  1  0  0  0  0  0  0
  197.8190  173.4460  137.5140 N   0  0  0  0  0  2  0  0  0  0  0  0
  196.2100  173.7440  139.1780 O   0  0  0  0  0  0  0  0  0  0  0  0
  198.7600  174.3830  138.1040 C   0  0  0  0  0  1  0  0  0  0  0  0
  196.5460  173.1800  138.1020 C   0  0  0  0  0  0  0  0  0  0  0  0
  189.5390  176.5710  142.4710 C   0  0  0  0  0  2  0  0  0  0  0  0
  191.3250  176.3530  144.2010 C   0  0  0  0  0  0  0  0  0  0  0  0
  190.7930  177.2040  146.4740 N   0  0  1  0  0  0  0  0  0  0  0  0
  188.7840  177.2760  147.8620 C   0  0  0  0  0  1  0  0  0  0  0  0
  189.8420  178.1900  145.8790 C   0  0  2  0  0  3  0  0  0  0  0  0
  192.2190  175.8690  143.4590 O   0  0  0  0  0  0  0  0  0  0  0  0
  189.3330  176.9660  146.4830 C   0  0  1  0  0  3  0  0  0  0  0  0
  190.2310  177.0620  143.6510 N   0  0  0  0  0  0  0  0  0  0  0  0
  189.7370  178.2420  144.3400 C   0  0  0  0  0  2  0  0  0  0  0  0
  191.3490  176.1100  145.6640 C   0  0  0  0  0  2  0  0  0  0  0  0
  185.7250  179.1200  141.6120 C   0  0  0  0  0  2  0  0  0  0  0  0
  184.8590  178.2050  142.3330 N   0  0  0  0  0  2  0  0  0  0  0  0
  184.0770  179.0180  143.2520 C   0  0  1  0  0  3  0  0  0  0  0  0
  181.1730  178.4200  140.5180 C   0  0  2  0  0  3  0  0  0  0  0  0
  182.2180  178.6230  141.5680 N   0  0  0  0  0  0  0  0  0  0  0  0
  182.6150  178.9400  142.8990 C   0  0  0  0  0  0  0  0  0  0  0  0
  182.4910  178.2540  140.1480 C   0  0  0  0  0  2  0  0  0  0  0  0
  181.7270  179.2080  143.7540 O   0  0  0  0  0  0  0  0  0  0  0  0
  180.6640  179.7720  140.0280 C   0  0  1  0  0  3  0  0  0  0  0  0
  181.0200  180.7410  137.7370 C   0  0  0  0  0  0  0  0  0  0  0  0
  180.8130  180.7310  136.4960 O   0  0  0  0  0  0  0  0  0  0  0  0
  180.4210  179.7450  138.5840 N   0  0  0  0  0  0  0  0  0  0  0  0
  181.9070  181.8030  138.3050 C   0  0  0  0  0  1  0  0  0  0  0  0
  179.6430  178.6500  137.9950 C   0  0  0  0  0  2  0  0  0  0  0  0
  180.5200  177.7730  137.1070 C   0  0  0  0  0  2  0  0  0  0  0  0
  179.9430  176.4470  136.9750 N   0  0  0  0  0  1  0  0  0  0  0  0
  179.7860  180.9290  141.9150 O   0  0  0  0  0  1  0  0  0  0  0  0
  179.4150  180.2060  140.7820 C   0  0  0  0  0  2  0  0  0  0  0  0
  184.3550  178.5690  144.6830 C   0  0  0  0  0  2  0  0  0  0  0  0
  185.8470  178.6060  144.9610 C   0  0  0  0  0  1  0  0  0  0  0  0
  1  2  1  0  0  0  0
  1  5  1  0  0  0  0
  2  7  1  6  0  0  0
  2  4  1  0  0  0  0
  4  3  1  0  0  0  0
  4 26  1  1  0  0  0
  5 36  1  0  0  0  0
  5  3  2  0  0  0  0
  6  7  2  0  0  0  0
  8  7  1  0  0  0  0
  9  8  1  0  0  0  0
 10  9  1  0  0  0  0
 11 12  1  0  0  0  0
 13 12  1  0  0  0  0
 13 10  1  1  0  0  0
 14 16  1  0  0  0  0
 14 15  1  0  0  0  0
 15 11  1  0  0  0  0
 15 19  1  1  0  0  0
 17 16  1  0  0  0  0
 17 18  1  0  0  0  0
 18 13  1  0  0  0  0
 20 19  1  0  0  0  0
 20 21  1  1  0  0  0
 20 25  1  0  0  0  0
 22 25  1  0  0  0  0
 22 24  1  0  0  0  0
 25 23  2  0  0  0  0
 26 33  1  0  0  0  0
 27 35  1  0  0  0  0
 28 35  1  6  0  0  0
 28 32  1  0  0  0  0
 30 34  1  6  0  0  0
 30 28  1  0  0  0  0
 30 32  1  0  0  0  0
 31 27  2  0  0  0  0
 32 29  1  1  0  0  0
 33 27  1  0  0  0  0
 33 34  1  0  0  0  0
 36 37  1  0  0  0  0
 37 38  1  0  0  0  0
 38 54  1  1  0  0  0
 39 44  1  6  0  0  0
 39 40  1  0  0  0  0
 40 41  1  0  0  0  0
 41 38  1  0  0  0  0
 41 43  2  0  0  0  0
 42 39  1  0  0  0  0
 42 40  1  0  0  0  0
 44 53  1  1  0  0  0
 45 48  1  0  0  0  0
 45 47  1  0  0  0  0
 46 45  2  0  0  0  0
 47 44  1  0  0  0  0
 49 47  1  0  0  0  0
 50 49  1  0  0  0  0
 51 50  1  0  0  0  0
 53 52  1  0  0  0  0
 54 55  1  0  0  0  0
M  END
>  <MODEL>
5

>  <REMARK>
 VINA RESULT:      -6.3      3.401      9.167
  Name = 
  20 active torsions:
  status: ('A' for Active; 'I' for Inactive)
    1  A    between atoms: C_3  and  C_12
    2  A    between atoms: C_3  and  N_25
    3  A    between atoms: C_5  and  C_37
    4  A    between atoms: C_5  and  O_38
    5  A    between atoms: C_8  and  C_10
    6  A    between atoms: C_8  and  N_31
    7  A    between atoms: C_9  and  N_25
    8  A    between atoms: C_9  and  C_28
    9  A    between atoms: C_9  and  C_41
   10  A    between atoms: C_15  and  N_19
   11  A    between atoms: C_15  and  C_43
   12  A    between atoms: C_18  and  N_33
   13  A    between atoms: C_18  and  C_42
   14  A    between atoms: N_19  and  C_26
   15  A    between atoms: C_22  and  C_26
   16  A    between atoms: C_26  and  C_47
   17  A    between atoms: N_31  and  C_39
   18  A    between atoms: C_34  and  C_35
   19  A    between atoms: C_34  and  C_39
   20  A    between atoms: O_38  and  C_44
                            x       y       z     vdW  Elec       q    Type
                         _______ _______ _______ _____ _____    ______ ____

>  <TORSDO>
F 20

$$$$
=
 OpenBabel10222417063D

 55 59  0  0  1  0  0  0  0  0999 V2000
  189.8620  177.1940  140.1940 O   0  0  0  0  0  0  0  0  0  0  0  0
  190.0640  176.7710  138.8570 C   0  0  2  0  0  3  0  0  0  0  0  0
  192.0920  177.1300  140.0290 N   0  0  0  0  0  0  0  0  0  0  0  0
  191.5900  176.7580  138.7130 C   0  0  1  0  0  3  0  0  0  0  0  0
  191.0870  177.3750  140.7980 C   0  0  0  0  0  0  0  0  0  0  0  0
  189.0520  178.9640  138.2910 C   0  0  0  0  0  2  0  0  0  0  0  0
  189.4090  177.7320  137.9020 C   0  0  0  0  0  0  0  0  0  0  0  0
  189.2930  177.3470  136.4590 C   0  0  0  0  0  2  0  0  0  0  0  0
  187.9790  176.7850  136.1640 N   0  0  0  0  0  2  0  0  0  0  0  0
  188.1450  175.5290  135.4410 C   0  0  0  0  0  2  0  0  0  0  0  0
  184.6100  174.8610  135.3560 O   0  0  0  0  0  0  0  0  0  0  0  0
  185.7400  175.4540  135.9400 C   0  0  0  0  0  2  0  0  0  0  0  0
  186.9640  174.6010  135.6710 C   0  0  2  0  0  3  0  0  0  0  0  0
  183.7690  173.2590  137.0180 C   0  0  0  0  0  2  0  0  0  0  0  0
  183.6260  174.6280  136.3480 C   0  0  1  0  0  3  0  0  0  0  0  0
  185.0310  173.1340  137.8610 C   0  0  0  0  0  2  0  0  0  0  0  0
  186.1870  172.6170  137.0190 C   0  0  0  0  0  2  0  0  0  0  0  0
  187.2540  173.6900  136.8560 C   0  0  0  0  0  2  0  0  0  0  0  0
  183.5050  175.6750  137.2910 O   0  0  0  0  0  0  0  0  0  0  0  0
  182.2530  176.3130  137.1300 C   0  0  2  0  0  3  0  0  0  0  0  0
  182.3030  177.8270  137.3210 C   0  0  0  0  0  1  0  0  0  0  0  0
  181.1940  175.5800  139.3040 N   0  0  0  0  0  2  0  0  0  0  0  0
  180.1420  175.1790  137.2600 O   0  0  0  0  0  0  0  0  0  0  0  0
  180.1110  175.0200  140.0940 C   0  0  0  0  0  1  0  0  0  0  0  0
  181.1390  175.6410  137.8790 C   0  0  0  0  0  0  0  0  0  0  0  0
  192.0990  175.3840  138.3160 C   0  0  0  0  0  2  0  0  0  0  0  0
  192.4200  174.4200  136.0360 C   0  0  0  0  0  0  0  0  0  0  0  0
  194.6030  174.8600  134.9320 N   0  0  1  0  0  0  0  0  0  0  0  0
  196.9130  175.0640  135.6980 C   0  0  0  0  0  1  0  0  0  0  0  0
  194.7340  176.1310  135.7030 C   0  0  2  0  0  3  0  0  0  0  0  0
  191.2710  173.9250  135.8990 O   0  0  0  0  0  0  0  0  0  0  0  0
  195.4650  174.9460  136.1310 C   0  0  1  0  0  3  0  0  0  0  0  0
  192.6600  175.4500  136.9780 N   0  0  0  0  0  0  0  0  0  0  0  0
  193.5610  176.5330  136.6230 C   0  0  0  0  0  2  0  0  0  0  0  0
  193.5710  173.8700  135.2790 C   0  0  0  0  0  2  0  0  0  0  0  0
  191.2390  177.7950  142.2180 C   0  0  0  0  0  2  0  0  0  0  0  0
  190.1450  177.2640  143.0110 N   0  0  0  0  0  2  0  0  0  0  0  0
  190.5230  177.4430  144.4050 C   0  0  1  0  0  3  0  0  0  0  0  0
  186.5200  177.3040  144.8710 C   0  0  2  0  0  3  0  0  0  0  0  0
  188.0090  177.3490  144.7490 N   0  0  0  0  0  0  0  0  0  0  0  0
  189.3000  177.6890  145.2490 C   0  0  0  0  0  0  0  0  0  0  0  0
  187.0830  176.7880  143.7220 C   0  0  0  0  0  2  0  0  0  0  0  0
  189.3920  178.2460  146.3750 O   0  0  0  0  0  0  0  0  0  0  0  0
  185.9370  178.6850  144.5860 C   0  0  1  0  0  3  0  0  0  0  0  0
  185.0600  178.7570  142.2320 C   0  0  0  0  0  0  0  0  0  0  0  0
  184.1080  178.6870  141.4120 O   0  0  0  0  0  0  0  0  0  0  0  0
  184.8210  178.5940  143.6410 N   0  0  0  0  0  0  0  0  0  0  0  0
  186.4380  179.0010  141.7060 C   0  0  0  0  0  1  0  0  0  0  0  0
  183.4810  178.2480  144.1250 C   0  0  0  0  0  2  0  0  0  0  0  0
  182.4660  179.3170  143.7340 C   0  0  0  0  0  2  0  0  0  0  0  0
  181.1150  178.7920  143.8260 N   0  0  0  0  0  1  0  0  0  0  0  0
  186.0900  178.7450  146.9610 O   0  0  0  0  0  1  0  0  0  0  0  0
  185.5100  179.3860  145.8670 C   0  0  0  0  0  2  0  0  0  0  0  0
  191.3180  176.2270  144.8710 C   0  0  0  0  0  2  0  0  0  0  0  0
  191.6800  176.3720  146.3380 C   0  0  0  0  0  1  0  0  0  0  0  0
  1  5  1  0  0  0  0
  2  7  1  6  0  0  0
  2  1  1  0  0  0  0
  3  5  2  0  0  0  0
  4 26  1  1  0  0  0
  4  2  1  0  0  0  0
  4  3  1  0  0  0  0
  5 36  1  0  0  0  0
  7  6  2  0  0  0  0
  8  7  1  0  0  0  0
  9  8  1  0  0  0  0
 10  9  1  0  0  0  0
 11 12  1  0  0  0  0
 11 15  1  0  0  0  0
 13 10  1  1  0  0  0
 13 12  1  0  0  0  0
 13 18  1  0  0  0  0
 14 16  1  0  0  0  0
 15 14  1  0  0  0  0
 15 19  1  1  0  0  0
 17 16  1  0  0  0  0
 18 17  1  0  0  0  0
 20 19  1  0  0  0  0
 20 21  1  1  0  0  0
 20 25  1  0  0  0  0
 22 24  1  0  0  0  0
 23 25  2  0  0  0  0
 25 22  1  0  0  0  0
 27 33  1  0  0  0  0
 28 35  1  1  0  0  0
 28 30  1  0  0  0  0
 28 32  1  0  0  0  0
 30 32  1  0  0  0  0
 30 34  1  1  0  0  0
 31 27  2  0  0  0  0
 32 29  1  6  0  0  0
 33 26  1  0  0  0  0
 34 33  1  0  0  0  0
 35 27  1  0  0  0  0
 36 37  1  0  0  0  0
 37 38  1  0  0  0  0
 38 54  1  1  0  0  0
 38 41  1  0  0  0  0
 39 44  1  6  0  0  0
 40 39  1  0  0  0  0
 40 41  1  0  0  0  0
 41 43  2  0  0  0  0
 42 40  1  0  0  0  0
 42 39  1  0  0  0  0
 44 53  1  1  0  0  0
 45 47  1  0  0  0  0
 46 45  2  0  0  0  0
 47 49  1  0  0  0  0
 47 44  1  0  0  0  0
 48 45  1  0  0  0  0
 50 51  1  0  0  0  0
 50 49  1  0  0  0  0
 53 52  1  0  0  0  0
 54 55  1  0  0  0  0
M  END
>  <MODEL>
6

>  <REMARK>
 VINA RESULT:      -6.0      2.392      8.517
  Name = 
  20 active torsions:
  status: ('A' for Active; 'I' for Inactive)
    1  A    between atoms: C_3  and  C_12
    2  A    between atoms: C_3  and  N_25
    3  A    between atoms: C_5  and  C_37
    4  A    between atoms: C_5  and  O_38
    5  A    between atoms: C_8  and  C_10
    6  A    between atoms: C_8  and  N_31
    7  A    between atoms: C_9  and  N_25
    8  A    between atoms: C_9  and  C_28
    9  A    between atoms: C_9  and  C_41
   10  A    between atoms: C_15  and  N_19
   11  A    between atoms: C_15  and  C_43
   12  A    between atoms: C_18  and  N_33
   13  A    between atoms: C_18  and  C_42
   14  A    between atoms: N_19  and  C_26
   15  A    between atoms: C_22  and  C_26
   16  A    between atoms: C_26  and  C_47
   17  A    between atoms: N_31  and  C_39
   18  A    between atoms: C_34  and  C_35
   19  A    between atoms: C_34  and  C_39
   20  A    between atoms: O_38  and  C_44
                            x       y       z     vdW  Elec       q    Type
                         _______ _______ _______ _____ _____    ______ ____

>  <TORSDO>
F 20

$$$$
=
 OpenBabel10222417063D

 55 59  0  0  1  0  0  0  0  0999 V2000
  191.5440  174.5950  137.5810 O   0  0  0  0  0  0  0  0  0  0  0  0
  191.6810  173.9380  136.3340 C   0  0  2  0  0  3  0  0  0  0  0  0
  192.9840  175.9110  136.4860 N   0  0  0  0  0  0  0  0  0  0  0  0
  192.6360  174.8480  135.5530 C   0  0  1  0  0  3  0  0  0  0  0  0
  192.3340  175.7240  137.5830 C   0  0  0  0  0  0  0  0  0  0  0  0
  189.8540  172.6150  135.2990 C   0  0  0  0  0  2  0  0  0  0  0  0
  190.3390  173.8100  135.6640 C   0  0  0  0  0  0  0  0  0  0  0  0
  189.4770  175.0290  135.5420 C   0  0  0  0  0  2  0  0  0  0  0  0
  188.0690  174.7050  135.7510 N   0  0  0  0  0  2  0  0  0  0  0  0
  187.4920  175.6570  136.6930 C   0  0  0  0  0  2  0  0  0  0  0  0
  184.3950  177.4850  136.8300 O   0  0  0  0  0  0  0  0  0  0  0  0
  185.4720  176.8330  137.4510 C   0  0  0  0  0  2  0  0  0  0  0  0
  185.9800  175.7170  136.5590 C   0  0  2  0  0  3  0  0  0  0  0  0
  182.3980  176.1890  137.4370 C   0  0  0  0  0  2  0  0  0  0  0  0
  183.2570  177.4340  137.6720 C   0  0  1  0  0  3  0  0  0  0  0  0
  183.0900  174.8980  137.8500 C   0  0  0  0  0  2  0  0  0  0  0  0
  183.8840  174.3220  136.6880 C   0  0  0  0  0  2  0  0  0  0  0  0
  185.3770  174.3820  136.9750 C   0  0  0  0  0  2  0  0  0  0  0  0
  183.5480  177.6330  139.0410 O   0  0  0  0  0  0  0  0  0  0  0  0
  182.7070  178.6440  139.5610 C   0  0  2  0  0  3  0  0  0  0  0  0
  182.9640  180.0270  138.9660 C   0  0  0  0  0  1  0  0  0  0  0  0
  183.8150  178.5950  141.8310 N   0  0  0  0  0  2  0  0  0  0  0  0
  181.4920  178.7060  141.6300 O   0  0  0  0  0  0  0  0  0  0  0  0
  183.8010  178.6660  143.2820 C   0  0  0  0  0  1  0  0  0  0  0  0
  182.6140  178.6330  141.0590 C   0  0  0  0  0  0  0  0  0  0  0  0
  193.8800  174.0980  135.1100 C   0  0  0  0  0  2  0  0  0  0  0  0
  195.9310  174.7930  136.3500 C   0  0  0  0  0  0  0  0  0  0  0  0
  197.1460  173.0150  137.5910 N   0  0  1  0  0  0  0  0  0  0  0  0
  197.5940  170.6440  137.2100 C   0  0  0  0  0  1  0  0  0  0  0  0
  195.8690  172.2610  137.7560 C   0  0  2  0  0  3  0  0  0  0  0  0
  195.8650  176.0260  136.1070 O   0  0  0  0  0  0  0  0  0  0  0  0
  196.8210  171.8570  136.7300 C   0  0  1  0  0  3  0  0  0  0  0  0
  194.7860  173.9680  136.2380 N   0  0  0  0  0  0  0  0  0  0  0  0
  194.5780  172.9140  137.2170 C   0  0  0  0  0  2  0  0  0  0  0  0
  197.2330  174.1580  136.6690 C   0  0  0  0  0  2  0  0  0  0  0  0
  192.4470  176.6360  138.7550 C   0  0  0  0  0  2  0  0  0  0  0  0
  191.2370  177.4280  138.8850 N   0  0  0  0  0  2  0  0  0  0  0  0
  190.4500  176.8040  139.9390 C   0  0  1  0  0  3  0  0  0  0  0  0
  190.2360  176.6600  143.9630 C   0  0  2  0  0  3  0  0  0  0  0  0
  190.3670  176.7140  142.4750 N   0  0  0  0  0  0  0  0  0  0  0  0
  191.0300  177.1400  141.2880 C   0  0  0  0  0  0  0  0  0  0  0  0
  189.2830  176.0030  143.2130 C   0  0  0  0  0  2  0  0  0  0  0  0
  192.0690  177.8470  141.3890 O   0  0  0  0  0  0  0  0  0  0  0  0
  189.6690  177.9790  144.4790 C   0  0  1  0  0  3  0  0  0  0  0  0
  187.7490  177.6220  146.0600 C   0  0  0  0  0  0  0  0  0  0  0  0
  187.2960  177.4970  147.2280 O   0  0  0  0  0  0  0  0  0  0  0  0
  189.1560  177.8270  145.8430 N   0  0  0  0  0  0  0  0  0  0  0  0
  186.7940  177.5420  144.9120 C   0  0  0  0  0  1  0  0  0  0  0  0
  190.0880  177.7950  146.9740 C   0  0  0  0  0  2  0  0  0  0  0  0
  190.6190  176.3840  147.2030 C   0  0  0  0  0  2  0  0  0  0  0  0
  192.0690  176.3650  147.1060 N   0  0  0  0  0  1  0  0  0  0  0  0
  191.9810  178.5460  144.4270 O   0  0  0  0  0  1  0  0  0  0  0  0
  190.7000  179.0960  144.4060 C   0  0  0  0  0  2  0  0  0  0  0  0
  188.9940  177.2390  139.8060 C   0  0  0  0  0  2  0  0  0  0  0  0
  188.8910  178.4410  138.8840 C   0  0  0  0  0  1  0  0  0  0  0  0
  1  5  1  0  0  0  0
  2  7  1  6  0  0  0
  2  1  1  0  0  0  0
  3  5  2  0  0  0  0
  4 26  1  1  0  0  0
  4  2  1  0  0  0  0
  4  3  1  0  0  0  0
  5 36  1  0  0  0  0
  6  7  2  0  0  0  0
  8  7  1  0  0  0  0
  8  9  1  0  0  0  0
  9 10  1  0  0  0  0
 11 12  1  0  0  0  0
 11 15  1  0  0  0  0
 13 10  1  1  0  0  0
 13 18  1  0  0  0  0
 13 12  1  0  0  0  0
 14 15  1  0  0  0  0
 14 16  1  0  0  0  0
 15 19  1  1  0  0  0
 17 18  1  0  0  0  0
 17 16  1  0  0  0  0
 19 20  1  0  0  0  0
 20 21  1  1  0  0  0
 20 25  1  0  0  0  0
 22 24  1  0  0  0  0
 25 23  2  0  0  0  0
 25 22  1  0  0  0  0
 26 33  1  0  0  0  0
 27 35  1  0  0  0  0
 28 35  1  6  0  0  0
 28 30  1  0  0  0  0
 30 34  1  6  0  0  0
 31 27  2  0  0  0  0
 32 29  1  1  0  0  0
 32 28  1  0  0  0  0
 32 30  1  0  0  0  0
 33 27  1  0  0  0  0
 33 34  1  0  0  0  0
 36 37  1  0  0  0  0
 37 38  1  0  0  0  0
 38 54  1  1  0  0  0
 38 41  1  0  0  0  0
 39 44  1  6  0  0  0
 40 42  1  0  0  0  0
 40 39  1  0  0  0  0
 41 43  2  0  0  0  0
 41 40  1  0  0  0  0
 42 39  1  0  0  0  0
 44 53  1  1  0  0  0
 44 47  1  0  0  0  0
 45 46  2  0  0  0  0
 47 45  1  0  0  0  0
 47 49  1  0  0  0  0
 48 45  1  0  0  0  0
 49 50  1  0  0  0  0
 51 50  1  0  0  0  0
 53 52  1  0  0  0  0
 55 54  1  0  0  0  0
M  END
>  <MODEL>
7

>  <REMARK>
 VINA RESULT:      -5.9      3.226      9.252
  Name = 
  20 active torsions:
  status: ('A' for Active; 'I' for Inactive)
    1  A    between atoms: C_3  and  C_12
    2  A    between atoms: C_3  and  N_25
    3  A    between atoms: C_5  and  C_37
    4  A    between atoms: C_5  and  O_38
    5  A    between atoms: C_8  and  C_10
    6  A    between atoms: C_8  and  N_31
    7  A    between atoms: C_9  and  N_25
    8  A    between atoms: C_9  and  C_28
    9  A    between atoms: C_9  and  C_41
   10  A    between atoms: C_15  and  N_19
   11  A    between atoms: C_15  and  C_43
   12  A    between atoms: C_18  and  N_33
   13  A    between atoms: C_18  and  C_42
   14  A    between atoms: N_19  and  C_26
   15  A    between atoms: C_22  and  C_26
   16  A    between atoms: C_26  and  C_47
   17  A    between atoms: N_31  and  C_39
   18  A    between atoms: C_34  and  C_35
   19  A    between atoms: C_34  and  C_39
   20  A    between atoms: O_38  and  C_44
                            x       y       z     vdW  Elec       q    Type
                         _______ _______ _______ _____ _____    ______ ____

>  <TORSDO>
F 20

$$$$
=
 OpenBabel10222417063D

 55 59  0  0  1  0  0  0  0  0999 V2000
  185.0880  177.7560  139.3740 O   0  0  0  0  0  0  0  0  0  0  0  0
  184.1900  178.4620  140.2120 C   0  0  2  0  0  3  0  0  0  0  0  0
  184.5710  179.5500  138.1410 N   0  0  0  0  0  0  0  0  0  0  0  0
  183.8540  179.7170  139.3980 C   0  0  1  0  0  3  0  0  0  0  0  0
  185.2480  178.4550  138.1970 C   0  0  0  0  0  0  0  0  0  0  0  0
  186.0590  179.3730  141.5650 C   0  0  0  0  0  2  0  0  0  0  0  0
  184.8520  178.7930  141.5220 C   0  0  0  0  0  0  0  0  0  0  0  0
  184.0760  178.6010  142.7890 C   0  0  0  0  0  2  0  0  0  0  0  0
  184.8630  177.8850  143.7890 N   0  0  0  0  0  2  0  0  0  0  0  0
  184.9870  178.7110  144.9840 C   0  0  0  0  0  2  0  0  0  0  0  0
  188.5560  178.4930  144.5770 O   0  0  0  0  0  0  0  0  0  0  0  0
  187.2750  177.9190  144.5650 C   0  0  0  0  0  2  0  0  0  0  0  0
  186.3870  178.6260  145.5690 C   0  0  2  0  0  3  0  0  0  0  0  0
  189.7820  177.3390  146.3660 C   0  0  0  0  0  2  0  0  0  0  0  0
  189.5220  177.4980  144.8660 C   0  0  1  0  0  3  0  0  0  0  0  0
  188.5880  176.7760  147.1240 C   0  0  0  0  0  2  0  0  0  0  0  0
  187.6830  177.8990  147.6060 C   0  0  0  0  0  2  0  0  0  0  0  0
  186.3440  177.8580  146.8830 C   0  0  0  0  0  2  0  0  0  0  0  0
  189.2760  176.2590  144.2310 O   0  0  0  0  0  0  0  0  0  0  0  0
  190.3020  175.9970  143.2930 C   0  0  2  0  0  3  0  0  0  0  0  0
  191.6970  175.9170  143.9100 C   0  0  0  0  0  1  0  0  0  0  0  0
  188.9710  177.0240  141.4060 N   0  0  0  0  0  2  0  0  0  0  0  0
  191.2470  177.4760  141.6570 O   0  0  0  0  0  0  0  0  0  0  0  0
  188.8100  177.9110  140.2670 C   0  0  0  0  0  1  0  0  0  0  0  0
  190.2260  176.8610  142.0680 C   0  0  0  0  0  0  0  0  0  0  0  0
  182.3600  179.8340  139.1490 C   0  0  0  0  0  2  0  0  0  0  0  0
  181.4610  177.7170  140.1180 C   0  0  0  0  0  0  0  0  0  0  0  0
  181.9020  175.6270  138.8470 N   0  0  1  0  0  0  0  0  0  0  0  0
  183.7580  174.7890  137.4980 C   0  0  0  0  0  1  0  0  0  0  0  0
  181.9570  176.4130  137.5790 C   0  0  2  0  0  3  0  0  0  0  0  0
  180.8650  178.2230  141.1040 O   0  0  0  0  0  0  0  0  0  0  0  0
  183.1930  175.9940  138.2250 C   0  0  1  0  0  3  0  0  0  0  0  0
  181.7970  178.5040  138.9910 N   0  0  0  0  0  0  0  0  0  0  0  0
  181.6660  177.9270  137.6630 C   0  0  0  0  0  2  0  0  0  0  0  0
  181.9080  176.3030  140.1540 C   0  0  0  0  0  2  0  0  0  0  0  0
  186.1090  177.9780  137.0790 C   0  0  0  0  0  2  0  0  0  0  0  0
  186.7640  176.7370  137.4530 N   0  0  0  0  0  2  0  0  0  0  0  0
  187.9780  176.6590  136.6540 C   0  0  1  0  0  3  0  0  0  0  0  0
  191.5170  175.4320  138.1490 C   0  0  2  0  0  3  0  0  0  0  0  0
  190.1820  175.8490  137.6210 N   0  0  0  0  0  0  0  0  0  0  0  0
  188.8650  175.5530  137.1650 C   0  0  0  0  0  0  0  0  0  0  0  0
  191.3070  176.7780  137.9340 C   0  0  0  0  0  2  0  0  0  0  0  0
  188.4810  174.3530  137.1430 O   0  0  0  0  0  0  0  0  0  0  0  0
  192.3620  174.8530  137.0180 C   0  0  1  0  0  3  0  0  0  0  0  0
  194.3510  175.9680  135.9620 C   0  0  0  0  0  0  0  0  0  0  0  0
  195.5390  176.3790  136.0210 O   0  0  0  0  0  0  0  0  0  0  0  0
  193.7430  175.3340  137.1020 N   0  0  0  0  0  0  0  0  0  0  0  0
  193.5900  176.1630  134.6910 C   0  0  0  0  0  1  0  0  0  0  0  0
  194.4700  175.2500  138.3720 C   0  0  0  0  0  2  0  0  0  0  0  0
  195.3720  174.0200  138.4040 C   0  0  0  0  0  2  0  0  0  0  0  0
  196.7610  174.4140  138.5650 N   0  0  0  0  0  1  0  0  0  0  0  0
  192.9970  172.8560  135.8880 O   0  0  0  0  0  1  0  0  0  0  0  0
  192.3150  173.3320  137.0080 C   0  0  0  0  0  2  0  0  0  0  0  0
  187.6050  176.4750  135.1870 C   0  0  0  0  0  2  0  0  0  0  0  0
  186.3310  175.6590  135.0700 C   0  0  0  0  0  1  0  0  0  0  0  0
  1  2  1  0  0  0  0
  2  7  1  1  0  0  0
  3  5  2  0  0  0  0
  3  4  1  0  0  0  0
  4 26  1  6  0  0  0
  4  2  1  0  0  0  0
  5  1  1  0  0  0  0
  7  6  2  0  0  0  0
  7  8  1  0  0  0  0
  8  9  1  0  0  0  0
  9 10  1  0  0  0  0
 11 15  1  0  0  0  0
 12 11  1  0  0  0  0
 12 13  1  0  0  0  0
 13 10  1  6  0  0  0
 13 18  1  0  0  0  0
 14 16  1  0  0  0  0
 15 19  1  1  0  0  0
 15 14  1  0  0  0  0
 16 17  1  0  0  0  0
 18 17  1  0  0  0  0
 20 21  1  1  0  0  0
 20 19  1  0  0  0  0
 22 25  1  0  0  0  0
 23 25  2  0  0  0  0
 24 22  1  0  0  0  0
 25 20  1  0  0  0  0
 27 35  1  0  0  0  0
 27 31  2  0  0  0  0
 28 35  1  1  0  0  0
 30 34  1  1  0  0  0
 30 32  1  0  0  0  0
 30 28  1  0  0  0  0
 32 29  1  6  0  0  0
 32 28  1  0  0  0  0
 33 26  1  0  0  0  0
 33 27  1  0  0  0  0
 34 33  1  0  0  0  0
 36 37  1  0  0  0  0
 36  5  1  0  0  0  0
 38 54  1  6  0  0  0
 38 41  1  0  0  0  0
 38 37  1  0  0  0  0
 39 44  1  6  0  0  0
 40 42  1  0  0  0  0
 40 39  1  0  0  0  0
 41 40  1  0  0  0  0
 42 39  1  0  0  0  0
 43 41  2  0  0  0  0
 44 53  1  1  0  0  0
 44 47  1  0  0  0  0
 45 46  2  0  0  0  0
 45 47  1  0  0  0  0
 47 49  1  0  0  0  0
 48 45  1  0  0  0  0
 49 50  1  0  0  0  0
 50 51  1  0  0  0  0
 52 53  1  0  0  0  0
 55 54  1  0  0  0  0
M  END
>  <MODEL>
8

>  <REMARK>
 VINA RESULT:      -5.9      2.683      8.342
  Name = 
  20 active torsions:
  status: ('A' for Active; 'I' for Inactive)
    1  A    between atoms: C_3  and  C_12
    2  A    between atoms: C_3  and  N_25
    3  A    between atoms: C_5  and  C_37
    4  A    between atoms: C_5  and  O_38
    5  A    between atoms: C_8  and  C_10
    6  A    between atoms: C_8  and  N_31
    7  A    between atoms: C_9  and  N_25
    8  A    between atoms: C_9  and  C_28
    9  A    between atoms: C_9  and  C_41
   10  A    between atoms: C_15  and  N_19
   11  A    between atoms: C_15  and  C_43
   12  A    between atoms: C_18  and  N_33
   13  A    between atoms: C_18  and  C_42
   14  A    between atoms: N_19  and  C_26
   15  A    between atoms: C_22  and  C_26
   16  A    between atoms: C_26  and  C_47
   17  A    between atoms: N_31  and  C_39
   18  A    between atoms: C_34  and  C_35
   19  A    between atoms: C_34  and  C_39
   20  A    between atoms: O_38  and  C_44
                            x       y       z     vdW  Elec       q    Type
                         _______ _______ _______ _____ _____    ______ ____

>  <TORSDO>
F 20

$$$$
=
 OpenBabel10222417063D

 55 59  0  0  1  0  0  0  0  0999 V2000
  186.7990  178.5960  138.4530 O   0  0  0  0  0  0  0  0  0  0  0  0
  188.1250  178.1580  138.2160 C   0  0  2  0  0  3  0  0  0  0  0  0
  186.4970  176.7520  137.2220 N   0  0  0  0  0  0  0  0  0  0  0  0
  187.9380  176.8710  137.4040 C   0  0  1  0  0  3  0  0  0  0  0  0
  185.9220  177.7260  137.8400 C   0  0  0  0  0  0  0  0  0  0  0  0
  189.9340  177.1510  139.5830 C   0  0  0  0  0  2  0  0  0  0  0  0
  188.8330  177.9120  139.5210 C   0  0  0  0  0  0  0  0  0  0  0  0
  188.3740  178.6540  140.7390 C   0  0  0  0  0  2  0  0  0  0  0  0
  187.6710  177.7700  141.6640 N   0  0  0  0  0  2  0  0  0  0  0  0
  186.2760  178.1850  141.7570 C   0  0  0  0  0  2  0  0  0  0  0  0
  187.2450  178.9430  145.1390 O   0  0  0  0  0  0  0  0  0  0  0  0
  186.8720  178.0340  144.1360 C   0  0  0  0  0  2  0  0  0  0  0  0
  185.9510  178.7160  143.1440 C   0  0  2  0  0  3  0  0  0  0  0  0
  185.4640  178.8340  146.8270 C   0  0  0  0  0  2  0  0  0  0  0  0
  186.8800  178.4300  146.4080 C   0  0  1  0  0  3  0  0  0  0  0  0
  184.3810  178.2020  145.9640 C   0  0  0  0  0  2  0  0  0  0  0  0
  184.0630  179.0900  144.7720 C   0  0  0  0  0  2  0  0  0  0  0  0
  184.4950  178.4210  143.4740 C   0  0  0  0  0  2  0  0  0  0  0  0
  187.1050  177.0420  146.5510 O   0  0  0  0  0  0  0  0  0  0  0  0
  188.1300  176.8240  147.5010 C   0  0  2  0  0  3  0  0  0  0  0  0
  187.8820  177.5080  148.8440 C   0  0  0  0  0  1  0  0  0  0  0  0
  189.7620  176.7750  145.5730 N   0  0  0  0  0  2  0  0  0  0  0  0
  190.4230  177.5070  147.6880 O   0  0  0  0  0  0  0  0  0  0  0  0
  191.0500  177.0450  144.9580 C   0  0  0  0  0  1  0  0  0  0  0  0
  189.5100  177.0440  146.9520 C   0  0  0  0  0  0  0  0  0  0  0  0
  188.6410  176.9540  136.0610 C   0  0  0  0  0  2  0  0  0  0  0  0
  189.1240  174.5300  136.4070 C   0  0  0  0  0  0  0  0  0  0  0  0
  191.5040  173.8980  136.7390 N   0  0  1  0  0  0  0  0  0  0  0  0
  193.4260  174.9340  137.8360 C   0  0  0  0  0  1  0  0  0  0  0  0
  191.9280  175.0810  135.9330 C   0  0  2  0  0  3  0  0  0  0  0  0
  187.9490  174.1020  136.2600 O   0  0  0  0  0  0  0  0  0  0  0  0
  191.9920  175.1360  137.3870 C   0  0  1  0  0  3  0  0  0  0  0  0
  189.5030  175.7960  135.9010 N   0  0  0  0  0  0  0  0  0  0  0  0
  190.8190  175.9510  135.3020 C   0  0  0  0  0  2  0  0  0  0  0  0
  190.1130  173.7560  137.1960 C   0  0  0  0  0  2  0  0  0  0  0  0
  184.4450  177.9070  137.8690 C   0  0  0  0  0  2  0  0  0  0  0  0
  183.8370  177.1960  136.7580 N   0  0  0  0  0  2  0  0  0  0  0  0
  183.0050  176.1560  137.3420 C   0  0  1  0  0  3  0  0  0  0  0  0
  179.9030  178.6100  138.1280 C   0  0  2  0  0  3  0  0  0  0  0  0
  181.0380  177.6700  137.8750 N   0  0  0  0  0  0  0  0  0  0  0  0
  182.0350  176.7570  138.3250 C   0  0  0  0  0  0  0  0  0  0  0  0
  180.3160  178.4420  136.8220 C   0  0  0  0  0  2  0  0  0  0  0  0
  182.1260  176.5100  139.5580 O   0  0  0  0  0  0  0  0  0  0  0  0
  180.4390  179.9300  138.6740 C   0  0  1  0  0  3  0  0  0  0  0  0
  179.3390  181.2690  140.4930 C   0  0  0  0  0  0  0  0  0  0  0  0
  179.0210  181.4280  141.7000 O   0  0  0  0  0  0  0  0  0  0  0  0
  180.0690  180.1000  140.0810 N   0  0  0  0  0  0  0  0  0  0  0  0
  178.9320  182.3140  139.5040 C   0  0  0  0  0  1  0  0  0  0  0  0
  180.3630  179.0370  141.0470 C   0  0  0  0  0  2  0  0  0  0  0  0
  179.0890  178.3100  141.4630 C   0  0  0  0  0  2  0  0  0  0  0  0
  179.3100  176.8740  141.4860 N   0  0  0  0  0  1  0  0  0  0  0  0
  182.3400  181.3630  138.6880 O   0  0  0  0  0  1  0  0  0  0  0  0
  181.9460  180.0400  138.4900 C   0  0  0  0  0  2  0  0  0  0  0  0
  182.3030  175.3870  136.2280 C   0  0  0  0  0  2  0  0  0  0  0  0
  181.8590  174.0260  136.7320 C   0  0  0  0  0  1  0  0  0  0  0  0
  2  1  1  0  0  0  0
  2  7  1  1  0  0  0
  3  4  1  0  0  0  0
  3  5  2  0  0  0  0
  4 26  1  6  0  0  0
  4  2  1  0  0  0  0
  5 36  1  0  0  0  0
  5  1  1  0  0  0  0
  7  6  2  0  0  0  0
  7  8  1  0  0  0  0
  8  9  1  0  0  0  0
  9 10  1  0  0  0  0
 11 15  1  0  0  0  0
 12 11  1  0  0  0  0
 13 10  1  6  0  0  0
 13 18  1  0  0  0  0
 13 12  1  0  0  0  0
 15 19  1  6  0  0  0
 15 14  1  0  0  0  0
 16 14  1  0  0  0  0
 17 16  1  0  0  0  0
 18 17  1  0  0  0  0
 19 20  1  0  0  0  0
 20 21  1  1  0  0  0
 22 25  1  0  0  0  0
 24 22  1  0  0  0  0
 25 20  1  0  0  0  0
 25 23  2  0  0  0  0
 27 35  1  0  0  0  0
 28 35  1  1  0  0  0
 28 32  1  0  0  0  0
 30 34  1  1  0  0  0
 30 28  1  0  0  0  0
 30 32  1  0  0  0  0
 31 27  2  0  0  0  0
 32 29  1  6  0  0  0
 33 26  1  0  0  0  0
 33 27  1  0  0  0  0
 34 33  1  0  0  0  0
 37 38  1  0  0  0  0
 37 36  1  0  0  0  0
 38 54  1  6  0  0  0
 38 41  1  0  0  0  0
 39 44  1  1  0  0  0
 40 39  1  0  0  0  0
 40 41  1  0  0  0  0
 41 43  2  0  0  0  0
 42 40  1  0  0  0  0
 42 39  1  0  0  0  0
 44 53  1  1  0  0  0
 44 47  1  0  0  0  0
 45 46  2  0  0  0  0
 47 45  1  0  0  0  0
 47 49  1  0  0  0  0
 48 45  1  0  0  0  0
 49 50  1  0  0  0  0
 50 51  1  0  0  0  0
 53 52  1  0  0  0  0
 54 55  1  0  0  0  0
M  END
>  <MODEL>
9

>  <REMARK>
 VINA RESULT:      -5.8      2.360      4.958
  Name = 
  20 active torsions:
  status: ('A' for Active; 'I' for Inactive)
    1  A    between atoms: C_3  and  C_12
    2  A    between atoms: C_3  and  N_25
    3  A    between atoms: C_5  and  C_37
    4  A    between atoms: C_5  and  O_38
    5  A    between atoms: C_8  and  C_10
    6  A    between atoms: C_8  and  N_31
    7  A    between atoms: C_9  and  N_25
    8  A    between atoms: C_9  and  C_28
    9  A    between atoms: C_9  and  C_41
   10  A    between atoms: C_15  and  N_19
   11  A    between atoms: C_15  and  C_43
   12  A    between atoms: C_18  and  N_33
   13  A    between atoms: C_18  and  C_42
   14  A    between atoms: N_19  and  C_26
   15  A    between atoms: C_22  and  C_26
   16  A    between atoms: C_26  and  C_47
   17  A    between atoms: N_31  and  C_39
   18  A    between atoms: C_34  and  C_35
   19  A    between atoms: C_34  and  C_39
   20  A    between atoms: O_38  and  C_44
                            x       y       z     vdW  Elec       q    Type
                         _______ _______ _______ _____ _____    ______ ____

>  <TORSDO>
F 20

$$$$
