=
 OpenBabel10222417053D

 55 60  0  0  1  0  0  0  0  0999 V2000
  187.0850  177.6910  145.4750 C   0  0  0  0  0  0  0  0  0  0  0  0
  187.4720  177.9020  142.6660 C   0  0  0  0  0  3  0  0  0  0  0  0
  191.1540  176.6540  147.5090 S   0  0  0  0  0  0  0  0  0  0  0  0
  189.8850  177.2010  142.9420 C   0  0  0  0  0  0  0  0  0  0  0  0
  190.7940  176.8880  145.1110 C   0  0  0  0  0  0  0  0  0  0  0  0
  188.4330  177.4170  144.9120 C   0  0  0  0  0  0  0  0  0  0  0  0
  191.8420  176.6050  145.9740 C   0  0  0  0  0  3  0  0  0  0  0  0
  185.8870  177.7550  144.5750 C   0  0  0  0  0  2  0  0  0  0  0  0
  190.9370  176.9290  143.7660 N   0  0  0  0  0  0  0  0  0  0  0  0
  189.5490  177.1190  145.7130 C   0  0  0  0  0  0  0  0  0  0  0  0
  188.6070  177.4740  143.5090 C   0  0  0  0  0  0  0  0  0  0  0  0
  186.2340  178.0660  143.1460 C   0  0  0  0  0  0  0  0  0  0  0  0
  189.5630  177.0240  147.1020 C   0  0  0  0  0  3  0  0  0  0  0  0
  186.9140  177.8360  146.7140 O   0  0  0  0  0  0  0  0  0  0  0  0
  189.2790  176.9260  139.2230 C   0  0  0  0  0  0  0  0  0  0  0  0
  189.0720  176.8920  140.6040 C   0  0  0  0  0  3  0  0  0  0  0  0
  191.5510  177.5320  139.5510 C   0  0  0  0  0  3  0  0  0  0  0  0
  190.5060  177.2510  138.7290 N   0  0  0  0  0  0  0  0  0  0  0  0
  191.3810  177.5000  140.9360 C   0  0  0  0  0  3  0  0  0  0  0  0
  190.1330  177.1670  141.4770 C   0  0  0  0  0  0  0  0  0  0  0  0
  184.0790  177.2470  136.8690 Cl  0  0  0  0  0  0  0  0  0  0  0  0
  187.6650  177.9370  137.6760 C   0  0  0  0  0  3  0  0  0  0  0  0
  188.1310  176.6570  138.3040 C   0  0  1  0  0  3  0  0  0  0  0  0
  186.1310  175.4730  136.5970 C   0  0  1  0  0  3  0  0  0  0  0  0
  187.5900  175.1380  136.4430 C   0  0  0  0  0  3  0  0  0  0  0  0
  185.7390  176.9350  136.3000 C   0  0  2  0  0  3  0  0  0  0  0  0
  186.6430  178.0370  136.8110 C   0  0  0  0  0  3  0  0  0  0  0  0
  188.5140  175.6700  137.2430 C   0  0  0  0  0  3  0  0  0  0  0  0
  185.2720  174.4970  135.9110 N   0  0  0  0  0  2  0  0  0  0  0  0
  184.4680  173.3840  137.0300 P   0  0  2  0  0  0  0  0  0  0  0  0
  185.4260  173.0350  138.1510 O   0  0  0  0  0  0  0  0  0  0  0  0
  184.0620  171.9660  136.1840 O   0  0  0  0  0  0  0  0  0  0  0  0
  184.9850  171.8660  135.1410 C   0  0  0  0  0  1  0  0  0  0  0  0
  183.0790  174.1080  137.7050 O   0  0  0  0  0  0  0  0  0  0  0  0
  181.8240  174.0190  136.5560 P   0  0  0  0  0  0  0  0  0  0  0  0
  182.3870  174.3050  134.9840 O   0  0  0  0  0  0  0  0  0  0  0  0
  181.1680  172.6580  136.6150 O   0  0  0  0  0  1  0  0  0  0  0  0
  180.6680  175.1930  136.9350 O   0  0  0  0  0  1  0  0  0  0  0  0
  185.1460  178.5390  142.2420 C   0  0  0  0  0  2  0  0  0  0  0  0
  185.6910  178.9080  140.8710 C   0  0  0  0  0  2  0  0  0  0  0  0
  183.3310  178.4280  140.1330 N   0  0  0  0  0  2  0  0  0  0  0  0
  184.5650  179.1150  139.9200 C   0  0  0  0  0  0  0  0  0  0  0  0
  184.7010  179.9060  138.9470 O   0  0  0  0  0  0  0  0  0  0  0  0
  182.1600  178.6290  139.2910 C   0  0  1  0  0  3  0  0  0  0  0  0
  182.0010  176.5300  139.7290 O   0  0  0  0  0  1  0  0  0  0  0  0
  181.2520  177.5830  139.4760 O   0  0  0  0  0  0  0  0  0  0  0  0
  181.5120  179.9720  139.6260 C   0  0  2  0  0  3  0  0  0  0  0  0
  180.6950  179.8380  140.7550 O   0  0  0  0  0  1  0  0  0  0  0  0
  180.9210  181.9950  138.1580 C   0  0  2  0  0  3  0  0  0  0  0  0
  180.6980  180.5080  138.4430 C   0  0  1  0  0  3  0  0  0  0  0  0
  180.8130  182.0660  136.6820 C   0  0  0  0  0  0  0  0  0  0  0  0
  181.0100  179.7620  137.1440 C   0  0  0  0  0  2  0  0  0  0  0  0
  182.1920  182.4020  138.5300 F   0  0  0  0  0  0  0  0  0  0  0  0
  180.7600  183.1210  136.0710 O   0  0  0  0  0  0  0  0  0  0  0  0
  180.7690  180.7470  136.0110 C   0  0  0  0  0  2  0  0  0  0  0  0
  1 14  2  0  0  0  0
  2 12  2  0  0  0  0
  2 11  1  0  0  0  0
  4 11  1  0  0  0  0
  4  9  2  0  0  0  0
  5 10  1  0  0  0  0
  5  7  2  0  0  0  0
  6  1  1  0  0  0  0
  6 10  1  0  0  0  0
  7  3  1  0  0  0  0
  8  1  1  0  0  0  0
  9  5  1  0  0  0  0
 10 13  2  0  0  0  0
 11  6  2  0  0  0  0
 12  8  1  0  0  0  0
 13  3  1  0  0  0  0
 15 16  1  0  0  0  0
 16 20  2  0  0  0  0
 17 19  2  0  0  0  0
 18 15  2  0  0  0  0
 18 17  1  0  0  0  0
 19 20  1  0  0  0  0
 20  4  1  0  0  0  0
 22 23  1  0  0  0  0
 23 15  1  1  0  0  0
 24 29  1  6  0  0  0
 25 24  1  0  0  0  0
 25 28  2  0  0  0  0
 26 24  1  0  0  0  0
 26 27  1  0  0  0  0
 26 21  1  1  0  0  0
 27 22  2  0  0  0  0
 28 23  1  0  0  0  0
 29 30  1  0  0  0  0
 30 34  1  0  0  0  0
 30 31  2  1  0  0  0
 32 30  1  0  0  0  0
 33 32  1  0  0  0  0
 35 37  1  0  0  0  0
 35 38  1  0  0  0  0
 35 34  1  0  0  0  0
 36 35  2  0  0  0  0
 39 12  1  0  0  0  0
 40 39  1  0  0  0  0
 42 41  1  0  0  0  0
 42 40  1  0  0  0  0
 43 42  2  0  0  0  0
 44 46  1  1  0  0  0
 44 47  1  0  0  0  0
 44 41  1  0  0  0  0
 46 45  1  0  0  0  0
 47 48  1  1  0  0  0
 49 50  1  0  0  0  0
 49 53  1  6  0  0  0
 50 47  1  1  0  0  0
 51 49  1  0  0  0  0
 52 50  1  0  0  0  0
 54 51  2  0  0  0  0
 55 51  1  0  0  0  0
 55 52  1  0  0  0  0
M  END
>  <MODEL>
1

>  <REMARK>
 VINA RESULT:      -9.1      0.000      0.000
  Name = 
  14 active torsions:
  status: ('A' for Active; 'I' for Inactive)
    1  A    between atoms: C_2  and  C_28
    2  A    between atoms: C_4  and  C_27
    3  A    between atoms: C_4  and  C_44
    4  A    between atoms: C_6  and  C_20
    5  A    between atoms: C_6  and  C_31
    6  A    between atoms: O_7  and  P_17
    7  A    between atoms: N_10  and  P_17
    8  A    between atoms: N_10  and  C_29
    9  A    between atoms: O_13  and  P_17
   10  A    between atoms: O_13  and  P_18
   11  A    between atoms: C_14  and  C_49
   12  A    between atoms: C_20  and  N_25
   13  A    between atoms: C_20  and  O_53
   14  A    between atoms: C_27  and  C_46
                            x       y       z     vdW  Elec       q    Type
                         _______ _______ _______ _____ _____    ______ ____

>  <TORSDO>
F 14

$$$$
=
 OpenBabel10222417053D

 55 60  0  0  1  0  0  0  0  0999 V2000
  190.7480  177.1940  142.7470 C   0  0  0  0  0  0  0  0  0  0  0  0
  188.0040  177.7370  142.2340 C   0  0  0  0  0  3  0  0  0  0  0  0
  191.3660  176.6240  147.3370 S   0  0  0  0  0  0  0  0  0  0  0  0
  187.5400  177.7540  144.7190 C   0  0  0  0  0  0  0  0  0  0  0  0
  189.2590  177.1970  146.2560 C   0  0  0  0  0  0  0  0  0  0  0  0
  189.8100  177.3050  143.8940 C   0  0  0  0  0  0  0  0  0  0  0  0
  189.7300  176.9640  147.5390 C   0  0  0  0  0  3  0  0  0  0  0  0
  190.3400  177.6740  141.3860 C   0  0  0  0  0  2  0  0  0  0  0  0
  187.9720  177.5230  145.9910 N   0  0  0  0  0  0  0  0  0  0  0  0
  190.2040  177.0900  145.2260 C   0  0  0  0  0  0  0  0  0  0  0  0
  188.4560  177.6260  143.6360 C   0  0  0  0  0  0  0  0  0  0  0  0
  188.8490  177.7280  141.1980 C   0  0  0  0  0  0  0  0  0  0  0  0
  191.4860  176.7650  145.6630 C   0  0  0  0  0  3  0  0  0  0  0  0
  191.9100  176.7330  142.8980 O   0  0  0  0  0  0  0  0  0  0  0  0
  184.1930  178.4140  143.0940 C   0  0  0  0  0  0  0  0  0  0  0  0
  185.5440  178.1020  143.2630 C   0  0  0  0  0  3  0  0  0  0  0  0
  183.9650  178.8080  145.4240 C   0  0  0  0  0  3  0  0  0  0  0  0
  183.4360  178.7520  144.1740 N   0  0  0  0  0  0  0  0  0  0  0  0
  185.3130  178.5090  145.6270 C   0  0  0  0  0  3  0  0  0  0  0  0
  186.1220  178.1600  144.5390 C   0  0  0  0  0  0  0  0  0  0  0  0
  180.5140  177.0970  138.9210 Cl  0  0  0  0  0  0  0  0  0  0  0  0
  182.1920  178.8740  141.7530 C   0  0  0  0  0  3  0  0  0  0  0  0
  183.5850  178.3210  141.7320 C   0  0  1  0  0  3  0  0  0  0  0  0
  183.0760  178.0280  138.9080 C   0  0  1  0  0  3  0  0  0  0  0  0
  184.1680  178.9290  139.4180 C   0  0  0  0  0  3  0  0  0  0  0  0
  181.6350  178.4340  139.2820 C   0  0  2  0  0  3  0  0  0  0  0  0
  181.3720  178.9240  140.6900 C   0  0  0  0  0  3  0  0  0  0  0  0
  184.4170  179.0520  140.7230 C   0  0  0  0  0  3  0  0  0  0  0  0
  183.2360  177.7320  137.4770 N   0  0  0  0  0  2  0  0  0  0  0  0
  183.4100  175.9990  137.1500 P   0  0  2  0  0  0  0  0  0  0  0  0
  183.3580  175.2420  138.4620 O   0  0  0  0  0  0  0  0  0  0  0  0
  184.9200  175.7370  136.4160 O   0  0  0  0  0  0  0  0  0  0  0  0
  185.7950  176.6540  137.0010 C   0  0  0  0  0  1  0  0  0  0  0  0
  182.1440  175.4460  136.1510 O   0  0  0  0  0  0  0  0  0  0  0  0
  181.8330  173.8170  136.5430 P   0  0  0  0  0  0  0  0  0  0  0  0
  180.9310  173.6720  137.9690 O   0  0  0  0  0  1  0  0  0  0  0  0
  181.0890  173.1490  135.4080 O   0  0  0  0  0  0  0  0  0  0  0  0
  183.3120  173.0270  136.7590 O   0  0  0  0  0  1  0  0  0  0  0  0
  188.3170  177.8050  139.8070 C   0  0  0  0  0  2  0  0  0  0  0  0
  189.3020  178.4950  138.8770 C   0  0  0  0  0  2  0  0  0  0  0  0
  190.2230  176.3440  137.9430 N   0  0  0  0  0  2  0  0  0  0  0  0
  189.6050  177.6130  137.7170 C   0  0  0  0  0  0  0  0  0  0  0  0
  189.2990  177.9800  136.5500 O   0  0  0  0  0  0  0  0  0  0  0  0
  190.4880  175.3940  136.8720 C   0  0  1  0  0  3  0  0  0  0  0  0
  189.1380  173.9010  136.1160 O   0  0  0  0  0  1  0  0  0  0  0  0
  189.3340  175.2030  136.1050 O   0  0  0  0  0  0  0  0  0  0  0  0
  191.6340  175.9090  136.0020 C   0  0  2  0  0  3  0  0  0  0  0  0
  191.2080  176.0300  134.6740 O   0  0  0  0  0  1  0  0  0  0  0  0
  194.1960  175.7200  136.0390 C   0  0  2  0  0  3  0  0  0  0  0  0
  192.8540  174.9850  136.0850 C   0  0  1  0  0  3  0  0  0  0  0  0
  195.0500  174.9020  136.9310 C   0  0  0  0  0  0  0  0  0  0  0  0
  192.8580  174.1490  137.3660 C   0  0  0  0  0  2  0  0  0  0  0  0
  194.0970  176.9970  136.5680 F   0  0  0  0  0  0  0  0  0  0  0  0
  196.2560  175.0620  137.0250 O   0  0  0  0  0  0  0  0  0  0  0  0
  194.3150  173.8680  137.6960 C   0  0  0  0  0  2  0  0  0  0  0  0
  1 14  2  0  0  0  0
  1  6  1  0  0  0  0
  2 11  1  0  0  0  0
  3  7  1  0  0  0  0
  4  9  2  0  0  0  0
  5  7  2  0  0  0  0
  6 10  1  0  0  0  0
  8  1  1  0  0  0  0
  9  5  1  0  0  0  0
 10 13  2  0  0  0  0
 10  5  1  0  0  0  0
 11  6  2  0  0  0  0
 11  4  1  0  0  0  0
 12  8  1  0  0  0  0
 12  2  2  0  0  0  0
 13  3  1  0  0  0  0
 15 16  2  0  0  0  0
 15 18  1  0  0  0  0
 16 20  1  0  0  0  0
 17 19  1  0  0  0  0
 18 17  2  0  0  0  0
 20  4  1  0  0  0  0
 20 19  2  0  0  0  0
 23 22  1  0  0  0  0
 23 15  1  1  0  0  0
 24 29  1  6  0  0  0
 24 26  1  0  0  0  0
 24 25  1  0  0  0  0
 25 28  2  0  0  0  0
 26 21  1  1  0  0  0
 26 27  1  0  0  0  0
 27 22  2  0  0  0  0
 28 23  1  0  0  0  0
 30 29  1  0  0  0  0
 30 31  2  1  0  0  0
 32 33  1  0  0  0  0
 32 30  1  0  0  0  0
 34 35  1  0  0  0  0
 34 30  1  0  0  0  0
 35 38  1  0  0  0  0
 35 36  1  0  0  0  0
 37 35  2  0  0  0  0
 39 12  1  0  0  0  0
 40 39  1  0  0  0  0
 42 41  1  0  0  0  0
 42 40  1  0  0  0  0
 43 42  2  0  0  0  0
 44 46  1  6  0  0  0
 44 41  1  0  0  0  0
 46 45  1  0  0  0  0
 47 48  1  6  0  0  0
 47 44  1  0  0  0  0
 49 50  1  0  0  0  0
 49 53  1  1  0  0  0
 49 51  1  0  0  0  0
 50 47  1  1  0  0  0
 50 52  1  0  0  0  0
 51 54  2  0  0  0  0
 51 55  1  0  0  0  0
 52 55  1  0  0  0  0
M  END
>  <MODEL>
2

>  <REMARK>
 VINA RESULT:      -8.8      3.600      7.480
  Name = 
  14 active torsions:
  status: ('A' for Active; 'I' for Inactive)
    1  A    between atoms: C_2  and  C_28
    2  A    between atoms: C_4  and  C_27
    3  A    between atoms: C_4  and  C_44
    4  A    between atoms: C_6  and  C_20
    5  A    between atoms: C_6  and  C_31
    6  A    between atoms: O_7  and  P_17
    7  A    between atoms: N_10  and  P_17
    8  A    between atoms: N_10  and  C_29
    9  A    between atoms: O_13  and  P_17
   10  A    between atoms: O_13  and  P_18
   11  A    between atoms: C_14  and  C_49
   12  A    between atoms: C_20  and  N_25
   13  A    between atoms: C_20  and  O_53
   14  A    between atoms: C_27  and  C_46
                            x       y       z     vdW  Elec       q    Type
                         _______ _______ _______ _____ _____    ______ ____

>  <TORSDO>
F 14

$$$$
=
 OpenBabel10222417053D

 55 60  0  0  1  0  0  0  0  0999 V2000
  187.1940  177.6920  146.9620 C   0  0  0  0  0  0  0  0  0  0  0  0
  186.1040  178.4090  144.4350 C   0  0  0  0  0  3  0  0  0  0  0  0
  191.6850  176.5460  146.4260 S   0  0  0  0  0  0  0  0  0  0  0  0
  188.2900  177.8050  143.3180 C   0  0  0  0  0  0  0  0  0  0  0  0
  190.1630  177.1720  144.6290 C   0  0  0  0  0  0  0  0  0  0  0  0
  188.0540  177.5950  145.7540 C   0  0  0  0  0  0  0  0  0  0  0  0
  191.4920  176.8020  144.7740 C   0  0  0  0  0  3  0  0  0  0  0  0
  185.7080  177.8440  146.8230 C   0  0  0  0  0  2  0  0  0  0  0  0
  189.6030  177.4530  143.4300 N   0  0  0  0  0  0  0  0  0  0  0  0
  189.4090  177.2250  145.8090 C   0  0  0  0  0  0  0  0  0  0  0  0
  187.4910  177.9050  144.4930 C   0  0  0  0  0  0  0  0  0  0  0  0
  185.2920  178.4170  145.4970 C   0  0  0  0  0  0  0  0  0  0  0  0
  190.1240  176.8910  146.9560 C   0  0  0  0  0  3  0  0  0  0  0  0
  187.6840  177.6100  148.1190 O   0  0  0  0  0  0  0  0  0  0  0  0
  187.8630  177.6090  139.5690 C   0  0  0  0  0  0  0  0  0  0  0  0
  188.3960  177.4520  140.8500 C   0  0  0  0  0  3  0  0  0  0  0  0
  186.0630  178.8870  140.4440 C   0  0  0  0  0  3  0  0  0  0  0  0
  186.7100  178.3140  139.3960 N   0  0  0  0  0  0  0  0  0  0  0  0
  186.5720  178.7550  141.7370 C   0  0  0  0  0  3  0  0  0  0  0  0
  187.7570  178.0400  141.9510 C   0  0  0  0  0  0  0  0  0  0  0  0
  189.5620  173.5490  135.9200 Cl  0  0  0  0  0  0  0  0  0  0  0  0
  187.5330  176.2220  137.5730 C   0  0  0  0  0  3  0  0  0  0  0  0
  188.5400  176.9540  138.4090 C   0  0  1  0  0  3  0  0  0  0  0  0
  190.3750  176.1160  136.3470 C   0  0  1  0  0  3  0  0  0  0  0  0
  190.1030  177.5730  136.6090 C   0  0  0  0  0  3  0  0  0  0  0  0
  189.1790  175.2880  135.8340 C   0  0  2  0  0  3  0  0  0  0  0  0
  187.8230  175.5190  136.4660 C   0  0  0  0  0  3  0  0  0  0  0  0
  189.2690  177.9630  137.5740 C   0  0  0  0  0  3  0  0  0  0  0  0
  191.5930  175.9230  135.5480 N   0  0  0  0  0  2  0  0  0  0  0  0
  192.9620  175.3410  136.5110 P   0  0  2  0  0  0  0  0  0  0  0  0
  192.4540  174.3540  137.5430 O   0  0  0  0  0  0  0  0  0  0  0  0
  193.6640  176.6680  137.3090 O   0  0  0  0  0  0  0  0  0  0  0  0
  193.0980  176.6900  138.5850 C   0  0  0  0  0  1  0  0  0  0  0  0
  194.1040  174.5540  135.5190 O   0  0  0  0  0  0  0  0  0  0  0  0
  195.5580  174.4120  136.3960 P   0  0  0  0  0  0  0  0  0  0  0  0
  196.4740  175.8350  136.3330 O   0  0  0  0  0  1  0  0  0  0  0  0
  195.2570  174.0710  137.8380 O   0  0  0  0  0  1  0  0  0  0  0  0
  196.4680  173.1550  135.7230 O   0  0  0  0  0  0  0  0  0  0  0  0
  183.9160  178.9790  145.3720 C   0  0  0  0  0  2  0  0  0  0  0  0
  183.6690  179.5260  143.9740 C   0  0  0  0  0  2  0  0  0  0  0  0
  182.1700  178.9660  142.0300 N   0  0  0  0  0  2  0  0  0  0  0  0
  182.3870  178.9910  143.4420 C   0  0  0  0  0  0  0  0  0  0  0  0
  181.5120  178.5490  144.2350 O   0  0  0  0  0  0  0  0  0  0  0  0
  180.9740  178.3950  141.4250 C   0  0  1  0  0  3  0  0  0  0  0  0
  180.0730  180.3380  141.2380 O   0  0  0  0  0  1  0  0  0  0  0  0
  179.8530  179.1550  141.7720 O   0  0  0  0  0  0  0  0  0  0  0  0
  181.1410  178.3430  139.9070 C   0  0  2  0  0  3  0  0  0  0  0  0
  180.0880  177.6200  139.3360 O   0  0  0  0  0  1  0  0  0  0  0  0
  182.4860  176.1890  139.5190 C   0  0  2  0  0  3  0  0  0  0  0  0
  182.4850  177.7200  139.5160 C   0  0  1  0  0  3  0  0  0  0  0  0
  183.3990  175.8590  138.4010 C   0  0  0  0  0  0  0  0  0  0  0  0
  182.9370  178.1540  138.1200 C   0  0  0  0  0  2  0  0  0  0  0  0
  181.2310  175.6780  139.2330 F   0  0  0  0  0  0  0  0  0  0  0  0
  183.8030  174.7270  138.1860 O   0  0  0  0  0  0  0  0  0  0  0  0
  183.7870  177.0210  137.5680 C   0  0  0  0  0  2  0  0  0  0  0  0
  1 14  2  0  0  0  0
  2 11  1  0  0  0  0
  2 12  2  0  0  0  0
  3 13  1  0  0  0  0
  4  9  2  0  0  0  0
  4 11  1  0  0  0  0
  5  7  2  0  0  0  0
  5 10  1  0  0  0  0
  6 10  1  0  0  0  0
  6  1  1  0  0  0  0
  7  3  1  0  0  0  0
  8  1  1  0  0  0  0
  9  5  1  0  0  0  0
 10 13  2  0  0  0  0
 11  6  2  0  0  0  0
 12  8  1  0  0  0  0
 15 16  1  0  0  0  0
 16 20  2  0  0  0  0
 17 19  2  0  0  0  0
 18 15  2  0  0  0  0
 18 17  1  0  0  0  0
 19 20  1  0  0  0  0
 20  4  1  0  0  0  0
 22 23  1  0  0  0  0
 23 15  1  1  0  0  0
 24 29  1  6  0  0  0
 24 25  1  0  0  0  0
 25 28  2  0  0  0  0
 26 21  1  1  0  0  0
 26 24  1  0  0  0  0
 26 27  1  0  0  0  0
 27 22  2  0  0  0  0
 28 23  1  0  0  0  0
 29 30  1  0  0  0  0
 30 32  1  0  0  0  0
 30 31  2  1  0  0  0
 32 33  1  0  0  0  0
 34 35  1  0  0  0  0
 34 30  1  0  0  0  0
 35 37  1  0  0  0  0
 36 35  1  0  0  0  0
 38 35  2  0  0  0  0
 39 12  1  0  0  0  0
 40 39  1  0  0  0  0
 41 42  1  0  0  0  0
 42 40  1  0  0  0  0
 42 43  2  0  0  0  0
 44 46  1  6  0  0  0
 44 41  1  0  0  0  0
 45 46  1  0  0  0  0
 47 48  1  6  0  0  0
 47 44  1  0  0  0  0
 49 53  1  6  0  0  0
 50 49  1  0  0  0  0
 50 47  1  6  0  0  0
 51 49  1  0  0  0  0
 52 50  1  0  0  0  0
 54 51  2  0  0  0  0
 55 52  1  0  0  0  0
 55 51  1  0  0  0  0
M  END
>  <MODEL>
3

>  <REMARK>
 VINA RESULT:      -8.8      4.304      6.005
  Name = 
  14 active torsions:
  status: ('A' for Active; 'I' for Inactive)
    1  A    between atoms: C_2  and  C_28
    2  A    between atoms: C_4  and  C_27
    3  A    between atoms: C_4  and  C_44
    4  A    between atoms: C_6  and  C_20
    5  A    between atoms: C_6  and  C_31
    6  A    between atoms: O_7  and  P_17
    7  A    between atoms: N_10  and  P_17
    8  A    between atoms: N_10  and  C_29
    9  A    between atoms: O_13  and  P_17
   10  A    between atoms: O_13  and  P_18
   11  A    between atoms: C_14  and  C_49
   12  A    between atoms: C_20  and  N_25
   13  A    between atoms: C_20  and  O_53
   14  A    between atoms: C_27  and  C_46
                            x       y       z     vdW  Elec       q    Type
                         _______ _______ _______ _____ _____    ______ ____

>  <TORSDO>
F 14

$$$$
=
 OpenBabel10222417053D

 55 60  0  0  1  0  0  0  0  0999 V2000
  190.8590  177.1440  142.8620 C   0  0  0  0  0  0  0  0  0  0  0  0
  188.1160  177.8910  142.7900 C   0  0  0  0  0  3  0  0  0  0  0  0
  192.0310  176.0270  147.2370 S   0  0  0  0  0  0  0  0  0  0  0  0
  187.9830  177.6520  145.3040 C   0  0  0  0  0  0  0  0  0  0  0  0
  189.8460  176.8320  146.5230 C   0  0  0  0  0  0  0  0  0  0  0  0
  190.0890  177.1760  144.1320 C   0  0  0  0  0  0  0  0  0  0  0  0
  190.4640  176.4310  147.6980 C   0  0  0  0  0  3  0  0  0  0  0  0
  190.3110  177.7970  141.6280 C   0  0  0  0  0  2  0  0  0  0  0  0
  188.5620  177.2550  146.4730 N   0  0  0  0  0  0  0  0  0  0  0  0
  190.6380  176.7910  145.3670 C   0  0  0  0  0  0  0  0  0  0  0  0
  188.7390  177.5980  144.0980 C   0  0  0  0  0  0  0  0  0  0  0  0
  188.8150  177.9520  141.6530 C   0  0  0  0  0  0  0  0  0  0  0  0
  191.9410  176.3500  145.5870 C   0  0  0  0  0  3  0  0  0  0  0  0
  191.9970  176.6070  142.8020 O   0  0  0  0  0  0  0  0  0  0  0  0
  184.4240  178.4320  144.3060 C   0  0  0  0  0  0  0  0  0  0  0  0
  185.7590  178.0290  144.2380 C   0  0  0  0  0  3  0  0  0  0  0  0
  184.6950  179.0440  146.5840 C   0  0  0  0  0  3  0  0  0  0  0  0
  183.9220  178.9220  145.4740 N   0  0  0  0  0  0  0  0  0  0  0  0
  186.0360  178.6570  146.5490 C   0  0  0  0  0  3  0  0  0  0  0  0
  186.5850  178.1530  145.3640 C   0  0  0  0  0  0  0  0  0  0  0  0
  179.8430  177.2120  141.1110 Cl  0  0  0  0  0  0  0  0  0  0  0  0
  182.2730  179.0350  143.2930 C   0  0  0  0  0  3  0  0  0  0  0  0
  183.5480  178.2700  143.1060 C   0  0  1  0  0  3  0  0  0  0  0  0
  182.4500  177.7160  140.4960 C   0  0  1  0  0  3  0  0  0  0  0  0
  183.7310  178.4890  140.6590 C   0  0  0  0  0  3  0  0  0  0  0  0
  181.1800  178.3880  141.0580 C   0  0  2  0  0  3  0  0  0  0  0  0
  181.2710  179.0830  142.3990 C   0  0  0  0  0  3  0  0  0  0  0  0
  184.2500  178.7300  141.8640 C   0  0  0  0  0  3  0  0  0  0  0  0
  182.2810  177.2240  139.1220 N   0  0  0  0  0  2  0  0  0  0  0  0
  181.7410  178.4870  138.0020 P   0  0  2  0  0  0  0  0  0  0  0  0
  180.2280  178.4570  137.9190 O   0  0  0  0  0  0  0  0  0  0  0  0
  182.3900  178.1590  136.4650 O   0  0  0  0  0  0  0  0  0  0  0  0
  181.4030  177.4490  135.7770 C   0  0  0  0  0  1  0  0  0  0  0  0
  182.2270  180.0260  138.5520 O   0  0  0  0  0  0  0  0  0  0  0  0
  181.1240  181.1760  137.9480 P   0  0  0  0  0  0  0  0  0  0  0  0
  180.7620  180.9060  136.3150 O   0  0  0  0  0  0  0  0  0  0  0  0
  179.8480  181.1400  138.7580 O   0  0  0  0  0  1  0  0  0  0  0  0
  181.8160  182.7120  138.0990 O   0  0  0  0  0  1  0  0  0  0  0  0
  188.1120  178.2140  140.3640 C   0  0  0  0  0  2  0  0  0  0  0  0
  189.1010  178.3980  139.2240 C   0  0  0  0  0  2  0  0  0  0  0  0
  187.2410  177.2560  137.9660 N   0  0  0  0  0  2  0  0  0  0  0  0
  188.5910  177.7230  138.0000 C   0  0  0  0  0  0  0  0  0  0  0  0
  189.3440  177.5830  136.9980 O   0  0  0  0  0  0  0  0  0  0  0  0
  186.6450  176.6500  136.7840 C   0  0  1  0  0  3  0  0  0  0  0  0
  186.2250  177.5690  134.8870 O   0  0  0  0  0  1  0  0  0  0  0  0
  187.2360  177.1700  135.6290 O   0  0  0  0  0  0  0  0  0  0  0  0
  186.8200  175.1320  136.8430 C   0  0  2  0  0  3  0  0  0  0  0  0
  187.8970  174.7460  136.0370 O   0  0  0  0  0  1  0  0  0  0  0  0
  185.4930  172.9330  136.8170 C   0  0  2  0  0  3  0  0  0  0  0  0
  185.5440  174.4070  136.4050 C   0  0  1  0  0  3  0  0  0  0  0  0
  184.0540  172.7190  137.0950 C   0  0  0  0  0  0  0  0  0  0  0  0
  184.2840  175.0620  136.9750 C   0  0  0  0  0  2  0  0  0  0  0  0
  186.2090  172.7030  137.9800 F   0  0  0  0  0  0  0  0  0  0  0  0
  183.5730  171.6140  137.2880 O   0  0  0  0  0  0  0  0  0  0  0  0
  183.2470  173.9600  137.1130 C   0  0  0  0  0  2  0  0  0  0  0  0
  1  6  1  0  0  0  0
  2 11  1  0  0  0  0
  3  7  1  0  0  0  0
  4 20  1  0  0  0  0
  4  9  2  0  0  0  0
  5  7  2  0  0  0  0
  6 10  1  0  0  0  0
  8 12  1  0  0  0  0
  8  1  1  0  0  0  0
  9  5  1  0  0  0  0
 10 13  2  0  0  0  0
 10  5  1  0  0  0  0
 11  6  2  0  0  0  0
 11  4  1  0  0  0  0
 12  2  2  0  0  0  0
 13  3  1  0  0  0  0
 14  1  2  0  0  0  0
 15 18  1  0  0  0  0
 16 15  2  0  0  0  0
 16 20  1  0  0  0  0
 18 17  2  0  0  0  0
 19 17  1  0  0  0  0
 20 19  2  0  0  0  0
 23 22  1  0  0  0  0
 23 15  1  1  0  0  0
 24 29  1  6  0  0  0
 24 25  1  0  0  0  0
 24 26  1  0  0  0  0
 25 28  2  0  0  0  0
 26 21  1  1  0  0  0
 26 27  1  0  0  0  0
 27 22  2  0  0  0  0
 28 23  1  0  0  0  0
 30 31  2  6  0  0  0
 30 34  1  0  0  0  0
 30 29  1  0  0  0  0
 32 30  1  0  0  0  0
 33 32  1  0  0  0  0
 35 38  1  0  0  0  0
 35 34  1  0  0  0  0
 35 37  1  0  0  0  0
 36 35  2  0  0  0  0
 39 12  1  0  0  0  0
 40 39  1  0  0  0  0
 41 42  1  0  0  0  0
 42 40  1  0  0  0  0
 43 42  2  0  0  0  0
 44 46  1  6  0  0  0
 44 47  1  0  0  0  0
 44 41  1  0  0  0  0
 45 46  1  0  0  0  0
 47 48  1  6  0  0  0
 49 51  1  0  0  0  0
 49 53  1  1  0  0  0
 50 49  1  0  0  0  0
 50 47  1  1  0  0  0
 50 52  1  0  0  0  0
 51 55  1  0  0  0  0
 51 54  2  0  0  0  0
 52 55  1  0  0  0  0
M  END
>  <MODEL>
4

>  <REMARK>
 VINA RESULT:      -8.6      3.162      6.538
  Name = 
  14 active torsions:
  status: ('A' for Active; 'I' for Inactive)
    1  A    between atoms: C_2  and  C_28
    2  A    between atoms: C_4  and  C_27
    3  A    between atoms: C_4  and  C_44
    4  A    between atoms: C_6  and  C_20
    5  A    between atoms: C_6  and  C_31
    6  A    between atoms: O_7  and  P_17
    7  A    between atoms: N_10  and  P_17
    8  A    between atoms: N_10  and  C_29
    9  A    between atoms: O_13  and  P_17
   10  A    between atoms: O_13  and  P_18
   11  A    between atoms: C_14  and  C_49
   12  A    between atoms: C_20  and  N_25
   13  A    between atoms: C_20  and  O_53
   14  A    between atoms: C_27  and  C_46
                            x       y       z     vdW  Elec       q    Type
                         _______ _______ _______ _____ _____    ______ ____

>  <TORSDO>
F 14

$$$$
=
 OpenBabel10222417053D

 55 60  0  0  1  0  0  0  0  0999 V2000
  190.9060  177.0890  142.8500 C   0  0  0  0  0  0  0  0  0  0  0  0
  188.2170  177.6430  142.1080 C   0  0  0  0  0  3  0  0  0  0  0  0
  191.1760  176.7480  147.4960 S   0  0  0  0  0  0  0  0  0  0  0  0
  187.5720  177.7950  144.5480 C   0  0  0  0  0  0  0  0  0  0  0  0
  189.1640  177.2930  146.2350 C   0  0  0  0  0  0  0  0  0  0  0  0
  189.8880  177.2730  143.9180 C   0  0  0  0  0  0  0  0  0  0  0  0
  189.5360  177.1210  147.5600 C   0  0  0  0  0  3  0  0  0  0  0  0
  190.6070  177.5050  141.4410 C   0  0  0  0  0  2  0  0  0  0  0  0
  187.9060  177.6230  145.8590 N   0  0  0  0  0  0  0  0  0  0  0  0
  190.1800  177.1210  145.2850 C   0  0  0  0  0  0  0  0  0  0  0  0
  188.5630  177.5980  143.5440 C   0  0  0  0  0  0  0  0  0  0  0  0
  189.1360  177.5690  141.1400 C   0  0  0  0  0  0  0  0  0  0  0  0
  191.4210  176.8020  145.8310 C   0  0  0  0  0  3  0  0  0  0  0  0
  192.0460  176.6210  143.1100 O   0  0  0  0  0  0  0  0  0  0  0  0
  184.3570  178.3920  142.6560 C   0  0  0  0  0  0  0  0  0  0  0  0
  185.6870  178.0700  142.9380 C   0  0  0  0  0  3  0  0  0  0  0  0
  183.9820  178.9560  144.9310 C   0  0  0  0  0  3  0  0  0  0  0  0
  183.5360  178.8190  143.6550 N   0  0  0  0  0  0  0  0  0  0  0  0
  185.3060  178.6490  145.2470 C   0  0  0  0  0  3  0  0  0  0  0  0
  186.1780  178.2110  144.2440 C   0  0  0  0  0  0  0  0  0  0  0  0
  181.0650  176.6380  138.3230 Cl  0  0  0  0  0  0  0  0  0  0  0  0
  182.4010  178.6290  141.1950 C   0  0  0  0  0  3  0  0  0  0  0  0
  183.8400  178.2120  141.2660 C   0  0  1  0  0  3  0  0  0  0  0  0
  183.5240  177.8110  138.4270 C   0  0  1  0  0  3  0  0  0  0  0  0
  184.4940  178.8240  138.9710 C   0  0  0  0  0  3  0  0  0  0  0  0
  182.0320  178.0850  138.7100 C   0  0  2  0  0  3  0  0  0  0  0  0
  181.6430  178.5770  140.0870 C   0  0  0  0  0  3  0  0  0  0  0  0
  184.6550  178.9980  140.2840 C   0  0  0  0  0  3  0  0  0  0  0  0
  183.7940  177.5010  137.0150 N   0  0  0  0  0  2  0  0  0  0  0  0
  184.5530  175.9160  136.7930 P   0  0  2  0  0  0  0  0  0  0  0  0
  184.1880  175.3830  135.4220 O   0  0  0  0  0  0  0  0  0  0  0  0
  183.9510  174.8580  137.9800 O   0  0  0  0  0  0  0  0  0  0  0  0
  184.3660  173.5800  137.5990 C   0  0  0  0  0  1  0  0  0  0  0  0
  186.2500  176.0420  136.8950 O   0  0  0  0  0  0  0  0  0  0  0  0
  186.7610  177.2270  135.7820 P   0  0  0  0  0  0  0  0  0  0  0  0
  185.5890  177.5240  134.5960 O   0  0  0  0  0  0  0  0  0  0  0  0
  187.0770  178.5140  136.5100 O   0  0  0  0  0  1  0  0  0  0  0  0
  188.1680  176.6760  135.0230 O   0  0  0  0  0  1  0  0  0  0  0  0
  188.7070  177.5810  139.7110 C   0  0  0  0  0  2  0  0  0  0  0  0
  189.2510  176.3730  138.9630 C   0  0  0  0  0  2  0  0  0  0  0  0
  191.6330  176.1540  138.1760 N   0  0  0  0  0  2  0  0  0  0  0  0
  190.3600  176.7930  138.0650 C   0  0  0  0  0  0  0  0  0  0  0  0
  190.1650  177.6930  137.2030 O   0  0  0  0  0  0  0  0  0  0  0  0
  192.7480  176.4570  137.2890 C   0  0  1  0  0  3  0  0  0  0  0  0
  193.4110  176.9370  139.2770 O   0  0  0  0  0  1  0  0  0  0  0  0
  193.8340  176.9320  138.0300 O   0  0  0  0  0  0  0  0  0  0  0  0
  193.1370  175.2020  136.5070 C   0  0  2  0  0  3  0  0  0  0  0  0
  192.5100  174.0810  137.0640 O   0  0  0  0  0  1  0  0  0  0  0  0
  195.2150  174.3540  137.7550 C   0  0  2  0  0  3  0  0  0  0  0  0
  194.6560  175.0060  136.4880 C   0  0  1  0  0  3  0  0  0  0  0  0
  196.3340  173.5340  137.2360 C   0  0  0  0  0  0  0  0  0  0  0  0
  195.1100  174.1380  135.3130 C   0  0  0  0  0  2  0  0  0  0  0  0
  194.2870  173.5140  138.3490 F   0  0  0  0  0  0  0  0  0  0  0  0
  197.1490  172.9870  137.9630 O   0  0  0  0  0  0  0  0  0  0  0  0
  196.3840  173.4370  135.7590 C   0  0  0  0  0  2  0  0  0  0  0  0
  1 14  2  0  0  0  0
  1  6  1  0  0  0  0
  2 11  1  0  0  0  0
  3  7  1  0  0  0  0
  4  9  2  0  0  0  0
  5  7  2  0  0  0  0
  6 10  1  0  0  0  0
  8  1  1  0  0  0  0
  9  5  1  0  0  0  0
 10 13  2  0  0  0  0
 10  5  1  0  0  0  0
 11  6  2  0  0  0  0
 11  4  1  0  0  0  0
 12  8  1  0  0  0  0
 12  2  2  0  0  0  0
 13  3  1  0  0  0  0
 15 16  2  0  0  0  0
 15 18  1  0  0  0  0
 16 20  1  0  0  0  0
 17 19  1  0  0  0  0
 18 17  2  0  0  0  0
 20  4  1  0  0  0  0
 20 19  2  0  0  0  0
 22 23  1  0  0  0  0
 23 15  1  1  0  0  0
 24 29  1  6  0  0  0
 24 26  1  0  0  0  0
 24 25  1  0  0  0  0
 25 28  2  0  0  0  0
 26 21  1  1  0  0  0
 26 27  1  0  0  0  0
 27 22  2  0  0  0  0
 28 23  1  0  0  0  0
 30 31  2  6  0  0  0
 30 34  1  0  0  0  0
 30 29  1  0  0  0  0
 30 32  1  0  0  0  0
 33 32  1  0  0  0  0
 35 37  1  0  0  0  0
 35 34  1  0  0  0  0
 36 35  2  0  0  0  0
 38 35  1  0  0  0  0
 39 12  1  0  0  0  0
 40 39  1  0  0  0  0
 42 41  1  0  0  0  0
 42 40  1  0  0  0  0
 43 42  2  0  0  0  0
 44 46  1  1  0  0  0
 44 41  1  0  0  0  0
 46 45  1  0  0  0  0
 47 48  1  1  0  0  0
 47 44  1  0  0  0  0
 49 53  1  6  0  0  0
 50 47  1  1  0  0  0
 50 49  1  0  0  0  0
 51 49  1  0  0  0  0
 51 54  2  0  0  0  0
 52 55  1  0  0  0  0
 52 50  1  0  0  0  0
 55 51  1  0  0  0  0
M  END
>  <MODEL>
5

>  <REMARK>
 VINA RESULT:      -8.5      4.429      8.347
  Name = 
  14 active torsions:
  status: ('A' for Active; 'I' for Inactive)
    1  A    between atoms: C_2  and  C_28
    2  A    between atoms: C_4  and  C_27
    3  A    between atoms: C_4  and  C_44
    4  A    between atoms: C_6  and  C_20
    5  A    between atoms: C_6  and  C_31
    6  A    between atoms: O_7  and  P_17
    7  A    between atoms: N_10  and  P_17
    8  A    between atoms: N_10  and  C_29
    9  A    between atoms: O_13  and  P_17
   10  A    between atoms: O_13  and  P_18
   11  A    between atoms: C_14  and  C_49
   12  A    between atoms: C_20  and  N_25
   13  A    between atoms: C_20  and  O_53
   14  A    between atoms: C_27  and  C_46
                            x       y       z     vdW  Elec       q    Type
                         _______ _______ _______ _____ _____    ______ ____

>  <TORSDO>
F 14

$$$$
=
 OpenBabel10222417053D

 55 60  0  0  1  0  0  0  0  0999 V2000
  190.8410  177.1230  142.8490 C   0  0  0  0  0  0  0  0  0  0  0  0
  188.1000  177.8830  142.8140 C   0  0  0  0  0  3  0  0  0  0  0  0
  192.0590  175.9810  147.2060 S   0  0  0  0  0  0  0  0  0  0  0  0
  187.9960  177.6340  145.3270 C   0  0  0  0  0  0  0  0  0  0  0  0
  189.8690  176.7990  146.5210 C   0  0  0  0  0  0  0  0  0  0  0  0
  190.0860  177.1530  144.1290 C   0  0  0  0  0  0  0  0  0  0  0  0
  190.4990  176.3900  147.6870 C   0  0  0  0  0  3  0  0  0  0  0  0
  190.2810  177.7840  141.6240 C   0  0  0  0  0  2  0  0  0  0  0  0
  188.5860  177.2290  146.4880 N   0  0  0  0  0  0  0  0  0  0  0  0
  190.6480  176.7600  145.3560 C   0  0  0  0  0  0  0  0  0  0  0  0
  188.7370  177.5810  144.1120 C   0  0  0  0  0  0  0  0  0  0  0  0
  188.7860  177.9460  141.6680 C   0  0  0  0  0  0  0  0  0  0  0  0
  191.9510  176.3120  145.5580 C   0  0  0  0  0  3  0  0  0  0  0  0
  191.9750  176.5810  142.7740 O   0  0  0  0  0  0  0  0  0  0  0  0
  184.4390  178.4640  144.3630 C   0  0  0  0  0  0  0  0  0  0  0  0
  185.7710  178.0550  144.2800 C   0  0  0  0  0  3  0  0  0  0  0  0
  184.7200  179.0070  146.6570 C   0  0  0  0  0  3  0  0  0  0  0  0
  183.9430  178.9220  145.5460 N   0  0  0  0  0  0  0  0  0  0  0  0
  186.0580  178.6130  146.6070 C   0  0  0  0  0  3  0  0  0  0  0  0
  186.6010  178.1400  145.4060 C   0  0  0  0  0  0  0  0  0  0  0  0
  179.8330  177.3900  141.1510 Cl  0  0  0  0  0  0  0  0  0  0  0  0
  182.2970  179.1250  143.3660 C   0  0  0  0  0  3  0  0  0  0  0  0
  183.5590  178.3410  143.1610 C   0  0  1  0  0  3  0  0  0  0  0  0
  182.4480  177.8610  140.5430 C   0  0  1  0  0  3  0  0  0  0  0  0
  183.7430  178.6070  140.7200 C   0  0  0  0  0  3  0  0  0  0  0  0
  181.1910  178.5440  141.1200 C   0  0  2  0  0  3  0  0  0  0  0  0
  181.2950  179.2090  142.4760 C   0  0  0  0  0  3  0  0  0  0  0  0
  184.2670  178.8150  141.9280 C   0  0  0  0  0  3  0  0  0  0  0  0
  182.2680  177.4010  139.1590 N   0  0  0  0  0  2  0  0  0  0  0  0
  181.7330  178.6920  138.0690 P   0  0  2  0  0  0  0  0  0  0  0  0
  180.2180  178.7250  138.0510 O   0  0  0  0  0  0  0  0  0  0  0  0
  182.3020  178.3480  136.5050 O   0  0  0  0  0  0  0  0  0  0  0  0
  183.0990  177.2080  136.6290 C   0  0  0  0  0  1  0  0  0  0  0  0
  182.3050  180.2060  138.6050 O   0  0  0  0  0  0  0  0  0  0  0  0
  181.1820  181.3960  138.1280 P   0  0  0  0  0  0  0  0  0  0  0  0
  181.9050  182.9200  137.9760 O   0  0  0  0  0  1  0  0  0  0  0  0
  180.5500  181.0060  136.8110 O   0  0  0  0  0  0  0  0  0  0  0  0
  179.9700  181.4900  139.3030 O   0  0  0  0  0  1  0  0  0  0  0  0
  188.0690  178.2170  140.3890 C   0  0  0  0  0  2  0  0  0  0  0  0
  189.0450  178.5190  139.2630 C   0  0  0  0  0  2  0  0  0  0  0  0
  190.0750  177.2530  137.3450 N   0  0  0  0  0  2  0  0  0  0  0  0
  188.9710  177.4510  138.2300 C   0  0  0  0  0  0  0  0  0  0  0  0
  187.9470  176.7190  138.1550 O   0  0  0  0  0  0  0  0  0  0  0  0
  190.1100  176.1860  136.3540 C   0  0  1  0  0  3  0  0  0  0  0  0
  189.2550  177.3190  134.7400 O   0  0  0  0  0  1  0  0  0  0  0  0
  190.3730  176.7160  135.0880 O   0  0  0  0  0  0  0  0  0  0  0  0
  191.1780  175.1620  136.7420 C   0  0  2  0  0  3  0  0  0  0  0  0
  190.8320  174.5480  137.9510 O   0  0  0  0  0  1  0  0  0  0  0  0
  193.5520  175.0250  137.7120 C   0  0  2  0  0  3  0  0  0  0  0  0
  192.5600  175.8140  136.8540 C   0  0  1  0  0  3  0  0  0  0  0  0
  194.8440  175.2730  137.0310 C   0  0  0  0  0  0  0  0  0  0  0  0
  193.2200  176.0040  135.4860 C   0  0  0  0  0  2  0  0  0  0  0  0
  193.2870  173.6660  137.6800 F   0  0  0  0  0  0  0  0  0  0  0  0
  195.9190  174.9520  137.5120 O   0  0  0  0  0  0  0  0  0  0  0  0
  194.7210  175.9470  135.7180 C   0  0  0  0  0  2  0  0  0  0  0  0
  1  6  1  0  0  0  0
  2 11  1  0  0  0  0
  3  7  1  0  0  0  0
  4 20  1  0  0  0  0
  4  9  2  0  0  0  0
  5  7  2  0  0  0  0
  6 10  1  0  0  0  0
  8 12  1  0  0  0  0
  8  1  1  0  0  0  0
  9  5  1  0  0  0  0
 10 13  2  0  0  0  0
 10  5  1  0  0  0  0
 11  6  2  0  0  0  0
 11  4  1  0  0  0  0
 12  2  2  0  0  0  0
 13  3  1  0  0  0  0
 14  1  2  0  0  0  0
 15 18  1  0  0  0  0
 16 15  2  0  0  0  0
 16 20  1  0  0  0  0
 18 17  2  0  0  0  0
 19 17  1  0  0  0  0
 20 19  2  0  0  0  0
 23 22  1  0  0  0  0
 23 15  1  1  0  0  0
 24 29  1  6  0  0  0
 24 25  1  0  0  0  0
 24 26  1  0  0  0  0
 25 28  2  0  0  0  0
 26 21  1  1  0  0  0
 26 27  1  0  0  0  0
 27 22  2  0  0  0  0
 28 23  1  0  0  0  0
 30 31  2  6  0  0  0
 30 34  1  0  0  0  0
 30 29  1  0  0  0  0
 32 33  1  0  0  0  0
 32 30  1  0  0  0  0
 35 34  1  0  0  0  0
 35 38  1  0  0  0  0
 36 35  1  0  0  0  0
 37 35  2  0  0  0  0
 39 12  1  0  0  0  0
 40 39  1  0  0  0  0
 41 42  1  0  0  0  0
 42 40  1  0  0  0  0
 43 42  2  0  0  0  0
 44 46  1  6  0  0  0
 44 47  1  0  0  0  0
 44 41  1  0  0  0  0
 45 46  1  0  0  0  0
 47 48  1  1  0  0  0
 49 53  1  6  0  0  0
 50 47  1  6  0  0  0
 50 49  1  0  0  0  0
 51 54  2  0  0  0  0
 51 49  1  0  0  0  0
 52 55  1  0  0  0  0
 52 50  1  0  0  0  0
 55 51  1  0  0  0  0
M  END
>  <MODEL>
6

>  <REMARK>
 VINA RESULT:      -8.4      3.997      8.020
  Name = 
  14 active torsions:
  status: ('A' for Active; 'I' for Inactive)
    1  A    between atoms: C_2  and  C_28
    2  A    between atoms: C_4  and  C_27
    3  A    between atoms: C_4  and  C_44
    4  A    between atoms: C_6  and  C_20
    5  A    between atoms: C_6  and  C_31
    6  A    between atoms: O_7  and  P_17
    7  A    between atoms: N_10  and  P_17
    8  A    between atoms: N_10  and  C_29
    9  A    between atoms: O_13  and  P_17
   10  A    between atoms: O_13  and  P_18
   11  A    between atoms: C_14  and  C_49
   12  A    between atoms: C_20  and  N_25
   13  A    between atoms: C_20  and  O_53
   14  A    between atoms: C_27  and  C_46
                            x       y       z     vdW  Elec       q    Type
                         _______ _______ _______ _____ _____    ______ ____

>  <TORSDO>
F 14

$$$$
=
 OpenBabel10222417053D

 55 60  0  0  1  0  0  0  0  0999 V2000
  190.5770  177.0900  143.0510 C   0  0  0  0  0  0  0  0  0  0  0  0
  187.9800  177.6230  142.0200 C   0  0  0  0  0  3  0  0  0  0  0  0
  190.3830  176.9740  147.7110 S   0  0  0  0  0  0  0  0  0  0  0  0
  187.0990  177.8970  144.3740 C   0  0  0  0  0  0  0  0  0  0  0  0
  188.5110  177.4690  146.2320 C   0  0  0  0  0  0  0  0  0  0  0  0
  189.4610  177.3310  144.0020 C   0  0  0  0  0  0  0  0  0  0  0  0
  188.7490  177.3590  147.5940 C   0  0  0  0  0  3  0  0  0  0  0  0
  190.4230  177.4380  141.6000 C   0  0  0  0  0  2  0  0  0  0  0  0
  187.3010  177.7880  145.7180 N   0  0  0  0  0  0  0  0  0  0  0  0
  189.6140  177.2440  145.3960 C   0  0  0  0  0  0  0  0  0  0  0  0
  188.1830  177.6460  143.4830 C   0  0  0  0  0  0  0  0  0  0  0  0
  188.9890  177.4960  141.1520 C   0  0  0  0  0  0  0  0  0  0  0  0
  190.7910  176.9440  146.0770 C   0  0  0  0  0  3  0  0  0  0  0  0
  191.6800  176.6280  143.4440 O   0  0  0  0  0  0  0  0  0  0  0  0
  184.1340  178.5250  142.1190 C   0  0  0  0  0  0  0  0  0  0  0  0
  185.4240  178.2090  142.5520 C   0  0  0  0  0  3  0  0  0  0  0  0
  183.4690  178.9960  144.3480 C   0  0  0  0  0  3  0  0  0  0  0  0
  183.1880  178.9030  143.0220 N   0  0  0  0  0  0  0  0  0  0  0  0
  184.7490  178.6950  144.8150 C   0  0  0  0  0  3  0  0  0  0  0  0
  185.7470  178.3060  143.9130 C   0  0  0  0  0  0  0  0  0  0  0  0
  181.0640  177.7800  137.3530 Cl  0  0  0  0  0  0  0  0  0  0  0  0
  182.7310  179.3780  140.2960 C   0  0  0  0  0  3  0  0  0  0  0  0
  183.7970  178.3910  140.6690 C   0  0  1  0  0  3  0  0  0  0  0  0
  183.7440  177.7660  137.8530 C   0  0  1  0  0  3  0  0  0  0  0  0
  184.9790  178.3220  138.5090 C   0  0  0  0  0  3  0  0  0  0  0  0
  182.5160  178.6990  137.8260 C   0  0  2  0  0  3  0  0  0  0  0  0
  182.1990  179.5030  139.0690 C   0  0  0  0  0  3  0  0  0  0  0  0
  185.0110  178.5940  139.8150 C   0  0  0  0  0  3  0  0  0  0  0  0
  184.0430  177.1710  136.5430 N   0  0  0  0  0  2  0  0  0  0  0  0
  183.8560  175.4090  136.5300 P   0  0  2  0  0  0  0  0  0  0  0  0
  182.8230  175.0310  135.4870 O   0  0  0  0  0  0  0  0  0  0  0  0
  183.3080  174.9130  138.0600 O   0  0  0  0  0  0  0  0  0  0  0  0
  181.9630  174.5780  137.8960 C   0  0  0  0  0  1  0  0  0  0  0  0
  185.3310  174.6510  136.1360 O   0  0  0  0  0  0  0  0  0  0  0  0
  185.2480  173.0290  136.6530 P   0  0  0  0  0  0  0  0  0  0  0  0
  183.8140  172.2800  136.1540 O   0  0  0  0  0  1  0  0  0  0  0  0
  186.4320  172.2570  136.1160 O   0  0  0  0  0  0  0  0  0  0  0  0
  185.3090  173.0030  138.3430 O   0  0  0  0  0  1  0  0  0  0  0  0
  188.7040  177.4410  139.6890 C   0  0  0  0  0  2  0  0  0  0  0  0
  189.9320  177.8160  138.8740 C   0  0  0  0  0  2  0  0  0  0  0  0
  191.6560  176.7210  137.4000 N   0  0  0  0  0  2  0  0  0  0  0  0
  190.4590  176.6140  138.1730 C   0  0  0  0  0  0  0  0  0  0  0  0
  189.8590  175.5100  138.2800 O   0  0  0  0  0  0  0  0  0  0  0  0
  192.2750  175.5790  136.7420 C   0  0  1  0  0  3  0  0  0  0  0  0
  191.8340  175.8390  134.6540 O   0  0  0  0  0  1  0  0  0  0  0  0
  192.8200  175.9710  135.5160 O   0  0  0  0  0  0  0  0  0  0  0  0
  193.3540  174.9880  137.6480 C   0  0  2  0  0  3  0  0  0  0  0  0
  194.1860  176.0080  138.1260 O   0  0  0  0  0  1  0  0  0  0  0  0
  195.3370  173.3580  137.7370 C   0  0  2  0  0  3  0  0  0  0  0  0
  194.1820  173.9300  136.9110 C   0  0  1  0  0  3  0  0  0  0  0  0
  195.3950  171.9480  137.2870 C   0  0  0  0  0  0  0  0  0  0  0  0
  193.3310  172.7390  136.4660 C   0  0  0  0  0  2  0  0  0  0  0  0
  195.0550  173.3800  139.0940 F   0  0  0  0  0  0  0  0  0  0  0  0
  196.3050  171.1920  137.5880 O   0  0  0  0  0  0  0  0  0  0  0  0
  194.2560  171.5330  136.4360 C   0  0  0  0  0  2  0  0  0  0  0  0
  1 14  2  0  0  0  0
  1  6  1  0  0  0  0
  2 11  1  0  0  0  0
  4  9  2  0  0  0  0
  5  7  2  0  0  0  0
  6 10  1  0  0  0  0
  7  3  1  0  0  0  0
  8  1  1  0  0  0  0
  9  5  1  0  0  0  0
 10 13  2  0  0  0  0
 10  5  1  0  0  0  0
 11  6  2  0  0  0  0
 11  4  1  0  0  0  0
 12  8  1  0  0  0  0
 12  2  2  0  0  0  0
 13  3  1  0  0  0  0
 15 16  2  0  0  0  0
 15 18  1  0  0  0  0
 16 20  1  0  0  0  0
 17 19  1  0  0  0  0
 18 17  2  0  0  0  0
 20  4  1  0  0  0  0
 20 19  2  0  0  0  0
 22 23  1  0  0  0  0
 23 15  1  1  0  0  0
 24 29  1  6  0  0  0
 24 25  1  0  0  0  0
 25 28  2  0  0  0  0
 26 21  1  1  0  0  0
 26 24  1  0  0  0  0
 26 27  1  0  0  0  0
 27 22  2  0  0  0  0
 28 23  1  0  0  0  0
 30 31  2  6  0  0  0
 30 29  1  0  0  0  0
 30 32  1  0  0  0  0
 33 32  1  0  0  0  0
 34 30  1  0  0  0  0
 34 35  1  0  0  0  0
 35 38  1  0  0  0  0
 36 35  1  0  0  0  0
 37 35  2  0  0  0  0
 39 12  1  0  0  0  0
 40 39  1  0  0  0  0
 41 42  1  0  0  0  0
 42 43  2  0  0  0  0
 42 40  1  0  0  0  0
 44 46  1  6  0  0  0
 44 41  1  0  0  0  0
 44 47  1  0  0  0  0
 45 46  1  0  0  0  0
 47 48  1  6  0  0  0
 49 53  1  1  0  0  0
 50 47  1  1  0  0  0
 50 49  1  0  0  0  0
 51 54  2  0  0  0  0
 51 49  1  0  0  0  0
 52 50  1  0  0  0  0
 55 52  1  0  0  0  0
 55 51  1  0  0  0  0
M  END
>  <MODEL>
7

>  <REMARK>
 VINA RESULT:      -8.4      4.255      8.192
  Name = 
  14 active torsions:
  status: ('A' for Active; 'I' for Inactive)
    1  A    between atoms: C_2  and  C_28
    2  A    between atoms: C_4  and  C_27
    3  A    between atoms: C_4  and  C_44
    4  A    between atoms: C_6  and  C_20
    5  A    between atoms: C_6  and  C_31
    6  A    between atoms: O_7  and  P_17
    7  A    between atoms: N_10  and  P_17
    8  A    between atoms: N_10  and  C_29
    9  A    between atoms: O_13  and  P_17
   10  A    between atoms: O_13  and  P_18
   11  A    between atoms: C_14  and  C_49
   12  A    between atoms: C_20  and  N_25
   13  A    between atoms: C_20  and  O_53
   14  A    between atoms: C_27  and  C_46
                            x       y       z     vdW  Elec       q    Type
                         _______ _______ _______ _____ _____    ______ ____

>  <TORSDO>
F 14

$$$$
=
 OpenBabel10222417053D

 55 60  0  0  1  0  0  0  0  0999 V2000
  190.3870  177.3320  142.5630 C   0  0  0  0  0  0  0  0  0  0  0  0
  187.6640  177.9170  141.9900 C   0  0  0  0  0  3  0  0  0  0  0  0
  190.8890  176.7120  147.1600 S   0  0  0  0  0  0  0  0  0  0  0  0
  187.1410  177.9170  144.4640 C   0  0  0  0  0  0  0  0  0  0  0  0
  188.8160  177.3220  146.0360 C   0  0  0  0  0  0  0  0  0  0  0  0
  189.4240  177.4460  143.6880 C   0  0  0  0  0  0  0  0  0  0  0  0
  189.2540  177.0720  147.3280 C   0  0  0  0  0  3  0  0  0  0  0  0
  190.0180  177.8300  141.1970 C   0  0  0  0  0  2  0  0  0  0  0  0
  187.5400  177.6680  145.7440 N   0  0  0  0  0  0  0  0  0  0  0  0
  189.7830  177.2120  145.0270 C   0  0  0  0  0  0  0  0  0  0  0  0
  188.0810  177.7870  143.4020 C   0  0  0  0  0  0  0  0  0  0  0  0
  188.5320  177.9060  140.9740 C   0  0  0  0  0  0  0  0  0  0  0  0
  191.0500  176.8670  145.4910 C   0  0  0  0  0  3  0  0  0  0  0  0
  191.5390  176.8540  142.7360 O   0  0  0  0  0  0  0  0  0  0  0  0
  183.8400  178.6290  142.7700 C   0  0  0  0  0  0  0  0  0  0  0  0
  185.1820  178.2970  142.9670 C   0  0  0  0  0  3  0  0  0  0  0  0
  183.5670  179.0200  145.0960 C   0  0  0  0  0  3  0  0  0  0  0  0
  183.0640  178.9750  143.8340 N   0  0  0  0  0  0  0  0  0  0  0  0
  184.9060  178.7010  145.3270 C   0  0  0  0  0  3  0  0  0  0  0  0
  185.7330  178.3440  144.2550 C   0  0  0  0  0  0  0  0  0  0  0  0
  181.6120  180.2560  137.7620 Cl  0  0  0  0  0  0  0  0  0  0  0  0
  184.0660  179.3830  140.4470 C   0  0  0  0  0  3  0  0  0  0  0  0
  183.2600  178.5470  141.3950 C   0  0  1  0  0  3  0  0  0  0  0  0
  181.7970  177.8400  139.0120 C   0  0  1  0  0  3  0  0  0  0  0  0
  182.5470  176.8060  139.8060 C   0  0  0  0  0  3  0  0  0  0  0  0
  182.6560  178.9340  138.3450 C   0  0  2  0  0  3  0  0  0  0  0  0
  183.7990  179.5300  139.1390 C   0  0  0  0  0  3  0  0  0  0  0  0
  183.2090  177.1270  140.9180 C   0  0  0  0  0  3  0  0  0  0  0  0
  180.8320  177.2260  138.0890 N   0  0  0  0  0  2  0  0  0  0  0  0
  181.6020  176.1760  136.8880 P   0  0  2  0  0  0  0  0  0  0  0  0
  183.0070  176.6800  136.6220 O   0  0  0  0  0  0  0  0  0  0  0  0
  180.7020  176.2510  135.4480 O   0  0  0  0  0  0  0  0  0  0  0  0
  180.1520  177.5340  135.4070 C   0  0  0  0  0  1  0  0  0  0  0  0
  181.6970  174.5730  137.4620 O   0  0  0  0  0  0  0  0  0  0  0  0
  180.1470  174.1090  137.9960 P   0  0  0  0  0  0  0  0  0  0  0  0
  178.9310  174.6560  136.9520 O   0  0  0  0  0  0  0  0  0  0  0  0
  180.0720  172.6030  138.1080 O   0  0  0  0  0  1  0  0  0  0  0  0
  179.8840  174.7780  139.5260 O   0  0  0  0  0  1  0  0  0  0  0  0
  188.0340  178.0020  139.5720 C   0  0  0  0  0  2  0  0  0  0  0  0
  189.0770  178.6250  138.6580 C   0  0  0  0  0  2  0  0  0  0  0  0
  189.6640  176.4120  137.6080 N   0  0  0  0  0  2  0  0  0  0  0  0
  189.2630  177.7740  137.4510 C   0  0  0  0  0  0  0  0  0  0  0  0
  189.0480  178.2540  136.3050 O   0  0  0  0  0  0  0  0  0  0  0  0
  189.7990  175.4950  136.4840 C   0  0  1  0  0  3  0  0  0  0  0  0
  191.8050  175.4520  137.2580 O   0  0  0  0  0  1  0  0  0  0  0  0
  191.1440  175.3780  136.1210 O   0  0  0  0  0  0  0  0  0  0  0  0
  189.2220  174.1310  136.8630 C   0  0  2  0  0  3  0  0  0  0  0  0
  189.9890  173.1130  136.2850 O   0  0  0  0  0  1  0  0  0  0  0  0
  187.1240  172.6530  136.7620 C   0  0  2  0  0  3  0  0  0  0  0  0
  187.7590  174.0050  136.4270 C   0  0  1  0  0  3  0  0  0  0  0  0
  185.7220  173.0170  137.0710 C   0  0  0  0  0  0  0  0  0  0  0  0
  186.8720  175.0750  137.0680 C   0  0  0  0  0  2  0  0  0  0  0  0
  187.6950  172.0860  137.8890 F   0  0  0  0  0  0  0  0  0  0  0  0
  184.8380  172.1880  137.2210 O   0  0  0  0  0  0  0  0  0  0  0  0
  185.4810  174.4740  137.1800 C   0  0  0  0  0  2  0  0  0  0  0  0
  1 14  2  0  0  0  0
  1  6  1  0  0  0  0
  2 11  1  0  0  0  0
  3  7  1  0  0  0  0
  4  9  2  0  0  0  0
  5  7  2  0  0  0  0
  6 10  1  0  0  0  0
  8  1  1  0  0  0  0
  9  5  1  0  0  0  0
 10 13  2  0  0  0  0
 10  5  1  0  0  0  0
 11  6  2  0  0  0  0
 11  4  1  0  0  0  0
 12  8  1  0  0  0  0
 12  2  2  0  0  0  0
 13  3  1  0  0  0  0
 15 16  2  0  0  0  0
 15 18  1  0  0  0  0
 16 20  1  0  0  0  0
 17 19  1  0  0  0  0
 18 17  2  0  0  0  0
 20  4  1  0  0  0  0
 20 19  2  0  0  0  0
 22 23  1  0  0  0  0
 23 15  1  1  0  0  0
 24 29  1  6  0  0  0
 24 25  1  0  0  0  0
 25 28  2  0  0  0  0
 26 21  1  1  0  0  0
 26 24  1  0  0  0  0
 26 27  1  0  0  0  0
 27 22  2  0  0  0  0
 28 23  1  0  0  0  0
 30 31  2  6  0  0  0
 30 34  1  0  0  0  0
 30 29  1  0  0  0  0
 32 30  1  0  0  0  0
 33 32  1  0  0  0  0
 34 35  1  0  0  0  0
 35 37  1  0  0  0  0
 35 38  1  0  0  0  0
 36 35  2  0  0  0  0
 39 12  1  0  0  0  0
 40 39  1  0  0  0  0
 42 41  1  0  0  0  0
 42 40  1  0  0  0  0
 43 42  2  0  0  0  0
 44 46  1  1  0  0  0
 44 47  1  0  0  0  0
 44 41  1  0  0  0  0
 46 45  1  0  0  0  0
 47 48  1  6  0  0  0
 49 51  1  0  0  0  0
 49 53  1  1  0  0  0
 50 49  1  0  0  0  0
 50 47  1  1  0  0  0
 50 52  1  0  0  0  0
 51 55  1  0  0  0  0
 51 54  2  0  0  0  0
 52 55  1  0  0  0  0
M  END
>  <MODEL>
8

>  <REMARK>
 VINA RESULT:      -8.1      3.028      6.478
  Name = 
  14 active torsions:
  status: ('A' for Active; 'I' for Inactive)
    1  A    between atoms: C_2  and  C_28
    2  A    between atoms: C_4  and  C_27
    3  A    between atoms: C_4  and  C_44
    4  A    between atoms: C_6  and  C_20
    5  A    between atoms: C_6  and  C_31
    6  A    between atoms: O_7  and  P_17
    7  A    between atoms: N_10  and  P_17
    8  A    between atoms: N_10  and  C_29
    9  A    between atoms: O_13  and  P_17
   10  A    between atoms: O_13  and  P_18
   11  A    between atoms: C_14  and  C_49
   12  A    between atoms: C_20  and  N_25
   13  A    between atoms: C_20  and  O_53
   14  A    between atoms: C_27  and  C_46
                            x       y       z     vdW  Elec       q    Type
                         _______ _______ _______ _____ _____    ______ ____

>  <TORSDO>
F 14

$$$$
=
 OpenBabel10222417053D

 55 60  0  0  1  0  0  0  0  0999 V2000
  183.9500  179.1620  143.7850 C   0  0  0  0  0  0  0  0  0  0  0  0
  184.7490  178.5800  141.1180 C   0  0  0  0  0  3  0  0  0  0  0  0
  179.3110  178.7890  144.1120 S   0  0  0  0  0  0  0  0  0  0  0  0
  182.3240  178.3590  140.4370 C   0  0  0  0  0  0  0  0  0  0  0  0
  180.6100  178.4990  142.0710 C   0  0  0  0  0  0  0  0  0  0  0  0
  182.9060  178.8670  142.7690 C   0  0  0  0  0  0  0  0  0  0  0  0
  179.2810  178.4460  142.4640 C   0  0  0  0  0  3  0  0  0  0  0  0
  185.3550  179.4700  143.3590 C   0  0  0  0  0  2  0  0  0  0  0  0
  181.0100  178.2920  140.7950 N   0  0  0  0  0  0  0  0  0  0  0  0
  181.5370  178.7980  143.0800 C   0  0  0  0  0  0  0  0  0  0  0  0
  183.3060  178.6290  141.4330 C   0  0  0  0  0  0  0  0  0  0  0  0
  185.6940  178.9300  141.9970 C   0  0  0  0  0  0  0  0  0  0  0  0
  180.9660  179.0020  144.3340 C   0  0  0  0  0  3  0  0  0  0  0  0
  183.6730  179.1990  145.0120 O   0  0  0  0  0  0  0  0  0  0  0  0
  184.0030  177.1030  137.2940 C   0  0  0  0  0  0  0  0  0  0  0  0
  183.7270  177.3420  138.6420 C   0  0  0  0  0  3  0  0  0  0  0  0
  182.1620  178.4570  136.6490 C   0  0  0  0  0  3  0  0  0  0  0  0
  183.2140  177.6580  136.3320 N   0  0  0  0  0  0  0  0  0  0  0  0
  181.8630  178.7220  137.9860 C   0  0  0  0  0  3  0  0  0  0  0  0
  182.6550  178.1710  139.0000 C   0  0  0  0  0  0  0  0  0  0  0  0
  187.5800  172.6450  137.4090 Cl  0  0  0  0  0  0  0  0  0  0  0  0
  184.6180  174.8100  136.6790 C   0  0  0  0  0  3  0  0  0  0  0  0
  185.1330  176.1960  136.9280 C   0  0  1  0  0  3  0  0  0  0  0  0
  187.6560  175.0500  136.1280 C   0  0  1  0  0  3  0  0  0  0  0  0
  187.0150  176.1600  135.3390 C   0  0  0  0  0  3  0  0  0  0  0  0
  186.8860  173.7140  136.1640 C   0  0  2  0  0  3  0  0  0  0  0  0
  185.3830  173.7580  136.3430 C   0  0  0  0  0  3  0  0  0  0  0  0
  185.8570  176.7030  135.7180 C   0  0  0  0  0  3  0  0  0  0  0  0
  189.0760  174.8860  135.7840 N   0  0  0  0  0  2  0  0  0  0  0  0
  190.1630  175.5140  137.0340 P   0  0  2  0  0  0  0  0  0  0  0  0
  190.5470  174.3830  137.9670 O   0  0  0  0  0  0  0  0  0  0  0  0
  189.3370  176.7080  137.9180 O   0  0  0  0  0  0  0  0  0  0  0  0
  189.5420  177.9050  137.2290 C   0  0  0  0  0  1  0  0  0  0  0  0
  191.5820  176.1490  136.3330 O   0  0  0  0  0  0  0  0  0  0  0  0
  192.8470  175.9920  137.4640 P   0  0  0  0  0  0  0  0  0  0  0  0
  192.4580  176.7080  138.9490 O   0  0  0  0  0  1  0  0  0  0  0  0
  193.1640  174.5290  137.6800 O   0  0  0  0  0  1  0  0  0  0  0  0
  194.2200  176.7560  136.8400 O   0  0  0  0  0  0  0  0  0  0  0  0
  187.1320  178.8170  141.6210 C   0  0  0  0  0  2  0  0  0  0  0  0
  187.6020  177.3720  141.6650 C   0  0  0  0  0  2  0  0  0  0  0  0
  189.4190  177.6980  143.3790 N   0  0  0  0  0  2  0  0  0  0  0  0
  189.0370  177.3190  142.0550 C   0  0  0  0  0  0  0  0  0  0  0  0
  189.9000  176.9240  141.2240 O   0  0  0  0  0  0  0  0  0  0  0  0
  190.7910  177.6080  143.8600 C   0  0  1  0  0  3  0  0  0  0  0  0
  190.9980  179.7440  143.9800 O   0  0  0  0  0  1  0  0  0  0  0  0
  191.5350  178.6960  143.3930 O   0  0  0  0  0  0  0  0  0  0  0  0
  190.7960  177.5670  145.3880 C   0  0  2  0  0  3  0  0  0  0  0  0
  191.8380  176.7480  145.8390 O   0  0  0  0  0  1  0  0  0  0  0  0
  189.4210  176.9250  147.4600 C   0  0  2  0  0  3  0  0  0  0  0  0
  189.4550  177.0690  145.9360 C   0  0  1  0  0  3  0  0  0  0  0  0
  188.0250  177.2930  147.7930 C   0  0  0  0  0  0  0  0  0  0  0  0
  188.2980  177.9960  145.5590 C   0  0  0  0  0  2  0  0  0  0  0  0
  190.2760  177.8230  148.0770 F   0  0  0  0  0  0  0  0  0  0  0  0
  187.5450  177.1370  148.9040 O   0  0  0  0  0  0  0  0  0  0  0  0
  187.2590  177.8630  146.6610 C   0  0  0  0  0  2  0  0  0  0  0  0
  1 14  2  0  0  0  0
  2 11  1  0  0  0  0
  2 12  2  0  0  0  0
  3 13  1  0  0  0  0
  4  9  2  0  0  0  0
  4 11  1  0  0  0  0
  5  7  2  0  0  0  0
  5 10  1  0  0  0  0
  6 10  1  0  0  0  0
  6  1  1  0  0  0  0
  7  3  1  0  0  0  0
  8  1  1  0  0  0  0
  9  5  1  0  0  0  0
 10 13  2  0  0  0  0
 11  6  2  0  0  0  0
 12  8  1  0  0  0  0
 15 16  1  0  0  0  0
 16 20  2  0  0  0  0
 17 19  2  0  0  0  0
 18 17  1  0  0  0  0
 18 15  2  0  0  0  0
 19 20  1  0  0  0  0
 20  4  1  0  0  0  0
 22 23  1  0  0  0  0
 23 15  1  6  0  0  0
 24 29  1  6  0  0  0
 24 26  1  0  0  0  0
 25 28  2  0  0  0  0
 25 24  1  0  0  0  0
 26 27  1  0  0  0  0
 26 21  1  1  0  0  0
 27 22  2  0  0  0  0
 28 23  1  0  0  0  0
 29 30  1  0  0  0  0
 30 32  1  0  0  0  0
 30 31  2  1  0  0  0
 33 32  1  0  0  0  0
 34 30  1  0  0  0  0
 34 35  1  0  0  0  0
 35 37  1  0  0  0  0
 35 36  1  0  0  0  0
 38 35  2  0  0  0  0
 39 40  1  0  0  0  0
 39 12  1  0  0  0  0
 40 42  1  0  0  0  0
 42 41  1  0  0  0  0
 43 42  2  0  0  0  0
 44 41  1  1  0  0  0
 44 47  1  0  0  0  0
 46 44  1  0  0  0  0
 46 45  1  0  0  0  0
 47 48  1  6  0  0  0
 49 51  1  0  0  0  0
 49 53  1  1  0  0  0
 50 47  1  1  0  0  0
 50 49  1  0  0  0  0
 51 54  2  0  0  0  0
 52 50  1  0  0  0  0
 52 55  1  0  0  0  0
 55 51  1  0  0  0  0
M  END
>  <MODEL>
9

>  <REMARK>
 VINA RESULT:      -8.0      4.722      8.774
  Name = 
  14 active torsions:
  status: ('A' for Active; 'I' for Inactive)
    1  A    between atoms: C_2  and  C_28
    2  A    between atoms: C_4  and  C_27
    3  A    between atoms: C_4  and  C_44
    4  A    between atoms: C_6  and  C_20
    5  A    between atoms: C_6  and  C_31
    6  A    between atoms: O_7  and  P_17
    7  A    between atoms: N_10  and  P_17
    8  A    between atoms: N_10  and  C_29
    9  A    between atoms: O_13  and  P_17
   10  A    between atoms: O_13  and  P_18
   11  A    between atoms: C_14  and  C_49
   12  A    between atoms: C_20  and  N_25
   13  A    between atoms: C_20  and  O_53
   14  A    between atoms: C_27  and  C_46
                            x       y       z     vdW  Elec       q    Type
                         _______ _______ _______ _____ _____    ______ ____

>  <TORSDO>
F 14

$$$$
