=
 OpenBabel10222417093D

 25 28  0  0  1  0  0  0  0  0999 V2000
  186.0600  178.4330  145.9840 C   0  0  0  0  0  0  0  0  0  0  0  0
  191.4460  176.3500  146.6950 C   0  0  0  0  0  0  0  0  0  0  0  0
  185.5450  179.2860  143.1030 C   0  0  0  0  0  2  0  0  0  0  0  0
  187.5110  178.0240  143.9010 C   0  0  0  0  0  0  0  0  0  0  0  0
  183.1160  179.0110  143.5180 C   0  0  0  0  0  1  0  0  0  0  0  0
  183.7250  178.5750  146.1980 O   0  0  0  0  0  0  0  0  0  0  0  0
  190.3480  177.0100  147.0700 C   0  0  0  0  0  3  0  0  0  0  0  0
  184.7100  178.6460  145.4140 C   0  0  0  0  0  0  0  0  0  0  0  0
  186.2570  178.2920  147.4000 N   0  0  0  0  0  2  0  0  0  0  0  0
  190.9820  176.6160  144.2790 C   0  0  0  0  0  0  0  0  0  0  0  0
  186.4280  178.0820  142.8550 C   0  0  2  0  0  3  0  0  0  0  0  0
  188.1920  177.9300  146.3460 C   0  0  0  0  0  0  0  0  0  0  0  0
  187.4970  177.9880  147.6210 C   0  0  0  0  0  3  0  0  0  0  0  0
  189.4230  177.5190  146.0480 C   0  0  1  0  0  3  0  0  0  0  0  0
  188.7650  177.6380  143.5860 C   0  0  0  0  0  3  0  0  0  0  0  0
  192.3690  175.8200  147.7300 C   0  0  0  0  0  1  0  0  0  0  0  0
  187.2070  178.2270  145.3360 C   0  0  0  0  0  0  0  0  0  0  0  0
  191.7180  176.0760  145.2670 C   0  0  0  0  0  3  0  0  0  0  0  0
  184.4780  178.9360  144.0230 N   0  0  0  0  0  0  0  0  0  0  0  0
  186.9710  178.1740  141.4350 C   0  0  0  0  0  1  0  0  0  0  0  0
  189.8920  177.6110  144.6060 C   0  0  2  0  0  3  0  0  0  0  0  0
  191.2520  176.3250  142.9340 O   0  0  0  0  0  0  0  0  0  0  0  0
  191.9510  177.2070  142.0610 C   0  0  0  0  0  2  0  0  0  0  0  0
  191.2190  177.3220  140.7370 C   0  0  0  0  0  2  0  0  0  0  0  0
  190.2820  176.2960  140.6340 O   0  0  0  0  0  1  0  0  0  0  0  0
  1  9  1  0  0  0  0
  2  7  2  0  0  0  0
  2 16  1  0  0  0  0
  3 19  1  0  0  0  0
  4 17  1  0  0  0  0
  5 19  1  0  0  0  0
  8  1  1  0  0  0  0
  8  6  2  0  0  0  0
  9 13  1  0  0  0  0
 10 21  1  0  0  0  0
 10 18  2  0  0  0  0
 11 20  1  6  0  0  0
 11  3  1  0  0  0  0
 11  4  1  0  0  0  0
 12 13  2  0  0  0  0
 14 12  1  0  0  0  0
 14  7  1  1  0  0  0
 15  4  2  0  0  0  0
 17  1  2  0  0  0  0
 17 12  1  0  0  0  0
 18  2  1  0  0  0  0
 19  8  1  0  0  0  0
 21 15  1  6  0  0  0
 21 14  1  0  0  0  0
 22 10  1  0  0  0  0
 23 22  1  0  0  0  0
 24 23  1  0  0  0  0
 25 24  1  0  0  0  0
M  END
>  <MODEL>
1

>  <REMARK>
 VINA RESULT:      -9.6      0.000      0.000
  Name = 
  3 active torsions:
  status: ('A' for Active; 'I' for Inactive)
    1  A    between atoms: C_3  and  C_10
    2  A    between atoms: C_10  and  O_16
    3  A    between atoms: C_12  and  O_16
                            x       y       z     vdW  Elec       q    Type
                         _______ _______ _______ _____ _____    ______ ____

>  <TORSDO>
F 3

$$$$
=
 OpenBabel10222417093D

 25 28  0  0  1  0  0  0  0  0999 V2000
  190.3760  177.0920  142.1500 C   0  0  0  0  0  0  0  0  0  0  0  0
  187.8680  177.8640  147.3430 C   0  0  0  0  0  0  0  0  0  0  0  0
  188.3610  177.3180  139.8730 C   0  0  0  0  0  2  0  0  0  0  0  0
  187.9330  177.8920  142.2350 C   0  0  0  0  0  0  0  0  0  0  0  0
  190.2370  177.8630  138.3450 C   0  0  0  0  0  1  0  0  0  0  0  0
  191.9760  177.2980  140.4420 O   0  0  0  0  0  0  0  0  0  0  0  0
  188.7430  177.3200  146.4940 C   0  0  0  0  0  3  0  0  0  0  0  0
  190.7490  177.3130  140.7340 C   0  0  0  0  0  0  0  0  0  0  0  0
  191.3600  176.7330  143.1330 N   0  0  0  0  0  2  0  0  0  0  0  0
  186.2660  178.4750  145.5600 C   0  0  0  0  0  0  0  0  0  0  0  0
  187.7980  178.3640  140.8110 C   0  0  2  0  0  3  0  0  0  0  0  0
  189.3970  177.0730  144.1420 C   0  0  0  0  0  0  0  0  0  0  0  0
  190.8000  176.7290  144.3020 C   0  0  0  0  0  3  0  0  0  0  0  0
  188.4610  177.3370  145.0520 C   0  0  1  0  0  3  0  0  0  0  0  0
  186.9660  178.1340  143.1450 C   0  0  0  0  0  3  0  0  0  0  0  0
  188.1640  177.8630  148.7980 C   0  0  0  0  0  1  0  0  0  0  0  0
  189.1930  177.2940  142.7320 C   0  0  0  0  0  0  0  0  0  0  0  0
  186.6440  178.5310  146.8490 C   0  0  0  0  0  3  0  0  0  0  0  0
  189.7850  177.5320  139.6880 N   0  0  0  0  0  0  0  0  0  0  0  0
  186.3560  178.6410  140.4050 C   0  0  0  0  0  1  0  0  0  0  0  0
  187.0490  177.6340  144.5780 C   0  0  2  0  0  3  0  0  0  0  0  0
  185.1080  179.1330  145.1160 O   0  0  0  0  0  0  0  0  0  0  0  0
  183.7900  178.6380  145.3290 C   0  0  0  0  0  2  0  0  0  0  0  0
  182.9010  178.9970  144.1530 C   0  0  0  0  0  2  0  0  0  0  0  0
  183.5260  178.6200  142.9660 O   0  0  0  0  0  1  0  0  0  0  0  0
  1 17  2  0  0  0  0
  1  9  1  0  0  0  0
  2 16  1  0  0  0  0
  3 11  1  0  0  0  0
  4 17  1  0  0  0  0
  4 15  2  0  0  0  0
  5 19  1  0  0  0  0
  6  8  2  0  0  0  0
  7  2  2  0  0  0  0
  8  1  1  0  0  0  0
  9 13  1  0  0  0  0
 10 18  2  0  0  0  0
 11 20  1  6  0  0  0
 11  4  1  0  0  0  0
 12 13  2  0  0  0  0
 12 14  1  0  0  0  0
 14  7  1  1  0  0  0
 17 12  1  0  0  0  0
 18  2  1  0  0  0  0
 19  3  1  0  0  0  0
 19  8  1  0  0  0  0
 21 15  1  6  0  0  0
 21 14  1  0  0  0  0
 21 10  1  0  0  0  0
 22 23  1  0  0  0  0
 22 10  1  0  0  0  0
 24 23  1  0  0  0  0
 25 24  1  0  0  0  0
M  END
>  <MODEL>
2

>  <REMARK>
 VINA RESULT:      -9.2      2.461      5.777
  Name = 
  3 active torsions:
  status: ('A' for Active; 'I' for Inactive)
    1  A    between atoms: C_3  and  C_10
    2  A    between atoms: C_10  and  O_16
    3  A    between atoms: C_12  and  O_16
                            x       y       z     vdW  Elec       q    Type
                         _______ _______ _______ _____ _____    ______ ____

>  <TORSDO>
F 3

$$$$
=
 OpenBabel10222417093D

 25 28  0  0  1  0  0  0  0  0999 V2000
  187.9580  177.5870  146.6920 C   0  0  0  0  0  0  0  0  0  0  0  0
  184.8760  178.6740  141.8780 C   0  0  0  0  0  0  0  0  0  0  0  0
  190.8110  176.7310  146.0430 C   0  0  0  0  0  2  0  0  0  0  0  0
  189.1790  177.6400  144.4290 C   0  0  0  0  0  0  0  0  0  0  0  0
  191.4850  177.4630  148.3140 C   0  0  0  0  0  1  0  0  0  0  0  0
  188.7910  177.8850  148.8680 O   0  0  0  0  0  0  0  0  0  0  0  0
  185.0470  178.2410  143.1290 C   0  0  0  0  0  3  0  0  0  0  0  0
  189.0690  177.6030  147.6710 C   0  0  0  0  0  0  0  0  0  0  0  0
  186.5940  177.7460  147.1110 N   0  0  0  0  0  2  0  0  0  0  0  0
  187.2610  178.4020  141.2800 C   0  0  0  0  0  0  0  0  0  0  0  0
  190.5940  177.7410  144.9370 C   0  0  2  0  0  3  0  0  0  0  0  0
  186.6810  177.7050  144.8800 C   0  0  0  0  0  0  0  0  0  0  0  0
  185.8400  177.8260  146.0600 C   0  0  0  0  0  3  0  0  0  0  0  0
  186.3930  177.8710  143.5910 C   0  0  1  0  0  3  0  0  0  0  0  0
  188.8980  177.7770  143.1160 C   0  0  0  0  0  3  0  0  0  0  0  0
  183.5190  179.0660  141.4200 C   0  0  0  0  0  1  0  0  0  0  0  0
  188.0320  177.5540  145.3610 C   0  0  0  0  0  0  0  0  0  0  0  0
  186.0280  178.8360  140.9650 C   0  0  0  0  0  3  0  0  0  0  0  0
  190.4340  177.3060  147.3210 N   0  0  0  0  0  0  0  0  0  0  0  0
  191.6380  177.4950  143.8550 C   0  0  0  0  0  1  0  0  0  0  0  0
  187.4880  177.6380  142.5640 C   0  0  2  0  0  3  0  0  0  0  0  0
  188.3400  178.5850  140.4020 O   0  0  0  0  0  0  0  0  0  0  0  0
  188.7250  177.6310  139.4160 C   0  0  0  0  0  2  0  0  0  0  0  0
  190.2190  177.3810  139.4860 C   0  0  0  0  0  2  0  0  0  0  0  0
  190.4670  176.2750  140.2980 O   0  0  0  0  0  1  0  0  0  0  0  0
  1  9  1  0  0  0  0
  1  8  1  0  0  0  0
  2  7  2  0  0  0  0
  3 19  1  0  0  0  0
  4 11  1  0  0  0  0
  4 17  1  0  0  0  0
  8  6  2  0  0  0  0
 10 21  1  0  0  0  0
 11 20  1  6  0  0  0
 11  3  1  0  0  0  0
 12 17  1  0  0  0  0
 12 13  2  0  0  0  0
 13  9  1  0  0  0  0
 14  7  1  6  0  0  0
 14 12  1  0  0  0  0
 15  4  2  0  0  0  0
 16  2  1  0  0  0  0
 17  1  2  0  0  0  0
 18 10  2  0  0  0  0
 18  2  1  0  0  0  0
 19  8  1  0  0  0  0
 19  5  1  0  0  0  0
 21 15  1  1  0  0  0
 21 14  1  0  0  0  0
 22 10  1  0  0  0  0
 23 24  1  0  0  0  0
 23 22  1  0  0  0  0
 24 25  1  0  0  0  0
M  END
>  <MODEL>
3

>  <REMARK>
 VINA RESULT:      -8.9      1.951      5.333
  Name = 
  3 active torsions:
  status: ('A' for Active; 'I' for Inactive)
    1  A    between atoms: C_3  and  C_10
    2  A    between atoms: C_10  and  O_16
    3  A    between atoms: C_12  and  O_16
                            x       y       z     vdW  Elec       q    Type
                         _______ _______ _______ _____ _____    ______ ____

>  <TORSDO>
F 3

$$$$
=
 OpenBabel10222417093D

 25 28  0  0  1  0  0  0  0  0999 V2000
  188.2190  177.9070  140.2230 C   0  0  0  0  0  0  0  0  0  0  0  0
  184.6490  178.6650  144.7530 C   0  0  0  0  0  0  0  0  0  0  0  0
  191.0710  177.3000  141.1150 C   0  0  0  0  0  2  0  0  0  0  0  0
  189.0870  177.3680  142.5830 C   0  0  0  0  0  0  0  0  0  0  0  0
  191.4710  176.2340  138.9130 C   0  0  0  0  0  1  0  0  0  0  0  0
  188.9620  177.1470  138.1280 O   0  0  0  0  0  0  0  0  0  0  0  0
  185.1020  178.9040  143.5210 C   0  0  0  0  0  3  0  0  0  0  0  0
  189.2520  177.3110  139.3440 C   0  0  0  0  0  0  0  0  0  0  0  0
  186.9860  178.4120  139.6870 N   0  0  0  0  0  0  0  0  0  0  0  0
  186.8120  177.7720  145.5550 C   0  0  0  0  0  0  0  0  0  0  0  0
  190.3070  176.5710  142.2000 C   0  0  2  0  0  3  0  0  0  0  0  0
  186.9150  178.5040  141.9170 C   0  0  0  0  0  0  0  0  0  0  0  0
  186.2130  178.7530  140.6690 C   0  0  0  0  0  3  0  0  0  0  0  0
  186.4870  178.5550  143.1770 C   0  0  1  0  0  3  0  0  0  0  0  0
  188.6780  177.4430  143.8670 C   0  0  0  0  0  2  0  0  0  0  0  0
  183.2430  179.0010  145.0930 C   0  0  0  0  0  1  0  0  0  0  0  0
  188.2000  177.9590  141.5550 C   0  0  0  0  0  0  0  0  0  0  0  0
  185.5040  178.0050  145.7630 C   0  0  0  0  0  3  0  0  0  0  0  0
  190.5580  176.9240  139.8100 N   0  0  0  0  0  0  0  0  0  0  0  0
  191.2550  176.3280  143.3680 C   0  0  0  0  0  1  0  0  0  0  0  0
  187.4770  178.2730  144.2940 C   0  0  2  0  0  3  0  0  0  0  0  0
  187.5960  177.1280  146.5250 O   0  0  0  0  0  0  0  0  0  0  0  0
  187.8450  177.6630  147.8210 C   0  0  0  0  0  2  0  0  0  0  0  0
  189.3330  177.8780  148.0200 C   0  0  0  0  0  2  0  0  0  0  0  0
  190.0410  176.8990  147.3260 O   0  0  0  0  0  1  0  0  0  0  0  0
  1 17  1  0  0  0  0
  2 16  1  0  0  0  0
  2 18  1  0  0  0  0
  3 11  1  0  0  0  0
  4 15  1  0  0  0  0
  5 19  1  0  0  0  0
  6  8  2  0  0  0  0
  7  2  2  0  0  0  0
  8 19  1  0  0  0  0
  8  1  1  0  0  0  0
  9  1  2  0  0  0  0
  9 13  1  0  0  0  0
 10 18  2  0  0  0  0
 10 22  1  0  0  0  0
 11  4  1  0  0  0  0
 11 20  1  1  0  0  0
 12 14  1  0  0  0  0
 13 12  2  0  0  0  0
 14  7  1  1  0  0  0
 14 21  1  0  0  0  0
 17 12  1  0  0  0  0
 17  4  2  0  0  0  0
 19  3  1  0  0  0  0
 21 15  1  6  0  0  0
 21 10  1  0  0  0  0
 22 23  1  0  0  0  0
 23 24  1  0  0  0  0
 25 24  1  0  0  0  0
M  END
>  <MODEL>
4

>  <REMARK>
 VINA RESULT:      -8.6      2.669      6.479
  Name = 
  3 active torsions:
  status: ('A' for Active; 'I' for Inactive)
    1  A    between atoms: C_3  and  C_10
    2  A    between atoms: C_10  and  O_16
    3  A    between atoms: C_12  and  O_16
                            x       y       z     vdW  Elec       q    Type
                         _______ _______ _______ _____ _____    ______ ____

>  <TORSDO>
F 3

$$$$
=
 OpenBabel10222417093D

 25 28  0  0  1  0  0  0  0  0999 V2000
  185.7760  178.6640  140.4940 C   0  0  0  0  0  0  0  0  0  0  0  0
  190.1980  177.7250  144.1560 C   0  0  0  0  0  0  0  0  0  0  0  0
  183.0750  178.3130  141.8630 C   0  0  0  0  0  2  0  0  0  0  0  0
  185.2660  178.3780  142.9980 C   0  0  0  0  0  0  0  0  0  0  0  0
  182.0660  179.7530  140.1150 C   0  0  0  0  0  1  0  0  0  0  0  0
  184.5200  179.7060  138.8030 O   0  0  0  0  0  0  0  0  0  0  0  0
  189.5840  177.6900  142.9710 C   0  0  0  0  0  3  0  0  0  0  0  0
  184.5000  179.1840  139.9510 C   0  0  0  0  0  0  0  0  0  0  0  0
  186.9660  178.6260  139.6910 N   0  0  0  0  0  0  0  0  0  0  0  0
  188.0830  177.8330  145.4350 C   0  0  0  0  0  0  0  0  0  0  0  0
  183.8590  178.9180  143.0070 C   0  0  2  0  0  3  0  0  0  0  0  0
  187.4640  178.0120  141.7790 C   0  0  0  0  0  0  0  0  0  0  0  0
  187.9600  178.2560  140.4350 C   0  0  0  0  0  3  0  0  0  0  0  0
  188.1170  177.7600  142.9110 C   0  0  1  0  0  3  0  0  0  0  0  0
  185.9110  178.0950  144.1490 C   0  0  0  0  0  2  0  0  0  0  0  0
  191.6810  177.6730  144.2130 C   0  0  0  0  0  1  0  0  0  0  0  0
  186.0500  178.2940  141.7450 C   0  0  0  0  0  0  0  0  0  0  0  0
  189.4260  177.8860  145.4080 C   0  0  0  0  0  3  0  0  0  0  0  0
  183.2510  179.1110  140.6630 N   0  0  0  0  0  0  0  0  0  0  0  0
  183.1140  178.6270  144.3030 C   0  0  0  0  0  1  0  0  0  0  0  0
  187.3130  177.5080  144.1760 C   0  0  2  0  0  3  0  0  0  0  0  0
  187.3760  178.0070  146.6350 O   0  0  0  0  0  0  0  0  0  0  0  0
  187.6340  177.2570  147.8180 C   0  0  0  0  0  2  0  0  0  0  0  0
  188.1310  178.1740  148.9200 C   0  0  0  0  0  2  0  0  0  0  0  0
  189.4290  178.5890  148.6280 O   0  0  0  0  0  1  0  0  0  0  0  0
  1 17  1  0  0  0  0
  2 16  1  0  0  0  0
  2 18  1  0  0  0  0
  3 11  1  0  0  0  0
  4 11  1  0  0  0  0
  4 15  1  0  0  0  0
  5 19  1  0  0  0  0
  6  8  2  0  0  0  0
  7  2  2  0  0  0  0
  8  1  1  0  0  0  0
  8 19  1  0  0  0  0
  9 13  1  0  0  0  0
  9  1  2  0  0  0  0
 10 22  1  0  0  0  0
 11 20  1  1  0  0  0
 12 14  1  0  0  0  0
 13 12  2  0  0  0  0
 14  7  1  6  0  0  0
 14 21  1  0  0  0  0
 17 12  1  0  0  0  0
 17  4  2  0  0  0  0
 18 10  2  0  0  0  0
 19  3  1  0  0  0  0
 21 15  1  6  0  0  0
 21 10  1  0  0  0  0
 22 23  1  0  0  0  0
 23 24  1  0  0  0  0
 25 24  1  0  0  0  0
M  END
>  <MODEL>
5

>  <REMARK>
 VINA RESULT:      -8.6      2.981      5.127
  Name = 
  3 active torsions:
  status: ('A' for Active; 'I' for Inactive)
    1  A    between atoms: C_3  and  C_10
    2  A    between atoms: C_10  and  O_16
    3  A    between atoms: C_12  and  O_16
                            x       y       z     vdW  Elec       q    Type
                         _______ _______ _______ _____ _____    ______ ____

>  <TORSDO>
F 3

$$$$
=
 OpenBabel10222417093D

 25 28  0  0  1  0  0  0  0  0999 V2000
  183.2610  178.7780  144.2660 C   0  0  0  0  0  0  0  0  0  0  0  0
  188.7240  177.2650  145.5720 C   0  0  0  0  0  0  0  0  0  0  0  0
  182.8830  179.1900  141.2690 C   0  0  0  0  0  2  0  0  0  0  0  0
  184.8790  178.2160  142.3480 C   0  0  0  0  0  0  0  0  0  0  0  0
  180.4590  178.7730  141.5760 C   0  0  0  0  0  1  0  0  0  0  0  0
  180.9120  178.7530  144.3220 O   0  0  0  0  0  0  0  0  0  0  0  0
  187.5580  177.8760  145.7870 C   0  0  0  0  0  3  0  0  0  0  0  0
  181.9410  178.8000  143.5940 C   0  0  0  0  0  0  0  0  0  0  0  0
  183.3690  178.8450  145.6970 N   0  0  0  0  0  2  0  0  0  0  0  0
  188.4100  177.1650  143.1200 C   0  0  0  0  0  0  0  0  0  0  0  0
  183.8690  178.0420  141.2430 C   0  0  2  0  0  3  0  0  0  0  0  0
  185.3940  178.5070  144.8180 C   0  0  0  0  0  0  0  0  0  0  0  0
  184.6100  178.6780  146.0300 C   0  0  0  0  0  3  0  0  0  0  0  0
  186.6690  178.1650  144.6520 C   0  0  1  0  0  3  0  0  0  0  0  0
  186.1770  177.8970  142.1630 C   0  0  0  0  0  3  0  0  0  0  0  0
  189.6120  176.9570  146.7230 C   0  0  0  0  0  1  0  0  0  0  0  0
  184.4620  178.5830  143.7200 C   0  0  0  0  0  0  0  0  0  0  0  0
  189.1140  176.8260  144.2140 C   0  0  0  0  0  3  0  0  0  0  0  0
  181.7840  178.8800  142.1650 N   0  0  0  0  0  0  0  0  0  0  0  0
  184.5010  177.9880  139.8580 C   0  0  0  0  0  1  0  0  0  0  0  0
  187.2290  178.1010  143.2410 C   0  0  2  0  0  3  0  0  0  0  0  0
  188.7930  176.7200  141.8460 O   0  0  0  0  0  0  0  0  0  0  0  0
  189.7110  177.4180  141.0100 C   0  0  0  0  0  2  0  0  0  0  0  0
  189.1330  177.5750  139.6160 C   0  0  0  0  0  2  0  0  0  0  0  0
  188.4070  178.7620  139.5460 O   0  0  0  0  0  1  0  0  0  0  0  0
  1  9  1  0  0  0  0
  2  7  2  0  0  0  0
  2 16  1  0  0  0  0
  3 19  1  0  0  0  0
  4 17  1  0  0  0  0
  5 19  1  0  0  0  0
  8  1  1  0  0  0  0
  8  6  2  0  0  0  0
  9 13  1  0  0  0  0
 10 21  1  0  0  0  0
 10 18  2  0  0  0  0
 11 20  1  6  0  0  0
 11  3  1  0  0  0  0
 11  4  1  0  0  0  0
 12 13  2  0  0  0  0
 14 12  1  0  0  0  0
 14  7  1  1  0  0  0
 15  4  2  0  0  0  0
 17  1  2  0  0  0  0
 17 12  1  0  0  0  0
 18  2  1  0  0  0  0
 19  8  1  0  0  0  0
 21 15  1  6  0  0  0
 21 14  1  0  0  0  0
 22 10  1  0  0  0  0
 23 22  1  0  0  0  0
 24 23  1  0  0  0  0
 25 24  1  0  0  0  0
M  END
>  <MODEL>
6

>  <REMARK>
 VINA RESULT:      -8.6      1.931      3.101
  Name = 
  3 active torsions:
  status: ('A' for Active; 'I' for Inactive)
    1  A    between atoms: C_3  and  C_10
    2  A    between atoms: C_10  and  O_16
    3  A    between atoms: C_12  and  O_16
                            x       y       z     vdW  Elec       q    Type
                         _______ _______ _______ _____ _____    ______ ____

>  <TORSDO>
F 3

$$$$
=
 OpenBabel10222417093D

 25 28  0  0  1  0  0  0  0  0999 V2000
  187.7600  177.6620  146.0310 C   0  0  0  0  0  0  0  0  0  0  0  0
  182.8140  179.1010  143.3270 C   0  0  0  0  0  0  0  0  0  0  0  0
  189.8720  176.6600  144.0740 C   0  0  0  0  0  2  0  0  0  0  0  0
  187.7300  177.7220  143.4600 C   0  0  0  0  0  0  0  0  0  0  0  0
  191.6130  177.2690  145.7310 C   0  0  0  0  0  1  0  0  0  0  0  0
  189.5630  177.8320  147.5270 O   0  0  0  0  0  0  0  0  0  0  0  0
  183.5400  178.6160  144.3350 C   0  0  0  0  0  3  0  0  0  0  0  0
  189.2050  177.5770  146.3450 C   0  0  0  0  0  0  0  0  0  0  0  0
  186.7850  177.8880  147.0610 N   0  0  0  0  0  2  0  0  0  0  0  0
  184.5840  178.7080  141.6430 C   0  0  0  0  0  0  0  0  0  0  0  0
  189.2170  177.7200  143.2150 C   0  0  2  0  0  3  0  0  0  0  0  0
  185.7760  177.9210  145.0700 C   0  0  0  0  0  0  0  0  0  0  0  0
  185.6240  178.0500  146.5090 C   0  0  0  0  0  3  0  0  0  0  0  0
  184.9110  178.1490  144.0840 C   0  0  1  0  0  3  0  0  0  0  0  0
  186.8580  177.9220  142.4500 C   0  0  0  0  0  3  0  0  0  0  0  0
  181.4360  179.5900  143.5870 C   0  0  0  0  0  1  0  0  0  0  0  0
  187.1760  177.6720  144.8320 C   0  0  0  0  0  0  0  0  0  0  0  0
  183.3860  179.2270  141.9680 C   0  0  0  0  0  3  0  0  0  0  0  0
  190.2040  177.2110  145.3750 N   0  0  0  0  0  0  0  0  0  0  0  0
  189.5840  177.4500  141.7620 C   0  0  0  0  0  1  0  0  0  0  0  0
  185.3510  177.8870  142.6530 C   0  0  2  0  0  3  0  0  0  0  0  0
  185.1100  178.8570  140.3510 O   0  0  0  0  0  0  0  0  0  0  0  0
  184.5090  178.3010  139.1860 C   0  0  0  0  0  2  0  0  0  0  0  0
  185.5050  178.2840  138.0410 C   0  0  0  0  0  2  0  0  0  0  0  0
  186.7950  178.4340  138.5460 O   0  0  0  0  0  1  0  0  0  0  0  0
  1  8  1  0  0  0  0
  1  9  1  0  0  0  0
  2 16  1  0  0  0  0
  2  7  2  0  0  0  0
  3 19  1  0  0  0  0
  4 17  1  0  0  0  0
  8  6  2  0  0  0  0
 10 18  2  0  0  0  0
 10 21  1  0  0  0  0
 11 20  1  6  0  0  0
 11  4  1  0  0  0  0
 11  3  1  0  0  0  0
 12 13  2  0  0  0  0
 13  9  1  0  0  0  0
 14  7  1  1  0  0  0
 14 12  1  0  0  0  0
 15  4  2  0  0  0  0
 17 12  1  0  0  0  0
 17  1  2  0  0  0  0
 18  2  1  0  0  0  0
 19  5  1  0  0  0  0
 19  8  1  0  0  0  0
 21 15  1  1  0  0  0
 21 14  1  0  0  0  0
 22 10  1  0  0  0  0
 23 22  1  0  0  0  0
 24 25  1  0  0  0  0
 24 23  1  0  0  0  0
M  END
>  <MODEL>
7

>  <REMARK>
 VINA RESULT:      -8.4      2.457      6.035
  Name = 
  3 active torsions:
  status: ('A' for Active; 'I' for Inactive)
    1  A    between atoms: C_3  and  C_10
    2  A    between atoms: C_10  and  O_16
    3  A    between atoms: C_12  and  O_16
                            x       y       z     vdW  Elec       q    Type
                         _______ _______ _______ _____ _____    ______ ____

>  <TORSDO>
F 3

$$$$
=
 OpenBabel10222417093D

 25 28  0  0  1  0  0  0  0  0999 V2000
  186.8840  178.0170  146.5510 C   0  0  0  0  0  0  0  0  0  0  0  0
  184.6610  178.6820  141.2160 C   0  0  0  0  0  0  0  0  0  0  0  0
  189.7890  177.0930  146.4630 C   0  0  0  0  0  2  0  0  0  0  0  0
  188.4630  177.8620  144.5270 C   0  0  0  0  0  0  0  0  0  0  0  0
  190.0930  178.0220  148.7410 C   0  0  0  0  0  1  0  0  0  0  0  0
  187.3530  178.5040  148.8020 O   0  0  0  0  0  0  0  0  0  0  0  0
  184.6150  178.3620  142.5110 C   0  0  0  0  0  3  0  0  0  0  0  0
  187.8190  178.1150  147.6960 C   0  0  0  0  0  0  0  0  0  0  0  0
  185.4730  178.2180  146.7230 N   0  0  0  0  0  2  0  0  0  0  0  0
  187.1060  178.3470  141.0490 C   0  0  0  0  0  0  0  0  0  0  0  0
  189.7770  178.0010  145.2520 C   0  0  2  0  0  3  0  0  0  0  0  0
  185.9260  177.9770  144.5500 C   0  0  0  0  0  0  0  0  0  0  0  0
  184.9050  178.2070  145.5580 C   0  0  0  0  0  3  0  0  0  0  0  0
  185.8580  178.0280  143.2210 C   0  0  1  0  0  3  0  0  0  0  0  0
  188.4050  177.8810  143.1790 C   0  0  0  0  0  3  0  0  0  0  0  0
  183.4060  179.0370  140.5070 C   0  0  0  0  0  1  0  0  0  0  0  0
  187.1760  177.8640  145.2590 C   0  0  0  0  0  0  0  0  0  0  0  0
  185.9510  178.7560  140.4960 C   0  0  0  0  0  3  0  0  0  0  0  0
  189.2170  177.7820  147.6050 N   0  0  0  0  0  0  0  0  0  0  0  0
  190.9800  177.6540  144.3840 C   0  0  0  0  0  1  0  0  0  0  0  0
  187.1030  177.7000  142.4150 C   0  0  2  0  0  3  0  0  0  0  0  0
  188.3180  178.4460  140.3490 O   0  0  0  0  0  0  0  0  0  0  0  0
  188.7870  177.4550  139.4390 C   0  0  0  0  0  2  0  0  0  0  0  0
  189.0050  178.0660  138.0680 C   0  0  0  0  0  2  0  0  0  0  0  0
  188.9170  179.4530  138.1580 O   0  0  0  0  0  1  0  0  0  0  0  0
  1  9  1  0  0  0  0
  1  8  1  0  0  0  0
  2  7  2  0  0  0  0
  3 19  1  0  0  0  0
  4 11  1  0  0  0  0
  4 17  1  0  0  0  0
  8  6  2  0  0  0  0
 10 21  1  0  0  0  0
 11 20  1  6  0  0  0
 11  3  1  0  0  0  0
 12 17  1  0  0  0  0
 12 13  2  0  0  0  0
 13  9  1  0  0  0  0
 14  7  1  6  0  0  0
 14 12  1  0  0  0  0
 15  4  2  0  0  0  0
 16  2  1  0  0  0  0
 17  1  2  0  0  0  0
 18 10  2  0  0  0  0
 18  2  1  0  0  0  0
 19  8  1  0  0  0  0
 19  5  1  0  0  0  0
 21 15  1  1  0  0  0
 21 14  1  0  0  0  0
 22 10  1  0  0  0  0
 23 22  1  0  0  0  0
 24 25  1  0  0  0  0
 24 23  1  0  0  0  0
M  END
>  <MODEL>
8

>  <REMARK>
 VINA RESULT:      -8.4      2.077      5.368
  Name = 
  3 active torsions:
  status: ('A' for Active; 'I' for Inactive)
    1  A    between atoms: C_3  and  C_10
    2  A    between atoms: C_10  and  O_16
    3  A    between atoms: C_12  and  O_16
                            x       y       z     vdW  Elec       q    Type
                         _______ _______ _______ _____ _____    ______ ____

>  <TORSDO>
F 3

$$$$
=
 OpenBabel10222417093D

 25 28  0  0  1  0  0  0  0  0999 V2000
  190.3710  177.0840  142.7960 C   0  0  0  0  0  0  0  0  0  0  0  0
  185.4780  178.4380  145.6360 C   0  0  0  0  0  0  0  0  0  0  0  0
  189.9330  176.9460  139.7820 C   0  0  0  0  0  2  0  0  0  0  0  0
  188.3130  177.8060  141.4340 C   0  0  0  0  0  0  0  0  0  0  0  0
  192.3590  177.3490  139.4700 C   0  0  0  0  0  1  0  0  0  0  0  0
  192.6510  177.1190  142.2270 O   0  0  0  0  0  0  0  0  0  0  0  0
  186.6490  177.8180  145.4790 C   0  0  0  0  0  3  0  0  0  0  0  0
  191.4650  177.1310  141.7980 C   0  0  0  0  0  0  0  0  0  0  0  0
  190.6450  176.8870  144.1920 N   0  0  0  0  0  2  0  0  0  0  0  0
  185.1320  178.7610  143.2080 C   0  0  0  0  0  0  0  0  0  0  0  0
  188.9960  178.0850  140.1210 C   0  0  2  0  0  3  0  0  0  0  0  0
  188.4660  177.2900  143.9170 C   0  0  0  0  0  0  0  0  0  0  0  0
  189.5400  177.0160  144.8570 C   0  0  0  0  0  3  0  0  0  0  0  0
  187.1990  177.6380  144.1270 C   0  0  1  0  0  3  0  0  0  0  0  0
  187.0180  178.1320  141.6300 C   0  0  0  0  0  3  0  0  0  0  0  0
  184.9330  178.6350  147.0040 C   0  0  0  0  0  1  0  0  0  0  0  0
  189.0720  177.3200  142.6090 C   0  0  0  0  0  0  0  0  0  0  0  0
  184.7490  178.9950  144.4750 C   0  0  0  0  0  3  0  0  0  0  0  0
  191.2350  177.1810  140.3780 N   0  0  0  0  0  0  0  0  0  0  0  0
  188.0200  178.2600  138.9640 C   0  0  0  0  0  1  0  0  0  0  0  0
  186.2860  177.8260  142.9270 C   0  0  2  0  0  3  0  0  0  0  0  0
  184.4320  179.3170  142.1260 O   0  0  0  0  0  0  0  0  0  0  0  0
  183.4350  178.6170  141.3880 C   0  0  0  0  0  2  0  0  0  0  0  0
  183.7170  178.7170  139.9010 C   0  0  0  0  0  2  0  0  0  0  0  0
  184.6150  179.7570  139.6680 O   0  0  0  0  0  1  0  0  0  0  0  0
  1  9  1  0  0  0  0
  2 16  1  0  0  0  0
  3 11  1  0  0  0  0
  3 19  1  0  0  0  0
  4 15  2  0  0  0  0
  4 17  1  0  0  0  0
  5 19  1  0  0  0  0
  7  2  2  0  0  0  0
  8  6  2  0  0  0  0
  8  1  1  0  0  0  0
  9 13  1  0  0  0  0
 10 18  2  0  0  0  0
 11 20  1  6  0  0  0
 11  4  1  0  0  0  0
 12 14  1  0  0  0  0
 12 13  2  0  0  0  0
 14  7  1  1  0  0  0
 17  1  2  0  0  0  0
 17 12  1  0  0  0  0
 18  2  1  0  0  0  0
 19  8  1  0  0  0  0
 21 15  1  6  0  0  0
 21 10  1  0  0  0  0
 21 14  1  0  0  0  0
 22 10  1  0  0  0  0
 23 22  1  0  0  0  0
 24 23  1  0  0  0  0
 25 24  1  0  0  0  0
M  END
>  <MODEL>
9

>  <REMARK>
 VINA RESULT:      -8.4      2.885      6.223
  Name = 
  3 active torsions:
  status: ('A' for Active; 'I' for Inactive)
    1  A    between atoms: C_3  and  C_10
    2  A    between atoms: C_10  and  O_16
    3  A    between atoms: C_12  and  O_16
                            x       y       z     vdW  Elec       q    Type
                         _______ _______ _______ _____ _____    ______ ____

>  <TORSDO>
F 3

$$$$
