=
 OpenBabel10222415403D

 40 42  0  0  1  0  0  0  0  0999 V2000
  180.1520  180.3050  140.0000 C   0  0  0  0  0  2  0  0  0  0  0  0
  184.1550  178.1180  142.6150 C   0  0  0  0  0  2  0  0  0  0  0  0
  180.3440  180.5910  138.5240 C   0  0  0  0  0  2  0  0  0  0  0  0
  186.1780  179.1580  141.5450 C   0  0  0  0  0  2  0  0  0  0  0  0
  182.6130  179.5000  139.8700 C   0  0  0  0  0  0  0  0  0  0  0  0
  183.6140  178.6630  140.2340 C   0  0  0  0  0  0  0  0  0  0  0  0
  184.9080  178.6250  139.5140 C   0  0  0  0  0  0  0  0  0  0  0  0
  181.4210  179.7590  141.9340 O   0  0  0  0  0  1  0  0  0  0  0  0
  185.6700  178.0400  142.4490 C   0  0  1  0  0  3  0  0  0  0  0  0
  181.2670  179.4320  140.5850 C   0  0  1  0  0  3  0  0  0  0  0  0
  186.0390  178.8100  140.1350 N   0  0  0  0  0  0  0  0  0  0  0  0
  181.6490  181.3430  138.3760 C   0  0  0  0  0  2  0  0  0  0  0  0
  183.4340  177.6720  141.3500 C   0  0  0  0  0  2  0  0  0  0  0  0
  182.8240  180.4260  138.6870 C   0  0  0  0  0  2  0  0  0  0  0  0
  184.9070  178.3340  138.1120 N   0  0  0  0  0  2  0  0  0  0  0  0
  187.4290  177.2770  144.1510 C   0  0  0  0  0  0  0  0  0  0  0  0
  187.8990  176.4190  143.3550 O   0  0  0  0  0  0  0  0  0  0  0  0
  186.3260  178.1030  143.7510 N   0  0  0  0  0  2  0  0  0  0  0  0
  187.2490  177.9590  146.5440 C   0  0  0  0  0  3  0  0  0  0  0  0
  189.9040  177.1900  147.0150 C   0  0  0  0  0  0  0  0  0  0  0  0
  188.0130  177.4290  145.4950 C   0  0  0  0  0  0  0  0  0  0  0  0
  189.3390  177.0460  145.7400 C   0  0  0  0  0  3  0  0  0  0  0  0
  189.1250  177.7220  148.0520 C   0  0  0  0  0  3  0  0  0  0  0  0
  187.8020  178.1050  147.8180 C   0  0  0  0  0  3  0  0  0  0  0  0
  191.3000  176.7870  147.2590 C   0  0  0  0  0  0  0  0  0  0  0  0
  191.9410  177.2680  148.2320 O   0  0  0  0  0  0  0  0  0  0  0  0
  191.9420  175.8510  146.3970 N   0  0  0  0  0  1  0  0  0  0  0  0
  186.1300  178.2080  137.3330 C   0  0  0  0  0  2  0  0  0  0  0  0
  186.1060  176.9630  136.5830 N   0  0  0  0  0  2  0  0  0  0  0  0
  187.4090  176.3430  136.7460 C   0  0  2  0  0  3  0  0  0  0  0  0
  188.3980  177.0180  135.8040 C   0  0  0  0  0  2  0  0  0  0  0  0
  189.7520  176.9330  136.3300 N   0  0  0  0  0  2  0  0  0  0  0  0
  189.6810  177.2060  137.7030 N   0  0  0  0  0  2  0  0  0  0  0  0
  190.8440  176.1880  138.4820 S   0  0  0  0  0  0  0  0  0  0  0  0
  190.6820  174.5700  137.8970 N   0  0  0  0  0  1  0  0  0  0  0  0
  190.6230  176.2090  139.9680 O   0  0  0  0  0  0  0  0  0  0  0  0
  192.2270  176.6910  138.1750 O   0  0  0  0  0  0  0  0  0  0  0  0
  187.2990  174.8560  136.4350 C   0  0  0  0  0  2  0  0  0  0  0  0
  185.6710  173.3760  136.5900 C   0  0  0  0  0  1  0  0  0  0  0  0
  186.4590  174.2330  137.3590 O   0  0  0  0  0  0  0  0  0  0  0  0
  1 10  1  0  0  0  0
  3  1  1  0  0  0  0
  4  9  1  0  0  0  0
  5  6  2  0  0  0  0
  5 10  1  0  0  0  0
  6 13  1  0  0  0  0
  7 11  2  0  0  0  0
  7  6  1  0  0  0  0
  9  2  1  0  0  0  0
  9 18  1  1  0  0  0
 10  8  1  1  0  0  0
 11  4  1  0  0  0  0
 12  3  1  0  0  0  0
 12 14  1  0  0  0  0
 13  2  1  0  0  0  0
 14  5  1  0  0  0  0
 15  7  1  0  0  0  0
 16 21  1  0  0  0  0
 17 16  2  0  0  0  0
 18 16  1  0  0  0  0
 19 24  1  0  0  0  0
 20 25  1  0  0  0  0
 20 23  1  0  0  0  0
 21 22  1  0  0  0  0
 21 19  2  0  0  0  0
 22 20  2  0  0  0  0
 24 23  2  0  0  0  0
 25 26  2  0  0  0  0
 27 25  1  0  0  0  0
 28 15  1  0  0  0  0
 29 30  1  0  0  0  0
 29 28  1  0  0  0  0
 30 31  1  6  0  0  0
 31 32  1  0  0  0  0
 32 33  1  0  0  0  0
 33 34  1  0  0  0  0
 34 36  2  0  0  0  0
 35 34  1  0  0  0  0
 37 34  2  0  0  0  0
 38 30  1  0  0  0  0
 38 40  1  0  0  0  0
 39 40  1  0  0  0  0
M  END
>  <MODEL>
1

>  <REMARK>
 VINA RESULT:      -8.4      0.000      0.000
  Name = 
  12 active torsions:
  status: ('A' for Active; 'I' for Inactive)
    1  A    between atoms: C_1  and  C_12
    2  A    between atoms: C_2  and  N_9
    3  A    between atoms: C_2  and  C_27
    4  A    between atoms: C_2  and  C_30
    5  A    between atoms: S_4  and  N_40
    6  A    between atoms: C_6  and  C_11
    7  A    between atoms: N_9  and  C_19
    8  A    between atoms: N_16  and  C_27
    9  A    between atoms: N_16  and  N_40
   10  A    between atoms: C_19  and  N_38
   11  A    between atoms: O_26  and  C_30
   12  A    between atoms: C_28  and  N_39
                            x       y       z     vdW  Elec       q    Type
                         _______ _______ _______ _____ _____    ______ ____

>  <TORSDO>
F 12

$$$$
=
 OpenBabel10222415403D

 40 42  0  0  1  0  0  0  0  0999 V2000
  180.0420  180.3550  140.0410 C   0  0  0  0  0  2  0  0  0  0  0  0
  184.0290  178.1310  142.6480 C   0  0  0  0  0  2  0  0  0  0  0  0
  180.2250  180.6170  138.5600 C   0  0  0  0  0  2  0  0  0  0  0  0
  186.0600  179.1190  141.5460 C   0  0  0  0  0  2  0  0  0  0  0  0
  182.4860  179.5020  139.9000 C   0  0  0  0  0  0  0  0  0  0  0  0
  183.4750  178.6530  140.2660 C   0  0  0  0  0  0  0  0  0  0  0  0
  184.7610  178.5810  139.5340 C   0  0  0  0  0  0  0  0  0  0  0  0
  181.3180  179.8110  141.9710 O   0  0  0  0  0  1  0  0  0  0  0  0
  185.5400  178.0220  142.4700 C   0  0  1  0  0  3  0  0  0  0  0  0
  181.1460  179.4690  140.6280 C   0  0  1  0  0  3  0  0  0  0  0  0
  185.9010  178.7530  140.1420 N   0  0  0  0  0  0  0  0  0  0  0  0
  181.5410  181.3430  138.3890 C   0  0  0  0  0  2  0  0  0  0  0  0
  183.2880  177.6810  141.3970 C   0  0  0  0  0  2  0  0  0  0  0  0
  182.7030  180.4080  138.7020 C   0  0  0  0  0  2  0  0  0  0  0  0
  184.7420  178.2710  138.1360 N   0  0  0  0  0  2  0  0  0  0  0  0
  187.3440  177.2960  144.1410 C   0  0  0  0  0  0  0  0  0  0  0  0
  187.8330  176.4650  143.3290 O   0  0  0  0  0  0  0  0  0  0  0  0
  186.2100  178.0900  143.7650 N   0  0  0  0  0  2  0  0  0  0  0  0
  187.1790  177.9690  146.5380 C   0  0  0  0  0  3  0  0  0  0  0  0
  189.8480  177.2290  146.9810 C   0  0  0  0  0  0  0  0  0  0  0  0
  187.9390  177.4510  145.4800 C   0  0  0  0  0  0  0  0  0  0  0  0
  189.2720  177.0830  145.7110 C   0  0  0  0  0  3  0  0  0  0  0  0
  189.0720  177.7490  148.0270 C   0  0  0  0  0  3  0  0  0  0  0  0
  187.7430  178.1180  147.8070 C   0  0  0  0  0  3  0  0  0  0  0  0
  191.2500  176.8420  147.2110 C   0  0  0  0  0  0  0  0  0  0  0  0
  191.8400  177.1840  148.2700 O   0  0  0  0  0  0  0  0  0  0  0  0
  191.9570  176.0790  146.2370 N   0  0  0  0  0  1  0  0  0  0  0  0
  185.9550  178.1120  137.3480 C   0  0  0  0  0  2  0  0  0  0  0  0
  186.3710  176.7190  137.3670 N   0  0  0  0  0  2  0  0  0  0  0  0
  187.0930  176.4740  136.1300 C   0  0  2  0  0  3  0  0  0  0  0  0
  186.2650  175.5470  135.2500 C   0  0  0  0  0  2  0  0  0  0  0  0
  186.4210  174.1620  135.6680 N   0  0  0  0  0  2  0  0  0  0  0  0
  185.1620  173.5540  135.5670 N   0  0  0  0  0  2  0  0  0  0  0  0
  184.6180  173.2490  137.1810 S   0  0  0  0  0  0  0  0  0  0  0  0
  183.4980  171.9320  137.1760 N   0  0  0  0  0  1  0  0  0  0  0  0
  183.9460  174.4750  137.7310 O   0  0  0  0  0  0  0  0  0  0  0  0
  185.7960  172.8960  138.0440 O   0  0  0  0  0  0  0  0  0  0  0  0
  188.4420  175.8470  136.4550 C   0  0  0  0  0  2  0  0  0  0  0  0
  190.4940  176.4100  135.8760 C   0  0  0  0  0  1  0  0  0  0  0  0
  189.4040  176.8410  136.6330 O   0  0  0  0  0  0  0  0  0  0  0  0
  1 10  1  0  0  0  0
  3  1  1  0  0  0  0
  4  9  1  0  0  0  0
  5  6  2  0  0  0  0
  5 10  1  0  0  0  0
  6 13  1  0  0  0  0
  7 11  2  0  0  0  0
  7  6  1  0  0  0  0
  9  2  1  0  0  0  0
  9 18  1  1  0  0  0
 10  8  1  1  0  0  0
 11  4  1  0  0  0  0
 12  3  1  0  0  0  0
 12 14  1  0  0  0  0
 13  2  1  0  0  0  0
 14  5  1  0  0  0  0
 15  7  1  0  0  0  0
 16 21  1  0  0  0  0
 17 16  2  0  0  0  0
 18 16  1  0  0  0  0
 19 24  1  0  0  0  0
 20 25  1  0  0  0  0
 20 23  1  0  0  0  0
 21 22  1  0  0  0  0
 21 19  2  0  0  0  0
 22 20  2  0  0  0  0
 24 23  2  0  0  0  0
 25 26  2  0  0  0  0
 27 25  1  0  0  0  0
 28 29  1  0  0  0  0
 28 15  1  0  0  0  0
 30 31  1  6  0  0  0
 30 38  1  0  0  0  0
 30 29  1  0  0  0  0
 31 32  1  0  0  0  0
 33 32  1  0  0  0  0
 33 34  1  0  0  0  0
 34 36  2  0  0  0  0
 34 37  2  0  0  0  0
 35 34  1  0  0  0  0
 38 40  1  0  0  0  0
 39 40  1  0  0  0  0
M  END
>  <MODEL>
2

>  <REMARK>
 VINA RESULT:      -7.9      1.837      2.890
  Name = 
  12 active torsions:
  status: ('A' for Active; 'I' for Inactive)
    1  A    between atoms: C_1  and  C_12
    2  A    between atoms: C_2  and  N_9
    3  A    between atoms: C_2  and  C_27
    4  A    between atoms: C_2  and  C_30
    5  A    between atoms: S_4  and  N_40
    6  A    between atoms: C_6  and  C_11
    7  A    between atoms: N_9  and  C_19
    8  A    between atoms: N_16  and  C_27
    9  A    between atoms: N_16  and  N_40
   10  A    between atoms: C_19  and  N_38
   11  A    between atoms: O_26  and  C_30
   12  A    between atoms: C_28  and  N_39
                            x       y       z     vdW  Elec       q    Type
                         _______ _______ _______ _____ _____    ______ ____

>  <TORSDO>
F 12

$$$$
=
 OpenBabel10222415403D

 40 42  0  0  1  0  0  0  0  0999 V2000
  191.5480  175.8850  147.7800 C   0  0  0  0  0  2  0  0  0  0  0  0
  187.6570  178.0400  144.9780 C   0  0  0  0  0  2  0  0  0  0  0  0
  192.8230  175.5140  147.0510 C   0  0  0  0  0  2  0  0  0  0  0  0
  187.8220  176.8630  142.7630 C   0  0  0  0  0  2  0  0  0  0  0  0
  190.7380  176.5810  145.4180 C   0  0  0  0  0  0  0  0  0  0  0  0
  190.0420  177.3940  144.5890 C   0  0  0  0  0  0  0  0  0  0  0  0
  190.2030  177.3410  143.1170 C   0  0  0  0  0  0  0  0  0  0  0  0
  189.2920  176.4800  147.3280 O   0  0  0  0  0  1  0  0  0  0  0  0
  187.2240  178.0470  143.5150 C   0  0  1  0  0  3  0  0  0  0  0  0
  190.6040  176.7420  146.9290 C   0  0  1  0  0  3  0  0  0  0  0  0
  189.1870  177.1430  142.3260 N   0  0  0  0  0  0  0  0  0  0  0  0
  192.4290  174.7030  145.8360 C   0  0  0  0  0  2  0  0  0  0  0  0
  189.1160  178.4480  145.1280 C   0  0  0  0  0  2  0  0  0  0  0  0
  191.7160  175.5860  144.8210 C   0  0  0  0  0  2  0  0  0  0  0  0
  191.5050  177.5580  142.5590 N   0  0  0  0  0  2  0  0  0  0  0  0
  184.9940  178.8730  142.5550 C   0  0  0  0  0  0  0  0  0  0  0  0
  185.5690  179.7130  141.8100 O   0  0  0  0  0  0  0  0  0  0  0  0
  185.7680  178.0270  143.4170 N   0  0  0  0  0  2  0  0  0  0  0  0
  182.7910  178.9170  143.7240 C   0  0  0  0  0  3  0  0  0  0  0  0
  181.4480  178.3930  141.3190 C   0  0  0  0  0  0  0  0  0  0  0  0
  183.5250  178.7630  142.5400 C   0  0  0  0  0  0  0  0  0  0  0  0
  182.8450  178.5020  141.3420 C   0  0  0  0  0  3  0  0  0  0  0  0
  180.7290  178.5510  142.5120 C   0  0  0  0  0  3  0  0  0  0  0  0
  181.3980  178.8120  143.7110 C   0  0  0  0  0  3  0  0  0  0  0  0
  180.7450  178.1160  140.0540 C   0  0  0  0  0  0  0  0  0  0  0  0
  180.0300  177.0850  139.9360 O   0  0  0  0  0  0  0  0  0  0  0  0
  180.8650  179.0090  138.9500 N   0  0  0  0  0  1  0  0  0  0  0  0
  191.7510  177.5930  141.1260 C   0  0  0  0  0  2  0  0  0  0  0  0
  190.8320  176.6930  140.4490 N   0  0  0  0  0  2  0  0  0  0  0  0
  190.8720  177.0270  139.0360 C   0  0  2  0  0  3  0  0  0  0  0  0
  189.4450  177.1630  138.5200 C   0  0  0  0  0  2  0  0  0  0  0  0
  188.8880  178.4580  138.8790 N   0  0  0  0  0  2  0  0  0  0  0  0
  187.5980  178.2300  139.3780 N   0  0  0  0  0  2  0  0  0  0  0  0
  186.5110  178.3310  138.0360 S   0  0  0  0  0  0  0  0  0  0  0  0
  187.2460  179.2380  136.7620 N   0  0  0  0  0  1  0  0  0  0  0  0
  185.2380  179.0050  138.4620 O   0  0  0  0  0  0  0  0  0  0  0  0
  186.2010  176.9450  137.5430 O   0  0  0  0  0  0  0  0  0  0  0  0
  191.6150  175.9300  138.2840 C   0  0  0  0  0  2  0  0  0  0  0  0
  193.3540  176.1850  136.9520 C   0  0  0  0  0  1  0  0  0  0  0  0
  192.9870  176.1830  138.2980 O   0  0  0  0  0  0  0  0  0  0  0  0
  2 13  1  0  0  0  0
  3  1  1  0  0  0  0
  4  9  1  0  0  0  0
  5 10  1  0  0  0  0
  6 13  1  0  0  0  0
  6  5  2  0  0  0  0
  7  6  1  0  0  0  0
  9 18  1  1  0  0  0
  9  2  1  0  0  0  0
 10  8  1  1  0  0  0
 10  1  1  0  0  0  0
 11  4  1  0  0  0  0
 11  7  2  0  0  0  0
 12  3  1  0  0  0  0
 14  5  1  0  0  0  0
 14 12  1  0  0  0  0
 15  7  1  0  0  0  0
 16 18  1  0  0  0  0
 17 16  2  0  0  0  0
 20 22  2  0  0  0  0
 20 23  1  0  0  0  0
 21 16  1  0  0  0  0
 21 19  2  0  0  0  0
 22 21  1  0  0  0  0
 23 24  2  0  0  0  0
 24 19  1  0  0  0  0
 25 20  1  0  0  0  0
 26 25  2  0  0  0  0
 27 25  1  0  0  0  0
 28 15  1  0  0  0  0
 29 28  1  0  0  0  0
 30 38  1  6  0  0  0
 30 29  1  0  0  0  0
 31 32  1  0  0  0  0
 31 30  1  0  0  0  0
 32 33  1  0  0  0  0
 34 36  2  0  0  0  0
 34 33  1  0  0  0  0
 35 34  1  0  0  0  0
 37 34  2  0  0  0  0
 38 40  1  0  0  0  0
 39 40  1  0  0  0  0
M  END
>  <MODEL>
3

>  <REMARK>
 VINA RESULT:      -7.5      2.854      8.379
  Name = 
  12 active torsions:
  status: ('A' for Active; 'I' for Inactive)
    1  A    between atoms: C_1  and  C_12
    2  A    between atoms: C_2  and  N_9
    3  A    between atoms: C_2  and  C_27
    4  A    between atoms: C_2  and  C_30
    5  A    between atoms: S_4  and  N_40
    6  A    between atoms: C_6  and  C_11
    7  A    between atoms: N_9  and  C_19
    8  A    between atoms: N_16  and  C_27
    9  A    between atoms: N_16  and  N_40
   10  A    between atoms: C_19  and  N_38
   11  A    between atoms: O_26  and  C_30
   12  A    between atoms: C_28  and  N_39
                            x       y       z     vdW  Elec       q    Type
                         _______ _______ _______ _____ _____    ______ ____

>  <TORSDO>
F 12

$$$$
=
 OpenBabel10222415403D

 40 42  0  0  1  0  0  0  0  0999 V2000
  191.5560  175.9250  147.6920 C   0  0  0  0  0  2  0  0  0  0  0  0
  187.5930  178.1030  145.0100 C   0  0  0  0  0  2  0  0  0  0  0  0
  192.7870  175.5030  146.9160 C   0  0  0  0  0  2  0  0  0  0  0  0
  187.6280  176.8650  142.8230 C   0  0  0  0  0  2  0  0  0  0  0  0
  190.6550  176.5790  145.3500 C   0  0  0  0  0  0  0  0  0  0  0  0
  189.9410  177.3870  144.5320 C   0  0  0  0  0  0  0  0  0  0  0  0
  190.0340  177.2910  143.0560 C   0  0  0  0  0  0  0  0  0  0  0  0
  189.2960  176.5640  147.3260 O   0  0  0  0  0  1  0  0  0  0  0  0
  187.0930  178.0830  143.5690 C   0  0  1  0  0  3  0  0  0  0  0  0
  190.5950  176.7820  146.8610 C   0  0  1  0  0  3  0  0  0  0  0  0
  188.9770  177.0980  142.3180 N   0  0  0  0  0  0  0  0  0  0  0  0
  192.3180  174.6700  145.7430 C   0  0  0  0  0  2  0  0  0  0  0  0
  189.0670  178.4780  145.0830 C   0  0  0  0  0  2  0  0  0  0  0  0
  191.5800  175.5440  144.7370 C   0  0  0  0  0  2  0  0  0  0  0  0
  191.3130  177.4600  142.4340 N   0  0  0  0  0  2  0  0  0  0  0  0
  184.8440  178.8020  142.5700 C   0  0  0  0  0  0  0  0  0  0  0  0
  185.4050  179.4740  141.6620 O   0  0  0  0  0  0  0  0  0  0  0  0
  185.6340  178.0960  143.5380 N   0  0  0  0  0  2  0  0  0  0  0  0
  182.7160  178.8240  143.8730 C   0  0  0  0  0  3  0  0  0  0  0  0
  181.2150  178.5440  141.5210 C   0  0  0  0  0  0  0  0  0  0  0  0
  183.3730  178.7430  142.6370 C   0  0  0  0  0  0  0  0  0  0  0  0
  182.6140  178.6040  141.4670 C   0  0  0  0  0  3  0  0  0  0  0  0
  180.5740  178.6280  142.7650 C   0  0  0  0  0  3  0  0  0  0  0  0
  181.3220  178.7670  143.9380 C   0  0  0  0  0  3  0  0  0  0  0  0
  180.4280  178.3940  140.2840 C   0  0  0  0  0  0  0  0  0  0  0  0
  180.5290  179.2430  139.3590 O   0  0  0  0  0  0  0  0  0  0  0  0
  179.5440  177.2890  140.1210 N   0  0  0  0  0  1  0  0  0  0  0  0
  191.4940  177.4510  140.9900 C   0  0  0  0  0  2  0  0  0  0  0  0
  190.9020  176.2470  140.4300 N   0  0  0  0  0  2  0  0  0  0  0  0
  190.8830  176.4130  138.9880 C   0  0  2  0  0  3  0  0  0  0  0  0
  192.2720  176.8280  138.5200 C   0  0  0  0  0  2  0  0  0  0  0  0
  192.9810  175.6980  137.9410 N   0  0  0  0  0  2  0  0  0  0  0  0
  194.2390  175.6370  138.5570 N   0  0  0  0  0  2  0  0  0  0  0  0
  195.1510  174.4250  137.7260 S   0  0  0  0  0  0  0  0  0  0  0  0
  195.6450  173.2020  138.8430 N   0  0  0  0  0  1  0  0  0  0  0  0
  196.3650  175.0460  137.0940 O   0  0  0  0  0  0  0  0  0  0  0  0
  194.2940  173.8050  136.6580 O   0  0  0  0  0  0  0  0  0  0  0  0
  189.8520  177.4710  138.6190 C   0  0  0  0  0  2  0  0  0  0  0  0
  187.7740  178.0830  139.0380 C   0  0  0  0  0  1  0  0  0  0  0  0
  188.5620  176.9610  138.7780 O   0  0  0  0  0  0  0  0  0  0  0  0
  2 13  1  0  0  0  0
  3  1  1  0  0  0  0
  4  9  1  0  0  0  0
  5 10  1  0  0  0  0
  6 13  1  0  0  0  0
  6  5  2  0  0  0  0
  7  6  1  0  0  0  0
  9 18  1  1  0  0  0
  9  2  1  0  0  0  0
 10  8  1  1  0  0  0
 10  1  1  0  0  0  0
 11  4  1  0  0  0  0
 11  7  2  0  0  0  0
 12  3  1  0  0  0  0
 14  5  1  0  0  0  0
 14 12  1  0  0  0  0
 15  7  1  0  0  0  0
 16 21  1  0  0  0  0
 16 18  1  0  0  0  0
 17 16  2  0  0  0  0
 19 24  1  0  0  0  0
 20 23  1  0  0  0  0
 21 19  2  0  0  0  0
 22 20  2  0  0  0  0
 22 21  1  0  0  0  0
 23 24  2  0  0  0  0
 25 20  1  0  0  0  0
 26 25  2  0  0  0  0
 27 25  1  0  0  0  0
 28 15  1  0  0  0  0
 29 28  1  0  0  0  0
 30 31  1  1  0  0  0
 30 29  1  0  0  0  0
 32 31  1  0  0  0  0
 32 33  1  0  0  0  0
 34 33  1  0  0  0  0
 34 35  1  0  0  0  0
 36 34  2  0  0  0  0
 37 34  2  0  0  0  0
 38 40  1  0  0  0  0
 38 30  1  0  0  0  0
 40 39  1  0  0  0  0
M  END
>  <MODEL>
4

>  <REMARK>
 VINA RESULT:      -7.4      3.061      8.265
  Name = 
  12 active torsions:
  status: ('A' for Active; 'I' for Inactive)
    1  A    between atoms: C_1  and  C_12
    2  A    between atoms: C_2  and  N_9
    3  A    between atoms: C_2  and  C_27
    4  A    between atoms: C_2  and  C_30
    5  A    between atoms: S_4  and  N_40
    6  A    between atoms: C_6  and  C_11
    7  A    between atoms: N_9  and  C_19
    8  A    between atoms: N_16  and  C_27
    9  A    between atoms: N_16  and  N_40
   10  A    between atoms: C_19  and  N_38
   11  A    between atoms: O_26  and  C_30
   12  A    between atoms: C_28  and  N_39
                            x       y       z     vdW  Elec       q    Type
                         _______ _______ _______ _____ _____    ______ ____

>  <TORSDO>
F 12

$$$$
=
 OpenBabel10222415403D

 40 42  0  0  1  0  0  0  0  0999 V2000
  194.9030  174.5690  136.1800 C   0  0  0  0  0  2  0  0  0  0  0  0
  192.7820  176.9810  140.3420 C   0  0  0  0  0  2  0  0  0  0  0  0
  194.0630  174.4570  134.9240 C   0  0  0  0  0  2  0  0  0  0  0  0
  190.3600  176.3180  140.2200 C   0  0  0  0  0  2  0  0  0  0  0  0
  192.7790  175.6910  137.1560 C   0  0  0  0  0  0  0  0  0  0  0  0
  192.1720  176.6090  137.9450 C   0  0  0  0  0  0  0  0  0  0  0  0
  190.7190  176.8820  137.8590 C   0  0  0  0  0  0  0  0  0  0  0  0
  194.6760  175.0800  138.4900 O   0  0  0  0  0  1  0  0  0  0  0  0
  191.3730  177.2680  140.8520 C   0  0  1  0  0  3  0  0  0  0  0  0
  194.2940  175.5160  137.2200 C   0  0  1  0  0  3  0  0  0  0  0  0
  189.9430  176.7830  138.9010 N   0  0  0  0  0  0  0  0  0  0  0  0
  192.7170  173.8960  135.3300 C   0  0  0  0  0  2  0  0  0  0  0  0
  192.9610  177.4540  138.9060 C   0  0  0  0  0  2  0  0  0  0  0  0
  191.9450  174.9200  136.1510 C   0  0  0  0  0  2  0  0  0  0  0  0
  190.1720  177.3070  136.6050 N   0  0  0  0  0  2  0  0  0  0  0  0
  190.1760  177.4470  143.1120 C   0  0  0  0  0  0  0  0  0  0  0  0
  189.1000  177.8210  142.5690 O   0  0  0  0  0  0  0  0  0  0  0  0
  191.3280  177.1620  142.3070 N   0  0  0  0  0  2  0  0  0  0  0  0
  191.4000  176.7840  145.1820 C   0  0  0  0  0  3  0  0  0  0  0  0
  189.2230  177.5510  146.7750 C   0  0  0  0  0  0  0  0  0  0  0  0
  190.2480  177.3040  144.5770 C   0  0  0  0  0  0  0  0  0  0  0  0
  189.1650  177.6860  145.3810 C   0  0  0  0  0  3  0  0  0  0  0  0
  190.3840  177.0300  147.3640 C   0  0  0  0  0  3  0  0  0  0  0  0
  191.4690  176.6470  146.5700 C   0  0  0  0  0  3  0  0  0  0  0  0
  188.0770  177.9520  147.6100 C   0  0  0  0  0  0  0  0  0  0  0  0
  188.2550  178.3180  148.8020 O   0  0  0  0  0  0  0  0  0  0  0  0
  186.7550  177.9300  147.0790 N   0  0  0  0  0  1  0  0  0  0  0  0
  188.7710  177.6640  136.4370 C   0  0  0  0  0  2  0  0  0  0  0  0
  188.1410  176.7460  135.5020 N   0  0  0  0  0  2  0  0  0  0  0  0
  186.8540  176.3800  136.0670 C   0  0  2  0  0  3  0  0  0  0  0  0
  186.1180  177.6480  136.4820 C   0  0  0  0  0  2  0  0  0  0  0  0
  185.5430  177.4990  137.8100 N   0  0  0  0  0  2  0  0  0  0  0  0
  186.1180  178.4860  138.6230 N   0  0  0  0  0  2  0  0  0  0  0  0
  184.8480  179.1370  139.6020 S   0  0  0  0  0  0  0  0  0  0  0  0
  183.5930  177.9620  139.7800 N   0  0  0  0  0  1  0  0  0  0  0  0
  184.2900  180.3730  138.9540 O   0  0  0  0  0  0  0  0  0  0  0  0
  185.3960  179.4880  140.9570 O   0  0  0  0  0  0  0  0  0  0  0  0
  187.0760  175.4680  137.2670 C   0  0  0  0  0  2  0  0  0  0  0  0
  185.8660  174.1050  136.0240 C   0  0  0  0  0  1  0  0  0  0  0  0
  186.9670  174.1320  136.8810 O   0  0  0  0  0  0  0  0  0  0  0  0
  1 10  1  0  0  0  0
  2  9  1  0  0  0  0
  3 12  1  0  0  0  0
  3  1  1  0  0  0  0
  4  9  1  0  0  0  0
  5 10  1  0  0  0  0
  5  6  2  0  0  0  0
  6 13  1  0  0  0  0
  7  6  1  0  0  0  0
  7 11  2  0  0  0  0
  9 18  1  1  0  0  0
 10  8  1  1  0  0  0
 11  4  1  0  0  0  0
 12 14  1  0  0  0  0
 13  2  1  0  0  0  0
 14  5  1  0  0  0  0
 15  7  1  0  0  0  0
 16 21  1  0  0  0  0
 17 16  2  0  0  0  0
 18 16  1  0  0  0  0
 19 24  1  0  0  0  0
 20 23  1  0  0  0  0
 20 25  1  0  0  0  0
 21 19  2  0  0  0  0
 21 22  1  0  0  0  0
 22 20  2  0  0  0  0
 24 23  2  0  0  0  0
 25 26  2  0  0  0  0
 27 25  1  0  0  0  0
 28 15  1  0  0  0  0
 29 30  1  0  0  0  0
 29 28  1  0  0  0  0
 30 31  1  1  0  0  0
 30 38  1  0  0  0  0
 31 32  1  0  0  0  0
 32 33  1  0  0  0  0
 33 34  1  0  0  0  0
 34 35  1  0  0  0  0
 34 37  2  0  0  0  0
 36 34  2  0  0  0  0
 39 40  1  0  0  0  0
 40 38  1  0  0  0  0
M  END
>  <MODEL>
5

>  <REMARK>
 VINA RESULT:      -7.3      3.654      7.405
  Name = 
  12 active torsions:
  status: ('A' for Active; 'I' for Inactive)
    1  A    between atoms: C_1  and  C_12
    2  A    between atoms: C_2  and  N_9
    3  A    between atoms: C_2  and  C_27
    4  A    between atoms: C_2  and  C_30
    5  A    between atoms: S_4  and  N_40
    6  A    between atoms: C_6  and  C_11
    7  A    between atoms: N_9  and  C_19
    8  A    between atoms: N_16  and  C_27
    9  A    between atoms: N_16  and  N_40
   10  A    between atoms: C_19  and  N_38
   11  A    between atoms: O_26  and  C_30
   12  A    between atoms: C_28  and  N_39
                            x       y       z     vdW  Elec       q    Type
                         _______ _______ _______ _____ _____    ______ ____

>  <TORSDO>
F 12

$$$$
=
 OpenBabel10222415403D

 40 42  0  0  1  0  0  0  0  0999 V2000
  187.5880  177.8890  147.9010 C   0  0  0  0  0  2  0  0  0  0  0  0
  188.9970  176.3730  143.0680 C   0  0  0  0  0  2  0  0  0  0  0  0
  186.2950  178.6650  148.0490 C   0  0  0  0  0  2  0  0  0  0  0  0
  188.2220  178.2750  141.6190 C   0  0  0  0  0  2  0  0  0  0  0  0
  187.0180  177.9810  145.3740 C   0  0  0  0  0  0  0  0  0  0  0  0
  186.9980  177.4320  144.1360 C   0  0  0  0  0  0  0  0  0  0  0  0
  186.2240  178.0290  143.0230 C   0  0  0  0  0  0  0  0  0  0  0  0
  189.1190  177.1950  146.2210 O   0  0  0  0  0  1  0  0  0  0  0  0
  188.7120  176.8300  141.6410 C   0  0  1  0  0  3  0  0  0  0  0  0
  187.7550  177.2740  146.5070 C   0  0  1  0  0  3  0  0  0  0  0  0
  186.7910  178.3570  141.8970 N   0  0  0  0  0  0  0  0  0  0  0  0
  186.3290  179.7960  147.0450 C   0  0  0  0  0  2  0  0  0  0  0  0
  187.7090  176.1390  143.8450 C   0  0  0  0  0  2  0  0  0  0  0  0
  186.2210  179.2460  145.6290 C   0  0  0  0  0  2  0  0  0  0  0  0
  184.8110  178.2050  143.1840 N   0  0  0  0  0  2  0  0  0  0  0  0
  189.9120  176.6860  139.3800 C   0  0  0  0  0  0  0  0  0  0  0  0
  188.8310  176.8130  138.7420 O   0  0  0  0  0  0  0  0  0  0  0  0
  189.9060  176.6870  140.8150 N   0  0  0  0  0  2  0  0  0  0  0  0
  192.3930  176.9120  139.2470 C   0  0  0  0  0  3  0  0  0  0  0  0
  192.3980  175.8660  136.6440 C   0  0  0  0  0  0  0  0  0  0  0  0
  191.1820  176.5340  138.6490 C   0  0  0  0  0  0  0  0  0  0  0  0
  191.1940  176.0110  137.3490 C   0  0  0  0  0  3  0  0  0  0  0  0
  193.5990  176.2490  137.2570 C   0  0  0  0  0  3  0  0  0  0  0  0
  193.5970  176.7700  138.5540 C   0  0  0  0  0  3  0  0  0  0  0  0
  192.3980  175.3180  135.2770 C   0  0  0  0  0  0  0  0  0  0  0  0
  193.4700  175.2460  134.6190 O   0  0  0  0  0  0  0  0  0  0  0  0
  191.1850  174.8660  134.6810 N   0  0  0  0  0  1  0  0  0  0  0  0
  183.9560  178.7180  142.1250 C   0  0  0  0  0  2  0  0  0  0  0  0
  183.4070  177.6110  141.3590 N   0  0  0  0  0  2  0  0  0  0  0  0
  183.4010  178.0190  139.9650 C   0  0  2  0  0  3  0  0  0  0  0  0
  184.1010  179.3670  139.8420 C   0  0  0  0  0  2  0  0  0  0  0  0
  184.8480  179.4490  138.5970 N   0  0  0  0  0  2  0  0  0  0  0  0
  185.8350  178.4530  138.6390 N   0  0  0  0  0  2  0  0  0  0  0  0
  185.7620  177.6050  137.1330 S   0  0  0  0  0  0  0  0  0  0  0  0
  186.9190  178.2720  136.0350 N   0  0  0  0  0  1  0  0  0  0  0  0
  184.3850  177.7280  136.5460 O   0  0  0  0  0  0  0  0  0  0  0  0
  186.0780  176.1540  137.3650 O   0  0  0  0  0  0  0  0  0  0  0  0
  181.9620  178.1130  139.4770 C   0  0  0  0  0  2  0  0  0  0  0  0
  180.0850  178.8270  140.3890 C   0  0  0  0  0  1  0  0  0  0  0  0
  181.0800  177.8590  140.5280 O   0  0  0  0  0  0  0  0  0  0  0  0
  1  3  1  0  0  0  0
  2 13  1  0  0  0  0
  4  9  1  0  0  0  0
  4 11  1  0  0  0  0
  5 14  1  0  0  0  0
  5 10  1  0  0  0  0
  6  5  2  0  0  0  0
  7 15  1  0  0  0  0
  7  6  1  0  0  0  0
  9 18  1  6  0  0  0
  9  2  1  0  0  0  0
 10  8  1  6  0  0  0
 10  1  1  0  0  0  0
 11  7  2  0  0  0  0
 12  3  1  0  0  0  0
 13  6  1  0  0  0  0
 14 12  1  0  0  0  0
 16 18  1  0  0  0  0
 17 16  2  0  0  0  0
 20 23  2  0  0  0  0
 20 22  1  0  0  0  0
 21 19  1  0  0  0  0
 21 16  1  0  0  0  0
 22 21  2  0  0  0  0
 23 24  1  0  0  0  0
 24 19  2  0  0  0  0
 25 20  1  0  0  0  0
 26 25  2  0  0  0  0
 27 25  1  0  0  0  0
 28 15  1  0  0  0  0
 29 28  1  0  0  0  0
 30 38  1  1  0  0  0
 30 29  1  0  0  0  0
 31 30  1  0  0  0  0
 32 33  1  0  0  0  0
 32 31  1  0  0  0  0
 34 37  2  0  0  0  0
 34 33  1  0  0  0  0
 35 34  1  0  0  0  0
 36 34  2  0  0  0  0
 38 40  1  0  0  0  0
 39 40  1  0  0  0  0
M  END
>  <MODEL>
6

>  <REMARK>
 VINA RESULT:      -6.4      2.905      7.786
  Name = 
  12 active torsions:
  status: ('A' for Active; 'I' for Inactive)
    1  A    between atoms: C_1  and  C_12
    2  A    between atoms: C_2  and  N_9
    3  A    between atoms: C_2  and  C_27
    4  A    between atoms: C_2  and  C_30
    5  A    between atoms: S_4  and  N_40
    6  A    between atoms: C_6  and  C_11
    7  A    between atoms: N_9  and  C_19
    8  A    between atoms: N_16  and  C_27
    9  A    between atoms: N_16  and  N_40
   10  A    between atoms: C_19  and  N_38
   11  A    between atoms: O_26  and  C_30
   12  A    between atoms: C_28  and  N_39
                            x       y       z     vdW  Elec       q    Type
                         _______ _______ _______ _____ _____    ______ ____

>  <TORSDO>
F 12

$$$$
=
 OpenBabel10222415403D

 40 42  0  0  1  0  0  0  0  0999 V2000
  190.5960  176.7500  146.9980 C   0  0  0  0  0  2  0  0  0  0  0  0
  190.7880  176.0020  141.7970 C   0  0  0  0  0  2  0  0  0  0  0  0
  189.3770  177.4460  147.5670 C   0  0  0  0  0  2  0  0  0  0  0  0
  189.6790  178.0620  140.8780 C   0  0  0  0  0  2  0  0  0  0  0  0
  189.4270  177.1830  144.7240 C   0  0  0  0  0  0  0  0  0  0  0  0
  189.1080  176.8180  143.4600 C   0  0  0  0  0  0  0  0  0  0  0  0
  188.0840  177.5400  142.6680 C   0  0  0  0  0  0  0  0  0  0  0  0
  191.6730  176.3650  144.9140 O   0  0  0  0  0  1  0  0  0  0  0  0
  190.1630  176.6490  140.5650 C   0  0  1  0  0  3  0  0  0  0  0  0
  190.4200  176.3490  145.5290 C   0  0  1  0  0  3  0  0  0  0  0  0
  188.3600  178.0480  141.5010 N   0  0  0  0  0  0  0  0  0  0  0  0
  189.1630  178.7110  146.7640 C   0  0  0  0  0  2  0  0  0  0  0  0
  189.7290  175.6100  142.8180 C   0  0  0  0  0  2  0  0  0  0  0  0
  188.7140  178.3670  145.3500 C   0  0  0  0  0  2  0  0  0  0  0  0
  186.7530  177.6360  143.1890 N   0  0  0  0  0  2  0  0  0  0  0  0
  191.1150  175.7600  138.3570 C   0  0  0  0  0  0  0  0  0  0  0  0
  190.2400  174.8540  138.2880 O   0  0  0  0  0  0  0  0  0  0  0  0
  191.1200  176.6720  139.4640 N   0  0  0  0  0  2  0  0  0  0  0  0
  191.7680  176.2760  136.0050 C   0  0  0  0  0  3  0  0  0  0  0  0
  194.4550  175.7060  136.5740 C   0  0  0  0  0  0  0  0  0  0  0  0
  192.1340  175.8800  137.2990 C   0  0  0  0  0  0  0  0  0  0  0  0
  193.4790  175.5980  137.5750 C   0  0  0  0  0  3  0  0  0  0  0  0
  194.0710  176.1050  135.2850 C   0  0  0  0  0  3  0  0  0  0  0  0
  192.7330  176.3890  135.0020 C   0  0  0  0  0  3  0  0  0  0  0  0
  195.8650  175.4040  136.8740 C   0  0  0  0  0  0  0  0  0  0  0  0
  196.7780  175.7860  136.0940 O   0  0  0  0  0  0  0  0  0  0  0  0
  196.2120  174.6750  138.0480 N   0  0  0  0  0  1  0  0  0  0  0  0
  185.6650  178.2640  142.4550 C   0  0  0  0  0  2  0  0  0  0  0  0
  185.0040  179.2430  143.3030 N   0  0  0  0  0  2  0  0  0  0  0  0
  183.7950  178.6200  143.8110 C   0  0  2  0  0  3  0  0  0  0  0  0
  182.6100  179.0870  142.9760 C   0  0  0  0  0  2  0  0  0  0  0  0
  182.4920  178.2980  141.7610 N   0  0  0  0  0  2  0  0  0  0  0  0
  182.0680  179.1640  140.7430 N   0  0  0  0  0  2  0  0  0  0  0  0
  183.0540  178.8390  139.3590 S   0  0  0  0  0  0  0  0  0  0  0  0
  184.1820  180.1290  139.1350 N   0  0  0  0  0  1  0  0  0  0  0  0
  182.1880  178.7120  138.1370 O   0  0  0  0  0  0  0  0  0  0  0  0
  183.8040  177.5550  139.5750 O   0  0  0  0  0  0  0  0  0  0  0  0
  183.6100  179.0050  145.2730 C   0  0  0  0  0  2  0  0  0  0  0  0
  185.1530  178.2560  146.6600 C   0  0  0  0  0  1  0  0  0  0  0  0
  184.8390  179.3410  145.8410 O   0  0  0  0  0  0  0  0  0  0  0  0
  1  3  1  0  0  0  0
  2 13  1  0  0  0  0
  4 11  1  0  0  0  0
  5 14  1  0  0  0  0
  5 10  1  0  0  0  0
  6  5  2  0  0  0  0
  7 15  1  0  0  0  0
  7  6  1  0  0  0  0
  9 18  1  6  0  0  0
  9  4  1  0  0  0  0
  9  2  1  0  0  0  0
 10  8  1  6  0  0  0
 10  1  1  0  0  0  0
 11  7  2  0  0  0  0
 12  3  1  0  0  0  0
 13  6  1  0  0  0  0
 14 12  1  0  0  0  0
 16 18  1  0  0  0  0
 17 16  2  0  0  0  0
 19 21  1  0  0  0  0
 20 25  1  0  0  0  0
 20 22  1  0  0  0  0
 21 22  2  0  0  0  0
 21 16  1  0  0  0  0
 23 20  2  0  0  0  0
 24 23  1  0  0  0  0
 24 19  2  0  0  0  0
 25 27  1  0  0  0  0
 26 25  2  0  0  0  0
 28 15  1  0  0  0  0
 28 29  1  0  0  0  0
 29 30  1  0  0  0  0
 30 31  1  6  0  0  0
 30 38  1  0  0  0  0
 32 31  1  0  0  0  0
 33 32  1  0  0  0  0
 34 37  2  0  0  0  0
 34 33  1  0  0  0  0
 35 34  1  0  0  0  0
 36 34  2  0  0  0  0
 38 40  1  0  0  0  0
 40 39  1  0  0  0  0
M  END
>  <MODEL>
7

>  <REMARK>
 VINA RESULT:      -6.4      3.786      9.327
  Name = 
  12 active torsions:
  status: ('A' for Active; 'I' for Inactive)
    1  A    between atoms: C_1  and  C_12
    2  A    between atoms: C_2  and  N_9
    3  A    between atoms: C_2  and  C_27
    4  A    between atoms: C_2  and  C_30
    5  A    between atoms: S_4  and  N_40
    6  A    between atoms: C_6  and  C_11
    7  A    between atoms: N_9  and  C_19
    8  A    between atoms: N_16  and  C_27
    9  A    between atoms: N_16  and  N_40
   10  A    between atoms: C_19  and  N_38
   11  A    between atoms: O_26  and  C_30
   12  A    between atoms: C_28  and  N_39
                            x       y       z     vdW  Elec       q    Type
                         _______ _______ _______ _____ _____    ______ ____

>  <TORSDO>
F 12

$$$$
=
 OpenBabel10222415403D

 40 42  0  0  1  0  0  0  0  0999 V2000
  180.4110  180.2350  140.4180 C   0  0  0  0  0  2  0  0  0  0  0  0
  184.6590  177.9580  142.5180 C   0  0  0  0  0  2  0  0  0  0  0  0
  180.4320  180.5380  138.9340 C   0  0  0  0  0  2  0  0  0  0  0  0
  186.5580  178.9840  141.2300 C   0  0  0  0  0  2  0  0  0  0  0  0
  182.8260  179.3970  139.9900 C   0  0  0  0  0  0  0  0  0  0  0  0
  183.8500  178.5420  140.2240 C   0  0  0  0  0  0  0  0  0  0  0  0
  185.0500  178.4950  139.3560 C   0  0  0  0  0  0  0  0  0  0  0  0
  181.8890  179.6450  142.1830 O   0  0  0  0  0  1  0  0  0  0  0  0
  186.1420  177.8610  142.1740 C   0  0  1  0  0  3  0  0  0  0  0  0
  181.5730  179.3380  140.8580 C   0  0  1  0  0  3  0  0  0  0  0  0
  186.2480  178.6560  139.8410 N   0  0  0  0  0  0  0  0  0  0  0  0
  181.7220  181.2740  138.6420 C   0  0  0  0  0  2  0  0  0  0  0  0
  183.7870  177.5390  141.3420 C   0  0  0  0  0  2  0  0  0  0  0  0
  182.9110  180.3360  138.8020 C   0  0  0  0  0  2  0  0  0  0  0  0
  184.8800  178.2240  137.9600 N   0  0  0  0  0  2  0  0  0  0  0  0
  186.4180  177.8540  144.7230 C   0  0  0  0  0  0  0  0  0  0  0  0
  185.1730  177.7830  144.9070 O   0  0  0  0  0  0  0  0  0  0  0  0
  186.9480  177.8960  143.3900 N   0  0  0  0  0  2  0  0  0  0  0  0
  186.8860  178.3890  147.1140 C   0  0  0  0  0  3  0  0  0  0  0  0
  189.5270  177.4830  146.8520 C   0  0  0  0  0  0  0  0  0  0  0  0
  187.3310  177.8960  145.8800 C   0  0  0  0  0  0  0  0  0  0  0  0
  188.6520  177.4450  145.7580 C   0  0  0  0  0  3  0  0  0  0  0  0
  189.0660  177.9790  148.0800 C   0  0  0  0  0  3  0  0  0  0  0  0
  187.7500  178.4300  148.2110 C   0  0  0  0  0  3  0  0  0  0  0  0
  190.9150  177.0090  146.7110 C   0  0  0  0  0  0  0  0  0  0  0  0
  191.6530  177.4630  145.7960 O   0  0  0  0  0  0  0  0  0  0  0  0
  191.4380  176.0310  147.6060 N   0  0  0  0  0  1  0  0  0  0  0  0
  186.0000  178.0910  137.0420 C   0  0  0  0  0  2  0  0  0  0  0  0
  186.6190  176.7860  137.2090 N   0  0  0  0  0  2  0  0  0  0  0  0
  185.7130  175.8080  136.6330 C   0  0  2  0  0  3  0  0  0  0  0  0
  186.1020  174.4220  137.1300 C   0  0  0  0  0  2  0  0  0  0  0  0
  186.7830  173.6710  136.0860 N   0  0  0  0  0  2  0  0  0  0  0  0
  187.7640  172.8890  136.7120 N   0  0  0  0  0  2  0  0  0  0  0  0
  189.2970  173.4370  136.1250 S   0  0  0  0  0  0  0  0  0  0  0  0
  190.3140  173.8520  137.4590 N   0  0  0  0  0  1  0  0  0  0  0  0
  189.1040  174.6410  135.2470 O   0  0  0  0  0  0  0  0  0  0  0  0
  189.9450  172.3390  135.3300 O   0  0  0  0  0  0  0  0  0  0  0  0
  185.8000  175.8800  135.1140 C   0  0  0  0  0  2  0  0  0  0  0  0
  183.5990  175.7570  135.1770 C   0  0  0  0  0  1  0  0  0  0  0  0
  184.6470  176.4700  134.5940 O   0  0  0  0  0  0  0  0  0  0  0  0
  1 10  1  0  0  0  0
  3  1  1  0  0  0  0
  4  9  1  0  0  0  0
  5  6  2  0  0  0  0
  5 10  1  0  0  0  0
  6 13  1  0  0  0  0
  7 11  2  0  0  0  0
  7  6  1  0  0  0  0
  9  2  1  0  0  0  0
  9 18  1  1  0  0  0
 10  8  1  1  0  0  0
 11  4  1  0  0  0  0
 12 14  1  0  0  0  0
 12  3  1  0  0  0  0
 13  2  1  0  0  0  0
 14  5  1  0  0  0  0
 15  7  1  0  0  0  0
 16 17  2  0  0  0  0
 16 21  1  0  0  0  0
 18 16  1  0  0  0  0
 19 24  1  0  0  0  0
 20 23  1  0  0  0  0
 21 19  2  0  0  0  0
 22 21  1  0  0  0  0
 22 20  2  0  0  0  0
 23 24  2  0  0  0  0
 25 20  1  0  0  0  0
 25 27  1  0  0  0  0
 26 25  2  0  0  0  0
 28 29  1  0  0  0  0
 28 15  1  0  0  0  0
 30 38  1  6  0  0  0
 30 31  1  0  0  0  0
 30 29  1  0  0  0  0
 32 33  1  0  0  0  0
 32 31  1  0  0  0  0
 34 33  1  0  0  0  0
 34 35  1  0  0  0  0
 36 34  2  0  0  0  0
 37 34  2  0  0  0  0
 40 38  1  0  0  0  0
 40 39  1  0  0  0  0
M  END
>  <MODEL>
8

>  <REMARK>
 VINA RESULT:      -6.2      1.877      2.217
  Name = 
  12 active torsions:
  status: ('A' for Active; 'I' for Inactive)
    1  A    between atoms: C_1  and  C_12
    2  A    between atoms: C_2  and  N_9
    3  A    between atoms: C_2  and  C_27
    4  A    between atoms: C_2  and  C_30
    5  A    between atoms: S_4  and  N_40
    6  A    between atoms: C_6  and  C_11
    7  A    between atoms: N_9  and  C_19
    8  A    between atoms: N_16  and  C_27
    9  A    between atoms: N_16  and  N_40
   10  A    between atoms: C_19  and  N_38
   11  A    between atoms: O_26  and  C_30
   12  A    between atoms: C_28  and  N_39
                            x       y       z     vdW  Elec       q    Type
                         _______ _______ _______ _____ _____    ______ ____

>  <TORSDO>
F 12

$$$$
=
 OpenBabel10222415403D

 40 42  0  0  1  0  0  0  0  0999 V2000
  189.5150  176.8970  147.4270 C   0  0  0  0  0  2  0  0  0  0  0  0
  190.2530  175.9940  142.3000 C   0  0  0  0  0  2  0  0  0  0  0  0
  188.3070  177.7160  147.8340 C   0  0  0  0  0  2  0  0  0  0  0  0
  189.4570  178.1200  141.2210 C   0  0  0  0  0  2  0  0  0  0  0  0
  188.6700  177.3730  145.0220 C   0  0  0  0  0  0  0  0  0  0  0  0
  188.4700  177.0040  143.7350 C   0  0  0  0  0  0  0  0  0  0  0  0
  187.6190  177.7930  142.8140 C   0  0  0  0  0  0  0  0  0  0  0  0
  190.7910  176.3610  145.4950 O   0  0  0  0  0  1  0  0  0  0  0  0
  189.8410  176.6620  140.9920 C   0  0  1  0  0  3  0  0  0  0  0  0
  189.4780  176.4740  145.9540 C   0  0  1  0  0  3  0  0  0  0  0  0
  188.0770  178.2430  141.6800 N   0  0  0  0  0  0  0  0  0  0  0  0
  188.3080  178.9720  146.9900 C   0  0  0  0  0  2  0  0  0  0  0  0
  189.0480  175.7270  143.1920 C   0  0  0  0  0  2  0  0  0  0  0  0
  188.0000  178.6330  145.5380 C   0  0  0  0  0  2  0  0  0  0  0  0
  186.2510  178.0240  143.1680 N   0  0  0  0  0  2  0  0  0  0  0  0
  190.8340  175.8660  138.7660 C   0  0  0  0  0  0  0  0  0  0  0  0
  189.7700  175.2670  138.4480 O   0  0  0  0  0  0  0  0  0  0  0  0
  190.9200  176.5690  140.0140 N   0  0  0  0  0  2  0  0  0  0  0  0
  191.8920  176.3890  136.5680 C   0  0  0  0  0  3  0  0  0  0  0  0
  194.3090  175.2360  137.4010 C   0  0  0  0  0  0  0  0  0  0  0  0
  191.9920  175.8400  137.8540 C   0  0  0  0  0  0  0  0  0  0  0  0
  193.2040  175.2670  138.2620 C   0  0  0  0  0  3  0  0  0  0  0  0
  194.1920  175.7890  136.1170 C   0  0  0  0  0  3  0  0  0  0  0  0
  192.9870  176.3640  135.7020 C   0  0  0  0  0  3  0  0  0  0  0  0
  195.5770  174.6280  137.8390 C   0  0  0  0  0  0  0  0  0  0  0  0
  195.5720  173.6190  138.5940 O   0  0  0  0  0  0  0  0  0  0  0  0
  196.8240  175.1740  137.4170 N   0  0  0  0  0  1  0  0  0  0  0  0
  185.3200  178.7270  142.2990 C   0  0  0  0  0  2  0  0  0  0  0  0
  184.1690  177.8820  142.0280 N   0  0  0  0  0  2  0  0  0  0  0  0
  183.7630  178.1410  140.6580 C   0  0  2  0  0  3  0  0  0  0  0  0
  184.5140  179.3630  140.1430 C   0  0  0  0  0  2  0  0  0  0  0  0
  184.8740  179.1960  138.7440 N   0  0  0  0  0  2  0  0  0  0  0  0
  186.1390  178.5920  138.7110 N   0  0  0  0  0  2  0  0  0  0  0  0
  186.2210  177.6690  137.2500 S   0  0  0  0  0  0  0  0  0  0  0  0
  187.2120  178.4930  136.0980 N   0  0  0  0  0  1  0  0  0  0  0  0
  184.8400  177.4880  136.6850 O   0  0  0  0  0  0  0  0  0  0  0  0
  186.8190  176.3230  137.5460 O   0  0  0  0  0  0  0  0  0  0  0  0
  182.2590  178.3760  140.6170 C   0  0  0  0  0  2  0  0  0  0  0  0
  180.7240  179.3850  141.8380 C   0  0  0  0  0  1  0  0  0  0  0  0
  181.7470  178.4400  141.9140 O   0  0  0  0  0  0  0  0  0  0  0  0
  1  3  1  0  0  0  0
  2 13  1  0  0  0  0
  4 11  1  0  0  0  0
  5 14  1  0  0  0  0
  5 10  1  0  0  0  0
  6  5  2  0  0  0  0
  7 15  1  0  0  0  0
  7  6  1  0  0  0  0
  9 18  1  6  0  0  0
  9  4  1  0  0  0  0
  9  2  1  0  0  0  0
 10  8  1  6  0  0  0
 10  1  1  0  0  0  0
 11  7  2  0  0  0  0
 12  3  1  0  0  0  0
 13  6  1  0  0  0  0
 14 12  1  0  0  0  0
 16 18  1  0  0  0  0
 17 16  2  0  0  0  0
 19 21  1  0  0  0  0
 20 25  1  0  0  0  0
 20 22  1  0  0  0  0
 21 22  2  0  0  0  0
 21 16  1  0  0  0  0
 23 20  2  0  0  0  0
 24 23  1  0  0  0  0
 24 19  2  0  0  0  0
 25 26  2  0  0  0  0
 27 25  1  0  0  0  0
 28 15  1  0  0  0  0
 29 28  1  0  0  0  0
 30 31  1  1  0  0  0
 30 29  1  0  0  0  0
 32 31  1  0  0  0  0
 33 32  1  0  0  0  0
 34 37  2  0  0  0  0
 34 33  1  0  0  0  0
 35 34  1  0  0  0  0
 36 34  2  0  0  0  0
 38 30  1  0  0  0  0
 38 40  1  0  0  0  0
 39 40  1  0  0  0  0
M  END
>  <MODEL>
9

>  <REMARK>
 VINA RESULT:      -6.1      3.343      8.223
  Name = 
  12 active torsions:
  status: ('A' for Active; 'I' for Inactive)
    1  A    between atoms: C_1  and  C_12
    2  A    between atoms: C_2  and  N_9
    3  A    between atoms: C_2  and  C_27
    4  A    between atoms: C_2  and  C_30
    5  A    between atoms: S_4  and  N_40
    6  A    between atoms: C_6  and  C_11
    7  A    between atoms: N_9  and  C_19
    8  A    between atoms: N_16  and  C_27
    9  A    between atoms: N_16  and  N_40
   10  A    between atoms: C_19  and  N_38
   11  A    between atoms: O_26  and  C_30
   12  A    between atoms: C_28  and  N_39
                            x       y       z     vdW  Elec       q    Type
                         _______ _______ _______ _____ _____    ______ ____

>  <TORSDO>
F 12

$$$$
