=
 OpenBabel10222416213D

 62 67  0  0  1  0  0  0  0  0999 V2000
  181.5780  178.5120  138.1710 C   0  0  2  0  0  3  0  0  0  0  0  0
  180.6580  182.0160  136.9640 C   0  0  0  0  0  0  0  0  0  0  0  0
  180.1650  182.8990  134.7640 C   0  0  0  0  0  3  0  0  0  0  0  0
  181.0090  179.4650  135.8650 C   0  0  0  0  0  3  0  0  0  0  0  0
  179.9820  184.1290  135.3180 N   0  0  0  0  0  0  0  0  0  0  0  0
  180.4680  183.2890  137.5070 C   0  0  0  0  0  3  0  0  0  0  0  0
  179.9130  185.7080  137.2110 C   0  0  0  0  0  1  0  0  0  0  0  0
  180.6740  180.5380  135.0300 C   0  0  0  0  0  3  0  0  0  0  0  0
  181.1720  179.6550  137.2510 C   0  0  0  0  0  0  0  0  0  0  0  0
  181.0050  180.9460  137.7860 C   0  0  0  0  0  3  0  0  0  0  0  0
  180.4980  181.8110  135.5780 C   0  0  0  0  0  0  0  0  0  0  0  0
  180.1230  184.3450  136.6560 C   0  0  0  0  0  0  0  0  0  0  0  0
  183.4830  178.1610  142.6150 N   0  0  0  0  0  2  0  0  0  0  0  0
  180.9600  178.3740  142.4340 C   0  0  0  0  0  0  0  0  0  0  0  0
  183.7600  178.9510  143.7750 C   0  0  0  0  0  0  0  0  0  0  0  0
  182.3130  178.3480  141.8110 C   0  0  0  0  0  0  0  0  0  0  0  0
  180.0120  178.0360  140.1660 C   0  0  2  0  0  3  0  0  0  0  0  0
  181.2870  178.7370  139.6630 C   0  0  1  0  0  3  0  0  0  0  0  0
  179.8780  178.2770  141.6480 C   0  0  0  0  0  3  0  0  0  0  0  0
  182.4380  178.4330  140.5180 N   0  0  0  0  0  0  0  0  0  0  0  0
  183.2020  180.0770  143.9180 O   0  0  0  0  0  0  0  0  0  0  0  0
  180.0830  176.6600  139.9310 O   0  0  0  0  0  0  0  0  0  0  0  0
  179.2140  176.4300  138.8630 C   0  0  0  0  0  1  0  0  0  0  0  0
  180.8390  178.4740  143.8260 O   0  0  0  0  0  0  0  0  0  0  0  0
  179.6430  178.8840  144.4730 C   0  0  0  0  0  1  0  0  0  0  0  0
  184.6800  178.4280  144.8390 C   0  0  1  0  0  3  0  0  0  0  0  0
  185.5470  177.4740  144.2910 O   0  0  0  0  0  0  0  0  0  0  0  0
  186.6150  178.1930  143.7310 C   0  0  0  0  0  2  0  0  0  0  0  0
  187.8510  176.0250  143.4850 O   0  0  0  0  0  0  0  0  0  0  0  0
  187.8730  177.3850  143.7770 C   0  0  0  0  0  0  0  0  0  0  0  0
  188.9670  177.9460  144.0540 O   0  0  0  0  0  1  0  0  0  0  0  0
  185.4860  179.5940  145.4110 C   0  0  0  0  0  2  0  0  0  0  0  0
  185.7600  179.3860  146.8900 C   0  0  0  0  0  2  0  0  0  0  0  0
  187.3910  178.0760  147.6070 C   0  0  0  0  0  1  0  0  0  0  0  0
  186.0800  178.0500  147.1240 O   0  0  0  0  0  0  0  0  0  0  0  0
  182.9220  177.9510  137.9360 N   0  0  0  0  0  0  0  0  0  0  0  0
  183.9490  178.9890  137.9890 C   0  0  0  0  0  1  0  0  0  0  0  0
  182.9370  177.3470  136.6110 C   0  0  0  0  0  2  0  0  0  0  0  0
  184.2390  176.5740  136.3870 C   0  0  0  0  0  2  0  0  0  0  0  0
  185.0410  177.2550  135.3790 N   0  0  0  0  0  2  0  0  0  0  0  0
  186.4050  176.7270  135.4190 C   0  0  0  0  0  2  0  0  0  0  0  0
  187.4510  177.8170  135.1800 C   0  0  0  0  0  2  0  0  0  0  0  0
  187.7170  178.6180  136.4370 C   0  0  0  0  0  2  0  0  0  0  0  0
  189.0530  178.4000  136.8600 O   0  0  0  0  0  0  0  0  0  0  0  0
  190.8220  177.5720  138.4270 C   0  0  2  0  0  3  0  0  0  0  0  0
  188.6460  177.2900  140.3910 C   0  0  0  0  0  2  0  0  0  0  0  0
  188.4270  177.6810  138.9950 N   0  0  0  0  0  0  0  0  0  0  0  0
  191.0640  177.4620  139.9360 C   0  0  0  0  0  2  0  0  0  0  0  0
  189.3710  177.8840  138.1160 C   0  0  0  0  0  0  0  0  0  0  0  0
  189.9900  176.6030  140.5750 C   0  0  0  0  0  2  0  0  0  0  0  0
  192.6540  176.1640  137.2750 C   0  0  0  0  0  0  0  0  0  0  0  0
  192.7180  174.9630  136.5970 C   0  0  0  0  0  0  0  0  0  0  0  0
  193.4560  173.0660  135.1610 C   0  0  0  0  0  2  0  0  0  0  0  0
  192.3130  172.2590  135.7980 C   0  0  0  0  0  2  0  0  0  0  0  0
  190.6040  175.3040  137.2240 N   0  0  0  0  0  0  0  0  0  0  0  0
  191.0690  173.1340  136.0020 C   0  0  0  0  0  2  0  0  0  0  0  0
  189.2780  175.0350  137.4820 O   0  0  0  0  0  1  0  0  0  0  0  0
  193.9100  174.2060  136.0760 C   0  0  1  0  0  3  0  0  0  0  0  0
  194.8480  175.1090  135.3060 C   0  0  0  0  0  1  0  0  0  0  0  0
  191.3290  176.3790  137.6340 C   0  0  0  0  0  0  0  0  0  0  0  0
  193.7370  176.9900  137.5700 O   0  0  0  0  0  1  0  0  0  0  0  0
  191.4450  174.4430  136.6250 C   0  0  0  0  0  0  0  0  0  0  0  0
  1 36  1  1  0  0  0
  2  6  1  0  0  0  0
  2 10  1  0  0  0  0
  3  5  2  0  0  0  0
  3 11  1  0  0  0  0
  4  9  1  0  0  0  0
  5 12  1  0  0  0  0
  8 11  1  0  0  0  0
  8  4  2  0  0  0  0
  9 10  2  0  0  0  0
  9  1  1  0  0  0  0
 11  2  2  0  0  0  0
 12  7  1  0  0  0  0
 12  6  2  0  0  0  0
 13 15  1  0  0  0  0
 14 24  1  0  0  0  0
 15 21  2  0  0  0  0
 15 26  1  0  0  0  0
 16 14  1  0  0  0  0
 16 13  1  0  0  0  0
 17 22  1  1  0  0  0
 17 19  1  0  0  0  0
 18  1  1  6  0  0  0
 18 17  1  0  0  0  0
 18 20  1  0  0  0  0
 19 14  2  0  0  0  0
 20 16  2  0  0  0  0
 23 22  1  0  0  0  0
 24 25  1  0  0  0  0
 26 32  1  6  0  0  0
 27 26  1  0  0  0  0
 28 30  1  0  0  0  0
 28 27  1  0  0  0  0
 29 30  2  0  0  0  0
 30 31  1  0  0  0  0
 32 33  1  0  0  0  0
 33 35  1  0  0  0  0
 35 34  1  0  0  0  0
 36 37  1  0  0  0  0
 38 36  1  0  0  0  0
 39 38  1  0  0  0  0
 40 41  1  0  0  0  0
 40 39  1  0  0  0  0
 42 41  1  0  0  0  0
 42 43  1  0  0  0  0
 43 44  1  0  0  0  0
 44 49  1  0  0  0  0
 45 60  1  6  0  0  0
 45 48  1  0  0  0  0
 46 50  1  0  0  0  0
 47 46  1  0  0  0  0
 48 50  1  0  0  0  0
 49 45  1  0  0  0  0
 49 47  2  0  0  0  0
 51 61  1  0  0  0  0
 51 60  2  0  0  0  0
 52 62  2  0  0  0  0
 52 51  1  0  0  0  0
 53 54  1  0  0  0  0
 53 58  1  0  0  0  0
 54 56  1  0  0  0  0
 55 57  1  0  0  0  0
 55 60  1  0  0  0  0
 56 62  1  0  0  0  0
 58 59  1  6  0  0  0
 58 52  1  0  0  0  0
 62 55  1  0  0  0  0
M  END
>  <MODEL>
1

>  <REMARK>
 VINA RESULT:      -6.3      0.000      0.000
  Name = 
  21 active torsions:
  status: ('A' for Active; 'I' for Inactive)
    1  A    between atoms: C_1  and  N_19
    2  A    between atoms: C_1  and  C_21
    3  A    between atoms: C_5  and  O_26
    4  A    between atoms: C_7  and  C_13
    5  A    between atoms: C_11  and  O_29
    6  A    between atoms: C_11  and  C_46
    7  A    between atoms: C_12  and  C_51
    8  A    between atoms: C_13  and  C_41
    9  A    between atoms: C_13  and  O_47
   10  A    between atoms: C_16  and  O_53
   11  A    between atoms: C_17  and  C_38
   12  A    between atoms: C_17  and  O_47
   13  A    between atoms: N_19  and  C_35
   14  A    between atoms: N_20  and  C_21
   15  A    between atoms: N_20  and  C_23
   16  A    between atoms: C_23  and  C_28
   17  A    between atoms: C_23  and  C_44
   18  A    between atoms: O_29  and  C_43
   19  A    between atoms: C_35  and  C_46
   20  A    between atoms: O_37  and  C_62
   21  A    between atoms: C_41  and  C_62
                            x       y       z     vdW  Elec       q    Type
                         _______ _______ _______ _____ _____    ______ ____

>  <TORSDO>
F 21

$$$$
=
 OpenBabel10222416213D

 62 67  0  0  1  0  0  0  0  0999 V2000
  186.3600  177.8140  143.2240 C   0  0  2  0  0  3  0  0  0  0  0  0
  188.5860  177.6920  146.3240 C   0  0  0  0  0  0  0  0  0  0  0  0
  188.1700  178.2450  148.6440 C   0  0  0  0  0  3  0  0  0  0  0  0
  185.9390  178.3490  145.6910 C   0  0  0  0  0  3  0  0  0  0  0  0
  189.4570  177.9050  148.9370 N   0  0  0  0  0  0  0  0  0  0  0  0
  189.9010  177.3530  146.6500 C   0  0  0  0  0  3  0  0  0  0  0  0
  191.7150  177.1080  148.3520 C   0  0  0  0  0  1  0  0  0  0  0  0
  186.3820  178.4640  147.0150 C   0  0  0  0  0  3  0  0  0  0  0  0
  186.8080  177.9070  144.6750 C   0  0  0  0  0  0  0  0  0  0  0  0
  188.1390  177.5930  145.0080 C   0  0  0  0  0  3  0  0  0  0  0  0
  187.7030  178.1360  147.3310 C   0  0  0  0  0  0  0  0  0  0  0  0
  190.3210  177.4660  147.9810 C   0  0  0  0  0  0  0  0  0  0  0  0
  187.4580  177.3430  138.5260 N   0  0  0  0  0  2  0  0  0  0  0  0
  189.3750  177.7200  140.1470 C   0  0  0  0  0  0  0  0  0  0  0  0
  187.8760  178.1140  137.3950 C   0  0  0  0  0  0  0  0  0  0  0  0
  187.9190  177.6050  139.8560 C   0  0  0  0  0  0  0  0  0  0  0  0
  188.8220  177.4430  142.5500 C   0  0  2  0  0  3  0  0  0  0  0  0
  187.4610  178.0590  142.1810 C   0  0  1  0  0  3  0  0  0  0  0  0
  189.7910  177.6930  141.4220 C   0  0  0  0  0  3  0  0  0  0  0  0
  187.0520  177.6810  140.8250 N   0  0  0  0  0  0  0  0  0  0  0  0
  188.3520  179.2730  137.5650 O   0  0  0  0  0  0  0  0  0  0  0  0
  188.7000  176.0650  142.7500 O   0  0  0  0  0  0  0  0  0  0  0  0
  190.0060  175.6070  142.9310 C   0  0  0  0  0  1  0  0  0  0  0  0
  190.2880  177.8280  139.0890 O   0  0  0  0  0  0  0  0  0  0  0  0
  191.4090  176.9680  138.9410 C   0  0  0  0  0  1  0  0  0  0  0  0
  187.7880  177.5320  136.0150 C   0  0  1  0  0  3  0  0  0  0  0  0
  186.6180  177.9750  135.3860 O   0  0  0  0  0  0  0  0  0  0  0  0
  186.1710  176.9050  134.5940 C   0  0  0  0  0  2  0  0  0  0  0  0
  186.0140  175.1970  136.4220 O   0  0  0  0  0  1  0  0  0  0  0  0
  185.3910  175.9320  135.4190 C   0  0  0  0  0  0  0  0  0  0  0  0
  184.1530  175.7970  135.2240 O   0  0  0  0  0  0  0  0  0  0  0  0
  189.0100  177.9800  135.2130 C   0  0  0  0  0  2  0  0  0  0  0  0
  189.8530  176.7870  134.8020 C   0  0  0  0  0  2  0  0  0  0  0  0
  190.0190  174.5830  134.8820 C   0  0  0  0  0  1  0  0  0  0  0  0
  189.5120  175.6820  135.5810 O   0  0  0  0  0  0  0  0  0  0  0  0
  185.1060  178.5210  142.8980 N   0  0  0  0  0  0  0  0  0  0  0  0
  185.2760  179.4000  141.7420 C   0  0  0  0  0  1  0  0  0  0  0  0
  184.7280  179.3300  144.0480 C   0  0  0  0  0  2  0  0  0  0  0  0
  183.2290  179.2020  144.3270 C   0  0  0  0  0  2  0  0  0  0  0  0
  182.5260  178.9070  143.0850 N   0  0  0  0  0  2  0  0  0  0  0  0
  181.1660  179.4370  143.1680 C   0  0  0  0  0  2  0  0  0  0  0  0
  180.1100  178.3480  142.9760 C   0  0  0  0  0  2  0  0  0  0  0  0
  179.3510  178.5320  141.6790 C   0  0  0  0  0  2  0  0  0  0  0  0
  180.1420  179.2850  140.7730 O   0  0  0  0  0  0  0  0  0  0  0  0
  181.9820  179.5570  139.0980 C   0  0  2  0  0  3  0  0  0  0  0  0
  181.7640  176.6460  138.7070 C   0  0  0  0  0  2  0  0  0  0  0  0
  180.8600  177.4140  139.5680 N   0  0  0  0  0  0  0  0  0  0  0  0
  183.0870  178.7120  138.4530 C   0  0  0  0  0  2  0  0  0  0  0  0
  180.9680  178.6910  139.8200 C   0  0  0  0  0  0  0  0  0  0  0  0
  182.4790  177.5400  137.7070 C   0  0  0  0  0  2  0  0  0  0  0  0
  181.7030  181.8550  137.9560 C   0  0  0  0  0  0  0  0  0  0  0  0
  180.8840  182.4000  136.9870 C   0  0  0  0  0  0  0  0  0  0  0  0
  179.6510  183.9910  135.5190 C   0  0  0  0  0  2  0  0  0  0  0  0
  179.3170  182.7770  134.6380 C   0  0  0  0  0  2  0  0  0  0  0  0
  180.3120  180.2620  137.2680 N   0  0  0  0  0  0  0  0  0  0  0  0
  179.0270  181.5380  135.4960 C   0  0  0  0  0  2  0  0  0  0  0  0
  179.7190  179.0450  137.0180 O   0  0  0  0  0  1  0  0  0  0  0  0
  180.9260  183.7550  136.3330 C   0  0  1  0  0  3  0  0  0  0  0  0
  181.0670  184.8610  137.3560 C   0  0  0  0  0  1  0  0  0  0  0  0
  181.3170  180.5330  138.1420 C   0  0  0  0  0  0  0  0  0  0  0  0
  182.7490  182.5120  138.6010 O   0  0  0  0  0  1  0  0  0  0  0  0
  180.0710  181.3780  136.5570 C   0  0  0  0  0  0  0  0  0  0  0  0
  1 36  1  1  0  0  0
  1  9  1  0  0  0  0
  2  6  2  0  0  0  0
  2 11  1  0  0  0  0
  3  5  1  0  0  0  0
  4  8  2  0  0  0  0
  6 12  1  0  0  0  0
  8 11  1  0  0  0  0
  9 10  2  0  0  0  0
  9  4  1  0  0  0  0
 10  2  1  0  0  0  0
 11  3  2  0  0  0  0
 12  7  1  0  0  0  0
 12  5  2  0  0  0  0
 13 16  1  0  0  0  0
 14 19  2  0  0  0  0
 15 21  2  0  0  0  0
 15 13  1  0  0  0  0
 16 14  1  0  0  0  0
 16 20  2  0  0  0  0
 17 22  1  6  0  0  0
 18 17  1  0  0  0  0
 18  1  1  1  0  0  0
 19 17  1  0  0  0  0
 20 18  1  0  0  0  0
 22 23  1  0  0  0  0
 24 14  1  0  0  0  0
 25 24  1  0  0  0  0
 26 32  1  6  0  0  0
 26 15  1  0  0  0  0
 27 26  1  0  0  0  0
 28 27  1  0  0  0  0
 28 30  1  0  0  0  0
 30 29  1  0  0  0  0
 31 30  2  0  0  0  0
 33 32  1  0  0  0  0
 33 35  1  0  0  0  0
 34 35  1  0  0  0  0
 36 38  1  0  0  0  0
 37 36  1  0  0  0  0
 38 39  1  0  0  0  0
 40 41  1  0  0  0  0
 40 39  1  0  0  0  0
 42 41  1  0  0  0  0
 43 42  1  0  0  0  0
 44 43  1  0  0  0  0
 45 60  1  6  0  0  0
 45 49  1  0  0  0  0
 46 47  1  0  0  0  0
 47 49  2  0  0  0  0
 48 45  1  0  0  0  0
 49 44  1  0  0  0  0
 50 48  1  0  0  0  0
 50 46  1  0  0  0  0
 51 60  2  0  0  0  0
 51 61  1  0  0  0  0
 52 51  1  0  0  0  0
 53 58  1  0  0  0  0
 54 56  1  0  0  0  0
 54 53  1  0  0  0  0
 55 60  1  0  0  0  0
 56 62  1  0  0  0  0
 57 55  1  0  0  0  0
 58 52  1  0  0  0  0
 58 59  1  1  0  0  0
 62 52  2  0  0  0  0
 62 55  1  0  0  0  0
M  END
>  <MODEL>
2

>  <REMARK>
 VINA RESULT:      -5.9      2.339     11.301
  Name = 
  21 active torsions:
  status: ('A' for Active; 'I' for Inactive)
    1  A    between atoms: C_1  and  N_19
    2  A    between atoms: C_1  and  C_21
    3  A    between atoms: C_5  and  O_26
    4  A    between atoms: C_7  and  C_13
    5  A    between atoms: C_11  and  O_29
    6  A    between atoms: C_11  and  C_46
    7  A    between atoms: C_12  and  C_51
    8  A    between atoms: C_13  and  C_41
    9  A    between atoms: C_13  and  O_47
   10  A    between atoms: C_16  and  O_53
   11  A    between atoms: C_17  and  C_38
   12  A    between atoms: C_17  and  O_47
   13  A    between atoms: N_19  and  C_35
   14  A    between atoms: N_20  and  C_21
   15  A    between atoms: N_20  and  C_23
   16  A    between atoms: C_23  and  C_28
   17  A    between atoms: C_23  and  C_44
   18  A    between atoms: O_29  and  C_43
   19  A    between atoms: C_35  and  C_46
   20  A    between atoms: O_37  and  C_62
   21  A    between atoms: C_41  and  C_62
                            x       y       z     vdW  Elec       q    Type
                         _______ _______ _______ _____ _____    ______ ____

>  <TORSDO>
F 21

$$$$
=
 OpenBabel10222416213D

 62 67  0  0  1  0  0  0  0  0999 V2000
  183.1330  178.7140  138.4470 C   0  0  2  0  0  3  0  0  0  0  0  0
  181.0260  181.7920  137.6300 C   0  0  0  0  0  0  0  0  0  0  0  0
  179.1990  182.1450  136.0800 C   0  0  0  0  0  3  0  0  0  0  0  0
  181.1710  179.1070  136.8510 C   0  0  0  0  0  3  0  0  0  0  0  0
  179.1320  183.4440  136.4830 N   0  0  0  0  0  0  0  0  0  0  0  0
  180.9380  183.1300  138.0230 C   0  0  0  0  0  3  0  0  0  0  0  0
  179.8550  185.3740  137.8360 C   0  0  0  0  0  1  0  0  0  0  0  0
  180.2160  179.9460  136.2640 C   0  0  0  0  0  3  0  0  0  0  0  0
  182.0590  179.5970  137.8270 C   0  0  0  0  0  0  0  0  0  0  0  0
  181.9820  180.9530  138.1980 C   0  0  0  0  0  3  0  0  0  0  0  0
  180.1430  181.2860  136.6530 C   0  0  0  0  0  0  0  0  0  0  0  0
  179.9690  183.9480  137.4320 C   0  0  0  0  0  0  0  0  0  0  0  0
  184.3500  174.2640  136.9590 N   0  0  0  0  0  2  0  0  0  0  0  0
  185.8700  176.1830  136.2860 C   0  0  0  0  0  0  0  0  0  0  0  0
  184.3730  173.4480  135.7830 C   0  0  0  0  0  0  0  0  0  0  0  0
  184.6320  175.6680  136.9340 C   0  0  0  0  0  0  0  0  0  0  0  0
  185.4940  178.3240  137.4830 C   0  0  2  0  0  3  0  0  0  0  0  0
  184.0030  177.9400  137.4460 C   0  0  1  0  0  3  0  0  0  0  0  0
  186.2450  177.4510  136.5100 C   0  0  0  0  0  3  0  0  0  0  0  0
  183.8210  176.4890  137.5390 N   0  0  0  0  0  0  0  0  0  0  0  0
  184.2600  173.9840  134.6430 O   0  0  0  0  0  0  0  0  0  0  0  0
  186.0180  178.1340  138.7650 O   0  0  0  0  0  0  0  0  0  0  0  0
  187.3950  178.0130  138.5790 C   0  0  0  0  0  1  0  0  0  0  0  0
  186.6360  175.3320  135.4790 O   0  0  0  0  0  0  0  0  0  0  0  0
  187.7450  175.7810  134.7130 C   0  0  0  0  0  1  0  0  0  0  0  0
  184.5700  171.9650  135.9010 C   0  0  1  0  0  3  0  0  0  0  0  0
  185.8420  171.6940  136.4190 O   0  0  0  0  0  0  0  0  0  0  0  0
  186.7370  171.8260  135.3450 C   0  0  0  0  0  2  0  0  0  0  0  0
  188.3290  172.8140  137.0110 O   0  0  0  0  0  1  0  0  0  0  0  0
  188.1230  172.0840  135.8450 C   0  0  0  0  0  0  0  0  0  0  0  0
  189.1110  171.6120  135.2210 O   0  0  0  0  0  0  0  0  0  0  0  0
  183.4990  171.3990  136.8330 C   0  0  0  0  0  2  0  0  0  0  0  0
  182.2520  171.0190  136.0550 C   0  0  0  0  0  2  0  0  0  0  0  0
  180.6140  172.4950  136.2230 C   0  0  0  0  0  1  0  0  0  0  0  0
  181.1190  171.3300  136.8060 O   0  0  0  0  0  0  0  0  0  0  0  0
  182.6930  177.8760  139.5790 N   0  0  0  0  0  0  0  0  0  0  0  0
  181.3110  177.4300  139.4060 C   0  0  0  0  0  1  0  0  0  0  0  0
  182.7760  178.6740  140.7940 C   0  0  0  0  0  2  0  0  0  0  0  0
  181.3780  179.0570  141.2840 C   0  0  0  0  0  2  0  0  0  0  0  0
  181.2280  178.6710  142.6810 N   0  0  0  0  0  2  0  0  0  0  0  0
  182.3250  179.2500  143.4560 C   0  0  0  0  0  2  0  0  0  0  0  0
  182.6030  178.4630  144.7380 C   0  0  0  0  0  2  0  0  0  0  0  0
  183.6810  179.1220  145.5720 C   0  0  0  0  0  2  0  0  0  0  0  0
  184.9020  178.4180  145.4050 O   0  0  0  0  0  0  0  0  0  0  0  0
  186.5090  177.2550  143.8780 C   0  0  2  0  0  3  0  0  0  0  0  0
  186.1330  179.5590  142.0820 C   0  0  0  0  0  2  0  0  0  0  0  0
  185.5430  179.4760  143.4210 N   0  0  0  0  0  0  0  0  0  0  0  0
  186.8620  177.2220  142.3870 C   0  0  0  0  0  2  0  0  0  0  0  0
  185.6290  178.4440  144.2160 C   0  0  0  0  0  0  0  0  0  0  0  0
  187.3010  178.5980  141.9240 C   0  0  0  0  0  2  0  0  0  0  0  0
  189.0110  176.8770  144.3860 C   0  0  0  0  0  0  0  0  0  0  0  0
  189.8250  176.9140  145.5020 C   0  0  0  0  0  0  0  0  0  0  0  0
  191.7270  176.6190  147.0820 C   0  0  0  0  0  2  0  0  0  0  0  0
  191.0260  177.6540  147.9760 C   0  0  0  0  0  2  0  0  0  0  0  0
  187.7440  177.4140  146.1340 N   0  0  0  0  0  0  0  0  0  0  0  0
  189.5040  177.4600  147.9540 C   0  0  0  0  0  2  0  0  0  0  0  0
  186.7120  177.8610  146.9280 O   0  0  0  0  0  1  0  0  0  0  0  0
  191.3190  176.7810  145.6160 C   0  0  1  0  0  3  0  0  0  0  0  0
  191.8330  175.5950  144.8300 C   0  0  0  0  0  1  0  0  0  0  0  0
  187.7140  177.1600  144.7980 C   0  0  0  0  0  0  0  0  0  0  0  0
  189.4320  176.6310  143.0810 O   0  0  0  0  0  1  0  0  0  0  0  0
  189.0160  177.2910  146.5490 C   0  0  0  0  0  0  0  0  0  0  0  0
  1 36  1  1  0  0  0
  2  6  1  0  0  0  0
  2 10  1  0  0  0  0
  3  5  2  0  0  0  0
  3 11  1  0  0  0  0
  4  9  1  0  0  0  0
  5 12  1  0  0  0  0
  8 11  1  0  0  0  0
  8  4  2  0  0  0  0
  9 10  2  0  0  0  0
  9  1  1  0  0  0  0
 11  2  2  0  0  0  0
 12  7  1  0  0  0  0
 12  6  2  0  0  0  0
 14 19  2  0  0  0  0
 14 16  1  0  0  0  0
 15 26  1  0  0  0  0
 15 13  1  0  0  0  0
 16 13  1  0  0  0  0
 16 20  2  0  0  0  0
 17 22  1  1  0  0  0
 18 17  1  0  0  0  0
 18 20  1  0  0  0  0
 18  1  1  1  0  0  0
 19 17  1  0  0  0  0
 21 15  2  0  0  0  0
 23 22  1  0  0  0  0
 24 14  1  0  0  0  0
 25 24  1  0  0  0  0
 26 27  1  0  0  0  0
 26 32  1  1  0  0  0
 28 30  1  0  0  0  0
 28 27  1  0  0  0  0
 30 29  1  0  0  0  0
 31 30  2  0  0  0  0
 33 35  1  0  0  0  0
 33 32  1  0  0  0  0
 34 35  1  0  0  0  0
 36 38  1  0  0  0  0
 37 36  1  0  0  0  0
 38 39  1  0  0  0  0
 39 40  1  0  0  0  0
 40 41  1  0  0  0  0
 41 42  1  0  0  0  0
 42 43  1  0  0  0  0
 44 43  1  0  0  0  0
 45 49  1  0  0  0  0
 45 60  1  1  0  0  0
 46 47  1  0  0  0  0
 47 49  2  0  0  0  0
 48 45  1  0  0  0  0
 49 44  1  0  0  0  0
 50 46  1  0  0  0  0
 50 48  1  0  0  0  0
 51 60  2  0  0  0  0
 51 52  1  0  0  0  0
 52 58  1  0  0  0  0
 52 62  2  0  0  0  0
 53 54  1  0  0  0  0
 55 62  1  0  0  0  0
 55 57  1  0  0  0  0
 56 54  1  0  0  0  0
 58 59  1  6  0  0  0
 58 53  1  0  0  0  0
 60 55  1  0  0  0  0
 61 51  1  0  0  0  0
 62 56  1  0  0  0  0
M  END
>  <MODEL>
3

>  <REMARK>
 VINA RESULT:      -5.8      3.074      8.259
  Name = 
  21 active torsions:
  status: ('A' for Active; 'I' for Inactive)
    1  A    between atoms: C_1  and  N_19
    2  A    between atoms: C_1  and  C_21
    3  A    between atoms: C_5  and  O_26
    4  A    between atoms: C_7  and  C_13
    5  A    between atoms: C_11  and  O_29
    6  A    between atoms: C_11  and  C_46
    7  A    between atoms: C_12  and  C_51
    8  A    between atoms: C_13  and  C_41
    9  A    between atoms: C_13  and  O_47
   10  A    between atoms: C_16  and  O_53
   11  A    between atoms: C_17  and  C_38
   12  A    between atoms: C_17  and  O_47
   13  A    between atoms: N_19  and  C_35
   14  A    between atoms: N_20  and  C_21
   15  A    between atoms: N_20  and  C_23
   16  A    between atoms: C_23  and  C_28
   17  A    between atoms: C_23  and  C_44
   18  A    between atoms: O_29  and  C_43
   19  A    between atoms: C_35  and  C_46
   20  A    between atoms: O_37  and  C_62
   21  A    between atoms: C_41  and  C_62
                            x       y       z     vdW  Elec       q    Type
                         _______ _______ _______ _____ _____    ______ ____

>  <TORSDO>
F 21

$$$$
=
 OpenBabel10222416213D

 62 67  0  0  1  0  0  0  0  0999 V2000
  190.5280  177.0510  138.3020 C   0  0  2  0  0  3  0  0  0  0  0  0
  191.8950  174.0430  136.3870 C   0  0  0  0  0  0  0  0  0  0  0  0
  194.0370  173.6210  135.3410 C   0  0  0  0  0  3  0  0  0  0  0  0
  192.7970  176.5580  137.2240 C   0  0  0  0  0  3  0  0  0  0  0  0
  193.5880  172.3940  134.9560 N   0  0  0  0  0  0  0  0  0  0  0  0
  191.4570  172.7810  135.9780 C   0  0  0  0  0  3  0  0  0  0  0  0
  191.8900  170.6130  134.8130 C   0  0  0  0  0  1  0  0  0  0  0  0
  193.6520  175.7250  136.4920 C   0  0  0  0  0  3  0  0  0  0  0  0
  191.4880  176.1450  137.5440 C   0  0  0  0  0  0  0  0  0  0  0  0
  191.0470  174.8830  137.1040 C   0  0  0  0  0  3  0  0  0  0  0  0
  193.2030  174.4700  136.0750 C   0  0  0  0  0  0  0  0  0  0  0  0
  192.3320  171.9600  135.2570 C   0  0  0  0  0  0  0  0  0  0  0  0
  188.0950  178.2830  142.3090 N   0  0  0  0  0  2  0  0  0  0  0  0
  190.1500  176.8190  142.5880 C   0  0  0  0  0  0  0  0  0  0  0  0
  187.2100  177.7330  143.2900 C   0  0  0  0  0  0  0  0  0  0  0  0
  189.1680  177.5340  141.7270 C   0  0  0  0  0  0  0  0  0  0  0  0
  191.6260  176.6470  140.6010 C   0  0  2  0  0  3  0  0  0  0  0  0
  190.3240  176.6960  139.7820 C   0  0  1  0  0  3  0  0  0  0  0  0
  191.2850  176.3590  142.0410 C   0  0  0  0  0  3  0  0  0  0  0  0
  189.3130  177.5360  140.4320 N   0  0  0  0  0  0  0  0  0  0  0  0
  187.0910  176.4790  143.3980 O   0  0  0  0  0  0  0  0  0  0  0  0
  192.2990  177.8710  140.5270 O   0  0  0  0  0  0  0  0  0  0  0  0
  193.6370  177.5360  140.3110 C   0  0  0  0  0  1  0  0  0  0  0  0
  189.8870  176.6590  143.9550 O   0  0  0  0  0  0  0  0  0  0  0  0
  190.8560  176.9060  144.9650 C   0  0  0  0  0  1  0  0  0  0  0  0
  186.4540  178.6420  144.2150 C   0  0  1  0  0  3  0  0  0  0  0  0
  185.3560  179.1960  143.5450 O   0  0  0  0  0  0  0  0  0  0  0  0
  184.2150  178.6070  144.1120 C   0  0  0  0  0  2  0  0  0  0  0  0
  181.7970  179.0610  143.6310 O   0  0  0  0  0  1  0  0  0  0  0  0
  183.0570  178.6930  143.1710 C   0  0  0  0  0  0  0  0  0  0  0  0
  183.2290  178.4570  141.9440 O   0  0  0  0  0  0  0  0  0  0  0  0
  185.9740  177.8320  145.4180 C   0  0  0  0  0  2  0  0  0  0  0  0
  186.3390  178.5280  146.7170 C   0  0  0  0  0  2  0  0  0  0  0  0
  188.3560  177.7750  147.2270 C   0  0  0  0  0  1  0  0  0  0  0  0
  187.0050  177.6340  147.5550 O   0  0  0  0  0  0  0  0  0  0  0  0
  189.2590  177.3520  137.6130 N   0  0  0  0  0  0  0  0  0  0  0  0
  188.2350  176.3560  137.9240 C   0  0  0  0  0  1  0  0  0  0  0  0
  189.5050  177.3350  136.1770 C   0  0  0  0  0  2  0  0  0  0  0  0
  188.1950  177.5060  135.4040 C   0  0  0  0  0  2  0  0  0  0  0  0
  187.9490  176.3200  134.5950 N   0  0  0  0  0  2  0  0  0  0  0  0
  186.5810  175.8590  134.8280 C   0  0  0  0  0  2  0  0  0  0  0  0
  185.5800  177.0140  134.8500 C   0  0  0  0  0  2  0  0  0  0  0  0
  184.9610  177.1900  136.2210 C   0  0  0  0  0  2  0  0  0  0  0  0
  184.4460  175.9450  136.6670 O   0  0  0  0  0  0  0  0  0  0  0  0
  182.1020  176.4250  135.9290 C   0  0  2  0  0  3  0  0  0  0  0  0
  181.8560  173.5150  135.5490 C   0  0  0  0  0  2  0  0  0  0  0  0
  183.0420  174.1550  136.1250 N   0  0  0  0  0  0  0  0  0  0  0  0
  181.0120  175.7820  135.0650 C   0  0  0  0  0  2  0  0  0  0  0  0
  183.2150  175.4440  136.2440 C   0  0  0  0  0  0  0  0  0  0  0  0
  180.6380  174.4220  135.6240 C   0  0  0  0  0  2  0  0  0  0  0  0
  181.2230  178.4470  137.2730 C   0  0  0  0  0  0  0  0  0  0  0  0
  180.7560  178.6730  138.5530 C   0  0  0  0  0  0  0  0  0  0  0  0
  180.0450  179.7590  140.6790 C   0  0  0  0  0  2  0  0  0  0  0  0
  179.4300  178.4020  141.0590 C   0  0  0  0  0  2  0  0  0  0  0  0
  181.2800  176.5120  138.3700 N   0  0  0  0  0  0  0  0  0  0  0  0
  180.3250  177.2440  140.5990 C   0  0  0  0  0  2  0  0  0  0  0  0
  181.3430  175.1720  138.6800 O   0  0  0  0  0  1  0  0  0  0  0  0
  180.1580  179.9140  139.1600 C   0  0  1  0  0  3  0  0  0  0  0  0
  180.9900  181.1390  138.8530 C   0  0  0  0  0  1  0  0  0  0  0  0
  181.5730  177.1050  137.1810 C   0  0  0  0  0  0  0  0  0  0  0  0
  181.2950  179.3940  136.2530 O   0  0  0  0  0  1  0  0  0  0  0  0
  180.7650  177.4510  139.1830 C   0  0  0  0  0  0  0  0  0  0  0  0
  1 36  1  6  0  0  0
  2 10  1  0  0  0  0
  3 11  1  0  0  0  0
  4  9  1  0  0  0  0
  5 12  1  0  0  0  0
  5  3  2  0  0  0  0
  6  2  1  0  0  0  0
  7 12  1  0  0  0  0
  8  4  2  0  0  0  0
  9  1  1  0  0  0  0
 10  9  2  0  0  0  0
 11  2  2  0  0  0  0
 11  8  1  0  0  0  0
 12  6  2  0  0  0  0
 13 15  1  0  0  0  0
 14 24  1  0  0  0  0
 15 21  2  0  0  0  0
 15 26  1  0  0  0  0
 16 13  1  0  0  0  0
 16 14  1  0  0  0  0
 17 22  1  1  0  0  0
 17 19  1  0  0  0  0
 18  1  1  6  0  0  0
 18 20  1  0  0  0  0
 18 17  1  0  0  0  0
 19 14  2  0  0  0  0
 20 16  2  0  0  0  0
 23 22  1  0  0  0  0
 24 25  1  0  0  0  0
 26 32  1  1  0  0  0
 27 28  1  0  0  0  0
 27 26  1  0  0  0  0
 30 29  1  0  0  0  0
 30 28  1  0  0  0  0
 31 30  2  0  0  0  0
 32 33  1  0  0  0  0
 33 35  1  0  0  0  0
 34 35  1  0  0  0  0
 36 37  1  0  0  0  0
 38 36  1  0  0  0  0
 39 38  1  0  0  0  0
 40 41  1  0  0  0  0
 40 39  1  0  0  0  0
 41 42  1  0  0  0  0
 42 43  1  0  0  0  0
 43 44  1  0  0  0  0
 45 49  1  0  0  0  0
 45 60  1  1  0  0  0
 46 50  1  0  0  0  0
 46 47  1  0  0  0  0
 47 49  2  0  0  0  0
 48 50  1  0  0  0  0
 48 45  1  0  0  0  0
 49 44  1  0  0  0  0
 51 52  1  0  0  0  0
 52 58  1  0  0  0  0
 52 62  2  0  0  0  0
 53 54  1  0  0  0  0
 55 57  1  0  0  0  0
 55 62  1  0  0  0  0
 56 54  1  0  0  0  0
 58 59  1  1  0  0  0
 58 53  1  0  0  0  0
 60 51  2  0  0  0  0
 60 55  1  0  0  0  0
 61 51  1  0  0  0  0
 62 56  1  0  0  0  0
M  END
>  <MODEL>
4

>  <REMARK>
 VINA RESULT:      -5.7      2.419     10.280
  Name = 
  21 active torsions:
  status: ('A' for Active; 'I' for Inactive)
    1  A    between atoms: C_1  and  N_19
    2  A    between atoms: C_1  and  C_21
    3  A    between atoms: C_5  and  O_26
    4  A    between atoms: C_7  and  C_13
    5  A    between atoms: C_11  and  O_29
    6  A    between atoms: C_11  and  C_46
    7  A    between atoms: C_12  and  C_51
    8  A    between atoms: C_13  and  C_41
    9  A    between atoms: C_13  and  O_47
   10  A    between atoms: C_16  and  O_53
   11  A    between atoms: C_17  and  C_38
   12  A    between atoms: C_17  and  O_47
   13  A    between atoms: N_19  and  C_35
   14  A    between atoms: N_20  and  C_21
   15  A    between atoms: N_20  and  C_23
   16  A    between atoms: C_23  and  C_28
   17  A    between atoms: C_23  and  C_44
   18  A    between atoms: O_29  and  C_43
   19  A    between atoms: C_35  and  C_46
   20  A    between atoms: O_37  and  C_62
   21  A    between atoms: C_41  and  C_62
                            x       y       z     vdW  Elec       q    Type
                         _______ _______ _______ _____ _____    ______ ____

>  <TORSDO>
F 21

$$$$
=
 OpenBabel10222416213D

 62 67  0  0  1  0  0  0  0  0999 V2000
  182.3260  178.2080  139.7310 C   0  0  2  0  0  3  0  0  0  0  0  0
  181.0450  181.4110  138.0940 C   0  0  0  0  0  0  0  0  0  0  0  0
  178.9520  181.9530  137.0040 C   0  0  0  0  0  3  0  0  0  0  0  0
  180.1070  178.8250  138.6130 C   0  0  0  0  0  3  0  0  0  0  0  0
  179.4180  183.2120  136.7750 N   0  0  0  0  0  0  0  0  0  0  0  0
  181.5010  182.7080  137.8420 C   0  0  0  0  0  3  0  0  0  0  0  0
  181.1210  184.9910  136.9000 C   0  0  0  0  0  1  0  0  0  0  0  0
  179.2860  179.7350  137.9380 C   0  0  0  0  0  3  0  0  0  0  0  0
  181.4000  179.1940  139.0330 C   0  0  0  0  0  0  0  0  0  0  0  0
  181.8610  180.4940  138.7530 C   0  0  0  0  0  3  0  0  0  0  0  0
  179.7530  181.0260  137.6790 C   0  0  0  0  0  0  0  0  0  0  0  0
  180.6590  183.6050  137.1760 C   0  0  0  0  0  0  0  0  0  0  0  0
  185.7370  177.2220  143.0320 N   0  0  0  0  0  2  0  0  0  0  0  0
  184.0000  178.9750  143.6270 C   0  0  0  0  0  0  0  0  0  0  0  0
  186.9220  177.7760  143.6110 C   0  0  0  0  0  0  0  0  0  0  0  0
  184.6080  178.0210  142.6590 C   0  0  0  0  0  0  0  0  0  0  0  0
  182.0130  179.0690  142.1430 C   0  0  2  0  0  3  0  0  0  0  0  0
  182.9980  178.7320  141.0090 C   0  0  1  0  0  3  0  0  0  0  0  0
  182.7980  179.5040  143.3550 C   0  0  0  0  0  3  0  0  0  0  0  0
  184.0800  177.8610  141.4790 N   0  0  0  0  0  0  0  0  0  0  0  0
  187.1780  179.0060  143.4640 O   0  0  0  0  0  0  0  0  0  0  0  0
  181.2440  177.9500  142.4740 O   0  0  0  0  0  0  0  0  0  0  0  0
  179.9200  178.3870  142.4050 C   0  0  0  0  0  1  0  0  0  0  0  0
  184.6760  179.2840  144.8150 O   0  0  0  0  0  0  0  0  0  0  0  0
  184.4000  178.6450  146.0530 C   0  0  0  0  0  1  0  0  0  0  0  0
  187.8370  176.9090  144.4250 C   0  0  1  0  0  3  0  0  0  0  0  0
  188.7590  176.2710  143.5850 O   0  0  0  0  0  0  0  0  0  0  0  0
  189.6390  177.2700  143.1400 C   0  0  0  0  0  2  0  0  0  0  0  0
  192.0640  177.8490  143.4010 O   0  0  0  0  0  0  0  0  0  0  0  0
  191.0550  176.8930  143.4400 C   0  0  0  0  0  0  0  0  0  0  0  0
  191.3320  175.7050  143.7590 O   0  0  0  0  0  1  0  0  0  0  0  0
  188.5760  177.7860  145.4350 C   0  0  0  0  0  2  0  0  0  0  0  0
  187.8310  177.8320  146.7570 C   0  0  0  0  0  2  0  0  0  0  0  0
  189.7680  177.3040  147.6840 C   0  0  0  0  0  1  0  0  0  0  0  0
  188.7050  178.2070  147.7750 O   0  0  0  0  0  0  0  0  0  0  0  0
  183.2660  177.4860  138.8530 N   0  0  0  0  0  0  0  0  0  0  0  0
  184.2460  178.3950  138.2610 C   0  0  0  0  0  1  0  0  0  0  0  0
  182.5010  176.8630  137.7820 C   0  0  0  0  0  2  0  0  0  0  0  0
  182.8960  175.3930  137.6230 C   0  0  0  0  0  2  0  0  0  0  0  0
  182.9910  175.0650  136.2060 N   0  0  0  0  0  2  0  0  0  0  0  0
  183.8690  173.9070  136.0430 C   0  0  0  0  0  2  0  0  0  0  0  0
  185.2730  174.3100  135.5890 C   0  0  0  0  0  2  0  0  0  0  0  0
  185.6700  175.6620  136.1420 C   0  0  0  0  0  2  0  0  0  0  0  0
  187.0820  175.7960  136.0900 O   0  0  0  0  0  0  0  0  0  0  0  0
  189.1240  177.1900  136.4850 C   0  0  2  0  0  3  0  0  0  0  0  0
  187.8750  177.9030  139.0550 C   0  0  0  0  0  2  0  0  0  0  0  0
  187.3050  176.9230  138.1270 N   0  0  0  0  0  0  0  0  0  0  0  0
  189.5410  178.4120  137.3100 C   0  0  0  0  0  2  0  0  0  0  0  0
  187.7920  176.6330  136.9500 C   0  0  0  0  0  0  0  0  0  0  0  0
  189.3540  178.1330  138.7890 C   0  0  0  0  0  2  0  0  0  0  0  0
  191.2720  175.9890  137.2650 C   0  0  0  0  0  0  0  0  0  0  0  0
  191.9910  174.8730  136.8840 C   0  0  0  0  0  0  0  0  0  0  0  0
  193.7900  173.1750  136.5920 C   0  0  0  0  0  2  0  0  0  0  0  0
  192.7050  172.2610  136.0020 C   0  0  0  0  0  2  0  0  0  0  0  0
  190.2230  175.0620  135.5350 N   0  0  0  0  0  0  0  0  0  0  0  0
  191.7230  173.0600  135.1350 C   0  0  0  0  0  2  0  0  0  0  0  0
  189.2780  174.7160  134.5960 O   0  0  0  0  0  1  0  0  0  0  0  0
  193.1860  174.2240  137.5300 C   0  0  1  0  0  3  0  0  0  0  0  0
  194.2490  175.2410  137.8790 C   0  0  0  0  0  1  0  0  0  0  0  0
  190.1910  176.1120  136.3990 C   0  0  0  0  0  0  0  0  0  0  0  0
  191.5670  176.8170  138.3460 O   0  0  0  0  0  1  0  0  0  0  0  0
  191.2900  174.3050  135.8460 C   0  0  0  0  0  0  0  0  0  0  0  0
  1 36  1  6  0  0  0
  2 10  1  0  0  0  0
  3 11  1  0  0  0  0
  4  9  1  0  0  0  0
  5  3  2  0  0  0  0
  5 12  1  0  0  0  0
  6  2  1  0  0  0  0
  7 12  1  0  0  0  0
  8  4  2  0  0  0  0
  9  1  1  0  0  0  0
 10  9  2  0  0  0  0
 11  8  1  0  0  0  0
 11  2  2  0  0  0  0
 12  6  2  0  0  0  0
 13 15  1  0  0  0  0
 14 24  1  0  0  0  0
 15 26  1  0  0  0  0
 16 13  1  0  0  0  0
 16 14  1  0  0  0  0
 17 22  1  1  0  0  0
 17 19  1  0  0  0  0
 18  1  1  6  0  0  0
 18 20  1  0  0  0  0
 18 17  1  0  0  0  0
 19 14  2  0  0  0  0
 20 16  2  0  0  0  0
 21 15  2  0  0  0  0
 23 22  1  0  0  0  0
 24 25  1  0  0  0  0
 26 32  1  1  0  0  0
 27 26  1  0  0  0  0
 28 30  1  0  0  0  0
 28 27  1  0  0  0  0
 29 30  2  0  0  0  0
 30 31  1  0  0  0  0
 32 33  1  0  0  0  0
 33 35  1  0  0  0  0
 34 35  1  0  0  0  0
 37 36  1  0  0  0  0
 38 36  1  0  0  0  0
 39 38  1  0  0  0  0
 40 39  1  0  0  0  0
 41 40  1  0  0  0  0
 42 41  1  0  0  0  0
 42 43  1  0  0  0  0
 44 43  1  0  0  0  0
 44 49  1  0  0  0  0
 45 60  1  1  0  0  0
 45 49  1  0  0  0  0
 45 48  1  0  0  0  0
 47 46  1  0  0  0  0
 48 50  1  0  0  0  0
 49 47  2  0  0  0  0
 50 46  1  0  0  0  0
 51 61  1  0  0  0  0
 52 51  1  0  0  0  0
 52 58  1  0  0  0  0
 53 58  1  0  0  0  0
 54 53  1  0  0  0  0
 55 62  1  0  0  0  0
 55 60  1  0  0  0  0
 56 62  1  0  0  0  0
 56 54  1  0  0  0  0
 57 55  1  0  0  0  0
 58 59  1  6  0  0  0
 60 51  2  0  0  0  0
 62 52  2  0  0  0  0
M  END
>  <MODEL>
5

>  <REMARK>
 VINA RESULT:      -5.6      1.752      2.711
  Name = 
  21 active torsions:
  status: ('A' for Active; 'I' for Inactive)
    1  A    between atoms: C_1  and  N_19
    2  A    between atoms: C_1  and  C_21
    3  A    between atoms: C_5  and  O_26
    4  A    between atoms: C_7  and  C_13
    5  A    between atoms: C_11  and  O_29
    6  A    between atoms: C_11  and  C_46
    7  A    between atoms: C_12  and  C_51
    8  A    between atoms: C_13  and  C_41
    9  A    between atoms: C_13  and  O_47
   10  A    between atoms: C_16  and  O_53
   11  A    between atoms: C_17  and  C_38
   12  A    between atoms: C_17  and  O_47
   13  A    between atoms: N_19  and  C_35
   14  A    between atoms: N_20  and  C_21
   15  A    between atoms: N_20  and  C_23
   16  A    between atoms: C_23  and  C_28
   17  A    between atoms: C_23  and  C_44
   18  A    between atoms: O_29  and  C_43
   19  A    between atoms: C_35  and  C_46
   20  A    between atoms: O_37  and  C_62
   21  A    between atoms: C_41  and  C_62
                            x       y       z     vdW  Elec       q    Type
                         _______ _______ _______ _____ _____    ______ ____

>  <TORSDO>
F 21

$$$$
=
 OpenBabel10222416213D

 62 67  0  0  1  0  0  0  0  0999 V2000
  184.2860  178.9770  140.4610 C   0  0  2  0  0  3  0  0  0  0  0  0
  187.5840  177.8960  138.8700 C   0  0  0  0  0  0  0  0  0  0  0  0
  188.2270  177.5080  136.5680 C   0  0  0  0  0  3  0  0  0  0  0  0
  185.0070  178.6010  138.0340 C   0  0  0  0  0  3  0  0  0  0  0  0
  189.4810  177.1840  136.9910 N   0  0  0  0  0  0  0  0  0  0  0  0
  188.8770  177.5550  139.2780 C   0  0  0  0  0  3  0  0  0  0  0  0
  191.2040  176.8380  138.7190 C   0  0  0  0  0  1  0  0  0  0  0  0
  185.9660  178.2330  137.0820 C   0  0  0  0  0  3  0  0  0  0  0  0
  185.3240  178.6210  139.4060 C   0  0  0  0  0  0  0  0  0  0  0  0
  186.6200  178.2510  139.8100 C   0  0  0  0  0  3  0  0  0  0  0  0
  187.2530  177.8810  137.4990 C   0  0  0  0  0  0  0  0  0  0  0  0
  189.8220  177.2010  138.3090 C   0  0  0  0  0  0  0  0  0  0  0  0
  187.3030  177.2030  143.8150 N   0  0  0  0  0  2  0  0  0  0  0  0
  185.5750  178.9020  144.5720 C   0  0  0  0  0  0  0  0  0  0  0  0
  188.4400  177.5730  144.6000 C   0  0  0  0  0  0  0  0  0  0  0  0
  186.2470  178.1170  143.4990 C   0  0  0  0  0  0  0  0  0  0  0  0
  183.7560  179.3810  142.9530 C   0  0  2  0  0  3  0  0  0  0  0  0
  184.8410  179.2130  141.8740 C   0  0  1  0  0  3  0  0  0  0  0  0
  184.4260  179.5370  144.2950 C   0  0  0  0  0  3  0  0  0  0  0  0
  185.8370  178.2120  142.2660 N   0  0  0  0  0  0  0  0  0  0  0  0
  188.7520  178.7930  144.7190 O   0  0  0  0  0  0  0  0  0  0  0  0
  182.9190  178.2620  142.9870 O   0  0  0  0  0  0  0  0  0  0  0  0
  181.9240  178.5820  143.9120 C   0  0  0  0  0  1  0  0  0  0  0  0
  186.1360  178.9440  145.8550 O   0  0  0  0  0  0  0  0  0  0  0  0
  185.5580  178.2890  146.9760 C   0  0  0  0  0  1  0  0  0  0  0  0
  189.2370  176.5200  145.3130 C   0  0  1  0  0  3  0  0  0  0  0  0
  190.5790  176.5930  144.9210 O   0  0  0  0  0  0  0  0  0  0  0  0
  190.5790  176.5570  143.5180 C   0  0  0  0  0  2  0  0  0  0  0  0
  191.7720  178.7570  143.6720 O   0  0  0  0  0  1  0  0  0  0  0  0
  191.5130  177.5870  142.9660 C   0  0  0  0  0  0  0  0  0  0  0  0
  192.0940  177.3790  141.8670 O   0  0  0  0  0  0  0  0  0  0  0  0
  189.1230  176.7530  146.8190 C   0  0  0  0  0  2  0  0  0  0  0  0
  190.4840  177.0470  147.4240 C   0  0  0  0  0  2  0  0  0  0  0  0
  188.9790  178.2620  148.4980 C   0  0  0  0  0  1  0  0  0  0  0  0
  190.3480  177.9840  148.4470 O   0  0  0  0  0  0  0  0  0  0  0  0
  183.0690  178.1430  140.4640 N   0  0  0  0  0  0  0  0  0  0  0  0
  183.2910  176.8740  139.7730 C   0  0  0  0  0  1  0  0  0  0  0  0
  182.0160  178.8720  139.7720 C   0  0  0  0  0  2  0  0  0  0  0  0
  180.6930  178.1060  139.8440 C   0  0  0  0  0  2  0  0  0  0  0  0
  180.1490  177.9440  138.5020 N   0  0  0  0  0  2  0  0  0  0  0  0
  179.7560  176.5490  138.3120 C   0  0  0  0  0  2  0  0  0  0  0  0
  179.1120  176.3130  136.9450 C   0  0  0  0  0  2  0  0  0  0  0  0
  180.1560  176.1650  135.8570 C   0  0  0  0  0  2  0  0  0  0  0  0
  181.0180  175.0840  136.1760 O   0  0  0  0  0  0  0  0  0  0  0  0
  181.2910  172.7980  137.1600 C   0  0  2  0  0  3  0  0  0  0  0  0
  178.9310  172.0630  135.5590 C   0  0  0  0  0  2  0  0  0  0  0  0
  179.5780  173.3760  135.4850 N   0  0  0  0  0  0  0  0  0  0  0  0
  180.4370  171.5590  137.4460 C   0  0  0  0  0  2  0  0  0  0  0  0
  180.5800  173.7610  136.2280 C   0  0  0  0  0  0  0  0  0  0  0  0
  179.8570  171.0150  136.1540 C   0  0  0  0  0  2  0  0  0  0  0  0
  183.8560  173.0890  137.1510 C   0  0  0  0  0  0  0  0  0  0  0  0
  184.9280  172.5080  136.5050 C   0  0  0  0  0  0  0  0  0  0  0  0
  187.1900  172.0500  135.5670 C   0  0  0  0  0  2  0  0  0  0  0  0
  186.6920  170.6190  135.3070 C   0  0  0  0  0  2  0  0  0  0  0  0
  183.0610  171.5100  135.8020 N   0  0  0  0  0  0  0  0  0  0  0  0
  185.2300  170.6210  134.8420 C   0  0  0  0  0  2  0  0  0  0  0  0
  182.2500  170.5770  135.1960 O   0  0  0  0  0  1  0  0  0  0  0  0
  186.4060  172.7160  136.7010 C   0  0  1  0  0  3  0  0  0  0  0  0
  186.7590  174.1860  136.7440 C   0  0  0  0  0  1  0  0  0  0  0  0
  182.6980  172.4800  136.6830 C   0  0  0  0  0  0  0  0  0  0  0  0
  183.9340  174.0850  138.1230 O   0  0  0  0  0  1  0  0  0  0  0  0
  184.4020  171.5120  135.7160 C   0  0  0  0  0  0  0  0  0  0  0  0
  1 36  1  1  0  0  0
  2  6  1  0  0  0  0
  2 10  1  0  0  0  0
  3  5  2  0  0  0  0
  3 11  1  0  0  0  0
  4  9  1  0  0  0  0
  5 12  1  0  0  0  0
  8 11  1  0  0  0  0
  8  4  2  0  0  0  0
  9 10  2  0  0  0  0
  9  1  1  0  0  0  0
 11  2  2  0  0  0  0
 12  7  1  0  0  0  0
 12  6  2  0  0  0  0
 13 15  1  0  0  0  0
 14 24  1  0  0  0  0
 15 21  2  0  0  0  0
 15 26  1  0  0  0  0
 16 13  1  0  0  0  0
 16 14  1  0  0  0  0
 17 22  1  1  0  0  0
 17 19  1  0  0  0  0
 18  1  1  6  0  0  0
 18 20  1  0  0  0  0
 18 17  1  0  0  0  0
 19 14  2  0  0  0  0
 20 16  2  0  0  0  0
 22 23  1  0  0  0  0
 24 25  1  0  0  0  0
 26 32  1  1  0  0  0
 27 26  1  0  0  0  0
 28 27  1  0  0  0  0
 30 28  1  0  0  0  0
 30 29  1  0  0  0  0
 31 30  2  0  0  0  0
 32 33  1  0  0  0  0
 33 35  1  0  0  0  0
 35 34  1  0  0  0  0
 37 36  1  0  0  0  0
 38 39  1  0  0  0  0
 38 36  1  0  0  0  0
 40 39  1  0  0  0  0
 41 40  1  0  0  0  0
 42 41  1  0  0  0  0
 43 44  1  0  0  0  0
 43 42  1  0  0  0  0
 44 49  1  0  0  0  0
 45 60  1  6  0  0  0
 45 48  1  0  0  0  0
 46 50  1  0  0  0  0
 47 46  1  0  0  0  0
 47 49  2  0  0  0  0
 49 45  1  0  0  0  0
 50 48  1  0  0  0  0
 51 61  1  0  0  0  0
 52 58  1  0  0  0  0
 52 51  1  0  0  0  0
 53 58  1  0  0  0  0
 54 53  1  0  0  0  0
 55 60  1  0  0  0  0
 56 54  1  0  0  0  0
 56 62  1  0  0  0  0
 57 55  1  0  0  0  0
 58 59  1  6  0  0  0
 60 51  2  0  0  0  0
 62 55  1  0  0  0  0
 62 52  2  0  0  0  0
M  END
>  <MODEL>
6

>  <REMARK>
 VINA RESULT:      -5.5      3.380      7.443
  Name = 
  21 active torsions:
  status: ('A' for Active; 'I' for Inactive)
    1  A    between atoms: C_1  and  N_19
    2  A    between atoms: C_1  and  C_21
    3  A    between atoms: C_5  and  O_26
    4  A    between atoms: C_7  and  C_13
    5  A    between atoms: C_11  and  O_29
    6  A    between atoms: C_11  and  C_46
    7  A    between atoms: C_12  and  C_51
    8  A    between atoms: C_13  and  C_41
    9  A    between atoms: C_13  and  O_47
   10  A    between atoms: C_16  and  O_53
   11  A    between atoms: C_17  and  C_38
   12  A    between atoms: C_17  and  O_47
   13  A    between atoms: N_19  and  C_35
   14  A    between atoms: N_20  and  C_21
   15  A    between atoms: N_20  and  C_23
   16  A    between atoms: C_23  and  C_28
   17  A    between atoms: C_23  and  C_44
   18  A    between atoms: O_29  and  C_43
   19  A    between atoms: C_35  and  C_46
   20  A    between atoms: O_37  and  C_62
   21  A    between atoms: C_41  and  C_62
                            x       y       z     vdW  Elec       q    Type
                         _______ _______ _______ _____ _____    ______ ____

>  <TORSDO>
F 21

$$$$
=
 OpenBabel10222416213D

 62 67  0  0  1  0  0  0  0  0999 V2000
  185.7560  178.4350  143.2490 C   0  0  2  0  0  3  0  0  0  0  0  0
  188.3140  177.4960  145.9230 C   0  0  0  0  0  0  0  0  0  0  0  0
  188.1650  177.3610  148.3360 C   0  0  0  0  0  3  0  0  0  0  0  0
  185.6180  178.2410  145.7970 C   0  0  0  0  0  3  0  0  0  0  0  0
  189.4740  176.9840  148.3780 N   0  0  0  0  0  0  0  0  0  0  0  0
  189.6550  177.1110  145.9940 C   0  0  0  0  0  3  0  0  0  0  0  0
  191.6460  176.4400  147.3470 C   0  0  0  0  0  1  0  0  0  0  0  0
  186.2080  177.9880  147.0420 C   0  0  0  0  0  3  0  0  0  0  0  0
  186.3650  178.1250  144.6080 C   0  0  0  0  0  0  0  0  0  0  0  0
  187.7220  177.7630  144.6910 C   0  0  0  0  0  3  0  0  0  0  0  0
  187.5530  177.6160  147.1050 C   0  0  0  0  0  0  0  0  0  0  0  0
  190.2220  176.8530  147.2470 C   0  0  0  0  0  0  0  0  0  0  0  0
  182.0100  178.3580  140.1720 N   0  0  0  0  0  2  0  0  0  0  0  0
  181.4970  178.6850  142.6370 C   0  0  0  0  0  0  0  0  0  0  0  0
  180.9250  177.5230  139.7560 C   0  0  0  0  0  0  0  0  0  0  0  0
  182.4600  178.4270  141.5300 C   0  0  0  0  0  0  0  0  0  0  0  0
  183.4440  179.2240  144.0780 C   0  0  2  0  0  3  0  0  0  0  0  0
  184.2310  178.2710  143.1600 C   0  0  1  0  0  3  0  0  0  0  0  0
  181.9690  179.0120  143.8490 C   0  0  0  0  0  3  0  0  0  0  0  0
  183.7330  178.3210  141.7830 N   0  0  0  0  0  0  0  0  0  0  0  0
  180.5770  176.5410  140.4720 O   0  0  0  0  0  0  0  0  0  0  0  0
  183.7630  180.5550  143.7940 O   0  0  0  0  0  0  0  0  0  0  0  0
  184.7710  180.8870  144.7020 C   0  0  0  0  0  1  0  0  0  0  0  0
  180.1200  178.6080  142.3910 O   0  0  0  0  0  0  0  0  0  0  0  0
  179.2960  179.7540  142.2320 C   0  0  0  0  0  1  0  0  0  0  0  0
  180.1770  177.8360  138.4940 C   0  0  1  0  0  3  0  0  0  0  0  0
  181.0130  178.5190  137.6020 O   0  0  0  0  0  0  0  0  0  0  0  0
  180.4920  179.8180  137.4930 C   0  0  0  0  0  2  0  0  0  0  0  0
  180.7410  181.7750  135.9460 O   0  0  0  0  0  1  0  0  0  0  0  0
  180.8110  180.4010  136.1540 C   0  0  0  0  0  0  0  0  0  0  0  0
  181.1740  179.6450  135.2130 O   0  0  0  0  0  0  0  0  0  0  0  0
  179.7050  176.5260  137.8630 C   0  0  0  0  0  2  0  0  0  0  0  0
  180.7110  176.0260  136.8430 C   0  0  0  0  0  2  0  0  0  0  0  0
  182.1930  174.4600  137.3370 C   0  0  0  0  0  1  0  0  0  0  0  0
  180.8570  174.6450  136.9680 O   0  0  0  0  0  0  0  0  0  0  0  0
  186.4540  177.8500  142.0890 N   0  0  0  0  0  0  0  0  0  0  0  0
  187.6050  177.0510  142.5080 C   0  0  0  0  0  1  0  0  0  0  0  0
  186.9260  178.9390  141.2450 C   0  0  0  0  0  2  0  0  0  0  0  0
  188.1950  178.5280  140.4940 C   0  0  0  0  0  2  0  0  0  0  0  0
  187.9670  178.6340  139.0590 N   0  0  0  0  0  2  0  0  0  0  0  0
  189.1490  178.1460  138.3510 C   0  0  0  0  0  2  0  0  0  0  0  0
  190.3000  177.8240  139.3050 C   0  0  0  0  0  2  0  0  0  0  0  0
  190.7390  176.3800  139.1810 C   0  0  0  0  0  2  0  0  0  0  0  0
  192.0010  176.3260  138.5350 O   0  0  0  0  0  0  0  0  0  0  0  0
  191.6780  175.7700  136.1150 C   0  0  2  0  0  3  0  0  0  0  0  0
  193.4930  173.5060  136.6150 C   0  0  0  0  0  2  0  0  0  0  0  0
  193.0160  174.4050  137.6700 N   0  0  0  0  0  0  0  0  0  0  0  0
  192.4110  175.0220  134.9980 C   0  0  0  0  0  2  0  0  0  0  0  0
  192.2690  175.4580  137.4760 C   0  0  0  0  0  0  0  0  0  0  0  0
  192.6040  173.5670  135.3830 C   0  0  0  0  0  2  0  0  0  0  0  0
  189.2750  176.3940  135.4070 C   0  0  0  0  0  0  0  0  0  0  0  0
  188.0070  175.8830  135.6030 C   0  0  0  0  0  0  0  0  0  0  0  0
  185.5350  175.6140  135.7400 C   0  0  0  0  0  2  0  0  0  0  0  0
  185.7990  174.1090  135.9040 C   0  0  0  0  0  2  0  0  0  0  0  0
  189.4660  174.5670  136.6620 N   0  0  0  0  0  0  0  0  0  0  0  0
  187.0360  173.8600  136.7770 C   0  0  0  0  0  2  0  0  0  0  0  0
  189.9610  173.4670  137.3240 O   0  0  0  0  0  1  0  0  0  0  0  0
  186.6890  176.3070  135.0120 C   0  0  1  0  0  3  0  0  0  0  0  0
  186.4970  177.8050  135.1010 C   0  0  0  0  0  1  0  0  0  0  0  0
  190.1700  175.5830  136.0940 C   0  0  0  0  0  0  0  0  0  0  0  0
  189.5920  177.5050  134.6280 O   0  0  0  0  0  1  0  0  0  0  0  0
  188.1700  174.7360  136.3430 C   0  0  0  0  0  0  0  0  0  0  0  0
  1 36  1  6  0  0  0
  1  9  1  0  0  0  0
  2  6  2  0  0  0  0
  2 11  1  0  0  0  0
  3  5  1  0  0  0  0
  4  8  2  0  0  0  0
  6 12  1  0  0  0  0
  8 11  1  0  0  0  0
  9 10  2  0  0  0  0
  9  4  1  0  0  0  0
 10  2  1  0  0  0  0
 11  3  2  0  0  0  0
 12  7  1  0  0  0  0
 12  5  2  0  0  0  0
 13 16  1  0  0  0  0
 14 19  2  0  0  0  0
 15 13  1  0  0  0  0
 15 21  2  0  0  0  0
 16 20  2  0  0  0  0
 16 14  1  0  0  0  0
 17 22  1  6  0  0  0
 18  1  1  6  0  0  0
 18 17  1  0  0  0  0
 19 17  1  0  0  0  0
 20 18  1  0  0  0  0
 22 23  1  0  0  0  0
 24 14  1  0  0  0  0
 25 24  1  0  0  0  0
 26 32  1  6  0  0  0
 26 15  1  0  0  0  0
 27 26  1  0  0  0  0
 28 27  1  0  0  0  0
 29 30  1  0  0  0  0
 30 28  1  0  0  0  0
 31 30  2  0  0  0  0
 33 35  1  0  0  0  0
 33 32  1  0  0  0  0
 35 34  1  0  0  0  0
 36 37  1  0  0  0  0
 38 36  1  0  0  0  0
 39 38  1  0  0  0  0
 40 39  1  0  0  0  0
 41 40  1  0  0  0  0
 41 42  1  0  0  0  0
 43 42  1  0  0  0  0
 44 43  1  0  0  0  0
 45 60  1  1  0  0  0
 45 49  1  0  0  0  0
 46 47  1  0  0  0  0
 48 50  1  0  0  0  0
 48 45  1  0  0  0  0
 49 47  2  0  0  0  0
 49 44  1  0  0  0  0
 50 46  1  0  0  0  0
 51 52  1  0  0  0  0
 51 60  2  0  0  0  0
 52 62  2  0  0  0  0
 53 54  1  0  0  0  0
 54 56  1  0  0  0  0
 55 57  1  0  0  0  0
 58 59  1  1  0  0  0
 58 52  1  0  0  0  0
 58 53  1  0  0  0  0
 60 55  1  0  0  0  0
 61 51  1  0  0  0  0
 62 55  1  0  0  0  0
 62 56  1  0  0  0  0
M  END
>  <MODEL>
7

>  <REMARK>
 VINA RESULT:      -5.5      2.451      8.478
  Name = 
  21 active torsions:
  status: ('A' for Active; 'I' for Inactive)
    1  A    between atoms: C_1  and  N_19
    2  A    between atoms: C_1  and  C_21
    3  A    between atoms: C_5  and  O_26
    4  A    between atoms: C_7  and  C_13
    5  A    between atoms: C_11  and  O_29
    6  A    between atoms: C_11  and  C_46
    7  A    between atoms: C_12  and  C_51
    8  A    between atoms: C_13  and  C_41
    9  A    between atoms: C_13  and  O_47
   10  A    between atoms: C_16  and  O_53
   11  A    between atoms: C_17  and  C_38
   12  A    between atoms: C_17  and  O_47
   13  A    between atoms: N_19  and  C_35
   14  A    between atoms: N_20  and  C_21
   15  A    between atoms: N_20  and  C_23
   16  A    between atoms: C_23  and  C_28
   17  A    between atoms: C_23  and  C_44
   18  A    between atoms: O_29  and  C_43
   19  A    between atoms: C_35  and  C_46
   20  A    between atoms: O_37  and  C_62
   21  A    between atoms: C_41  and  C_62
                            x       y       z     vdW  Elec       q    Type
                         _______ _______ _______ _____ _____    ______ ____

>  <TORSDO>
F 21

$$$$
=
 OpenBabel10222416213D

 62 67  0  0  1  0  0  0  0  0999 V2000
  187.3120  178.5260  140.6170 C   0  0  2  0  0  3  0  0  0  0  0  0
  188.3100  177.5850  144.1800 C   0  0  0  0  0  0  0  0  0  0  0  0
  190.3120  176.5730  145.0930 C   0  0  0  0  0  3  0  0  0  0  0  0
  189.4320  177.4980  141.6170 C   0  0  0  0  0  3  0  0  0  0  0  0
  189.7570  176.6390  146.3350 N   0  0  0  0  0  0  0  0  0  0  0  0
  187.7630  177.6380  145.4650 C   0  0  0  0  0  3  0  0  0  0  0  0
  187.9540  177.2040  147.9190 C   0  0  0  0  0  1  0  0  0  0  0  0
  190.1620  177.0110  142.7080 C   0  0  0  0  0  3  0  0  0  0  0  0
  188.1400  178.0300  141.7940 C   0  0  0  0  0  0  0  0  0  0  0  0
  187.5860  178.0550  143.0870 C   0  0  0  0  0  3  0  0  0  0  0  0
  189.6030  177.0550  143.9880 C   0  0  0  0  0  0  0  0  0  0  0  0
  188.5140  177.1560  146.5430 C   0  0  0  0  0  0  0  0  0  0  0  0
  183.0550  180.1620  138.9730 N   0  0  0  0  0  2  0  0  0  0  0  0
  183.0670  178.9700  141.2140 C   0  0  0  0  0  0  0  0  0  0  0  0
  181.8270  179.6990  138.4030 C   0  0  0  0  0  0  0  0  0  0  0  0
  183.7640  179.4350  139.9830 C   0  0  0  0  0  0  0  0  0  0  0  0
  185.3030  178.6160  142.2330 C   0  0  2  0  0  3  0  0  0  0  0  0
  185.7900  178.4030  140.7880 C   0  0  1  0  0  3  0  0  0  0  0  0
  183.7970  178.5380  142.2540 C   0  0  0  0  0  3  0  0  0  0  0  0
  185.0430  179.2360  139.8420 N   0  0  0  0  0  0  0  0  0  0  0  0
  181.5210  178.4740  138.4780 O   0  0  0  0  0  0  0  0  0  0  0  0
  185.7020  179.8700  142.7060 O   0  0  0  0  0  0  0  0  0  0  0  0
  184.9190  180.0950  143.8390 C   0  0  0  0  0  1  0  0  0  0  0  0
  181.6680  179.0140  141.2790 O   0  0  0  0  0  0  0  0  0  0  0  0
  180.9560  179.2990  142.4740 C   0  0  0  0  0  1  0  0  0  0  0  0
  180.8860  180.6710  137.7540 C   0  0  1  0  0  3  0  0  0  0  0  0
  181.3690  181.9760  137.9100 O   0  0  0  0  0  0  0  0  0  0  0  0
  180.9940  182.6730  136.7500 C   0  0  0  0  0  2  0  0  0  0  0  0
  182.2770  184.6350  137.6380 O   0  0  0  0  0  1  0  0  0  0  0  0
  181.1800  184.1440  136.9380 C   0  0  0  0  0  0  0  0  0  0  0  0
  180.3510  184.9490  136.4330 O   0  0  0  0  0  0  0  0  0  0  0  0
  180.7760  180.3320  136.2680 C   0  0  0  0  0  2  0  0  0  0  0  0
  179.3360  180.0370  135.8870 C   0  0  0  0  0  2  0  0  0  0  0  0
  179.7980  178.1210  134.8840 C   0  0  0  0  0  1  0  0  0  0  0  0
  179.1020  178.6650  135.9670 O   0  0  0  0  0  0  0  0  0  0  0  0
  187.7680  178.0840  139.2860 N   0  0  0  0  0  0  0  0  0  0  0  0
  188.7670  178.9980  138.7340 C   0  0  0  0  0  1  0  0  0  0  0  0
  186.6160  178.0600  138.3950 C   0  0  0  0  0  2  0  0  0  0  0  0
  187.0650  177.9520  136.9360 C   0  0  0  0  0  2  0  0  0  0  0  0
  186.1860  177.0360  136.2220 N   0  0  0  0  0  2  0  0  0  0  0  0
  186.4270  175.6750  136.6990 C   0  0  0  0  0  2  0  0  0  0  0  0
  187.7390  175.1010  136.1650 C   0  0  0  0  0  2  0  0  0  0  0  0
  188.4020  174.1900  137.1770 C   0  0  0  0  0  2  0  0  0  0  0  0
  189.7670  174.0160  136.8320 O   0  0  0  0  0  0  0  0  0  0  0  0
  191.9780  175.0820  136.3400 C   0  0  2  0  0  3  0  0  0  0  0  0
  191.5350  176.6330  138.8040 C   0  0  0  0  0  2  0  0  0  0  0  0
  190.6390  175.5650  138.3510 N   0  0  0  0  0  0  0  0  0  0  0  0
  192.7270  176.3800  136.6600 C   0  0  0  0  0  2  0  0  0  0  0  0
  190.7640  174.9060  137.2310 C   0  0  0  0  0  0  0  0  0  0  0  0
  192.9070  176.5230  138.1590 C   0  0  0  0  0  2  0  0  0  0  0  0
  193.9630  173.6490  137.1610 C   0  0  0  0  0  0  0  0  0  0  0  0
  194.4800  172.4000  136.8810 C   0  0  0  0  0  0  0  0  0  0  0  0
  195.9810  170.4190  136.7110 C   0  0  0  0  0  2  0  0  0  0  0  0
  194.7370  169.6280  136.2770 C   0  0  0  0  0  2  0  0  0  0  0  0
  192.6840  172.7180  135.5970 N   0  0  0  0  0  0  0  0  0  0  0  0
  193.8360  170.4740  135.3670 C   0  0  0  0  0  2  0  0  0  0  0  0
  191.6430  172.4250  134.7450 O   0  0  0  0  0  1  0  0  0  0  0  0
  195.6000  171.6440  137.5460 C   0  0  1  0  0  3  0  0  0  0  0  0
  196.8240  172.5140  137.7280 C   0  0  0  0  0  1  0  0  0  0  0  0
  192.8630  173.8470  136.3340 C   0  0  0  0  0  0  0  0  0  0  0  0
  194.4440  174.5320  138.1250 O   0  0  0  0  0  1  0  0  0  0  0  0
  193.6410  171.8410  135.9470 C   0  0  0  0  0  0  0  0  0  0  0  0
  1 36  1  6  0  0  0
  1  9  1  0  0  0  0
  2  6  2  0  0  0  0
  3  5  1  0  0  0  0
  4  9  1  0  0  0  0
  4  8  2  0  0  0  0
  5 12  2  0  0  0  0
  6 12  1  0  0  0  0
  8 11  1  0  0  0  0
  9 10  2  0  0  0  0
 10  2  1  0  0  0  0
 11  2  1  0  0  0  0
 11  3  2  0  0  0  0
 12  7  1  0  0  0  0
 13 16  1  0  0  0  0
 14 24  1  0  0  0  0
 14 19  2  0  0  0  0
 15 21  2  0  0  0  0
 15 13  1  0  0  0  0
 16 14  1  0  0  0  0
 17 19  1  0  0  0  0
 17 22  1  6  0  0  0
 18  1  1  1  0  0  0
 18 17  1  0  0  0  0
 20 16  2  0  0  0  0
 20 18  1  0  0  0  0
 22 23  1  0  0  0  0
 24 25  1  0  0  0  0
 26 32  1  6  0  0  0
 26 27  1  0  0  0  0
 26 15  1  0  0  0  0
 28 30  1  0  0  0  0
 28 27  1  0  0  0  0
 30 29  1  0  0  0  0
 31 30  2  0  0  0  0
 33 35  1  0  0  0  0
 33 32  1  0  0  0  0
 34 35  1  0  0  0  0
 37 36  1  0  0  0  0
 38 36  1  0  0  0  0
 39 38  1  0  0  0  0
 40 41  1  0  0  0  0
 40 39  1  0  0  0  0
 42 41  1  0  0  0  0
 42 43  1  0  0  0  0
 44 43  1  0  0  0  0
 44 49  1  0  0  0  0
 45 60  1  1  0  0  0
 45 48  1  0  0  0  0
 45 49  1  0  0  0  0
 47 46  1  0  0  0  0
 48 50  1  0  0  0  0
 49 47  2  0  0  0  0
 50 46  1  0  0  0  0
 51 61  1  0  0  0  0
 52 51  1  0  0  0  0
 52 58  1  0  0  0  0
 53 58  1  0  0  0  0
 54 53  1  0  0  0  0
 55 62  1  0  0  0  0
 55 60  1  0  0  0  0
 56 62  1  0  0  0  0
 56 54  1  0  0  0  0
 57 55  1  0  0  0  0
 58 59  1  6  0  0  0
 60 51  2  0  0  0  0
 62 52  2  0  0  0  0
M  END
>  <MODEL>
8

>  <REMARK>
 VINA RESULT:      -5.5      2.851      7.976
  Name = 
  21 active torsions:
  status: ('A' for Active; 'I' for Inactive)
    1  A    between atoms: C_1  and  N_19
    2  A    between atoms: C_1  and  C_21
    3  A    between atoms: C_5  and  O_26
    4  A    between atoms: C_7  and  C_13
    5  A    between atoms: C_11  and  O_29
    6  A    between atoms: C_11  and  C_46
    7  A    between atoms: C_12  and  C_51
    8  A    between atoms: C_13  and  C_41
    9  A    between atoms: C_13  and  O_47
   10  A    between atoms: C_16  and  O_53
   11  A    between atoms: C_17  and  C_38
   12  A    between atoms: C_17  and  O_47
   13  A    between atoms: N_19  and  C_35
   14  A    between atoms: N_20  and  C_21
   15  A    between atoms: N_20  and  C_23
   16  A    between atoms: C_23  and  C_28
   17  A    between atoms: C_23  and  C_44
   18  A    between atoms: O_29  and  C_43
   19  A    between atoms: C_35  and  C_46
   20  A    between atoms: O_37  and  C_62
   21  A    between atoms: C_41  and  C_62
                            x       y       z     vdW  Elec       q    Type
                         _______ _______ _______ _____ _____    ______ ____

>  <TORSDO>
F 21

$$$$
=
 OpenBabel10222416213D

 62 67  0  0  1  0  0  0  0  0999 V2000
  188.1480  177.3580  142.0740 C   0  0  2  0  0  3  0  0  0  0  0  0
  188.2440  177.5570  145.8860 C   0  0  0  0  0  0  0  0  0  0  0  0
  189.8420  178.5330  147.4220 C   0  0  0  0  0  3  0  0  0  0  0  0
  189.7960  178.4180  143.7210 C   0  0  0  0  0  3  0  0  0  0  0  0
  189.0660  178.1220  148.4630 N   0  0  0  0  0  0  0  0  0  0  0  0
  187.4680  177.1430  146.9720 C   0  0  0  0  0  3  0  0  0  0  0  0
  187.0920  177.0140  149.4390 C   0  0  0  0  0  1  0  0  0  0  0  0
  190.2160  178.6980  145.0270 C   0  0  0  0  0  3  0  0  0  0  0  0
  188.6020  177.7090  143.4840 C   0  0  0  0  0  0  0  0  0  0  0  0
  187.8400  177.2720  144.5840 C   0  0  0  0  0  3  0  0  0  0  0  0
  189.4420  178.2680  146.1080 C   0  0  0  0  0  0  0  0  0  0  0  0
  187.9010  177.4420  148.2690 C   0  0  0  0  0  0  0  0  0  0  0  0
  189.3250  175.7430  137.6580 N   0  0  0  0  0  2  0  0  0  0  0  0
  191.2060  176.5940  139.1350 C   0  0  0  0  0  0  0  0  0  0  0  0
  189.7300  176.2140  136.3690 C   0  0  0  0  0  0  0  0  0  0  0  0
  189.7580  176.3530  138.8790 C   0  0  0  0  0  0  0  0  0  0  0  0
  190.6310  176.9210  141.5270 C   0  0  2  0  0  3  0  0  0  0  0  0
  189.2530  177.3690  141.0070 C   0  0  1  0  0  3  0  0  0  0  0  0
  191.6050  176.9100  140.3760 C   0  0  0  0  0  3  0  0  0  0  0  0
  188.8760  176.6420  139.7920 N   0  0  0  0  0  0  0  0  0  0  0  0
  190.1610  177.3960  136.2380 O   0  0  0  0  0  0  0  0  0  0  0  0
  190.5550  175.6360  142.0740 O   0  0  0  0  0  0  0  0  0  0  0  0
  191.4160  175.6580  143.1720 C   0  0  0  0  0  1  0  0  0  0  0  0
  192.1270  176.4630  138.0890 O   0  0  0  0  0  0  0  0  0  0  0  0
  193.5120  176.7470  138.2340 C   0  0  0  0  0  1  0  0  0  0  0  0
  189.6820  175.2960  135.1830 C   0  0  1  0  0  3  0  0  0  0  0  0
  190.3740  174.1130  135.4690 O   0  0  0  0  0  0  0  0  0  0  0  0
  191.4730  174.0820  134.5960 C   0  0  0  0  0  2  0  0  0  0  0  0
  193.9430  173.6590  134.6730 O   0  0  0  0  0  0  0  0  0  0  0  0
  192.7270  173.7550  135.3420 C   0  0  0  0  0  0  0  0  0  0  0  0
  192.6880  173.5930  136.5910 O   0  0  0  0  0  1  0  0  0  0  0  0
  188.2210  174.9780  134.8660 C   0  0  0  0  0  2  0  0  0  0  0  0
  188.0220  173.4850  134.6790 C   0  0  0  0  0  2  0  0  0  0  0  0
  187.0790  172.2640  136.2640 C   0  0  0  0  0  1  0  0  0  0  0  0
  186.7810  173.1100  135.1920 O   0  0  0  0  0  0  0  0  0  0  0  0
  186.9150  178.0270  141.6170 N   0  0  0  0  0  0  0  0  0  0  0  0
  187.1850  179.3910  141.1670 C   0  0  0  0  0  1  0  0  0  0  0  0
  185.9840  178.0800  142.7360 C   0  0  0  0  0  2  0  0  0  0  0  0
  185.2220  179.4070  142.7390 C   0  0  0  0  0  2  0  0  0  0  0  0
  184.5690  179.5900  144.0290 N   0  0  0  0  0  2  0  0  0  0  0  0
  183.5980  178.5150  144.2290 C   0  0  0  0  0  2  0  0  0  0  0  0
  182.1850  179.0520  144.4600 C   0  0  0  0  0  2  0  0  0  0  0  0
  181.2630  178.7060  143.3090 C   0  0  0  0  0  2  0  0  0  0  0  0
  181.9100  179.0070  142.0820 O   0  0  0  0  0  0  0  0  0  0  0  0
  180.9640  178.2080  139.9050 C   0  0  2  0  0  3  0  0  0  0  0  0
  179.9040  180.9400  139.6110 C   0  0  0  0  0  2  0  0  0  0  0  0
  180.7770  180.5290  140.7140 N   0  0  0  0  0  0  0  0  0  0  0  0
  179.8260  178.5670  138.9440 C   0  0  0  0  0  2  0  0  0  0  0  0
  181.2080  179.3130  140.9160 C   0  0  0  0  0  0  0  0  0  0  0  0
  180.0020  179.9840  138.4330 C   0  0  0  0  0  2  0  0  0  0  0  0
  182.4210  176.5830  138.5270 C   0  0  0  0  0  0  0  0  0  0  0  0
  183.7010  176.5780  138.0080 C   0  0  0  0  0  0  0  0  0  0  0  0
  185.8770  175.8700  137.0250 C   0  0  0  0  0  2  0  0  0  0  0  0
  186.1460  177.3630  136.7770 C   0  0  0  0  0  2  0  0  0  0  0  0
  183.3820  178.5140  139.0700 N   0  0  0  0  0  0  0  0  0  0  0  0
  185.6310  178.2160  137.9430 C   0  0  0  0  0  2  0  0  0  0  0  0
  183.6010  179.8120  139.4730 O   0  0  0  0  0  1  0  0  0  0  0  0
  184.3760  175.5800  137.1060 C   0  0  1  0  0  3  0  0  0  0  0  0
  184.1760  174.1630  137.5980 C   0  0  0  0  0  1  0  0  0  0  0  0
  182.2460  177.7800  139.2100 C   0  0  0  0  0  0  0  0  0  0  0  0
  181.4710  175.5770  138.3600 O   0  0  0  0  0  1  0  0  0  0  0  0
  184.2440  177.8000  138.3260 C   0  0  0  0  0  0  0  0  0  0  0  0
  1 36  1  6  0  0  0
  1  9  1  0  0  0  0
  2 11  1  0  0  0  0
  2  6  2  0  0  0  0
  3  5  1  0  0  0  0
  4  8  2  0  0  0  0
  6 12  1  0  0  0  0
  8 11  1  0  0  0  0
  9  4  1  0  0  0  0
  9 10  2  0  0  0  0
 10  2  1  0  0  0  0
 11  3  2  0  0  0  0
 12  5  2  0  0  0  0
 12  7  1  0  0  0  0
 13 16  1  0  0  0  0
 14 19  2  0  0  0  0
 15 13  1  0  0  0  0
 16 14  1  0  0  0  0
 16 20  2  0  0  0  0
 17 22  1  6  0  0  0
 18 17  1  0  0  0  0
 18  1  1  1  0  0  0
 19 17  1  0  0  0  0
 20 18  1  0  0  0  0
 21 15  2  0  0  0  0
 22 23  1  0  0  0  0
 24 25  1  0  0  0  0
 24 14  1  0  0  0  0
 26 32  1  1  0  0  0
 26 27  1  0  0  0  0
 26 15  1  0  0  0  0
 28 30  1  0  0  0  0
 28 27  1  0  0  0  0
 29 30  2  0  0  0  0
 30 31  1  0  0  0  0
 33 32  1  0  0  0  0
 33 35  1  0  0  0  0
 35 34  1  0  0  0  0
 36 38  1  0  0  0  0
 37 36  1  0  0  0  0
 38 39  1  0  0  0  0
 39 40  1  0  0  0  0
 40 41  1  0  0  0  0
 41 42  1  0  0  0  0
 43 42  1  0  0  0  0
 44 43  1  0  0  0  0
 45 60  1  6  0  0  0
 45 49  1  0  0  0  0
 46 47  1  0  0  0  0
 47 49  2  0  0  0  0
 48 45  1  0  0  0  0
 49 44  1  0  0  0  0
 50 48  1  0  0  0  0
 50 46  1  0  0  0  0
 51 60  2  0  0  0  0
 52 62  2  0  0  0  0
 52 51  1  0  0  0  0
 53 58  1  0  0  0  0
 54 53  1  0  0  0  0
 54 56  1  0  0  0  0
 55 60  1  0  0  0  0
 55 57  1  0  0  0  0
 56 62  1  0  0  0  0
 58 59  1  1  0  0  0
 58 52  1  0  0  0  0
 61 51  1  0  0  0  0
 62 55  1  0  0  0  0
M  END
>  <MODEL>
9

>  <REMARK>
 VINA RESULT:      -5.4      2.550     10.840
  Name = 
  21 active torsions:
  status: ('A' for Active; 'I' for Inactive)
    1  A    between atoms: C_1  and  N_19
    2  A    between atoms: C_1  and  C_21
    3  A    between atoms: C_5  and  O_26
    4  A    between atoms: C_7  and  C_13
    5  A    between atoms: C_11  and  O_29
    6  A    between atoms: C_11  and  C_46
    7  A    between atoms: C_12  and  C_51
    8  A    between atoms: C_13  and  C_41
    9  A    between atoms: C_13  and  O_47
   10  A    between atoms: C_16  and  O_53
   11  A    between atoms: C_17  and  C_38
   12  A    between atoms: C_17  and  O_47
   13  A    between atoms: N_19  and  C_35
   14  A    between atoms: N_20  and  C_21
   15  A    between atoms: N_20  and  C_23
   16  A    between atoms: C_23  and  C_28
   17  A    between atoms: C_23  and  C_44
   18  A    between atoms: O_29  and  C_43
   19  A    between atoms: C_35  and  C_46
   20  A    between atoms: O_37  and  C_62
   21  A    between atoms: C_41  and  C_62
                            x       y       z     vdW  Elec       q    Type
                         _______ _______ _______ _____ _____    ______ ____

>  <TORSDO>
F 21

$$$$
