=
 OpenBabel10222418153D

 59 64  0  0  1  0  0  0  0  0999 V2000
  184.1480  179.5000  141.9150 C   0  0  1  0  0  3  0  0  0  0  0  0
  185.4500  179.1460  141.1510 C   0  0  2  0  0  3  0  0  0  0  0  0
  180.0010  179.4010  138.4410 C   0  0  2  0  0  3  0  0  0  0  0  0
  182.3170  176.3770  141.0090 C   0  0  0  0  0  1  0  0  0  0  0  0
  184.0740  178.3570  137.7930 C   0  0  0  0  0  0  0  0  0  0  0  0
  185.3510  179.3300  139.7050 N   0  0  0  0  0  2  0  0  0  0  0  0
  182.0240  179.4450  137.1870 O   0  0  0  0  0  0  0  0  0  0  0  0
  180.9500  180.1750  137.6260 N   0  0  0  0  0  0  0  0  0  0  0  0
  185.8710  177.2200  138.8500 O   0  0  0  0  0  0  0  0  0  0  0  0
  180.6900  178.7150  139.6160 C   0  0  0  0  0  2  0  0  0  0  0  0
  182.8250  178.7890  141.5610 C   0  0  2  0  0  3  0  0  0  0  0  0
  183.6250  178.3640  142.7750 C   0  0  0  0  0  2  0  0  0  0  0  0
  182.8120  179.0250  138.2850 C   0  0  1  0  0  3  0  0  0  0  0  0
  182.8480  177.6980  140.4740 C   0  0  2  0  0  3  0  0  0  0  0  0
  185.1820  178.2710  138.7590 C   0  0  0  0  0  0  0  0  0  0  0  0
  182.0300  178.0900  139.2210 C   0  0  1  0  0  3  0  0  0  0  0  0
  184.0690  177.7290  136.6050 C   0  0  0  0  0  3  0  0  0  0  0  0
  188.4100  177.9370  134.7960 O   0  0  0  0  0  0  0  0  0  0  0  0
  186.2440  174.9900  135.1230 C   0  0  0  0  0  0  0  0  0  0  0  0
  185.2170  175.6050  135.7140 C   0  0  0  0  0  3  0  0  0  0  0  0
  187.4320  175.7690  134.6030 C   0  0  0  0  0  2  0  0  0  0  0  0
  187.4050  177.2130  135.0130 C   0  0  0  0  0  0  0  0  0  0  0  0
  185.1980  177.0670  135.9260 C   0  0  0  0  0  0  0  0  0  0  0  0
  186.2420  177.7780  135.6290 N   0  0  0  0  0  0  0  0  0  0  0  0
  186.1810  173.5750  134.9480 N   0  0  0  0  0  2  0  0  0  0  0  0
  186.9840  173.3070  137.1170 O   0  0  0  0  0  1  0  0  0  0  0  0
  185.2480  171.8630  136.3880 C   0  0  0  0  0  1  0  0  0  0  0  0
  186.4980  172.6250  136.0030 C   0  0  1  0  0  3  0  0  0  0  0  0
  187.7340  178.1280  141.0030 C   0  0  0  0  0  1  0  0  0  0  0  0
  186.3520  177.9890  141.6260 C   0  0  1  0  0  3  0  0  0  0  0  0
  186.4930  178.0230  143.0150 O   0  0  0  0  0  0  0  0  0  0  0  0
  187.3580  176.9670  143.3180 C   0  0  0  0  0  2  0  0  0  0  0  0
  187.1670  177.6400  145.7030 C   0  0  0  0  0  3  0  0  0  0  0  0
  187.7130  177.8900  146.9630 C   0  0  0  0  0  3  0  0  0  0  0  0
  189.3650  177.0260  144.8620 C   0  0  0  0  0  0  0  0  0  0  0  0
  189.9080  177.2660  146.1420 C   0  0  0  0  0  0  0  0  0  0  0  0
  189.0780  177.7010  147.1800 C   0  0  0  0  0  3  0  0  0  0  0  0
  187.9810  177.1990  144.6550 C   0  0  0  0  0  0  0  0  0  0  0  0
  191.3670  177.0920  146.4200 C   0  0  0  0  0  2  0  0  0  0  0  0
  191.5650  176.2780  147.6840 C   0  0  0  0  0  1  0  0  0  0  0  0
  190.2420  176.5480  143.7440 C   0  0  0  0  0  2  0  0  0  0  0  0
  190.4620  177.5880  142.8400 O   0  0  0  0  0  1  0  0  0  0  0  0
  179.3620  178.4510  137.6420 O   0  0  0  0  0  0  0  0  0  0  0  0
  179.1890  179.0790  136.4070 C   0  0  0  0  0  2  0  0  0  0  0  0
  178.9340  178.1220  135.4230 O   0  0  0  0  0  0  0  0  0  0  0  0
  180.1600  177.4870  135.2310 C   0  0  0  0  0  2  0  0  0  0  0  0
  179.9370  176.0780  134.7090 C   0  0  0  0  0  2  0  0  0  0  0  0
  179.4350  173.9390  135.3080 O   0  0  0  0  0  0  0  0  0  0  0  0
  180.3850  174.3450  136.1870 C   0  0  1  0  0  3  0  0  0  0  0  0
  179.3520  175.2500  135.7500 N   0  0  0  0  0  0  0  0  0  0  0  0
  180.0520  173.8220  137.5710 C   0  0  0  0  0  2  0  0  0  0  0  0
  180.2050  174.8430  138.5100 O   0  0  0  0  0  0  0  0  0  0  0  0
  178.9330  175.0200  139.0520 C   0  0  0  0  0  2  0  0  0  0  0  0
  179.5720  173.7590  140.9480 F   0  0  0  0  0  0  0  0  0  0  0  0
  179.0130  174.9620  140.5630 C   0  0  0  0  0  2  0  0  0  0  0  0
  181.3010  181.5230  138.1090 C   0  0  0  0  0  2  0  0  0  0  0  0
  181.3220  183.9140  137.4510 C   0  0  0  0  0  1  0  0  0  0  0  0
  180.1390  182.2680  136.0390 C   0  0  0  0  0  1  0  0  0  0  0  0
  180.5000  182.6460  137.4610 C   0  0  0  0  0  3  0  0  0  0  0  0
  1 12  1  1  0  0  0
  2 30  1  6  0  0  0
  2  1  1  0  0  0  0
  3 43  1  6  0  0  0
  3 10  1  0  0  0  0
  5 13  1  0  0  0  0
  5 15  1  0  0  0  0
  6  2  1  0  0  0  0
  7  8  1  0  0  0  0
  8 56  1  0  0  0  0
  8  3  1  0  0  0  0
 11  1  1  0  0  0  0
 11 12  1  1  0  0  0
 13  7  1  6  0  0  0
 13 16  1  0  0  0  0
 14  4  1  1  0  0  0
 14 11  1  0  0  0  0
 15  9  2  0  0  0  0
 15  6  1  0  0  0  0
 16 10  1  1  0  0  0
 16 14  1  0  0  0  0
 17  5  2  0  0  0  0
 18 22  2  0  0  0  0
 19 20  2  0  0  0  0
 20 23  1  0  0  0  0
 21 22  1  0  0  0  0
 21 19  1  0  0  0  0
 22 24  1  0  0  0  0
 23 17  1  0  0  0  0
 24 23  2  0  0  0  0
 25 19  1  0  0  0  0
 25 28  1  0  0  0  0
 28 27  1  1  0  0  0
 28 26  1  0  0  0  0
 30 29  1  6  0  0  0
 30 31  1  0  0  0  0
 31 32  1  0  0  0  0
 32 38  1  0  0  0  0
 33 34  1  0  0  0  0
 34 37  2  0  0  0  0
 35 36  2  0  0  0  0
 36 39  1  0  0  0  0
 36 37  1  0  0  0  0
 38 35  1  0  0  0  0
 38 33  2  0  0  0  0
 39 40  1  0  0  0  0
 41 35  1  0  0  0  0
 42 41  1  0  0  0  0
 44 43  1  0  0  0  0
 45 44  1  0  0  0  0
 46 45  1  0  0  0  0
 47 46  1  0  0  0  0
 47 50  1  0  0  0  0
 48 50  1  0  0  0  0
 48 49  1  0  0  0  0
 49 51  1  1  0  0  0
 50 49  1  0  0  0  0
 51 52  1  0  0  0  0
 52 53  1  0  0  0  0
 53 55  1  0  0  0  0
 55 54  1  0  0  0  0
 57 59  1  0  0  0  0
 58 59  1  0  0  0  0
 59 56  1  0  0  0  0
M  END
>  <MODEL>
1

>  <REMARK>
 VINA RESULT:      -5.2      0.000      0.000
  Name = 
  21 active torsions:
  status: ('A' for Active; 'I' for Inactive)
    1  A    between atoms: C_4  and  C_9
    2  A    between atoms: O_5  and  C_25
    3  A    between atoms: O_5  and  C_41
    4  A    between atoms: C_9  and  O_17
    5  A    between atoms: O_11  and  C_15
    6  A    between atoms: O_11  and  C_26
    7  A    between atoms: C_12  and  C_48
    8  A    between atoms: O_17  and  C_24
    9  A    between atoms: C_18  and  N_38
   10  A    between atoms: C_21  and  C_47
   11  A    between atoms: C_23  and  O_29
   12  A    between atoms: C_23  and  C_56
   13  A    between atoms: C_24  and  C_52
   14  A    between atoms: C_25  and  C_39
   15  A    between atoms: C_26  and  O_29
   16  A    between atoms: N_32  and  C_48
   17  A    between atoms: C_35  and  C_36
   18  A    between atoms: N_38  and  C_58
   19  A    between atoms: C_41  and  C_42
   20  A    between atoms: C_45  and  C_57
   21  A    between atoms: N_50  and  C_56
                            x       y       z     vdW  Elec       q    Type
                         _______ _______ _______ _____ _____    ______ ____

>  <TORSDO>
F 21

$$$$
=
 OpenBabel10222418153D

 59 64  0  0  1  0  0  0  0  0999 V2000
  189.4680  176.8170  134.9910 C   0  0  1  0  0  3  0  0  0  0  0  0
  188.6940  177.6210  136.0680 C   0  0  2  0  0  3  0  0  0  0  0  0
  193.7590  174.4710  137.3050 C   0  0  2  0  0  3  0  0  0  0  0  0
  189.2930  173.5390  136.7670 C   0  0  0  0  0  1  0  0  0  0  0  0
  190.6270  176.7150  139.1080 C   0  0  0  0  0  0  0  0  0  0  0  0
  189.4930  177.9380  137.2500 N   0  0  0  0  0  2  0  0  0  0  0  0
  192.9340  176.1420  138.7860 O   0  0  0  0  0  0  0  0  0  0  0  0
  193.9100  175.8160  137.8790 N   0  0  0  0  0  0  0  0  0  0  0  0
  188.2710  176.9970  139.0030 O   0  0  0  0  0  0  0  0  0  0  0  0
  192.3780  174.2670  136.6900 C   0  0  0  0  0  2  0  0  0  0  0  0
  190.1150  175.4630  135.3510 C   0  0  2  0  0  3  0  0  0  0  0  0
  188.7930  175.5120  134.6120 C   0  0  0  0  0  2  0  0  0  0  0  0
  191.6730  176.2060  138.1460 C   0  0  1  0  0  3  0  0  0  0  0  0
  189.9300  174.9200  136.7810 C   0  0  2  0  0  3  0  0  0  0  0  0
  189.3980  177.2570  138.5040 C   0  0  0  0  0  0  0  0  0  0  0  0
  191.2610  174.8440  137.5640 C   0  0  1  0  0  3  0  0  0  0  0  0
  190.7750  176.4910  140.4240 C   0  0  0  0  0  3  0  0  0  0  0  0
  186.9020  178.7360  141.8790 O   0  0  0  0  0  0  0  0  0  0  0  0
  189.3260  176.8750  143.9140 C   0  0  0  0  0  0  0  0  0  0  0  0
  190.1220  176.4920  142.9140 C   0  0  0  0  0  3  0  0  0  0  0  0
  188.1760  177.8300  143.6810 C   0  0  0  0  0  2  0  0  0  0  0  0
  187.9290  178.0980  142.2250 C   0  0  0  0  0  0  0  0  0  0  0  0
  189.9050  176.9450  141.5250 C   0  0  0  0  0  0  0  0  0  0  0  0
  188.8580  177.6540  141.2300 N   0  0  0  0  0  0  0  0  0  0  0  0
  189.6090  176.4000  145.2300 N   0  0  0  0  0  2  0  0  0  0  0  0
  189.6400  177.0050  147.4790 O   0  0  0  0  0  1  0  0  0  0  0  0
  191.7190  176.8100  146.3510 C   0  0  0  0  0  1  0  0  0  0  0  0
  190.2610  177.2090  146.2480 C   0  0  1  0  0  3  0  0  0  0  0  0
  186.4280  178.6770  136.2050 C   0  0  0  0  0  1  0  0  0  0  0  0
  187.1950  177.3670  136.3140 C   0  0  1  0  0  3  0  0  0  0  0  0
  186.6890  176.4820  135.3580 O   0  0  0  0  0  0  0  0  0  0  0  0
  185.3080  176.4620  135.5760 C   0  0  0  0  0  2  0  0  0  0  0  0
  185.8600  174.4950  136.9920 C   0  0  0  0  0  3  0  0  0  0  0  0
  185.5460  173.2670  137.5770 C   0  0  0  0  0  3  0  0  0  0  0  0
  183.6550  174.5840  135.9710 C   0  0  0  0  0  0  0  0  0  0  0  0
  183.3380  173.3510  136.5770 C   0  0  0  0  0  0  0  0  0  0  0  0
  184.2880  172.7000  137.3700 C   0  0  0  0  0  3  0  0  0  0  0  0
  184.9200  175.1630  136.2000 C   0  0  0  0  0  0  0  0  0  0  0  0
  182.0090  172.6950  136.3730 C   0  0  0  0  0  2  0  0  0  0  0  0
  182.0520  171.2620  136.8680 C   0  0  0  0  0  1  0  0  0  0  0  0
  182.6400  175.2980  135.1270 C   0  0  0  0  0  2  0  0  0  0  0  0
  181.7140  175.9420  135.9480 O   0  0  0  0  0  1  0  0  0  0  0  0
  193.9880  173.5100  138.2930 O   0  0  0  0  0  0  0  0  0  0  0  0
  195.3110  173.1080  138.1010 C   0  0  0  0  0  2  0  0  0  0  0  0
  195.3400  171.8880  137.4240 O   0  0  0  0  0  0  0  0  0  0  0  0
  195.7070  172.2230  136.1210 C   0  0  0  0  0  2  0  0  0  0  0  0
  196.9980  171.5140  135.7480 C   0  0  0  0  0  2  0  0  0  0  0  0
  199.1720  172.1920  135.7750 O   0  0  0  0  0  0  0  0  0  0  0  0
  198.4500  173.2840  136.1320 C   0  0  1  0  0  3  0  0  0  0  0  0
  198.0810  171.9720  136.6010 N   0  0  0  0  0  0  0  0  0  0  0  0
  199.1750  174.0340  137.2320 C   0  0  0  0  0  2  0  0  0  0  0  0
  198.2950  174.9170  137.8590 O   0  0  0  0  0  0  0  0  0  0  0  0
  198.3870  174.6080  139.2150 C   0  0  0  0  0  2  0  0  0  0  0  0
  197.3550  175.2450  141.2460 F   0  0  0  0  0  0  0  0  0  0  0  0
  197.8000  175.7380  140.0340 C   0  0  0  0  0  2  0  0  0  0  0  0
  194.2480  176.9070  136.9470 C   0  0  0  0  0  2  0  0  0  0  0  0
  193.5760  176.5050  134.5940 C   0  0  0  0  0  1  0  0  0  0  0  0
  195.8580  177.3100  135.0930 C   0  0  0  0  0  1  0  0  0  0  0  0
  194.7210  176.4330  135.5780 C   0  0  0  0  0  3  0  0  0  0  0  0
  1 12  1  6  0  0  0
  1 11  1  0  0  0  0
  1  2  1  0  0  0  0
  2 30  1  1  0  0  0
  2  6  1  0  0  0  0
  3  8  1  0  0  0  0
  3 43  1  1  0  0  0
  5 17  2  0  0  0  0
  6 15  1  0  0  0  0
  8  7  1  0  0  0  0
 10  3  1  0  0  0  0
 11 12  1  6  0  0  0
 11 14  1  0  0  0  0
 13  7  1  1  0  0  0
 13  5  1  0  0  0  0
 14  4  1  6  0  0  0
 14 16  1  0  0  0  0
 15  9  2  0  0  0  0
 15  5  1  0  0  0  0
 16 10  1  6  0  0  0
 16 13  1  0  0  0  0
 17 23  1  0  0  0  0
 18 22  2  0  0  0  0
 19 25  1  0  0  0  0
 20 19  2  0  0  0  0
 21 19  1  0  0  0  0
 22 21  1  0  0  0  0
 23 20  1  0  0  0  0
 24 23  2  0  0  0  0
 24 22  1  0  0  0  0
 25 28  1  0  0  0  0
 28 27  1  1  0  0  0
 28 26  1  0  0  0  0
 30 29  1  6  0  0  0
 31 32  1  0  0  0  0
 31 30  1  0  0  0  0
 32 38  1  0  0  0  0
 33 34  1  0  0  0  0
 35 38  1  0  0  0  0
 35 36  2  0  0  0  0
 36 37  1  0  0  0  0
 37 34  2  0  0  0  0
 38 33  2  0  0  0  0
 39 36  1  0  0  0  0
 39 40  1  0  0  0  0
 41 42  1  0  0  0  0
 41 35  1  0  0  0  0
 44 43  1  0  0  0  0
 45 44  1  0  0  0  0
 46 45  1  0  0  0  0
 47 46  1  0  0  0  0
 47 50  1  0  0  0  0
 48 49  1  0  0  0  0
 48 50  1  0  0  0  0
 49 50  1  0  0  0  0
 49 51  1  1  0  0  0
 51 52  1  0  0  0  0
 52 53  1  0  0  0  0
 53 55  1  0  0  0  0
 55 54  1  0  0  0  0
 56  8  1  0  0  0  0
 57 59  1  0  0  0  0
 58 59  1  0  0  0  0
 59 56  1  0  0  0  0
M  END
>  <MODEL>
2

>  <REMARK>
 VINA RESULT:      -4.6      6.133     12.545
  Name = 
  21 active torsions:
  status: ('A' for Active; 'I' for Inactive)
    1  A    between atoms: C_4  and  C_9
    2  A    between atoms: O_5  and  C_25
    3  A    between atoms: O_5  and  C_41
    4  A    between atoms: C_9  and  O_17
    5  A    between atoms: O_11  and  C_15
    6  A    between atoms: O_11  and  C_26
    7  A    between atoms: C_12  and  C_48
    8  A    between atoms: O_17  and  C_24
    9  A    between atoms: C_18  and  N_38
   10  A    between atoms: C_21  and  C_47
   11  A    between atoms: C_23  and  O_29
   12  A    between atoms: C_23  and  C_56
   13  A    between atoms: C_24  and  C_52
   14  A    between atoms: C_25  and  C_39
   15  A    between atoms: C_26  and  O_29
   16  A    between atoms: N_32  and  C_48
   17  A    between atoms: C_35  and  C_36
   18  A    between atoms: N_38  and  C_58
   19  A    between atoms: C_41  and  C_42
   20  A    between atoms: C_45  and  C_57
   21  A    between atoms: N_50  and  C_56
                            x       y       z     vdW  Elec       q    Type
                         _______ _______ _______ _____ _____    ______ ____

>  <TORSDO>
F 21

$$$$
=
 OpenBabel10222418153D

 59 64  0  0  1  0  0  0  0  0999 V2000
  189.6100  176.7700  135.1100 C   0  0  1  0  0  3  0  0  0  0  0  0
  188.9050  177.6150  136.2020 C   0  0  2  0  0  3  0  0  0  0  0  0
  193.9890  174.4330  137.2660 C   0  0  2  0  0  3  0  0  0  0  0  0
  189.4900  173.5470  136.9900 C   0  0  0  0  0  1  0  0  0  0  0  0
  190.9840  176.7720  139.1620 C   0  0  0  0  0  0  0  0  0  0  0  0
  189.7680  177.9550  137.3310 N   0  0  0  0  0  2  0  0  0  0  0  0
  193.2630  176.1570  138.7380 O   0  0  0  0  0  0  0  0  0  0  0  0
  194.1860  175.7920  137.7910 N   0  0  0  0  0  0  0  0  0  0  0  0
  188.6290  177.0830  139.1720 O   0  0  0  0  0  0  0  0  0  0  0  0
  192.5740  174.2310  136.7300 C   0  0  0  0  0  2  0  0  0  0  0  0
  190.2590  175.4180  135.4760 C   0  0  2  0  0  3  0  0  0  0  0  0
  188.9010  175.4630  134.8060 C   0  0  0  0  0  2  0  0  0  0  0  0
  191.9710  176.2200  138.1620 C   0  0  1  0  0  3  0  0  0  0  0  0
  190.1430  174.9190  136.9290 C   0  0  2  0  0  3  0  0  0  0  0  0
  189.7310  177.3130  138.6070 C   0  0  0  0  0  0  0  0  0  0  0  0
  191.5120  174.8480  137.6440 C   0  0  1  0  0  3  0  0  0  0  0  0
  191.1980  176.5840  140.4750 C   0  0  0  0  0  3  0  0  0  0  0  0
  190.9230  178.9280  144.5480 O   0  0  0  0  0  0  0  0  0  0  0  0
  188.1750  177.4690  142.5990 C   0  0  0  0  0  0  0  0  0  0  0  0
  188.9170  176.9990  141.5940 C   0  0  0  0  0  3  0  0  0  0  0  0
  188.8130  178.0800  143.8260 C   0  0  0  0  0  2  0  0  0  0  0  0
  190.2930  178.2770  143.6760 C   0  0  0  0  0  0  0  0  0  0  0  0
  190.3920  177.0820  141.6060 C   0  0  0  0  0  0  0  0  0  0  0  0
  190.9980  177.7150  142.5620 N   0  0  0  0  0  0  0  0  0  0  0  0
  186.7560  177.3410  142.5140 N   0  0  0  0  0  2  0  0  0  0  0  0
  184.7730  178.4060  141.9140 O   0  0  0  0  0  1  0  0  0  0  0  0
  185.3060  178.2660  144.2220 C   0  0  0  0  0  1  0  0  0  0  0  0
  185.8380  178.4290  142.8140 C   0  0  1  0  0  3  0  0  0  0  0  0
  186.6870  178.7240  136.5550 C   0  0  0  0  0  1  0  0  0  0  0  0
  187.4170  177.3890  136.5340 C   0  0  1  0  0  3  0  0  0  0  0  0
  186.8210  176.5800  135.5620 O   0  0  0  0  0  0  0  0  0  0  0  0
  185.4530  176.8560  135.6500 C   0  0  0  0  0  2  0  0  0  0  0  0
  185.3370  174.4070  136.0630 C   0  0  0  0  0  3  0  0  0  0  0  0
  184.6910  173.2640  136.5360 C   0  0  0  0  0  3  0  0  0  0  0  0
  183.4610  175.7770  136.7830 C   0  0  0  0  0  0  0  0  0  0  0  0
  182.8200  174.6200  137.2730 C   0  0  0  0  0  0  0  0  0  0  0  0
  183.4390  173.3730  137.1410 C   0  0  0  0  0  3  0  0  0  0  0  0
  184.7360  175.6640  136.1920 C   0  0  0  0  0  0  0  0  0  0  0  0
  181.4700  174.6830  137.9140 C   0  0  0  0  0  2  0  0  0  0  0  0
  180.6680  173.4440  137.5670 C   0  0  0  0  0  1  0  0  0  0  0  0
  182.8130  177.1220  136.9290 C   0  0  0  0  0  2  0  0  0  0  0  0
  181.7670  177.2430  136.0140 O   0  0  0  0  0  1  0  0  0  0  0  0
  194.2580  173.4980  138.2680 O   0  0  0  0  0  0  0  0  0  0  0  0
  195.5350  173.0180  137.9770 C   0  0  0  0  0  2  0  0  0  0  0  0
  195.5740  171.6360  138.1660 O   0  0  0  0  0  0  0  0  0  0  0  0
  194.7640  171.1240  137.1520 C   0  0  0  0  0  2  0  0  0  0  0  0
  195.3490  169.8230  136.6290 C   0  0  0  0  0  2  0  0  0  0  0  0
  196.4310  169.7770  134.6260 O   0  0  0  0  0  0  0  0  0  0  0  0
  196.3640  171.0880  134.9690 C   0  0  1  0  0  3  0  0  0  0  0  0
  196.6160  170.0790  135.9660 N   0  0  0  0  0  0  0  0  0  0  0  0
  197.6640  171.7760  134.6000 C   0  0  0  0  0  2  0  0  0  0  0  0
  197.6700  173.0750  135.1110 O   0  0  0  0  0  0  0  0  0  0  0  0
  198.9740  173.2720  135.5640 C   0  0  0  0  0  2  0  0  0  0  0  0
  198.0330  175.3430  136.2150 F   0  0  0  0  0  0  0  0  0  0  0  0
  198.9980  174.4150  136.5570 C   0  0  0  0  0  2  0  0  0  0  0  0
  194.4870  176.8510  136.8110 C   0  0  0  0  0  2  0  0  0  0  0  0
  193.4660  176.3300  134.6110 C   0  0  0  0  0  1  0  0  0  0  0  0
  195.7640  177.2310  134.7090 C   0  0  0  0  0  1  0  0  0  0  0  0
  194.7550  176.3370  135.4010 C   0  0  0  0  0  3  0  0  0  0  0  0
  1 12  1  6  0  0  0
  1 11  1  0  0  0  0
  1  2  1  0  0  0  0
  2 30  1  1  0  0  0
  2  6  1  0  0  0  0
  3  8  1  0  0  0  0
  3 43  1  1  0  0  0
  5 17  2  0  0  0  0
  6 15  1  0  0  0  0
  8  7  1  0  0  0  0
 10  3  1  0  0  0  0
 11 12  1  6  0  0  0
 11 14  1  0  0  0  0
 13  7  1  1  0  0  0
 13  5  1  0  0  0  0
 14  4  1  6  0  0  0
 14 16  1  0  0  0  0
 15  5  1  0  0  0  0
 15  9  2  0  0  0  0
 16 10  1  6  0  0  0
 16 13  1  0  0  0  0
 17 23  1  0  0  0  0
 19 21  1  0  0  0  0
 20 23  1  0  0  0  0
 20 19  2  0  0  0  0
 22 21  1  0  0  0  0
 22 18  2  0  0  0  0
 23 24  2  0  0  0  0
 24 22  1  0  0  0  0
 25 19  1  0  0  0  0
 25 28  1  0  0  0  0
 26 28  1  0  0  0  0
 28 27  1  1  0  0  0
 30 29  1  6  0  0  0
 31 32  1  0  0  0  0
 31 30  1  0  0  0  0
 32 38  1  0  0  0  0
 33 38  2  0  0  0  0
 33 34  1  0  0  0  0
 34 37  2  0  0  0  0
 35 41  1  0  0  0  0
 35 36  2  0  0  0  0
 36 39  1  0  0  0  0
 37 36  1  0  0  0  0
 38 35  1  0  0  0  0
 40 39  1  0  0  0  0
 42 41  1  0  0  0  0
 44 45  1  0  0  0  0
 44 43  1  0  0  0  0
 46 45  1  0  0  0  0
 47 46  1  0  0  0  0
 48 49  1  0  0  0  0
 48 50  1  0  0  0  0
 49 51  1  6  0  0  0
 49 50  1  0  0  0  0
 50 47  1  0  0  0  0
 51 52  1  0  0  0  0
 52 53  1  0  0  0  0
 53 55  1  0  0  0  0
 54 55  1  0  0  0  0
 56  8  1  0  0  0  0
 57 59  1  0  0  0  0
 58 59  1  0  0  0  0
 59 56  1  0  0  0  0
M  END
>  <MODEL>
3

>  <REMARK>
 VINA RESULT:      -4.3      6.183     12.357
  Name = 
  21 active torsions:
  status: ('A' for Active; 'I' for Inactive)
    1  A    between atoms: C_4  and  C_9
    2  A    between atoms: O_5  and  C_25
    3  A    between atoms: O_5  and  C_41
    4  A    between atoms: C_9  and  O_17
    5  A    between atoms: O_11  and  C_15
    6  A    between atoms: O_11  and  C_26
    7  A    between atoms: C_12  and  C_48
    8  A    between atoms: O_17  and  C_24
    9  A    between atoms: C_18  and  N_38
   10  A    between atoms: C_21  and  C_47
   11  A    between atoms: C_23  and  O_29
   12  A    between atoms: C_23  and  C_56
   13  A    between atoms: C_24  and  C_52
   14  A    between atoms: C_25  and  C_39
   15  A    between atoms: C_26  and  O_29
   16  A    between atoms: N_32  and  C_48
   17  A    between atoms: C_35  and  C_36
   18  A    between atoms: N_38  and  C_58
   19  A    between atoms: C_41  and  C_42
   20  A    between atoms: C_45  and  C_57
   21  A    between atoms: N_50  and  C_56
                            x       y       z     vdW  Elec       q    Type
                         _______ _______ _______ _____ _____    ______ ____

>  <TORSDO>
F 21

$$$$
=
 OpenBabel10222418153D

 59 64  0  0  1  0  0  0  0  0999 V2000
  188.9670  176.6820  135.2440 C   0  0  1  0  0  3  0  0  0  0  0  0
  188.4660  177.5050  136.4600 C   0  0  2  0  0  3  0  0  0  0  0  0
  193.7540  174.4820  136.4800 C   0  0  2  0  0  3  0  0  0  0  0  0
  189.3170  173.4580  137.0920 C   0  0  0  0  0  1  0  0  0  0  0  0
  191.1130  176.7270  138.9460 C   0  0  0  0  0  0  0  0  0  0  0  0
  189.5250  177.8720  137.3970 N   0  0  0  0  0  2  0  0  0  0  0  0
  193.2810  176.1830  138.0760 O   0  0  0  0  0  0  0  0  0  0  0  0
  194.0100  175.8460  136.9640 N   0  0  0  0  0  0  0  0  0  0  0  0
  188.7990  176.9650  139.4230 O   0  0  0  0  0  0  0  0  0  0  0  0
  192.2680  174.2360  136.2330 C   0  0  0  0  0  2  0  0  0  0  0  0
  189.7160  175.3510  135.4670 C   0  0  2  0  0  3  0  0  0  0  0  0
  188.2520  175.3540  135.0790 C   0  0  0  0  0  2  0  0  0  0  0  0
  191.9000  176.2050  137.7670 C   0  0  1  0  0  3  0  0  0  0  0  0
  189.9050  174.8490  136.9120 C   0  0  2  0  0  3  0  0  0  0  0  0
  189.7600  177.2290  138.6520 C   0  0  0  0  0  0  0  0  0  0  0  0
  191.3900  174.8200  137.3410 C   0  0  1  0  0  3  0  0  0  0  0  0
  191.5880  176.5460  140.1890 C   0  0  0  0  0  3  0  0  0  0  0  0
  191.8760  179.2490  144.0320 O   0  0  0  0  0  0  0  0  0  0  0  0
  189.0760  177.1200  142.9800 C   0  0  0  0  0  0  0  0  0  0  0  0
  189.6220  176.6780  141.8460 C   0  0  0  0  0  3  0  0  0  0  0  0
  189.8650  177.9680  143.9530 C   0  0  0  0  0  2  0  0  0  0  0  0
  191.1910  178.4040  143.4020 C   0  0  0  0  0  0  0  0  0  0  0  0
  191.0070  177.0190  141.4600 C   0  0  0  0  0  0  0  0  0  0  0  0
  191.6930  177.8520  142.1790 N   0  0  0  0  0  0  0  0  0  0  0  0
  187.7340  176.7370  143.2840 N   0  0  0  0  0  2  0  0  0  0  0  0
  185.6380  177.7410  143.1480 O   0  0  0  0  0  1  0  0  0  0  0  0
  186.4010  177.0450  145.2840 C   0  0  0  0  0  1  0  0  0  0  0  0
  186.7810  177.6210  143.9370 C   0  0  1  0  0  3  0  0  0  0  0  0
  186.4230  178.5510  137.4620 C   0  0  0  0  0  1  0  0  0  0  0  0
  187.0810  177.2330  137.0770 C   0  0  1  0  0  3  0  0  0  0  0  0
  186.2560  176.5860  136.1530 O   0  0  0  0  0  0  0  0  0  0  0  0
  185.5840  175.6060  136.8890 C   0  0  0  0  0  2  0  0  0  0  0  0
  183.4980  176.6510  136.0320 C   0  0  0  0  0  3  0  0  0  0  0  0
  182.1770  176.5870  135.5890 C   0  0  0  0  0  3  0  0  0  0  0  0
  183.5240  174.2390  136.3400 C   0  0  0  0  0  0  0  0  0  0  0  0
  182.1930  174.1780  135.8760 C   0  0  0  0  0  0  0  0  0  0  0  0
  181.5290  175.3540  135.5090 C   0  0  0  0  0  3  0  0  0  0  0  0
  184.1800  175.4860  136.3980 C   0  0  0  0  0  0  0  0  0  0  0  0
  181.4520  172.8830  135.7880 C   0  0  0  0  0  2  0  0  0  0  0  0
  180.9210  172.4910  137.1540 C   0  0  0  0  0  1  0  0  0  0  0  0
  184.2510  172.9850  136.7250 C   0  0  0  0  0  2  0  0  0  0  0  0
  184.5850  173.0320  138.0780 O   0  0  0  0  0  1  0  0  0  0  0  0
  194.2430  173.5550  137.4040 O   0  0  0  0  0  0  0  0  0  0  0  0
  195.4850  174.0600  137.7930 C   0  0  0  0  0  2  0  0  0  0  0  0
  196.4820  173.5570  136.9560 O   0  0  0  0  0  0  0  0  0  0  0  0
  197.3980  172.9650  137.8240 C   0  0  0  0  0  2  0  0  0  0  0  0
  198.5960  172.4530  137.0430 C   0  0  0  0  0  2  0  0  0  0  0  0
  198.6480  170.1920  136.7760 O   0  0  0  0  0  0  0  0  0  0  0  0
  197.3410  170.5030  136.9640 C   0  0  1  0  0  3  0  0  0  0  0  0
  198.1940  171.3570  136.1780 N   0  0  0  0  0  0  0  0  0  0  0  0
  196.4810  169.6560  136.0450 C   0  0  0  0  0  2  0  0  0  0  0  0
  195.1520  170.0730  136.1280 O   0  0  0  0  0  0  0  0  0  0  0  0
  195.0220  171.0420  135.1340 C   0  0  0  0  0  2  0  0  0  0  0  0
  192.7130  171.0910  135.6470 F   0  0  0  0  0  0  0  0  0  0  0  0
  193.6070  171.0290  134.5950 C   0  0  0  0  0  2  0  0  0  0  0  0
  194.0790  176.9140  135.9500 C   0  0  0  0  0  2  0  0  0  0  0  0
  195.7610  178.3230  134.7930 C   0  0  0  0  0  1  0  0  0  0  0  0
  196.4720  176.2310  135.8990 C   0  0  0  0  0  1  0  0  0  0  0  0
  195.3590  176.9040  135.1210 C   0  0  0  0  0  3  0  0  0  0  0  0
  1 12  1  6  0  0  0
  1 11  1  0  0  0  0
  1  2  1  0  0  0  0
  2 30  1  1  0  0  0
  2  6  1  0  0  0  0
  3  8  1  0  0  0  0
  3 43  1  1  0  0  0
  5 17  2  0  0  0  0
  6 15  1  0  0  0  0
  8  7  1  0  0  0  0
 10  3  1  0  0  0  0
 11 12  1  6  0  0  0
 11 14  1  0  0  0  0
 13  7  1  1  0  0  0
 13  5  1  0  0  0  0
 14  4  1  6  0  0  0
 14 16  1  0  0  0  0
 15  5  1  0  0  0  0
 15  9  2  0  0  0  0
 16 10  1  6  0  0  0
 16 13  1  0  0  0  0
 17 23  1  0  0  0  0
 19 25  1  0  0  0  0
 19 21  1  0  0  0  0
 20 19  2  0  0  0  0
 22 21  1  0  0  0  0
 22 18  2  0  0  0  0
 23 20  1  0  0  0  0
 23 24  2  0  0  0  0
 24 22  1  0  0  0  0
 25 28  1  0  0  0  0
 26 28  1  0  0  0  0
 28 27  1  1  0  0  0
 30 29  1  6  0  0  0
 31 32  1  0  0  0  0
 31 30  1  0  0  0  0
 33 38  1  0  0  0  0
 34 33  2  0  0  0  0
 35 38  2  0  0  0  0
 35 41  1  0  0  0  0
 36 35  1  0  0  0  0
 37 34  1  0  0  0  0
 37 36  2  0  0  0  0
 38 32  1  0  0  0  0
 39 36  1  0  0  0  0
 39 40  1  0  0  0  0
 41 42  1  0  0  0  0
 43 44  1  0  0  0  0
 45 44  1  0  0  0  0
 45 46  1  0  0  0  0
 47 46  1  0  0  0  0
 48 49  1  0  0  0  0
 49 51  1  6  0  0  0
 50 48  1  0  0  0  0
 50 49  1  0  0  0  0
 50 47  1  0  0  0  0
 51 52  1  0  0  0  0
 53 52  1  0  0  0  0
 55 53  1  0  0  0  0
 55 54  1  0  0  0  0
 56  8  1  0  0  0  0
 57 59  1  0  0  0  0
 59 58  1  0  0  0  0
 59 56  1  0  0  0  0
M  END
>  <MODEL>
4

>  <REMARK>
 VINA RESULT:      -3.9      6.005     12.316
  Name = 
  21 active torsions:
  status: ('A' for Active; 'I' for Inactive)
    1  A    between atoms: C_4  and  C_9
    2  A    between atoms: O_5  and  C_25
    3  A    between atoms: O_5  and  C_41
    4  A    between atoms: C_9  and  O_17
    5  A    between atoms: O_11  and  C_15
    6  A    between atoms: O_11  and  C_26
    7  A    between atoms: C_12  and  C_48
    8  A    between atoms: O_17  and  C_24
    9  A    between atoms: C_18  and  N_38
   10  A    between atoms: C_21  and  C_47
   11  A    between atoms: C_23  and  O_29
   12  A    between atoms: C_23  and  C_56
   13  A    between atoms: C_24  and  C_52
   14  A    between atoms: C_25  and  C_39
   15  A    between atoms: C_26  and  O_29
   16  A    between atoms: N_32  and  C_48
   17  A    between atoms: C_35  and  C_36
   18  A    between atoms: N_38  and  C_58
   19  A    between atoms: C_41  and  C_42
   20  A    between atoms: C_45  and  C_57
   21  A    between atoms: N_50  and  C_56
                            x       y       z     vdW  Elec       q    Type
                         _______ _______ _______ _____ _____    ______ ____

>  <TORSDO>
F 21

$$$$
=
 OpenBabel10222418153D

 59 64  0  0  1  0  0  0  0  0999 V2000
  188.0720  179.0350  137.2240 C   0  0  1  0  0  3  0  0  0  0  0  0
  187.7670  177.8480  136.2740 C   0  0  2  0  0  3  0  0  0  0  0  0
  184.1000  179.4140  140.8790 C   0  0  2  0  0  3  0  0  0  0  0  0
  187.9930  177.0290  140.3710 C   0  0  0  0  0  1  0  0  0  0  0  0
  184.7090  176.4700  137.8700 C   0  0  0  0  0  0  0  0  0  0  0  0
  186.3630  177.4430  136.2730 N   0  0  0  0  0  2  0  0  0  0  0  0
  183.3510  178.0120  139.1070 O   0  0  0  0  0  0  0  0  0  0  0  0
  183.2730  179.2590  139.6730 N   0  0  0  0  0  0  0  0  0  0  0  0
  186.4450  175.1880  136.8750 O   0  0  0  0  0  0  0  0  0  0  0  0
  185.5570  179.0430  140.6200 C   0  0  0  0  0  2  0  0  0  0  0  0
  187.7360  178.9300  138.7270 C   0  0  2  0  0  3  0  0  0  0  0  0
  189.1570  178.7300  138.2410 C   0  0  0  0  0  2  0  0  0  0  0  0
  184.6630  177.7730  138.6300 C   0  0  1  0  0  3  0  0  0  0  0  0
  187.1400  177.6100  139.2540 C   0  0  2  0  0  3  0  0  0  0  0  0
  185.8460  176.2950  136.9500 C   0  0  0  0  0  0  0  0  0  0  0  0
  185.6920  177.7760  139.7710 C   0  0  1  0  0  3  0  0  0  0  0  0
  183.8510  175.4870  138.1900 C   0  0  0  0  0  3  0  0  0  0  0  0
  181.1510  172.3530  135.9430 O   0  0  0  0  0  0  0  0  0  0  0  0
  184.7430  172.1220  136.6700 C   0  0  0  0  0  0  0  0  0  0  0  0
  184.8640  173.3040  137.2770 C   0  0  0  0  0  3  0  0  0  0  0  0
  183.3900  171.5890  136.2550 C   0  0  0  0  0  2  0  0  0  0  0  0
  182.2930  172.6020  136.4070 C   0  0  0  0  0  0  0  0  0  0  0  0
  183.6980  174.1700  137.5440 C   0  0  0  0  0  0  0  0  0  0  0  0
  182.5280  173.8380  137.0930 N   0  0  0  0  0  0  0  0  0  0  0  0
  185.9190  171.3410  136.4580 N   0  0  0  0  0  2  0  0  0  0  0  0
  187.0790  172.5560  134.8450 O   0  0  0  0  0  1  0  0  0  0  0  0
  187.7990  170.3420  135.3000 C   0  0  0  0  0  1  0  0  0  0  0  0
  186.6200  171.2850  135.1850 C   0  0  1  0  0  3  0  0  0  0  0  0
  188.8540  176.3420  134.5940 C   0  0  0  0  0  1  0  0  0  0  0  0
  188.7960  176.7200  136.0680 C   0  0  1  0  0  3  0  0  0  0  0  0
  190.0680  177.1450  136.4610 O   0  0  0  0  0  0  0  0  0  0  0  0
  190.9550  176.4480  135.6350 C   0  0  0  0  0  2  0  0  0  0  0  0
  192.5970  176.5690  137.4980 C   0  0  0  0  0  3  0  0  0  0  0  0
  193.6120  176.0250  138.2860 C   0  0  0  0  0  3  0  0  0  0  0  0
  192.4840  174.5120  136.2060 C   0  0  0  0  0  0  0  0  0  0  0  0
  193.5000  173.9620  137.0160 C   0  0  0  0  0  0  0  0  0  0  0  0
  194.0590  174.7260  138.0450 C   0  0  0  0  0  3  0  0  0  0  0  0
  192.0220  175.8180  136.4670 C   0  0  0  0  0  0  0  0  0  0  0  0
  194.0230  172.5800  136.7870 C   0  0  0  0  0  2  0  0  0  0  0  0
  195.2750  172.3520  137.6130 C   0  0  0  0  0  1  0  0  0  0  0  0
  191.8680  173.6980  135.1060 C   0  0  0  0  0  2  0  0  0  0  0  0
  190.7640  173.0020  135.5970 O   0  0  0  0  0  1  0  0  0  0  0  0
  183.5820  178.6260  141.9090 O   0  0  0  0  0  0  0  0  0  0  0  0
  184.4890  178.7700  142.9600 C   0  0  0  0  0  2  0  0  0  0  0  0
  183.9910  179.6820  143.8920 O   0  0  0  0  0  0  0  0  0  0  0  0
  184.8990  179.6290  144.9490 C   0  0  0  0  0  2  0  0  0  0  0  0
  185.6750  178.3240  144.9000 C   0  0  0  0  0  2  0  0  0  0  0  0
  186.7580  176.7380  146.1230 O   0  0  0  0  0  0  0  0  0  0  0  0
  187.5880  177.8100  146.1090 C   0  0  1  0  0  3  0  0  0  0  0  0
  186.1630  177.9860  146.2260 N   0  0  0  0  0  0  0  0  0  0  0  0
  188.2350  177.9700  147.4710 C   0  0  0  0  0  2  0  0  0  0  0  0
  189.4640  177.3090  147.4880 O   0  0  0  0  0  0  0  0  0  0  0  0
  189.8080  177.1640  146.1450 C   0  0  0  0  0  2  0  0  0  0  0  0
  191.7130  177.9630  144.9910 F   0  0  0  0  0  0  0  0  0  0  0  0
  191.3150  177.1180  146.0100 C   0  0  0  0  0  2  0  0  0  0  0  0
  183.3010  180.3610  138.6950 C   0  0  0  0  0  2  0  0  0  0  0  0
  180.9000  180.4110  139.3160 C   0  0  0  0  0  1  0  0  0  0  0  0
  181.9410  182.4070  138.2990 C   0  0  0  0  0  1  0  0  0  0  0  0
  181.9250  180.8920  138.3140 C   0  0  0  0  0  3  0  0  0  0  0  0
  1 12  1  1  0  0  0
  1 11  1  0  0  0  0
  2 30  1  1  0  0  0
  2  1  1  0  0  0  0
  3 43  1  1  0  0  0
  5 17  2  0  0  0  0
  6  2  1  0  0  0  0
  6 15  1  0  0  0  0
  7  8  1  0  0  0  0
  8  3  1  0  0  0  0
  9 15  2  0  0  0  0
 10  3  1  0  0  0  0
 11 12  1  1  0  0  0
 11 14  1  0  0  0  0
 13  5  1  1  0  0  0
 13  7  1  0  0  0  0
 13 16  1  0  0  0  0
 14 16  1  0  0  0  0
 14  4  1  1  0  0  0
 15  5  1  0  0  0  0
 16 10  1  6  0  0  0
 18 22  2  0  0  0  0
 19 20  2  0  0  0  0
 20 23  1  0  0  0  0
 21 22  1  0  0  0  0
 21 19  1  0  0  0  0
 22 24  1  0  0  0  0
 23 17  1  0  0  0  0
 24 23  2  0  0  0  0
 25 19  1  0  0  0  0
 26 28  1  0  0  0  0
 28 27  1  1  0  0  0
 28 25  1  0  0  0  0
 30 29  1  6  0  0  0
 30 31  1  0  0  0  0
 32 31  1  0  0  0  0
 32 38  1  0  0  0  0
 33 34  1  0  0  0  0
 35 38  1  0  0  0  0
 35 36  2  0  0  0  0
 36 37  1  0  0  0  0
 37 34  2  0  0  0  0
 38 33  2  0  0  0  0
 39 36  1  0  0  0  0
 39 40  1  0  0  0  0
 41 42  1  0  0  0  0
 41 35  1  0  0  0  0
 43 44  1  0  0  0  0
 44 45  1  0  0  0  0
 45 46  1  0  0  0  0
 47 46  1  0  0  0  0
 47 50  1  0  0  0  0
 48 50  1  0  0  0  0
 49 48  1  0  0  0  0
 49 50  1  0  0  0  0
 49 51  1  1  0  0  0
 51 52  1  0  0  0  0
 53 52  1  0  0  0  0
 54 55  1  0  0  0  0
 55 53  1  0  0  0  0
 56  8  1  0  0  0  0
 58 59  1  0  0  0  0
 59 56  1  0  0  0  0
 59 57  1  0  0  0  0
M  END
>  <MODEL>
5

>  <REMARK>
 VINA RESULT:      -3.7      3.813      7.957
  Name = 
  21 active torsions:
  status: ('A' for Active; 'I' for Inactive)
    1  A    between atoms: C_4  and  C_9
    2  A    between atoms: O_5  and  C_25
    3  A    between atoms: O_5  and  C_41
    4  A    between atoms: C_9  and  O_17
    5  A    between atoms: O_11  and  C_15
    6  A    between atoms: O_11  and  C_26
    7  A    between atoms: C_12  and  C_48
    8  A    between atoms: O_17  and  C_24
    9  A    between atoms: C_18  and  N_38
   10  A    between atoms: C_21  and  C_47
   11  A    between atoms: C_23  and  O_29
   12  A    between atoms: C_23  and  C_56
   13  A    between atoms: C_24  and  C_52
   14  A    between atoms: C_25  and  C_39
   15  A    between atoms: C_26  and  O_29
   16  A    between atoms: N_32  and  C_48
   17  A    between atoms: C_35  and  C_36
   18  A    between atoms: N_38  and  C_58
   19  A    between atoms: C_41  and  C_42
   20  A    between atoms: C_45  and  C_57
   21  A    between atoms: N_50  and  C_56
                            x       y       z     vdW  Elec       q    Type
                         _______ _______ _______ _____ _____    ______ ____

>  <TORSDO>
F 21

$$$$
=
 OpenBabel10222418153D

 59 64  0  0  1  0  0  0  0  0999 V2000
  188.8700  176.1070  136.4740 C   0  0  1  0  0  3  0  0  0  0  0  0
  189.7070  175.6620  137.7010 C   0  0  2  0  0  3  0  0  0  0  0  0
  184.6240  178.9800  138.2050 C   0  0  2  0  0  3  0  0  0  0  0  0
  189.0400  179.7630  137.2090 C   0  0  0  0  0  1  0  0  0  0  0  0
  187.8820  177.3940  140.4330 C   0  0  0  0  0  0  0  0  0  0  0  0
  188.9660  175.6950  138.9600 N   0  0  0  0  0  2  0  0  0  0  0  0
  185.5510  177.8230  140.0670 O   0  0  0  0  0  0  0  0  0  0  0  0
  184.5300  177.8600  139.1520 N   0  0  0  0  0  0  0  0  0  0  0  0
  190.2380  177.1190  140.3040 O   0  0  0  0  0  0  0  0  0  0  0  0
  185.9730  179.0100  137.4930 C   0  0  0  0  0  2  0  0  0  0  0  0
  188.2060  177.5000  136.4550 C   0  0  2  0  0  3  0  0  0  0  0  0
  189.4970  177.2530  135.7010 C   0  0  0  0  0  2  0  0  0  0  0  0
  186.7850  177.5890  139.4140 C   0  0  1  0  0  3  0  0  0  0  0  0
  188.4380  178.4390  137.6540 C   0  0  2  0  0  3  0  0  0  0  0  0
  189.0970  176.7120  139.9560 C   0  0  0  0  0  0  0  0  0  0  0  0
  187.1390  178.7260  138.4430 C   0  0  1  0  0  3  0  0  0  0  0  0
  187.7840  177.9910  141.6330 C   0  0  0  0  0  3  0  0  0  0  0  0
  192.0740  178.6430  143.4570 O   0  0  0  0  0  0  0  0  0  0  0  0
  189.0540  177.4510  145.1720 C   0  0  0  0  0  0  0  0  0  0  0  0
  188.2300  177.5230  144.1240 C   0  0  0  0  0  3  0  0  0  0  0  0
  190.5380  177.7030  145.0220 C   0  0  0  0  0  2  0  0  0  0  0  0
  190.9040  178.2310  143.6660 C   0  0  0  0  0  0  0  0  0  0  0  0
  188.7100  177.8870  142.7750 C   0  0  0  0  0  0  0  0  0  0  0  0
  189.9440  178.2490  142.6030 N   0  0  0  0  0  0  0  0  0  0  0  0
  188.5120  177.0830  146.4400 N   0  0  0  0  0  2  0  0  0  0  0  0
  186.5760  178.2210  147.0550 O   0  0  0  0  0  1  0  0  0  0  0  0
  188.0450  177.5140  148.7790 C   0  0  0  0  0  1  0  0  0  0  0  0
  187.9230  178.0390  147.3640 C   0  0  1  0  0  3  0  0  0  0  0  0
  191.4120  177.2240  138.6640 C   0  0  0  0  0  1  0  0  0  0  0  0
  191.2090  175.9930  137.7920 C   0  0  1  0  0  3  0  0  0  0  0  0
  191.9070  174.9280  138.3690 O   0  0  0  0  0  0  0  0  0  0  0  0
  192.3440  174.1530  137.2910 C   0  0  0  0  0  2  0  0  0  0  0  0
  194.5790  173.8710  138.3420 C   0  0  0  0  0  3  0  0  0  0  0  0
  195.9730  173.9300  138.3130 C   0  0  0  0  0  3  0  0  0  0  0  0
  194.4890  174.6280  136.0330 C   0  0  0  0  0  0  0  0  0  0  0  0
  195.8990  174.6700  136.0050 C   0  0  0  0  0  0  0  0  0  0  0  0
  196.6290  174.3260  137.1480 C   0  0  0  0  0  3  0  0  0  0  0  0
  193.8330  174.2070  137.2070 C   0  0  0  0  0  0  0  0  0  0  0  0
  196.6470  175.1030  134.7840 C   0  0  0  0  0  2  0  0  0  0  0  0
  198.1170  175.2870  135.1100 C   0  0  0  0  0  1  0  0  0  0  0  0
  193.6960  174.9840  134.8100 C   0  0  0  0  0  2  0  0  0  0  0  0
  193.5150  176.3660  134.7520 O   0  0  0  0  0  1  0  0  0  0  0  0
  184.4140  180.1850  138.8790 O   0  0  0  0  0  0  0  0  0  0  0  0
  183.0630  180.4750  138.6810 C   0  0  0  0  0  2  0  0  0  0  0  0
  182.3050  179.9280  139.7170 O   0  0  0  0  0  0  0  0  0  0  0  0
  180.9940  180.2970  139.4210 C   0  0  0  0  0  2  0  0  0  0  0  0
  180.0410  179.6810  140.4310 C   0  0  0  0  0  2  0  0  0  0  0  0
  179.4140  179.6460  142.6190 O   0  0  0  0  0  0  0  0  0  0  0  0
  180.4940  178.8300  142.5420 C   0  0  1  0  0  3  0  0  0  0  0  0
  180.4390  180.0500  141.7780 N   0  0  0  0  0  0  0  0  0  0  0  0
  181.3710  179.0310  143.7630 C   0  0  0  0  0  2  0  0  0  0  0  0
  182.6270  178.4660  143.5380 O   0  0  0  0  0  0  0  0  0  0  0  0
  183.4680  179.0950  144.4560 C   0  0  0  0  0  2  0  0  0  0  0  0
  185.2760  179.8260  143.1180 F   0  0  0  0  0  0  0  0  0  0  0  0
  184.9110  178.8770  144.0540 C   0  0  0  0  0  2  0  0  0  0  0  0
  184.1800  176.5400  138.5950 C   0  0  0  0  0  2  0  0  0  0  0  0
  184.9670  175.5890  136.4440 C   0  0  0  0  0  1  0  0  0  0  0  0
  182.5680  176.0890  136.7540 C   0  0  0  0  0  1  0  0  0  0  0  0
  183.9780  176.5350  137.0850 C   0  0  0  0  0  3  0  0  0  0  0  0
  1 12  1  6  0  0  0
  1  2  1  0  0  0  0
  2 30  1  1  0  0  0
  2  6  1  0  0  0  0
  3 43  1  1  0  0  0
  3  8  1  0  0  0  0
  5 17  2  0  0  0  0
  6 15  1  0  0  0  0
  8  7  1  0  0  0  0
 10  3  1  0  0  0  0
 11 12  1  6  0  0  0
 11  1  1  0  0  0  0
 11 14  1  0  0  0  0
 13  7  1  1  0  0  0
 13  5  1  0  0  0  0
 14  4  1  6  0  0  0
 14 16  1  0  0  0  0
 15  9  2  0  0  0  0
 15  5  1  0  0  0  0
 16 10  1  6  0  0  0
 16 13  1  0  0  0  0
 17 23  1  0  0  0  0
 18 22  2  0  0  0  0
 19 25  1  0  0  0  0
 20 19  2  0  0  0  0
 21 19  1  0  0  0  0
 22 21  1  0  0  0  0
 23 20  1  0  0  0  0
 24 23  2  0  0  0  0
 24 22  1  0  0  0  0
 25 28  1  0  0  0  0
 26 28  1  0  0  0  0
 28 27  1  1  0  0  0
 30 31  1  0  0  0  0
 30 29  1  1  0  0  0
 32 31  1  0  0  0  0
 34 33  1  0  0  0  0
 35 38  1  0  0  0  0
 36 35  2  0  0  0  0
 36 37  1  0  0  0  0
 37 34  2  0  0  0  0
 38 32  1  0  0  0  0
 38 33  2  0  0  0  0
 39 40  1  0  0  0  0
 39 36  1  0  0  0  0
 41 35  1  0  0  0  0
 42 41  1  0  0  0  0
 44 43  1  0  0  0  0
 44 45  1  0  0  0  0
 46 45  1  0  0  0  0
 46 47  1  0  0  0  0
 47 50  1  0  0  0  0
 49 48  1  0  0  0  0
 49 51  1  1  0  0  0
 50 49  1  0  0  0  0
 50 48  1  0  0  0  0
 52 51  1  0  0  0  0
 52 53  1  0  0  0  0
 54 55  1  0  0  0  0
 55 53  1  0  0  0  0
 56  8  1  0  0  0  0
 57 59  1  0  0  0  0
 58 59  1  0  0  0  0
 59 56  1  0  0  0  0
M  END
>  <MODEL>
6

>  <REMARK>
 VINA RESULT:      -3.6      4.474      8.542
  Name = 
  21 active torsions:
  status: ('A' for Active; 'I' for Inactive)
    1  A    between atoms: C_4  and  C_9
    2  A    between atoms: O_5  and  C_25
    3  A    between atoms: O_5  and  C_41
    4  A    between atoms: C_9  and  O_17
    5  A    between atoms: O_11  and  C_15
    6  A    between atoms: O_11  and  C_26
    7  A    between atoms: C_12  and  C_48
    8  A    between atoms: O_17  and  C_24
    9  A    between atoms: C_18  and  N_38
   10  A    between atoms: C_21  and  C_47
   11  A    between atoms: C_23  and  O_29
   12  A    between atoms: C_23  and  C_56
   13  A    between atoms: C_24  and  C_52
   14  A    between atoms: C_25  and  C_39
   15  A    between atoms: C_26  and  O_29
   16  A    between atoms: N_32  and  C_48
   17  A    between atoms: C_35  and  C_36
   18  A    between atoms: N_38  and  C_58
   19  A    between atoms: C_41  and  C_42
   20  A    between atoms: C_45  and  C_57
   21  A    between atoms: N_50  and  C_56
                            x       y       z     vdW  Elec       q    Type
                         _______ _______ _______ _____ _____    ______ ____

>  <TORSDO>
F 21

$$$$
=
 OpenBabel10222418153D

 59 64  0  0  1  0  0  0  0  0999 V2000
  189.0340  176.1560  136.5220 C   0  0  1  0  0  3  0  0  0  0  0  0
  189.8400  175.7510  137.7840 C   0  0  2  0  0  3  0  0  0  0  0  0
  184.6670  178.9550  138.0640 C   0  0  2  0  0  3  0  0  0  0  0  0
  189.0940  179.8260  137.2000 C   0  0  0  0  0  1  0  0  0  0  0  0
  187.8850  177.4830  140.4240 C   0  0  0  0  0  0  0  0  0  0  0  0
  189.0570  175.7860  139.0170 N   0  0  0  0  0  2  0  0  0  0  0  0
  185.5580  177.8510  139.9760 O   0  0  0  0  0  0  0  0  0  0  0  0
  184.5670  177.8480  139.0270 N   0  0  0  0  0  0  0  0  0  0  0  0
  190.2500  177.2620  140.3770 O   0  0  0  0  0  0  0  0  0  0  0  0
  186.0380  179.0060  137.3970 C   0  0  0  0  0  2  0  0  0  0  0  0
  188.3380  177.5330  136.4580 C   0  0  2  0  0  3  0  0  0  0  0  0
  189.6580  177.3040  135.7500 C   0  0  0  0  0  2  0  0  0  0  0  0
  186.8180  177.6360  139.3680 C   0  0  1  0  0  3  0  0  0  0  0  0
  188.5080  178.4960  137.6480 C   0  0  2  0  0  3  0  0  0  0  0  0
  189.1310  176.8230  139.9990 C   0  0  0  0  0  0  0  0  0  0  0  0
  187.1780  178.7650  138.3890 C   0  0  1  0  0  3  0  0  0  0  0  0
  187.7340  178.0970  141.6100 C   0  0  0  0  0  3  0  0  0  0  0  0
  191.7660  179.2980  143.7200 O   0  0  0  0  0  0  0  0  0  0  0  0
  188.9610  177.4010  145.1370 C   0  0  0  0  0  0  0  0  0  0  0  0
  188.1740  177.4410  144.0600 C   0  0  0  0  0  3  0  0  0  0  0  0
  190.3770  177.9300  145.0940 C   0  0  0  0  0  2  0  0  0  0  0  0
  190.6860  178.6620  143.8220 C   0  0  0  0  0  0  0  0  0  0  0  0
  188.6240  178.0340  142.7840 C   0  0  0  0  0  0  0  0  0  0  0  0
  189.7760  178.6280  142.7160 N   0  0  0  0  0  0  0  0  0  0  0  0
  188.4530  176.8020  146.3300 N   0  0  0  0  0  2  0  0  0  0  0  0
  190.4850  176.5190  147.4300 O   0  0  0  0  0  1  0  0  0  0  0  0
  189.0530  178.2610  148.1690 C   0  0  0  0  0  1  0  0  0  0  0  0
  189.1450  176.8580  147.6070 C   0  0  1  0  0  3  0  0  0  0  0  0
  191.4990  177.1930  138.9830 C   0  0  0  0  0  1  0  0  0  0  0  0
  191.3300  176.1190  137.9170 C   0  0  1  0  0  3  0  0  0  0  0  0
  192.0740  175.0000  138.3020 O   0  0  0  0  0  0  0  0  0  0  0  0
  193.2740  175.1000  137.5920 C   0  0  0  0  0  2  0  0  0  0  0  0
  192.8710  173.1660  136.0830 C   0  0  0  0  0  3  0  0  0  0  0  0
  193.1860  171.9000  135.5870 C   0  0  0  0  0  3  0  0  0  0  0  0
  194.7720  173.0580  137.5960 C   0  0  0  0  0  0  0  0  0  0  0  0
  195.0950  171.7850  137.0800 C   0  0  0  0  0  0  0  0  0  0  0  0
  194.2950  171.2150  136.0840 C   0  0  0  0  0  3  0  0  0  0  0  0
  193.6620  173.7550  137.0750 C   0  0  0  0  0  0  0  0  0  0  0  0
  196.2640  171.0050  137.5910 C   0  0  0  0  0  2  0  0  0  0  0  0
  197.4610  171.2020  136.6800 C   0  0  0  0  0  1  0  0  0  0  0  0
  195.6280  173.6850  138.6560 C   0  0  0  0  0  2  0  0  0  0  0  0
  196.7360  174.2940  138.0670 O   0  0  0  0  0  1  0  0  0  0  0  0
  184.4060  180.1650  138.7110 O   0  0  0  0  0  0  0  0  0  0  0  0
  183.0390  180.1350  138.9900 C   0  0  0  0  0  2  0  0  0  0  0  0
  182.8370  179.7800  140.3250 O   0  0  0  0  0  0  0  0  0  0  0  0
  181.5050  179.3730  140.3780 C   0  0  0  0  0  2  0  0  0  0  0  0
  181.2100  178.7400  141.7260 C   0  0  0  0  0  2  0  0  0  0  0  0
  181.3590  178.9840  143.9850 O   0  0  0  0  0  0  0  0  0  0  0  0
  182.6150  178.6780  143.5730 C   0  0  1  0  0  3  0  0  0  0  0  0
  181.7760  179.5500  142.7910 N   0  0  0  0  0  0  0  0  0  0  0  0
  183.6210  179.5020  144.3530 C   0  0  0  0  0  2  0  0  0  0  0  0
  183.7350  179.0000  145.6500 O   0  0  0  0  0  0  0  0  0  0  0  0
  184.9640  178.3430  145.6680 C   0  0  0  0  0  2  0  0  0  0  0  0
  185.6360  179.9250  147.2930 F   0  0  0  0  0  0  0  0  0  0  0  0
  185.6440  178.5750  147.0010 C   0  0  0  0  0  2  0  0  0  0  0  0
  184.2670  176.5120  138.4810 C   0  0  0  0  0  2  0  0  0  0  0  0
  182.5950  174.8850  137.6380 C   0  0  0  0  0  1  0  0  0  0  0  0
  182.0740  176.2530  139.6280 C   0  0  0  0  0  1  0  0  0  0  0  0
  182.7800  176.2380  138.2880 C   0  0  0  0  0  3  0  0  0  0  0  0
  1 12  1  6  0  0  0
  1  2  1  0  0  0  0
  2 30  1  1  0  0  0
  2  6  1  0  0  0  0
  3 43  1  1  0  0  0
  3  8  1  0  0  0  0
  5 17  2  0  0  0  0
  6 15  1  0  0  0  0
  8  7  1  0  0  0  0
 10  3  1  0  0  0  0
 11 12  1  6  0  0  0
 11  1  1  0  0  0  0
 11 14  1  0  0  0  0
 13  7  1  1  0  0  0
 13  5  1  0  0  0  0
 14  4  1  6  0  0  0
 14 16  1  0  0  0  0
 15  9  2  0  0  0  0
 15  5  1  0  0  0  0
 16 10  1  6  0  0  0
 16 13  1  0  0  0  0
 17 23  1  0  0  0  0
 18 22  2  0  0  0  0
 19 25  1  0  0  0  0
 20 19  2  0  0  0  0
 21 19  1  0  0  0  0
 22 21  1  0  0  0  0
 23 20  1  0  0  0  0
 24 23  2  0  0  0  0
 24 22  1  0  0  0  0
 25 28  1  0  0  0  0
 26 28  1  0  0  0  0
 28 27  1  6  0  0  0
 30 31  1  0  0  0  0
 30 29  1  1  0  0  0
 32 31  1  0  0  0  0
 33 38  1  0  0  0  0
 34 33  2  0  0  0  0
 34 37  1  0  0  0  0
 35 41  1  0  0  0  0
 36 39  1  0  0  0  0
 36 35  1  0  0  0  0
 37 36  2  0  0  0  0
 38 32  1  0  0  0  0
 38 35  2  0  0  0  0
 40 39  1  0  0  0  0
 42 41  1  0  0  0  0
 43 44  1  0  0  0  0
 44 45  1  0  0  0  0
 45 46  1  0  0  0  0
 46 47  1  0  0  0  0
 47 50  1  0  0  0  0
 49 48  1  0  0  0  0
 49 51  1  1  0  0  0
 50 49  1  0  0  0  0
 50 48  1  0  0  0  0
 51 52  1  0  0  0  0
 52 53  1  0  0  0  0
 53 55  1  0  0  0  0
 55 54  1  0  0  0  0
 56  8  1  0  0  0  0
 57 59  1  0  0  0  0
 59 56  1  0  0  0  0
 59 58  1  0  0  0  0
M  END
>  <MODEL>
7

>  <REMARK>
 VINA RESULT:      -3.5      4.684      8.780
  Name = 
  21 active torsions:
  status: ('A' for Active; 'I' for Inactive)
    1  A    between atoms: C_4  and  C_9
    2  A    between atoms: O_5  and  C_25
    3  A    between atoms: O_5  and  C_41
    4  A    between atoms: C_9  and  O_17
    5  A    between atoms: O_11  and  C_15
    6  A    between atoms: O_11  and  C_26
    7  A    between atoms: C_12  and  C_48
    8  A    between atoms: O_17  and  C_24
    9  A    between atoms: C_18  and  N_38
   10  A    between atoms: C_21  and  C_47
   11  A    between atoms: C_23  and  O_29
   12  A    between atoms: C_23  and  C_56
   13  A    between atoms: C_24  and  C_52
   14  A    between atoms: C_25  and  C_39
   15  A    between atoms: C_26  and  O_29
   16  A    between atoms: N_32  and  C_48
   17  A    between atoms: C_35  and  C_36
   18  A    between atoms: N_38  and  C_58
   19  A    between atoms: C_41  and  C_42
   20  A    between atoms: C_45  and  C_57
   21  A    between atoms: N_50  and  C_56
                            x       y       z     vdW  Elec       q    Type
                         _______ _______ _______ _____ _____    ______ ____

>  <TORSDO>
F 21

$$$$
=
 OpenBabel10222418153D

 59 64  0  0  1  0  0  0  0  0999 V2000
  188.3890  176.9640  135.6340 C   0  0  1  0  0  3  0  0  0  0  0  0
  188.1090  177.8310  136.8890 C   0  0  2  0  0  3  0  0  0  0  0  0
  192.8870  174.0770  136.4740 C   0  0  2  0  0  3  0  0  0  0  0  0
  188.4110  173.6940  137.4340 C   0  0  0  0  0  1  0  0  0  0  0  0
  190.8020  176.6400  139.1520 C   0  0  0  0  0  0  0  0  0  0  0  0
  189.2800  178.0270  137.7400 N   0  0  0  0  0  2  0  0  0  0  0  0
  192.7930  175.8030  138.1100 O   0  0  0  0  0  0  0  0  0  0  0  0
  193.3760  175.3820  136.9420 N   0  0  0  0  0  0  0  0  0  0  0  0
  188.5900  177.2020  139.8130 O   0  0  0  0  0  0  0  0  0  0  0  0
  191.3670  174.0520  136.3450 C   0  0  0  0  0  2  0  0  0  0  0  0
  188.9520  175.5350  135.7910 C   0  0  2  0  0  3  0  0  0  0  0  0
  187.4770  175.7550  135.5200 C   0  0  0  0  0  2  0  0  0  0  0  0
  191.4100  176.0300  137.9130 C   0  0  1  0  0  3  0  0  0  0  0  0
  189.1780  174.9890  137.2130 C   0  0  2  0  0  3  0  0  0  0  0  0
  189.5170  177.3370  138.9700 C   0  0  0  0  0  0  0  0  0  0  0  0
  190.6720  174.7390  137.5230 C   0  0  1  0  0  3  0  0  0  0  0  0
  191.3410  176.3730  140.3530 C   0  0  0  0  0  3  0  0  0  0  0  0
  192.2590  179.0590  144.1090 O   0  0  0  0  0  0  0  0  0  0  0  0
  189.1840  177.1930  143.3710 C   0  0  0  0  0  0  0  0  0  0  0  0
  189.5720  176.6960  142.1940 C   0  0  0  0  0  3  0  0  0  0  0  0
  190.1410  177.9700  144.2480 C   0  0  0  0  0  2  0  0  0  0  0  0
  191.4400  178.2780  143.5620 C   0  0  0  0  0  0  0  0  0  0  0  0
  190.9360  176.9050  141.6680 C   0  0  0  0  0  0  0  0  0  0  0  0
  191.7650  177.6750  142.3030 N   0  0  0  0  0  0  0  0  0  0  0  0
  187.8510  176.9380  143.8120 N   0  0  0  0  0  2  0  0  0  0  0  0
  185.6630  177.7180  143.9880 O   0  0  0  0  0  1  0  0  0  0  0  0
  187.0830  177.9510  145.8760 C   0  0  0  0  0  1  0  0  0  0  0  0
  186.9830  177.9660  144.3650 C   0  0  1  0  0  3  0  0  0  0  0  0
  186.3790  179.1250  138.1560 C   0  0  0  0  0  1  0  0  0  0  0  0
  186.7510  177.7520  137.6130 C   0  0  1  0  0  3  0  0  0  0  0  0
  185.7500  177.3460  136.7260 O   0  0  0  0  0  0  0  0  0  0  0  0
  184.6080  177.1860  137.5160 C   0  0  0  0  0  2  0  0  0  0  0  0
  183.3380  177.1670  135.3790 C   0  0  0  0  0  3  0  0  0  0  0  0
  182.2340  177.5070  134.5960 C   0  0  0  0  0  3  0  0  0  0  0  0
  182.3470  178.3030  137.2870 C   0  0  0  0  0  0  0  0  0  0  0  0
  181.2260  178.6300  136.4950 C   0  0  0  0  0  0  0  0  0  0  0  0
  181.1820  178.2340  135.1540 C   0  0  0  0  0  3  0  0  0  0  0  0
  183.3970  177.5500  136.7230 C   0  0  0  0  0  0  0  0  0  0  0  0
  180.0820  179.4210  137.0430 C   0  0  0  0  0  2  0  0  0  0  0  0
  178.9320  178.4970  137.3990 C   0  0  0  0  0  1  0  0  0  0  0  0
  182.4010  178.7130  138.7290 C   0  0  0  0  0  2  0  0  0  0  0  0
  183.0770  179.9270  138.8490 O   0  0  0  0  0  1  0  0  0  0  0  0
  193.3090  173.0750  137.3520 O   0  0  0  0  0  0  0  0  0  0  0  0
  194.6790  173.2870  137.5070 C   0  0  0  0  0  2  0  0  0  0  0  0
  195.3350  172.0620  137.6350 O   0  0  0  0  0  0  0  0  0  0  0  0
  195.0450  171.3880  136.4490 C   0  0  0  0  0  2  0  0  0  0  0  0
  195.8380  170.0940  136.3820 C   0  0  0  0  0  2  0  0  0  0  0  0
  197.9040  170.2750  135.4420 O   0  0  0  0  0  0  0  0  0  0  0  0
  197.6010  171.5200  135.8880 C   0  0  1  0  0  3  0  0  0  0  0  0
  197.2400  170.3550  136.6560 N   0  0  0  0  0  0  0  0  0  0  0  0
  198.8400  172.1600  136.4840 C   0  0  0  0  0  2  0  0  0  0  0  0
  198.4910  172.8890  137.6220 O   0  0  0  0  0  0  0  0  0  0  0  0
  198.2690  174.1850  137.1590 C   0  0  0  0  0  2  0  0  0  0  0  0
  197.1200  174.2160  139.2270 F   0  0  0  0  0  0  0  0  0  0  0  0
  197.7040  175.0340  138.2790 C   0  0  0  0  0  2  0  0  0  0  0  0
  193.5200  176.4450  135.9300 C   0  0  0  0  0  2  0  0  0  0  0  0
  195.4930  177.5570  134.9190 C   0  0  0  0  0  1  0  0  0  0  0  0
  195.6170  175.1670  135.5300 C   0  0  0  0  0  1  0  0  0  0  0  0
  194.7150  176.2630  135.0020 C   0  0  0  0  0  3  0  0  0  0  0  0
  1 12  1  1  0  0  0
  1 11  1  0  0  0  0
  1  2  1  0  0  0  0
  2 30  1  1  0  0  0
  2  6  1  0  0  0  0
  3  8  1  0  0  0  0
  3 43  1  1  0  0  0
  5 17  2  0  0  0  0
  6 15  1  0  0  0  0
  8  7  1  0  0  0  0
 10  3  1  0  0  0  0
 11 12  1  1  0  0  0
 11 14  1  0  0  0  0
 13  7  1  1  0  0  0
 13  5  1  0  0  0  0
 14  4  1  6  0  0  0
 14 16  1  0  0  0  0
 15  5  1  0  0  0  0
 15  9  2  0  0  0  0
 16 10  1  6  0  0  0
 16 13  1  0  0  0  0
 17 23  1  0  0  0  0
 19 25  1  0  0  0  0
 19 21  1  0  0  0  0
 20 19  2  0  0  0  0
 22 18  2  0  0  0  0
 22 21  1  0  0  0  0
 23 20  1  0  0  0  0
 23 24  2  0  0  0  0
 24 22  1  0  0  0  0
 25 28  1  0  0  0  0
 26 28  1  0  0  0  0
 28 27  1  1  0  0  0
 30 29  1  6  0  0  0
 31 32  1  0  0  0  0
 31 30  1  0  0  0  0
 33 38  1  0  0  0  0
 34 37  1  0  0  0  0
 34 33  2  0  0  0  0
 35 41  1  0  0  0  0
 36 39  1  0  0  0  0
 36 35  1  0  0  0  0
 37 36  2  0  0  0  0
 38 35  2  0  0  0  0
 38 32  1  0  0  0  0
 39 40  1  0  0  0  0
 41 42  1  0  0  0  0
 43 44  1  0  0  0  0
 44 45  1  0  0  0  0
 46 45  1  0  0  0  0
 47 46  1  0  0  0  0
 47 50  1  0  0  0  0
 48 49  1  0  0  0  0
 48 50  1  0  0  0  0
 49 51  1  1  0  0  0
 49 50  1  0  0  0  0
 51 52  1  0  0  0  0
 53 52  1  0  0  0  0
 53 55  1  0  0  0  0
 55 54  1  0  0  0  0
 56  8  1  0  0  0  0
 57 59  1  0  0  0  0
 59 58  1  0  0  0  0
 59 56  1  0  0  0  0
M  END
>  <MODEL>
8

>  <REMARK>
 VINA RESULT:      -3.5      6.043     12.378
  Name = 
  21 active torsions:
  status: ('A' for Active; 'I' for Inactive)
    1  A    between atoms: C_4  and  C_9
    2  A    between atoms: O_5  and  C_25
    3  A    between atoms: O_5  and  C_41
    4  A    between atoms: C_9  and  O_17
    5  A    between atoms: O_11  and  C_15
    6  A    between atoms: O_11  and  C_26
    7  A    between atoms: C_12  and  C_48
    8  A    between atoms: O_17  and  C_24
    9  A    between atoms: C_18  and  N_38
   10  A    between atoms: C_21  and  C_47
   11  A    between atoms: C_23  and  O_29
   12  A    between atoms: C_23  and  C_56
   13  A    between atoms: C_24  and  C_52
   14  A    between atoms: C_25  and  C_39
   15  A    between atoms: C_26  and  O_29
   16  A    between atoms: N_32  and  C_48
   17  A    between atoms: C_35  and  C_36
   18  A    between atoms: N_38  and  C_58
   19  A    between atoms: C_41  and  C_42
   20  A    between atoms: C_45  and  C_57
   21  A    between atoms: N_50  and  C_56
                            x       y       z     vdW  Elec       q    Type
                         _______ _______ _______ _____ _____    ______ ____

>  <TORSDO>
F 21

$$$$
=
 OpenBabel10222418153D

 59 64  0  0  1  0  0  0  0  0999 V2000
  191.0870  175.3070  135.3530 C   0  0  1  0  0  3  0  0  0  0  0  0
  191.7310  175.2370  136.7620 C   0  0  2  0  0  3  0  0  0  0  0  0
  185.8350  176.4930  135.8890 C   0  0  2  0  0  3  0  0  0  0  0  0
  189.8050  178.7960  135.6970 C   0  0  0  0  0  1  0  0  0  0  0  0
  188.8570  176.2740  138.8740 C   0  0  0  0  0  0  0  0  0  0  0  0
  190.7640  175.0390  137.8400 N   0  0  0  0  0  2  0  0  0  0  0  0
  186.6660  175.8140  138.0140 O   0  0  0  0  0  0  0  0  0  0  0  0
  185.9280  175.4460  136.9180 N   0  0  0  0  0  0  0  0  0  0  0  0
  191.1270  176.8720  139.2410 O   0  0  0  0  0  0  0  0  0  0  0  0
  187.2110  176.9880  135.4570 C   0  0  0  0  0  2  0  0  0  0  0  0
  190.0010  176.3620  135.0500 C   0  0  2  0  0  3  0  0  0  0  0  0
  191.4310  176.5760  134.5950 C   0  0  0  0  0  2  0  0  0  0  0  0
  188.0170  176.0240  137.6450 C   0  0  1  0  0  3  0  0  0  0  0  0
  189.6180  177.3590  136.1600 C   0  0  2  0  0  3  0  0  0  0  0  0
  190.3080  176.0660  138.7230 C   0  0  0  0  0  0  0  0  0  0  0  0
  188.1600  177.1790  136.6420 C   0  0  1  0  0  3  0  0  0  0  0  0
  188.2930  176.8330  139.9580 C   0  0  0  0  0  3  0  0  0  0  0  0
  191.8580  178.6230  142.4570 O   0  0  0  0  0  0  0  0  0  0  0  0
  188.7320  177.1650  143.7160 C   0  0  0  0  0  0  0  0  0  0  0  0
  188.1870  176.8940  142.5290 C   0  0  0  0  0  3  0  0  0  0  0  0
  190.1510  177.6780  143.8300 C   0  0  0  0  0  2  0  0  0  0  0  0
  190.7500  178.0290  142.5000 C   0  0  0  0  0  0  0  0  0  0  0  0
  188.9180  177.1110  141.2640 C   0  0  0  0  0  0  0  0  0  0  0  0
  190.0860  177.6760  141.2800 N   0  0  0  0  0  0  0  0  0  0  0  0
  187.9610  176.9180  144.8920 N   0  0  0  0  0  2  0  0  0  0  0  0
  186.4900  178.0180  146.3240 O   0  0  0  0  0  1  0  0  0  0  0  0
  188.6090  177.3820  147.1810 C   0  0  0  0  0  1  0  0  0  0  0  0
  187.8330  177.8760  145.9790 C   0  0  1  0  0  3  0  0  0  0  0  0
  193.5700  175.6150  138.4190 C   0  0  0  0  0  1  0  0  0  0  0  0
  192.9630  176.0940  137.1080 C   0  0  1  0  0  3  0  0  0  0  0  0
  193.9330  175.9770  136.1080 O   0  0  0  0  0  0  0  0  0  0  0  0
  194.4360  174.6790  136.2410 C   0  0  0  0  0  2  0  0  0  0  0  0
  196.4640  175.7010  135.2310 C   0  0  0  0  0  3  0  0  0  0  0  0
  197.8380  175.7360  134.9860 C   0  0  0  0  0  3  0  0  0  0  0  0
  196.7440  173.6890  136.5680 C   0  0  0  0  0  0  0  0  0  0  0  0
  198.1330  173.7390  136.3300 C   0  0  0  0  0  0  0  0  0  0  0  0
  198.6680  174.7590  135.5370 C   0  0  0  0  0  3  0  0  0  0  0  0
  195.9130  174.6910  136.0270 C   0  0  0  0  0  0  0  0  0  0  0  0
  199.0620  172.7060  136.8850 C   0  0  0  0  0  2  0  0  0  0  0  0
  198.9240  171.4100  136.1100 C   0  0  0  0  0  1  0  0  0  0  0  0
  196.1600  172.6060  137.4270 C   0  0  0  0  0  2  0  0  0  0  0  0
  196.0110  173.0710  138.7340 O   0  0  0  0  0  1  0  0  0  0  0  0
  185.0730  177.5600  136.3720 O   0  0  0  0  0  0  0  0  0  0  0  0
  184.2160  176.9910  137.3150 C   0  0  0  0  0  2  0  0  0  0  0  0
  183.3030  177.9470  137.7610 O   0  0  0  0  0  0  0  0  0  0  0  0
  182.8750  177.4680  138.9980 C   0  0  0  0  0  2  0  0  0  0  0  0
  181.7360  178.3270  139.5210 C   0  0  0  0  0  2  0  0  0  0  0  0
  180.0030  179.6910  138.9540 O   0  0  0  0  0  0  0  0  0  0  0  0
  181.1230  180.4300  138.7540 C   0  0  1  0  0  3  0  0  0  0  0  0
  181.0980  179.0290  138.4210 N   0  0  0  0  0  0  0  0  0  0  0  0
  180.9670  181.2580  137.4930 C   0  0  0  0  0  2  0  0  0  0  0  0
  180.0920  182.3180  137.7320 O   0  0  0  0  0  0  0  0  0  0  0  0
  180.8770  183.4630  137.6000 C   0  0  0  0  0  2  0  0  0  0  0  0
  181.3760  184.9010  135.7890 F   0  0  0  0  0  0  0  0  0  0  0  0
  180.3290  184.3280  136.4850 C   0  0  0  0  0  2  0  0  0  0  0  0
  186.1930  174.0730  136.4530 C   0  0  0  0  0  2  0  0  0  0  0  0
  184.0450  173.7160  137.6410 C   0  0  0  0  0  1  0  0  0  0  0  0
  184.3470  172.8080  135.3640 C   0  0  0  0  0  1  0  0  0  0  0  0
  185.0380  173.1040  136.6790 C   0  0  0  0  0  3  0  0  0  0  0  0
  1 12  1  6  0  0  0
  1  2  1  0  0  0  0
  2 30  1  1  0  0  0
  2  6  1  0  0  0  0
  3 43  1  1  0  0  0
  3  8  1  0  0  0  0
  5 17  2  0  0  0  0
  6 15  1  0  0  0  0
  8  7  1  0  0  0  0
 10  3  1  0  0  0  0
 11 12  1  6  0  0  0
 11  1  1  0  0  0  0
 11 14  1  0  0  0  0
 13  7  1  1  0  0  0
 13  5  1  0  0  0  0
 14  4  1  6  0  0  0
 14 16  1  0  0  0  0
 15  5  1  0  0  0  0
 15  9  2  0  0  0  0
 16 10  1  6  0  0  0
 16 13  1  0  0  0  0
 17 23  1  0  0  0  0
 18 22  2  0  0  0  0
 19 21  1  0  0  0  0
 19 25  1  0  0  0  0
 20 19  2  0  0  0  0
 22 21  1  0  0  0  0
 23 24  2  0  0  0  0
 23 20  1  0  0  0  0
 24 22  1  0  0  0  0
 25 28  1  0  0  0  0
 28 26  1  0  0  0  0
 28 27  1  1  0  0  0
 30 29  1  1  0  0  0
 31 32  1  0  0  0  0
 31 30  1  0  0  0  0
 33 38  1  0  0  0  0
 34 33  2  0  0  0  0
 34 37  1  0  0  0  0
 35 41  1  0  0  0  0
 36 35  1  0  0  0  0
 36 39  1  0  0  0  0
 37 36  2  0  0  0  0
 38 32  1  0  0  0  0
 38 35  2  0  0  0  0
 40 39  1  0  0  0  0
 41 42  1  0  0  0  0
 43 44  1  0  0  0  0
 44 45  1  0  0  0  0
 45 46  1  0  0  0  0
 46 47  1  0  0  0  0
 49 51  1  6  0  0  0
 49 48  1  0  0  0  0
 50 49  1  0  0  0  0
 50 48  1  0  0  0  0
 50 47  1  0  0  0  0
 51 52  1  0  0  0  0
 53 52  1  0  0  0  0
 54 55  1  0  0  0  0
 55 53  1  0  0  0  0
 56 59  1  0  0  0  0
 56  8  1  0  0  0  0
 58 59  1  0  0  0  0
 59 57  1  0  0  0  0
M  END
>  <MODEL>
9

>  <REMARK>
 VINA RESULT:      -3.4      5.364      9.313
  Name = 
  21 active torsions:
  status: ('A' for Active; 'I' for Inactive)
    1  A    between atoms: C_4  and  C_9
    2  A    between atoms: O_5  and  C_25
    3  A    between atoms: O_5  and  C_41
    4  A    between atoms: C_9  and  O_17
    5  A    between atoms: O_11  and  C_15
    6  A    between atoms: O_11  and  C_26
    7  A    between atoms: C_12  and  C_48
    8  A    between atoms: O_17  and  C_24
    9  A    between atoms: C_18  and  N_38
   10  A    between atoms: C_21  and  C_47
   11  A    between atoms: C_23  and  O_29
   12  A    between atoms: C_23  and  C_56
   13  A    between atoms: C_24  and  C_52
   14  A    between atoms: C_25  and  C_39
   15  A    between atoms: C_26  and  O_29
   16  A    between atoms: N_32  and  C_48
   17  A    between atoms: C_35  and  C_36
   18  A    between atoms: N_38  and  C_58
   19  A    between atoms: C_41  and  C_42
   20  A    between atoms: C_45  and  C_57
   21  A    between atoms: N_50  and  C_56
                            x       y       z     vdW  Elec       q    Type
                         _______ _______ _______ _____ _____    ______ ____

>  <TORSDO>
F 21

$$$$
