=
 OpenBabel10222416283D

 38 41  0  0  1  0  0  0  0  0999 V2000
  178.9320  180.1340  139.5230 C   0  0  0  0  0  2  0  0  0  0  0  0
  181.8750  178.1870  141.9210 N   0  0  0  0  0  0  0  0  0  0  0  0
  181.7540  179.0040  142.9220 C   0  0  0  0  0  0  0  0  0  0  0  0
  181.2170  179.7710  138.4990 C   0  0  0  0  0  3  0  0  0  0  0  0
  180.3640  179.8030  141.4120 C   0  0  0  0  0  0  0  0  0  0  0  0
  179.4430  180.5050  140.8350 N   0  0  0  0  0  0  0  0  0  0  0  0
  179.9810  180.2970  138.4620 C   0  0  0  0  0  3  0  0  0  0  0  0
  180.8450  180.0780  142.7150 N   0  0  0  0  0  2  0  0  0  0  0  0
  181.8600  178.9530  139.6030 C   0  0  1  0  0  3  0  0  0  0  0  0
  181.0020  178.5950  140.8260 C   0  0  1  0  0  3  0  0  0  0  0  0
  184.3750  177.0320  135.1950 C   0  0  0  0  0  2  0  0  0  0  0  0
  183.9100  176.8520  136.4250 C   0  0  0  0  0  0  0  0  0  0  0  0
  184.3950  177.7210  137.4580 N   0  0  0  0  0  2  0  0  0  0  0  0
  181.7710  176.7520  138.6240 N   0  0  0  0  0  0  0  0  0  0  0  0
  184.0180  177.6420  138.8640 C   0  0  2  0  0  3  0  0  0  0  0  0
  182.8590  175.8290  136.6660 C   0  0  0  0  0  0  0  0  0  0  0  0
  182.3160  175.5520  138.0330 C   0  0  0  0  0  2  0  0  0  0  0  0
  182.4080  175.1530  135.7030 O   0  0  0  0  0  0  0  0  0  0  0  0
  182.5150  177.7290  139.0240 C   0  0  0  0  0  0  0  0  0  0  0  0
  184.8220  179.9040  139.0710 O   0  0  0  0  0  1  0  0  0  0  0  0
  184.8050  178.6540  139.6930 C   0  0  0  0  0  2  0  0  0  0  0  0
  182.5850  178.9000  144.1620 C   0  0  0  0  0  2  0  0  0  0  0  0
  183.9970  179.4230  143.9480 C   0  0  0  0  0  2  0  0  0  0  0  0
  184.9630  178.2600  143.8020 C   0  0  0  0  0  2  0  0  0  0  0  0
  187.1790  177.7060  144.8970 C   0  0  0  0  0  0  0  0  0  0  0  0
  187.4630  178.0420  147.2870 C   0  0  0  0  0  0  0  0  0  0  0  0
  185.8510  178.1710  145.0000 C   0  0  0  0  0  0  0  0  0  0  0  0
  185.3400  178.5480  146.2460 C   0  0  0  0  0  3  0  0  0  0  0  0
  187.9800  177.6580  146.0480 C   0  0  0  0  0  3  0  0  0  0  0  0
  188.3220  177.9850  148.4980 C   0  0  0  0  0  1  0  0  0  0  0  0
  186.1430  178.4840  147.3870 C   0  0  0  0  0  3  0  0  0  0  0  0
  187.7820  175.9350  143.3520 O   0  0  0  0  0  1  0  0  0  0  0  0
  187.7610  177.3200  143.5570 C   0  0  2  0  0  3  0  0  0  0  0  0
  189.0150  177.9140  143.3020 O   0  0  0  0  0  0  0  0  0  0  0  0
  189.8890  176.9350  142.8000 C   0  0  0  0  0  2  0  0  0  0  0  0
  191.2580  177.0820  143.4460 C   0  0  0  0  0  2  0  0  0  0  0  0
  191.6560  176.6570  145.8760 C   0  0  0  0  0  1  0  0  0  0  0  0
  191.1470  177.6530  144.8510 C   0  0  0  0  0  2  0  0  0  0  0  0
  1  6  1  0  0  0  0
  2  3  2  0  0  0  0
  3 22  1  0  0  0  0
  4  9  1  0  0  0  0
  5  8  1  0  0  0  0
  6  5  2  0  0  0  0
  7  4  2  0  0  0  0
  7  1  1  0  0  0  0
  8  3  1  0  0  0  0
  9 19  1  6  0  0  0
  9 10  1  0  0  0  0
 10  5  1  1  0  0  0
 10  2  1  0  0  0  0
 11 12  2  0  0  0  0
 12 16  1  0  0  0  0
 12 13  1  0  0  0  0
 13 15  1  0  0  0  0
 14 19  2  0  0  0  0
 15 19  1  0  0  0  0
 15 21  1  1  0  0  0
 16 17  1  0  0  0  0
 17 14  1  0  0  0  0
 18 16  2  0  0  0  0
 20 21  1  0  0  0  0
 23 22  1  0  0  0  0
 24 23  1  0  0  0  0
 24 27  1  0  0  0  0
 25 27  2  0  0  0  0
 25 29  1  0  0  0  0
 26 31  1  0  0  0  0
 26 30  1  0  0  0  0
 27 28  1  0  0  0  0
 28 31  2  0  0  0  0
 29 26  2  0  0  0  0
 33 32  1  1  0  0  0
 33 25  1  0  0  0  0
 34 33  1  0  0  0  0
 35 34  1  0  0  0  0
 35 36  1  0  0  0  0
 36 38  1  0  0  0  0
 38 37  1  0  0  0  0
M  END
>  <MODEL>
1

>  <REMARK>
 VINA RESULT:      -8.6      0.000      0.000
  Name = 
  11 active torsions:
  status: ('A' for Active; 'I' for Inactive)
    1  A    between atoms: C_6  and  C_17
    2  A    between atoms: C_7  and  C_28
    3  A    between atoms: C_13  and  C_14
    4  A    between atoms: C_13  and  C_26
    5  A    between atoms: C_15  and  CA_22
    6  A    between atoms: C_17  and  O_18
    7  A    between atoms: O_18  and  C_26
    8  A    between atoms: C_20  and  C_30
    9  A    between atoms: C_20  and  C_32
   10  A    between atoms: C_27  and  C_38
   11  A    between atoms: C_28  and  C_30
                            x       y       z     vdW  Elec       q    Type
                         _______ _______ _______ _____ _____    ______ ____

>  <TORSDO>
F 11

$$$$
=
 OpenBabel10222416283D

 38 41  0  0  1  0  0  0  0  0999 V2000
  187.5600  176.8750  135.8420 C   0  0  0  0  0  2  0  0  0  0  0  0
  189.4960  176.7470  139.6430 N   0  0  0  0  0  0  0  0  0  0  0  0
  188.7870  177.7060  140.1550 C   0  0  0  0  0  0  0  0  0  0  0  0
  190.0830  177.0560  135.8730 C   0  0  0  0  0  3  0  0  0  0  0  0
  188.0610  177.5590  138.0810 C   0  0  0  0  0  0  0  0  0  0  0  0
  187.3620  177.7280  137.0050 N   0  0  0  0  0  0  0  0  0  0  0  0
  188.9080  177.1000  135.2230 C   0  0  0  0  0  3  0  0  0  0  0  0
  187.8610  178.3120  139.2620 N   0  0  0  0  0  2  0  0  0  0  0  0
  190.3340  176.8260  137.3520 C   0  0  1  0  0  3  0  0  0  0  0  0
  189.1230  176.5310  138.2500 C   0  0  1  0  0  3  0  0  0  0  0  0
  195.3180  175.3890  135.7570 C   0  0  0  0  0  2  0  0  0  0  0  0
  194.2360  175.1660  136.4920 C   0  0  0  0  0  0  0  0  0  0  0  0
  193.8200  176.1950  137.4010 N   0  0  0  0  0  2  0  0  0  0  0  0
  191.2570  174.6270  137.0000 N   0  0  0  0  0  0  0  0  0  0  0  0
  192.6780  176.1040  138.3030 C   0  0  2  0  0  3  0  0  0  0  0  0
  193.4620  173.9140  136.2900 C   0  0  0  0  0  0  0  0  0  0  0  0
  192.2520  173.5850  137.1090 C   0  0  0  0  0  2  0  0  0  0  0  0
  193.8270  173.0830  135.4160 O   0  0  0  0  0  0  0  0  0  0  0  0
  191.4100  175.7910  137.5380 C   0  0  0  0  0  0  0  0  0  0  0  0
  193.8080  177.5730  139.8420 O   0  0  0  0  0  1  0  0  0  0  0  0
  192.5940  177.3400  139.1950 C   0  0  0  0  0  2  0  0  0  0  0  0
  188.9970  178.2200  141.5440 C   0  0  0  0  0  2  0  0  0  0  0  0
  188.7780  177.1380  142.5910 C   0  0  0  0  0  2  0  0  0  0  0  0
  188.4760  177.7730  143.9370 C   0  0  0  0  0  2  0  0  0  0  0  0
  189.2040  177.4610  146.3430 C   0  0  0  0  0  0  0  0  0  0  0  0
  191.3300  176.3880  146.8320 C   0  0  0  0  0  0  0  0  0  0  0  0
  189.4530  177.3030  144.9640 C   0  0  0  0  0  0  0  0  0  0  0  0
  190.6440  176.7070  144.5350 C   0  0  0  0  0  3  0  0  0  0  0  0
  190.1460  176.9860  147.2690 C   0  0  0  0  0  3  0  0  0  0  0  0
  192.3180  175.8910  147.8240 C   0  0  0  0  0  1  0  0  0  0  0  0
  191.5800  176.2500  145.4650 C   0  0  0  0  0  3  0  0  0  0  0  0
  187.9580  178.4370  148.1820 O   0  0  0  0  0  1  0  0  0  0  0  0
  187.9130  178.0760  146.8290 C   0  0  2  0  0  3  0  0  0  0  0  0
  186.7750  177.2980  146.5250 O   0  0  0  0  0  0  0  0  0  0  0  0
  185.6270  178.0940  146.6750 C   0  0  0  0  0  2  0  0  0  0  0  0
  185.5180  179.0710  145.5150 C   0  0  0  0  0  2  0  0  0  0  0  0
  184.9990  179.1650  143.0730 C   0  0  0  0  0  1  0  0  0  0  0  0
  184.6580  178.5060  144.3960 C   0  0  0  0  0  2  0  0  0  0  0  0
  1  6  1  0  0  0  0
  2  3  2  0  0  0  0
  3 22  1  0  0  0  0
  4  9  1  0  0  0  0
  5  8  1  0  0  0  0
  6  5  2  0  0  0  0
  7  1  1  0  0  0  0
  7  4  2  0  0  0  0
  8  3  1  0  0  0  0
  9 19  1  6  0  0  0
  9 10  1  0  0  0  0
 10  5  1  6  0  0  0
 10  2  1  0  0  0  0
 11 12  2  0  0  0  0
 12 13  1  0  0  0  0
 13 15  1  0  0  0  0
 14 17  1  0  0  0  0
 14 19  2  0  0  0  0
 15 21  1  6  0  0  0
 16 12  1  0  0  0  0
 16 17  1  0  0  0  0
 18 16  2  0  0  0  0
 19 15  1  0  0  0  0
 21 20  1  0  0  0  0
 22 23  1  0  0  0  0
 23 24  1  0  0  0  0
 24 27  1  0  0  0  0
 25 33  1  0  0  0  0
 25 29  1  0  0  0  0
 26 29  2  0  0  0  0
 26 30  1  0  0  0  0
 27 25  2  0  0  0  0
 28 27  1  0  0  0  0
 28 31  2  0  0  0  0
 31 26  1  0  0  0  0
 33 32  1  1  0  0  0
 34 35  1  0  0  0  0
 34 33  1  0  0  0  0
 36 35  1  0  0  0  0
 37 38  1  0  0  0  0
 38 36  1  0  0  0  0
M  END
>  <MODEL>
2

>  <REMARK>
 VINA RESULT:      -8.3      4.820      7.862
  Name = 
  11 active torsions:
  status: ('A' for Active; 'I' for Inactive)
    1  A    between atoms: C_6  and  C_17
    2  A    between atoms: C_7  and  C_28
    3  A    between atoms: C_13  and  C_14
    4  A    between atoms: C_13  and  C_26
    5  A    between atoms: C_15  and  CA_22
    6  A    between atoms: C_17  and  O_18
    7  A    between atoms: O_18  and  C_26
    8  A    between atoms: C_20  and  C_30
    9  A    between atoms: C_20  and  C_32
   10  A    between atoms: C_27  and  C_38
   11  A    between atoms: C_28  and  C_30
                            x       y       z     vdW  Elec       q    Type
                         _______ _______ _______ _____ _____    ______ ____

>  <TORSDO>
F 11

$$$$
=
 OpenBabel10222416283D

 38 41  0  0  1  0  0  0  0  0999 V2000
  187.1370  178.1370  134.7420 C   0  0  0  0  0  2  0  0  0  0  0  0
  187.4610  178.1880  138.9960 N   0  0  0  0  0  0  0  0  0  0  0  0
  188.6580  177.6870  139.0170 C   0  0  0  0  0  0  0  0  0  0  0  0
  185.3040  177.0030  136.0650 C   0  0  0  0  0  3  0  0  0  0  0  0
  188.1370  177.7280  136.8780 C   0  0  0  0  0  0  0  0  0  0  0  0
  188.2180  177.6520  135.5890 N   0  0  0  0  0  0  0  0  0  0  0  0
  185.9020  177.3000  134.8990 C   0  0  0  0  0  3  0  0  0  0  0  0
  189.1860  177.3370  137.7450 N   0  0  0  0  0  2  0  0  0  0  0  0
  185.7360  177.3800  137.4700 C   0  0  1  0  0  3  0  0  0  0  0  0
  186.9740  178.2770  137.6250 C   0  0  1  0  0  3  0  0  0  0  0  0
  180.6450  179.1840  136.9530 C   0  0  0  0  0  2  0  0  0  0  0  0
  181.6990  178.9150  137.7130 C   0  0  0  0  0  0  0  0  0  0  0  0
  182.2070  177.5730  137.7030 N   0  0  0  0  0  2  0  0  0  0  0  0
  184.6120  179.1560  138.6490 N   0  0  0  0  0  0  0  0  0  0  0  0
  183.3320  177.0980  138.4990 C   0  0  2  0  0  3  0  0  0  0  0  0
  182.3530  180.0140  138.4700 C   0  0  0  0  0  0  0  0  0  0  0  0
  183.5230  179.7730  139.3720 C   0  0  0  0  0  2  0  0  0  0  0  0
  181.9140  181.1910  138.3750 O   0  0  0  0  0  0  0  0  0  0  0  0
  184.5670  177.9330  138.2390 C   0  0  0  0  0  0  0  0  0  0  0  0
  182.5630  175.0670  137.4550 O   0  0  0  0  0  1  0  0  0  0  0  0
  183.5290  175.5950  138.3130 C   0  0  0  0  0  2  0  0  0  0  0  0
  189.3930  177.3920  140.2870 C   0  0  0  0  0  2  0  0  0  0  0  0
  188.7730  178.0980  141.4830 C   0  0  0  0  0  2  0  0  0  0  0  0
  188.2090  177.0750  142.4530 C   0  0  0  0  0  2  0  0  0  0  0  0
  186.8860  177.7400  144.5080 C   0  0  0  0  0  0  0  0  0  0  0  0
  184.6330  178.6180  144.2630 C   0  0  0  0  0  0  0  0  0  0  0  0
  186.9760  177.6060  143.1070 C   0  0  0  0  0  0  0  0  0  0  0  0
  185.8880  177.9610  142.3020 C   0  0  0  0  0  3  0  0  0  0  0  0
  185.7120  178.2610  145.0740 C   0  0  0  0  0  3  0  0  0  0  0  0
  183.3960  179.1670  144.8750 C   0  0  0  0  0  1  0  0  0  0  0  0
  184.7190  178.4670  142.8770 C   0  0  0  0  0  3  0  0  0  0  0  0
  187.6900  177.2000  146.7320 O   0  0  0  0  0  1  0  0  0  0  0  0
  188.0580  177.3890  145.3940 C   0  0  2  0  0  3  0  0  0  0  0  0
  189.1440  178.2810  145.2630 O   0  0  0  0  0  0  0  0  0  0  0  0
  190.3430  177.5660  145.4210 C   0  0  0  0  0  2  0  0  0  0  0  0
  191.4250  178.1670  144.5370 C   0  0  0  0  0  2  0  0  0  0  0  0
  191.6070  175.8030  143.7510 C   0  0  0  0  0  1  0  0  0  0  0  0
  191.7400  177.2610  143.3570 C   0  0  0  0  0  2  0  0  0  0  0  0
  1  7  1  0  0  0  0
  1  6  1  0  0  0  0
  2  3  2  0  0  0  0
  3 22  1  0  0  0  0
  4  9  1  0  0  0  0
  5  8  1  0  0  0  0
  6  5  2  0  0  0  0
  7  4  2  0  0  0  0
  8  3  1  0  0  0  0
  9 10  1  0  0  0  0
  9 19  1  6  0  0  0
 10  5  1  6  0  0  0
 10  2  1  0  0  0  0
 11 12  2  0  0  0  0
 12 16  1  0  0  0  0
 13 12  1  0  0  0  0
 13 15  1  0  0  0  0
 14 17  1  0  0  0  0
 15 21  1  6  0  0  0
 16 17  1  0  0  0  0
 18 16  2  0  0  0  0
 19 15  1  0  0  0  0
 19 14  2  0  0  0  0
 20 21  1  0  0  0  0
 22 23  1  0  0  0  0
 23 24  1  0  0  0  0
 24 27  1  0  0  0  0
 25 29  1  0  0  0  0
 25 33  1  0  0  0  0
 26 30  1  0  0  0  0
 26 29  2  0  0  0  0
 27 25  2  0  0  0  0
 28 31  2  0  0  0  0
 28 27  1  0  0  0  0
 31 26  1  0  0  0  0
 33 32  1  1  0  0  0
 34 33  1  0  0  0  0
 34 35  1  0  0  0  0
 36 35  1  0  0  0  0
 38 37  1  0  0  0  0
 38 36  1  0  0  0  0
M  END
>  <MODEL>
3

>  <REMARK>
 VINA RESULT:      -8.2      2.309      5.364
  Name = 
  11 active torsions:
  status: ('A' for Active; 'I' for Inactive)
    1  A    between atoms: C_6  and  C_17
    2  A    between atoms: C_7  and  C_28
    3  A    between atoms: C_13  and  C_14
    4  A    between atoms: C_13  and  C_26
    5  A    between atoms: C_15  and  CA_22
    6  A    between atoms: C_17  and  O_18
    7  A    between atoms: O_18  and  C_26
    8  A    between atoms: C_20  and  C_30
    9  A    between atoms: C_20  and  C_32
   10  A    between atoms: C_27  and  C_38
   11  A    between atoms: C_28  and  C_30
                            x       y       z     vdW  Elec       q    Type
                         _______ _______ _______ _____ _____    ______ ____

>  <TORSDO>
F 11

$$$$
=
 OpenBabel10222416283D

 38 41  0  0  1  0  0  0  0  0999 V2000
  192.0660  176.5690  137.4930 C   0  0  0  0  0  2  0  0  0  0  0  0
  188.7550  177.3810  140.0590 N   0  0  0  0  0  0  0  0  0  0  0  0
  189.4020  177.1160  141.1530 C   0  0  0  0  0  0  0  0  0  0  0  0
  189.8970  175.3550  137.0190 C   0  0  0  0  0  3  0  0  0  0  0  0
  190.8650  176.7070  139.5590 C   0  0  0  0  0  0  0  0  0  0  0  0
  191.9680  176.4350  138.9390 N   0  0  0  0  0  0  0  0  0  0  0  0
  191.2050  175.5590  136.7910 C   0  0  0  0  0  3  0  0  0  0  0  0
  190.7360  176.6620  140.9680 N   0  0  0  0  0  2  0  0  0  0  0  0
  189.0020  176.0320  138.0410 C   0  0  1  0  0  3  0  0  0  0  0  0
  189.6080  177.1520  138.8990 C   0  0  1  0  0  3  0  0  0  0  0  0
  184.5410  179.0260  138.8030 C   0  0  0  0  0  1  0  0  0  0  0  0
  185.2750  178.2300  138.0360 C   0  0  0  0  0  0  0  0  0  0  0  0
  186.6200  178.6370  137.7450 N   0  0  0  0  0  0  0  0  0  0  0  0
  186.7470  175.6450  137.2800 N   0  0  0  0  0  0  0  0  0  0  0  0
  187.5510  177.9040  136.8950 C   0  0  2  0  0  3  0  0  0  0  0  0
  184.7150  176.9310  137.5840 C   0  0  0  0  0  0  0  0  0  0  0  0
  185.4780  176.0030  136.6890 C   0  0  0  0  0  2  0  0  0  0  0  0
  183.5570  176.5870  137.9420 O   0  0  0  0  0  0  0  0  0  0  0  0
  187.7230  176.4830  137.3870 C   0  0  0  0  0  0  0  0  0  0  0  0
  188.8090  179.8910  137.4190 O   0  0  0  0  0  1  0  0  0  0  0  0
  188.8550  178.6800  136.7260 C   0  0  0  0  0  2  0  0  0  0  0  0
  188.7670  177.1740  142.5070 C   0  0  0  0  0  2  0  0  0  0  0  0
  187.4640  177.9590  142.4930 C   0  0  0  0  0  2  0  0  0  0  0  0
  186.8120  177.9020  143.8630 C   0  0  0  0  0  2  0  0  0  0  0  0
  184.5920  178.5350  144.9080 C   0  0  0  0  0  0  0  0  0  0  0  0
  182.6500  178.8960  143.4920 C   0  0  0  0  0  0  0  0  0  0  0  0
  185.3620  178.2470  143.7610 C   0  0  0  0  0  0  0  0  0  0  0  0
  184.7630  178.2690  142.4970 C   0  0  0  0  0  3  0  0  0  0  0  0
  183.2380  178.8720  144.7580 C   0  0  0  0  0  3  0  0  0  0  0  0
  181.2150  179.2520  143.3480 C   0  0  0  0  0  1  0  0  0  0  0  0
  183.4110  178.5920  142.3610 C   0  0  0  0  0  3  0  0  0  0  0  0
  185.7730  179.7910  146.6150 O   0  0  0  0  0  1  0  0  0  0  0  0
  185.2240  178.5460  146.2800 C   0  0  2  0  0  3  0  0  0  0  0  0
  186.1380  177.4910  146.4820 O   0  0  0  0  0  0  0  0  0  0  0  0
  187.1910  177.9490  147.2920 C   0  0  0  0  0  2  0  0  0  0  0  0
  188.4060  177.0500  147.1190 C   0  0  0  0  0  2  0  0  0  0  0  0
  190.7940  177.0090  146.3860 C   0  0  0  0  0  1  0  0  0  0  0  0
  189.4550  177.7050  146.2340 C   0  0  0  0  0  2  0  0  0  0  0  0
  1  6  1  0  0  0  0
  2  3  2  0  0  0  0
  3 22  1  0  0  0  0
  4  9  1  0  0  0  0
  5  8  1  0  0  0  0
  6  5  2  0  0  0  0
  7  4  2  0  0  0  0
  7  1  1  0  0  0  0
  8  3  1  0  0  0  0
  9 19  1  6  0  0  0
  9 10  1  0  0  0  0
 10  5  1  1  0  0  0
 10  2  1  0  0  0  0
 12 11  1  0  0  0  0
 13 12  2  0  0  0  0
 14 19  2  0  0  0  0
 15 21  1  1  0  0  0
 15 19  1  0  0  0  0
 15 13  1  0  0  0  0
 16 18  2  0  0  0  0
 16 12  1  0  0  0  0
 17 14  1  0  0  0  0
 17 16  1  0  0  0  0
 21 20  1  0  0  0  0
 23 22  1  0  0  0  0
 23 24  1  0  0  0  0
 25 33  1  0  0  0  0
 26 29  2  0  0  0  0
 27 24  1  0  0  0  0
 27 25  2  0  0  0  0
 28 27  1  0  0  0  0
 29 25  1  0  0  0  0
 30 26  1  0  0  0  0
 31 28  2  0  0  0  0
 31 26  1  0  0  0  0
 33 34  1  0  0  0  0
 33 32  1  6  0  0  0
 34 35  1  0  0  0  0
 36 35  1  0  0  0  0
 38 37  1  0  0  0  0
 38 36  1  0  0  0  0
M  END
>  <MODEL>
4

>  <REMARK>
 VINA RESULT:      -8.2      3.507      6.621
  Name = 
  11 active torsions:
  status: ('A' for Active; 'I' for Inactive)
    1  A    between atoms: C_6  and  C_17
    2  A    between atoms: C_7  and  C_28
    3  A    between atoms: C_13  and  C_14
    4  A    between atoms: C_13  and  C_26
    5  A    between atoms: C_15  and  CA_22
    6  A    between atoms: C_17  and  O_18
    7  A    between atoms: O_18  and  C_26
    8  A    between atoms: C_20  and  C_30
    9  A    between atoms: C_20  and  C_32
   10  A    between atoms: C_27  and  C_38
   11  A    between atoms: C_28  and  C_30
                            x       y       z     vdW  Elec       q    Type
                         _______ _______ _______ _____ _____    ______ ____

>  <TORSDO>
F 11

$$$$
=
 OpenBabel10222416283D

 38 41  0  0  1  0  0  0  0  0999 V2000
  179.3290  178.9980  142.5230 C   0  0  0  0  0  2  0  0  0  0  0  0
  183.5280  178.2460  142.6260 N   0  0  0  0  0  0  0  0  0  0  0  0
  183.7530  179.0380  143.6300 C   0  0  0  0  0  0  0  0  0  0  0  0
  180.6270  179.3300  140.3770 C   0  0  0  0  0  3  0  0  0  0  0  0
  181.5940  179.2570  143.2540 C   0  0  0  0  0  0  0  0  0  0  0  0
  180.3500  179.5900  143.3760 N   0  0  0  0  0  0  0  0  0  0  0  0
  179.4950  179.4270  141.0950 C   0  0  0  0  0  3  0  0  0  0  0  0
  182.6150  179.7480  144.1020 N   0  0  0  0  0  2  0  0  0  0  0  0
  181.9880  178.8290  140.8250 C   0  0  1  0  0  3  0  0  0  0  0  0
  182.1180  178.2860  142.2560 C   0  0  1  0  0  3  0  0  0  0  0  0
  181.8020  177.3900  135.5960 C   0  0  0  0  0  2  0  0  0  0  0  0
  182.2710  177.2070  136.8240 C   0  0  0  0  0  0  0  0  0  0  0  0
  182.9430  178.3070  137.4550 N   0  0  0  0  0  2  0  0  0  0  0  0
  182.0940  176.6340  139.8340 N   0  0  0  0  0  0  0  0  0  0  0  0
  183.5470  178.2700  138.7810 C   0  0  2  0  0  3  0  0  0  0  0  0
  182.0150  175.9200  137.5200 C   0  0  0  0  0  0  0  0  0  0  0  0
  182.5450  175.6360  138.8910 C   0  0  0  0  0  2  0  0  0  0  0  0
  181.3440  175.0190  136.9490 O   0  0  0  0  0  0  0  0  0  0  0  0
  182.5320  177.8480  139.8220 C   0  0  0  0  0  0  0  0  0  0  0  0
  185.3020  179.3870  139.9970 O   0  0  0  0  0  1  0  0  0  0  0  0
  184.2620  179.5840  139.0870 C   0  0  0  0  0  2  0  0  0  0  0  0
  185.1210  179.2790  144.1850 C   0  0  0  0  0  2  0  0  0  0  0  0
  185.7340  178.0120  144.7630 C   0  0  0  0  0  2  0  0  0  0  0  0
  186.9890  177.6450  143.9900 C   0  0  0  0  0  2  0  0  0  0  0  0
  189.3430  176.8520  144.4860 C   0  0  0  0  0  0  0  0  0  0  0  0
  190.2160  177.0010  146.7500 C   0  0  0  0  0  0  0  0  0  0  0  0
  188.1250  177.4080  144.9310 C   0  0  0  0  0  0  0  0  0  0  0  0
  187.9600  177.7360  146.2810 C   0  0  0  0  0  3  0  0  0  0  0  0
  190.3870  176.6660  145.4050 C   0  0  0  0  0  3  0  0  0  0  0  0
  191.3290  176.7960  147.7120 C   0  0  0  0  0  1  0  0  0  0  0  0
  189.0020  177.5340  147.1890 C   0  0  0  0  0  3  0  0  0  0  0  0
  190.1800  175.2780  142.8400 O   0  0  0  0  0  1  0  0  0  0  0  0
  189.5530  176.5170  143.0280 C   0  0  2  0  0  3  0  0  0  0  0  0
  190.1870  177.5490  142.3050 O   0  0  0  0  0  0  0  0  0  0  0  0
  190.0420  177.2960  140.9300 C   0  0  0  0  0  2  0  0  0  0  0  0
  188.6730  177.7640  140.4590 C   0  0  0  0  0  2  0  0  0  0  0  0
  189.7930  177.5630  138.2340 C   0  0  0  0  0  1  0  0  0  0  0  0
  188.7320  178.2940  139.0350 C   0  0  0  0  0  2  0  0  0  0  0  0
  1  6  1  0  0  0  0
  2  3  2  0  0  0  0
  3  8  1  0  0  0  0
  3 22  1  0  0  0  0
  4  9  1  0  0  0  0
  4  7  2  0  0  0  0
  5  6  2  0  0  0  0
  5  8  1  0  0  0  0
  7  1  1  0  0  0  0
  9 19  1  6  0  0  0
  9 10  1  0  0  0  0
 10  2  1  1  0  0  0
 10  5  1  0  0  0  0
 11 12  2  0  0  0  0
 12 13  1  0  0  0  0
 12 16  1  0  0  0  0
 13 15  1  0  0  0  0
 15 21  1  1  0  0  0
 15 19  1  0  0  0  0
 16 17  1  0  0  0  0
 17 14  1  0  0  0  0
 18 16  2  0  0  0  0
 19 14  2  0  0  0  0
 21 20  1  0  0  0  0
 22 23  1  0  0  0  0
 24 23  1  0  0  0  0
 24 27  1  0  0  0  0
 25 27  2  0  0  0  0
 25 29  1  0  0  0  0
 26 31  1  0  0  0  0
 26 30  1  0  0  0  0
 27 28  1  0  0  0  0
 28 31  2  0  0  0  0
 29 26  2  0  0  0  0
 33 32  1  1  0  0  0
 33 25  1  0  0  0  0
 34 33  1  0  0  0  0
 35 34  1  0  0  0  0
 36 35  1  0  0  0  0
 37 38  1  0  0  0  0
 38 36  1  0  0  0  0
M  END
>  <MODEL>
5

>  <REMARK>
 VINA RESULT:      -8.0      1.707      2.734
  Name = 
  11 active torsions:
  status: ('A' for Active; 'I' for Inactive)
    1  A    between atoms: C_6  and  C_17
    2  A    between atoms: C_7  and  C_28
    3  A    between atoms: C_13  and  C_14
    4  A    between atoms: C_13  and  C_26
    5  A    between atoms: C_15  and  CA_22
    6  A    between atoms: C_17  and  O_18
    7  A    between atoms: O_18  and  C_26
    8  A    between atoms: C_20  and  C_30
    9  A    between atoms: C_20  and  C_32
   10  A    between atoms: C_27  and  C_38
   11  A    between atoms: C_28  and  C_30
                            x       y       z     vdW  Elec       q    Type
                         _______ _______ _______ _____ _____    ______ ____

>  <TORSDO>
F 11

$$$$
=
 OpenBabel10222416283D

 38 41  0  0  1  0  0  0  0  0999 V2000
  185.0490  177.5800  136.3660 C   0  0  0  0  0  2  0  0  0  0  0  0
  184.0680  178.9480  140.2870 N   0  0  0  0  0  0  0  0  0  0  0  0
  185.2990  178.9930  140.6950 C   0  0  0  0  0  0  0  0  0  0  0  0
  183.3640  176.2310  137.6850 C   0  0  0  0  0  3  0  0  0  0  0  0
  185.4490  178.2200  138.6380 C   0  0  0  0  0  0  0  0  0  0  0  0
  185.9260  177.8240  137.5020 N   0  0  0  0  0  0  0  0  0  0  0  0
  184.1530  176.4010  136.6110 C   0  0  0  0  0  3  0  0  0  0  0  0
  186.2620  178.5400  139.7510 N   0  0  0  0  0  2  0  0  0  0  0  0
  183.2200  177.1260  138.9010 C   0  0  1  0  0  3  0  0  0  0  0  0
  184.0060  178.4460  138.9190 C   0  0  1  0  0  3  0  0  0  0  0  0
  179.7820  180.4120  141.5140 C   0  0  0  0  0  1  0  0  0  0  0  0
  180.0020  179.3470  140.7540 C   0  0  0  0  0  0  0  0  0  0  0  0
  180.7030  179.5410  139.5170 N   0  0  0  0  0  0  0  0  0  0  0  0
  181.1720  176.5960  140.0580 N   0  0  0  0  0  0  0  0  0  0  0  0
  180.9990  178.4920  138.5490 C   0  0  2  0  0  3  0  0  0  0  0  0
  179.5960  178.0040  141.2430 C   0  0  0  0  0  0  0  0  0  0  0  0
  179.7840  176.7670  140.4210 C   0  0  0  0  0  2  0  0  0  0  0  0
  179.0600  177.8840  142.3770 O   0  0  0  0  0  0  0  0  0  0  0  0
  181.7640  177.3590  139.2010 C   0  0  0  0  0  0  0  0  0  0  0  0
  181.1810  178.4650  136.1470 O   0  0  0  0  0  1  0  0  0  0  0  0
  181.6640  179.0760  137.3050 C   0  0  0  0  0  2  0  0  0  0  0  0
  185.6810  179.3840  142.0870 C   0  0  0  0  0  2  0  0  0  0  0  0
  185.4830  178.2440  143.0750 C   0  0  0  0  0  2  0  0  0  0  0  0
  186.7980  177.5170  143.2960 C   0  0  0  0  0  2  0  0  0  0  0  0
  188.5560  177.3990  145.1160 C   0  0  0  0  0  0  0  0  0  0  0  0
  187.9480  177.8920  147.4170 C   0  0  0  0  0  0  0  0  0  0  0  0
  187.2220  177.6380  144.7230 C   0  0  0  0  0  0  0  0  0  0  0  0
  186.2650  177.9820  145.6830 C   0  0  0  0  0  3  0  0  0  0  0  0
  188.9090  177.5430  146.4660 C   0  0  0  0  0  3  0  0  0  0  0  0
  188.3360  178.0390  148.8430 C   0  0  0  0  0  1  0  0  0  0  0  0
  186.6250  178.1090  147.0260 C   0  0  0  0  0  3  0  0  0  0  0  0
  190.6970  176.3590  144.6450 O   0  0  0  0  0  1  0  0  0  0  0  0
  189.6130  177.0540  144.0930 C   0  0  2  0  0  3  0  0  0  0  0  0
  190.0280  178.1610  143.3240 O   0  0  0  0  0  0  0  0  0  0  0  0
  190.7070  177.6960  142.1850 C   0  0  0  0  0  2  0  0  0  0  0  0
  189.7450  176.9410  141.2800 C   0  0  0  0  0  2  0  0  0  0  0  0
  190.7270  176.7610  138.9900 C   0  0  0  0  0  1  0  0  0  0  0  0
  189.7490  177.5140  139.8720 C   0  0  0  0  0  2  0  0  0  0  0  0
  1  7  1  0  0  0  0
  1  6  1  0  0  0  0
  2  3  2  0  0  0  0
  3 22  1  0  0  0  0
  4  9  1  0  0  0  0
  5  8  1  0  0  0  0
  6  5  2  0  0  0  0
  7  4  2  0  0  0  0
  8  3  1  0  0  0  0
  9 10  1  0  0  0  0
  9 19  1  6  0  0  0
 10  5  1  1  0  0  0
 10  2  1  0  0  0  0
 12 16  1  0  0  0  0
 12 11  1  0  0  0  0
 13 12  2  0  0  0  0
 14 17  1  0  0  0  0
 15 21  1  6  0  0  0
 15 19  1  0  0  0  0
 15 13  1  0  0  0  0
 16 18  2  0  0  0  0
 17 16  1  0  0  0  0
 19 14  2  0  0  0  0
 20 21  1  0  0  0  0
 22 23  1  0  0  0  0
 23 24  1  0  0  0  0
 24 27  1  0  0  0  0
 25 29  1  0  0  0  0
 26 30  1  0  0  0  0
 27 25  2  0  0  0  0
 27 28  1  0  0  0  0
 28 31  2  0  0  0  0
 29 26  2  0  0  0  0
 31 26  1  0  0  0  0
 33 32  1  1  0  0  0
 33 25  1  0  0  0  0
 34 33  1  0  0  0  0
 35 34  1  0  0  0  0
 36 35  1  0  0  0  0
 37 38  1  0  0  0  0
 38 36  1  0  0  0  0
M  END
>  <MODEL>
6

>  <REMARK>
 VINA RESULT:      -7.8      2.037      4.345
  Name = 
  11 active torsions:
  status: ('A' for Active; 'I' for Inactive)
    1  A    between atoms: C_6  and  C_17
    2  A    between atoms: C_7  and  C_28
    3  A    between atoms: C_13  and  C_14
    4  A    between atoms: C_13  and  C_26
    5  A    between atoms: C_15  and  CA_22
    6  A    between atoms: C_17  and  O_18
    7  A    between atoms: O_18  and  C_26
    8  A    between atoms: C_20  and  C_30
    9  A    between atoms: C_20  and  C_32
   10  A    between atoms: C_27  and  C_38
   11  A    between atoms: C_28  and  C_30
                            x       y       z     vdW  Elec       q    Type
                         _______ _______ _______ _____ _____    ______ ____

>  <TORSDO>
F 11

$$$$
=
 OpenBabel10222416283D

 38 41  0  0  1  0  0  0  0  0999 V2000
  193.4760  176.5410  137.2590 C   0  0  0  0  0  2  0  0  0  0  0  0
  189.6390  176.6300  139.1250 N   0  0  0  0  0  0  0  0  0  0  0  0
  190.0860  177.0590  140.2650 C   0  0  0  0  0  0  0  0  0  0  0  0
  192.0980  174.4200  137.1950 C   0  0  0  0  0  3  0  0  0  0  0  0
  191.9000  176.8230  139.0390 C   0  0  0  0  0  0  0  0  0  0  0  0
  193.1280  176.8710  138.6340 N   0  0  0  0  0  0  0  0  0  0  0  0
  193.2430  175.0870  136.9720 C   0  0  0  0  0  3  0  0  0  0  0  0
  191.4980  177.2020  140.3430 N   0  0  0  0  0  2  0  0  0  0  0  0
  190.8140  174.9350  137.8190 C   0  0  1  0  0  3  0  0  0  0  0  0
  190.7430  176.4230  138.1940 C   0  0  1  0  0  3  0  0  0  0  0  0
  185.6410  176.1420  136.7090 C   0  0  0  0  0  1  0  0  0  0  0  0
  186.7160  175.3900  136.5070 C   0  0  0  0  0  0  0  0  0  0  0  0
  187.9240  176.0470  136.0980 N   0  0  0  0  0  0  0  0  0  0  0  0
  188.9760  173.4670  137.2910 N   0  0  0  0  0  0  0  0  0  0  0  0
  189.1830  175.3740  135.8010 C   0  0  2  0  0  3  0  0  0  0  0  0
  186.6520  173.9330  136.7890 C   0  0  0  0  0  0  0  0  0  0  0  0
  187.8170  173.0240  136.5500 C   0  0  0  0  0  2  0  0  0  0  0  0
  185.5860  173.4240  137.2290 O   0  0  0  0  0  0  0  0  0  0  0  0
  189.6340  174.5330  136.9760 C   0  0  0  0  0  0  0  0  0  0  0  0
  189.6110  177.4940  134.7390 O   0  0  0  0  0  1  0  0  0  0  0  0
  190.2240  176.3710  135.2980 C   0  0  0  0  0  2  0  0  0  0  0  0
  189.2020  177.2820  141.4520 C   0  0  0  0  0  2  0  0  0  0  0  0
  189.9560  177.9160  142.6120 C   0  0  0  0  0  2  0  0  0  0  0  0
  189.1450  177.7830  143.8890 C   0  0  0  0  0  2  0  0  0  0  0  0
  189.5870  177.3010  146.3370 C   0  0  0  0  0  0  0  0  0  0  0  0
  191.6460  176.1900  146.9970 C   0  0  0  0  0  0  0  0  0  0  0  0
  189.9980  177.2390  144.9890 C   0  0  0  0  0  0  0  0  0  0  0  0
  191.2350  176.6720  144.6630 C   0  0  0  0  0  3  0  0  0  0  0  0
  190.4160  176.7590  147.3320 C   0  0  0  0  0  3  0  0  0  0  0  0
  192.5140  175.6230  148.0610 C   0  0  0  0  0  1  0  0  0  0  0  0
  192.0570  176.1480  145.6630 C   0  0  0  0  0  3  0  0  0  0  0  0
  188.2180  178.4010  148.0100 O   0  0  0  0  0  1  0  0  0  0  0  0
  188.2430  177.8830  146.7090 C   0  0  2  0  0  3  0  0  0  0  0  0
  187.1670  177.0030  146.4660 O   0  0  0  0  0  0  0  0  0  0  0  0
  186.3340  177.5640  145.4830 C   0  0  0  0  0  2  0  0  0  0  0  0
  185.2270  178.3730  146.1430 C   0  0  0  0  0  2  0  0  0  0  0  0
  184.5340  178.3850  143.7420 C   0  0  0  0  0  1  0  0  0  0  0  0
  184.3220  179.0170  145.1050 C   0  0  0  0  0  2  0  0  0  0  0  0
  1  6  1  0  0  0  0
  2  3  2  0  0  0  0
  3  8  1  0  0  0  0
  3 22  1  0  0  0  0
  4  9  1  0  0  0  0
  5  8  1  0  0  0  0
  6  5  2  0  0  0  0
  7  4  2  0  0  0  0
  7  1  1  0  0  0  0
  9 19  1  6  0  0  0
  9 10  1  0  0  0  0
 10  5  1  1  0  0  0
 10  2  1  0  0  0  0
 12 11  1  0  0  0  0
 12 16  1  0  0  0  0
 13 12  2  0  0  0  0
 15 21  1  1  0  0  0
 15 13  1  0  0  0  0
 15 19  1  0  0  0  0
 16 18  2  0  0  0  0
 17 16  1  0  0  0  0
 17 14  1  0  0  0  0
 19 14  2  0  0  0  0
 20 21  1  0  0  0  0
 22 23  1  0  0  0  0
 23 24  1  0  0  0  0
 24 27  1  0  0  0  0
 25 33  1  0  0  0  0
 25 29  1  0  0  0  0
 26 29  2  0  0  0  0
 26 30  1  0  0  0  0
 27 25  2  0  0  0  0
 28 27  1  0  0  0  0
 28 31  2  0  0  0  0
 31 26  1  0  0  0  0
 33 32  1  1  0  0  0
 34 33  1  0  0  0  0
 35 36  1  0  0  0  0
 35 34  1  0  0  0  0
 37 38  1  0  0  0  0
 38 36  1  0  0  0  0
M  END
>  <MODEL>
7

>  <REMARK>
 VINA RESULT:      -7.6      4.439      7.773
  Name = 
  11 active torsions:
  status: ('A' for Active; 'I' for Inactive)
    1  A    between atoms: C_6  and  C_17
    2  A    between atoms: C_7  and  C_28
    3  A    between atoms: C_13  and  C_14
    4  A    between atoms: C_13  and  C_26
    5  A    between atoms: C_15  and  CA_22
    6  A    between atoms: C_17  and  O_18
    7  A    between atoms: O_18  and  C_26
    8  A    between atoms: C_20  and  C_30
    9  A    between atoms: C_20  and  C_32
   10  A    between atoms: C_27  and  C_38
   11  A    between atoms: C_28  and  C_30
                            x       y       z     vdW  Elec       q    Type
                         _______ _______ _______ _____ _____    ______ ____

>  <TORSDO>
F 11

$$$$
=
 OpenBabel10222416283D

 38 41  0  0  1  0  0  0  0  0999 V2000
  192.2530  176.7550  137.3840 C   0  0  0  0  0  2  0  0  0  0  0  0
  188.8930  177.1970  139.9770 N   0  0  0  0  0  0  0  0  0  0  0  0
  189.5510  176.8980  141.0550 C   0  0  0  0  0  0  0  0  0  0  0  0
  190.1610  175.4500  136.8170 C   0  0  0  0  0  3  0  0  0  0  0  0
  191.0400  176.6830  139.4470 C   0  0  0  0  0  0  0  0  0  0  0  0
  192.1590  176.5180  138.8180 N   0  0  0  0  0  0  0  0  0  0  0  0
  191.4560  175.7450  136.6110 C   0  0  0  0  0  3  0  0  0  0  0  0
  190.9100  176.5370  140.8490 N   0  0  0  0  0  2  0  0  0  0  0  0
  189.2240  176.0020  137.8740 C   0  0  1  0  0  3  0  0  0  0  0  0
  189.7610  177.0960  138.8100 C   0  0  1  0  0  3  0  0  0  0  0  0
  184.7600  178.9850  138.6650 C   0  0  0  0  0  1  0  0  0  0  0  0
  185.4800  178.1690  137.9040 C   0  0  0  0  0  0  0  0  0  0  0  0
  186.8120  178.5760  137.5590 N   0  0  0  0  0  0  0  0  0  0  0  0
  186.9520  175.5710  137.1950 N   0  0  0  0  0  0  0  0  0  0  0  0
  187.7240  177.8220  136.7090 C   0  0  2  0  0  3  0  0  0  0  0  0
  184.9180  176.8500  137.5130 C   0  0  0  0  0  0  0  0  0  0  0  0
  185.6630  175.8980  136.6290 C   0  0  0  0  0  2  0  0  0  0  0  0
  183.7750  176.5090  137.9170 O   0  0  0  0  0  0  0  0  0  0  0  0
  187.9240  176.4200  137.2440 C   0  0  0  0  0  0  0  0  0  0  0  0
  189.0490  179.7580  137.2560 O   0  0  0  0  0  1  0  0  0  0  0  0
  189.0150  178.6030  136.4740 C   0  0  0  0  0  2  0  0  0  0  0  0
  188.9100  176.8280  142.4050 C   0  0  0  0  0  2  0  0  0  0  0  0
  187.8780  177.9270  142.6050 C   0  0  0  0  0  2  0  0  0  0  0  0
  186.7640  177.4330  143.5120 C   0  0  0  0  0  2  0  0  0  0  0  0
  186.2880  178.3680  145.8180 C   0  0  0  0  0  0  0  0  0  0  0  0
  187.8770  178.0040  147.6210 C   0  0  0  0  0  0  0  0  0  0  0  0
  187.1300  177.6480  144.9440 C   0  0  0  0  0  0  0  0  0  0  0  0
  188.3430  177.1320  145.4130 C   0  0  0  0  0  3  0  0  0  0  0  0
  186.6670  178.5270  147.1590 C   0  0  0  0  0  3  0  0  0  0  0  0
  188.2670  178.1820  149.0430 C   0  0  0  0  0  1  0  0  0  0  0  0
  188.7160  177.3090  146.7480 C   0  0  0  0  0  3  0  0  0  0  0  0
  183.9990  178.9650  146.3570 O   0  0  0  0  0  1  0  0  0  0  0  0
  184.9610  178.9090  145.3400 C   0  0  2  0  0  3  0  0  0  0  0  0
  184.4760  178.2590  144.1860 O   0  0  0  0  0  0  0  0  0  0  0  0
  183.4800  179.0580  143.5980 C   0  0  0  0  0  2  0  0  0  0  0  0
  183.2320  178.6070  142.1670 C   0  0  0  0  0  2  0  0  0  0  0  0
  180.8200  178.6020  142.8200 C   0  0  0  0  0  1  0  0  0  0  0  0
  181.8150  178.9340  141.7230 C   0  0  0  0  0  2  0  0  0  0  0  0
  1  6  1  0  0  0  0
  2  3  2  0  0  0  0
  3 22  1  0  0  0  0
  4  9  1  0  0  0  0
  5  8  1  0  0  0  0
  6  5  2  0  0  0  0
  7  4  2  0  0  0  0
  7  1  1  0  0  0  0
  8  3  1  0  0  0  0
  9 19  1  6  0  0  0
  9 10  1  0  0  0  0
 10  5  1  1  0  0  0
 10  2  1  0  0  0  0
 12 11  1  0  0  0  0
 13 12  2  0  0  0  0
 14 19  2  0  0  0  0
 15 21  1  1  0  0  0
 15 19  1  0  0  0  0
 15 13  1  0  0  0  0
 16 12  1  0  0  0  0
 16 18  2  0  0  0  0
 17 14  1  0  0  0  0
 17 16  1  0  0  0  0
 21 20  1  0  0  0  0
 22 23  1  0  0  0  0
 23 24  1  0  0  0  0
 24 27  1  0  0  0  0
 25 29  1  0  0  0  0
 26 30  1  0  0  0  0
 27 28  1  0  0  0  0
 27 25  2  0  0  0  0
 28 31  2  0  0  0  0
 29 26  2  0  0  0  0
 31 26  1  0  0  0  0
 33 25  1  0  0  0  0
 33 32  1  1  0  0  0
 34 33  1  0  0  0  0
 35 34  1  0  0  0  0
 36 35  1  0  0  0  0
 38 36  1  0  0  0  0
 38 37  1  0  0  0  0
M  END
>  <MODEL>
8

>  <REMARK>
 VINA RESULT:      -7.3      3.617      6.974
  Name = 
  11 active torsions:
  status: ('A' for Active; 'I' for Inactive)
    1  A    between atoms: C_6  and  C_17
    2  A    between atoms: C_7  and  C_28
    3  A    between atoms: C_13  and  C_14
    4  A    between atoms: C_13  and  C_26
    5  A    between atoms: C_15  and  CA_22
    6  A    between atoms: C_17  and  O_18
    7  A    between atoms: O_18  and  C_26
    8  A    between atoms: C_20  and  C_30
    9  A    between atoms: C_20  and  C_32
   10  A    between atoms: C_27  and  C_38
   11  A    between atoms: C_28  and  C_30
                            x       y       z     vdW  Elec       q    Type
                         _______ _______ _______ _____ _____    ______ ____

>  <TORSDO>
F 11

$$$$
=
 OpenBabel10222416283D

 38 41  0  0  1  0  0  0  0  0999 V2000
  179.5290  178.6320  144.2260 C   0  0  0  0  0  2  0  0  0  0  0  0
  182.4860  178.6400  141.1500 N   0  0  0  0  0  0  0  0  0  0  0  0
  183.4910  178.7020  141.9690 C   0  0  0  0  0  0  0  0  0  0  0  0
  179.3150  180.3760  142.4060 C   0  0  0  0  0  3  0  0  0  0  0  0
  181.7280  178.7580  143.2870 C   0  0  0  0  0  0  0  0  0  0  0  0
  180.9760  178.7510  144.3400 N   0  0  0  0  0  0  0  0  0  0  0  0
  178.9310  179.8460  143.5800 C   0  0  0  0  0  3  0  0  0  0  0  0
  183.1410  178.8000  143.3430 N   0  0  0  0  0  2  0  0  0  0  0  0
  180.4430  179.9290  141.4950 C   0  0  1  0  0  3  0  0  0  0  0  0
  181.2290  178.6690  141.8880 C   0  0  1  0  0  3  0  0  0  0  0  0
  181.6010  177.8710  136.6090 C   0  0  0  0  0  2  0  0  0  0  0  0
  180.8060  178.5810  137.4000 C   0  0  0  0  0  0  0  0  0  0  0  0
  180.2780  177.9390  138.5690 N   0  0  0  0  0  2  0  0  0  0  0  0
  180.0720  180.8710  139.3070 N   0  0  0  0  0  0  0  0  0  0  0  0
  179.3670  178.5570  139.5240 C   0  0  2  0  0  3  0  0  0  0  0  0
  180.5630  180.0150  137.0940 C   0  0  0  0  0  0  0  0  0  0  0  0
  179.6510  180.8620  137.9250 C   0  0  0  0  0  2  0  0  0  0  0  0
  181.1230  180.5490  136.0990 O   0  0  0  0  0  0  0  0  0  0  0  0
  179.9530  179.8400  140.0750 C   0  0  0  0  0  0  0  0  0  0  0  0
  179.3730  176.2650  140.2670 O   0  0  0  0  0  1  0  0  0  0  0  0
  178.9320  177.5500  140.5860 C   0  0  0  0  0  2  0  0  0  0  0  0
  184.9120  178.7770  141.5080 C   0  0  0  0  0  2  0  0  0  0  0  0
  185.8820  178.9200  142.6710 C   0  0  0  0  0  2  0  0  0  0  0  0
  186.2910  177.5460  143.1750 C   0  0  0  0  0  2  0  0  0  0  0  0
  188.2950  177.3880  144.7170 C   0  0  0  0  0  0  0  0  0  0  0  0
  188.0420  177.8930  147.0810 C   0  0  0  0  0  0  0  0  0  0  0  0
  186.9230  177.6570  144.5230 C   0  0  0  0  0  0  0  0  0  0  0  0
  186.1250  178.0210  145.6130 C   0  0  0  0  0  3  0  0  0  0  0  0
  188.8460  177.5230  146.0000 C   0  0  0  0  0  3  0  0  0  0  0  0
  188.6380  178.0300  148.4350 C   0  0  0  0  0  1  0  0  0  0  0  0
  186.6810  178.1390  146.8880 C   0  0  0  0  0  3  0  0  0  0  0  0
  190.3960  176.4490  143.9510 O   0  0  0  0  0  1  0  0  0  0  0  0
  189.1820  177.0210  143.5500 C   0  0  2  0  0  3  0  0  0  0  0  0
  189.3690  178.0800  142.6370 O   0  0  0  0  0  0  0  0  0  0  0  0
  189.6490  177.5420  141.3690 C   0  0  0  0  0  2  0  0  0  0  0  0
  188.6700  178.0960  140.3440 C   0  0  0  0  0  2  0  0  0  0  0  0
  190.3950  177.2200  138.7630 C   0  0  0  0  0  1  0  0  0  0  0  0
  188.9180  177.5010  138.9670 C   0  0  0  0  0  2  0  0  0  0  0  0
  1  6  1  0  0  0  0
  2  3  2  0  0  0  0
  3  8  1  0  0  0  0
  4  7  2  0  0  0  0
  5  8  1  0  0  0  0
  5  6  2  0  0  0  0
  7  1  1  0  0  0  0
  9 19  1  6  0  0  0
  9 10  1  0  0  0  0
  9  4  1  0  0  0  0
 10  2  1  6  0  0  0
 10  5  1  0  0  0  0
 11 12  2  0  0  0  0
 12 13  1  0  0  0  0
 13 15  1  0  0  0  0
 14 19  2  0  0  0  0
 15 19  1  0  0  0  0
 15 21  1  1  0  0  0
 16 12  1  0  0  0  0
 16 17  1  0  0  0  0
 17 14  1  0  0  0  0
 18 16  2  0  0  0  0
 20 21  1  0  0  0  0
 22  3  1  0  0  0  0
 22 23  1  0  0  0  0
 23 24  1  0  0  0  0
 24 27  1  0  0  0  0
 25 29  1  0  0  0  0
 26 30  1  0  0  0  0
 27 25  2  0  0  0  0
 27 28  1  0  0  0  0
 28 31  2  0  0  0  0
 29 26  2  0  0  0  0
 31 26  1  0  0  0  0
 33 32  1  1  0  0  0
 33 25  1  0  0  0  0
 34 33  1  0  0  0  0
 35 34  1  0  0  0  0
 36 35  1  0  0  0  0
 37 38  1  0  0  0  0
 38 36  1  0  0  0  0
M  END
>  <MODEL>
9

>  <REMARK>
 VINA RESULT:      -7.3      2.214      3.743
  Name = 
  11 active torsions:
  status: ('A' for Active; 'I' for Inactive)
    1  A    between atoms: C_6  and  C_17
    2  A    between atoms: C_7  and  C_28
    3  A    between atoms: C_13  and  C_14
    4  A    between atoms: C_13  and  C_26
    5  A    between atoms: C_15  and  CA_22
    6  A    between atoms: C_17  and  O_18
    7  A    between atoms: O_18  and  C_26
    8  A    between atoms: C_20  and  C_30
    9  A    between atoms: C_20  and  C_32
   10  A    between atoms: C_27  and  C_38
   11  A    between atoms: C_28  and  C_30
                            x       y       z     vdW  Elec       q    Type
                         _______ _______ _______ _____ _____    ______ ____

>  <TORSDO>
F 11

$$$$
