=
 OpenBabel10222416433D

 45 51  0  0  1  0  0  0  0  0999 V2000
  188.0540  177.5850  144.3190 N   0  0  0  0  0  0  0  0  0  0  0  0
  186.1700  178.6050  141.3910 C   0  0  0  0  0  3  0  0  0  0  0  0
  189.0800  177.4250  143.3720 N   0  0  0  0  0  0  0  0  0  0  0  0
  184.9190  178.9670  141.9180 C   0  0  0  0  0  3  0  0  0  0  0  0
  189.6580  177.5680  138.5770 C   0  0  0  0  0  2  0  0  0  0  0  0
  189.2240  177.6740  140.9470 C   0  0  1  0  0  3  0  0  0  0  0  0
  184.6610  178.8890  143.3070 C   0  0  0  0  0  0  0  0  0  0  0  0
  187.1410  178.1510  142.2830 C   0  0  0  0  0  0  0  0  0  0  0  0
  188.6170  177.9420  139.6160 C   0  0  0  0  0  2  0  0  0  0  0  0
  188.5330  177.7410  142.0890 C   0  0  0  0  0  0  0  0  0  0  0  0
  190.5850  176.5390  139.2010 C   0  0  2  0  0  3  0  0  0  0  0  0
  185.6660  178.4250  144.1760 C   0  0  0  0  0  3  0  0  0  0  0  0
  186.8970  178.0590  143.6330 C   0  0  0  0  0  0  0  0  0  0  0  0
  190.9060  177.0780  140.9040 S   0  0  0  0  0  0  0  0  0  0  0  0
  191.8290  176.4820  138.4490 N   0  0  0  0  0  2  0  0  0  0  0  0
  192.2690  175.3010  137.7750 C   0  0  0  0  0  0  0  0  0  0  0  0
  191.5580  174.2610  137.7860 O   0  0  0  0  0  0  0  0  0  0  0  0
  195.1970  174.0780  138.7210 C   0  0  0  0  0  2  0  0  0  0  0  0
  193.5550  175.2940  137.0650 C   0  0  0  0  0  0  0  0  0  0  0  0
  195.6700  174.9740  136.6140 N   0  0  0  0  0  0  0  0  0  0  0  0
  193.8150  176.0280  135.9520 N   0  0  0  0  0  0  0  0  0  0  0  0
  194.7160  174.6570  137.4530 C   0  0  0  0  0  0  0  0  0  0  0  0
  196.7280  174.0510  138.4880 C   0  0  1  0  0  3  0  0  0  0  0  0
  196.9960  174.7350  137.1250 C   0  0  0  0  0  2  0  0  0  0  0  0
  195.9140  176.5440  134.6800 C   0  0  0  0  0  1  0  0  0  0  0  0
  195.1340  175.8180  135.7190 C   0  0  0  0  0  0  0  0  0  0  0  0
  197.4260  174.8050  139.6050 C   0  0  0  0  0  2  0  0  0  0  0  0
  198.5540  175.5500  139.0710 N   0  0  0  0  0  1  0  0  0  0  0  0
  186.9870  177.5910  146.5540 C   0  0  0  0  0  1  0  0  0  0  0  0
  188.2900  177.6660  145.7650 C   0  0  1  0  0  3  0  0  0  0  0  0
  189.2510  176.6540  146.2190 N   0  0  0  0  0  2  0  0  0  0  0  0
  191.6500  176.7180  145.8810 C   0  0  0  0  0  2  0  0  0  0  0  0
  191.3860  176.2250  147.2850 C   0  0  0  0  0  2  0  0  0  0  0  0
  190.4880  177.2820  146.6720 C   0  0  0  0  0  3  0  0  0  0  0  0
  183.3850  179.2380  143.8630 N   0  0  0  0  0  2  0  0  0  0  0  0
  180.5380  178.7580  141.3120 C   0  0  1  0  0  3  0  0  0  0  0  0
  181.0230  178.7840  144.1240 C   0  0  0  0  0  3  0  0  0  0  0  0
  179.6360  178.5190  143.6060 C   0  0  0  0  0  2  0  0  0  0  0  0
  179.6670  177.8940  142.2180 C   0  0  0  0  0  2  0  0  0  0  0  0
  181.9800  178.7580  141.8330 C   0  0  0  0  0  2  0  0  0  0  0  0
  182.0800  178.9820  143.3220 C   0  0  0  0  0  0  0  0  0  0  0  0
  179.1670  178.0320  139.4890 F   0  0  0  0  0  0  0  0  0  0  0  0
  180.4770  178.2800  139.8630 C   0  0  0  0  0  0  0  0  0  0  0  0
  181.2160  177.1180  139.7230 F   0  0  0  0  0  0  0  0  0  0  0  0
  181.0110  179.2460  139.0300 F   0  0  0  0  0  0  0  0  0  0  0  0
  1 30  1  0  0  0  0
  2  4  2  0  0  0  0
  2  8  1  0  0  0  0
  3  1  1  0  0  0  0
  4  7  1  0  0  0  0
  5 11  1  0  0  0  0
  5  9  1  0  0  0  0
  6 10  1  6  0  0  0
  7 35  1  0  0  0  0
  7 12  2  0  0  0  0
  8 13  2  0  0  0  0
  9  6  1  0  0  0  0
 10  8  1  0  0  0  0
 10  3  2  0  0  0  0
 11 15  1  6  0  0  0
 11 14  1  0  0  0  0
 13 12  1  0  0  0  0
 13  1  1  0  0  0  0
 14  6  1  0  0  0  0
 16 17  2  0  0  0  0
 16 15  1  0  0  0  0
 19 22  2  0  0  0  0
 19 16  1  0  0  0  0
 20 24  1  0  0  0  0
 20 22  1  0  0  0  0
 21 19  1  0  0  0  0
 22 18  1  0  0  0  0
 23 18  1  0  0  0  0
 23 27  1  1  0  0  0
 24 23  1  0  0  0  0
 25 26  1  0  0  0  0
 26 21  2  0  0  0  0
 26 20  1  0  0  0  0
 28 27  1  0  0  0  0
 30 31  1  0  0  0  0
 30 29  1  1  0  0  0
 31 34  1  0  0  0  0
 32 34  1  0  0  0  0
 32 33  1  0  0  0  0
 34 33  1  0  0  0  0
 36 43  1  6  0  0  0
 36 40  1  0  0  0  0
 36 39  1  0  0  0  0
 38 37  1  0  0  0  0
 39 38  1  0  0  0  0
 40 41  1  0  0  0  0
 41 35  1  0  0  0  0
 41 37  2  0  0  0  0
 42 43  1  0  0  0  0
 44 43  1  0  0  0  0
 45 43  1  0  0  0  0
M  END
>  <MODEL>
1

>  <REMARK>
 VINA RESULT:     -10.2      0.000      0.000
  Name = 
  9 active torsions:
  status: ('A' for Active; 'I' for Inactive)
    1  A    between atoms: C_1  and  C_25
    2  A    between atoms: N_2  and  C_29
    3  A    between atoms: N_2  and  C_43
    4  A    between atoms: N_3  and  C_37
    5  A    between atoms: N_6  and  C_38
    6  A    between atoms: C_12  and  C_28
    7  A    between atoms: N_17  and  C_37
    8  A    between atoms: N_17  and  C_39
    9  A    between atoms: C_20  and  C_23
                            x       y       z     vdW  Elec       q    Type
                         _______ _______ _______ _____ _____    ______ ____

>  <TORSDO>
F 9

$$$$
=
 OpenBabel10222416433D

 45 51  0  0  1  0  0  0  0  0999 V2000
  186.9840  177.1010  137.1190 N   0  0  0  0  0  0  0  0  0  0  0  0
  188.3030  178.1220  140.3410 C   0  0  0  0  0  3  0  0  0  0  0  0
  188.2860  176.5990  136.9560 N   0  0  0  0  0  0  0  0  0  0  0  0
  187.1930  178.7000  140.9800 C   0  0  0  0  0  3  0  0  0  0  0  0
  192.5390  176.7010  139.2470 C   0  0  0  0  0  2  0  0  0  0  0  0
  190.3170  176.6350  138.3110 C   0  0  1  0  0  3  0  0  0  0  0  0
  185.9320  178.7600  140.3400 C   0  0  0  0  0  0  0  0  0  0  0  0
  188.1210  177.6260  139.0510 C   0  0  0  0  0  0  0  0  0  0  0  0
  191.0880  177.0560  139.5120 C   0  0  0  0  0  2  0  0  0  0  0  0
  189.0280  176.9370  138.1300 C   0  0  0  0  0  0  0  0  0  0  0  0
  192.7400  176.6660  137.7410 C   0  0  2  0  0  3  0  0  0  0  0  0
  185.7890  178.2490  139.0370 C   0  0  0  0  0  3  0  0  0  0  0  0
  186.9040  177.6900  138.4160 C   0  0  0  0  0  0  0  0  0  0  0  0
  191.2820  175.8480  137.0320 S   0  0  0  0  0  0  0  0  0  0  0  0
  193.9420  175.9120  137.4260 N   0  0  0  0  0  2  0  0  0  0  0  0
  194.5490  175.9350  136.1320 C   0  0  0  0  0  0  0  0  0  0  0  0
  194.0640  176.6520  135.2160 O   0  0  0  0  0  0  0  0  0  0  0  0
  194.7730  172.8120  135.0530 C   0  0  0  0  0  2  0  0  0  0  0  0
  195.7410  175.1200  135.8620 C   0  0  0  0  0  0  0  0  0  0  0  0
  197.0140  173.4280  135.3170 N   0  0  0  0  0  0  0  0  0  0  0  0
  196.9980  175.4570  136.2530 N   0  0  0  0  0  0  0  0  0  0  0  0
  195.7790  173.8650  135.2920 C   0  0  0  0  0  0  0  0  0  0  0  0
  195.6700  171.5610  134.8800 C   0  0  1  0  0  3  0  0  0  0  0  0
  197.1290  172.0010  135.1530 C   0  0  0  0  0  2  0  0  0  0  0  0
  199.1800  174.2210  136.2890 C   0  0  0  0  0  1  0  0  0  0  0  0
  197.7470  174.3790  135.9150 C   0  0  0  0  0  0  0  0  0  0  0  0
  195.2460  170.4910  135.8690 C   0  0  0  0  0  2  0  0  0  0  0  0
  193.8510  170.6780  136.2340 N   0  0  0  0  0  1  0  0  0  0  0  0
  185.8550  177.3930  134.9330 C   0  0  0  0  0  1  0  0  0  0  0  0
  185.8460  176.6920  136.2880 C   0  0  1  0  0  3  0  0  0  0  0  0
  185.7760  175.2340  136.1390 N   0  0  0  0  0  2  0  0  0  0  0  0
  185.7570  173.2810  137.5750 C   0  0  0  0  0  2  0  0  0  0  0  0
  184.4310  173.3480  136.8530 C   0  0  0  0  0  2  0  0  0  0  0  0
  185.1180  174.6260  137.2910 C   0  0  0  0  0  3  0  0  0  0  0  0
  184.7900  179.3620  140.9690 N   0  0  0  0  0  2  0  0  0  0  0  0
  184.4410  178.3160  144.6610 C   0  0  1  0  0  3  0  0  0  0  0  0
  182.8620  178.9800  142.3790 C   0  0  0  0  0  3  0  0  0  0  0  0
  182.1900  178.6320  143.6780 C   0  0  0  0  0  2  0  0  0  0  0  0
  183.0760  178.9620  144.8730 C   0  0  0  0  0  2  0  0  0  0  0  0
  185.1130  178.9280  143.4250 C   0  0  0  0  0  2  0  0  0  0  0  0
  184.1940  179.0300  142.2330 C   0  0  0  0  0  0  0  0  0  0  0  0
  185.8360  179.7520  145.9740 F   0  0  0  0  0  0  0  0  0  0  0  0
  185.3250  178.4670  145.8970 C   0  0  0  0  0  0  0  0  0  0  0  0
  186.3730  177.5660  145.8350 F   0  0  0  0  0  0  0  0  0  0  0  0
  184.5840  178.2060  147.0350 F   0  0  0  0  0  0  0  0  0  0  0  0
  1 13  1  0  0  0  0
  2  4  1  0  0  0  0
  3  1  1  0  0  0  0
  3 10  2  0  0  0  0
  5  9  1  0  0  0  0
  6 10  1  6  0  0  0
  6  9  1  0  0  0  0
  7 35  1  0  0  0  0
  7  4  2  0  0  0  0
  8  2  2  0  0  0  0
 10  8  1  0  0  0  0
 11 15  1  1  0  0  0
 11  5  1  0  0  0  0
 12  7  1  0  0  0  0
 13 12  2  0  0  0  0
 13  8  1  0  0  0  0
 14 11  1  0  0  0  0
 14  6  1  0  0  0  0
 16 15  1  0  0  0  0
 17 16  2  0  0  0  0
 18 22  1  0  0  0  0
 19 16  1  0  0  0  0
 19 21  1  0  0  0  0
 20 26  1  0  0  0  0
 22 20  1  0  0  0  0
 22 19  2  0  0  0  0
 23 18  1  0  0  0  0
 23 24  1  0  0  0  0
 23 27  1  1  0  0  0
 24 20  1  0  0  0  0
 26 21  2  0  0  0  0
 26 25  1  0  0  0  0
 27 28  1  0  0  0  0
 30 29  1  6  0  0  0
 30  1  1  0  0  0  0
 31 30  1  0  0  0  0
 31 34  1  0  0  0  0
 33 34  1  0  0  0  0
 33 32  1  0  0  0  0
 34 32  1  0  0  0  0
 35 41  1  0  0  0  0
 36 39  1  0  0  0  0
 36 43  1  1  0  0  0
 37 38  1  0  0  0  0
 38 39  1  0  0  0  0
 40 36  1  0  0  0  0
 41 37  2  0  0  0  0
 41 40  1  0  0  0  0
 43 42  1  0  0  0  0
 43 45  1  0  0  0  0
 44 43  1  0  0  0  0
M  END
>  <MODEL>
2

>  <REMARK>
 VINA RESULT:      -9.0      3.717      5.981
  Name = 
  9 active torsions:
  status: ('A' for Active; 'I' for Inactive)
    1  A    between atoms: C_1  and  C_25
    2  A    between atoms: N_2  and  C_29
    3  A    between atoms: N_2  and  C_43
    4  A    between atoms: N_3  and  C_37
    5  A    between atoms: N_6  and  C_38
    6  A    between atoms: C_12  and  C_28
    7  A    between atoms: N_17  and  C_37
    8  A    between atoms: N_17  and  C_39
    9  A    between atoms: C_20  and  C_23
                            x       y       z     vdW  Elec       q    Type
                         _______ _______ _______ _____ _____    ______ ____

>  <TORSDO>
F 9

$$$$
=
 OpenBabel10222416433D

 45 51  0  0  1  0  0  0  0  0999 V2000
  187.3880  177.8620  138.0790 N   0  0  0  0  0  0  0  0  0  0  0  0
  189.1830  177.6660  141.2260 C   0  0  0  0  0  3  0  0  0  0  0  0
  188.6010  177.3660  137.5720 N   0  0  0  0  0  0  0  0  0  0  0  0
  188.2250  178.0630  142.1740 C   0  0  0  0  0  3  0  0  0  0  0  0
  193.0840  176.4400  139.1190 C   0  0  0  0  0  2  0  0  0  0  0  0
  190.7720  176.8240  138.5510 C   0  0  1  0  0  3  0  0  0  0  0  0
  186.9100  178.4090  141.7820 C   0  0  0  0  0  0  0  0  0  0  0  0
  188.7970  177.6410  139.8870 C   0  0  0  0  0  0  0  0  0  0  0  0
  191.7200  176.7720  139.6960 C   0  0  0  0  0  2  0  0  0  0  0  0
  189.5090  177.2460  138.6700 C   0  0  0  0  0  0  0  0  0  0  0  0
  193.0980  176.8980  137.6710 C   0  0  2  0  0  3  0  0  0  0  0  0
  186.5580  178.3730  140.4200 C   0  0  0  0  0  3  0  0  0  0  0  0
  187.5260  177.9870  139.4940 C   0  0  0  0  0  0  0  0  0  0  0  0
  191.4890  176.4530  136.9590 S   0  0  0  0  0  0  0  0  0  0  0  0
  194.1680  176.2220  136.9550 N   0  0  0  0  0  2  0  0  0  0  0  0
  194.4650  174.8360  137.1410 C   0  0  0  0  0  0  0  0  0  0  0  0
  193.7680  174.1370  137.9250 O   0  0  0  0  0  0  0  0  0  0  0  0
  194.9200  171.6790  136.2510 C   0  0  0  0  0  2  0  0  0  0  0  0
  195.5840  174.2180  136.4170 C   0  0  0  0  0  0  0  0  0  0  0  0
  196.8580  172.7210  135.4610 N   0  0  0  0  0  0  0  0  0  0  0  0
  196.7750  174.8310  136.1920 N   0  0  0  0  0  0  0  0  0  0  0  0
  195.6640  172.9190  135.9610 C   0  0  0  0  0  0  0  0  0  0  0  0
  195.9210  170.5980  135.7700 C   0  0  1  0  0  3  0  0  0  0  0  0
  197.2160  171.3310  135.3440 C   0  0  0  0  0  2  0  0  0  0  0  0
  198.9890  174.0290  135.3270 C   0  0  0  0  0  1  0  0  0  0  0  0
  197.5370  173.8680  135.6180 C   0  0  0  0  0  0  0  0  0  0  0  0
  196.2080  169.6300  136.9030 C   0  0  0  0  0  2  0  0  0  0  0  0
  195.3940  169.9650  138.0600 N   0  0  0  0  0  1  0  0  0  0  0  0
  186.3500  177.6380  135.8420 C   0  0  0  0  0  1  0  0  0  0  0  0
  186.1220  177.8230  137.3390 C   0  0  1  0  0  3  0  0  0  0  0  0
  185.2090  176.8070  137.8730 N   0  0  0  0  0  2  0  0  0  0  0  0
  183.6120  178.5160  138.5070 C   0  0  0  0  0  2  0  0  0  0  0  0
  183.1490  177.2000  139.0890 C   0  0  0  0  0  2  0  0  0  0  0  0
  183.8200  177.2320  137.7300 C   0  0  0  0  0  3  0  0  0  0  0  0
  185.9210  178.8340  142.7320 N   0  0  0  0  0  2  0  0  0  0  0  0
  186.8980  177.5290  146.2230 C   0  0  1  0  0  3  0  0  0  0  0  0
  184.7670  178.8470  144.8590 C   0  0  0  0  0  3  0  0  0  0  0  0
  184.6480  178.5570  146.3290 C   0  0  0  0  0  2  0  0  0  0  0  0
  186.0140  178.4990  147.0000 C   0  0  0  0  0  2  0  0  0  0  0  0
  187.1220  178.0630  144.8030 C   0  0  0  0  0  2  0  0  0  0  0  0
  185.8570  178.5430  144.1370 C   0  0  0  0  0  0  0  0  0  0  0  0
  188.0540  176.4490  148.0200 F   0  0  0  0  0  0  0  0  0  0  0  0
  188.2280  177.2960  146.9380 C   0  0  0  0  0  0  0  0  0  0  0  0
  188.7370  178.5030  147.3840 F   0  0  0  0  0  0  0  0  0  0  0  0
  189.1360  176.7300  146.0620 F   0  0  0  0  0  0  0  0  0  0  0  0
  1 13  1  0  0  0  0
  2  4  1  0  0  0  0
  3  1  1  0  0  0  0
  3 10  2  0  0  0  0
  5  9  1  0  0  0  0
  6 10  1  6  0  0  0
  6  9  1  0  0  0  0
  7  4  2  0  0  0  0
  7 35  1  0  0  0  0
  8  2  2  0  0  0  0
 10  8  1  0  0  0  0
 11 15  1  6  0  0  0
 11  5  1  0  0  0  0
 12  7  1  0  0  0  0
 13  8  1  0  0  0  0
 13 12  2  0  0  0  0
 14 11  1  0  0  0  0
 14  6  1  0  0  0  0
 15 16  1  0  0  0  0
 16 17  2  0  0  0  0
 19 16  1  0  0  0  0
 20 26  1  0  0  0  0
 20 22  1  0  0  0  0
 21 19  1  0  0  0  0
 22 18  1  0  0  0  0
 22 19  2  0  0  0  0
 23 18  1  0  0  0  0
 23 27  1  1  0  0  0
 24 20  1  0  0  0  0
 24 23  1  0  0  0  0
 25 26  1  0  0  0  0
 26 21  2  0  0  0  0
 27 28  1  0  0  0  0
 30 29  1  6  0  0  0
 30 31  1  0  0  0  0
 30  1  1  0  0  0  0
 32 33  1  0  0  0  0
 34 31  1  0  0  0  0
 34 32  1  0  0  0  0
 34 33  1  0  0  0  0
 35 41  1  0  0  0  0
 36 43  1  1  0  0  0
 36 39  1  0  0  0  0
 37 38  1  0  0  0  0
 38 39  1  0  0  0  0
 40 36  1  0  0  0  0
 41 40  1  0  0  0  0
 41 37  2  0  0  0  0
 43 44  1  0  0  0  0
 43 42  1  0  0  0  0
 45 43  1  0  0  0  0
M  END
>  <MODEL>
3

>  <REMARK>
 VINA RESULT:      -8.2      3.836      6.347
  Name = 
  9 active torsions:
  status: ('A' for Active; 'I' for Inactive)
    1  A    between atoms: C_1  and  C_25
    2  A    between atoms: N_2  and  C_29
    3  A    between atoms: N_2  and  C_43
    4  A    between atoms: N_3  and  C_37
    5  A    between atoms: N_6  and  C_38
    6  A    between atoms: C_12  and  C_28
    7  A    between atoms: N_17  and  C_37
    8  A    between atoms: N_17  and  C_39
    9  A    between atoms: C_20  and  C_23
                            x       y       z     vdW  Elec       q    Type
                         _______ _______ _______ _____ _____    ______ ____

>  <TORSDO>
F 9

$$$$
=
 OpenBabel10222416433D

 45 51  0  0  1  0  0  0  0  0999 V2000
  184.6890  176.3280  136.3970 N   0  0  0  0  0  0  0  0  0  0  0  0
  185.3810  178.8250  138.9360 C   0  0  0  0  0  3  0  0  0  0  0  0
  186.0280  175.9810  136.6390 N   0  0  0  0  0  0  0  0  0  0  0  0
  184.1460  179.4730  139.1020 C   0  0  0  0  0  3  0  0  0  0  0  0
  189.8220  177.6390  139.1330 C   0  0  0  0  0  2  0  0  0  0  0  0
  187.7970  176.8760  138.0660 C   0  0  1  0  0  3  0  0  0  0  0  0
  183.0090  179.0800  138.3570 C   0  0  0  0  0  0  0  0  0  0  0  0
  185.4500  177.7930  138.0020 C   0  0  0  0  0  0  0  0  0  0  0  0
  188.3270  177.8790  139.0290 C   0  0  0  0  0  2  0  0  0  0  0  0
  186.5400  176.8950  137.6130 C   0  0  0  0  0  0  0  0  0  0  0  0
  190.2740  176.9720  137.8440 C   0  0  2  0  0  3  0  0  0  0  0  0
  183.1180  178.0340  137.4220 C   0  0  0  0  0  3  0  0  0  0  0  0
  184.3560  177.4110  137.2640 C   0  0  0  0  0  0  0  0  0  0  0  0
  189.0100  175.7420  137.4130 S   0  0  0  0  0  0  0  0  0  0  0  0
  191.5570  176.3220  138.0550 N   0  0  0  0  0  2  0  0  0  0  0  0
  192.3660  175.8450  136.9770 C   0  0  0  0  0  0  0  0  0  0  0  0
  191.9940  176.0080  135.7840 O   0  0  0  0  0  0  0  0  0  0  0  0
  193.5520  173.0110  135.7400 C   0  0  0  0  0  2  0  0  0  0  0  0
  193.6350  175.1590  137.2550 C   0  0  0  0  0  0  0  0  0  0  0  0
  195.2380  173.6740  137.2170 N   0  0  0  0  0  0  0  0  0  0  0  0
  194.4600  175.4750  138.2860 N   0  0  0  0  0  0  0  0  0  0  0  0
  194.1360  174.0450  136.6150 C   0  0  0  0  0  0  0  0  0  0  0  0
  194.5840  171.8650  135.8830 C   0  0  1  0  0  3  0  0  0  0  0  0
  195.6260  172.3150  136.9360 C   0  0  0  0  0  2  0  0  0  0  0  0
  196.4800  174.3670  139.2770 C   0  0  0  0  0  1  0  0  0  0  0  0
  195.4250  174.5240  138.2390 C   0  0  0  0  0  0  0  0  0  0  0  0
  193.8800  170.6010  136.3410 C   0  0  0  0  0  2  0  0  0  0  0  0
  194.6530  169.9540  137.3880 N   0  0  0  0  0  1  0  0  0  0  0  0
  182.9970  176.1800  134.5940 C   0  0  0  0  0  1  0  0  0  0  0  0
  183.7340  175.4490  135.7120 C   0  0  1  0  0  3  0  0  0  0  0  0
  184.3750  174.2240  135.2210 N   0  0  0  0  0  2  0  0  0  0  0  0
  183.8020  172.9710  137.2150 C   0  0  0  0  0  2  0  0  0  0  0  0
  184.6710  172.0950  136.3430 C   0  0  0  0  0  2  0  0  0  0  0  0
  183.6720  173.0410  135.7080 C   0  0  0  0  0  3  0  0  0  0  0  0
  181.7420  179.7400  138.4990 N   0  0  0  0  0  2  0  0  0  0  0  0
  180.6690  183.1830  137.1430 C   0  0  1  0  0  3  0  0  0  0  0  0
  180.4570  180.3980  136.5580 C   0  0  0  0  0  3  0  0  0  0  0  0
  179.8240  181.4060  135.6390 C   0  0  0  0  0  2  0  0  0  0  0  0
  180.5530  182.7430  135.6870 C   0  0  0  0  0  2  0  0  0  0  0  0
  181.5310  182.1770  137.9170 C   0  0  0  0  0  2  0  0  0  0  0  0
  181.1610  180.7400  137.6480 C   0  0  0  0  0  0  0  0  0  0  0  0
  181.2980  185.1930  136.0040 F   0  0  0  0  0  0  0  0  0  0  0  0
  181.2410  184.5950  137.2520 C   0  0  0  0  0  0  0  0  0  0  0  0
  182.5170  184.5420  137.7870 F   0  0  0  0  0  0  0  0  0  0  0  0
  180.4440  185.3580  138.0850 F   0  0  0  0  0  0  0  0  0  0  0  0
  1  3  1  0  0  0  0
  1 13  1  0  0  0  0
  2  4  1  0  0  0  0
  3 10  2  0  0  0  0
  6 10  1  6  0  0  0
  6  9  1  0  0  0  0
  7 35  1  0  0  0  0
  7  4  2  0  0  0  0
  8  2  2  0  0  0  0
  9  5  1  0  0  0  0
 10  8  1  0  0  0  0
 11 15  1  1  0  0  0
 11  5  1  0  0  0  0
 12  7  1  0  0  0  0
 13 12  2  0  0  0  0
 13  8  1  0  0  0  0
 14 11  1  0  0  0  0
 14  6  1  0  0  0  0
 16 19  1  0  0  0  0
 16 15  1  0  0  0  0
 17 16  2  0  0  0  0
 18 23  1  0  0  0  0
 18 22  1  0  0  0  0
 19 21  1  0  0  0  0
 20 26  1  0  0  0  0
 22 20  1  0  0  0  0
 22 19  2  0  0  0  0
 23 27  1  1  0  0  0
 23 24  1  0  0  0  0
 24 20  1  0  0  0  0
 26 21  2  0  0  0  0
 26 25  1  0  0  0  0
 27 28  1  0  0  0  0
 30 29  1  6  0  0  0
 30  1  1  0  0  0  0
 31 34  1  0  0  0  0
 31 30  1  0  0  0  0
 33 32  1  0  0  0  0
 34 33  1  0  0  0  0
 34 32  1  0  0  0  0
 36 43  1  6  0  0  0
 36 40  1  0  0  0  0
 37 41  2  0  0  0  0
 38 39  1  0  0  0  0
 38 37  1  0  0  0  0
 39 36  1  0  0  0  0
 41 40  1  0  0  0  0
 41 35  1  0  0  0  0
 42 43  1  0  0  0  0
 43 44  1  0  0  0  0
 43 45  1  0  0  0  0
M  END
>  <MODEL>
4

>  <REMARK>
 VINA RESULT:      -8.0      4.654      6.721
  Name = 
  9 active torsions:
  status: ('A' for Active; 'I' for Inactive)
    1  A    between atoms: C_1  and  C_25
    2  A    between atoms: N_2  and  C_29
    3  A    between atoms: N_2  and  C_43
    4  A    between atoms: N_3  and  C_37
    5  A    between atoms: N_6  and  C_38
    6  A    between atoms: C_12  and  C_28
    7  A    between atoms: N_17  and  C_37
    8  A    between atoms: N_17  and  C_39
    9  A    between atoms: C_20  and  C_23
                            x       y       z     vdW  Elec       q    Type
                         _______ _______ _______ _____ _____    ______ ____

>  <TORSDO>
F 9

$$$$
=
 OpenBabel10222416433D

 45 51  0  0  1  0  0  0  0  0999 V2000
  186.9840  176.9450  136.9570 N   0  0  0  0  0  0  0  0  0  0  0  0
  188.0630  178.1500  140.2040 C   0  0  0  0  0  3  0  0  0  0  0  0
  188.2990  176.4520  136.9120 N   0  0  0  0  0  0  0  0  0  0  0  0
  186.9060  178.7470  140.7320 C   0  0  0  0  0  3  0  0  0  0  0  0
  192.3790  176.7270  139.4860 C   0  0  0  0  0  2  0  0  0  0  0  0
  190.2290  176.5840  138.4020 C   0  0  1  0  0  3  0  0  0  0  0  0
  185.6930  178.7570  140.0040 C   0  0  0  0  0  0  0  0  0  0  0  0
  187.9770  177.5840  138.9330 C   0  0  0  0  0  0  0  0  0  0  0  0
  190.9090  177.0770  139.6300 C   0  0  0  0  0  2  0  0  0  0  0  0
  188.9530  176.8600  138.1160 C   0  0  0  0  0  0  0  0  0  0  0  0
  192.6850  176.6160  138.0020 C   0  0  2  0  0  3  0  0  0  0  0  0
  185.6460  178.1770  138.7230 C   0  0  0  0  0  3  0  0  0  0  0  0
  186.8080  177.6000  138.2110 C   0  0  0  0  0  0  0  0  0  0  0  0
  191.2890  175.7430  137.2370 S   0  0  0  0  0  0  0  0  0  0  0  0
  193.9140  175.8610  137.8120 N   0  0  0  0  0  2  0  0  0  0  0  0
  194.5560  175.7430  136.5410 C   0  0  0  0  0  0  0  0  0  0  0  0
  194.0810  176.3300  135.5320 O   0  0  0  0  0  0  0  0  0  0  0  0
  194.8980  172.5790  135.6260 C   0  0  0  0  0  2  0  0  0  0  0  0
  195.7740  174.9330  136.4040 C   0  0  0  0  0  0  0  0  0  0  0  0
  197.1040  173.2370  136.0380 N   0  0  0  0  0  0  0  0  0  0  0  0
  196.9920  175.3050  136.8770 N   0  0  0  0  0  0  0  0  0  0  0  0
  195.8700  173.6550  135.8960 C   0  0  0  0  0  0  0  0  0  0  0  0
  195.8180  171.3340  135.5810 C   0  0  1  0  0  3  0  0  0  0  0  0
  197.2460  171.8060  135.9480 C   0  0  0  0  0  2  0  0  0  0  0  0
  199.1770  174.1020  137.1410 C   0  0  0  0  0  1  0  0  0  0  0  0
  197.7780  174.2230  136.6490 C   0  0  0  0  0  0  0  0  0  0  0  0
  195.3280  170.3030  136.5810 C   0  0  0  0  0  2  0  0  0  0  0  0
  196.2100  170.2710  137.7350 N   0  0  0  0  0  1  0  0  0  0  0  0
  185.8000  177.3390  134.8160 C   0  0  0  0  0  1  0  0  0  0  0  0
  185.9110  176.4780  136.0720 C   0  0  1  0  0  3  0  0  0  0  0  0
  186.0590  175.0580  135.7370 N   0  0  0  0  0  2  0  0  0  0  0  0
  185.1700  173.3750  137.2390 C   0  0  0  0  0  2  0  0  0  0  0  0
  185.0850  172.8390  135.8290 C   0  0  0  0  0  2  0  0  0  0  0  0
  184.8540  174.3140  136.0930 C   0  0  0  0  0  3  0  0  0  0  0  0
  184.5040  179.3760  140.5180 N   0  0  0  0  0  2  0  0  0  0  0  0
  181.9160  179.1640  143.3640 C   0  0  1  0  0  3  0  0  0  0  0  0
  184.7330  179.2410  142.9230 C   0  0  0  0  0  3  0  0  0  0  0  0
  184.1980  179.1370  144.3240 C   0  0  0  0  0  2  0  0  0  0  0  0
  182.8350  178.4570  144.3530 C   0  0  0  0  0  2  0  0  0  0  0  0
  182.4650  178.9990  141.9420 C   0  0  0  0  0  2  0  0  0  0  0  0
  183.9460  179.2690  141.8370 C   0  0  0  0  0  0  0  0  0  0  0  0
  180.2360  177.7150  142.4620 F   0  0  0  0  0  0  0  0  0  0  0  0
  180.4840  178.6390  143.4630 C   0  0  0  0  0  0  0  0  0  0  0  0
  179.5920  179.6900  143.3410 F   0  0  0  0  0  0  0  0  0  0  0  0
  180.2930  178.0370  144.6930 F   0  0  0  0  0  0  0  0  0  0  0  0
  1 13  1  0  0  0  0
  2  4  1  0  0  0  0
  3  1  1  0  0  0  0
  3 10  2  0  0  0  0
  5  9  1  0  0  0  0
  6 10  1  6  0  0  0
  6  9  1  0  0  0  0
  7 35  1  0  0  0  0
  7  4  2  0  0  0  0
  8  2  2  0  0  0  0
 10  8  1  0  0  0  0
 11 15  1  1  0  0  0
 11  5  1  0  0  0  0
 12  7  1  0  0  0  0
 13 12  2  0  0  0  0
 13  8  1  0  0  0  0
 14 11  1  0  0  0  0
 14  6  1  0  0  0  0
 16 15  1  0  0  0  0
 17 16  2  0  0  0  0
 18 22  1  0  0  0  0
 19 16  1  0  0  0  0
 19 21  1  0  0  0  0
 20 26  1  0  0  0  0
 22 20  1  0  0  0  0
 22 19  2  0  0  0  0
 23 18  1  0  0  0  0
 23 24  1  0  0  0  0
 23 27  1  1  0  0  0
 24 20  1  0  0  0  0
 26 21  2  0  0  0  0
 26 25  1  0  0  0  0
 27 28  1  0  0  0  0
 30 29  1  6  0  0  0
 30  1  1  0  0  0  0
 31 30  1  0  0  0  0
 31 34  1  0  0  0  0
 33 34  1  0  0  0  0
 33 32  1  0  0  0  0
 34 32  1  0  0  0  0
 35 41  1  0  0  0  0
 36 43  1  6  0  0  0
 36 39  1  0  0  0  0
 37 38  1  0  0  0  0
 38 39  1  0  0  0  0
 40 36  1  0  0  0  0
 41 40  1  0  0  0  0
 41 37  2  0  0  0  0
 42 43  1  0  0  0  0
 43 45  1  0  0  0  0
 44 43  1  0  0  0  0
M  END
>  <MODEL>
5

>  <REMARK>
 VINA RESULT:      -7.7      3.300      5.642
  Name = 
  9 active torsions:
  status: ('A' for Active; 'I' for Inactive)
    1  A    between atoms: C_1  and  C_25
    2  A    between atoms: N_2  and  C_29
    3  A    between atoms: N_2  and  C_43
    4  A    between atoms: N_3  and  C_37
    5  A    between atoms: N_6  and  C_38
    6  A    between atoms: C_12  and  C_28
    7  A    between atoms: N_17  and  C_37
    8  A    between atoms: N_17  and  C_39
    9  A    between atoms: C_20  and  C_23
                            x       y       z     vdW  Elec       q    Type
                         _______ _______ _______ _____ _____    ______ ____

>  <TORSDO>
F 9

$$$$
=
 OpenBabel10222416433D

 45 51  0  0  1  0  0  0  0  0999 V2000
  186.2700  175.6300  136.1950 N   0  0  0  0  0  0  0  0  0  0  0  0
  187.6300  177.8230  138.7440 C   0  0  0  0  0  3  0  0  0  0  0  0
  187.6030  175.1900  136.1290 N   0  0  0  0  0  0  0  0  0  0  0  0
  186.5030  178.5180  139.2140 C   0  0  0  0  0  3  0  0  0  0  0  0
  191.9240  176.3870  137.9300 C   0  0  0  0  0  2  0  0  0  0  0  0
  189.6790  175.8430  137.2370 C   0  0  1  0  0  3  0  0  0  0  0  0
  185.2150  178.2610  138.6850 C   0  0  0  0  0  0  0  0  0  0  0  0
  187.4380  176.8860  137.7300 C   0  0  0  0  0  0  0  0  0  0  0  0
  190.4600  176.7170  138.1540 C   0  0  0  0  0  2  0  0  0  0  0  0
  188.3610  175.9750  137.0520 C   0  0  0  0  0  0  0  0  0  0  0  0
  192.0630  175.8280  136.5240 C   0  0  2  0  0  3  0  0  0  0  0  0
  185.0620  177.3090  137.6610 C   0  0  0  0  0  3  0  0  0  0  0  0
  186.1940  176.6390  137.2010 C   0  0  0  0  0  0  0  0  0  0  0  0
  190.6530  174.7160  136.2550 S   0  0  0  0  0  0  0  0  0  0  0  0
  193.3120  175.0920  136.4120 N   0  0  0  0  0  2  0  0  0  0  0  0
  194.5660  175.7330  136.1680 C   0  0  0  0  0  0  0  0  0  0  0  0
  194.6290  176.9880  136.0730 O   0  0  0  0  0  0  0  0  0  0  0  0
  194.9320  172.6030  135.1520 C   0  0  0  0  0  2  0  0  0  0  0  0
  195.7880  174.9320  136.0250 C   0  0  0  0  0  0  0  0  0  0  0  0
  197.1280  173.2510  135.6250 N   0  0  0  0  0  0  0  0  0  0  0  0
  196.9970  175.2890  136.5320 N   0  0  0  0  0  0  0  0  0  0  0  0
  195.8970  173.6710  135.4750 C   0  0  0  0  0  0  0  0  0  0  0  0
  195.8570  171.3620  135.0810 C   0  0  1  0  0  3  0  0  0  0  0  0
  197.2760  171.8250  135.4900 C   0  0  0  0  0  2  0  0  0  0  0  0
  199.1800  174.0830  136.7940 C   0  0  0  0  0  1  0  0  0  0  0  0
  197.7890  174.2180  136.2810 C   0  0  0  0  0  0  0  0  0  0  0  0
  195.3510  170.2970  136.0370 C   0  0  0  0  0  2  0  0  0  0  0  0
  193.9760  170.5790  136.4130 N   0  0  0  0  0  1  0  0  0  0  0  0
  185.5890  173.8670  134.5940 C   0  0  0  0  0  1  0  0  0  0  0  0
  185.1380  174.8760  135.6450 C   0  0  1  0  0  3  0  0  0  0  0  0
  184.3460  174.2350  136.7010 N   0  0  0  0  0  2  0  0  0  0  0  0
  182.2080  173.2060  137.1970 C   0  0  0  0  0  2  0  0  0  0  0  0
  183.1800  172.1120  136.8190 C   0  0  0  0  0  2  0  0  0  0  0  0
  183.2510  173.4590  136.1270 C   0  0  0  0  0  3  0  0  0  0  0  0
  184.0530  178.9710  139.1380 N   0  0  0  0  0  2  0  0  0  0  0  0
  183.4470  178.5860  142.9240 C   0  0  1  0  0  3  0  0  0  0  0  0
  182.0320  178.7720  140.4540 C   0  0  0  0  0  3  0  0  0  0  0  0
  181.2710  178.6340  141.7430 C   0  0  0  0  0  2  0  0  0  0  0  0
  182.0530  179.2060  142.9180 C   0  0  0  0  0  2  0  0  0  0  0  0
  184.1960  178.9940  141.6490 C   0  0  0  0  0  2  0  0  0  0  0  0
  183.3700  178.8460  140.3960 C   0  0  0  0  0  0  0  0  0  0  0  0
  184.9300  180.1620  143.9480 F   0  0  0  0  0  0  0  0  0  0  0  0
  184.2280  178.9890  144.1730 C   0  0  0  0  0  0  0  0  0  0  0  0
  185.1200  177.9860  144.5100 F   0  0  0  0  0  0  0  0  0  0  0  0
  183.3560  179.1790  145.2290 F   0  0  0  0  0  0  0  0  0  0  0  0
  1 13  1  0  0  0  0
  2  4  1  0  0  0  0
  3  1  1  0  0  0  0
  3 10  2  0  0  0  0
  5  9  1  0  0  0  0
  6 10  1  6  0  0  0
  6  9  1  0  0  0  0
  7 35  1  0  0  0  0
  7  4  2  0  0  0  0
  8  2  2  0  0  0  0
 10  8  1  0  0  0  0
 11 15  1  1  0  0  0
 11  5  1  0  0  0  0
 12  7  1  0  0  0  0
 13 12  2  0  0  0  0
 13  8  1  0  0  0  0
 14 11  1  0  0  0  0
 14  6  1  0  0  0  0
 16 15  1  0  0  0  0
 17 16  2  0  0  0  0
 18 22  1  0  0  0  0
 19 16  1  0  0  0  0
 19 21  1  0  0  0  0
 20 26  1  0  0  0  0
 22 20  1  0  0  0  0
 22 19  2  0  0  0  0
 23 18  1  0  0  0  0
 23 24  1  0  0  0  0
 23 27  1  1  0  0  0
 24 20  1  0  0  0  0
 26 21  2  0  0  0  0
 26 25  1  0  0  0  0
 27 28  1  0  0  0  0
 30 29  1  6  0  0  0
 30  1  1  0  0  0  0
 30 31  1  0  0  0  0
 33 32  1  0  0  0  0
 34 31  1  0  0  0  0
 34 33  1  0  0  0  0
 34 32  1  0  0  0  0
 35 41  1  0  0  0  0
 36 43  1  1  0  0  0
 37 38  1  0  0  0  0
 38 39  1  0  0  0  0
 39 36  1  0  0  0  0
 40 36  1  0  0  0  0
 41 37  2  0  0  0  0
 41 40  1  0  0  0  0
 42 43  1  0  0  0  0
 43 44  1  0  0  0  0
 43 45  1  0  0  0  0
M  END
>  <MODEL>
6

>  <REMARK>
 VINA RESULT:      -7.5      3.982      6.349
  Name = 
  9 active torsions:
  status: ('A' for Active; 'I' for Inactive)
    1  A    between atoms: C_1  and  C_25
    2  A    between atoms: N_2  and  C_29
    3  A    between atoms: N_2  and  C_43
    4  A    between atoms: N_3  and  C_37
    5  A    between atoms: N_6  and  C_38
    6  A    between atoms: C_12  and  C_28
    7  A    between atoms: N_17  and  C_37
    8  A    between atoms: N_17  and  C_39
    9  A    between atoms: C_20  and  C_23
                            x       y       z     vdW  Elec       q    Type
                         _______ _______ _______ _____ _____    ______ ____

>  <TORSDO>
F 9

$$$$
=
 OpenBabel10222416433D

 45 51  0  0  1  0  0  0  0  0999 V2000
  190.1180  176.3910  143.8290 N   0  0  0  0  0  0  0  0  0  0  0  0
  187.8350  177.8210  141.4000 C   0  0  0  0  0  3  0  0  0  0  0  0
  190.9860  176.3760  142.7250 N   0  0  0  0  0  0  0  0  0  0  0  0
  186.6830  178.0970  142.1560 C   0  0  0  0  0  3  0  0  0  0  0  0
  190.8420  177.2250  137.9700 C   0  0  0  0  0  2  0  0  0  0  0  0
  190.7700  176.9800  140.3690 C   0  0  1  0  0  3  0  0  0  0  0  0
  186.6350  177.8140  143.5420 C   0  0  0  0  0  0  0  0  0  0  0  0
  188.9200  177.2460  142.0590 C   0  0  0  0  0  0  0  0  0  0  0  0
  189.9750  177.4370  139.1970 C   0  0  0  0  0  2  0  0  0  0  0  0
  190.2600  176.8750  141.5990 C   0  0  0  0  0  0  0  0  0  0  0  0
  191.8330  176.1190  138.2900 C   0  0  2  0  0  3  0  0  0  0  0  0
  187.7510  177.2320  144.1720 C   0  0  0  0  0  3  0  0  0  0  0  0
  188.8800  176.9560  143.4020 C   0  0  0  0  0  0  0  0  0  0  0  0
  192.4160  176.4040  139.9860 S   0  0  0  0  0  0  0  0  0  0  0  0
  192.9490  176.1790  137.3590 N   0  0  0  0  0  2  0  0  0  0  0  0
  193.8720  175.1000  137.1910 C   0  0  0  0  0  0  0  0  0  0  0  0
  193.7210  174.0290  137.8380 O   0  0  0  0  0  0  0  0  0  0  0  0
  196.0170  172.8130  136.1270 C   0  0  0  0  0  2  0  0  0  0  0  0
  195.0030  175.2360  136.2640 C   0  0  0  0  0  0  0  0  0  0  0  0
  196.7560  174.7520  135.0500 N   0  0  0  0  0  0  0  0  0  0  0  0
  195.5150  176.4260  135.8570 N   0  0  0  0  0  0  0  0  0  0  0  0
  195.7880  174.2220  135.7560 C   0  0  0  0  0  0  0  0  0  0  0  0
  197.3770  172.5290  135.4430 C   0  0  1  0  0  3  0  0  0  0  0  0
  197.8660  173.8620  134.8240 C   0  0  0  0  0  2  0  0  0  0  0  0
  197.5850  177.0700  134.5950 C   0  0  0  0  0  1  0  0  0  0  0  0
  196.6050  176.0840  135.1270 C   0  0  0  0  0  0  0  0  0  0  0  0
  198.3710  172.0290  136.4750 C   0  0  0  0  0  2  0  0  0  0  0  0
  198.9030  173.1470  137.2350 N   0  0  0  0  0  1  0  0  0  0  0  0
  192.0410  175.8680  145.3000 C   0  0  0  0  0  1  0  0  0  0  0  0
  190.5690  176.2600  145.2190 C   0  0  1  0  0  3  0  0  0  0  0  0
  190.2920  177.4700  145.9990 N   0  0  0  0  0  2  0  0  0  0  0  0
  188.5390  177.1200  147.6370 C   0  0  0  0  0  2  0  0  0  0  0  0
  189.3560  178.3150  148.0700 C   0  0  0  0  0  2  0  0  0  0  0  0
  190.0350  177.1380  147.3970 C   0  0  0  0  0  3  0  0  0  0  0  0
  185.4630  178.0720  144.3290 N   0  0  0  0  0  2  0  0  0  0  0  0
  182.5660  179.0320  141.9770 C   0  0  1  0  0  3  0  0  0  0  0  0
  183.1930  178.7970  144.7510 C   0  0  0  0  0  3  0  0  0  0  0  0
  181.8170  179.2310  144.3290 C   0  0  0  0  0  2  0  0  0  0  0  0
  181.4520  178.6790  142.9570 C   0  0  0  0  0  2  0  0  0  0  0  0
  183.8660  178.3390  142.4050 C   0  0  0  0  0  2  0  0  0  0  0  0
  184.1600  178.4750  143.8780 C   0  0  0  0  0  0  0  0  0  0  0  0
  181.5690  177.4150  140.5200 F   0  0  0  0  0  0  0  0  0  0  0  0
  182.1880  178.6540  140.5460 C   0  0  0  0  0  0  0  0  0  0  0  0
  183.3250  178.6100  139.7590 F   0  0  0  0  0  0  0  0  0  0  0  0
  181.3260  179.6020  140.0260 F   0  0  0  0  0  0  0  0  0  0  0  0
  1 30  1  0  0  0  0
  2  8  2  0  0  0  0
  2  4  1  0  0  0  0
  3  1  1  0  0  0  0
  4  7  2  0  0  0  0
  5 11  1  0  0  0  0
  5  9  1  0  0  0  0
  6 10  1  6  0  0  0
  7 12  1  0  0  0  0
  7 35  1  0  0  0  0
  8 13  1  0  0  0  0
  9  6  1  0  0  0  0
 10  8  1  0  0  0  0
 10  3  2  0  0  0  0
 11 15  1  6  0  0  0
 11 14  1  0  0  0  0
 13  1  1  0  0  0  0
 13 12  2  0  0  0  0
 14  6  1  0  0  0  0
 16 15  1  0  0  0  0
 16 17  2  0  0  0  0
 19 16  1  0  0  0  0
 20 26  1  0  0  0  0
 20 22  1  0  0  0  0
 21 19  1  0  0  0  0
 22 18  1  0  0  0  0
 22 19  2  0  0  0  0
 23 18  1  0  0  0  0
 23 27  1  1  0  0  0
 24 20  1  0  0  0  0
 24 23  1  0  0  0  0
 25 26  1  0  0  0  0
 26 21  2  0  0  0  0
 27 28  1  0  0  0  0
 30 29  1  6  0  0  0
 30 31  1  0  0  0  0
 31 34  1  0  0  0  0
 32 33  1  0  0  0  0
 34 32  1  0  0  0  0
 34 33  1  0  0  0  0
 36 43  1  6  0  0  0
 36 40  1  0  0  0  0
 36 39  1  0  0  0  0
 38 37  1  0  0  0  0
 39 38  1  0  0  0  0
 40 41  1  0  0  0  0
 41 35  1  0  0  0  0
 41 37  2  0  0  0  0
 42 43  1  0  0  0  0
 44 43  1  0  0  0  0
 45 43  1  0  0  0  0
M  END
>  <MODEL>
7

>  <REMARK>
 VINA RESULT:      -7.5      1.687      2.388
  Name = 
  9 active torsions:
  status: ('A' for Active; 'I' for Inactive)
    1  A    between atoms: C_1  and  C_25
    2  A    between atoms: N_2  and  C_29
    3  A    between atoms: N_2  and  C_43
    4  A    between atoms: N_3  and  C_37
    5  A    between atoms: N_6  and  C_38
    6  A    between atoms: C_12  and  C_28
    7  A    between atoms: N_17  and  C_37
    8  A    between atoms: N_17  and  C_39
    9  A    between atoms: C_20  and  C_23
                            x       y       z     vdW  Elec       q    Type
                         _______ _______ _______ _____ _____    ______ ____

>  <TORSDO>
F 9

$$$$
=
 OpenBabel10222416433D

 45 51  0  0  1  0  0  0  0  0999 V2000
  187.0540  177.3780  136.9260 N   0  0  0  0  0  0  0  0  0  0  0  0
  188.1420  178.0870  140.3130 C   0  0  0  0  0  3  0  0  0  0  0  0
  188.3530  176.8550  136.8180 N   0  0  0  0  0  0  0  0  0  0  0  0
  186.9990  178.6400  140.9150 C   0  0  0  0  0  3  0  0  0  0  0  0
  192.4190  176.6460  139.4220 C   0  0  0  0  0  2  0  0  0  0  0  0
  190.2740  176.7200  138.3200 C   0  0  1  0  0  3  0  0  0  0  0  0
  185.7920  178.7880  140.1900 C   0  0  0  0  0  0  0  0  0  0  0  0
  188.0490  177.7060  138.9760 C   0  0  0  0  0  0  0  0  0  0  0  0
  190.9590  177.0170  139.6070 C   0  0  0  0  0  2  0  0  0  0  0  0
  189.0090  177.0720  138.0700 C   0  0  0  0  0  0  0  0  0  0  0  0
  192.7330  176.7320  137.9380 C   0  0  2  0  0  3  0  0  0  0  0  0
  185.7380  178.3930  138.8410 C   0  0  0  0  0  3  0  0  0  0  0  0
  186.8870  177.8570  138.2590 C   0  0  0  0  0  0  0  0  0  0  0  0
  191.3180  176.0180  137.0540 S   0  0  0  0  0  0  0  0  0  0  0  0
  193.9410  175.9740  137.6500 N   0  0  0  0  0  2  0  0  0  0  0  0
  194.6350  176.0750  136.4050 C   0  0  0  0  0  0  0  0  0  0  0  0
  194.2280  176.8680  135.5130 O   0  0  0  0  0  0  0  0  0  0  0  0
  194.9070  173.1590  134.8590 C   0  0  0  0  0  2  0  0  0  0  0  0
  195.8270  175.2540  136.1570 C   0  0  0  0  0  0  0  0  0  0  0  0
  197.1100  173.6080  135.5050 N   0  0  0  0  0  0  0  0  0  0  0  0
  197.0300  175.4580  136.7550 N   0  0  0  0  0  0  0  0  0  0  0  0
  195.9030  174.1060  135.3960 C   0  0  0  0  0  0  0  0  0  0  0  0
  195.7810  171.9080  134.5960 C   0  0  1  0  0  3  0  0  0  0  0  0
  197.2030  172.2220  135.1220 C   0  0  0  0  0  2  0  0  0  0  0  0
  199.1490  174.1210  136.8620 C   0  0  0  0  0  1  0  0  0  0  0  0
  197.7850  174.4110  136.3410 C   0  0  0  0  0  0  0  0  0  0  0  0
  195.1960  170.7160  135.3320 C   0  0  0  0  0  2  0  0  0  0  0  0
  193.9660  171.1020  136.0030 N   0  0  0  0  0  1  0  0  0  0  0  0
  186.5170  176.7350  134.5950 C   0  0  0  0  0  1  0  0  0  0  0  0
  185.9750  177.0710  135.9810 C   0  0  1  0  0  3  0  0  0  0  0  0
  185.0930  176.0120  136.4830 N   0  0  0  0  0  2  0  0  0  0  0  0
  182.9160  176.9820  136.9300 C   0  0  0  0  0  2  0  0  0  0  0  0
  182.7620  175.4790  136.8830 C   0  0  0  0  0  2  0  0  0  0  0  0
  183.7410  176.1680  135.9540 C   0  0  0  0  0  3  0  0  0  0  0  0
  184.6180  179.3660  140.7810 N   0  0  0  0  0  2  0  0  0  0  0  0
  181.2000  179.9040  139.0860 C   0  0  1  0  0  3  0  0  0  0  0  0
  182.5120  178.1870  140.9480 C   0  0  0  0  0  3  0  0  0  0  0  0
  181.0710  177.9440  140.5930 C   0  0  0  0  0  2  0  0  0  0  0  0
  180.7460  178.4530  139.1950 C   0  0  0  0  0  2  0  0  0  0  0  0
  182.7230  179.9800  139.2450 C   0  0  0  0  0  2  0  0  0  0  0  0
  183.2460  179.1690  140.4040 C   0  0  0  0  0  0  0  0  0  0  0  0
  181.5670  181.5990  137.4350 F   0  0  0  0  0  0  0  0  0  0  0  0
  180.7540  180.5280  137.7650 C   0  0  0  0  0  0  0  0  0  0  0  0
  179.4470  180.9690  137.8740 F   0  0  0  0  0  0  0  0  0  0  0  0
  180.8190  179.5830  136.7570 F   0  0  0  0  0  0  0  0  0  0  0  0
  1 13  1  0  0  0  0
  2  4  1  0  0  0  0
  3  1  1  0  0  0  0
  3 10  2  0  0  0  0
  5  9  1  0  0  0  0
  6 10  1  6  0  0  0
  6  9  1  0  0  0  0
  7 35  1  0  0  0  0
  7  4  2  0  0  0  0
  8  2  2  0  0  0  0
 10  8  1  0  0  0  0
 11 15  1  1  0  0  0
 11  5  1  0  0  0  0
 12  7  1  0  0  0  0
 13 12  2  0  0  0  0
 13  8  1  0  0  0  0
 14 11  1  0  0  0  0
 14  6  1  0  0  0  0
 16 15  1  0  0  0  0
 17 16  2  0  0  0  0
 18 22  1  0  0  0  0
 19 16  1  0  0  0  0
 19 21  1  0  0  0  0
 20 26  1  0  0  0  0
 22 20  1  0  0  0  0
 22 19  2  0  0  0  0
 23 18  1  0  0  0  0
 23 24  1  0  0  0  0
 23 27  1  1  0  0  0
 24 20  1  0  0  0  0
 26 21  2  0  0  0  0
 26 25  1  0  0  0  0
 27 28  1  0  0  0  0
 30 29  1  6  0  0  0
 30 31  1  0  0  0  0
 30  1  1  0  0  0  0
 33 32  1  0  0  0  0
 34 31  1  0  0  0  0
 34 33  1  0  0  0  0
 34 32  1  0  0  0  0
 36 43  1  6  0  0  0
 36 39  1  0  0  0  0
 36 40  1  0  0  0  0
 38 37  1  0  0  0  0
 39 38  1  0  0  0  0
 40 41  1  0  0  0  0
 41 35  1  0  0  0  0
 41 37  2  0  0  0  0
 42 43  1  0  0  0  0
 43 44  1  0  0  0  0
 45 43  1  0  0  0  0
M  END
>  <MODEL>
8

>  <REMARK>
 VINA RESULT:      -7.3      3.463      5.719
  Name = 
  9 active torsions:
  status: ('A' for Active; 'I' for Inactive)
    1  A    between atoms: C_1  and  C_25
    2  A    between atoms: N_2  and  C_29
    3  A    between atoms: N_2  and  C_43
    4  A    between atoms: N_3  and  C_37
    5  A    between atoms: N_6  and  C_38
    6  A    between atoms: C_12  and  C_28
    7  A    between atoms: N_17  and  C_37
    8  A    between atoms: N_17  and  C_39
    9  A    between atoms: C_20  and  C_23
                            x       y       z     vdW  Elec       q    Type
                         _______ _______ _______ _____ _____    ______ ____

>  <TORSDO>
F 9

$$$$
