=
 OpenBabel10222418553D

 43 49  0  0  1  0  0  0  0  0999 V2000
  182.8740  178.6530  141.1360 C   0  0  0  0  0  0  0  0  0  0  0  0
  187.8680  178.6130  138.5770 C   0  0  0  0  0  0  0  0  0  0  0  0
  189.8940  176.4560  137.9130 C   0  0  0  0  0  0  0  0  0  0  0  0
  184.2980  178.9840  139.0560 C   0  0  0  0  0  3  0  0  0  0  0  0
  185.2220  178.1380  141.9340 C   0  0  0  0  0  3  0  0  0  0  0  0
  185.5600  178.7340  139.3910 C   0  0  0  0  0  0  0  0  0  0  0  0
  186.5090  178.8650  138.3690 O   0  0  0  0  0  0  0  0  0  0  0  0
  186.0390  178.3280  140.7350 C   0  0  0  0  0  0  0  0  0  0  0  0
  183.9110  178.2740  142.1000 C   0  0  0  0  0  3  0  0  0  0  0  0
  189.2510  177.3790  137.0630 O   0  0  0  0  0  0  0  0  0  0  0  0
  188.3150  178.2530  139.7860 C   0  0  0  0  0  0  0  0  0  0  0  0
  188.8170  178.6890  137.4260 C   0  0  0  0  0  2  0  0  0  0  0  0
  183.0680  178.9480  139.8530 C   0  0  0  0  0  3  0  0  0  0  0  0
  181.5400  178.7140  141.6240 N   0  0  0  0  0  1  0  0  0  0  0  0
  187.3460  178.1020  140.8910 C   0  0  0  0  0  3  0  0  0  0  0  0
  190.1420  176.6830  139.2140 C   0  0  0  0  0  3  0  0  0  0  0  0
  189.7770  177.9300  139.9650 C   0  0  2  0  0  3  0  0  0  0  0  0
  191.5220  174.6660  137.6180 N   0  0  0  0  0  0  0  0  0  0  0  0
  191.9590  173.5120  137.0570 C   0  0  0  0  0  3  0  0  0  0  0  0
  189.4360  174.4210  136.4800 C   0  0  0  0  0  0  0  0  0  0  0  0
  190.2820  175.1530  137.3480 C   0  0  0  0  0  0  0  0  0  0  0  0
  189.9250  173.2780  135.9280 N   0  0  0  0  0  0  0  0  0  0  0  0
  191.1510  172.8340  136.2040 N   0  0  0  0  0  0  0  0  0  0  0  0
  185.3810  175.5930  135.7130 C   0  0  0  0  0  0  0  0  0  0  0  0
  183.9760  176.0060  135.4540 C   0  0  0  0  0  1  0  0  0  0  0  0
  185.7470  175.1030  136.9720 C   0  0  0  0  0  3  0  0  0  0  0  0
  188.0320  174.7990  136.1970 C   0  0  0  0  0  0  0  0  0  0  0  0
  186.3380  175.7040  134.7010 C   0  0  0  0  0  3  0  0  0  0  0  0
  187.6580  175.3150  134.9450 C   0  0  0  0  0  3  0  0  0  0  0  0
  187.0680  174.7140  137.2140 C   0  0  0  0  0  3  0  0  0  0  0  0
  190.1220  177.7810  141.3710 N   0  0  0  0  0  2  0  0  0  0  0  0
  190.2080  176.4060  141.6290 N   0  0  0  0  0  2  0  0  0  0  0  0
  190.9090  176.2580  142.8930 C   0  0  0  0  0  2  0  0  0  0  0  0
  188.7740  177.0420  144.4610 C   0  0  0  0  0  0  0  0  0  0  0  0
  190.0260  176.6170  143.9880 N   0  0  0  0  0  0  0  0  0  0  0  0
  189.8160  176.8980  145.3480 C   0  0  0  0  0  0  0  0  0  0  0  0
  188.2060  177.8630  148.5360 C   0  0  0  0  0  1  0  0  0  0  0  0
  187.3710  177.7080  146.1440 C   0  0  0  0  0  3  0  0  0  0  0  0
  188.4680  177.5580  147.1020 C   0  0  0  0  0  0  0  0  0  0  0  0
  187.4980  177.4450  144.7320 C   0  0  0  0  0  3  0  0  0  0  0  0
  189.7800  177.1310  146.6930 C   0  0  0  0  0  0  0  0  0  0  0  0
  190.8610  176.9810  147.5660 O   0  0  0  0  0  0  0  0  0  0  0  0
  191.8830  176.0220  147.3430 C   0  0  0  0  0  1  0  0  0  0  0  0
  1 14  1  0  0  0  0
  1  9  1  0  0  0  0
  2 11  2  0  0  0  0
  3 16  2  0  0  0  0
  4  6  2  0  0  0  0
  4 13  1  0  0  0  0
  5  9  2  0  0  0  0
  6  8  1  0  0  0  0
  7  2  1  0  0  0  0
  7  6  1  0  0  0  0
  8 15  2  0  0  0  0
  8  5  1  0  0  0  0
 10 12  1  0  0  0  0
 10  3  1  0  0  0  0
 11 17  1  0  0  0  0
 11 15  1  0  0  0  0
 12  2  1  0  0  0  0
 13  1  2  0  0  0  0
 16 17  1  0  0  0  0
 17 31  1  1  0  0  0
 19 18  2  0  0  0  0
 20 21  2  0  0  0  0
 21 18  1  0  0  0  0
 21  3  1  0  0  0  0
 22 23  2  0  0  0  0
 22 20  1  0  0  0  0
 23 19  1  0  0  0  0
 24 26  1  0  0  0  0
 25 24  1  0  0  0  0
 26 30  2  0  0  0  0
 27 20  1  0  0  0  0
 27 30  1  0  0  0  0
 28 29  1  0  0  0  0
 28 24  2  0  0  0  0
 29 27  2  0  0  0  0
 31 32  1  0  0  0  0
 32 33  1  0  0  0  0
 33 35  1  0  0  0  0
 34 40  2  0  0  0  0
 34 36  1  0  0  0  0
 35 34  1  0  0  0  0
 35 36  1  0  0  0  0
 36 41  2  0  0  0  0
 38 39  2  0  0  0  0
 39 37  1  0  0  0  0
 40 38  1  0  0  0  0
 41 39  1  0  0  0  0
 41 42  1  0  0  0  0
 43 42  1  0  0  0  0
M  END
>  <MODEL>
1

>  <REMARK>
 VINA RESULT:      -9.4      0.000      0.000
  Name = 
  7 active torsions:
  status: ('A' for Active; 'I' for Inactive)
    1  A    between atoms: N_4  and  N_32
    2  A    between atoms: N_4  and  C_42
    3  A    between atoms: C_6  and  C_21
    4  A    between atoms: C_7  and  C_15
    5  A    between atoms: N_10  and  C_29
    6  A    between atoms: O_26  and  C_43
    7  A    between atoms: C_29  and  N_32
                            x       y       z     vdW  Elec       q    Type
                         _______ _______ _______ _____ _____    ______ ____

>  <TORSDO>
F 7

$$$$
=
 OpenBabel10222418553D

 43 49  0  0  1  0  0  0  0  0999 V2000
  182.7140  178.8830  142.5440 C   0  0  0  0  0  0  0  0  0  0  0  0
  186.5360  178.5500  138.4490 C   0  0  0  0  0  0  0  0  0  0  0  0
  188.3420  176.3470  137.4070 C   0  0  0  0  0  0  0  0  0  0  0  0
  183.3250  178.9380  140.0760 C   0  0  0  0  0  3  0  0  0  0  0  0
  185.2190  178.5150  142.5430 C   0  0  0  0  0  3  0  0  0  0  0  0
  184.6390  178.7540  139.9860 C   0  0  0  0  0  0  0  0  0  0  0  0
  185.1750  178.7530  138.6910 O   0  0  0  0  0  0  0  0  0  0  0  0
  185.5680  178.5450  141.1230 C   0  0  0  0  0  0  0  0  0  0  0  0
  184.0360  178.6550  143.1310 C   0  0  0  0  0  3  0  0  0  0  0  0
  187.3950  177.1340  136.7210 O   0  0  0  0  0  0  0  0  0  0  0  0
  187.3870  178.3680  139.4650 C   0  0  0  0  0  0  0  0  0  0  0  0
  187.0320  178.4750  137.0420 C   0  0  0  0  0  2  0  0  0  0  0  0
  182.4420  178.9980  141.2460 C   0  0  0  0  0  3  0  0  0  0  0  0
  181.6230  178.9950  143.4490 N   0  0  0  0  0  1  0  0  0  0  0  0
  186.8620  178.3600  140.8460 C   0  0  0  0  0  3  0  0  0  0  0  0
  189.0030  176.7560  138.5030 C   0  0  0  0  0  3  0  0  0  0  0  0
  188.8400  178.0910  139.1690 C   0  0  2  0  0  3  0  0  0  0  0  0
  189.8590  174.4890  136.9680 N   0  0  0  0  0  0  0  0  0  0  0  0
  190.1590  173.2730  136.4510 C   0  0  0  0  0  3  0  0  0  0  0  0
  187.5770  174.1910  136.3240 C   0  0  0  0  0  0  0  0  0  0  0  0
  188.5930  174.9820  136.9130 C   0  0  0  0  0  0  0  0  0  0  0  0
  187.9310  172.9850  135.8040 N   0  0  0  0  0  0  0  0  0  0  0  0
  189.1840  172.5360  135.8630 N   0  0  0  0  0  0  0  0  0  0  0  0
  183.4200  175.2470  136.2020 C   0  0  0  0  0  0  0  0  0  0  0  0
  181.9780  175.6060  136.1520 C   0  0  0  0  0  1  0  0  0  0  0  0
  184.2500  175.5240  135.1100 C   0  0  0  0  0  3  0  0  0  0  0  0
  186.1470  174.5800  136.3030 C   0  0  0  0  0  0  0  0  0  0  0  0
  183.9440  174.6210  137.3370 C   0  0  0  0  0  3  0  0  0  0  0  0
  185.3000  174.2840  137.3830 C   0  0  0  0  0  3  0  0  0  0  0  0
  185.6070  175.1860  135.1590 C   0  0  0  0  0  3  0  0  0  0  0  0
  189.6500  178.1440  140.3770 N   0  0  0  0  0  2  0  0  0  0  0  0
  189.9480  176.8210  140.7310 N   0  0  0  0  0  2  0  0  0  0  0  0
  190.9160  176.8820  141.8120 C   0  0  0  0  0  2  0  0  0  0  0  0
  189.0450  177.2080  143.8190 C   0  0  0  0  0  0  0  0  0  0  0  0
  190.2240  177.0040  143.0820 N   0  0  0  0  0  0  0  0  0  0  0  0
  190.2470  177.1090  144.4830 C   0  0  0  0  0  0  0  0  0  0  0  0
  189.1770  177.5110  148.0010 C   0  0  0  0  0  1  0  0  0  0  0  0
  187.9240  177.5020  145.7940 C   0  0  0  0  0  3  0  0  0  0  0  0
  189.1930  177.3970  146.5160 C   0  0  0  0  0  0  0  0  0  0  0  0
  187.8080  177.4080  144.3600 C   0  0  0  0  0  3  0  0  0  0  0  0
  190.4420  177.1910  145.8320 C   0  0  0  0  0  0  0  0  0  0  0  0
  191.6790  177.0940  146.4750 O   0  0  0  0  0  0  0  0  0  0  0  0
  192.1620  175.8640  146.9960 C   0  0  0  0  0  1  0  0  0  0  0  0
  1  9  1  0  0  0  0
  1 14  1  0  0  0  0
  2  7  1  0  0  0  0
  2 11  2  0  0  0  0
  3 16  2  0  0  0  0
  4 13  1  0  0  0  0
  5  9  2  0  0  0  0
  6  4  2  0  0  0  0
  6  8  1  0  0  0  0
  7  6  1  0  0  0  0
  8  5  1  0  0  0  0
 10 12  1  0  0  0  0
 10  3  1  0  0  0  0
 11 15  1  0  0  0  0
 12  2  1  0  0  0  0
 13  1  2  0  0  0  0
 15  8  2  0  0  0  0
 16 17  1  0  0  0  0
 17 11  1  0  0  0  0
 17 31  1  1  0  0  0
 19 18  2  0  0  0  0
 20 21  2  0  0  0  0
 21 18  1  0  0  0  0
 21  3  1  0  0  0  0
 22 23  2  0  0  0  0
 22 20  1  0  0  0  0
 23 19  1  0  0  0  0
 24 28  1  0  0  0  0
 25 24  1  0  0  0  0
 26 30  1  0  0  0  0
 26 24  2  0  0  0  0
 27 20  1  0  0  0  0
 27 29  1  0  0  0  0
 28 29  2  0  0  0  0
 30 27  2  0  0  0  0
 31 32  1  0  0  0  0
 32 33  1  0  0  0  0
 33 35  1  0  0  0  0
 34 40  2  0  0  0  0
 34 36  1  0  0  0  0
 35 34  1  0  0  0  0
 35 36  1  0  0  0  0
 36 41  2  0  0  0  0
 38 39  2  0  0  0  0
 39 37  1  0  0  0  0
 40 38  1  0  0  0  0
 41 42  1  0  0  0  0
 41 39  1  0  0  0  0
 42 43  1  0  0  0  0
M  END
>  <MODEL>
2

>  <REMARK>
 VINA RESULT:      -8.9      1.187      1.648
  Name = 
  7 active torsions:
  status: ('A' for Active; 'I' for Inactive)
    1  A    between atoms: N_4  and  N_32
    2  A    between atoms: N_4  and  C_42
    3  A    between atoms: C_6  and  C_21
    4  A    between atoms: C_7  and  C_15
    5  A    between atoms: N_10  and  C_29
    6  A    between atoms: O_26  and  C_43
    7  A    between atoms: C_29  and  N_32
                            x       y       z     vdW  Elec       q    Type
                         _______ _______ _______ _____ _____    ______ ____

>  <TORSDO>
F 7

$$$$
=
 OpenBabel10222418553D

 43 49  0  0  1  0  0  0  0  0999 V2000
  185.0620  178.5910  144.6360 C   0  0  0  0  0  0  0  0  0  0  0  0
  187.4210  178.3230  139.5510 C   0  0  0  0  0  0  0  0  0  0  0  0
  188.0400  176.0710  137.6160 C   0  0  0  0  0  0  0  0  0  0  0  0
  185.0390  179.1400  142.1530 C   0  0  0  0  0  3  0  0  0  0  0  0
  187.2040  177.5490  143.7760 C   0  0  0  0  0  3  0  0  0  0  0  0
  186.1430  178.6260  141.6200 C   0  0  0  0  0  0  0  0  0  0  0  0
  186.3160  178.8260  140.2440 O   0  0  0  0  0  0  0  0  0  0  0  0
  187.1880  177.8650  142.3480 C   0  0  0  0  0  0  0  0  0  0  0  0
  186.3230  177.8510  144.7240 C   0  0  0  0  0  3  0  0  0  0  0  0
  187.2900  177.2470  137.4170 O   0  0  0  0  0  0  0  0  0  0  0  0
  188.3740  177.6410  140.1960 C   0  0  0  0  0  0  0  0  0  0  0  0
  187.5050  178.4970  138.0700 C   0  0  0  0  0  2  0  0  0  0  0  0
  184.5420  179.1260  143.5320 C   0  0  0  0  0  3  0  0  0  0  0  0
  184.3310  178.7540  145.8440 N   0  0  0  0  0  1  0  0  0  0  0  0
  188.2290  177.4070  141.6470 C   0  0  0  0  0  3  0  0  0  0  0  0
  189.0460  175.9650  138.5010 C   0  0  0  0  0  3  0  0  0  0  0  0
  189.5230  177.0590  139.4110 C   0  0  2  0  0  3  0  0  0  0  0  0
  186.3870  174.4410  136.8720 N   0  0  0  0  0  0  0  0  0  0  0  0
  186.0150  173.3030  136.2380 C   0  0  0  0  0  3  0  0  0  0  0  0
  188.6260  174.1330  136.0970 C   0  0  0  0  0  0  0  0  0  0  0  0
  187.6740  174.8780  136.8340 C   0  0  0  0  0  0  0  0  0  0  0  0
  188.2090  172.9890  135.4910 N   0  0  0  0  0  0  0  0  0  0  0  0
  186.9420  172.5810  135.5580 N   0  0  0  0  0  0  0  0  0  0  0  0
  192.7040  175.3140  135.4760 C   0  0  0  0  0  0  0  0  0  0  0  0
  194.1190  175.7140  135.2560 C   0  0  0  0  0  1  0  0  0  0  0  0
  192.3960  174.2910  136.3780 C   0  0  0  0  0  3  0  0  0  0  0  0
  190.0280  174.5690  135.8980 C   0  0  0  0  0  0  0  0  0  0  0  0
  191.6810  175.9550  134.7700 C   0  0  0  0  0  3  0  0  0  0  0  0
  190.3500  175.5780  134.9770 C   0  0  0  0  0  3  0  0  0  0  0  0
  191.0640  173.9160  136.5840 C   0  0  0  0  0  3  0  0  0  0  0  0
  190.5670  176.5520  140.2900 N   0  0  0  0  0  2  0  0  0  0  0  0
  191.6630  177.4160  140.1670 N   0  0  0  0  0  2  0  0  0  0  0  0
  192.5730  177.0990  141.2530 C   0  0  0  0  0  2  0  0  0  0  0  0
  191.1480  178.1410  143.3780 C   0  0  0  0  0  0  0  0  0  0  0  0
  191.9150  177.3290  142.5270 N   0  0  0  0  0  0  0  0  0  0  0  0
  191.6590  176.9560  143.8560 C   0  0  0  0  0  0  0  0  0  0  0  0
  190.4120  176.9700  147.3390 C   0  0  0  0  0  1  0  0  0  0  0  0
  190.1740  178.5920  145.4010 C   0  0  0  0  0  3  0  0  0  0  0  0
  190.7070  177.3330  145.9250 C   0  0  0  0  0  0  0  0  0  0  0  0
  190.3890  179.0540  144.0520 C   0  0  0  0  0  3  0  0  0  0  0  0
  191.5050  176.4500  145.1160 C   0  0  0  0  0  0  0  0  0  0  0  0
  192.0440  175.2450  145.5720 O   0  0  0  0  0  0  0  0  0  0  0  0
  192.3760  174.1850  144.6870 C   0  0  0  0  0  1  0  0  0  0  0  0
  1  9  1  0  0  0  0
  1 14  1  0  0  0  0
  2 11  2  0  0  0  0
  2  7  1  0  0  0  0
  3 16  2  0  0  0  0
  4 13  1  0  0  0  0
  5  9  2  0  0  0  0
  6  4  2  0  0  0  0
  6  8  1  0  0  0  0
  7  6  1  0  0  0  0
  8  5  1  0  0  0  0
 10  3  1  0  0  0  0
 10 12  1  0  0  0  0
 11 15  1  0  0  0  0
 12  2  1  0  0  0  0
 13  1  2  0  0  0  0
 15  8  2  0  0  0  0
 16 17  1  0  0  0  0
 17 11  1  0  0  0  0
 17 31  1  1  0  0  0
 19 18  2  0  0  0  0
 20 21  2  0  0  0  0
 21 18  1  0  0  0  0
 21  3  1  0  0  0  0
 22 23  2  0  0  0  0
 22 20  1  0  0  0  0
 23 19  1  0  0  0  0
 24 26  1  0  0  0  0
 25 24  1  0  0  0  0
 26 30  2  0  0  0  0
 27 20  1  0  0  0  0
 27 30  1  0  0  0  0
 28 29  1  0  0  0  0
 28 24  2  0  0  0  0
 29 27  2  0  0  0  0
 32 31  1  0  0  0  0
 32 33  1  0  0  0  0
 33 35  1  0  0  0  0
 34 36  2  0  0  0  0
 34 40  1  0  0  0  0
 35 34  1  0  0  0  0
 35 36  1  0  0  0  0
 36 41  1  0  0  0  0
 38 39  1  0  0  0  0
 39 37  1  0  0  0  0
 40 38  2  0  0  0  0
 41 42  1  0  0  0  0
 41 39  2  0  0  0  0
 43 42  1  0  0  0  0
M  END
>  <MODEL>
3

>  <REMARK>
 VINA RESULT:      -8.8      2.062      3.621
  Name = 
  7 active torsions:
  status: ('A' for Active; 'I' for Inactive)
    1  A    between atoms: N_4  and  N_32
    2  A    between atoms: N_4  and  C_42
    3  A    between atoms: C_6  and  C_21
    4  A    between atoms: C_7  and  C_15
    5  A    between atoms: N_10  and  C_29
    6  A    between atoms: O_26  and  C_43
    7  A    between atoms: C_29  and  N_32
                            x       y       z     vdW  Elec       q    Type
                         _______ _______ _______ _____ _____    ______ ____

>  <TORSDO>
F 7

$$$$
=
 OpenBabel10222418553D

 43 49  0  0  1  0  0  0  0  0999 V2000
  185.0680  178.6130  144.3660 C   0  0  0  0  0  0  0  0  0  0  0  0
  187.5530  178.2840  139.3450 C   0  0  0  0  0  0  0  0  0  0  0  0
  188.2360  176.0070  137.4620 C   0  0  0  0  0  0  0  0  0  0  0  0
  185.1020  179.1240  141.8760 C   0  0  0  0  0  3  0  0  0  0  0  0
  187.2380  177.5730  143.5760 C   0  0  0  0  0  3  0  0  0  0  0  0
  186.2230  178.6090  141.3780 C   0  0  0  0  0  0  0  0  0  0  0  0
  186.4290  178.7900  140.0030 O   0  0  0  0  0  0  0  0  0  0  0  0
  187.2550  177.8670  142.1420 C   0  0  0  0  0  0  0  0  0  0  0  0
  186.3320  177.8830  144.4970 C   0  0  0  0  0  3  0  0  0  0  0  0
  187.4830  177.1750  137.2260 O   0  0  0  0  0  0  0  0  0  0  0  0
  188.4950  177.6190  140.0250 C   0  0  0  0  0  0  0  0  0  0  0  0
  187.6730  178.4360  137.8640 C   0  0  0  0  0  2  0  0  0  0  0  0
  184.5720  179.1260  143.2420 C   0  0  0  0  0  3  0  0  0  0  0  0
  184.3060  178.7890  145.5540 N   0  0  0  0  0  1  0  0  0  0  0  0
  188.3160  177.4060  141.4750 C   0  0  0  0  0  3  0  0  0  0  0  0
  189.2200  175.9220  138.3730 C   0  0  0  0  0  3  0  0  0  0  0  0
  189.6670  177.0330  139.2770 C   0  0  2  0  0  3  0  0  0  0  0  0
  188.8700  173.8780  136.4570 N   0  0  0  0  0  0  0  0  0  0  0  0
  188.6330  172.7920  135.6820 C   0  0  0  0  0  3  0  0  0  0  0  0
  186.6160  174.5970  136.1230 C   0  0  0  0  0  0  0  0  0  0  0  0
  187.8980  174.8000  136.6890 C   0  0  0  0  0  0  0  0  0  0  0  0
  186.4320  173.5000  135.3400 N   0  0  0  0  0  0  0  0  0  0  0  0
  187.4100  172.6220  135.1220 N   0  0  0  0  0  0  0  0  0  0  0  0
  183.2030  177.0960  136.8440 C   0  0  0  0  0  0  0  0  0  0  0  0
  182.0150  177.9570  137.0860 C   0  0  0  0  0  1  0  0  0  0  0  0
  183.9010  177.1880  135.6350 C   0  0  0  0  0  3  0  0  0  0  0  0
  185.4550  175.4770  136.3930 C   0  0  0  0  0  0  0  0  0  0  0  0
  183.6150  176.1860  137.8220 C   0  0  0  0  0  3  0  0  0  0  0  0
  184.7320  175.3760  137.5940 C   0  0  0  0  0  3  0  0  0  0  0  0
  185.0180  176.3770  135.4090 C   0  0  0  0  0  3  0  0  0  0  0  0
  190.6930  176.5480  140.1890 N   0  0  0  0  0  2  0  0  0  0  0  0
  191.7180  177.5030  140.2000 N   0  0  0  0  0  2  0  0  0  0  0  0
  192.6110  177.1490  141.2900 C   0  0  0  0  0  2  0  0  0  0  0  0
  191.1270  178.1110  143.4120 C   0  0  0  0  0  0  0  0  0  0  0  0
  191.9330  177.3390  142.5600 N   0  0  0  0  0  0  0  0  0  0  0  0
  191.6810  176.9410  143.8830 C   0  0  0  0  0  0  0  0  0  0  0  0
  190.4050  176.8690  147.3540 C   0  0  0  0  0  1  0  0  0  0  0  0
  190.1180  178.5010  145.4310 C   0  0  0  0  0  3  0  0  0  0  0  0
  190.6980  177.2590  145.9470 C   0  0  0  0  0  0  0  0  0  0  0  0
  190.3270  178.9850  144.0890 C   0  0  0  0  0  3  0  0  0  0  0  0
  191.5370  176.4170  145.1360 C   0  0  0  0  0  0  0  0  0  0  0  0
  192.1200  175.2290  145.5840 O   0  0  0  0  0  0  0  0  0  0  0  0
  192.3470  174.1280  144.7180 C   0  0  0  0  0  1  0  0  0  0  0  0
  1  9  1  0  0  0  0
  1 14  1  0  0  0  0
  2  7  1  0  0  0  0
  2 11  2  0  0  0  0
  3 16  2  0  0  0  0
  4 13  1  0  0  0  0
  5  9  2  0  0  0  0
  6  4  2  0  0  0  0
  6  8  1  0  0  0  0
  7  6  1  0  0  0  0
  8  5  1  0  0  0  0
 10  3  1  0  0  0  0
 10 12  1  0  0  0  0
 11 15  1  0  0  0  0
 12  2  1  0  0  0  0
 13  1  2  0  0  0  0
 15  8  2  0  0  0  0
 16 17  1  0  0  0  0
 17 11  1  0  0  0  0
 17 31  1  1  0  0  0
 18 21  1  0  0  0  0
 19 18  2  0  0  0  0
 20 27  1  0  0  0  0
 20 21  2  0  0  0  0
 21  3  1  0  0  0  0
 22 20  1  0  0  0  0
 23 22  2  0  0  0  0
 23 19  1  0  0  0  0
 24 25  1  0  0  0  0
 24 28  1  0  0  0  0
 26 24  2  0  0  0  0
 27 29  1  0  0  0  0
 29 28  2  0  0  0  0
 30 26  1  0  0  0  0
 30 27  2  0  0  0  0
 31 32  1  0  0  0  0
 32 33  1  0  0  0  0
 33 35  1  0  0  0  0
 34 36  2  0  0  0  0
 34 40  1  0  0  0  0
 35 34  1  0  0  0  0
 35 36  1  0  0  0  0
 36 41  1  0  0  0  0
 38 39  1  0  0  0  0
 39 37  1  0  0  0  0
 40 38  2  0  0  0  0
 41 42  1  0  0  0  0
 41 39  2  0  0  0  0
 43 42  1  0  0  0  0
M  END
>  <MODEL>
4

>  <REMARK>
 VINA RESULT:      -8.5      1.923      2.815
  Name = 
  7 active torsions:
  status: ('A' for Active; 'I' for Inactive)
    1  A    between atoms: N_4  and  N_32
    2  A    between atoms: N_4  and  C_42
    3  A    between atoms: C_6  and  C_21
    4  A    between atoms: C_7  and  C_15
    5  A    between atoms: N_10  and  C_29
    6  A    between atoms: O_26  and  C_43
    7  A    between atoms: C_29  and  N_32
                            x       y       z     vdW  Elec       q    Type
                         _______ _______ _______ _____ _____    ______ ____

>  <TORSDO>
F 7

$$$$
=
 OpenBabel10222418553D

 43 49  0  0  1  0  0  0  0  0999 V2000
  189.3790  176.7260  135.4070 C   0  0  0  0  0  0  0  0  0  0  0  0
  184.4330  176.8640  138.0540 C   0  0  0  0  0  0  0  0  0  0  0  0
  182.0850  178.7830  138.0630 C   0  0  0  0  0  0  0  0  0  0  0  0
  187.0710  175.7500  135.8370 C   0  0  0  0  0  3  0  0  0  0  0  0
  188.3880  178.2860  137.1390 C   0  0  0  0  0  3  0  0  0  0  0  0
  186.4770  176.5160  136.7470 C   0  0  0  0  0  0  0  0  0  0  0  0
  185.1810  176.1380  137.1230 O   0  0  0  0  0  0  0  0  0  0  0  0
  187.0590  177.7230  137.3830 C   0  0  0  0  0  0  0  0  0  0  0  0
  189.3480  177.8710  136.3200 C   0  0  0  0  0  3  0  0  0  0  0  0
  182.1160  177.4010  137.7880 O   0  0  0  0  0  0  0  0  0  0  0  0
  184.9490  177.9500  138.6410 C   0  0  0  0  0  0  0  0  0  0  0  0
  183.0260  176.4570  138.3490 C   0  0  0  0  0  2  0  0  0  0  0  0
  188.3990  175.8450  135.2230 C   0  0  0  0  0  3  0  0  0  0  0  0
  190.5700  176.5420  134.6530 N   0  0  0  0  0  1  0  0  0  0  0  0
  186.3120  178.3840  138.2720 C   0  0  0  0  0  3  0  0  0  0  0  0
  182.9590  179.4060  138.8710 C   0  0  0  0  0  3  0  0  0  0  0  0
  184.0960  178.7470  139.5960 C   0  0  2  0  0  3  0  0  0  0  0  0
  181.1790  179.8430  136.0630 N   0  0  0  0  0  0  0  0  0  0  0  0
  180.3060  180.6530  135.4170 C   0  0  0  0  0  3  0  0  0  0  0  0
  179.9770  180.1830  138.0990 C   0  0  0  0  0  0  0  0  0  0  0  0
  181.0550  179.5960  137.3940 C   0  0  0  0  0  0  0  0  0  0  0  0
  179.1360  181.0010  137.4110 N   0  0  0  0  0  0  0  0  0  0  0  0
  179.2930  181.2330  136.1080 N   0  0  0  0  0  0  0  0  0  0  0  0
  179.1970  179.3120  142.2270 C   0  0  0  0  0  0  0  0  0  0  0  0
  178.9340  179.0030  143.6580 C   0  0  0  0  0  1  0  0  0  0  0  0
  178.9840  178.3350  141.2490 C   0  0  0  0  0  3  0  0  0  0  0  0
  179.6810  179.9010  139.5240 C   0  0  0  0  0  0  0  0  0  0  0  0
  179.6670  180.5770  141.8620 C   0  0  0  0  0  3  0  0  0  0  0  0
  179.9140  180.8670  140.5170 C   0  0  0  0  0  3  0  0  0  0  0  0
  179.2320  178.6270  139.9030 C   0  0  0  0  0  3  0  0  0  0  0  0
  184.8800  179.7480  140.3030 N   0  0  0  0  0  2  0  0  0  0  0  0
  185.6020  179.0780  141.2990 N   0  0  0  0  0  2  0  0  0  0  0  0
  184.6280  178.4500  142.1750 C   0  0  0  0  0  2  0  0  0  0  0  0
  185.1320  178.4660  144.8910 C   0  0  0  0  0  0  0  0  0  0  0  0
  185.1970  178.2830  143.5000 N   0  0  0  0  0  0  0  0  0  0  0  0
  186.2630  177.9110  144.3360 C   0  0  0  0  0  0  0  0  0  0  0  0
  188.3480  177.3330  147.3360 C   0  0  0  0  0  1  0  0  0  0  0  0
  186.0300  178.3100  146.9920 C   0  0  0  0  0  3  0  0  0  0  0  0
  187.2400  177.7170  146.4180 C   0  0  0  0  0  0  0  0  0  0  0  0
  184.8910  178.7220  146.2100 C   0  0  0  0  0  3  0  0  0  0  0  0
  187.3820  177.5010  145.0020 C   0  0  0  0  0  0  0  0  0  0  0  0
  188.5180  176.9470  144.4060 O   0  0  0  0  0  0  0  0  0  0  0  0
  188.4830  176.3730  143.1080 C   0  0  0  0  0  1  0  0  0  0  0  0
  1  9  1  0  0  0  0
  2 12  1  0  0  0  0
  2 11  2  0  0  0  0
  3 16  2  0  0  0  0
  4  6  2  0  0  0  0
  5  8  1  0  0  0  0
  6  7  1  0  0  0  0
  6  8  1  0  0  0  0
  7  2  1  0  0  0  0
  8 15  2  0  0  0  0
  9  5  2  0  0  0  0
 10  3  1  0  0  0  0
 10 12  1  0  0  0  0
 11 17  1  0  0  0  0
 13  1  2  0  0  0  0
 13  4  1  0  0  0  0
 14  1  1  0  0  0  0
 15 11  1  0  0  0  0
 16 17  1  0  0  0  0
 17 31  1  6  0  0  0
 18 21  1  0  0  0  0
 19 18  2  0  0  0  0
 19 23  1  0  0  0  0
 20 27  1  0  0  0  0
 21  3  1  0  0  0  0
 21 20  2  0  0  0  0
 22 20  1  0  0  0  0
 23 22  2  0  0  0  0
 24 25  1  0  0  0  0
 26 24  2  0  0  0  0
 27 30  2  0  0  0  0
 27 29  1  0  0  0  0
 28 24  1  0  0  0  0
 29 28  2  0  0  0  0
 30 26  1  0  0  0  0
 31 32  1  0  0  0  0
 32 33  1  0  0  0  0
 33 35  1  0  0  0  0
 34 40  1  0  0  0  0
 35 36  1  0  0  0  0
 35 34  1  0  0  0  0
 36 34  2  0  0  0  0
 36 41  1  0  0  0  0
 39 38  1  0  0  0  0
 39 37  1  0  0  0  0
 40 38  2  0  0  0  0
 41 39  2  0  0  0  0
 42 41  1  0  0  0  0
 43 42  1  0  0  0  0
M  END
>  <MODEL>
5

>  <REMARK>
 VINA RESULT:      -8.5      3.181      7.777
  Name = 
  7 active torsions:
  status: ('A' for Active; 'I' for Inactive)
    1  A    between atoms: N_4  and  N_32
    2  A    between atoms: N_4  and  C_42
    3  A    between atoms: C_6  and  C_21
    4  A    between atoms: C_7  and  C_15
    5  A    between atoms: N_10  and  C_29
    6  A    between atoms: O_26  and  C_43
    7  A    between atoms: C_29  and  N_32
                            x       y       z     vdW  Elec       q    Type
                         _______ _______ _______ _____ _____    ______ ____

>  <TORSDO>
F 7

$$$$
=
 OpenBabel10222418553D

 43 49  0  0  1  0  0  0  0  0999 V2000
  187.0030  177.6220  146.1890 C   0  0  0  0  0  0  0  0  0  0  0  0
  183.0850  179.0390  142.4290 C   0  0  0  0  0  0  0  0  0  0  0  0
  181.6720  177.5710  140.1830 C   0  0  0  0  0  0  0  0  0  0  0  0
  184.6290  178.3430  145.6300 C   0  0  0  0  0  3  0  0  0  0  0  0
  187.0230  177.8290  143.6650 C   0  0  0  0  0  3  0  0  0  0  0  0
  184.5540  178.4790  144.3090 C   0  0  0  0  0  0  0  0  0  0  0  0
  183.3110  178.8770  143.7990 O   0  0  0  0  0  0  0  0  0  0  0  0
  185.6560  178.2430  143.3450 C   0  0  0  0  0  0  0  0  0  0  0  0
  187.5800  177.5730  144.8430 C   0  0  0  0  0  3  0  0  0  0  0  0
  181.1310  178.2560  141.2900 O   0  0  0  0  0  0  0  0  0  0  0  0
  184.0720  178.8360  141.5500 C   0  0  0  0  0  0  0  0  0  0  0  0
  181.7150  179.3820  141.9430 C   0  0  0  0  0  2  0  0  0  0  0  0
  185.7490  177.9510  146.4910 C   0  0  0  0  0  3  0  0  0  0  0  0
  187.8670  177.2900  147.2680 N   0  0  0  0  0  1  0  0  0  0  0  0
  185.3980  178.4140  142.0460 C   0  0  0  0  0  3  0  0  0  0  0  0
  182.8550  177.8710  139.6210 C   0  0  0  0  0  3  0  0  0  0  0  0
  183.7820  178.9600  140.0740 C   0  0  2  0  0  3  0  0  0  0  0  0
  180.7160  175.3400  140.4170 N   0  0  0  0  0  0  0  0  0  0  0  0
  180.0950  174.2370  139.9350 C   0  0  0  0  0  3  0  0  0  0  0  0
  180.4290  176.4170  138.3040 C   0  0  0  0  0  0  0  0  0  0  0  0
  180.9100  176.4360  139.6350 C   0  0  0  0  0  0  0  0  0  0  0  0
  179.8260  175.2810  137.8600 N   0  0  0  0  0  0  0  0  0  0  0  0
  179.6630  174.2200  138.6490 N   0  0  0  0  0  0  0  0  0  0  0  0
  180.6420  179.8560  135.7460 C   0  0  0  0  0  0  0  0  0  0  0  0
  180.7190  181.0530  134.8680 C   0  0  0  0  0  1  0  0  0  0  0  0
  179.7240  179.8180  136.8010 C   0  0  0  0  0  3  0  0  0  0  0  0
  180.4890  177.5880  137.3970 C   0  0  0  0  0  0  0  0  0  0  0  0
  181.4960  178.7720  135.5240 C   0  0  0  0  0  3  0  0  0  0  0  0
  181.4230  177.6460  136.3500 C   0  0  0  0  0  3  0  0  0  0  0  0
  179.6520  178.6910  137.6270 C   0  0  0  0  0  3  0  0  0  0  0  0
  185.0050  178.9300  139.2860 N   0  0  0  0  0  2  0  0  0  0  0  0
  184.9220  177.8150  138.4410 N   0  0  0  0  0  2  0  0  0  0  0  0
  185.9360  177.9880  137.4160 C   0  0  0  0  0  2  0  0  0  0  0  0
  188.1400  177.6680  139.0510 C   0  0  0  0  0  0  0  0  0  0  0  0
  187.2460  177.6930  137.9680 N   0  0  0  0  0  0  0  0  0  0  0  0
  188.5900  177.3200  137.7980 C   0  0  0  0  0  0  0  0  0  0  0  0
  192.1410  176.5410  138.4820 C   0  0  0  0  0  1  0  0  0  0  0  0
  190.2160  177.3090  139.9480 C   0  0  0  0  0  3  0  0  0  0  0  0
  190.7110  176.9330  138.6220 C   0  0  0  0  0  0  0  0  0  0  0  0
  188.8560  177.7070  140.2120 C   0  0  0  0  0  3  0  0  0  0  0  0
  189.8570  176.9380  137.4630 C   0  0  0  0  0  0  0  0  0  0  0  0
  190.2840  176.5960  136.1770 O   0  0  0  0  0  0  0  0  0  0  0  0
  189.5370  176.9400  135.0200 C   0  0  0  0  0  1  0  0  0  0  0  0
  1 13  2  0  0  0  0
  1 14  1  0  0  0  0
  2  7  1  0  0  0  0
  3 10  1  0  0  0  0
  4 13  1  0  0  0  0
  5  9  2  0  0  0  0
  6  4  2  0  0  0  0
  7  6  1  0  0  0  0
  8  5  1  0  0  0  0
  8  6  1  0  0  0  0
  9  1  1  0  0  0  0
 10 12  1  0  0  0  0
 11 15  1  0  0  0  0
 11  2  2  0  0  0  0
 12  2  1  0  0  0  0
 15  8  2  0  0  0  0
 16 17  1  0  0  0  0
 16  3  2  0  0  0  0
 17 31  1  6  0  0  0
 17 11  1  0  0  0  0
 19 18  1  0  0  0  0
 20 21  1  0  0  0  0
 21  3  1  0  0  0  0
 21 18  2  0  0  0  0
 22 20  2  0  0  0  0
 22 23  1  0  0  0  0
 23 19  2  0  0  0  0
 24 26  1  0  0  0  0
 25 24  1  0  0  0  0
 26 30  2  0  0  0  0
 27 30  1  0  0  0  0
 27 20  1  0  0  0  0
 28 24  2  0  0  0  0
 28 29  1  0  0  0  0
 29 27  2  0  0  0  0
 32 31  1  0  0  0  0
 33 35  1  0  0  0  0
 33 32  1  0  0  0  0
 34 40  1  0  0  0  0
 35 34  1  0  0  0  0
 36 35  1  0  0  0  0
 36 34  2  0  0  0  0
 37 39  1  0  0  0  0
 38 40  2  0  0  0  0
 39 38  1  0  0  0  0
 41 36  1  0  0  0  0
 41 39  2  0  0  0  0
 42 41  1  0  0  0  0
 43 42  1  0  0  0  0
M  END
>  <MODEL>
6

>  <REMARK>
 VINA RESULT:      -8.5      3.312      7.867
  Name = 
  7 active torsions:
  status: ('A' for Active; 'I' for Inactive)
    1  A    between atoms: N_4  and  N_32
    2  A    between atoms: N_4  and  C_42
    3  A    between atoms: C_6  and  C_21
    4  A    between atoms: C_7  and  C_15
    5  A    between atoms: N_10  and  C_29
    6  A    between atoms: O_26  and  C_43
    7  A    between atoms: C_29  and  N_32
                            x       y       z     vdW  Elec       q    Type
                         _______ _______ _______ _____ _____    ______ ____

>  <TORSDO>
F 7

$$$$
=
 OpenBabel10222418553D

 43 49  0  0  1  0  0  0  0  0999 V2000
  182.7300  174.2630  135.9900 C   0  0  0  0  0  0  0  0  0  0  0  0
  187.6340  176.9350  135.4350 C   0  0  0  0  0  0  0  0  0  0  0  0
  190.3520  176.6730  136.7540 C   0  0  0  0  0  0  0  0  0  0  0  0
  184.7690  174.8820  134.6020 C   0  0  0  0  0  3  0  0  0  0  0  0
  184.0810  175.7370  137.5440 C   0  0  0  0  0  3  0  0  0  0  0  0
  185.5380  175.6670  135.3510 C   0  0  0  0  0  0  0  0  0  0  0  0
  186.7230  176.1200  134.7560 O   0  0  0  0  0  0  0  0  0  0  0  0
  185.2540  176.0910  136.7440 C   0  0  0  0  0  0  0  0  0  0  0  0
  183.0350  174.9800  137.2300 C   0  0  0  0  0  3  0  0  0  0  0  0
  190.0060  176.6240  135.3880 O   0  0  0  0  0  0  0  0  0  0  0  0
  187.3860  177.3300  136.6900 C   0  0  0  0  0  0  0  0  0  0  0  0
  188.9190  177.3150  134.7760 C   0  0  0  0  0  2  0  0  0  0  0  0
  183.4840  174.2390  134.8920 C   0  0  0  0  0  3  0  0  0  0  0  0
  181.5130  173.5290  135.9590 N   0  0  0  0  0  1  0  0  0  0  0  0
  186.1490  176.8730  137.3540 C   0  0  0  0  0  3  0  0  0  0  0  0
  189.6570  177.3560  137.6790 C   0  0  0  0  0  3  0  0  0  0  0  0
  188.4160  178.1590  137.4170 C   0  0  2  0  0  3  0  0  0  0  0  0
  192.5810  176.5640  137.7360 N   0  0  0  0  0  0  0  0  0  0  0  0
  193.7160  175.9100  138.0830 C   0  0  0  0  0  3  0  0  0  0  0  0
  191.6180  174.4980  137.0200 C   0  0  0  0  0  0  0  0  0  0  0  0
  191.5250  175.8990  137.1970 C   0  0  0  0  0  0  0  0  0  0  0  0
  192.7840  173.8890  137.3680 N   0  0  0  0  0  0  0  0  0  0  0  0
  193.8060  174.5710  137.8830 N   0  0  0  0  0  0  0  0  0  0  0  0
  188.3250  172.1420  135.6020 C   0  0  0  0  0  0  0  0  0  0  0  0
  187.1780  171.3340  135.1080 C   0  0  0  0  0  1  0  0  0  0  0  0
  188.1720  172.9630  136.7240 C   0  0  0  0  0  3  0  0  0  0  0  0
  190.4950  173.6580  136.5410 C   0  0  0  0  0  0  0  0  0  0  0  0
  189.5530  172.0890  134.9360 C   0  0  0  0  0  3  0  0  0  0  0  0
  190.6310  172.8490  135.4010 C   0  0  0  0  0  3  0  0  0  0  0  0
  189.2510  173.7220  137.1880 C   0  0  0  0  0  3  0  0  0  0  0  0
  187.8910  178.6820  138.6700 N   0  0  0  0  0  2  0  0  0  0  0  0
  188.6560  178.1230  139.7020 N   0  0  0  0  0  2  0  0  0  0  0  0
  187.9160  178.3310  140.9340 C   0  0  0  0  0  2  0  0  0  0  0  0
  190.0720  177.9520  142.6190 C   0  0  0  0  0  0  0  0  0  0  0  0
  188.7870  178.1010  142.0730 N   0  0  0  0  0  0  0  0  0  0  0  0
  188.9710  177.7620  143.4240 C   0  0  0  0  0  0  0  0  0  0  0  0
  190.5590  176.9400  146.6620 C   0  0  0  0  0  1  0  0  0  0  0  0
  191.4840  177.5010  144.3650 C   0  0  0  0  0  3  0  0  0  0  0  0
  190.3240  177.2970  145.2350 C   0  0  0  0  0  0  0  0  0  0  0  0
  191.3870  177.8480  142.9700 C   0  0  0  0  0  3  0  0  0  0  0  0
  188.9760  177.4280  144.7480 C   0  0  0  0  0  0  0  0  0  0  0  0
  187.8380  177.2350  145.5350 O   0  0  0  0  0  0  0  0  0  0  0  0
  186.6480  177.9820  145.3340 C   0  0  0  0  0  1  0  0  0  0  0  0
  1  9  1  0  0  0  0
  2 11  2  0  0  0  0
  3 21  1  0  0  0  0
  3 16  2  0  0  0  0
  4 13  1  0  0  0  0
  4  6  2  0  0  0  0
  6  8  1  0  0  0  0
  7  6  1  0  0  0  0
  7  2  1  0  0  0  0
  8 15  2  0  0  0  0
  8  5  1  0  0  0  0
  9  5  2  0  0  0  0
 10  3  1  0  0  0  0
 11 15  1  0  0  0  0
 11 17  1  0  0  0  0
 12 10  1  0  0  0  0
 12  2  1  0  0  0  0
 13  1  2  0  0  0  0
 14  1  1  0  0  0  0
 17 16  1  0  0  0  0
 17 31  1  1  0  0  0
 18 19  1  0  0  0  0
 20 21  1  0  0  0  0
 20 22  2  0  0  0  0
 21 18  2  0  0  0  0
 22 23  1  0  0  0  0
 23 19  2  0  0  0  0
 24 26  1  0  0  0  0
 25 24  1  0  0  0  0
 26 30  2  0  0  0  0
 27 20  1  0  0  0  0
 27 30  1  0  0  0  0
 28 29  1  0  0  0  0
 28 24  2  0  0  0  0
 29 27  2  0  0  0  0
 31 32  1  0  0  0  0
 32 33  1  0  0  0  0
 33 35  1  0  0  0  0
 34 40  2  0  0  0  0
 34 36  1  0  0  0  0
 35 34  1  0  0  0  0
 35 36  1  0  0  0  0
 36 41  2  0  0  0  0
 38 39  2  0  0  0  0
 39 37  1  0  0  0  0
 40 38  1  0  0  0  0
 41 39  1  0  0  0  0
 41 42  1  0  0  0  0
 43 42  1  0  0  0  0
M  END
>  <MODEL>
7

>  <REMARK>
 VINA RESULT:      -8.3      2.483      4.064
  Name = 
  7 active torsions:
  status: ('A' for Active; 'I' for Inactive)
    1  A    between atoms: N_4  and  N_32
    2  A    between atoms: N_4  and  C_42
    3  A    between atoms: C_6  and  C_21
    4  A    between atoms: C_7  and  C_15
    5  A    between atoms: N_10  and  C_29
    6  A    between atoms: O_26  and  C_43
    7  A    between atoms: C_29  and  N_32
                            x       y       z     vdW  Elec       q    Type
                         _______ _______ _______ _____ _____    ______ ____

>  <TORSDO>
F 7

$$$$
=
 OpenBabel10222418553D

 43 49  0  0  1  0  0  0  0  0999 V2000
  179.8260  178.9010  143.4780 C   0  0  0  0  0  0  0  0  0  0  0  0
  182.5360  178.8860  138.5640 C   0  0  0  0  0  0  0  0  0  0  0  0
  184.2320  176.8540  137.0840 C   0  0  0  0  0  0  0  0  0  0  0  0
  179.8020  178.9840  140.9370 C   0  0  0  0  0  3  0  0  0  0  0  0
  182.2770  178.7750  142.8560 C   0  0  0  0  0  3  0  0  0  0  0  0
  181.0640  178.9250  140.5240 C   0  0  0  0  0  0  0  0  0  0  0  0
  181.2630  178.9600  139.1370 O   0  0  0  0  0  0  0  0  0  0  0  0
  182.2610  178.8210  141.3940 C   0  0  0  0  0  0  0  0  0  0  0  0
  181.2680  178.8080  143.7190 C   0  0  0  0  0  3  0  0  0  0  0  0
  183.0740  177.5380  136.6610 O   0  0  0  0  0  0  0  0  0  0  0  0
  183.6240  178.7990  139.3380 C   0  0  0  0  0  0  0  0  0  0  0  0
  182.6750  178.8420  137.0780 C   0  0  0  0  0  2  0  0  0  0  0  0
  179.2330  178.9730  142.2880 C   0  0  0  0  0  3  0  0  0  0  0  0
  178.9860  178.9180  144.6250 N   0  0  0  0  0  1  0  0  0  0  0  0
  183.4580  178.7580  140.8050 C   0  0  0  0  0  3  0  0  0  0  0  0
  185.1000  177.3380  137.9890 C   0  0  0  0  0  3  0  0  0  0  0  0
  184.9790  178.6590  138.6900 C   0  0  2  0  0  3  0  0  0  0  0  0
  185.5970  175.3170  135.7720 N   0  0  0  0  0  0  0  0  0  0  0  0
  185.8320  174.1270  135.1680 C   0  0  0  0  0  3  0  0  0  0  0  0
  183.5750  174.4410  136.6950 C   0  0  0  0  0  0  0  0  0  0  0  0
  184.4830  175.5130  136.5280 C   0  0  0  0  0  0  0  0  0  0  0  0
  183.8460  173.2710  136.0560 N   0  0  0  0  0  0  0  0  0  0  0  0
  184.9400  173.1150  135.3120 N   0  0  0  0  0  0  0  0  0  0  0  0
  180.1260  174.7230  139.2320 C   0  0  0  0  0  0  0  0  0  0  0  0
  178.9310  174.8310  140.1110 C   0  0  0  0  0  1  0  0  0  0  0  0
  181.3440  175.2810  139.6340 C   0  0  0  0  0  3  0  0  0  0  0  0
  182.3860  174.5070  137.5780 C   0  0  0  0  0  0  0  0  0  0  0  0
  180.0280  174.0720  137.9990 C   0  0  0  0  0  3  0  0  0  0  0  0
  181.1530  173.9710  137.1740 C   0  0  0  0  0  3  0  0  0  0  0  0
  182.4680  175.1790  138.8070 C   0  0  0  0  0  3  0  0  0  0  0  0
  186.0530  178.8040  139.6620 N   0  0  0  0  0  2  0  0  0  0  0  0
  187.1990  178.2280  139.0980 N   0  0  0  0  0  2  0  0  0  0  0  0
  188.3230  178.6300  139.9250 C   0  0  0  0  0  2  0  0  0  0  0  0
  187.1820  178.0460  142.3720 C   0  0  0  0  0  0  0  0  0  0  0  0
  188.0710  178.2610  141.3060 N   0  0  0  0  0  0  0  0  0  0  0  0
  188.5370  177.9550  142.5960 C   0  0  0  0  0  0  0  0  0  0  0  0
  188.6360  177.1320  146.2010 C   0  0  0  0  0  1  0  0  0  0  0  0
  186.7410  177.5620  144.5670 C   0  0  0  0  0  3  0  0  0  0  0  0
  188.1790  177.4600  144.8210 C   0  0  0  0  0  0  0  0  0  0  0  0
  186.1760  177.8740  143.2780 C   0  0  0  0  0  3  0  0  0  0  0  0
  189.1520  177.6710  143.7820 C   0  0  0  0  0  0  0  0  0  0  0  0
  190.5330  177.5940  143.9760 O   0  0  0  0  0  0  0  0  0  0  0  0
  191.3610  178.7470  143.9630 C   0  0  0  0  0  1  0  0  0  0  0  0
  1  9  1  0  0  0  0
  1 14  1  0  0  0  0
  2  7  1  0  0  0  0
  2 11  2  0  0  0  0
  3 16  2  0  0  0  0
  4 13  1  0  0  0  0
  5  9  2  0  0  0  0
  6  4  2  0  0  0  0
  6  8  1  0  0  0  0
  7  6  1  0  0  0  0
  8  5  1  0  0  0  0
 10 12  1  0  0  0  0
 10  3  1  0  0  0  0
 11 15  1  0  0  0  0
 12  2  1  0  0  0  0
 13  1  2  0  0  0  0
 15  8  2  0  0  0  0
 16 17  1  0  0  0  0
 17 11  1  0  0  0  0
 17 31  1  1  0  0  0
 18 21  1  0  0  0  0
 19 23  1  0  0  0  0
 19 18  2  0  0  0  0
 20 27  1  0  0  0  0
 21 20  2  0  0  0  0
 21  3  1  0  0  0  0
 22 20  1  0  0  0  0
 23 22  2  0  0  0  0
 24 26  1  0  0  0  0
 24 25  1  0  0  0  0
 27 30  1  0  0  0  0
 28 24  2  0  0  0  0
 29 27  2  0  0  0  0
 29 28  1  0  0  0  0
 30 26  2  0  0  0  0
 32 31  1  0  0  0  0
 32 33  1  0  0  0  0
 33 35  1  0  0  0  0
 34 36  2  0  0  0  0
 34 40  1  0  0  0  0
 35 34  1  0  0  0  0
 35 36  1  0  0  0  0
 36 41  1  0  0  0  0
 38 39  1  0  0  0  0
 39 37  1  0  0  0  0
 40 38  2  0  0  0  0
 41 42  1  0  0  0  0
 41 39  2  0  0  0  0
 43 42  1  0  0  0  0
M  END
>  <MODEL>
8

>  <REMARK>
 VINA RESULT:      -8.2      3.191      4.922
  Name = 
  7 active torsions:
  status: ('A' for Active; 'I' for Inactive)
    1  A    between atoms: N_4  and  N_32
    2  A    between atoms: N_4  and  C_42
    3  A    between atoms: C_6  and  C_21
    4  A    between atoms: C_7  and  C_15
    5  A    between atoms: N_10  and  C_29
    6  A    between atoms: O_26  and  C_43
    7  A    between atoms: C_29  and  N_32
                            x       y       z     vdW  Elec       q    Type
                         _______ _______ _______ _____ _____    ______ ____

>  <TORSDO>
F 7

$$$$
=
 OpenBabel10222418553D

 43 49  0  0  1  0  0  0  0  0999 V2000
  192.0840  175.5300  147.2560 C   0  0  0  0  0  0  0  0  0  0  0  0
  190.2040  178.6930  143.0190 C   0  0  0  0  0  0  0  0  0  0  0  0
  187.7590  178.6030  141.2270 C   0  0  0  0  0  0  0  0  0  0  0  0
  191.2010  177.7430  146.3680 C   0  0  0  0  0  3  0  0  0  0  0  0
  191.7250  175.0800  144.7900 C   0  0  0  0  0  3  0  0  0  0  0  0
  190.9860  177.5930  145.0640 C   0  0  0  0  0  0  0  0  0  0  0  0
  190.4940  178.7160  144.3860 O   0  0  0  0  0  0  0  0  0  0  0  0
  191.2150  176.3540  144.2810 C   0  0  0  0  0  0  0  0  0  0  0  0
  192.0850  174.7400  146.0230 C   0  0  0  0  0  3  0  0  0  0  0  0
  188.2360  179.6460  142.0470 O   0  0  0  0  0  0  0  0  0  0  0  0
  190.4130  177.5840  142.2990 C   0  0  0  0  0  0  0  0  0  0  0  0
  189.6020  179.8970  142.3710 C   0  0  0  0  0  2  0  0  0  0  0  0
  191.7030  176.8010  147.3720 C   0  0  0  0  0  3  0  0  0  0  0  0
  192.5360  174.8760  148.4350 N   0  0  0  0  0  1  0  0  0  0  0  0
  190.9310  176.3780  142.9770 C   0  0  0  0  0  3  0  0  0  0  0  0
  188.5460  177.6650  140.6740 C   0  0  0  0  0  3  0  0  0  0  0  0
  190.0350  177.5720  140.8390 C   0  0  2  0  0  3  0  0  0  0  0  0
  185.8430  178.5840  139.7200 N   0  0  0  0  0  0  0  0  0  0  0  0
  184.5130  178.5930  139.4580 C   0  0  0  0  0  3  0  0  0  0  0  0
  185.3740  178.4320  142.0580 C   0  0  0  0  0  0  0  0  0  0  0  0
  186.3070  178.5160  140.9960 C   0  0  0  0  0  0  0  0  0  0  0  0
  184.0500  178.4610  141.7460 N   0  0  0  0  0  0  0  0  0  0  0  0
  183.6280  178.5410  140.4850 N   0  0  0  0  0  0  0  0  0  0  0  0
  186.5830  177.9440  146.1450 C   0  0  0  0  0  0  0  0  0  0  0  0
  187.0110  177.7790  147.5600 C   0  0  0  0  0  1  0  0  0  0  0  0
  187.2030  177.2020  145.1340 C   0  0  0  0  0  3  0  0  0  0  0  0
  185.7640  178.2480  143.4750 C   0  0  0  0  0  0  0  0  0  0  0  0
  185.5680  178.8510  145.8260 C   0  0  0  0  0  3  0  0  0  0  0  0
  185.1660  179.0050  144.4960 C   0  0  0  0  0  3  0  0  0  0  0  0
  186.7990  177.3580  143.8040 C   0  0  0  0  0  3  0  0  0  0  0  0
  190.5340  176.3800  140.1690 N   0  0  0  0  0  2  0  0  0  0  0  0
  191.6390  176.7710  139.4020 N   0  0  0  0  0  2  0  0  0  0  0  0
  191.4240  176.2560  138.0610 C   0  0  0  0  0  2  0  0  0  0  0  0
  189.3360  177.8280  137.1670 C   0  0  0  0  0  0  0  0  0  0  0  0
  190.1670  176.7580  137.5380 N   0  0  0  0  0  0  0  0  0  0  0  0
  188.8410  176.5440  137.1260 C   0  0  0  0  0  0  0  0  0  0  0  0
  185.3860  177.1270  135.9400 C   0  0  0  0  0  1  0  0  0  0  0  0
  187.3370  178.6720  136.4370 C   0  0  0  0  0  3  0  0  0  0  0  0
  186.7950  177.3130  136.3850 C   0  0  0  0  0  0  0  0  0  0  0  0
  188.6830  178.9830  136.8500 C   0  0  0  0  0  3  0  0  0  0  0  0
  187.5820  176.1670  136.7530 C   0  0  0  0  0  0  0  0  0  0  0  0
  187.1080  174.8520  136.7290 O   0  0  0  0  0  0  0  0  0  0  0  0
  187.9790  173.7360  136.8360 C   0  0  0  0  0  1  0  0  0  0  0  0
  1 13  2  0  0  0  0
  1 14  1  0  0  0  0
  2  7  1  0  0  0  0
  3 10  1  0  0  0  0
  4 13  1  0  0  0  0
  5  9  2  0  0  0  0
  6  4  2  0  0  0  0
  7  6  1  0  0  0  0
  8  5  1  0  0  0  0
  8  6  1  0  0  0  0
  9  1  1  0  0  0  0
 10 12  1  0  0  0  0
 11 15  1  0  0  0  0
 11  2  2  0  0  0  0
 12  2  1  0  0  0  0
 15  8  2  0  0  0  0
 16 17  1  0  0  0  0
 16  3  2  0  0  0  0
 17 31  1  1  0  0  0
 17 11  1  0  0  0  0
 18 21  1  0  0  0  0
 19 18  2  0  0  0  0
 19 23  1  0  0  0  0
 20 27  1  0  0  0  0
 21  3  1  0  0  0  0
 21 20  2  0  0  0  0
 22 20  1  0  0  0  0
 23 22  2  0  0  0  0
 24 25  1  0  0  0  0
 26 24  2  0  0  0  0
 27 30  2  0  0  0  0
 27 29  1  0  0  0  0
 28 24  1  0  0  0  0
 29 28  2  0  0  0  0
 30 26  1  0  0  0  0
 32 31  1  0  0  0  0
 33 32  1  0  0  0  0
 34 35  1  0  0  0  0
 35 33  1  0  0  0  0
 36 34  1  0  0  0  0
 36 35  1  0  0  0  0
 37 39  1  0  0  0  0
 38 40  1  0  0  0  0
 39 38  2  0  0  0  0
 39 41  1  0  0  0  0
 40 34  2  0  0  0  0
 41 36  2  0  0  0  0
 42 41  1  0  0  0  0
 42 43  1  0  0  0  0
M  END
>  <MODEL>
9

>  <REMARK>
 VINA RESULT:      -7.8      2.146      8.602
  Name = 
  7 active torsions:
  status: ('A' for Active; 'I' for Inactive)
    1  A    between atoms: N_4  and  N_32
    2  A    between atoms: N_4  and  C_42
    3  A    between atoms: C_6  and  C_21
    4  A    between atoms: C_7  and  C_15
    5  A    between atoms: N_10  and  C_29
    6  A    between atoms: O_26  and  C_43
    7  A    between atoms: C_29  and  N_32
                            x       y       z     vdW  Elec       q    Type
                         _______ _______ _______ _____ _____    ______ ____

>  <TORSDO>
F 7

$$$$
