=
 OpenBabel10222418253D

 26 29  0  0  1  0  0  0  0  0999 V2000
  189.0960  177.0290  143.3800 C   0  0  0  0  0  0  0  0  0  0  0  0
  189.1230  177.8130  145.7000 C   0  0  0  0  0  3  0  0  0  0  0  0
  189.7820  176.5740  142.1320 C   0  0  0  0  0  2  0  0  0  0  0  0
  192.0160  177.3150  143.3510 N   0  0  0  0  0  2  0  0  0  0  0  0
  185.5690  177.5690  144.8000 C   0  0  2  0  0  3  0  0  0  0  0  0
  190.7060  177.6680  141.5760 C   0  0  1  0  0  3  0  0  0  0  0  0
  187.0340  177.5390  144.5110 C   0  0  0  0  0  0  0  0  0  0  0  0
  183.5260  179.1680  145.7670 N   0  0  0  0  0  2  0  0  0  0  0  0
  184.6190  178.9070  146.6140 N   0  0  0  0  0  0  0  0  0  0  0  0
  183.6570  178.9920  144.3740 N   0  0  0  0  0  0  0  0  0  0  0  0
  184.6750  178.3510  143.8730 C   0  0  0  0  0  0  0  0  0  0  0  0
  185.6160  178.2340  146.1390 C   0  0  0  0  0  0  0  0  0  0  0  0
  187.7340  177.8700  145.6550 C   0  0  0  0  0  0  0  0  0  0  0  0
  186.8930  178.2610  146.6840 O   0  0  0  0  0  0  0  0  0  0  0  0
  189.8250  177.3920  144.5550 C   0  0  0  0  0  0  0  0  0  0  0  0
  191.7810  176.1610  145.4750 C   0  0  0  0  0  1  0  0  0  0  0  0
  187.6930  177.0880  143.3700 C   0  0  0  0  0  3  0  0  0  0  0  0
  191.3390  177.3540  144.6480 C   0  0  1  0  0  3  0  0  0  0  0  0
  184.7590  178.1580  142.4000 C   0  0  0  0  0  1  0  0  0  0  0  0
  191.5000  178.2990  142.5640 O   0  0  0  0  0  0  0  0  0  0  0  0
  191.5630  177.1150  140.4480 C   0  0  0  0  0  2  0  0  0  0  0  0
  190.7510  176.2950  139.5660 N   0  0  0  0  0  2  0  0  0  0  0  0
  190.5310  177.0710  138.3590 C   0  0  0  0  0  2  0  0  0  0  0  0
  189.0370  179.0540  138.5580 O   0  0  0  0  0  1  0  0  0  0  0  0
  189.1760  177.6820  138.3970 C   0  0  0  0  0  0  0  0  0  0  0  0
  188.1550  176.9510  138.3210 O   0  0  0  0  0  0  0  0  0  0  0  0
  1 15  1  0  0  0  0
  3  1  1  0  0  0  0
  4 18  1  0  0  0  0
  5 11  1  6  0  0  0
  5 12  1  0  0  0  0
  6 21  1  6  0  0  0
  6  3  1  0  0  0  0
  6 20  1  0  0  0  0
  7  5  1  0  0  0  0
  7 13  2  0  0  0  0
  8  9  1  0  0  0  0
 10  8  1  0  0  0  0
 11 10  2  0  0  0  0
 12  9  2  0  0  0  0
 12 14  1  0  0  0  0
 13  2  1  0  0  0  0
 13 14  1  0  0  0  0
 15 18  1  0  0  0  0
 15  2  2  0  0  0  0
 17  1  2  0  0  0  0
 17  7  1  0  0  0  0
 18 16  1  1  0  0  0
 19 11  1  0  0  0  0
 20  4  1  0  0  0  0
 22 21  1  0  0  0  0
 23 25  1  0  0  0  0
 23 22  1  0  0  0  0
 25 24  1  0  0  0  0
 26 25  2  0  0  0  0
M  END
>  <MODEL>
1

>  <REMARK>
 VINA RESULT:      -9.3      0.000      0.000
  Name = 
  4 active torsions:
  status: ('A' for Active; 'I' for Inactive)
    1  A    between atoms: C_1  and  N_7
    2  A    between atoms: C_1  and  C_10
    3  A    between atoms: N_7  and  C_8
    4  A    between atoms: C_8  and  C_16
                            x       y       z     vdW  Elec       q    Type
                         _______ _______ _______ _____ _____    ______ ____

>  <TORSDO>
F 4

$$$$
=
 OpenBabel10222418253D

 26 29  0  0  1  0  0  0  0  0999 V2000
  189.1210  177.0160  143.4450 C   0  0  0  0  0  0  0  0  0  0  0  0
  189.1210  177.7860  145.7700 C   0  0  0  0  0  3  0  0  0  0  0  0
  189.8220  176.5680  142.2020 C   0  0  0  0  0  2  0  0  0  0  0  0
  192.0420  177.2980  143.4530 N   0  0  0  0  0  2  0  0  0  0  0  0
  185.5780  177.5530  144.8240 C   0  0  2  0  0  3  0  0  0  0  0  0
  190.7540  177.6640  141.6650 C   0  0  1  0  0  3  0  0  0  0  0  0
  187.0460  177.5220  144.5520 C   0  0  0  0  0  0  0  0  0  0  0  0
  183.5250  179.1490  145.7760 N   0  0  0  0  0  2  0  0  0  0  0  0
  184.6070  178.8820  146.6340 N   0  0  0  0  0  0  0  0  0  0  0  0
  183.6730  178.9810  144.3830 N   0  0  0  0  0  0  0  0  0  0  0  0
  184.6960  178.3420  143.8910 C   0  0  0  0  0  0  0  0  0  0  0  0
  185.6090  178.2090  146.1670 C   0  0  0  0  0  0  0  0  0  0  0  0
  187.7320  177.8460  145.7080 C   0  0  0  0  0  0  0  0  0  0  0  0
  186.8790  178.2320  146.7290 O   0  0  0  0  0  0  0  0  0  0  0  0
  189.8360  177.3710  144.6300 C   0  0  0  0  0  0  0  0  0  0  0  0
  191.7790  176.1310  145.5680 C   0  0  0  0  0  1  0  0  0  0  0  0
  187.7180  177.0770  143.4180 C   0  0  0  0  0  3  0  0  0  0  0  0
  191.3480  177.3300  144.7420 C   0  0  1  0  0  3  0  0  0  0  0  0
  184.7980  178.1580  142.4170 C   0  0  0  0  0  1  0  0  0  0  0  0
  191.5370  178.2870  142.6660 O   0  0  0  0  0  0  0  0  0  0  0  0
  191.6250  177.1170  140.5440 C   0  0  0  0  0  2  0  0  0  0  0  0
  190.8330  176.2660  139.6730 N   0  0  0  0  0  2  0  0  0  0  0  0
  191.1330  176.6670  138.3110 C   0  0  0  0  0  2  0  0  0  0  0  0
  191.8970  174.3550  137.7880 O   0  0  0  0  0  1  0  0  0  0  0  0
  192.1170  175.7240  137.7170 C   0  0  0  0  0  0  0  0  0  0  0  0
  193.1670  176.1650  137.1820 O   0  0  0  0  0  0  0  0  0  0  0  0
  1 15  1  0  0  0  0
  3  1  1  0  0  0  0
  4 18  1  0  0  0  0
  5 11  1  6  0  0  0
  5 12  1  0  0  0  0
  6 21  1  6  0  0  0
  6  3  1  0  0  0  0
  6 20  1  0  0  0  0
  7  5  1  0  0  0  0
  7 13  2  0  0  0  0
  8  9  1  0  0  0  0
 10  8  1  0  0  0  0
 11 10  2  0  0  0  0
 12  9  2  0  0  0  0
 12 14  1  0  0  0  0
 13  2  1  0  0  0  0
 13 14  1  0  0  0  0
 15 18  1  0  0  0  0
 15  2  2  0  0  0  0
 17  1  2  0  0  0  0
 17  7  1  0  0  0  0
 18 16  1  1  0  0  0
 19 11  1  0  0  0  0
 20  4  1  0  0  0  0
 22 21  1  0  0  0  0
 23 22  1  0  0  0  0
 25 24  1  0  0  0  0
 25 23  1  0  0  0  0
 26 25  2  0  0  0  0
M  END
>  <MODEL>
2

>  <REMARK>
 VINA RESULT:      -9.0      1.434      1.658
  Name = 
  4 active torsions:
  status: ('A' for Active; 'I' for Inactive)
    1  A    between atoms: C_1  and  N_7
    2  A    between atoms: C_1  and  C_10
    3  A    between atoms: N_7  and  C_8
    4  A    between atoms: C_8  and  C_16
                            x       y       z     vdW  Elec       q    Type
                         _______ _______ _______ _____ _____    ______ ____

>  <TORSDO>
F 4

$$$$
=
 OpenBabel10222418253D

 26 29  0  0  1  0  0  0  0  0999 V2000
  186.7210  177.7010  144.1670 C   0  0  0  0  0  0  0  0  0  0  0  0
  185.6270  179.1030  142.4830 C   0  0  0  0  0  3  0  0  0  0  0  0
  186.8620  177.1760  145.5600 C   0  0  0  0  0  2  0  0  0  0  0  0
  185.0690  179.0200  146.2010 N   0  0  0  0  0  2  0  0  0  0  0  0
  188.2730  177.3040  140.6770 C   0  0  2  0  0  3  0  0  0  0  0  0
  187.1570  178.3090  146.5530 C   0  0  1  0  0  3  0  0  0  0  0  0
  187.5330  177.7310  141.9020 C   0  0  0  0  0  0  0  0  0  0  0  0
  189.6920  178.2480  138.4950 N   0  0  0  0  0  2  0  0  0  0  0  0
  188.3630  178.6800  138.6550 N   0  0  0  0  0  0  0  0  0  0  0  0
  190.3990  177.7200  139.5950 N   0  0  0  0  0  0  0  0  0  0  0  0
  189.7770  177.3800  140.6890 C   0  0  0  0  0  0  0  0  0  0  0  0
  187.7230  178.3120  139.7180 C   0  0  0  0  0  0  0  0  0  0  0  0
  186.5420  178.6270  141.5500 C   0  0  0  0  0  0  0  0  0  0  0  0
  186.6050  178.9720  140.2100 O   0  0  0  0  0  0  0  0  0  0  0  0
  185.7090  178.6450  143.8120 C   0  0  0  0  0  0  0  0  0  0  0  0
  183.3370  178.5640  144.5600 C   0  0  0  0  0  1  0  0  0  0  0  0
  187.6240  177.2310  143.1980 C   0  0  0  0  0  3  0  0  0  0  0  0
  184.6960  179.1980  144.7960 C   0  0  1  0  0  3  0  0  0  0  0  0
  190.5550  176.7950  141.8150 C   0  0  0  0  0  1  0  0  0  0  0  0
  186.3480  179.4560  146.3660 O   0  0  0  0  0  0  0  0  0  0  0  0
  187.0700  177.7970  147.9830 C   0  0  0  0  0  2  0  0  0  0  0  0
  188.2500  177.0140  148.3010 N   0  0  0  0  0  2  0  0  0  0  0  0
  189.3960  177.8800  148.0900 C   0  0  0  0  0  2  0  0  0  0  0  0
  191.6950  176.9450  147.8790 O   0  0  0  0  0  1  0  0  0  0  0  0
  190.4390  177.1510  147.3220 C   0  0  0  0  0  0  0  0  0  0  0  0
  190.1970  176.7520  146.1530 O   0  0  0  0  0  0  0  0  0  0  0  0
  1  3  1  0  0  0  0
  2 15  2  0  0  0  0
  3  6  1  0  0  0  0
  4 20  1  0  0  0  0
  5 12  1  6  0  0  0
  5 11  1  0  0  0  0
  5  7  1  0  0  0  0
  6 21  1  1  0  0  0
  7 17  1  0  0  0  0
  8  9  1  0  0  0  0
  8 10  1  0  0  0  0
  9 12  2  0  0  0  0
 10 11  2  0  0  0  0
 11 19  1  0  0  0  0
 12 14  1  0  0  0  0
 13  7  2  0  0  0  0
 13  2  1  0  0  0  0
 14 13  1  0  0  0  0
 15  1  1  0  0  0  0
 15 18  1  0  0  0  0
 17  1  2  0  0  0  0
 18 16  1  1  0  0  0
 18  4  1  0  0  0  0
 20  6  1  0  0  0  0
 21 22  1  0  0  0  0
 23 22  1  0  0  0  0
 25 24  1  0  0  0  0
 25 23  1  0  0  0  0
 26 25  2  0  0  0  0
M  END
>  <MODEL>
3

>  <REMARK>
 VINA RESULT:      -8.3      2.278      7.040
  Name = 
  4 active torsions:
  status: ('A' for Active; 'I' for Inactive)
    1  A    between atoms: C_1  and  N_7
    2  A    between atoms: C_1  and  C_10
    3  A    between atoms: N_7  and  C_8
    4  A    between atoms: C_8  and  C_16
                            x       y       z     vdW  Elec       q    Type
                         _______ _______ _______ _____ _____    ______ ____

>  <TORSDO>
F 4

$$$$
=
 OpenBabel10222418253D

 26 29  0  0  1  0  0  0  0  0999 V2000
  187.8840  177.5560  144.1760 C   0  0  0  0  0  0  0  0  0  0  0  0
  186.6440  178.3740  146.1220 C   0  0  0  0  0  3  0  0  0  0  0  0
  189.1400  177.0920  143.5090 C   0  0  0  0  0  2  0  0  0  0  0  0
  190.3510  177.8810  145.7310 N   0  0  0  0  0  2  0  0  0  0  0  0
  184.1500  178.0680  143.4410 C   0  0  2  0  0  3  0  0  0  0  0  0
  190.2130  178.1890  143.5230 C   0  0  1  0  0  3  0  0  0  0  0  0
  185.5370  178.0540  143.9940 C   0  0  0  0  0  0  0  0  0  0  0  0
  181.9040  179.6530  143.1110 N   0  0  0  0  0  2  0  0  0  0  0  0
  182.3620  179.4200  144.4210 N   0  0  0  0  0  0  0  0  0  0  0  0
  182.7710  179.4580  142.0160 N   0  0  0  0  0  0  0  0  0  0  0  0
  183.9000  178.8230  142.1620 C   0  0  0  0  0  0  0  0  0  0  0  0
  183.4600  178.7540  144.5770 C   0  0  0  0  0  0  0  0  0  0  0  0
  185.5010  178.4120  145.3280 C   0  0  0  0  0  0  0  0  0  0  0  0
  184.2350  178.8070  145.7270 O   0  0  0  0  0  0  0  0  0  0  0  0
  187.8560  177.9460  145.5500 C   0  0  0  0  0  0  0  0  0  0  0  0
  189.0030  176.7560  147.4100 C   0  0  0  0  0  1  0  0  0  0  0  0
  186.7110  177.5950  143.4040 C   0  0  0  0  0  3  0  0  0  0  0  0
  189.0770  177.9310  146.4510 C   0  0  1  0  0  3  0  0  0  0  0  0
  184.7720  178.6100  140.9740 C   0  0  0  0  0  1  0  0  0  0  0  0
  190.3410  178.8460  144.7700 O   0  0  0  0  0  0  0  0  0  0  0  0
  191.5480  177.6320  143.0520 C   0  0  0  0  0  2  0  0  0  0  0  0
  191.3410  176.7330  141.9310 N   0  0  0  0  0  2  0  0  0  0  0  0
  191.6330  177.4910  140.7280 C   0  0  0  0  0  2  0  0  0  0  0  0
  189.8250  178.0370  139.1050 O   0  0  0  0  0  0  0  0  0  0  0  0
  190.6920  177.0970  139.6470 C   0  0  0  0  0  0  0  0  0  0  0  0
  190.6550  175.9040  139.2490 O   0  0  0  0  0  1  0  0  0  0  0  0
  1 15  1  0  0  0  0
  3  6  1  0  0  0  0
  3  1  1  0  0  0  0
  4 18  1  0  0  0  0
  5 11  1  6  0  0  0
  5  7  1  0  0  0  0
  5 12  1  0  0  0  0
  6 21  1  1  0  0  0
  6 20  1  0  0  0  0
  7 13  2  0  0  0  0
  8  9  1  0  0  0  0
  9 12  2  0  0  0  0
 10 11  2  0  0  0  0
 10  8  1  0  0  0  0
 12 14  1  0  0  0  0
 13 14  1  0  0  0  0
 13  2  1  0  0  0  0
 15  2  2  0  0  0  0
 15 18  1  0  0  0  0
 17  7  1  0  0  0  0
 17  1  2  0  0  0  0
 18 16  1  1  0  0  0
 19 11  1  0  0  0  0
 20  4  1  0  0  0  0
 22 21  1  0  0  0  0
 23 22  1  0  0  0  0
 24 25  2  0  0  0  0
 25 23  1  0  0  0  0
 26 25  1  0  0  0  0
M  END
>  <MODEL>
4

>  <REMARK>
 VINA RESULT:      -8.1      1.687      2.427
  Name = 
  4 active torsions:
  status: ('A' for Active; 'I' for Inactive)
    1  A    between atoms: C_1  and  N_7
    2  A    between atoms: C_1  and  C_10
    3  A    between atoms: N_7  and  C_8
    4  A    between atoms: C_8  and  C_16
                            x       y       z     vdW  Elec       q    Type
                         _______ _______ _______ _____ _____    ______ ____

>  <TORSDO>
F 4

$$$$
=
 OpenBabel10222418253D

 26 29  0  0  1  0  0  0  0  0999 V2000
  183.4780  178.4360  141.5320 C   0  0  0  0  0  0  0  0  0  0  0  0
  182.1300  178.8720  143.5300 C   0  0  0  0  0  3  0  0  0  0  0  0
  183.6220  178.1870  140.0640 C   0  0  0  0  0  2  0  0  0  0  0  0
  180.9790  177.9920  140.0600 N   0  0  0  0  0  2  0  0  0  0  0  0
  185.6160  178.8700  144.6910 C   0  0  2  0  0  3  0  0  0  0  0  0
  182.8870  176.9070  139.6440 C   0  0  1  0  0  3  0  0  0  0  0  0
  184.5360  178.6650  143.6800 C   0  0  0  0  0  0  0  0  0  0  0  0
  186.5050  178.0680  147.1880 N   0  0  0  0  0  2  0  0  0  0  0  0
  185.2220  178.6360  147.0950 N   0  0  0  0  0  0  0  0  0  0  0  0
  187.1270  177.5400  146.0370 N   0  0  0  0  0  0  0  0  0  0  0  0
  186.6600  177.7940  144.8480 C   0  0  0  0  0  0  0  0  0  0  0  0
  184.7660  178.9330  145.9210 C   0  0  0  0  0  0  0  0  0  0  0  0
  183.3080  178.8860  144.2720 C   0  0  0  0  0  0  0  0  0  0  0  0
  183.4170  179.0940  145.6370 O   0  0  0  0  0  0  0  0  0  0  0  0
  182.2030  178.6420  142.1430 C   0  0  0  0  0  0  0  0  0  0  0  0
  180.3670  180.0410  141.2130 C   0  0  0  0  0  1  0  0  0  0  0  0
  184.6490  178.4670  142.3070 C   0  0  0  0  0  3  0  0  0  0  0  0
  180.8930  178.6260  141.3770 C   0  0  1  0  0  3  0  0  0  0  0  0
  187.3650  177.2450  143.6580 C   0  0  0  0  0  1  0  0  0  0  0  0
  181.5910  176.7840  140.2020 O   0  0  0  0  0  0  0  0  0  0  0  0
  182.8480  176.7910  138.1270 C   0  0  0  0  0  2  0  0  0  0  0  0
  183.7100  177.7970  137.5320 N   0  0  0  0  0  2  0  0  0  0  0  0
  184.7500  177.0840  136.8130 C   0  0  0  0  0  2  0  0  0  0  0  0
  187.0940  176.5280  137.4440 O   0  0  0  0  0  0  0  0  0  0  0  0
  186.0830  177.4750  137.3430 C   0  0  0  0  0  0  0  0  0  0  0  0
  186.2830  178.6540  137.7330 O   0  0  0  0  0  1  0  0  0  0  0  0
  1 15  2  0  0  0  0
  1 17  1  0  0  0  0
  2 13  2  0  0  0  0
  3  1  1  0  0  0  0
  4 20  1  0  0  0  0
  4 18  1  0  0  0  0
  5  7  1  6  0  0  0
  5 11  1  0  0  0  0
  5 12  1  0  0  0  0
  6 21  1  6  0  0  0
  6  3  1  0  0  0  0
  6 20  1  0  0  0  0
  7 13  1  0  0  0  0
  9  8  1  0  0  0  0
 10  8  1  0  0  0  0
 11 10  2  0  0  0  0
 12  9  2  0  0  0  0
 13 14  1  0  0  0  0
 14 12  1  0  0  0  0
 15  2  1  0  0  0  0
 17  7  2  0  0  0  0
 18 16  1  6  0  0  0
 18 15  1  0  0  0  0
 19 11  1  0  0  0  0
 22 21  1  0  0  0  0
 23 25  1  0  0  0  0
 23 22  1  0  0  0  0
 25 24  2  0  0  0  0
 25 26  1  0  0  0  0
M  END
>  <MODEL>
5

>  <REMARK>
 VINA RESULT:      -8.0      3.522      6.497
  Name = 
  4 active torsions:
  status: ('A' for Active; 'I' for Inactive)
    1  A    between atoms: C_1  and  N_7
    2  A    between atoms: C_1  and  C_10
    3  A    between atoms: N_7  and  C_8
    4  A    between atoms: C_8  and  C_16
                            x       y       z     vdW  Elec       q    Type
                         _______ _______ _______ _____ _____    ______ ____

>  <TORSDO>
F 4

$$$$
=
 OpenBabel10222418253D

 26 29  0  0  1  0  0  0  0  0999 V2000
  186.9170  177.7030  143.1580 C   0  0  0  0  0  0  0  0  0  0  0  0
  189.1710  178.1830  142.3300 C   0  0  0  0  0  3  0  0  0  0  0  0
  185.4290  177.7010  143.0120 C   0  0  0  0  0  2  0  0  0  0  0  0
  185.8600  179.1580  140.8410 N   0  0  0  0  0  2  0  0  0  0  0  0
  189.6590  176.6030  145.6110 C   0  0  2  0  0  3  0  0  0  0  0  0
  184.8850  179.1280  142.8500 C   0  0  1  0  0  3  0  0  0  0  0  0
  188.8380  177.2050  144.5180 C   0  0  0  0  0  0  0  0  0  0  0  0
  191.7260  177.1170  147.3800 N   0  0  0  0  0  2  0  0  0  0  0  0
  191.9890  177.2400  146.0040 N   0  0  0  0  0  0  0  0  0  0  0  0
  190.3970  177.1570  147.8500 N   0  0  0  0  0  0  0  0  0  0  0  0
  189.3930  177.0440  147.0270 C   0  0  0  0  0  0  0  0  0  0  0  0
  191.0060  177.0860  145.1760 C   0  0  0  0  0  0  0  0  0  0  0  0
  189.6750  177.6720  143.5220 C   0  0  0  0  0  0  0  0  0  0  0  0
  191.0110  177.5760  143.8770 O   0  0  0  0  0  0  0  0  0  0  0  0
  187.7770  178.2070  142.1350 C   0  0  0  0  0  0  0  0  0  0  0  0
  187.5120  177.7940  139.6950 C   0  0  0  0  0  1  0  0  0  0  0  0
  187.4570  177.1840  144.3460 C   0  0  0  0  0  3  0  0  0  0  0  0
  187.2740  178.7820  140.8240 C   0  0  1  0  0  3  0  0  0  0  0  0
  188.0060  177.0570  147.5680 C   0  0  0  0  0  1  0  0  0  0  0  0
  185.6290  179.9210  141.9440 O   0  0  0  0  0  0  0  0  0  0  0  0
  183.4110  179.0950  142.4760 C   0  0  0  0  0  2  0  0  0  0  0  0
  182.6060  179.5460  143.5960 N   0  0  0  0  0  2  0  0  0  0  0  0
  181.5310  178.5840  143.7540 C   0  0  0  0  0  2  0  0  0  0  0  0
  180.1980  180.5310  142.9580 O   0  0  0  0  0  0  0  0  0  0  0  0
  180.2280  179.2360  143.4570 C   0  0  0  0  0  0  0  0  0  0  0  0
  179.1520  178.6280  143.6930 O   0  0  0  0  0  1  0  0  0  0  0  0
  1 17  1  0  0  0  0
  2 13  2  0  0  0  0
  3  1  1  0  0  0  0
  4 20  1  0  0  0  0
  5  7  1  6  0  0  0
  5 11  1  0  0  0  0
  6 21  1  6  0  0  0
  6  3  1  0  0  0  0
  8 10  1  0  0  0  0
  9  8  1  0  0  0  0
 11 19  1  0  0  0  0
 11 10  2  0  0  0  0
 12  5  1  0  0  0  0
 12  9  2  0  0  0  0
 13 14  1  0  0  0  0
 13  7  1  0  0  0  0
 14 12  1  0  0  0  0
 15  2  1  0  0  0  0
 15  1  2  0  0  0  0
 17  7  2  0  0  0  0
 18 16  1  6  0  0  0
 18  4  1  0  0  0  0
 18 15  1  0  0  0  0
 20  6  1  0  0  0  0
 21 22  1  0  0  0  0
 22 23  1  0  0  0  0
 24 25  2  0  0  0  0
 25 26  1  0  0  0  0
 25 23  1  0  0  0  0
M  END
>  <MODEL>
6

>  <REMARK>
 VINA RESULT:      -7.9      3.348      6.826
  Name = 
  4 active torsions:
  status: ('A' for Active; 'I' for Inactive)
    1  A    between atoms: C_1  and  N_7
    2  A    between atoms: C_1  and  C_10
    3  A    between atoms: N_7  and  C_8
    4  A    between atoms: C_8  and  C_16
                            x       y       z     vdW  Elec       q    Type
                         _______ _______ _______ _____ _____    ______ ____

>  <TORSDO>
F 4

$$$$
=
 OpenBabel10222418253D

 26 29  0  0  1  0  0  0  0  0999 V2000
  189.0810  177.8330  141.4860 C   0  0  0  0  0  0  0  0  0  0  0  0
  191.4760  177.3230  141.4620 C   0  0  0  0  0  3  0  0  0  0  0  0
  187.8170  178.2060  142.1930 C   0  0  0  0  0  2  0  0  0  0  0  0
  189.2080  177.8260  144.4170 N   0  0  0  0  0  2  0  0  0  0  0  0
  190.4050  177.1220  137.9530 C   0  0  2  0  0  3  0  0  0  0  0  0
  187.4340  177.1500  143.2400 C   0  0  1  0  0  3  0  0  0  0  0  0
  190.1760  177.2590  139.4220 C   0  0  0  0  0  0  0  0  0  0  0  0
  191.4680  175.4550  136.0140 N   0  0  0  0  0  2  0  0  0  0  0  0
  192.3230  175.9130  137.0320 N   0  0  0  0  0  0  0  0  0  0  0  0
  190.0700  175.4830  136.2020 N   0  0  0  0  0  0  0  0  0  0  0  0
  189.5400  176.1580  137.1830 C   0  0  0  0  0  0  0  0  0  0  0  0
  191.8140  176.6210  137.9890 C   0  0  0  0  0  0  0  0  0  0  0  0
  191.3800  177.1280  140.0870 C   0  0  0  0  0  0  0  0  0  0  0  0
  192.4120  176.7780  139.2320 O   0  0  0  0  0  0  0  0  0  0  0  0
  190.3190  177.6770  142.1820 C   0  0  0  0  0  0  0  0  0  0  0  0
  191.1700  179.1860  143.9680 C   0  0  0  0  0  1  0  0  0  0  0  0
  189.0190  177.6390  140.0970 C   0  0  0  0  0  3  0  0  0  0  0  0
  190.4710  177.8700  143.6790 C   0  0  1  0  0  3  0  0  0  0  0  0
  188.0590  176.1890  137.3270 C   0  0  0  0  0  1  0  0  0  0  0  0
  188.5210  176.7150  144.0350 O   0  0  0  0  0  0  0  0  0  0  0  0
  186.2850  177.6510  144.1020 C   0  0  0  0  0  2  0  0  0  0  0  0
  185.3130  178.3450  143.2760 N   0  0  0  0  0  2  0  0  0  0  0  0
  184.8160  179.4590  144.0620 C   0  0  0  0  0  2  0  0  0  0  0  0
  182.4850  178.6280  144.3430 O   0  0  0  0  0  0  0  0  0  0  0  0
  183.6910  179.0040  144.9210 C   0  0  0  0  0  0  0  0  0  0  0  0
  183.8180  178.9930  146.1720 O   0  0  0  0  0  1  0  0  0  0  0  0
  1 15  1  0  0  0  0
  1  3  1  0  0  0  0
  2 15  2  0  0  0  0
  3  6  1  0  0  0  0
  5 11  1  1  0  0  0
  5 12  1  0  0  0  0
  5  7  1  0  0  0  0
  6 20  1  0  0  0  0
  6 21  1  1  0  0  0
  7 13  2  0  0  0  0
  7 17  1  0  0  0  0
  8 10  1  0  0  0  0
  8  9  1  0  0  0  0
  9 12  2  0  0  0  0
 10 11  2  0  0  0  0
 11 19  1  0  0  0  0
 12 14  1  0  0  0  0
 13  2  1  0  0  0  0
 14 13  1  0  0  0  0
 15 18  1  0  0  0  0
 17  1  2  0  0  0  0
 18 16  1  6  0  0  0
 18  4  1  0  0  0  0
 20  4  1  0  0  0  0
 22 23  1  0  0  0  0
 22 21  1  0  0  0  0
 23 25  1  0  0  0  0
 24 25  2  0  0  0  0
 25 26  1  0  0  0  0
M  END
>  <MODEL>
7

>  <REMARK>
 VINA RESULT:      -7.6      2.368      7.369
  Name = 
  4 active torsions:
  status: ('A' for Active; 'I' for Inactive)
    1  A    between atoms: C_1  and  N_7
    2  A    between atoms: C_1  and  C_10
    3  A    between atoms: N_7  and  C_8
    4  A    between atoms: C_8  and  C_16
                            x       y       z     vdW  Elec       q    Type
                         _______ _______ _______ _____ _____    ______ ____

>  <TORSDO>
F 4

$$$$
=
 OpenBabel10222418253D

 26 29  0  0  1  0  0  0  0  0999 V2000
  188.5670  177.8770  141.5370 C   0  0  0  0  0  0  0  0  0  0  0  0
  190.5530  177.1180  140.3230 C   0  0  0  0  0  3  0  0  0  0  0  0
  187.7940  178.0990  142.7980 C   0  0  0  0  0  2  0  0  0  0  0  0
  189.7160  176.6950  143.9640 N   0  0  0  0  0  2  0  0  0  0  0  0
  188.2980  178.4610  137.7520 C   0  0  2  0  0  3  0  0  0  0  0  0
  187.5270  176.7730  143.5260 C   0  0  1  0  0  3  0  0  0  0  0  0
  188.6520  178.0330  139.1380 C   0  0  0  0  0  0  0  0  0  0  0  0
  188.0940  177.5770  135.1350 N   0  0  0  0  0  2  0  0  0  0  0  0
  189.3460  177.4810  135.7690 N   0  0  0  0  0  0  0  0  0  0  0  0
  186.9210  177.7070  135.9080 N   0  0  0  0  0  0  0  0  0  0  0  0
  186.9840  178.0000  137.1760 C   0  0  0  0  0  0  0  0  0  0  0  0
  189.4280  177.8110  137.0180 C   0  0  0  0  0  0  0  0  0  0  0  0
  189.9260  177.4970  139.1400 C   0  0  0  0  0  0  0  0  0  0  0  0
  190.4460  177.3860  137.8610 O   0  0  0  0  0  0  0  0  0  0  0  0
  189.8750  177.3020  141.5420 C   0  0  0  0  0  0  0  0  0  0  0  0
  191.6880  177.8590  143.1530 C   0  0  0  0  0  1  0  0  0  0  0  0
  187.9650  178.2590  140.3270 C   0  0  0  0  0  3  0  0  0  0  0  0
  190.5940  176.8660  142.8050 C   0  0  1  0  0  3  0  0  0  0  0  0
  185.7220  178.1600  137.9490 C   0  0  0  0  0  1  0  0  0  0  0  0
  188.6580  175.9230  143.5940 O   0  0  0  0  0  0  0  0  0  0  0  0
  186.9470  177.0330  144.9070 C   0  0  0  0  0  2  0  0  0  0  0  0
  186.8580  178.4630  145.1450 N   0  0  0  0  0  2  0  0  0  0  0  0
  185.6690  178.6800  145.9490 C   0  0  0  0  0  2  0  0  0  0  0  0
  184.8210  179.7230  143.8530 O   0  0  0  0  0  0  0  0  0  0  0  0
  184.5510  179.1290  145.0790 C   0  0  0  0  0  0  0  0  0  0  0  0
  183.3610  179.0030  145.4680 O   0  0  0  0  0  1  0  0  0  0  0  0
  1 15  1  0  0  0  0
  1  3  1  0  0  0  0
  2 15  2  0  0  0  0
  3  6  1  0  0  0  0
  5 12  1  6  0  0  0
  5  7  1  0  0  0  0
  6 20  1  0  0  0  0
  6 21  1  1  0  0  0
  7 13  2  0  0  0  0
  7 17  1  0  0  0  0
  8  9  1  0  0  0  0
  8 10  1  0  0  0  0
  9 12  2  0  0  0  0
 10 11  2  0  0  0  0
 11  5  1  0  0  0  0
 11 19  1  0  0  0  0
 12 14  1  0  0  0  0
 13  2  1  0  0  0  0
 14 13  1  0  0  0  0
 15 18  1  0  0  0  0
 17  1  2  0  0  0  0
 18 16  1  1  0  0  0
 18  4  1  0  0  0  0
 20  4  1  0  0  0  0
 21 22  1  0  0  0  0
 22 23  1  0  0  0  0
 24 25  2  0  0  0  0
 25 26  1  0  0  0  0
 25 23  1  0  0  0  0
M  END
>  <MODEL>
8

>  <REMARK>
 VINA RESULT:      -7.6      2.647      6.902
  Name = 
  4 active torsions:
  status: ('A' for Active; 'I' for Inactive)
    1  A    between atoms: C_1  and  N_7
    2  A    between atoms: C_1  and  C_10
    3  A    between atoms: N_7  and  C_8
    4  A    between atoms: C_8  and  C_16
                            x       y       z     vdW  Elec       q    Type
                         _______ _______ _______ _____ _____    ______ ____

>  <TORSDO>
F 4

$$$$
=
 OpenBabel10222418253D

 26 29  0  0  1  0  0  0  0  0999 V2000
  190.7610  177.1560  139.7970 C   0  0  0  0  0  0  0  0  0  0  0  0
  188.4130  177.7880  140.0900 C   0  0  0  0  0  3  0  0  0  0  0  0
  191.9280  176.7670  138.9460 C   0  0  0  0  0  2  0  0  0  0  0  0
  190.1560  176.5870  136.9830 N   0  0  0  0  0  2  0  0  0  0  0  0
  189.8710  177.8770  143.4620 C   0  0  2  0  0  3  0  0  0  0  0  0
  191.6540  175.4560  138.1940 C   0  0  1  0  0  3  0  0  0  0  0  0
  189.8880  177.5830  141.9980 C   0  0  0  0  0  0  0  0  0  0  0  0
  188.5480  177.3120  145.8280 N   0  0  0  0  0  2  0  0  0  0  0  0
  187.8060  177.8770  144.7750 N   0  0  0  0  0  0  0  0  0  0  0  0
  189.7770  176.6730  145.5600 N   0  0  0  0  0  0  0  0  0  0  0  0
  190.3680  176.8160  144.4080 C   0  0  0  0  0  0  0  0  0  0  0  0
  188.3970  178.0620  143.6390 C   0  0  0  0  0  0  0  0  0  0  0  0
  188.6470  177.8660  141.4600 C   0  0  0  0  0  0  0  0  0  0  0  0
  187.7220  178.2030  142.4340 O   0  0  0  0  0  0  0  0  0  0  0  0
  189.4730  177.4260  139.2380 C   0  0  0  0  0  0  0  0  0  0  0  0
  189.0470  178.7400  137.1690 C   0  0  0  0  0  1  0  0  0  0  0  0
  190.9670  177.2540  141.1820 C   0  0  0  0  0  3  0  0  0  0  0  0
  189.1690  177.3450  137.7540 C   0  0  1  0  0  3  0  0  0  0  0  0
  191.6800  176.1510  144.1770 C   0  0  0  0  0  1  0  0  0  0  0  0
  190.3680  175.3950  137.6060 O   0  0  0  0  0  0  0  0  0  0  0  0
  192.7450  175.1960  137.1670 C   0  0  0  0  0  2  0  0  0  0  0  0
  193.9890  175.8070  137.6010 N   0  0  0  0  0  2  0  0  0  0  0  0
  195.0180  174.7910  137.4790 C   0  0  0  0  0  2  0  0  0  0  0  0
  195.8170  175.2530  139.7920 O   0  0  0  0  0  1  0  0  0  0  0  0
  195.4280  174.3290  138.8310 C   0  0  0  0  0  0  0  0  0  0  0  0
  195.4590  173.0980  139.0930 O   0  0  0  0  0  0  0  0  0  0  0  0
  1 17  1  0  0  0  0
  2 13  2  0  0  0  0
  3  1  1  0  0  0  0
  4 20  1  0  0  0  0
  4 18  1  0  0  0  0
  5  7  1  6  0  0  0
  5 12  1  0  0  0  0
  5 11  1  0  0  0  0
  6 21  1  6  0  0  0
  6  3  1  0  0  0  0
  9  8  1  0  0  0  0
 10  8  1  0  0  0  0
 11 10  2  0  0  0  0
 12  9  2  0  0  0  0
 13  7  1  0  0  0  0
 13 14  1  0  0  0  0
 14 12  1  0  0  0  0
 15  1  2  0  0  0  0
 15  2  1  0  0  0  0
 17  7  2  0  0  0  0
 18 16  1  6  0  0  0
 18 15  1  0  0  0  0
 19 11  1  0  0  0  0
 20  6  1  0  0  0  0
 21 22  1  0  0  0  0
 23 22  1  0  0  0  0
 23 25  1  0  0  0  0
 25 26  2  0  0  0  0
 25 24  1  0  0  0  0
M  END
>  <MODEL>
9

>  <REMARK>
 VINA RESULT:      -7.5      3.182      5.681
  Name = 
  4 active torsions:
  status: ('A' for Active; 'I' for Inactive)
    1  A    between atoms: C_1  and  N_7
    2  A    between atoms: C_1  and  C_10
    3  A    between atoms: N_7  and  C_8
    4  A    between atoms: C_8  and  C_16
                            x       y       z     vdW  Elec       q    Type
                         _______ _______ _______ _____ _____    ______ ____

>  <TORSDO>
F 4

$$$$
