=
 OpenBabel10222415573D

 36 38  0  0  1  0  0  0  0  0999 V2000
  186.6860  178.2760  141.4010 O   0  0  0  0  0  0  0  0  0  0  0  0
  186.1220  177.9630  143.6810 C   0  0  0  0  0  0  0  0  0  0  0  0
  185.7900  178.3310  142.2860 C   0  0  0  0  0  0  0  0  0  0  0  0
  183.3880  178.4750  143.0360 C   0  0  1  0  0  3  0  0  0  0  0  0
  184.3980  178.8200  141.9190 C   0  0  2  0  0  3  0  0  0  0  0  0
  183.9410  178.8700  144.4050 C   0  0  0  0  0  2  0  0  0  0  0  0
  185.2430  178.1770  144.6630 C   0  0  0  0  0  3  0  0  0  0  0  0
  183.1700  179.2160  139.9230 C   0  0  0  0  0  2  0  0  0  0  0  0
  184.5620  179.0160  139.5610 C   0  0  1  0  0  3  0  0  0  0  0  0
  183.9730  178.2170  140.6530 N   0  0  1  0  0  0  0  0  0  0  0  0
  184.6470  178.1590  138.3170 C   0  0  0  0  0  2  0  0  0  0  0  0
  186.0780  178.1250  137.8210 C   0  0  0  0  0  2  0  0  0  0  0  0
  186.1980  177.1460  136.7580 N   0  0  0  0  0  2  0  0  0  0  0  0
  187.5160  176.5460  136.8890 C   0  0  0  0  0  2  0  0  0  0  0  0
  188.6070  177.6110  136.8300 C   0  0  2  0  0  3  0  0  0  0  0  0
  189.0300  177.7880  135.5110 O   0  0  0  0  0  1  0  0  0  0  0  0
  189.7970  177.2470  137.7070 C   0  0  0  0  0  2  0  0  0  0  0  0
  189.0940  179.1630  138.9600 O   0  0  0  0  0  1  0  0  0  0  0  0
  189.6940  177.9070  139.0740 C   0  0  0  0  0  2  0  0  0  0  0  0
  182.0640  179.1880  142.8130 C   0  0  0  0  0  2  0  0  0  0  0  0
  181.1390  178.8740  143.8940 N   0  0  0  0  0  2  0  0  0  0  0  0
  179.7880  178.4300  143.7120 C   0  0  0  0  0  0  0  0  0  0  0  0
  179.0270  178.3940  144.7130 O   0  0  0  0  0  0  0  0  0  0  0  0
  179.2660  178.0350  142.4350 N   0  0  0  0  0  2  0  0  0  0  0  0
  180.0670  177.7260  141.2600 C   0  0  0  0  0  2  0  0  0  0  0  0
  179.5660  178.4670  140.1160 N   0  0  0  0  0  1  0  0  0  0  0  0
  187.4310  177.3210  144.0100 C   0  0  0  0  0  2  0  0  0  0  0  0
  189.4370  177.4870  147.2240 C   0  0  0  0  0  0  0  0  0  0  0  0
  188.4790  177.9730  148.1220 C   0  0  0  0  0  3  0  0  0  0  0  0
  189.0930  177.2680  145.8850 C   0  0  0  0  0  3  0  0  0  0  0  0
  186.8400  178.0400  146.3390 C   0  0  0  0  0  3  0  0  0  0  0  0
  187.1820  178.2510  147.6780 C   0  0  0  0  0  3  0  0  0  0  0  0
  187.7950  177.5480  145.4400 C   0  0  0  0  0  0  0  0  0  0  0  0
  190.8110  177.1720  147.7000 C   0  0  0  0  0  2  0  0  0  0  0  0
  191.6450  176.7850  146.5750 N   0  0  0  0  0  2  0  0  0  0  0  0
  192.3730  175.5980  146.9810 C   0  0  0  0  0  1  0  0  0  0  0  0
  1  3  2  0  0  0  0
  2 27  1  0  0  0  0
  2  7  2  0  0  0  0
  3  2  1  0  0  0  0
  4 20  1  6  0  0  0
  4  6  1  0  0  0  0
  5  3  1  1  0  0  0
  5  4  1  0  0  0  0
  6  7  1  0  0  0  0
  9 11  1  6  0  0  0
  9  8  1  0  0  0  0
  9 10  1  0  0  0  0
 10  8  1  6  0  0  0
 10  5  1  0  0  0  0
 12 11  1  0  0  0  0
 13 14  1  0  0  0  0
 13 12  1  0  0  0  0
 15 16  1  6  0  0  0
 15 14  1  0  0  0  0
 15 17  1  0  0  0  0
 17 19  1  0  0  0  0
 18 19  1  0  0  0  0
 20 21  1  0  0  0  0
 22 21  1  0  0  0  0
 22 23  2  0  0  0  0
 24 22  1  0  0  0  0
 25 24  1  0  0  0  0
 26 25  1  0  0  0  0
 27 33  1  0  0  0  0
 28 34  1  0  0  0  0
 28 29  1  0  0  0  0
 30 28  2  0  0  0  0
 31 32  1  0  0  0  0
 32 29  2  0  0  0  0
 33 30  1  0  0  0  0
 33 31  2  0  0  0  0
 35 36  1  0  0  0  0
 35 34  1  0  0  0  0
M  END
>  <MODEL>
1

>  <REMARK>
 VINA RESULT:      -8.1      0.000      0.000
  Name = 
  15 active torsions:
  status: ('A' for Active; 'I' for Inactive)
    1  A    between atoms: N_1  and  C_24
    2  A    between atoms: N_1  and  C_29
    3  A    between atoms: C_3  and  C_20
    4  A    between atoms: C_4  and  C_24
    5  A    between atoms: C_4  and  C_27
    6  A    between atoms: N_5  and  C_7
    7  A    between atoms: C_6  and  C_32
    8  A    between atoms: C_7  and  C_23
    9  A    between atoms: N_10  and  C_32
   10  A    between atoms: C_14  and  C_27
   11  A    between atoms: C_16  and  C_29
   12  A    between atoms: C_16  and  C_33
   13  A    between atoms: C_20  and  C_35
   14  A    between atoms: N_22  and  C_31
   15  A    between atoms: C_25  and  N_34
                            x       y       z     vdW  Elec       q    Type
                         _______ _______ _______ _____ _____    ______ ____

>  <TORSDO>
F 15

$$$$
=
 OpenBabel10222415573D

 36 38  0  0  1  0  0  0  0  0999 V2000
  187.6380  177.9730  140.5250 O   0  0  0  0  0  0  0  0  0  0  0  0
  185.9600  178.5520  142.0940 C   0  0  0  0  0  0  0  0  0  0  0  0
  187.2860  178.0010  141.7350 C   0  0  0  0  0  0  0  0  0  0  0  0
  187.7550  177.8780  144.2080 C   0  0  1  0  0  3  0  0  0  0  0  0
  188.2050  177.4270  142.8000 C   0  0  2  0  0  3  0  0  0  0  0  0
  186.2510  177.6760  144.3840 C   0  0  0  0  0  2  0  0  0  0  0  0
  185.4950  178.4360  143.3400 C   0  0  0  0  0  3  0  0  0  0  0  0
  190.4820  176.7950  143.0580 C   0  0  0  0  0  2  0  0  0  0  0  0
  190.1950  176.8690  141.6370 C   0  0  1  0  0  3  0  0  0  0  0  0
  189.5860  177.8520  142.5540 N   0  0  1  0  0  0  0  0  0  0  0  0
  191.3540  177.5230  140.9160 C   0  0  0  0  0  2  0  0  0  0  0  0
  191.4130  177.0210  139.4890 C   0  0  0  0  0  2  0  0  0  0  0  0
  190.4530  175.9470  139.3150 N   0  0  0  0  0  2  0  0  0  0  0  0
  190.1430  175.8900  137.8950 C   0  0  0  0  0  2  0  0  0  0  0  0
  188.7670  176.4840  137.6140 C   0  0  2  0  0  3  0  0  0  0  0  0
  187.8550  175.4640  137.3350 O   0  0  0  0  0  1  0  0  0  0  0  0
  188.8050  177.4710  136.4550 C   0  0  0  0  0  2  0  0  0  0  0  0
  189.0380  179.3740  137.8900 O   0  0  0  0  0  1  0  0  0  0  0  0
  188.2550  178.8270  136.8710 C   0  0  0  0  0  2  0  0  0  0  0  0
  188.4890  177.1010  145.2900 C   0  0  0  0  0  2  0  0  0  0  0  0
  188.2140  177.6830  146.5970 N   0  0  0  0  0  2  0  0  0  0  0  0
  189.0630  177.5560  147.7450 C   0  0  0  0  0  0  0  0  0  0  0  0
  188.6200  177.9200  148.8640 O   0  0  0  0  0  0  0  0  0  0  0  0
  190.3940  177.0220  147.6710 N   0  0  0  0  0  2  0  0  0  0  0  0
  191.1600  176.8450  146.4470 C   0  0  0  0  0  2  0  0  0  0  0  0
  192.1840  175.8370  146.6500 N   0  0  0  0  0  1  0  0  0  0  0  0
  185.1320  179.2720  141.0780 C   0  0  0  0  0  2  0  0  0  0  0  0
  181.4680  178.3410  141.3830 C   0  0  0  0  0  0  0  0  0  0  0  0
  181.3750  177.2870  140.4660 C   0  0  0  0  0  3  0  0  0  0  0  0
  182.6950  178.9830  141.5880 C   0  0  0  0  0  3  0  0  0  0  0  0
  183.7270  177.5310  139.9430 C   0  0  0  0  0  3  0  0  0  0  0  0
  182.5040  176.8850  139.7450 C   0  0  0  0  0  3  0  0  0  0  0  0
  183.8250  178.5820  140.8650 C   0  0  0  0  0  0  0  0  0  0  0  0
  180.2730  178.7550  142.1660 C   0  0  0  0  0  2  0  0  0  0  0  0
  180.3770  180.1610  142.5180 N   0  0  0  0  0  2  0  0  0  0  0  0
  179.2640  180.8370  141.8780 C   0  0  0  0  0  1  0  0  0  0  0  0
  1  3  2  0  0  0  0
  2  7  2  0  0  0  0
  3  2  1  0  0  0  0
  4  6  1  0  0  0  0
  4 20  1  1  0  0  0
  5  3  1  6  0  0  0
  5  4  1  0  0  0  0
  7  6  1  0  0  0  0
  9 11  1  6  0  0  0
  9 10  1  0  0  0  0
  9  8  1  0  0  0  0
 10  5  1  0  0  0  0
 10  8  1  1  0  0  0
 12 11  1  0  0  0  0
 13 12  1  0  0  0  0
 14 13  1  0  0  0  0
 15 16  1  6  0  0  0
 15 14  1  0  0  0  0
 17 19  1  0  0  0  0
 17 15  1  0  0  0  0
 19 18  1  0  0  0  0
 20 21  1  0  0  0  0
 21 22  1  0  0  0  0
 22 23  2  0  0  0  0
 24 22  1  0  0  0  0
 25 26  1  0  0  0  0
 25 24  1  0  0  0  0
 27  2  1  0  0  0  0
 28 30  1  0  0  0  0
 28 34  1  0  0  0  0
 29 28  2  0  0  0  0
 31 33  1  0  0  0  0
 32 31  2  0  0  0  0
 32 29  1  0  0  0  0
 33 27  1  0  0  0  0
 33 30  2  0  0  0  0
 34 35  1  0  0  0  0
 36 35  1  0  0  0  0
M  END
>  <MODEL>
2

>  <REMARK>
 VINA RESULT:      -8.0      2.499      7.753
  Name = 
  15 active torsions:
  status: ('A' for Active; 'I' for Inactive)
    1  A    between atoms: N_1  and  C_24
    2  A    between atoms: N_1  and  C_29
    3  A    between atoms: C_3  and  C_20
    4  A    between atoms: C_4  and  C_24
    5  A    between atoms: C_4  and  C_27
    6  A    between atoms: N_5  and  C_7
    7  A    between atoms: C_6  and  C_32
    8  A    between atoms: C_7  and  C_23
    9  A    between atoms: N_10  and  C_32
   10  A    between atoms: C_14  and  C_27
   11  A    between atoms: C_16  and  C_29
   12  A    between atoms: C_16  and  C_33
   13  A    between atoms: C_20  and  C_35
   14  A    between atoms: N_22  and  C_31
   15  A    between atoms: C_25  and  N_34
                            x       y       z     vdW  Elec       q    Type
                         _______ _______ _______ _____ _____    ______ ____

>  <TORSDO>
F 15

$$$$
=
 OpenBabel10222415573D

 36 38  0  0  1  0  0  0  0  0999 V2000
  184.4630  178.0720  142.6680 O   0  0  0  0  0  0  0  0  0  0  0  0
  186.5940  177.9490  143.6980 C   0  0  0  0  0  0  0  0  0  0  0  0
  185.7140  178.0910  142.5150 C   0  0  0  0  0  0  0  0  0  0  0  0
  187.8020  178.5660  141.1860 C   0  0  1  0  0  3  0  0  0  0  0  0
  186.3010  178.2080  141.1180 C   0  0  2  0  0  3  0  0  0  0  0  0
  188.5260  177.6660  142.1860 C   0  0  0  0  0  2  0  0  0  0  0  0
  187.9110  177.7920  143.5450 C   0  0  0  0  0  3  0  0  0  0  0  0
  185.5590  178.8060  138.9410 C   0  0  0  0  0  2  0  0  0  0  0  0
  184.3870  178.5780  139.7670 C   0  0  1  0  0  3  0  0  0  0  0  0
  185.5750  179.2260  140.3540 N   0  0  1  0  0  0  0  0  0  0  0  0
  183.3440  179.6350  139.4760 C   0  0  0  0  0  2  0  0  0  0  0  0
  182.2390  179.0380  138.6290 C   0  0  0  0  0  2  0  0  0  0  0  0
  181.1100  178.7040  139.4750 N   0  0  0  0  0  2  0  0  0  0  0  0
  180.6790  179.9430  140.1060 C   0  0  0  0  0  2  0  0  0  0  0  0
  179.9350  179.6600  141.4070 C   0  0  2  0  0  3  0  0  0  0  0  0
  179.9760  180.7840  142.2350 O   0  0  0  0  0  1  0  0  0  0  0  0
  180.5180  178.4600  142.1400 C   0  0  0  0  0  2  0  0  0  0  0  0
  181.6110  178.5750  144.2680 O   0  0  0  0  0  1  0  0  0  0  0  0
  180.3610  178.6080  143.6460 C   0  0  0  0  0  2  0  0  0  0  0  0
  188.4600  178.4200  139.8230 C   0  0  0  0  0  2  0  0  0  0  0  0
  189.4820  177.3830  139.8690 N   0  0  0  0  0  2  0  0  0  0  0  0
  189.9970  176.6890  138.7250 C   0  0  0  0  0  0  0  0  0  0  0  0
  190.7180  175.6750  138.9110 O   0  0  0  0  0  0  0  0  0  0  0  0
  189.7150  177.0980  137.3780 N   0  0  0  0  0  2  0  0  0  0  0  0
  189.1720  178.3900  136.9890 C   0  0  0  0  0  2  0  0  0  0  0  0
  188.0640  178.2000  136.0700 N   0  0  0  0  0  1  0  0  0  0  0  0
  186.0290  178.0080  145.0810 C   0  0  0  0  0  2  0  0  0  0  0  0
  189.3520  177.2290  146.7340 C   0  0  0  0  0  0  0  0  0  0  0  0
  189.1360  177.7160  148.0290 C   0  0  0  0  0  3  0  0  0  0  0  0
  188.3360  177.3180  145.7750 C   0  0  0  0  0  3  0  0  0  0  0  0
  186.8990  178.3990  147.4000 C   0  0  0  0  0  3  0  0  0  0  0  0
  187.9100  178.3030  148.3600 C   0  0  0  0  0  3  0  0  0  0  0  0
  187.1090  177.9070  146.1060 C   0  0  0  0  0  0  0  0  0  0  0  0
  190.6480  176.5860  146.3870 C   0  0  0  0  0  2  0  0  0  0  0  0
  191.6540  176.9420  147.3740 N   0  0  0  0  0  2  0  0  0  0  0  0
  192.4110  175.7370  147.6540 C   0  0  0  0  0  1  0  0  0  0  0  0
  2 27  1  0  0  0  0
  3  1  2  0  0  0  0
  3  2  1  0  0  0  0
  4 20  1  6  0  0  0
  4  6  1  0  0  0  0
  5  4  1  0  0  0  0
  5  3  1  1  0  0  0
  6  7  1  0  0  0  0
  7  2  2  0  0  0  0
  8  9  1  0  0  0  0
  9 11  1  6  0  0  0
  9 10  1  0  0  0  0
 10  8  1  6  0  0  0
 10  5  1  0  0  0  0
 12 13  1  0  0  0  0
 12 11  1  0  0  0  0
 13 14  1  0  0  0  0
 14 15  1  0  0  0  0
 15 17  1  0  0  0  0
 15 16  1  1  0  0  0
 17 19  1  0  0  0  0
 19 18  1  0  0  0  0
 20 21  1  0  0  0  0
 22 23  2  0  0  0  0
 22 21  1  0  0  0  0
 24 22  1  0  0  0  0
 25 24  1  0  0  0  0
 26 25  1  0  0  0  0
 27 33  1  0  0  0  0
 28 29  1  0  0  0  0
 29 32  2  0  0  0  0
 30 33  1  0  0  0  0
 30 28  2  0  0  0  0
 31 32  1  0  0  0  0
 33 31  2  0  0  0  0
 34 28  1  0  0  0  0
 34 35  1  0  0  0  0
 35 36  1  0  0  0  0
M  END
>  <MODEL>
3

>  <REMARK>
 VINA RESULT:      -7.9      1.914      6.518
  Name = 
  15 active torsions:
  status: ('A' for Active; 'I' for Inactive)
    1  A    between atoms: N_1  and  C_24
    2  A    between atoms: N_1  and  C_29
    3  A    between atoms: C_3  and  C_20
    4  A    between atoms: C_4  and  C_24
    5  A    between atoms: C_4  and  C_27
    6  A    between atoms: N_5  and  C_7
    7  A    between atoms: C_6  and  C_32
    8  A    between atoms: C_7  and  C_23
    9  A    between atoms: N_10  and  C_32
   10  A    between atoms: C_14  and  C_27
   11  A    between atoms: C_16  and  C_29
   12  A    between atoms: C_16  and  C_33
   13  A    between atoms: C_20  and  C_35
   14  A    between atoms: N_22  and  C_31
   15  A    between atoms: C_25  and  N_34
                            x       y       z     vdW  Elec       q    Type
                         _______ _______ _______ _____ _____    ______ ____

>  <TORSDO>
F 15

$$$$
=
 OpenBabel10222415573D

 36 38  0  0  1  0  0  0  0  0999 V2000
  182.9350  179.0300  144.9110 O   0  0  0  0  0  0  0  0  0  0  0  0
  182.5980  178.8490  142.5720 C   0  0  0  0  0  0  0  0  0  0  0  0
  183.4600  178.8730  143.7760 C   0  0  0  0  0  0  0  0  0  0  0  0
  185.3660  178.2250  142.2580 C   0  0  1  0  0  3  0  0  0  0  0  0
  184.9710  178.7600  143.6530 C   0  0  2  0  0  3  0  0  0  0  0  0
  184.6190  178.9810  141.1600 C   0  0  0  0  0  2  0  0  0  0  0  0
  183.1400  178.8580  141.3530 C   0  0  0  0  0  3  0  0  0  0  0  0
  186.9460  178.1080  144.8040 C   0  0  0  0  0  2  0  0  0  0  0  0
  186.0510  178.7280  145.7640 C   0  0  1  0  0  3  0  0  0  0  0  0
  185.4940  177.8750  144.6980 N   0  0  1  0  0  0  0  0  0  0  0  0
  186.0710  177.9450  147.0590 C   0  0  0  0  0  2  0  0  0  0  0  0
  187.2380  178.4020  147.9100 C   0  0  0  0  0  2  0  0  0  0  0  0
  188.1420  177.2880  148.1270 N   0  0  0  0  0  2  0  0  0  0  0  0
  189.4910  177.8050  147.9510 C   0  0  0  0  0  2  0  0  0  0  0  0
  190.3430  176.8320  147.1420 C   0  0  2  0  0  3  0  0  0  0  0  0
  191.6720  176.8950  147.5660 O   0  0  0  0  0  1  0  0  0  0  0  0
  190.2660  177.1230  145.6490 C   0  0  0  0  0  2  0  0  0  0  0  0
  191.5670  178.4630  144.1500 O   0  0  0  0  0  1  0  0  0  0  0  0
  191.6430  177.4210  145.0760 C   0  0  0  0  0  2  0  0  0  0  0  0
  186.8620  178.3640  142.0250 C   0  0  0  0  0  2  0  0  0  0  0  0
  187.1290  178.5860  140.6110 N   0  0  0  0  0  2  0  0  0  0  0  0
  188.3970  178.3810  139.9750 C   0  0  0  0  0  0  0  0  0  0  0  0
  188.5570  178.8060  138.8010 O   0  0  0  0  0  0  0  0  0  0  0  0
  189.4940  177.7210  140.6240 N   0  0  0  0  0  2  0  0  0  0  0  0
  189.3910  176.9150  141.8310 C   0  0  0  0  0  2  0  0  0  0  0  0
  190.5190  176.0040  141.9100 N   0  0  0  0  0  1  0  0  0  0  0  0
  181.1090  178.7850  142.7010 C   0  0  0  0  0  2  0  0  0  0  0  0
  179.5640  177.2710  139.5860 C   0  0  0  0  0  0  0  0  0  0  0  0
  179.2440  178.4200  138.8520 C   0  0  0  0  0  3  0  0  0  0  0  0
  180.1780  177.3900  140.8390 C   0  0  0  0  0  3  0  0  0  0  0  0
  180.1340  179.8050  140.6280 C   0  0  0  0  0  3  0  0  0  0  0  0
  179.5280  179.6860  139.3740 C   0  0  0  0  0  3  0  0  0  0  0  0
  180.4610  178.6580  141.3630 C   0  0  0  0  0  0  0  0  0  0  0  0
  179.2810  175.9240  139.0220 C   0  0  0  0  0  2  0  0  0  0  0  0
  180.4320  175.0580  139.2170 N   0  0  0  0  0  2  0  0  0  0  0  0
  181.1830  175.0720  137.9750 C   0  0  0  0  0  1  0  0  0  0  0  0
  2 27  1  0  0  0  0
  2  3  1  0  0  0  0
  3  1  2  0  0  0  0
  4 20  1  6  0  0  0
  4  5  1  0  0  0  0
  5  3  1  6  0  0  0
  5 10  1  0  0  0  0
  6  7  1  0  0  0  0
  6  4  1  0  0  0  0
  7  2  2  0  0  0  0
  8  9  1  0  0  0  0
  9 11  1  1  0  0  0
 10  8  1  6  0  0  0
 10  9  1  0  0  0  0
 11 12  1  0  0  0  0
 12 13  1  0  0  0  0
 14 13  1  0  0  0  0
 15 16  1  1  0  0  0
 15 14  1  0  0  0  0
 17 15  1  0  0  0  0
 18 19  1  0  0  0  0
 19 17  1  0  0  0  0
 21 20  1  0  0  0  0
 22 21  1  0  0  0  0
 22 24  1  0  0  0  0
 23 22  2  0  0  0  0
 24 25  1  0  0  0  0
 25 26  1  0  0  0  0
 28 30  1  0  0  0  0
 29 32  1  0  0  0  0
 29 28  2  0  0  0  0
 30 33  2  0  0  0  0
 31 33  1  0  0  0  0
 32 31  2  0  0  0  0
 33 27  1  0  0  0  0
 34 35  1  0  0  0  0
 34 28  1  0  0  0  0
 36 35  1  0  0  0  0
M  END
>  <MODEL>
4

>  <REMARK>
 VINA RESULT:      -7.8      2.906      9.118
  Name = 
  15 active torsions:
  status: ('A' for Active; 'I' for Inactive)
    1  A    between atoms: N_1  and  C_24
    2  A    between atoms: N_1  and  C_29
    3  A    between atoms: C_3  and  C_20
    4  A    between atoms: C_4  and  C_24
    5  A    between atoms: C_4  and  C_27
    6  A    between atoms: N_5  and  C_7
    7  A    between atoms: C_6  and  C_32
    8  A    between atoms: C_7  and  C_23
    9  A    between atoms: N_10  and  C_32
   10  A    between atoms: C_14  and  C_27
   11  A    between atoms: C_16  and  C_29
   12  A    between atoms: C_16  and  C_33
   13  A    between atoms: C_20  and  C_35
   14  A    between atoms: N_22  and  C_31
   15  A    between atoms: C_25  and  N_34
                            x       y       z     vdW  Elec       q    Type
                         _______ _______ _______ _____ _____    ______ ____

>  <TORSDO>
F 15

$$$$
=
 OpenBabel10222415573D

 36 38  0  0  1  0  0  0  0  0999 V2000
  187.7450  178.0410  140.4130 O   0  0  0  0  0  0  0  0  0  0  0  0
  186.0730  178.6020  141.9950 C   0  0  0  0  0  0  0  0  0  0  0  0
  187.3960  178.0500  141.6240 C   0  0  0  0  0  0  0  0  0  0  0  0
  187.8680  177.8800  144.0940 C   0  0  1  0  0  3  0  0  0  0  0  0
  188.3130  177.4510  142.6780 C   0  0  2  0  0  3  0  0  0  0  0  0
  186.3630  177.6820  144.2690 C   0  0  0  0  0  2  0  0  0  0  0  0
  185.6090  178.4660  143.2400 C   0  0  0  0  0  3  0  0  0  0  0  0
  190.5880  176.8420  142.9980 C   0  0  0  0  0  2  0  0  0  0  0  0
  190.3240  176.8560  141.5700 C   0  0  1  0  0  3  0  0  0  0  0  0
  189.6960  177.8720  142.4360 N   0  0  1  0  0  0  0  0  0  0  0  0
  191.4920  177.4860  140.8420 C   0  0  0  0  0  2  0  0  0  0  0  0
  191.4890  177.0380  139.3960 C   0  0  0  0  0  2  0  0  0  0  0  0
  190.2190  176.4100  139.0870 N   0  0  0  0  0  2  0  0  0  0  0  0
  190.4110  175.6650  137.8520 C   0  0  0  0  0  2  0  0  0  0  0  0
  189.4390  176.1380  136.7760 C   0  0  2  0  0  3  0  0  0  0  0  0
  190.1350  176.7980  135.7610 O   0  0  0  0  0  1  0  0  0  0  0  0
  188.3700  177.0600  137.3480 C   0  0  0  0  0  2  0  0  0  0  0  0
  188.8980  179.3840  137.5800 O   0  0  0  0  0  1  0  0  0  0  0  0
  188.4120  178.4280  136.6850 C   0  0  0  0  0  2  0  0  0  0  0  0
  188.6000  177.0790  145.1600 C   0  0  0  0  0  2  0  0  0  0  0  0
  188.2270  177.5550  146.4860 N   0  0  0  0  0  2  0  0  0  0  0  0
  189.0410  177.4300  147.6590 C   0  0  0  0  0  0  0  0  0  0  0  0
  188.5270  177.6870  148.7780 O   0  0  0  0  0  0  0  0  0  0  0  0
  190.4150  177.0150  147.6110 N   0  0  0  0  0  2  0  0  0  0  0  0
  191.2380  176.9780  146.4120 C   0  0  0  0  0  2  0  0  0  0  0  0
  192.0810  175.7960  146.4320 N   0  0  0  0  0  1  0  0  0  0  0  0
  185.2470  179.3440  140.9940 C   0  0  0  0  0  2  0  0  0  0  0  0
  184.1610  177.3550  137.9540 C   0  0  0  0  0  0  0  0  0  0  0  0
  183.0770  176.6330  138.4700 C   0  0  0  0  0  3  0  0  0  0  0  0
  184.8640  178.2440  138.7750 C   0  0  0  0  0  3  0  0  0  0  0  0
  183.4120  177.6730  140.6320 C   0  0  0  0  0  3  0  0  0  0  0  0
  182.7050  176.7920  139.8090 C   0  0  0  0  0  3  0  0  0  0  0  0
  184.4930  178.4010  140.1160 C   0  0  0  0  0  0  0  0  0  0  0  0
  184.5430  177.2030  136.5240 C   0  0  0  0  0  2  0  0  0  0  0  0
  183.8610  176.0540  135.9520 N   0  0  0  0  0  2  0  0  0  0  0  0
  183.3120  176.4840  134.6790 C   0  0  0  0  0  1  0  0  0  0  0  0
  1  3  2  0  0  0  0
  2  7  2  0  0  0  0
  3  2  1  0  0  0  0
  4  6  1  0  0  0  0
  4 20  1  1  0  0  0
  5  3  1  6  0  0  0
  5  4  1  0  0  0  0
  7  6  1  0  0  0  0
  9 11  1  6  0  0  0
  9 10  1  0  0  0  0
  9  8  1  0  0  0  0
 10  5  1  0  0  0  0
 10  8  1  1  0  0  0
 12 11  1  0  0  0  0
 13 12  1  0  0  0  0
 14 13  1  0  0  0  0
 15 16  1  6  0  0  0
 15 17  1  0  0  0  0
 15 14  1  0  0  0  0
 19 17  1  0  0  0  0
 19 18  1  0  0  0  0
 20 21  1  0  0  0  0
 21 22  1  0  0  0  0
 22 23  2  0  0  0  0
 24 22  1  0  0  0  0
 25 26  1  0  0  0  0
 25 24  1  0  0  0  0
 27  2  1  0  0  0  0
 28 29  2  0  0  0  0
 28 30  1  0  0  0  0
 29 32  1  0  0  0  0
 30 33  2  0  0  0  0
 32 31  2  0  0  0  0
 33 31  1  0  0  0  0
 33 27  1  0  0  0  0
 34 28  1  0  0  0  0
 35 34  1  0  0  0  0
 36 35  1  0  0  0  0
M  END
>  <MODEL>
5

>  <REMARK>
 VINA RESULT:      -7.7      3.295      7.881
  Name = 
  15 active torsions:
  status: ('A' for Active; 'I' for Inactive)
    1  A    between atoms: N_1  and  C_24
    2  A    between atoms: N_1  and  C_29
    3  A    between atoms: C_3  and  C_20
    4  A    between atoms: C_4  and  C_24
    5  A    between atoms: C_4  and  C_27
    6  A    between atoms: N_5  and  C_7
    7  A    between atoms: C_6  and  C_32
    8  A    between atoms: C_7  and  C_23
    9  A    between atoms: N_10  and  C_32
   10  A    between atoms: C_14  and  C_27
   11  A    between atoms: C_16  and  C_29
   12  A    between atoms: C_16  and  C_33
   13  A    between atoms: C_20  and  C_35
   14  A    between atoms: N_22  and  C_31
   15  A    between atoms: C_25  and  N_34
                            x       y       z     vdW  Elec       q    Type
                         _______ _______ _______ _____ _____    ______ ____

>  <TORSDO>
F 15

$$$$
=
 OpenBabel10222415573D

 36 38  0  0  1  0  0  0  0  0999 V2000
  184.2470  178.3330  142.8440 O   0  0  0  0  0  0  0  0  0  0  0  0
  186.4170  178.0480  143.7540 C   0  0  0  0  0  0  0  0  0  0  0  0
  185.4830  178.2370  142.6190 C   0  0  0  0  0  0  0  0  0  0  0  0
  187.5220  178.4920  141.1590 C   0  0  1  0  0  3  0  0  0  0  0  0
  185.9930  178.2670  141.1880 C   0  0  2  0  0  3  0  0  0  0  0  0
  188.2240  177.5580  142.1430 C   0  0  0  0  0  2  0  0  0  0  0  0
  187.7030  177.7720  143.5300 C   0  0  0  0  0  3  0  0  0  0  0  0
  185.3610  178.9660  139.0060 C   0  0  0  0  0  2  0  0  0  0  0  0
  184.1490  178.7150  139.7660 C   0  0  1  0  0  3  0  0  0  0  0  0
  185.3140  179.3250  140.4360 N   0  0  1  0  0  0  0  0  0  0  0  0
  183.1310  179.7960  139.4720 C   0  0  0  0  0  2  0  0  0  0  0  0
  181.7410  179.2800  139.7780 C   0  0  0  0  0  2  0  0  0  0  0  0
  180.7610  180.2860  139.4160 N   0  0  0  0  0  2  0  0  0  0  0  0
  181.4850  181.3440  138.7270 C   0  0  0  0  0  2  0  0  0  0  0  0
  180.6660  181.8930  137.5630 C   0  0  2  0  0  3  0  0  0  0  0  0
  180.8450  181.0920  136.4330 O   0  0  0  0  0  1  0  0  0  0  0  0
  181.0450  183.3320  137.2380 C   0  0  0  0  0  2  0  0  0  0  0  0
  181.0430  185.0030  135.5230 O   0  0  0  0  0  1  0  0  0  0  0  0
  180.6470  183.6970  135.8170 C   0  0  0  0  0  2  0  0  0  0  0  0
  188.0810  178.2540  139.7650 C   0  0  0  0  0  2  0  0  0  0  0  0
  189.3910  177.6220  139.8540 N   0  0  0  0  0  2  0  0  0  0  0  0
  189.8800  176.6220  138.9510 C   0  0  0  0  0  0  0  0  0  0  0  0
  190.9340  176.0040  139.2520 O   0  0  0  0  0  0  0  0  0  0  0  0
  189.2130  176.2900  137.7240 N   0  0  0  0  0  2  0  0  0  0  0  0
  188.1830  177.0950  137.0850 C   0  0  0  0  0  2  0  0  0  0  0  0
  186.9810  176.3010  136.9040 N   0  0  0  0  0  1  0  0  0  0  0  0
  185.9430  178.1930  145.1640 C   0  0  0  0  0  2  0  0  0  0  0  0
  189.3480  177.3080  146.5800 C   0  0  0  0  0  0  0  0  0  0  0  0
  189.1580  177.5780  147.9410 C   0  0  0  0  0  3  0  0  0  0  0  0
  188.2970  177.5020  145.6760 C   0  0  0  0  0  3  0  0  0  0  0  0
  186.8760  178.2550  147.4910 C   0  0  0  0  0  3  0  0  0  0  0  0
  187.9240  178.0530  148.3950 C   0  0  0  0  0  3  0  0  0  0  0  0
  187.0610  177.9790  146.1300 C   0  0  0  0  0  0  0  0  0  0  0  0
  190.6540  176.7830  146.1000 C   0  0  0  0  0  2  0  0  0  0  0  0
  191.6580  176.9360  147.1400 N   0  0  0  0  0  2  0  0  0  0  0  0
  192.2520  175.6280  147.3450 C   0  0  0  0  0  1  0  0  0  0  0  0
  2 27  1  0  0  0  0
  3  1  2  0  0  0  0
  3  2  1  0  0  0  0
  4 20  1  6  0  0  0
  4  5  1  0  0  0  0
  4  6  1  0  0  0  0
  5  3  1  1  0  0  0
  6  7  1  0  0  0  0
  7  2  2  0  0  0  0
  8  9  1  0  0  0  0
  9 11  1  6  0  0  0
  9 10  1  0  0  0  0
 10  8  1  6  0  0  0
 10  5  1  0  0  0  0
 11 12  1  0  0  0  0
 13 12  1  0  0  0  0
 14 13  1  0  0  0  0
 15 16  1  6  0  0  0
 15 14  1  0  0  0  0
 17 15  1  0  0  0  0
 18 19  1  0  0  0  0
 19 17  1  0  0  0  0
 20 21  1  0  0  0  0
 22 23  2  0  0  0  0
 22 21  1  0  0  0  0
 24 22  1  0  0  0  0
 25 24  1  0  0  0  0
 26 25  1  0  0  0  0
 27 33  1  0  0  0  0
 28 29  1  0  0  0  0
 29 32  2  0  0  0  0
 30 33  1  0  0  0  0
 30 28  2  0  0  0  0
 31 32  1  0  0  0  0
 33 31  2  0  0  0  0
 34 28  1  0  0  0  0
 34 35  1  0  0  0  0
 35 36  1  0  0  0  0
M  END
>  <MODEL>
6

>  <REMARK>
 VINA RESULT:      -7.6      3.184      6.354
  Name = 
  15 active torsions:
  status: ('A' for Active; 'I' for Inactive)
    1  A    between atoms: N_1  and  C_24
    2  A    between atoms: N_1  and  C_29
    3  A    between atoms: C_3  and  C_20
    4  A    between atoms: C_4  and  C_24
    5  A    between atoms: C_4  and  C_27
    6  A    between atoms: N_5  and  C_7
    7  A    between atoms: C_6  and  C_32
    8  A    between atoms: C_7  and  C_23
    9  A    between atoms: N_10  and  C_32
   10  A    between atoms: C_14  and  C_27
   11  A    between atoms: C_16  and  C_29
   12  A    between atoms: C_16  and  C_33
   13  A    between atoms: C_20  and  C_35
   14  A    between atoms: N_22  and  C_31
   15  A    between atoms: C_25  and  N_34
                            x       y       z     vdW  Elec       q    Type
                         _______ _______ _______ _____ _____    ______ ____

>  <TORSDO>
F 15

$$$$
=
 OpenBabel10222415573D

 36 38  0  0  1  0  0  0  0  0999 V2000
  184.2450  178.2650  143.1160 O   0  0  0  0  0  0  0  0  0  0  0  0
  186.4290  177.9580  143.9810 C   0  0  0  0  0  0  0  0  0  0  0  0
  185.4770  178.1720  142.8670 C   0  0  0  0  0  0  0  0  0  0  0  0
  187.4900  178.4550  141.3780 C   0  0  1  0  0  3  0  0  0  0  0  0
  185.9620  178.2310  141.4290 C   0  0  2  0  0  3  0  0  0  0  0  0
  188.2070  177.4990  142.3300 C   0  0  0  0  0  2  0  0  0  0  0  0
  187.7110  177.6850  143.7300 C   0  0  0  0  0  3  0  0  0  0  0  0
  185.3400  179.0040  139.2690 C   0  0  0  0  0  2  0  0  0  0  0  0
  184.1250  178.7030  140.0050 C   0  0  1  0  0  3  0  0  0  0  0  0
  185.2720  179.3060  140.7100 N   0  0  1  0  0  0  0  0  0  0  0  0
  183.0910  179.7760  139.7430 C   0  0  0  0  0  2  0  0  0  0  0  0
  181.7200  179.2650  140.1320 C   0  0  0  0  0  2  0  0  0  0  0  0
  181.8370  177.9160  140.6510 N   0  0  0  0  0  2  0  0  0  0  0  0
  180.5560  177.2660  140.4160 C   0  0  0  0  0  2  0  0  0  0  0  0
  180.7360  175.9890  139.6010 C   0  0  2  0  0  3  0  0  0  0  0  0
  180.0500  174.9350  140.2070 O   0  0  0  0  0  1  0  0  0  0  0  0
  182.2060  175.6240  139.4440 C   0  0  0  0  0  2  0  0  0  0  0  0
  182.9500  176.6750  137.4250 O   0  0  0  0  0  1  0  0  0  0  0  0
  182.5750  175.4500  137.9790 C   0  0  0  0  0  2  0  0  0  0  0  0
  188.0250  178.2450  139.9700 C   0  0  0  0  0  2  0  0  0  0  0  0
  189.4080  177.7910  140.0240 N   0  0  0  0  0  2  0  0  0  0  0  0
  190.1650  177.3370  138.8940 C   0  0  0  0  0  0  0  0  0  0  0  0
  191.2720  176.7750  139.0990 O   0  0  0  0  0  0  0  0  0  0  0  0
  189.7080  177.4880  137.5420 N   0  0  0  0  0  2  0  0  0  0  0  0
  188.6300  178.3650  137.1140 C   0  0  0  0  0  2  0  0  0  0  0  0
  189.0530  179.7500  137.2180 N   0  0  0  0  0  1  0  0  0  0  0  0
  185.9800  178.0730  145.4030 C   0  0  0  0  0  2  0  0  0  0  0  0
  189.4440  177.3490  146.7660 C   0  0  0  0  0  0  0  0  0  0  0  0
  189.3020  177.7450  148.1010 C   0  0  0  0  0  3  0  0  0  0  0  0
  188.3580  177.4490  145.8880 C   0  0  0  0  0  3  0  0  0  0  0  0
  186.9990  178.3620  147.6760 C   0  0  0  0  0  3  0  0  0  0  0  0
  188.0810  178.2540  148.5540 C   0  0  0  0  0  3  0  0  0  0  0  0
  187.1350  177.9600  146.3410 C   0  0  0  0  0  0  0  0  0  0  0  0
  190.7360  176.7880  146.2890 C   0  0  0  0  0  2  0  0  0  0  0  0
  191.1260  177.4370  145.0480 N   0  0  0  0  0  2  0  0  0  0  0  0
  191.4250  176.3810  144.0990 C   0  0  0  0  0  1  0  0  0  0  0  0
  2 27  1  0  0  0  0
  3  1  2  0  0  0  0
  3  2  1  0  0  0  0
  4 20  1  6  0  0  0
  4  5  1  0  0  0  0
  4  6  1  0  0  0  0
  5  3  1  1  0  0  0
  6  7  1  0  0  0  0
  7  2  2  0  0  0  0
  8  9  1  0  0  0  0
  9 11  1  6  0  0  0
  9 10  1  0  0  0  0
 10  8  1  6  0  0  0
 10  5  1  0  0  0  0
 11 12  1  0  0  0  0
 12 13  1  0  0  0  0
 14 13  1  0  0  0  0
 15 16  1  1  0  0  0
 15 14  1  0  0  0  0
 17 15  1  0  0  0  0
 18 19  1  0  0  0  0
 19 17  1  0  0  0  0
 20 21  1  0  0  0  0
 22 23  2  0  0  0  0
 22 21  1  0  0  0  0
 24 22  1  0  0  0  0
 25 26  1  0  0  0  0
 25 24  1  0  0  0  0
 27 33  1  0  0  0  0
 28 29  1  0  0  0  0
 29 32  2  0  0  0  0
 30 33  1  0  0  0  0
 30 28  2  0  0  0  0
 31 32  1  0  0  0  0
 33 31  2  0  0  0  0
 34 28  1  0  0  0  0
 35 34  1  0  0  0  0
 36 35  1  0  0  0  0
M  END
>  <MODEL>
7

>  <REMARK>
 VINA RESULT:      -7.6      2.408      6.118
  Name = 
  15 active torsions:
  status: ('A' for Active; 'I' for Inactive)
    1  A    between atoms: N_1  and  C_24
    2  A    between atoms: N_1  and  C_29
    3  A    between atoms: C_3  and  C_20
    4  A    between atoms: C_4  and  C_24
    5  A    between atoms: C_4  and  C_27
    6  A    between atoms: N_5  and  C_7
    7  A    between atoms: C_6  and  C_32
    8  A    between atoms: C_7  and  C_23
    9  A    between atoms: N_10  and  C_32
   10  A    between atoms: C_14  and  C_27
   11  A    between atoms: C_16  and  C_29
   12  A    between atoms: C_16  and  C_33
   13  A    between atoms: C_20  and  C_35
   14  A    between atoms: N_22  and  C_31
   15  A    between atoms: C_25  and  N_34
                            x       y       z     vdW  Elec       q    Type
                         _______ _______ _______ _____ _____    ______ ____

>  <TORSDO>
F 15

$$$$
=
 OpenBabel10222415573D

 36 38  0  0  1  0  0  0  0  0999 V2000
  187.9740  177.8690  143.1900 O   0  0  0  0  0  0  0  0  0  0  0  0
  187.4190  178.3730  140.9420 C   0  0  0  0  0  0  0  0  0  0  0  0
  187.0680  178.1670  142.3660 C   0  0  0  0  0  0  0  0  0  0  0  0
  184.7540  178.9710  141.7730 C   0  0  1  0  0  3  0  0  0  0  0  0
  185.6250  178.2620  142.8340 C   0  0  2  0  0  3  0  0  0  0  0  0
  185.0130  178.3880  140.3850 C   0  0  0  0  0  2  0  0  0  0  0  0
  186.4610  178.5170  140.0240 C   0  0  0  0  0  3  0  0  0  0  0  0
  184.4060  178.4610  144.8640 C   0  0  0  0  0  2  0  0  0  0  0  0
  185.7440  177.9990  145.1880 C   0  0  1  0  0  3  0  0  0  0  0  0
  185.5570  178.9850  144.1060 N   0  0  1  0  0  0  0  0  0  0  0  0
  186.2460  178.7150  146.4230 C   0  0  0  0  0  2  0  0  0  0  0  0
  187.1290  177.7830  147.2260 C   0  0  0  0  0  2  0  0  0  0  0  0
  188.3690  177.5560  146.5100 N   0  0  0  0  0  2  0  0  0  0  0  0
  189.3520  177.1390  147.4990 C   0  0  0  0  0  2  0  0  0  0  0  0
  190.6420  176.6840  146.8240 C   0  0  2  0  0  3  0  0  0  0  0  0
  191.7410  177.0330  147.6120 O   0  0  0  0  0  1  0  0  0  0  0  0
  190.7940  177.2870  145.4340 C   0  0  0  0  0  2  0  0  0  0  0  0
  190.7820  176.0970  143.3560 O   0  0  0  0  0  1  0  0  0  0  0  0
  191.5380  176.3410  144.5040 C   0  0  0  0  0  2  0  0  0  0  0  0
  183.2760  178.8320  142.1000 C   0  0  0  0  0  2  0  0  0  0  0  0
  182.5770  178.1930  140.9930 N   0  0  0  0  0  2  0  0  0  0  0  0
  181.1610  177.9800  140.9330 C   0  0  0  0  0  0  0  0  0  0  0  0
  180.7030  177.2340  140.0290 O   0  0  0  0  0  0  0  0  0  0  0  0
  180.2460  178.5740  141.8660 N   0  0  0  0  0  2  0  0  0  0  0  0
  180.5580  179.6780  142.7590 C   0  0  0  0  0  2  0  0  0  0  0  0
  179.7380  180.8290  142.4220 N   0  0  0  0  0  1  0  0  0  0  0  0
  188.8490  178.4520  140.5120 C   0  0  0  0  0  2  0  0  0  0  0  0
  189.3780  176.2490  137.4710 C   0  0  0  0  0  0  0  0  0  0  0  0
  189.3060  177.1880  136.4360 C   0  0  0  0  0  3  0  0  0  0  0  0
  189.2350  176.6620  138.8010 C   0  0  0  0  0  3  0  0  0  0  0  0
  188.9310  178.9490  138.0560 C   0  0  0  0  0  3  0  0  0  0  0  0
  189.0810  178.5370  136.7280 C   0  0  0  0  0  3  0  0  0  0  0  0
  189.0080  178.0130  139.0950 C   0  0  0  0  0  0  0  0  0  0  0  0
  189.6390  174.8170  137.1620 C   0  0  0  0  0  2  0  0  0  0  0  0
  190.8160  174.3650  137.8830 N   0  0  0  0  0  2  0  0  0  0  0  0
  191.9040  174.3200  136.9240 C   0  0  0  0  0  1  0  0  0  0  0  0
  2  3  1  0  0  0  0
  3  1  2  0  0  0  0
  4 20  1  1  0  0  0
  4  5  1  0  0  0  0
  5  3  1  6  0  0  0
  5 10  1  0  0  0  0
  6  4  1  0  0  0  0
  7  6  1  0  0  0  0
  7  2  2  0  0  0  0
  8  9  1  0  0  0  0
  9 11  1  1  0  0  0
 10  8  1  1  0  0  0
 10  9  1  0  0  0  0
 11 12  1  0  0  0  0
 13 12  1  0  0  0  0
 13 14  1  0  0  0  0
 15 14  1  0  0  0  0
 15 16  1  1  0  0  0
 17 15  1  0  0  0  0
 18 19  1  0  0  0  0
 19 17  1  0  0  0  0
 21 20  1  0  0  0  0
 22 21  1  0  0  0  0
 22 24  1  0  0  0  0
 23 22  2  0  0  0  0
 24 25  1  0  0  0  0
 26 25  1  0  0  0  0
 27  2  1  0  0  0  0
 28 30  1  0  0  0  0
 29 32  1  0  0  0  0
 29 28  2  0  0  0  0
 30 33  2  0  0  0  0
 31 33  1  0  0  0  0
 32 31  2  0  0  0  0
 33 27  1  0  0  0  0
 34 28  1  0  0  0  0
 34 35  1  0  0  0  0
 36 35  1  0  0  0  0
M  END
>  <MODEL>
8

>  <REMARK>
 VINA RESULT:      -7.5      2.648      7.092
  Name = 
  15 active torsions:
  status: ('A' for Active; 'I' for Inactive)
    1  A    between atoms: N_1  and  C_24
    2  A    between atoms: N_1  and  C_29
    3  A    between atoms: C_3  and  C_20
    4  A    between atoms: C_4  and  C_24
    5  A    between atoms: C_4  and  C_27
    6  A    between atoms: N_5  and  C_7
    7  A    between atoms: C_6  and  C_32
    8  A    between atoms: C_7  and  C_23
    9  A    between atoms: N_10  and  C_32
   10  A    between atoms: C_14  and  C_27
   11  A    between atoms: C_16  and  C_29
   12  A    between atoms: C_16  and  C_33
   13  A    between atoms: C_20  and  C_35
   14  A    between atoms: N_22  and  C_31
   15  A    between atoms: C_25  and  N_34
                            x       y       z     vdW  Elec       q    Type
                         _______ _______ _______ _____ _____    ______ ____

>  <TORSDO>
F 15

$$$$
=
 OpenBabel10222415573D

 36 38  0  0  1  0  0  0  0  0999 V2000
  185.6970  178.9080  141.4730 O   0  0  0  0  0  0  0  0  0  0  0  0
  185.1530  179.0020  143.7770 C   0  0  0  0  0  0  0  0  0  0  0  0
  186.0210  178.5930  142.6500 C   0  0  0  0  0  0  0  0  0  0  0  0
  187.6680  177.7950  144.3830 C   0  0  1  0  0  3  0  0  0  0  0  0
  187.2690  177.7600  142.8900 C   0  0  2  0  0  3  0  0  0  0  0  0
  186.4540  177.5270  145.2710 C   0  0  0  0  0  2  0  0  0  0  0  0
  185.3800  178.5360  145.0070 C   0  0  0  0  0  3  0  0  0  0  0  0
  189.3060  177.1410  141.8330 C   0  0  0  0  0  2  0  0  0  0  0  0
  188.3540  177.5010  140.7970 C   0  0  1  0  0  3  0  0  0  0  0  0
  188.3720  178.2580  142.0640 N   0  0  1  0  0  0  0  0  0  0  0  0
  189.0490  178.3170  139.7280 C   0  0  0  0  0  2  0  0  0  0  0  0
  188.7890  177.6980  138.3700 C   0  0  0  0  0  2  0  0  0  0  0  0
  189.4130  176.3900  138.3080 N   0  0  0  0  0  2  0  0  0  0  0  0
  190.4120  176.4540  137.2530 C   0  0  0  0  0  2  0  0  0  0  0  0
  191.1750  175.1370  137.1460 C   0  0  2  0  0  3  0  0  0  0  0  0
  190.3670  174.0820  137.5740 O   0  0  0  0  0  1  0  0  0  0  0  0
  192.4600  175.1640  137.9620 C   0  0  0  0  0  2  0  0  0  0  0  0
  193.9470  176.7330  136.9310 O   0  0  0  0  0  1  0  0  0  0  0  0
  193.0600  176.5610  137.9960 C   0  0  0  0  0  2  0  0  0  0  0  0
  188.7400  176.7590  144.6850 C   0  0  0  0  0  2  0  0  0  0  0  0
  189.1860  176.8890  146.0650 N   0  0  0  0  0  2  0  0  0  0  0  0
  190.5570  176.9150  146.4840 C   0  0  0  0  0  0  0  0  0  0  0  0
  190.8130  176.8190  147.7120 O   0  0  0  0  0  0  0  0  0  0  0  0
  191.6490  177.0340  145.5590 N   0  0  0  0  0  2  0  0  0  0  0  0
  191.5300  177.4550  144.1720 C   0  0  0  0  0  2  0  0  0  0  0  0
  191.5960  178.9030  144.0900 N   0  0  0  0  0  1  0  0  0  0  0  0
  184.0270  179.9620  143.5640 C   0  0  0  0  0  2  0  0  0  0  0  0
  181.2770  178.2150  141.6240 C   0  0  0  0  0  0  0  0  0  0  0  0
  180.3810  177.8880  142.6490 C   0  0  0  0  0  3  0  0  0  0  0  0
  182.4630  178.8970  141.9210 C   0  0  0  0  0  3  0  0  0  0  0  0
  181.8640  178.9070  144.2710 C   0  0  0  0  0  3  0  0  0  0  0  0
  180.6770  178.2330  143.9720 C   0  0  0  0  0  3  0  0  0  0  0  0
  182.7590  179.2410  143.2460 C   0  0  0  0  0  0  0  0  0  0  0  0
  180.9540  177.8670  140.2140 C   0  0  0  0  0  2  0  0  0  0  0  0
  181.8400  178.5860  139.3140 N   0  0  0  0  0  2  0  0  0  0  0  0
  181.0230  179.5530  138.6050 C   0  0  0  0  0  1  0  0  0  0  0  0
  1  3  2  0  0  0  0
  2  7  2  0  0  0  0
  3  2  1  0  0  0  0
  4 20  1  6  0  0  0
  4  6  1  0  0  0  0
  5  3  1  1  0  0  0
  5  4  1  0  0  0  0
  7  6  1  0  0  0  0
  9 11  1  6  0  0  0
  9  8  1  0  0  0  0
  9 10  1  0  0  0  0
 10  8  1  1  0  0  0
 10  5  1  0  0  0  0
 12 11  1  0  0  0  0
 13 12  1  0  0  0  0
 14 13  1  0  0  0  0
 15 14  1  0  0  0  0
 15 16  1  1  0  0  0
 15 17  1  0  0  0  0
 17 19  1  0  0  0  0
 18 19  1  0  0  0  0
 20 21  1  0  0  0  0
 21 22  1  0  0  0  0
 22 23  2  0  0  0  0
 24 22  1  0  0  0  0
 25 24  1  0  0  0  0
 26 25  1  0  0  0  0
 27  2  1  0  0  0  0
 28 30  2  0  0  0  0
 28 29  1  0  0  0  0
 29 32  2  0  0  0  0
 30 33  1  0  0  0  0
 32 31  1  0  0  0  0
 33 27  1  0  0  0  0
 33 31  2  0  0  0  0
 34 28  1  0  0  0  0
 35 34  1  0  0  0  0
 36 35  1  0  0  0  0
M  END
>  <MODEL>
9

>  <REMARK>
 VINA RESULT:      -7.5      2.628      7.555
  Name = 
  15 active torsions:
  status: ('A' for Active; 'I' for Inactive)
    1  A    between atoms: N_1  and  C_24
    2  A    between atoms: N_1  and  C_29
    3  A    between atoms: C_3  and  C_20
    4  A    between atoms: C_4  and  C_24
    5  A    between atoms: C_4  and  C_27
    6  A    between atoms: N_5  and  C_7
    7  A    between atoms: C_6  and  C_32
    8  A    between atoms: C_7  and  C_23
    9  A    between atoms: N_10  and  C_32
   10  A    between atoms: C_14  and  C_27
   11  A    between atoms: C_16  and  C_29
   12  A    between atoms: C_16  and  C_33
   13  A    between atoms: C_20  and  C_35
   14  A    between atoms: N_22  and  C_31
   15  A    between atoms: C_25  and  N_34
                            x       y       z     vdW  Elec       q    Type
                         _______ _______ _______ _____ _____    ______ ____

>  <TORSDO>
F 15

$$$$
