=
 OpenBabel10222419013D

 38 41  0  0  1  0  0  0  0  0999 V2000
  188.6190  178.3230  137.8620 C   0  0  2  0  0  3  0  0  0  0  0  0
  193.5050  172.2260  135.8510 N   0  0  0  0  0  1  0  0  0  0  0  0
  190.7900  177.0980  138.0700 C   0  0  1  0  0  3  0  0  0  0  0  0
  191.7300  177.3450  140.4050 C   0  0  1  0  0  3  0  0  0  0  0  0
  189.3800  177.0670  137.4810 C   0  0  1  0  0  3  0  0  0  0  0  0
  193.1030  176.1270  137.8250 C   0  0  0  0  0  0  0  0  0  0  0  0
  190.6460  177.0690  139.5040 N   0  0  1  0  0  0  0  0  0  0  0  0
  193.0260  177.2320  140.0770 C   0  0  0  0  0  3  0  0  0  0  0  0
  193.9750  174.6140  136.1090 N   0  0  0  0  0  0  0  0  0  0  0  0
  193.0770  173.5080  136.2910 C   0  0  0  0  0  0  0  0  0  0  0  0
  194.0240  175.7370  136.7580 C   0  0  0  0  0  3  0  0  0  0  0  0
  189.2570  177.0710  139.9220 C   0  0  0  0  0  2  0  0  0  0  0  0
  191.8250  173.6180  136.7410 C   0  0  0  0  0  3  0  0  0  0  0  0
  191.1180  174.8200  137.2000 C   0  0  0  0  0  3  0  0  0  0  0  0
  193.6170  176.7340  138.8570 N   0  0  0  0  0  0  0  0  0  0  0  0
  188.4150  177.0450  138.6550 C   0  0  1  0  0  3  0  0  0  0  0  0
  191.6580  175.9590  137.6430 C   0  0  1  0  0  3  0  0  0  0  0  0
  191.4400  177.7990  141.7410 C   0  0  0  0  0  0  0  0  0  0  0  0
  191.2050  178.1790  142.8610 C   0  0  0  0  0  0  0  0  0  0  0  0
  190.9290  178.6470  144.2230 C   0  0  0  0  0  2  0  0  0  0  0  0
  189.8330  177.8090  144.8550 C   0  0  0  0  0  2  0  0  0  0  0  0
  190.2360  177.3820  146.1870 N   0  0  0  0  0  2  0  0  0  0  0  0
  189.0570  178.5220  148.2700 O   0  0  0  0  0  0  0  0  0  0  0  0
  188.8430  177.4750  147.2110 S   0  0  0  0  0  0  0  0  0  0  0  0
  188.6010  176.1440  147.8660 O   0  0  0  0  0  0  0  0  0  0  0  0
  187.4210  177.9040  146.2320 C   0  0  0  0  0  2  0  0  0  0  0  0
  185.0460  178.5830  146.3230 C   0  0  0  0  0  1  0  0  0  0  0  0
  186.3260  178.4630  147.1190 C   0  0  0  0  0  2  0  0  0  0  0  0
  187.4540  178.5100  136.9130 C   0  0  0  0  0  2  0  0  0  0  0  0
  185.4300  177.2310  137.1410 N   0  0  0  0  0  2  0  0  0  0  0  0
  186.1800  178.1750  137.6060 C   0  0  0  0  0  0  0  0  0  0  0  0
  185.7610  178.9590  138.7270 N   0  0  0  0  0  2  0  0  0  0  0  0
  184.4880  178.7610  139.4050 C   0  0  0  0  0  2  0  0  0  0  0  0
  184.6420  179.0330  140.8920 C   0  0  0  0  0  2  0  0  0  0  0  0
  186.0950  178.8740  141.3110 C   0  0  0  0  0  2  0  0  0  0  0  0
  186.1990  178.3120  142.7200 C   0  0  1  0  0  3  0  0  0  0  0  0
  184.9650  177.8270  143.1110 F   0  0  0  0  0  0  0  0  0  0  0  0
  187.1320  177.2750  142.7470 O   0  0  0  0  0  1  0  0  0  0  0  0
  1 29  1  6  0  0  0
  1 16  1  0  0  0  0
  2 10  1  0  0  0  0
  3  7  1  0  0  0  0
  4 18  1  0  0  0  0
  5  1  1  0  0  0  0
  5  3  1  0  0  0  0
  5 16  1  0  0  0  0
  6 15  1  0  0  0  0
  7 12  1  0  0  0  0
  7  4  1  0  0  0  0
  8  4  1  0  0  0  0
  9 10  2  0  0  0  0
  9 11  1  0  0  0  0
 10 13  1  0  0  0  0
 11  6  2  0  0  0  0
 13 14  2  0  0  0  0
 14 17  1  0  0  0  0
 15  8  2  0  0  0  0
 16 12  1  0  0  0  0
 17  6  1  0  0  0  0
 17  3  1  0  0  0  0
 18 19  3  0  0  0  0
 19 20  1  0  0  0  0
 20 21  1  0  0  0  0
 21 22  1  0  0  0  0
 22 24  1  0  0  0  0
 24 25  2  0  0  0  0
 24 23  2  0  0  0  0
 26 28  1  0  0  0  0
 26 24  1  0  0  0  0
 27 28  1  0  0  0  0
 29 31  1  0  0  0  0
 30 31  2  0  0  0  0
 31 32  1  0  0  0  0
 32 33  1  0  0  0  0
 33 34  1  0  0  0  0
 34 35  1  0  0  0  0
 35 36  1  0  0  0  0
 36 38  1  0  0  0  0
 36 37  1  0  0  0  0
M  END
>  <MODEL>
1

>  <REMARK>
 VINA RESULT:      -7.7      0.000      0.000
  Name = 
  13 active torsions:
  status: ('A' for Active; 'I' for Inactive)
    1  A    between atoms: C_1  and  C_23
    2  A    between atoms: C_2  and  S_13
    3  A    between atoms: C_2  and  C_37
    4  A    between atoms: C_5  and  C_27
    5  A    between atoms: C_11  and  C_14
    6  A    between atoms: S_13  and  N_31
    7  A    between atoms: C_14  and  C_36
    8  A    between atoms: C_18  and  C_28
    9  A    between atoms: C_18  and  C_32
   10  A    between atoms: C_23  and  C_29
   11  A    between atoms: C_26  and  N_35
   12  A    between atoms: C_26  and  C_36
   13  A    between atoms: N_31  and  C_32
                            x       y       z     vdW  Elec       q    Type
                         _______ _______ _______ _____ _____    ______ ____

>  <TORSDO>
F 13

$$$$
=
 OpenBabel10222419013D

 38 41  0  0  1  0  0  0  0  0999 V2000
  188.6020  178.1970  137.7990 C   0  0  2  0  0  3  0  0  0  0  0  0
  193.3390  172.1850  135.2480 N   0  0  0  0  0  1  0  0  0  0  0  0
  190.7890  176.9840  137.7970 C   0  0  1  0  0  3  0  0  0  0  0  0
  191.9180  177.1860  140.0510 C   0  0  0  0  0  0  0  0  0  0  0  0
  189.3350  176.9560  137.3260 C   0  0  1  0  0  3  0  0  0  0  0  0
  193.0800  176.0370  137.3390 C   0  0  0  0  0  0  0  0  0  0  0  0
  190.7650  176.9210  139.2370 N   0  0  0  0  0  0  0  0  0  0  0  0
  193.1830  177.0890  139.6140 C   0  0  0  0  0  3  0  0  0  0  0  0
  193.8150  174.5710  135.5210 N   0  0  0  0  0  0  0  0  0  0  0  0
  192.9420  173.4540  135.7510 C   0  0  0  0  0  0  0  0  0  0  0  0
  193.9110  175.6790  136.1900 C   0  0  0  0  0  3  0  0  0  0  0  0
  189.4160  176.9030  139.7690 C   0  0  0  0  0  2  0  0  0  0  0  0
  191.7300  173.5440  136.3050 C   0  0  0  0  0  3  0  0  0  0  0  0
  191.0570  174.7300  136.8500 C   0  0  0  0  0  3  0  0  0  0  0  0
  193.6740  176.6240  138.3380 N   0  0  0  0  0  2  0  0  0  0  0  0
  188.4720  176.8990  138.5750 C   0  0  1  0  0  3  0  0  0  0  0  0
  191.6260  175.8620  137.2730 C   0  0  1  0  0  3  0  0  0  0  0  0
  191.7380  177.6060  141.4160 C   0  0  0  0  0  0  0  0  0  0  0  0
  191.5940  177.9590  142.5600 C   0  0  0  0  0  0  0  0  0  0  0  0
  191.4290  178.3950  143.9510 C   0  0  0  0  0  2  0  0  0  0  0  0
  190.5460  177.4190  144.7070 C   0  0  0  0  0  2  0  0  0  0  0  0
  189.2870  178.0560  145.0630 N   0  0  0  0  0  2  0  0  0  0  0  0
  188.4820  176.0240  143.5610 O   0  0  0  0  0  0  0  0  0  0  0  0
  188.0540  177.3790  144.0540 S   0  0  0  0  0  0  0  0  0  0  0  0
  187.8030  178.2820  142.8780 O   0  0  0  0  0  0  0  0  0  0  0  0
  186.5490  177.2220  144.9910 C   0  0  0  0  0  2  0  0  0  0  0  0
  185.0690  178.3740  146.6000 C   0  0  0  0  0  1  0  0  0  0  0  0
  186.4740  178.3100  146.0430 C   0  0  0  0  0  2  0  0  0  0  0  0
  187.3600  178.3970  136.9540 C   0  0  0  0  0  2  0  0  0  0  0  0
  185.3500  177.1470  137.3860 N   0  0  0  0  0  2  0  0  0  0  0  0
  186.1470  178.0940  137.7610 C   0  0  0  0  0  0  0  0  0  0  0  0
  185.8320  178.9110  138.8930 N   0  0  0  0  0  2  0  0  0  0  0  0
  184.6190  178.7460  139.6810 C   0  0  0  0  0  2  0  0  0  0  0  0
  184.9000  179.0640  141.1400 C   0  0  0  0  0  2  0  0  0  0  0  0
  184.0820  178.1570  142.0460 C   0  0  0  0  0  2  0  0  0  0  0  0
  183.7540  178.8490  143.3600 C   0  0  1  0  0  3  0  0  0  0  0  0
  184.5850  179.9410  143.5220 F   0  0  0  0  0  0  0  0  0  0  0  0
  182.4260  179.2780  143.3490 O   0  0  0  0  0  1  0  0  0  0  0  0
  1 29  1  6  0  0  0
  1 16  1  0  0  0  0
  2 10  1  0  0  0  0
  3  7  1  1  0  0  0
  4 18  1  0  0  0  0
  5  3  1  0  0  0  0
  5  1  1  0  0  0  0
  5 16  1  0  0  0  0
  6 15  1  0  0  0  0
  7 12  1  0  0  0  0
  7  4  1  0  0  0  0
  8  4  2  0  0  0  0
  9 10  2  0  0  0  0
  9 11  1  0  0  0  0
 10 13  1  0  0  0  0
 11  6  2  0  0  0  0
 13 14  2  0  0  0  0
 14 17  1  0  0  0  0
 15  8  1  0  0  0  0
 16 12  1  0  0  0  0
 17  6  1  0  0  0  0
 17  3  1  0  0  0  0
 18 19  3  0  0  0  0
 19 20  1  0  0  0  0
 20 21  1  0  0  0  0
 21 22  1  0  0  0  0
 23 24  2  0  0  0  0
 24 26  1  0  0  0  0
 24 22  1  0  0  0  0
 25 24  2  0  0  0  0
 26 28  1  0  0  0  0
 28 27  1  0  0  0  0
 29 31  1  0  0  0  0
 30 31  2  0  0  0  0
 31 32  1  0  0  0  0
 32 33  1  0  0  0  0
 33 34  1  0  0  0  0
 34 35  1  0  0  0  0
 35 36  1  0  0  0  0
 36 37  1  0  0  0  0
 38 36  1  0  0  0  0
M  END
>  <MODEL>
2

>  <REMARK>
 VINA RESULT:      -7.5      1.457      1.810
  Name = 
  13 active torsions:
  status: ('A' for Active; 'I' for Inactive)
    1  A    between atoms: C_1  and  C_23
    2  A    between atoms: C_2  and  S_13
    3  A    between atoms: C_2  and  C_37
    4  A    between atoms: C_5  and  C_27
    5  A    between atoms: C_11  and  C_14
    6  A    between atoms: S_13  and  N_31
    7  A    between atoms: C_14  and  C_36
    8  A    between atoms: C_18  and  C_28
    9  A    between atoms: C_18  and  C_32
   10  A    between atoms: C_23  and  C_29
   11  A    between atoms: C_26  and  N_35
   12  A    between atoms: C_26  and  C_36
   13  A    between atoms: N_31  and  C_32
                            x       y       z     vdW  Elec       q    Type
                         _______ _______ _______ _____ _____    ______ ____

>  <TORSDO>
F 13

$$$$
=
 OpenBabel10222419013D

 38 41  0  0  1  0  0  0  0  0999 V2000
  189.0920  177.4330  140.9780 C   0  0  2  0  0  3  0  0  0  0  0  0
  195.2270  175.6280  136.0600 N   0  0  0  0  0  1  0  0  0  0  0  0
  190.0390  176.1870  139.0280 C   0  0  1  0  0  3  0  0  0  0  0  0
  188.2570  175.7850  137.2790 C   0  0  1  0  0  3  0  0  0  0  0  0
  190.2940  177.2790  140.0660 C   0  0  1  0  0  3  0  0  0  0  0  0
  191.1880  174.6000  137.4420 C   0  0  0  0  0  0  0  0  0  0  0  0
  188.9520  176.6420  138.1980 N   0  0  1  0  0  0  0  0  0  0  0  0
  188.7710  174.6530  136.7730 C   0  0  0  0  0  3  0  0  0  0  0  0
  193.5800  174.1730  137.1380 N   0  0  0  0  0  0  0  0  0  0  0  0
  194.0140  175.4970  136.7880 C   0  0  0  0  0  0  0  0  0  0  0  0
  192.3810  173.7540  137.4060 C   0  0  0  0  0  3  0  0  0  0  0  0
  188.4280  177.9250  138.6260 C   0  0  0  0  0  2  0  0  0  0  0  0
  193.4170  176.6200  137.1960 C   0  0  0  0  0  3  0  0  0  0  0  0
  192.1970  176.7700  138.0010 C   0  0  0  0  0  3  0  0  0  0  0  0
  190.0980  174.1070  136.9270 N   0  0  0  0  0  0  0  0  0  0  0  0
  189.2770  178.3770  139.8050 C   0  0  1  0  0  3  0  0  0  0  0  0
  191.2180  175.8760  138.1620 C   0  0  1  0  0  3  0  0  0  0  0  0
  186.9150  176.1190  136.8780 C   0  0  0  0  0  0  0  0  0  0  0  0
  185.7920  176.3960  136.5360 C   0  0  0  0  0  0  0  0  0  0  0  0
  184.4280  176.7250  136.1120 C   0  0  0  0  0  2  0  0  0  0  0  0
  183.6720  177.3980  137.2440 C   0  0  0  0  0  2  0  0  0  0  0  0
  184.6030  177.8520  138.2660 N   0  0  0  0  0  2  0  0  0  0  0  0
  182.3110  179.0190  138.9100 O   0  0  0  0  0  0  0  0  0  0  0  0
  183.7760  179.0110  139.2510 S   0  0  0  0  0  0  0  0  0  0  0  0
  184.3510  180.3810  139.0190 O   0  0  0  0  0  0  0  0  0  0  0  0
  183.9850  178.5810  140.9650 C   0  0  0  0  0  2  0  0  0  0  0  0
  185.7820  178.1770  142.6130 C   0  0  0  0  0  1  0  0  0  0  0  0
  185.3390  179.0490  141.4580 C   0  0  0  0  0  2  0  0  0  0  0  0
  189.5160  178.1340  142.2520 C   0  0  0  0  0  2  0  0  0  0  0  0
  188.9540  176.0080  143.2260 N   0  0  0  0  0  2  0  0  0  0  0  0
  189.2810  177.2430  143.4210 C   0  0  0  0  0  0  0  0  0  0  0  0
  189.3350  177.7860  144.7430 N   0  0  0  0  0  2  0  0  0  0  0  0
  189.0280  177.0110  145.9360 C   0  0  0  0  0  2  0  0  0  0  0  0
  188.0130  177.7510  146.7910 C   0  0  0  0  0  2  0  0  0  0  0  0
  186.6320  177.6740  146.1590 C   0  0  0  0  0  2  0  0  0  0  0  0
  185.7570  178.8310  146.6150 C   0  0  1  0  0  3  0  0  0  0  0  0
  185.6230  179.7380  145.5800 F   0  0  0  0  0  0  0  0  0  0  0  0
  184.4960  178.3560  146.9770 O   0  0  0  0  0  1  0  0  0  0  0  0
  1 29  1  1  0  0  0
  2 10  1  0  0  0  0
  3  5  1  0  0  0  0
  4  7  1  0  0  0  0
  5  1  1  0  0  0  0
  6 17  1  0  0  0  0
  7 12  1  0  0  0  0
  7  3  1  0  0  0  0
  8 15  2  0  0  0  0
  8  4  1  0  0  0  0
  9 11  1  0  0  0  0
 10  9  2  0  0  0  0
 10 13  1  0  0  0  0
 11  6  2  0  0  0  0
 12 16  1  0  0  0  0
 13 14  2  0  0  0  0
 14 17  1  0  0  0  0
 15  6  1  0  0  0  0
 16  5  1  0  0  0  0
 16  1  1  0  0  0  0
 17  3  1  0  0  0  0
 18  4  1  0  0  0  0
 19 18  3  0  0  0  0
 20 19  1  0  0  0  0
 20 21  1  0  0  0  0
 21 22  1  0  0  0  0
 22 24  1  0  0  0  0
 23 24  2  0  0  0  0
 24 26  1  0  0  0  0
 25 24  2  0  0  0  0
 26 28  1  0  0  0  0
 28 27  1  0  0  0  0
 29 31  1  0  0  0  0
 30 31  2  0  0  0  0
 31 32  1  0  0  0  0
 32 33  1  0  0  0  0
 33 34  1  0  0  0  0
 35 36  1  0  0  0  0
 35 34  1  0  0  0  0
 36 38  1  0  0  0  0
 37 36  1  0  0  0  0
M  END
>  <MODEL>
3

>  <REMARK>
 VINA RESULT:      -7.5      2.779      6.039
  Name = 
  13 active torsions:
  status: ('A' for Active; 'I' for Inactive)
    1  A    between atoms: C_1  and  C_23
    2  A    between atoms: C_2  and  S_13
    3  A    between atoms: C_2  and  C_37
    4  A    between atoms: C_5  and  C_27
    5  A    between atoms: C_11  and  C_14
    6  A    between atoms: S_13  and  N_31
    7  A    between atoms: C_14  and  C_36
    8  A    between atoms: C_18  and  C_28
    9  A    between atoms: C_18  and  C_32
   10  A    between atoms: C_23  and  C_29
   11  A    between atoms: C_26  and  N_35
   12  A    between atoms: C_26  and  C_36
   13  A    between atoms: N_31  and  C_32
                            x       y       z     vdW  Elec       q    Type
                         _______ _______ _______ _____ _____    ______ ____

>  <TORSDO>
F 13

$$$$
=
 OpenBabel10222419013D

 38 41  0  0  1  0  0  0  0  0999 V2000
  189.5670  177.0860  141.0440 C   0  0  2  0  0  3  0  0  0  0  0  0
  195.5480  175.6970  135.8100 N   0  0  0  0  0  1  0  0  0  0  0  0
  190.4700  175.9620  139.0010 C   0  0  1  0  0  3  0  0  0  0  0  0
  188.6310  175.5900  137.3050 C   0  0  1  0  0  3  0  0  0  0  0  0
  190.7360  177.0110  140.0800 C   0  0  1  0  0  3  0  0  0  0  0  0
  191.5980  174.4860  137.2960 C   0  0  0  0  0  0  0  0  0  0  0  0
  189.3380  176.4240  138.2370 N   0  0  1  0  0  0  0  0  0  0  0  0
  189.1550  174.4990  136.7250 C   0  0  0  0  0  3  0  0  0  0  0  0
  193.9860  174.1460  136.8800 N   0  0  0  0  0  0  0  0  0  0  0  0
  194.3680  175.4970  136.5780 C   0  0  0  0  0  0  0  0  0  0  0  0
  192.8110  173.6790  137.1730 C   0  0  0  0  0  3  0  0  0  0  0  0
  188.7960  177.6680  138.7460 C   0  0  0  0  0  2  0  0  0  0  0  0
  193.7580  176.5810  137.0620 C   0  0  0  0  0  3  0  0  0  0  0  0
  192.5680  176.6560  137.9200 C   0  0  0  0  0  3  0  0  0  0  0  0
  190.5020  173.9860  136.8010 N   0  0  0  0  0  0  0  0  0  0  0  0
  189.6790  178.0900  139.9110 C   0  0  1  0  0  3  0  0  0  0  0  0
  191.6210  175.7270  138.0760 C   0  0  1  0  0  3  0  0  0  0  0  0
  187.2650  175.9030  136.9730 C   0  0  0  0  0  0  0  0  0  0  0  0
  186.1200  176.1670  136.7020 C   0  0  0  0  0  0  0  0  0  0  0  0
  184.7270  176.4960  136.3810 C   0  0  0  0  0  2  0  0  0  0  0  0
  184.0980  177.2870  137.5130 C   0  0  0  0  0  2  0  0  0  0  0  0
  185.0860  178.1670  138.1180 N   0  0  0  0  0  2  0  0  0  0  0  0
  182.9310  178.4650  139.6320 O   0  0  0  0  0  0  0  0  0  0  0  0
  184.3070  179.0270  139.4020 S   0  0  0  0  0  0  0  0  0  0  0  0
  184.1990  180.4850  139.0490 O   0  0  0  0  0  0  0  0  0  0  0  0
  185.2710  178.8640  140.8890 C   0  0  0  0  0  2  0  0  0  0  0  0
  184.6960  179.1570  143.2740 C   0  0  0  0  0  1  0  0  0  0  0  0
  184.4000  178.3610  142.0220 C   0  0  0  0  0  2  0  0  0  0  0  0
  190.0230  177.7380  142.3330 C   0  0  0  0  0  2  0  0  0  0  0  0
  188.2300  176.4180  143.2440 N   0  0  0  0  0  2  0  0  0  0  0  0
  189.2180  177.2210  143.4730 C   0  0  0  0  0  0  0  0  0  0  0  0
  189.4920  177.6860  144.7980 N   0  0  0  0  0  2  0  0  0  0  0  0
  188.6970  177.3050  145.9560 C   0  0  0  0  0  2  0  0  0  0  0  0
  189.6070  176.8940  147.1000 C   0  0  0  0  0  2  0  0  0  0  0  0
  191.0500  176.8130  146.6260 C   0  0  0  0  0  2  0  0  0  0  0  0
  191.8290  175.7770  147.4210 C   0  0  1  0  0  3  0  0  0  0  0  0
  192.5800  175.0060  146.5540 F   0  0  0  0  0  0  0  0  0  0  0  0
  192.6790  176.4160  148.3240 O   0  0  0  0  0  1  0  0  0  0  0  0
  1 29  1  1  0  0  0
  2 10  1  0  0  0  0
  3  5  1  0  0  0  0
  4  7  1  0  0  0  0
  5  1  1  0  0  0  0
  6 17  1  0  0  0  0
  7 12  1  0  0  0  0
  7  3  1  0  0  0  0
  8 15  2  0  0  0  0
  8  4  1  0  0  0  0
  9 11  1  0  0  0  0
 10  9  2  0  0  0  0
 10 13  1  0  0  0  0
 11  6  2  0  0  0  0
 12 16  1  0  0  0  0
 13 14  2  0  0  0  0
 14 17  1  0  0  0  0
 15  6  1  0  0  0  0
 16  5  1  0  0  0  0
 16  1  1  0  0  0  0
 17  3  1  0  0  0  0
 18  4  1  0  0  0  0
 19 18  3  0  0  0  0
 20 19  1  0  0  0  0
 20 21  1  0  0  0  0
 21 22  1  0  0  0  0
 22 24  1  0  0  0  0
 24 23  2  0  0  0  0
 24 26  1  0  0  0  0
 25 24  2  0  0  0  0
 26 28  1  0  0  0  0
 28 27  1  0  0  0  0
 29 31  1  0  0  0  0
 30 31  2  0  0  0  0
 31 32  1  0  0  0  0
 32 33  1  0  0  0  0
 33 34  1  0  0  0  0
 35 34  1  0  0  0  0
 35 36  1  0  0  0  0
 36 38  1  0  0  0  0
 37 36  1  0  0  0  0
M  END
>  <MODEL>
4

>  <REMARK>
 VINA RESULT:      -7.3      3.059      6.308
  Name = 
  13 active torsions:
  status: ('A' for Active; 'I' for Inactive)
    1  A    between atoms: C_1  and  C_23
    2  A    between atoms: C_2  and  S_13
    3  A    between atoms: C_2  and  C_37
    4  A    between atoms: C_5  and  C_27
    5  A    between atoms: C_11  and  C_14
    6  A    between atoms: S_13  and  N_31
    7  A    between atoms: C_14  and  C_36
    8  A    between atoms: C_18  and  C_28
    9  A    between atoms: C_18  and  C_32
   10  A    between atoms: C_23  and  C_29
   11  A    between atoms: C_26  and  N_35
   12  A    between atoms: C_26  and  C_36
   13  A    between atoms: N_31  and  C_32
                            x       y       z     vdW  Elec       q    Type
                         _______ _______ _______ _____ _____    ______ ____

>  <TORSDO>
F 13

$$$$
=
 OpenBabel10222419013D

 38 41  0  0  1  0  0  0  0  0999 V2000
  184.5430  177.1630  138.1510 C   0  0  2  0  0  3  0  0  0  0  0  0
  179.1530  183.1540  138.5440 N   0  0  0  0  0  1  0  0  0  0  0  0
  182.8620  178.5150  139.4170 C   0  0  1  0  0  3  0  0  0  0  0  0
  183.4910  178.6520  141.8620 C   0  0  1  0  0  3  0  0  0  0  0  0
  183.6500  178.3890  138.1130 C   0  0  1  0  0  3  0  0  0  0  0  0
  180.8100  179.5590  140.4440 C   0  0  0  0  0  0  0  0  0  0  0  0
  183.8220  178.7410  140.4680 N   0  0  1  0  0  0  0  0  0  0  0  0
  182.2470  178.7840  142.3480 C   0  0  0  0  0  3  0  0  0  0  0  0
  179.0290  180.8540  139.3730 N   0  0  0  0  0  0  0  0  0  0  0  0
  179.8130  181.9270  138.8280 C   0  0  0  0  0  0  0  0  0  0  0  0
  179.4210  179.8390  140.0810 C   0  0  0  0  0  2  0  0  0  0  0  0
  185.1890  178.7270  139.9820 C   0  0  0  0  0  2  0  0  0  0  0  0
  181.0930  181.8180  138.4630 C   0  0  0  0  0  3  0  0  0  0  0  0
  181.9860  180.6590  138.5870 C   0  0  0  0  0  3  0  0  0  0  0  0
  181.0310  179.1330  141.6550 N   0  0  0  0  0  0  0  0  0  0  0  0
  185.1190  178.5290  138.4750 C   0  0  1  0  0  3  0  0  0  0  0  0
  181.8600  179.6250  139.4230 C   0  0  0  0  0  0  0  0  0  0  0  0
  184.5320  178.3800  142.8200 C   0  0  0  0  0  0  0  0  0  0  0  0
  185.4020  178.1570  143.6250 C   0  0  0  0  0  0  0  0  0  0  0  0
  186.4530  177.8920  144.6120 C   0  0  0  0  0  2  0  0  0  0  0  0
  187.5410  177.0280  144.0030 C   0  0  0  0  0  2  0  0  0  0  0  0
  188.6560  176.9000  144.9300 N   0  0  0  0  0  2  0  0  0  0  0  0
  190.0980  178.4610  143.3460 O   0  0  0  0  0  0  0  0  0  0  0  0
  190.1170  177.1210  144.0280 S   0  0  0  0  0  0  0  0  0  0  0  0
  190.2480  176.0360  142.9950 O   0  0  0  0  0  0  0  0  0  0  0  0
  191.5090  177.0370  145.1330 C   0  0  0  0  0  2  0  0  0  0  0  0
  192.0170  175.7980  147.2100 C   0  0  0  0  0  1  0  0  0  0  0  0
  191.0380  176.7370  146.5420 C   0  0  0  0  0  2  0  0  0  0  0  0
  184.9310  176.7820  136.7370 C   0  0  0  0  0  2  0  0  0  0  0  0
  186.1440  174.7290  137.0540 N   0  0  0  0  0  2  0  0  0  0  0  0
  186.1890  175.9860  136.7560 C   0  0  0  0  0  0  0  0  0  0  0  0
  187.4400  176.6420  136.5290 N   0  0  0  0  0  2  0  0  0  0  0  0
  188.7230  175.9610  136.6210 C   0  0  0  0  0  2  0  0  0  0  0  0
  189.3810  176.2680  137.9560 C   0  0  0  0  0  2  0  0  0  0  0  0
  188.7530  177.5020  138.5830 C   0  0  0  0  0  2  0  0  0  0  0  0
  189.0640  177.5790  140.0700 C   0  0  1  0  0  3  0  0  0  0  0  0
  190.4340  177.6370  140.2480 F   0  0  0  0  0  0  0  0  0  0  0  0
  188.4790  178.7200  140.6170 O   0  0  0  0  0  1  0  0  0  0  0  0
  1 29  1  6  0  0  0
  1 16  1  0  0  0  0
  2 10  1  0  0  0  0
  3 17  1  6  0  0  0
  3  7  1  0  0  0  0
  4  8  1  0  0  0  0
  4 18  1  6  0  0  0
  5  1  1  0  0  0  0
  5 16  1  0  0  0  0
  5  3  1  0  0  0  0
  6 15  1  0  0  0  0
  7  4  1  0  0  0  0
  9 11  1  0  0  0  0
 10  9  2  0  0  0  0
 11  6  1  0  0  0  0
 12  7  1  0  0  0  0
 13 14  2  0  0  0  0
 13 10  1  0  0  0  0
 14 17  1  0  0  0  0
 15  8  2  0  0  0  0
 16 12  1  0  0  0  0
 17  6  2  0  0  0  0
 18 19  3  0  0  0  0
 19 20  1  0  0  0  0
 21 20  1  0  0  0  0
 21 22  1  0  0  0  0
 23 24  2  0  0  0  0
 24 22  1  0  0  0  0
 24 26  1  0  0  0  0
 25 24  2  0  0  0  0
 26 28  1  0  0  0  0
 28 27  1  0  0  0  0
 29 31  1  0  0  0  0
 31 30  2  0  0  0  0
 32 33  1  0  0  0  0
 32 31  1  0  0  0  0
 33 34  1  0  0  0  0
 34 35  1  0  0  0  0
 35 36  1  0  0  0  0
 36 37  1  0  0  0  0
 36 38  1  0  0  0  0
M  END
>  <MODEL>
5

>  <REMARK>
 VINA RESULT:      -7.1      3.477      8.465
  Name = 
  13 active torsions:
  status: ('A' for Active; 'I' for Inactive)
    1  A    between atoms: C_1  and  C_23
    2  A    between atoms: C_2  and  S_13
    3  A    between atoms: C_2  and  C_37
    4  A    between atoms: C_5  and  C_27
    5  A    between atoms: C_11  and  C_14
    6  A    between atoms: S_13  and  N_31
    7  A    between atoms: C_14  and  C_36
    8  A    between atoms: C_18  and  C_28
    9  A    between atoms: C_18  and  C_32
   10  A    between atoms: C_23  and  C_29
   11  A    between atoms: C_26  and  N_35
   12  A    between atoms: C_26  and  C_36
   13  A    between atoms: N_31  and  C_32
                            x       y       z     vdW  Elec       q    Type
                         _______ _______ _______ _____ _____    ______ ____

>  <TORSDO>
F 13

$$$$
=
 OpenBabel10222419013D

 38 41  0  0  1  0  0  0  0  0999 V2000
  188.2550  178.1600  138.2330 C   0  0  2  0  0  3  0  0  0  0  0  0
  193.4980  172.4920  135.8930 N   0  0  0  0  0  1  0  0  0  0  0  0
  190.5310  177.1260  138.2920 C   0  0  1  0  0  3  0  0  0  0  0  0
  191.6030  177.4660  140.5570 C   0  0  1  0  0  3  0  0  0  0  0  0
  189.0930  176.9710  137.8000 C   0  0  1  0  0  3  0  0  0  0  0  0
  192.8980  176.3560  137.8900 C   0  0  0  0  0  0  0  0  0  0  0  0
  190.4880  177.0930  139.7320 N   0  0  1  0  0  0  0  0  0  0  0  0
  192.8790  177.4620  140.1410 C   0  0  0  0  0  3  0  0  0  0  0  0
  193.7780  174.9130  136.1180 N   0  0  0  0  0  0  0  0  0  0  0  0
  192.9920  173.7350  136.3610 C   0  0  0  0  0  0  0  0  0  0  0  0
  193.7730  176.0400  136.7620 C   0  0  0  0  0  3  0  0  0  0  0  0
  189.1360  176.9790  140.2440 C   0  0  0  0  0  2  0  0  0  0  0  0
  191.7680  173.7400  136.8950 C   0  0  0  0  0  3  0  0  0  0  0  0
  190.9940  174.8800  137.4020 C   0  0  0  0  0  3  0  0  0  0  0  0
  193.4260  177.0100  138.8850 N   0  0  0  0  0  0  0  0  0  0  0  0
  188.2150  176.8730  139.0370 C   0  0  1  0  0  3  0  0  0  0  0  0
  191.4630  176.0630  137.8070 C   0  0  1  0  0  3  0  0  0  0  0  0
  191.3670  177.9010  141.9100 C   0  0  0  0  0  0  0  0  0  0  0  0
  191.1670  178.2590  143.0440 C   0  0  0  0  0  0  0  0  0  0  0  0
  190.9230  178.6830  144.4260 C   0  0  0  0  0  2  0  0  0  0  0  0
  189.5240  178.2850  144.8610 C   0  0  0  0  0  2  0  0  0  0  0  0
  189.5300  176.9260  145.3810 N   0  0  0  0  0  2  0  0  0  0  0  0
  188.9390  175.8140  147.7140 O   0  0  0  0  0  0  0  0  0  0  0  0
  189.5910  177.0260  147.1090 S   0  0  0  0  0  0  0  0  0  0  0  0
  188.8750  178.2640  147.5740 O   0  0  0  0  0  0  0  0  0  0  0  0
  191.2890  177.1100  147.6330 C   0  0  0  0  0  2  0  0  0  0  0  0
  193.1030  175.6780  148.5090 C   0  0  0  0  0  1  0  0  0  0  0  0
  191.9260  175.7370  147.5600 C   0  0  0  0  0  2  0  0  0  0  0  0
  187.0160  178.2410  137.3650 C   0  0  0  0  0  2  0  0  0  0  0  0
  184.7160  177.6730  137.7830 N   0  0  0  0  0  2  0  0  0  0  0  0
  185.7980  178.2270  138.2220 C   0  0  0  0  0  0  0  0  0  0  0  0
  185.8170  178.9010  139.4830 N   0  0  0  0  0  2  0  0  0  0  0  0
  184.6460  179.0170  140.3410 C   0  0  0  0  0  2  0  0  0  0  0  0
  184.8890  178.2920  141.6540 C   0  0  0  0  0  2  0  0  0  0  0  0
  184.9090  179.2810  142.8090 C   0  0  0  0  0  2  0  0  0  0  0  0
  183.6580  179.1490  143.6630 C   0  0  1  0  0  3  0  0  0  0  0  0
  182.7320  178.3670  143.0000 F   0  0  0  0  0  0  0  0  0  0  0  0
  183.9790  178.5500  144.8820 O   0  0  0  0  0  1  0  0  0  0  0  0
  1 29  1  6  0  0  0
  1 16  1  0  0  0  0
  2 10  1  0  0  0  0
  3  7  1  0  0  0  0
  4 18  1  0  0  0  0
  5  1  1  0  0  0  0
  5  3  1  0  0  0  0
  5 16  1  0  0  0  0
  6 15  1  0  0  0  0
  7 12  1  0  0  0  0
  7  4  1  0  0  0  0
  8  4  1  0  0  0  0
  9 10  2  0  0  0  0
  9 11  1  0  0  0  0
 10 13  1  0  0  0  0
 11  6  2  0  0  0  0
 13 14  2  0  0  0  0
 14 17  1  0  0  0  0
 15  8  2  0  0  0  0
 16 12  1  0  0  0  0
 17  6  1  0  0  0  0
 17  3  1  0  0  0  0
 18 19  3  0  0  0  0
 19 20  1  0  0  0  0
 20 21  1  0  0  0  0
 21 22  1  0  0  0  0
 22 24  1  0  0  0  0
 24 25  2  0  0  0  0
 24 26  1  0  0  0  0
 24 23  2  0  0  0  0
 28 26  1  0  0  0  0
 28 27  1  0  0  0  0
 29 31  1  0  0  0  0
 30 31  2  0  0  0  0
 31 32  1  0  0  0  0
 32 33  1  0  0  0  0
 33 34  1  0  0  0  0
 34 35  1  0  0  0  0
 35 36  1  0  0  0  0
 36 38  1  0  0  0  0
 37 36  1  0  0  0  0
M  END
>  <MODEL>
6

>  <REMARK>
 VINA RESULT:      -6.6      1.594      2.234
  Name = 
  13 active torsions:
  status: ('A' for Active; 'I' for Inactive)
    1  A    between atoms: C_1  and  C_23
    2  A    between atoms: C_2  and  S_13
    3  A    between atoms: C_2  and  C_37
    4  A    between atoms: C_5  and  C_27
    5  A    between atoms: C_11  and  C_14
    6  A    between atoms: S_13  and  N_31
    7  A    between atoms: C_14  and  C_36
    8  A    between atoms: C_18  and  C_28
    9  A    between atoms: C_18  and  C_32
   10  A    between atoms: C_23  and  C_29
   11  A    between atoms: C_26  and  N_35
   12  A    between atoms: C_26  and  C_36
   13  A    between atoms: N_31  and  C_32
                            x       y       z     vdW  Elec       q    Type
                         _______ _______ _______ _____ _____    ______ ____

>  <TORSDO>
F 13

$$$$
=
 OpenBabel10222419013D

 38 41  0  0  1  0  0  0  0  0999 V2000
  184.9790  177.3620  138.4050 C   0  0  2  0  0  3  0  0  0  0  0  0
  179.1460  182.9360  138.3780 N   0  0  0  0  0  1  0  0  0  0  0  0
  183.0830  178.5510  139.5210 C   0  0  1  0  0  3  0  0  0  0  0  0
  183.4510  178.6590  142.0210 C   0  0  1  0  0  3  0  0  0  0  0  0
  184.0060  178.5210  138.3030 C   0  0  1  0  0  3  0  0  0  0  0  0
  180.8660  179.4130  140.3550 C   0  0  0  0  0  0  0  0  0  0  0  0
  183.9130  178.8130  140.6700 N   0  0  1  0  0  0  0  0  0  0  0  0
  182.1580  178.6870  142.3800 C   0  0  0  0  0  3  0  0  0  0  0  0
  179.1110  180.6090  139.1370 N   0  0  0  0  0  0  0  0  0  0  0  0
  179.8640  181.7520  138.7000 C   0  0  0  0  0  0  0  0  0  0  0  0
  179.5040  179.6040  139.8580 C   0  0  0  0  0  2  0  0  0  0  0  0
  185.3190  178.9120  140.3270 C   0  0  0  0  0  2  0  0  0  0  0  0
  181.1780  181.7460  138.4660 C   0  0  0  0  0  3  0  0  0  0  0  0
  182.1380  180.6510  138.6550 C   0  0  0  0  0  3  0  0  0  0  0  0
  180.9950  178.9680  141.5730 N   0  0  0  0  0  0  0  0  0  0  0  0
  185.4170  178.7550  138.8170 C   0  0  1  0  0  3  0  0  0  0  0  0
  182.0060  179.5850  139.4500 C   0  0  0  0  0  0  0  0  0  0  0  0
  184.4070  178.4330  143.0740 C   0  0  0  0  0  0  0  0  0  0  0  0
  185.2030  178.2430  143.9600 C   0  0  0  0  0  0  0  0  0  0  0  0
  186.1620  178.0050  145.0430 C   0  0  0  0  0  2  0  0  0  0  0  0
  187.3030  177.1310  144.5530 C   0  0  0  0  0  2  0  0  0  0  0  0
  188.2460  177.9250  143.7810 N   0  0  0  0  0  2  0  0  0  0  0  0
  189.0150  177.3160  141.3180 O   0  0  0  0  0  0  0  0  0  0  0  0
  189.1160  176.8470  142.7440 S   0  0  0  0  0  0  0  0  0  0  0  0
  188.5440  175.4600  142.8550 O   0  0  0  0  0  0  0  0  0  0  0  0
  190.8250  176.8070  143.2360 C   0  0  0  0  0  2  0  0  0  0  0  0
  191.6840  179.0050  143.9710 C   0  0  0  0  0  1  0  0  0  0  0  0
  191.0440  177.7140  144.4310 C   0  0  0  0  0  2  0  0  0  0  0  0
  185.5350  177.0530  137.0300 C   0  0  0  0  0  2  0  0  0  0  0  0
  186.5230  174.8620  137.1360 N   0  0  0  0  0  2  0  0  0  0  0  0
  186.7060  176.1410  137.1520 C   0  0  0  0  0  0  0  0  0  0  0  0
  188.0070  176.6930  137.3720 N   0  0  0  0  0  2  0  0  0  0  0  0
  189.1910  175.8750  137.5960 C   0  0  0  0  0  2  0  0  0  0  0  0
  190.4040  176.7630  137.8130 C   0  0  0  0  0  2  0  0  0  0  0  0
  191.6630  175.9190  137.9340 C   0  0  0  0  0  2  0  0  0  0  0  0
  192.8330  176.7510  138.4350 C   0  0  1  0  0  3  0  0  0  0  0  0
  192.6020  177.1200  139.7470 F   0  0  0  0  0  0  0  0  0  0  0  0
  194.0080  176.0020  138.3670 O   0  0  0  0  0  1  0  0  0  0  0  0
  1 29  1  6  0  0  0
  1 16  1  0  0  0  0
  2 10  1  0  0  0  0
  3 17  1  6  0  0  0
  3  7  1  0  0  0  0
  4  8  1  0  0  0  0
  4 18  1  6  0  0  0
  5  1  1  0  0  0  0
  5 16  1  0  0  0  0
  5  3  1  0  0  0  0
  6 15  1  0  0  0  0
  7  4  1  0  0  0  0
  9 11  1  0  0  0  0
 10  9  2  0  0  0  0
 11  6  1  0  0  0  0
 12  7  1  0  0  0  0
 13 14  2  0  0  0  0
 13 10  1  0  0  0  0
 14 17  1  0  0  0  0
 15  8  2  0  0  0  0
 16 12  1  0  0  0  0
 17  6  2  0  0  0  0
 18 19  3  0  0  0  0
 19 20  1  0  0  0  0
 21 20  1  0  0  0  0
 22 21  1  0  0  0  0
 23 24  2  0  0  0  0
 24 25  2  0  0  0  0
 24 26  1  0  0  0  0
 24 22  1  0  0  0  0
 26 28  1  0  0  0  0
 27 28  1  0  0  0  0
 29 31  1  0  0  0  0
 30 31  2  0  0  0  0
 31 32  1  0  0  0  0
 32 33  1  0  0  0  0
 33 34  1  0  0  0  0
 34 35  1  0  0  0  0
 35 36  1  0  0  0  0
 36 37  1  0  0  0  0
 38 36  1  0  0  0  0
M  END
>  <MODEL>
7

>  <REMARK>
 VINA RESULT:      -6.5      3.597      8.744
  Name = 
  13 active torsions:
  status: ('A' for Active; 'I' for Inactive)
    1  A    between atoms: C_1  and  C_23
    2  A    between atoms: C_2  and  S_13
    3  A    between atoms: C_2  and  C_37
    4  A    between atoms: C_5  and  C_27
    5  A    between atoms: C_11  and  C_14
    6  A    between atoms: S_13  and  N_31
    7  A    between atoms: C_14  and  C_36
    8  A    between atoms: C_18  and  C_28
    9  A    between atoms: C_18  and  C_32
   10  A    between atoms: C_23  and  C_29
   11  A    between atoms: C_26  and  N_35
   12  A    between atoms: C_26  and  C_36
   13  A    between atoms: N_31  and  C_32
                            x       y       z     vdW  Elec       q    Type
                         _______ _______ _______ _____ _____    ______ ____

>  <TORSDO>
F 13

$$$$
=
 OpenBabel10222419013D

 38 41  0  0  1  0  0  0  0  0999 V2000
  185.5020  179.3800  144.2640 C   0  0  2  0  0  3  0  0  0  0  0  0
  180.1040  177.0970  138.7200 N   0  0  0  0  0  1  0  0  0  0  0  0
  184.8210  179.0420  141.8820 C   0  0  1  0  0  3  0  0  0  0  0  0
  186.8280  178.4570  140.4580 C   0  0  1  0  0  3  0  0  0  0  0  0
  184.4400  178.8090  143.3430 C   0  0  1  0  0  3  0  0  0  0  0  0
  183.8830  179.1740  139.5450 C   0  0  0  0  0  0  0  0  0  0  0  0
  186.0240  178.2870  141.6360 N   0  0  1  0  0  0  0  0  0  0  0  0
  186.3720  178.9700  139.3050 C   0  0  0  0  0  3  0  0  0  0  0  0
  181.5520  179.0690  138.8040 N   0  0  0  0  0  0  0  0  0  0  0  0
  181.1970  177.7770  139.3220 C   0  0  0  0  0  0  0  0  0  0  0  0
  182.6920  179.6850  138.8670 C   0  0  0  0  0  3  0  0  0  0  0  0
  186.5060  177.6090  142.8240 C   0  0  0  0  0  2  0  0  0  0  0  0
  181.7500  177.2180  140.4010 C   0  0  0  0  0  3  0  0  0  0  0  0
  182.8440  177.7270  141.2390 C   0  0  0  0  0  3  0  0  0  0  0  0
  185.0260  179.3520  138.9480 N   0  0  0  0  0  0  0  0  0  0  0  0
  185.5040  177.8980  143.9330 C   0  0  1  0  0  3  0  0  0  0  0  0
  183.7740  178.6250  140.9000 C   0  0  1  0  0  3  0  0  0  0  0  0
  188.2200  178.0890  140.4930 C   0  0  0  0  0  0  0  0  0  0  0  0
  189.3870  177.7870  140.5240 C   0  0  0  0  0  0  0  0  0  0  0  0
  190.8080  177.4280  140.5680 C   0  0  0  0  0  2  0  0  0  0  0  0
  191.2950  177.0340  139.1860 C   0  0  0  0  0  2  0  0  0  0  0  0
  191.1690  175.5960  139.0020 N   0  0  0  0  0  2  0  0  0  0  0  0
  190.1870  173.8600  137.2570 O   0  0  0  0  0  0  0  0  0  0  0  0
  190.4660  175.3260  137.4440 S   0  0  0  0  0  0  0  0  0  0  0  0
  191.4060  175.7970  136.3700 O   0  0  0  0  0  0  0  0  0  0  0  0
  188.9440  176.2390  137.3190 C   0  0  0  0  0  2  0  0  0  0  0  0
  189.0500  178.6650  136.8600 C   0  0  0  0  0  1  0  0  0  0  0  0
  189.0540  177.2890  136.2320 C   0  0  0  0  0  2  0  0  0  0  0  0
  184.9120  179.5790  145.6450 C   0  0  0  0  0  2  0  0  0  0  0  0
  184.9020  177.8310  147.2980 N   0  0  0  0  0  2  0  0  0  0  0  0
  185.5960  178.6850  146.6190 C   0  0  0  0  0  0  0  0  0  0  0  0
  186.9990  178.8420  146.8550 N   0  0  0  0  0  2  0  0  0  0  0  0
  187.7280  178.0760  147.8550 C   0  0  0  0  0  2  0  0  0  0  0  0
  188.6890  177.1150  147.1760 C   0  0  0  0  0  2  0  0  0  0  0  0
  188.9130  177.5260  145.7290 C   0  0  0  0  0  2  0  0  0  0  0  0
  190.3190  177.1710  145.2710 C   0  0  1  0  0  3  0  0  0  0  0  0
  190.8440  178.2250  144.5470 F   0  0  0  0  0  0  0  0  0  0  0  0
  191.1290  176.9240  146.3790 O   0  0  0  0  0  1  0  0  0  0  0  0
  1 29  1  1  0  0  0
  2 10  1  0  0  0  0
  3  5  1  0  0  0  0
  4 18  1  0  0  0  0
  4  7  1  0  0  0  0
  5 16  1  0  0  0  0
  5  1  1  0  0  0  0
  6 17  1  0  0  0  0
  7  3  1  0  0  0  0
  7 12  1  0  0  0  0
  8  4  1  0  0  0  0
  9 11  1  0  0  0  0
  9 10  2  0  0  0  0
 10 13  1  0  0  0  0
 11  6  2  0  0  0  0
 12 16  1  0  0  0  0
 13 14  2  0  0  0  0
 15  8  2  0  0  0  0
 15  6  1  0  0  0  0
 16  1  1  0  0  0  0
 17 14  1  0  0  0  0
 17  3  1  0  0  0  0
 18 19  3  0  0  0  0
 19 20  1  0  0  0  0
 21 20  1  0  0  0  0
 22 21  1  0  0  0  0
 23 24  2  0  0  0  0
 24 22  1  0  0  0  0
 25 24  2  0  0  0  0
 26 24  1  0  0  0  0
 28 27  1  0  0  0  0
 28 26  1  0  0  0  0
 29 31  1  0  0  0  0
 31 32  1  0  0  0  0
 31 30  2  0  0  0  0
 32 33  1  0  0  0  0
 34 33  1  0  0  0  0
 35 34  1  0  0  0  0
 36 35  1  0  0  0  0
 36 38  1  0  0  0  0
 37 36  1  0  0  0  0
M  END
>  <MODEL>
8

>  <REMARK>
 VINA RESULT:      -6.4      3.382      8.796
  Name = 
  13 active torsions:
  status: ('A' for Active; 'I' for Inactive)
    1  A    between atoms: C_1  and  C_23
    2  A    between atoms: C_2  and  S_13
    3  A    between atoms: C_2  and  C_37
    4  A    between atoms: C_5  and  C_27
    5  A    between atoms: C_11  and  C_14
    6  A    between atoms: S_13  and  N_31
    7  A    between atoms: C_14  and  C_36
    8  A    between atoms: C_18  and  C_28
    9  A    between atoms: C_18  and  C_32
   10  A    between atoms: C_23  and  C_29
   11  A    between atoms: C_26  and  N_35
   12  A    between atoms: C_26  and  C_36
   13  A    between atoms: N_31  and  C_32
                            x       y       z     vdW  Elec       q    Type
                         _______ _______ _______ _____ _____    ______ ____

>  <TORSDO>
F 13

$$$$
=
 OpenBabel10222419013D

 38 41  0  0  1  0  0  0  0  0999 V2000
  188.7330  177.5750  141.1260 C   0  0  2  0  0  3  0  0  0  0  0  0
  195.0280  175.7440  136.4230 N   0  0  0  0  0  1  0  0  0  0  0  0
  189.7310  176.3620  139.1810 C   0  0  1  0  0  3  0  0  0  0  0  0
  188.0180  176.0630  137.3450 C   0  0  1  0  0  3  0  0  0  0  0  0
  189.9700  177.4140  140.2620 C   0  0  1  0  0  3  0  0  0  0  0  0
  190.9060  174.7900  137.5970 C   0  0  0  0  0  0  0  0  0  0  0  0
  188.6950  176.8730  138.3190 N   0  0  1  0  0  0  0  0  0  0  0  0
  188.5220  174.9330  136.8260 C   0  0  0  0  0  3  0  0  0  0  0  0
  193.2960  174.3050  137.3840 N   0  0  0  0  0  0  0  0  0  0  0  0
  193.7800  175.6260  137.0940 C   0  0  0  0  0  0  0  0  0  0  0  0
  192.0750  173.9130  137.5860 C   0  0  0  0  0  3  0  0  0  0  0  0
  188.1870  178.1560  138.7640 C   0  0  0  0  0  2  0  0  0  0  0  0
  193.1970  176.7530  137.5110 C   0  0  0  0  0  3  0  0  0  0  0  0
  191.9480  176.9130  138.2660 C   0  0  0  0  0  3  0  0  0  0  0  0
  189.8260  174.3450  137.0200 N   0  0  0  0  0  0  0  0  0  0  0  0
  188.9960  178.5490  139.9910 C   0  0  1  0  0  3  0  0  0  0  0  0
  190.9380  176.0440  138.3580 C   0  0  1  0  0  3  0  0  0  0  0  0
  186.7040  176.4470  136.8970 C   0  0  0  0  0  0  0  0  0  0  0  0
  185.6010  176.7690  136.5290 C   0  0  0  0  0  0  0  0  0  0  0  0
  184.2590  177.1630  136.0910 C   0  0  0  0  0  2  0  0  0  0  0  0
  183.4100  177.5570  137.2860 C   0  0  0  0  0  2  0  0  0  0  0  0
  184.2620  177.9250  138.4060 N   0  0  0  0  0  2  0  0  0  0  0  0
  184.1800  180.4840  139.0930 O   0  0  0  0  0  0  0  0  0  0  0  0
  183.4580  179.1790  139.2880 S   0  0  0  0  0  0  0  0  0  0  0  0
  183.4300  178.8370  140.7510 O   0  0  0  0  0  0  0  0  0  0  0  0
  181.7860  179.3320  138.6990 C   0  0  0  0  0  2  0  0  0  0  0  0
  180.1570  180.8130  137.5770 C   0  0  0  0  0  1  0  0  0  0  0  0
  181.6060  180.6530  137.9780 C   0  0  0  0  0  2  0  0  0  0  0  0
  189.1200  178.2260  142.4380 C   0  0  0  0  0  2  0  0  0  0  0  0
  188.9260  176.1170  143.5800 N   0  0  0  0  0  2  0  0  0  0  0  0
  189.6180  177.1920  143.3870 C   0  0  0  0  0  0  0  0  0  0  0  0
  190.8110  177.4390  144.1360 N   0  0  0  0  0  2  0  0  0  0  0  0
  191.3170  176.5260  145.1510 C   0  0  0  0  0  2  0  0  0  0  0  0
  191.1300  177.1290  146.5330 C   0  0  0  0  0  2  0  0  0  0  0  0
  190.0380  176.3880  147.2890 C   0  0  0  0  0  2  0  0  0  0  0  0
  188.9160  177.3320  147.6910 C   0  0  1  0  0  3  0  0  0  0  0  0
  189.4290  178.3440  148.4790 F   0  0  0  0  0  0  0  0  0  0  0  0
  188.3320  177.8850  146.5510 O   0  0  0  0  0  1  0  0  0  0  0  0
  1 29  1  1  0  0  0
  2 10  1  0  0  0  0
  3  5  1  0  0  0  0
  4  7  1  0  0  0  0
  5  1  1  0  0  0  0
  6 17  1  0  0  0  0
  7 12  1  0  0  0  0
  7  3  1  0  0  0  0
  8 15  2  0  0  0  0
  8  4  1  0  0  0  0
  9 11  1  0  0  0  0
 10  9  2  0  0  0  0
 10 13  1  0  0  0  0
 11  6  2  0  0  0  0
 12 16  1  0  0  0  0
 13 14  2  0  0  0  0
 14 17  1  0  0  0  0
 15  6  1  0  0  0  0
 16  5  1  0  0  0  0
 16  1  1  0  0  0  0
 17  3  1  0  0  0  0
 18  4  1  0  0  0  0
 19 18  3  0  0  0  0
 20 19  1  0  0  0  0
 20 21  1  0  0  0  0
 21 22  1  0  0  0  0
 22 24  1  0  0  0  0
 23 24  2  0  0  0  0
 24 25  2  0  0  0  0
 26 24  1  0  0  0  0
 27 28  1  0  0  0  0
 28 26  1  0  0  0  0
 29 31  1  0  0  0  0
 31 30  2  0  0  0  0
 31 32  1  0  0  0  0
 32 33  1  0  0  0  0
 33 34  1  0  0  0  0
 34 35  1  0  0  0  0
 35 36  1  0  0  0  0
 36 37  1  0  0  0  0
 38 36  1  0  0  0  0
M  END
>  <MODEL>
9

>  <REMARK>
 VINA RESULT:      -6.4      3.081      6.715
  Name = 
  13 active torsions:
  status: ('A' for Active; 'I' for Inactive)
    1  A    between atoms: C_1  and  C_23
    2  A    between atoms: C_2  and  S_13
    3  A    between atoms: C_2  and  C_37
    4  A    between atoms: C_5  and  C_27
    5  A    between atoms: C_11  and  C_14
    6  A    between atoms: S_13  and  N_31
    7  A    between atoms: C_14  and  C_36
    8  A    between atoms: C_18  and  C_28
    9  A    between atoms: C_18  and  C_32
   10  A    between atoms: C_23  and  C_29
   11  A    between atoms: C_26  and  N_35
   12  A    between atoms: C_26  and  C_36
   13  A    between atoms: N_31  and  C_32
                            x       y       z     vdW  Elec       q    Type
                         _______ _______ _______ _____ _____    ______ ____

>  <TORSDO>
F 13

$$$$
