=
 OpenBabel10222419313D

 42 46  0  0  1  0  0  0  0  0999 V2000
  185.3290  178.2700  143.9610 C   0  0  0  0  0  0  0  0  0  0  0  0
  180.8020  179.5430  141.9450 C   0  0  0  0  0  0  0  0  0  0  0  0
  183.4330  177.7080  140.2290 O   0  0  0  0  0  0  0  0  0  0  0  0
  183.2270  179.1480  144.7980 C   0  0  0  0  0  3  0  0  0  0  0  0
  179.8080  180.2810  141.7050 O   0  0  0  0  0  0  0  0  0  0  0  0
  182.6370  178.9750  143.5400 C   0  0  0  0  0  0  0  0  0  0  0  0
  181.5200  178.8990  140.8700 N   0  0  0  0  0  0  0  0  0  0  0  0
  184.5640  178.8040  145.0050 C   0  0  0  0  0  3  0  0  0  0  0  0
  183.4020  178.4480  142.4820 C   0  0  0  0  0  0  0  0  0  0  0  0
  182.8030  178.3110  141.1430 C   0  0  0  0  0  0  0  0  0  0  0  0
  180.3420  178.1310  143.9090 C   0  0  0  0  0  1  0  0  0  0  0  0
  184.7410  178.0990  142.7000 C   0  0  0  0  0  3  0  0  0  0  0  0
  181.1760  179.2820  143.3740 C   0  0  2  0  0  3  0  0  0  0  0  0
  186.7360  177.8900  144.1820 C   0  0  0  0  0  0  0  0  0  0  0  0
  187.2660  178.0600  145.3150 O   0  0  0  0  0  0  0  0  0  0  0  0
  187.5000  177.3180  143.1150 N   0  0  0  0  0  2  0  0  0  0  0  0
  188.9030  176.9650  143.2590 C   0  0  0  0  0  2  0  0  0  0  0  0
  189.6800  177.4100  142.0330 C   0  0  0  0  0  2  0  0  0  0  0  0
  188.7700  178.1810  141.0900 C   0  0  0  0  0  2  0  0  0  0  0  0
  189.9680  176.9800  139.3260 O   0  0  0  0  0  0  0  0  0  0  0  0
  189.2660  178.0930  139.7260 N   0  0  0  0  0  0  0  0  0  0  0  0
  188.9430  178.9590  138.8870 O   0  0  0  0  0  0  0  0  0  0  0  0
  181.0130  178.8730  139.4860 C   0  0  2  0  0  3  0  0  0  0  0  0
  180.2110  176.4050  140.0670 C   0  0  0  0  0  2  0  0  0  0  0  0
  179.0110  177.2190  139.5920 C   0  0  0  0  0  2  0  0  0  0  0  0
  180.3980  177.5240  139.0670 C   0  0  0  0  0  0  0  0  0  0  0  0
  181.6300  175.9970  135.9560 O   0  0  0  0  0  0  0  0  0  0  0  0
  180.5470  177.1160  137.6760 N   0  0  0  0  0  2  0  0  0  0  0  0
  181.5190  176.1810  137.1970 C   0  0  0  0  0  0  0  0  0  0  0  0
  182.4240  175.4430  138.1350 C   0  0  0  0  0  2  0  0  0  0  0  0
  184.5390  176.3230  137.4740 O   0  0  0  0  0  0  0  0  0  0  0  0
  183.8020  175.3050  137.5680 C   0  0  0  0  0  0  0  0  0  0  0  0
  184.8110  173.0940  138.0350 O   0  0  0  0  0  1  0  0  0  0  0  0
  184.2740  173.6930  135.8940 O   0  0  0  0  0  0  0  0  0  0  0  0
  184.3040  174.0010  137.1130 C   0  0  0  0  0  0  0  0  0  0  0  0
  182.0430  179.3800  138.4840 C   0  0  0  0  0  2  0  0  0  0  0  0
  182.0920  180.8960  138.5000 C   0  0  0  0  0  2  0  0  0  0  0  0
  179.6590  183.5320  137.7240 C   0  0  2  0  0  3  0  0  0  0  0  0
  178.9310  183.2350  136.5720 O   0  0  0  0  0  1  0  0  0  0  0  0
  180.9950  181.4420  137.6130 C   0  0  2  0  0  3  0  0  0  0  0  0
  181.0590  182.9560  137.6090 C   0  0  2  0  0  3  0  0  0  0  0  0
  180.0210  182.2480  138.4490 C   0  0  1  0  0  3  0  0  0  0  0  0
  1 14  1  0  0  0  0
  1  8  1  0  0  0  0
  2 13  1  0  0  0  0
  3 10  2  0  0  0  0
  4  8  2  0  0  0  0
  5  2  2  0  0  0  0
  6  4  1  0  0  0  0
  7 10  1  0  0  0  0
  7  2  1  0  0  0  0
  9 12  1  0  0  0  0
  9  6  2  0  0  0  0
 10  9  1  0  0  0  0
 12  1  2  0  0  0  0
 13  6  1  0  0  0  0
 13 11  1  6  0  0  0
 14 15  2  0  0  0  0
 16 17  1  0  0  0  0
 16 14  1  0  0  0  0
 18 17  1  0  0  0  0
 19 18  1  0  0  0  0
 20 21  2  0  0  0  0
 21 19  1  0  0  0  0
 22 21  2  0  0  0  0
 23 36  1  6  0  0  0
 23  7  1  0  0  0  0
 25 24  1  0  0  0  0
 26 23  1  0  0  0  0
 26 25  1  0  0  0  0
 26 24  1  0  0  0  0
 27 29  2  0  0  0  0
 28 26  1  0  0  0  0
 29 28  1  0  0  0  0
 29 30  1  0  0  0  0
 31 32  2  0  0  0  0
 32 30  1  0  0  0  0
 34 35  2  0  0  0  0
 35 32  1  0  0  0  0
 35 33  1  0  0  0  0
 36 37  1  0  0  0  0
 38 42  1  0  0  0  0
 39 38  1  0  0  0  0
 40 42  1  0  0  0  0
 40 37  1  0  0  0  0
 41 40  1  0  0  0  0
 41 38  1  0  0  0  0
 41 42  1  0  0  0  0
M  END
>  <MODEL>
1

>  <REMARK>
 VINA RESULT:      -7.1      0.000      0.000
  Name = 
  14 active torsions:
  status: ('A' for Active; 'I' for Inactive)
    1  A    between atoms: C_1  and  C_8
    2  A    between atoms: C_5  and  C_7
    3  A    between atoms: C_5  and  N_20
    4  A    between atoms: C_7  and  C_11
    5  A    between atoms: C_11  and  N_40
    6  A    between atoms: C_13  and  C_36
    7  A    between atoms: N_16  and  C_24
    8  A    between atoms: C_23  and  C_28
    9  A    between atoms: C_23  and  C_35
   10  A    between atoms: C_24  and  C_28
   11  A    between atoms: C_24  and  C_41
   12  A    between atoms: C_25  and  C_36
   13  A    between atoms: C_25  and  C_39
   14  A    between atoms: N_32  and  C_41
                            x       y       z     vdW  Elec       q    Type
                         _______ _______ _______ _____ _____    ______ ____

>  <TORSDO>
F 14

$$$$
=
 OpenBabel10222419313D

 42 46  0  0  1  0  0  0  0  0999 V2000
  185.4370  178.2720  143.6880 C   0  0  0  0  0  0  0  0  0  0  0  0
  180.8070  179.6880  142.0360 C   0  0  0  0  0  0  0  0  0  0  0  0
  183.3830  178.1220  140.0010 O   0  0  0  0  0  0  0  0  0  0  0  0
  183.3630  179.0040  144.7140 C   0  0  0  0  0  3  0  0  0  0  0  0
  179.7930  180.4290  141.9290 O   0  0  0  0  0  0  0  0  0  0  0  0
  182.7200  178.9700  143.4710 C   0  0  0  0  0  0  0  0  0  0  0  0
  181.4840  179.1910  140.8610 N   0  0  0  0  0  0  0  0  0  0  0  0
  184.7130  178.6630  144.8210 C   0  0  0  0  0  3  0  0  0  0  0  0
  183.4430  178.5880  142.3260 C   0  0  0  0  0  0  0  0  0  0  0  0
  182.7870  178.6000  141.0070 C   0  0  0  0  0  0  0  0  0  0  0  0
  180.4560  178.0430  143.8340 C   0  0  0  0  0  1  0  0  0  0  0  0
  184.7960  178.2410  142.4420 C   0  0  0  0  0  3  0  0  0  0  0  0
  181.2480  179.2660  143.4070 C   0  0  2  0  0  3  0  0  0  0  0  0
  186.8590  177.8960  143.8020 C   0  0  0  0  0  0  0  0  0  0  0  0
  187.5870  177.8610  142.7720 O   0  0  0  0  0  0  0  0  0  0  0  0
  187.4160  177.5800  145.0820 N   0  0  0  0  0  2  0  0  0  0  0  0
  188.7970  177.1590  145.2520 C   0  0  0  0  0  2  0  0  0  0  0  0
  189.3330  177.6600  146.5820 C   0  0  0  0  0  2  0  0  0  0  0  0
  189.9990  176.5220  147.3380 C   0  0  0  0  0  2  0  0  0  0  0  0
  192.1660  177.1430  148.2880 O   0  0  0  0  0  0  0  0  0  0  0  0
  191.4450  176.6270  147.2370 N   0  0  0  0  0  0  0  0  0  0  0  0
  192.0410  176.1300  146.2600 O   0  0  0  0  0  0  0  0  0  0  0  0
  180.9170  179.3200  139.5080 C   0  0  2  0  0  3  0  0  0  0  0  0
  180.1260  176.8020  139.8290 C   0  0  0  0  0  2  0  0  0  0  0  0
  178.9310  177.6470  139.3990 C   0  0  0  0  0  2  0  0  0  0  0  0
  180.3280  178.0120  138.9450 C   0  0  0  0  0  0  0  0  0  0  0  0
  181.6450  176.7730  135.7420 O   0  0  0  0  0  0  0  0  0  0  0  0
  180.5200  177.7400  137.5270 N   0  0  0  0  0  2  0  0  0  0  0  0
  181.4930  176.8370  136.9910 C   0  0  0  0  0  0  0  0  0  0  0  0
  182.3530  175.9930  137.8820 C   0  0  0  0  0  2  0  0  0  0  0  0
  181.0430  174.0190  137.6110 O   0  0  0  0  0  0  0  0  0  0  0  0
  182.1910  174.5370  137.5740 C   0  0  0  0  0  0  0  0  0  0  0  0
  183.2050  172.6240  136.3740 O   0  0  0  0  0  0  0  0  0  0  0  0
  184.4880  173.9650  137.7120 O   0  0  0  0  0  1  0  0  0  0  0  0
  183.3530  173.7050  137.2350 C   0  0  0  0  0  0  0  0  0  0  0  0
  181.8820  179.9890  138.5370 C   0  0  0  0  0  2  0  0  0  0  0  0
  181.1160  180.7910  137.5020 C   0  0  0  0  0  2  0  0  0  0  0  0
  179.7990  184.1970  137.1410 C   0  0  2  0  0  3  0  0  0  0  0  0
  180.5010  185.1050  137.9340 O   0  0  0  0  0  1  0  0  0  0  0  0
  181.1710  182.2580  137.8650 C   0  0  2  0  0  3  0  0  0  0  0  0
  179.7710  182.8390  137.8180 C   0  0  2  0  0  3  0  0  0  0  0  0
  180.7310  183.0910  136.6780 C   0  0  1  0  0  3  0  0  0  0  0  0
  1 14  1  0  0  0  0
  1  8  1  0  0  0  0
  2 13  1  0  0  0  0
  3 10  2  0  0  0  0
  4  8  2  0  0  0  0
  5  2  2  0  0  0  0
  6  4  1  0  0  0  0
  7 10  1  0  0  0  0
  7  2  1  0  0  0  0
  9 12  1  0  0  0  0
  9  6  2  0  0  0  0
 10  9  1  0  0  0  0
 12  1  2  0  0  0  0
 13  6  1  0  0  0  0
 13 11  1  6  0  0  0
 14 16  1  0  0  0  0
 15 14  2  0  0  0  0
 16 17  1  0  0  0  0
 17 18  1  0  0  0  0
 18 19  1  0  0  0  0
 21 19  1  0  0  0  0
 21 20  2  0  0  0  0
 22 21  2  0  0  0  0
 23 36  1  6  0  0  0
 23  7  1  0  0  0  0
 25 24  1  0  0  0  0
 26 25  1  0  0  0  0
 26 23  1  0  0  0  0
 26 24  1  0  0  0  0
 27 29  2  0  0  0  0
 28 26  1  0  0  0  0
 29 28  1  0  0  0  0
 29 30  1  0  0  0  0
 32 31  2  0  0  0  0
 32 30  1  0  0  0  0
 33 35  2  0  0  0  0
 35 32  1  0  0  0  0
 35 34  1  0  0  0  0
 37 40  1  0  0  0  0
 37 36  1  0  0  0  0
 38 41  1  0  0  0  0
 38 39  1  0  0  0  0
 41 40  1  0  0  0  0
 42 38  1  0  0  0  0
 42 41  1  0  0  0  0
 42 40  1  0  0  0  0
M  END
>  <MODEL>
2

>  <REMARK>
 VINA RESULT:      -7.0      1.991      2.893
  Name = 
  14 active torsions:
  status: ('A' for Active; 'I' for Inactive)
    1  A    between atoms: C_1  and  C_8
    2  A    between atoms: C_5  and  C_7
    3  A    between atoms: C_5  and  N_20
    4  A    between atoms: C_7  and  C_11
    5  A    between atoms: C_11  and  N_40
    6  A    between atoms: C_13  and  C_36
    7  A    between atoms: N_16  and  C_24
    8  A    between atoms: C_23  and  C_28
    9  A    between atoms: C_23  and  C_35
   10  A    between atoms: C_24  and  C_28
   11  A    between atoms: C_24  and  C_41
   12  A    between atoms: C_25  and  C_36
   13  A    between atoms: C_25  and  C_39
   14  A    between atoms: N_32  and  C_41
                            x       y       z     vdW  Elec       q    Type
                         _______ _______ _______ _____ _____    ______ ____

>  <TORSDO>
F 14

$$$$
=
 OpenBabel10222419313D

 42 46  0  0  1  0  0  0  0  0999 V2000
  185.4450  178.2690  144.1070 C   0  0  0  0  0  0  0  0  0  0  0  0
  181.0110  179.3760  141.8090 C   0  0  0  0  0  0  0  0  0  0  0  0
  183.5960  177.2000  140.4640 O   0  0  0  0  0  0  0  0  0  0  0  0
  183.3660  179.3440  144.7460 C   0  0  0  0  0  3  0  0  0  0  0  0
  180.0520  180.1030  141.4330 O   0  0  0  0  0  0  0  0  0  0  0  0
  182.7930  178.9980  143.5170 C   0  0  0  0  0  0  0  0  0  0  0  0
  181.7210  178.5460  140.8650 N   0  0  0  0  0  0  0  0  0  0  0  0
  184.6840  178.9870  145.0370 C   0  0  0  0  0  3  0  0  0  0  0  0
  183.5540  178.2840  142.5720 C   0  0  0  0  0  0  0  0  0  0  0  0
  182.9750  177.9620  141.2570 C   0  0  0  0  0  0  0  0  0  0  0  0
  180.4590  178.3070  143.9570 C   0  0  0  0  0  1  0  0  0  0  0  0
  184.8740  177.9240  142.8740 C   0  0  0  0  0  3  0  0  0  0  0  0
  181.3470  179.3290  143.2700 C   0  0  2  0  0  3  0  0  0  0  0  0
  186.8320  177.8770  144.4190 C   0  0  0  0  0  0  0  0  0  0  0  0
  187.3250  178.1420  145.5490 O   0  0  0  0  0  0  0  0  0  0  0  0
  187.6180  177.1850  143.4420 N   0  0  0  0  0  2  0  0  0  0  0  0
  189.0040  176.8120  143.6740 C   0  0  0  0  0  2  0  0  0  0  0  0
  189.6740  176.4550  142.3590 C   0  0  0  0  0  2  0  0  0  0  0  0
  189.1230  177.3250  141.2390 C   0  0  0  0  0  2  0  0  0  0  0  0
  191.4660  177.4630  140.5490 O   0  0  0  0  0  0  0  0  0  0  0  0
  190.1340  177.5300  140.2150 N   0  0  0  0  0  0  0  0  0  0  0  0
  189.7980  177.6320  139.0180 O   0  0  0  0  0  0  0  0  0  0  0  0
  181.2390  178.3230  139.4900 C   0  0  2  0  0  3  0  0  0  0  0  0
  181.5170  180.8730  138.7910 C   0  0  0  0  0  2  0  0  0  0  0  0
  182.8970  180.2270  138.8680 C   0  0  0  0  0  2  0  0  0  0  0  0
  181.6860  179.4020  138.4850 C   0  0  0  0  0  0  0  0  0  0  0  0
  182.5050  177.8380  135.2590 O   0  0  0  0  0  0  0  0  0  0  0  0
  181.7060  179.0440  137.0730 N   0  0  0  0  0  2  0  0  0  0  0  0
  182.4760  177.9770  136.5100 C   0  0  0  0  0  0  0  0  0  0  0  0
  183.2700  177.0440  137.3740 C   0  0  0  0  0  2  0  0  0  0  0  0
  184.7390  175.9280  135.8640 O   0  0  0  0  0  0  0  0  0  0  0  0
  184.6210  176.7770  136.7870 C   0  0  0  0  0  0  0  0  0  0  0  0
  185.6650  178.6200  138.0680 O   0  0  0  0  0  1  0  0  0  0  0  0
  186.9640  177.0720  136.9950 O   0  0  0  0  0  0  0  0  0  0  0  0
  185.8100  177.4860  137.2780 C   0  0  0  0  0  0  0  0  0  0  0  0
  179.7380  178.0640  139.4370 C   0  0  0  0  0  2  0  0  0  0  0  0
  179.4280  176.6670  139.9380 C   0  0  0  0  0  2  0  0  0  0  0  0
  179.6390  173.3830  138.3130 C   0  0  2  0  0  3  0  0  0  0  0  0
  180.8700  173.2010  137.6820 O   0  0  0  0  0  1  0  0  0  0  0  0
  180.2100  175.6580  139.1260 C   0  0  2  0  0  3  0  0  0  0  0  0
  179.2530  174.8500  138.2720 C   0  0  2  0  0  3  0  0  0  0  0  0
  179.8150  174.2550  139.5430 C   0  0  1  0  0  3  0  0  0  0  0  0
  1 14  1  0  0  0  0
  1  8  1  0  0  0  0
  2 13  1  0  0  0  0
  3 10  2  0  0  0  0
  4  8  2  0  0  0  0
  5  2  2  0  0  0  0
  6  4  1  0  0  0  0
  7 10  1  0  0  0  0
  7  2  1  0  0  0  0
  9 12  1  0  0  0  0
  9  6  2  0  0  0  0
 10  9  1  0  0  0  0
 12  1  2  0  0  0  0
 13  6  1  0  0  0  0
 13 11  1  1  0  0  0
 14 15  2  0  0  0  0
 16 17  1  0  0  0  0
 16 14  1  0  0  0  0
 18 17  1  0  0  0  0
 19 18  1  0  0  0  0
 21 20  2  0  0  0  0
 21 19  1  0  0  0  0
 22 21  2  0  0  0  0
 23 36  1  1  0  0  0
 23  7  1  0  0  0  0
 24 25  1  0  0  0  0
 26 24  1  0  0  0  0
 26 25  1  0  0  0  0
 26 23  1  0  0  0  0
 27 29  2  0  0  0  0
 28 26  1  0  0  0  0
 29 28  1  0  0  0  0
 29 30  1  0  0  0  0
 31 32  2  0  0  0  0
 32 35  1  0  0  0  0
 32 30  1  0  0  0  0
 34 35  2  0  0  0  0
 35 33  1  0  0  0  0
 36 37  1  0  0  0  0
 38 42  1  0  0  0  0
 39 38  1  0  0  0  0
 40 42  1  0  0  0  0
 40 37  1  0  0  0  0
 41 38  1  0  0  0  0
 41 40  1  0  0  0  0
 41 42  1  0  0  0  0
M  END
>  <MODEL>
3

>  <REMARK>
 VINA RESULT:      -6.6      1.686      3.686
  Name = 
  14 active torsions:
  status: ('A' for Active; 'I' for Inactive)
    1  A    between atoms: C_1  and  C_8
    2  A    between atoms: C_5  and  C_7
    3  A    between atoms: C_5  and  N_20
    4  A    between atoms: C_7  and  C_11
    5  A    between atoms: C_11  and  N_40
    6  A    between atoms: C_13  and  C_36
    7  A    between atoms: N_16  and  C_24
    8  A    between atoms: C_23  and  C_28
    9  A    between atoms: C_23  and  C_35
   10  A    between atoms: C_24  and  C_28
   11  A    between atoms: C_24  and  C_41
   12  A    between atoms: C_25  and  C_36
   13  A    between atoms: C_25  and  C_39
   14  A    between atoms: N_32  and  C_41
                            x       y       z     vdW  Elec       q    Type
                         _______ _______ _______ _____ _____    ______ ____

>  <TORSDO>
F 14

$$$$
=
 OpenBabel10222419313D

 42 46  0  0  1  0  0  0  0  0999 V2000
  183.0460  178.9610  140.0170 C   0  0  0  0  0  0  0  0  0  0  0  0
  186.2450  177.7900  143.8330 C   0  0  0  0  0  0  0  0  0  0  0  0
  187.2260  179.1180  140.5920 O   0  0  0  0  0  0  0  0  0  0  0  0
  182.8310  178.3980  142.3680 C   0  0  0  0  0  3  0  0  0  0  0  0
  186.7050  177.1110  144.7910 O   0  0  0  0  0  0  0  0  0  0  0  0
  184.2220  178.4320  142.5180 C   0  0  0  0  0  0  0  0  0  0  0  0
  187.1000  178.2030  142.7450 N   0  0  0  0  0  0  0  0  0  0  0  0
  182.2470  178.6560  141.1260 C   0  0  0  0  0  3  0  0  0  0  0  0
  185.0330  178.7280  141.4050 C   0  0  0  0  0  0  0  0  0  0  0  0
  186.5000  178.7130  141.5430 C   0  0  0  0  0  0  0  0  0  0  0  0
  184.7090  179.5130  144.6880 C   0  0  0  0  0  1  0  0  0  0  0  0
  184.4390  178.9910  140.1640 C   0  0  0  0  0  3  0  0  0  0  0  0
  184.8110  178.2280  143.8850 C   0  0  2  0  0  3  0  0  0  0  0  0
  182.4300  179.2490  138.7080 C   0  0  0  0  0  0  0  0  0  0  0  0
  182.7560  178.5730  137.6940 O   0  0  0  0  0  0  0  0  0  0  0  0
  181.4540  180.2900  138.5890 N   0  0  0  0  0  2  0  0  0  0  0  0
  180.8450  180.6500  137.3190 C   0  0  0  0  0  2  0  0  0  0  0  0
  180.1140  181.9740  137.4500 C   0  0  0  0  0  2  0  0  0  0  0  0
  180.9980  182.9920  138.1540 C   0  0  0  0  0  2  0  0  0  0  0  0
  181.0450  183.9620  135.9090 O   0  0  0  0  0  0  0  0  0  0  0  0
  181.5270  183.9490  137.1970 N   0  0  0  0  0  0  0  0  0  0  0  0
  182.3140  184.8410  137.5750 O   0  0  0  0  0  0  0  0  0  0  0  0
  188.5660  178.0640  142.7960 C   0  0  2  0  0  3  0  0  0  0  0  0
  190.4590  176.2370  142.4070 C   0  0  0  0  0  2  0  0  0  0  0  0
  189.1850  175.5400  142.8740 C   0  0  0  0  0  2  0  0  0  0  0  0
  189.1060  176.8190  142.0660 C   0  0  0  0  0  0  0  0  0  0  0  0
  188.8020  176.7050  138.4030 O   0  0  0  0  0  0  0  0  0  0  0  0
  188.6280  176.5690  140.7120 N   0  0  0  0  0  2  0  0  0  0  0  0
  189.3650  176.8540  139.5190 C   0  0  0  0  0  0  0  0  0  0  0  0
  190.7770  177.3530  139.5720 C   0  0  0  0  0  2  0  0  0  0  0  0
  191.2930  175.2860  138.5020 O   0  0  0  0  0  0  0  0  0  0  0  0
  191.7130  176.4120  138.8800 C   0  0  0  0  0  0  0  0  0  0  0  0
  193.6730  176.6100  137.3820 O   0  0  0  0  0  0  0  0  0  0  0  0
  193.8170  177.2590  139.5700 O   0  0  0  0  0  1  0  0  0  0  0  0
  193.1150  176.7810  138.6420 C   0  0  0  0  0  0  0  0  0  0  0  0
  189.1110  178.1880  144.2140 C   0  0  0  0  0  2  0  0  0  0  0  0
  190.5680  178.6070  144.1840 C   0  0  0  0  0  2  0  0  0  0  0  0
  191.3520  176.2900  146.9200 C   0  0  2  0  0  3  0  0  0  0  0  0
  192.0560  176.9240  147.9430 O   0  0  0  0  0  1  0  0  0  0  0  0
  191.1930  178.3460  145.5360 C   0  0  2  0  0  3  0  0  0  0  0  0
  191.7070  176.9200  145.5850 C   0  0  2  0  0  3  0  0  0  0  0  0
  190.4020  177.2750  146.2620 C   0  0  1  0  0  3  0  0  0  0  0  0
  1 12  2  0  0  0  0
  1  8  1  0  0  0  0
  2 13  1  0  0  0  0
  2  5  2  0  0  0  0
  3 10  2  0  0  0  0
  4  6  1  0  0  0  0
  6 13  1  0  0  0  0
  7 23  1  0  0  0  0
  7  2  1  0  0  0  0
  8  4  2  0  0  0  0
  9 10  1  0  0  0  0
  9  6  2  0  0  0  0
 10  7  1  0  0  0  0
 12  9  1  0  0  0  0
 13 11  1  1  0  0  0
 14  1  1  0  0  0  0
 15 14  2  0  0  0  0
 16 14  1  0  0  0  0
 17 18  1  0  0  0  0
 17 16  1  0  0  0  0
 18 19  1  0  0  0  0
 20 21  2  0  0  0  0
 21 22  2  0  0  0  0
 21 19  1  0  0  0  0
 23 36  1  1  0  0  0
 24 25  1  0  0  0  0
 26 24  1  0  0  0  0
 26 23  1  0  0  0  0
 26 25  1  0  0  0  0
 27 29  2  0  0  0  0
 28 26  1  0  0  0  0
 29 30  1  0  0  0  0
 29 28  1  0  0  0  0
 31 32  2  0  0  0  0
 32 30  1  0  0  0  0
 33 35  2  0  0  0  0
 35 32  1  0  0  0  0
 35 34  1  0  0  0  0
 37 36  1  0  0  0  0
 37 40  1  0  0  0  0
 38 39  1  0  0  0  0
 40 41  1  0  0  0  0
 40 42  1  0  0  0  0
 41 42  1  0  0  0  0
 41 38  1  0  0  0  0
 42 38  1  0  0  0  0
M  END
>  <MODEL>
4

>  <REMARK>
 VINA RESULT:      -6.6      2.681      9.236
  Name = 
  14 active torsions:
  status: ('A' for Active; 'I' for Inactive)
    1  A    between atoms: C_1  and  C_8
    2  A    between atoms: C_5  and  C_7
    3  A    between atoms: C_5  and  N_20
    4  A    between atoms: C_7  and  C_11
    5  A    between atoms: C_11  and  N_40
    6  A    between atoms: C_13  and  C_36
    7  A    between atoms: N_16  and  C_24
    8  A    between atoms: C_23  and  C_28
    9  A    between atoms: C_23  and  C_35
   10  A    between atoms: C_24  and  C_28
   11  A    between atoms: C_24  and  C_41
   12  A    between atoms: C_25  and  C_36
   13  A    between atoms: C_25  and  C_39
   14  A    between atoms: N_32  and  C_41
                            x       y       z     vdW  Elec       q    Type
                         _______ _______ _______ _____ _____    ______ ____

>  <TORSDO>
F 14

$$$$
=
 OpenBabel10222419313D

 42 46  0  0  1  0  0  0  0  0999 V2000
  188.3040  177.1580  138.5270 C   0  0  0  0  0  0  0  0  0  0  0  0
  183.4010  177.2370  137.0690 C   0  0  0  0  0  0  0  0  0  0  0  0
  184.9580  179.5960  139.3580 O   0  0  0  0  0  0  0  0  0  0  0  0
  186.9650  176.0500  136.8330 C   0  0  0  0  0  3  0  0  0  0  0  0
  182.2720  176.7570  136.7780 O   0  0  0  0  0  0  0  0  0  0  0  0
  185.8670  176.8560  137.1520 C   0  0  0  0  0  0  0  0  0  0  0  0
  183.5210  178.3110  138.0260 N   0  0  0  0  0  0  0  0  0  0  0  0
  188.1740  176.1950  137.5180 C   0  0  0  0  0  3  0  0  0  0  0  0
  185.9870  177.8190  138.1720 C   0  0  0  0  0  0  0  0  0  0  0  0
  184.8200  178.6350  138.5500 C   0  0  0  0  0  0  0  0  0  0  0  0
  184.7600  177.4760  135.0300 C   0  0  0  0  0  1  0  0  0  0  0  0
  187.2040  177.9640  138.8510 C   0  0  0  0  0  3  0  0  0  0  0  0
  184.6090  176.7260  136.3410 C   0  0  2  0  0  3  0  0  0  0  0  0
  189.5840  177.3250  139.2400 C   0  0  0  0  0  0  0  0  0  0  0  0
  190.6530  177.4870  138.5900 O   0  0  0  0  0  0  0  0  0  0  0  0
  189.6120  177.3120  140.6720 N   0  0  0  0  0  2  0  0  0  0  0  0
  190.8470  177.4270  141.4310 C   0  0  0  0  0  2  0  0  0  0  0  0
  190.7780  176.5540  142.6710 C   0  0  0  0  0  2  0  0  0  0  0  0
  191.4330  177.2640  143.8460 C   0  0  0  0  0  2  0  0  0  0  0  0
  189.5200  178.2990  144.9670 O   0  0  0  0  0  0  0  0  0  0  0  0
  190.6640  178.4400  144.2170 N   0  0  0  0  0  0  0  0  0  0  0  0
  191.1090  179.5800  143.9720 O   0  0  0  0  0  0  0  0  0  0  0  0
  182.3520  179.0510  138.5340 C   0  0  2  0  0  3  0  0  0  0  0  0
  180.6240  177.2820  139.5100 C   0  0  0  0  0  2  0  0  0  0  0  0
  182.0240  176.9320  140.0040 C   0  0  0  0  0  2  0  0  0  0  0  0
  181.6490  178.3720  139.7250 C   0  0  0  0  0  0  0  0  0  0  0  0
  182.1090  179.6710  143.1350 O   0  0  0  0  0  0  0  0  0  0  0  0
  181.5130  179.1390  140.9570 N   0  0  0  0  0  2  0  0  0  0  0  0
  182.3960  179.0460  142.0800 C   0  0  0  0  0  0  0  0  0  0  0  0
  183.6320  178.2010  142.0360 C   0  0  0  0  0  2  0  0  0  0  0  0
  185.3940  179.7890  142.2730 O   0  0  0  0  0  0  0  0  0  0  0  0
  184.7540  178.8380  142.7950 C   0  0  0  0  0  0  0  0  0  0  0  0
  186.2330  177.5470  144.3030 O   0  0  0  0  0  0  0  0  0  0  0  0
  184.4430  178.6990  145.1410 O   0  0  0  0  0  1  0  0  0  0  0  0
  185.1220  178.3650  144.1360 C   0  0  0  0  0  0  0  0  0  0  0  0
  181.3800  179.4310  137.4240 C   0  0  0  0  0  2  0  0  0  0  0  0
  180.4630  180.5470  137.8870 C   0  0  0  0  0  2  0  0  0  0  0  0
  180.6700  183.9880  136.6280 C   0  0  2  0  0  3  0  0  0  0  0  0
  181.8210  184.6310  137.0820 O   0  0  0  0  0  1  0  0  0  0  0  0
  181.1980  181.8660  137.8050 C   0  0  2  0  0  3  0  0  0  0  0  0
  180.1930  182.9930  137.6710 C   0  0  2  0  0  3  0  0  0  0  0  0
  180.9450  182.5050  136.4540 C   0  0  1  0  0  3  0  0  0  0  0  0
  1 12  1  0  0  0  0
  1 14  1  0  0  0  0
  2  7  1  0  0  0  0
  4  6  2  0  0  0  0
  4  8  1  0  0  0  0
  5  2  2  0  0  0  0
  6  9  1  0  0  0  0
  7 23  1  0  0  0  0
  7 10  1  0  0  0  0
  8  1  2  0  0  0  0
  9 10  1  0  0  0  0
  9 12  2  0  0  0  0
 10  3  2  0  0  0  0
 13 11  1  6  0  0  0
 13  2  1  0  0  0  0
 13  6  1  0  0  0  0
 14 16  1  0  0  0  0
 15 14  2  0  0  0  0
 16 17  1  0  0  0  0
 17 18  1  0  0  0  0
 18 19  1  0  0  0  0
 19 21  1  0  0  0  0
 21 20  2  0  0  0  0
 22 21  2  0  0  0  0
 23 36  1  6  0  0  0
 23 26  1  0  0  0  0
 24 26  1  0  0  0  0
 24 25  1  0  0  0  0
 26 25  1  0  0  0  0
 26 28  1  0  0  0  0
 28 29  1  0  0  0  0
 29 27  2  0  0  0  0
 30 29  1  0  0  0  0
 30 32  1  0  0  0  0
 31 32  2  0  0  0  0
 32 35  1  0  0  0  0
 35 33  2  0  0  0  0
 35 34  1  0  0  0  0
 36 37  1  0  0  0  0
 38 39  1  0  0  0  0
 38 41  1  0  0  0  0
 40 37  1  0  0  0  0
 41 40  1  0  0  0  0
 42 38  1  0  0  0  0
 42 41  1  0  0  0  0
 42 40  1  0  0  0  0
M  END
>  <MODEL>
5

>  <REMARK>
 VINA RESULT:      -6.5      2.288      5.537
  Name = 
  14 active torsions:
  status: ('A' for Active; 'I' for Inactive)
    1  A    between atoms: C_1  and  C_8
    2  A    between atoms: C_5  and  C_7
    3  A    between atoms: C_5  and  N_20
    4  A    between atoms: C_7  and  C_11
    5  A    between atoms: C_11  and  N_40
    6  A    between atoms: C_13  and  C_36
    7  A    between atoms: N_16  and  C_24
    8  A    between atoms: C_23  and  C_28
    9  A    between atoms: C_23  and  C_35
   10  A    between atoms: C_24  and  C_28
   11  A    between atoms: C_24  and  C_41
   12  A    between atoms: C_25  and  C_36
   13  A    between atoms: C_25  and  C_39
   14  A    between atoms: N_32  and  C_41
                            x       y       z     vdW  Elec       q    Type
                         _______ _______ _______ _____ _____    ______ ____

>  <TORSDO>
F 14

$$$$
=
 OpenBabel10222419313D

 42 46  0  0  1  0  0  0  0  0999 V2000
  185.3010  178.2520  144.3190 C   0  0  0  0  0  0  0  0  0  0  0  0
  181.0160  179.3650  141.7550 C   0  0  0  0  0  0  0  0  0  0  0  0
  183.6560  177.1510  140.5890 O   0  0  0  0  0  0  0  0  0  0  0  0
  183.1970  179.3520  144.8240 C   0  0  0  0  0  3  0  0  0  0  0  0
  180.0870  180.0940  141.3160 O   0  0  0  0  0  0  0  0  0  0  0  0
  182.6930  178.9940  143.5680 C   0  0  0  0  0  0  0  0  0  0  0  0
  181.7730  178.5170  140.8640 N   0  0  0  0  0  0  0  0  0  0  0  0
  184.4930  178.9880  145.1950 C   0  0  0  0  0  3  0  0  0  0  0  0
  183.5020  178.2620  142.6780 C   0  0  0  0  0  0  0  0  0  0  0  0
  182.9970  177.9280  141.3350 C   0  0  0  0  0  0  0  0  0  0  0  0
  180.3320  178.3270  143.8800 C   0  0  0  0  0  1  0  0  0  0  0  0
  184.7990  177.8960  143.0600 C   0  0  0  0  0  3  0  0  0  0  0  0
  181.2670  179.3330  143.2340 C   0  0  2  0  0  3  0  0  0  0  0  0
  186.6640  177.8530  144.7160 C   0  0  0  0  0  0  0  0  0  0  0  0
  186.8960  177.4920  145.9020 O   0  0  0  0  0  0  0  0  0  0  0  0
  187.7230  177.8660  143.7520 N   0  0  0  0  0  2  0  0  0  0  0  0
  189.0950  177.5270  144.0930 C   0  0  0  0  0  2  0  0  0  0  0  0
  190.0500  178.5180  143.4530 C   0  0  0  0  0  2  0  0  0  0  0  0
  191.2390  177.7850  142.8520 C   0  0  0  0  0  2  0  0  0  0  0  0
  190.4040  175.7860  141.7160 O   0  0  0  0  0  0  0  0  0  0  0  0
  190.8430  177.0870  141.6410 N   0  0  0  0  0  0  0  0  0  0  0  0
  190.7730  177.7040  140.5580 O   0  0  0  0  0  0  0  0  0  0  0  0
  181.3690  178.2800  139.4670 C   0  0  2  0  0  3  0  0  0  0  0  0
  182.9820  178.3650  137.3540 C   0  0  0  0  0  2  0  0  0  0  0  0
  181.6750  179.0710  137.0090 C   0  0  0  0  0  2  0  0  0  0  0  0
  182.1920  179.0720  138.4320 C   0  0  0  0  0  0  0  0  0  0  0  0
  182.7000  182.7040  138.7120 O   0  0  0  0  0  0  0  0  0  0  0  0
  182.6850  180.3870  138.8230 N   0  0  0  0  0  2  0  0  0  0  0  0
  182.1160  181.6320  138.4060 C   0  0  0  0  0  0  0  0  0  0  0  0
  180.8600  181.6830  137.5890 C   0  0  0  0  0  2  0  0  0  0  0  0
  179.5770  183.5270  138.3870 O   0  0  0  0  0  0  0  0  0  0  0  0
  180.3360  183.0810  137.4850 C   0  0  0  0  0  0  0  0  0  0  0  0
  180.0540  183.7590  135.1210 O   0  0  0  0  0  0  0  0  0  0  0  0
  181.5600  184.8370  136.4650 O   0  0  0  0  0  1  0  0  0  0  0  0
  180.6890  183.9370  136.3440 C   0  0  0  0  0  0  0  0  0  0  0  0
  179.8680  178.4420  139.2620 C   0  0  0  0  0  2  0  0  0  0  0  0
  179.1660  177.1100  139.4410 C   0  0  0  0  0  2  0  0  0  0  0  0
  179.8410  173.6140  138.5520 C   0  0  2  0  0  3  0  0  0  0  0  0
  180.5460  173.5170  137.3510 O   0  0  0  0  0  1  0  0  0  0  0  0
  179.7690  176.0950  138.4950 C   0  0  2  0  0  3  0  0  0  0  0  0
  178.9340  174.8300  138.5170 C   0  0  2  0  0  3  0  0  0  0  0  0
  180.2380  174.8860  139.2790 C   0  0  1  0  0  3  0  0  0  0  0  0
  1 14  1  0  0  0  0
  1  8  1  0  0  0  0
  2 13  1  0  0  0  0
  3 10  2  0  0  0  0
  4  8  2  0  0  0  0
  5  2  2  0  0  0  0
  6  4  1  0  0  0  0
  7 10  1  0  0  0  0
  7  2  1  0  0  0  0
  9 12  1  0  0  0  0
  9  6  2  0  0  0  0
 10  9  1  0  0  0  0
 12  1  2  0  0  0  0
 13  6  1  0  0  0  0
 13 11  1  1  0  0  0
 14 15  2  0  0  0  0
 16 17  1  0  0  0  0
 16 14  1  0  0  0  0
 18 17  1  0  0  0  0
 19 18  1  0  0  0  0
 21 20  2  0  0  0  0
 21 19  1  0  0  0  0
 22 21  2  0  0  0  0
 23 36  1  1  0  0  0
 23  7  1  0  0  0  0
 24 26  1  0  0  0  0
 25 24  1  0  0  0  0
 25 26  1  0  0  0  0
 26 28  1  0  0  0  0
 26 23  1  0  0  0  0
 29 27  2  0  0  0  0
 29 28  1  0  0  0  0
 30 29  1  0  0  0  0
 32 30  1  0  0  0  0
 32 31  2  0  0  0  0
 33 35  2  0  0  0  0
 35 34  1  0  0  0  0
 35 32  1  0  0  0  0
 36 37  1  0  0  0  0
 38 42  1  0  0  0  0
 39 38  1  0  0  0  0
 40 41  1  0  0  0  0
 40 42  1  0  0  0  0
 40 37  1  0  0  0  0
 41 38  1  0  0  0  0
 41 42  1  0  0  0  0
M  END
>  <MODEL>
6

>  <REMARK>
 VINA RESULT:      -6.3      1.921      5.230
  Name = 
  14 active torsions:
  status: ('A' for Active; 'I' for Inactive)
    1  A    between atoms: C_1  and  C_8
    2  A    between atoms: C_5  and  C_7
    3  A    between atoms: C_5  and  N_20
    4  A    between atoms: C_7  and  C_11
    5  A    between atoms: C_11  and  N_40
    6  A    between atoms: C_13  and  C_36
    7  A    between atoms: N_16  and  C_24
    8  A    between atoms: C_23  and  C_28
    9  A    between atoms: C_23  and  C_35
   10  A    between atoms: C_24  and  C_28
   11  A    between atoms: C_24  and  C_41
   12  A    between atoms: C_25  and  C_36
   13  A    between atoms: C_25  and  C_39
   14  A    between atoms: N_32  and  C_41
                            x       y       z     vdW  Elec       q    Type
                         _______ _______ _______ _____ _____    ______ ____

>  <TORSDO>
F 14

$$$$
=
 OpenBabel10222419313D

 42 46  0  0  1  0  0  0  0  0999 V2000
  182.5120  178.8720  142.8770 C   0  0  0  0  0  0  0  0  0  0  0  0
  186.8500  177.9240  145.4190 C   0  0  0  0  0  0  0  0  0  0  0  0
  186.6310  179.0260  141.9590 O   0  0  0  0  0  0  0  0  0  0  0  0
  183.1320  178.4680  145.1880 C   0  0  0  0  0  3  0  0  0  0  0  0
  187.6220  177.3060  146.2010 O   0  0  0  0  0  0  0  0  0  0  0  0
  184.4880  178.4980  144.8450 C   0  0  0  0  0  0  0  0  0  0  0  0
  187.2700  178.2560  144.0770 N   0  0  0  0  0  0  0  0  0  0  0  0
  182.1510  178.6480  144.2110 C   0  0  0  0  0  3  0  0  0  0  0  0
  184.8600  178.7120  143.5040 C   0  0  0  0  0  0  0  0  0  0  0  0
  186.2840  178.6920  143.1260 C   0  0  0  0  0  0  0  0  0  0  0  0
  185.6800  179.7150  146.6370 C   0  0  0  0  0  1  0  0  0  0  0  0
  183.8700  178.8980  142.5300 C   0  0  0  0  0  3  0  0  0  0  0  0
  185.5170  178.3790  145.9340 C   0  0  2  0  0  3  0  0  0  0  0  0
  181.4780  179.0780  141.8460 C   0  0  0  0  0  0  0  0  0  0  0  0
  180.7890  180.1350  141.8460 O   0  0  0  0  0  0  0  0  0  0  0  0
  181.2620  178.0840  140.8390 N   0  0  0  0  0  2  0  0  0  0  0  0
  180.2290  178.2100  139.8240 C   0  0  0  0  0  2  0  0  0  0  0  0
  180.8360  178.0560  138.4410 C   0  0  0  0  0  2  0  0  0  0  0  0
  181.5650  179.3300  138.0450 C   0  0  0  0  0  2  0  0  0  0  0  0
  183.7560  178.2530  137.8900 O   0  0  0  0  0  0  0  0  0  0  0  0
  182.9670  179.2470  138.4190 N   0  0  0  0  0  0  0  0  0  0  0  0
  183.4840  180.1490  139.1100 O   0  0  0  0  0  0  0  0  0  0  0  0
  188.6650  178.1070  143.6270 C   0  0  2  0  0  3  0  0  0  0  0  0
  189.9300  175.8690  142.9480 C   0  0  0  0  0  2  0  0  0  0  0  0
  188.4480  175.5630  143.1410 C   0  0  0  0  0  2  0  0  0  0  0  0
  188.8910  176.9290  142.6600 C   0  0  0  0  0  0  0  0  0  0  0  0
  189.1060  177.6780  139.0660 O   0  0  0  0  0  0  0  0  0  0  0  0
  188.5630  177.1350  141.2550 N   0  0  0  0  0  2  0  0  0  0  0  0
  189.5180  177.4000  140.2230 C   0  0  0  0  0  0  0  0  0  0  0  0
  190.9920  177.3820  140.4960 C   0  0  0  0  0  2  0  0  0  0  0  0
  191.1680  175.6300  138.8880 O   0  0  0  0  0  0  0  0  0  0  0  0
  191.7300  176.6090  139.4490 C   0  0  0  0  0  0  0  0  0  0  0  0
  193.5420  176.7620  137.7700 O   0  0  0  0  0  0  0  0  0  0  0  0
  193.8860  177.4810  139.9140 O   0  0  0  0  0  1  0  0  0  0  0  0
  193.1030  176.9720  139.0700 C   0  0  0  0  0  0  0  0  0  0  0  0
  189.6510  178.1030  144.7890 C   0  0  0  0  0  2  0  0  0  0  0  0
  191.0140  177.6310  144.3210 C   0  0  0  0  0  2  0  0  0  0  0  0
  191.7980  175.6040  147.2790 C   0  0  2  0  0  3  0  0  0  0  0  0
  192.9280  176.0820  147.9420 O   0  0  0  0  0  1  0  0  0  0  0  0
  191.8900  177.3580  145.5240 C   0  0  2  0  0  3  0  0  0  0  0  0
  191.9290  175.8660  145.7890 C   0  0  2  0  0  3  0  0  0  0  0  0
  191.0520  176.7600  146.6360 C   0  0  1  0  0  3  0  0  0  0  0  0
  1  8  1  0  0  0  0
  2 13  1  0  0  0  0
  2  5  2  0  0  0  0
  3 10  2  0  0  0  0
  6  4  1  0  0  0  0
  6 13  1  0  0  0  0
  7  2  1  0  0  0  0
  8  4  2  0  0  0  0
  9  6  2  0  0  0  0
 10  9  1  0  0  0  0
 10  7  1  0  0  0  0
 12  1  2  0  0  0  0
 12  9  1  0  0  0  0
 13 11  1  6  0  0  0
 14 15  2  0  0  0  0
 14  1  1  0  0  0  0
 16 14  1  0  0  0  0
 17 16  1  0  0  0  0
 18 17  1  0  0  0  0
 19 21  1  0  0  0  0
 19 18  1  0  0  0  0
 20 21  2  0  0  0  0
 21 22  2  0  0  0  0
 23  7  1  0  0  0  0
 23 36  1  1  0  0  0
 24 25  1  0  0  0  0
 26 24  1  0  0  0  0
 26 25  1  0  0  0  0
 26 23  1  0  0  0  0
 27 29  2  0  0  0  0
 28 26  1  0  0  0  0
 29 30  1  0  0  0  0
 29 28  1  0  0  0  0
 31 32  2  0  0  0  0
 32 30  1  0  0  0  0
 33 35  2  0  0  0  0
 35 32  1  0  0  0  0
 35 34  1  0  0  0  0
 37 36  1  0  0  0  0
 37 40  1  0  0  0  0
 38 39  1  0  0  0  0
 40 41  1  0  0  0  0
 40 42  1  0  0  0  0
 41 42  1  0  0  0  0
 41 38  1  0  0  0  0
 42 38  1  0  0  0  0
M  END
>  <MODEL>
7

>  <REMARK>
 VINA RESULT:      -6.1      2.573      9.059
  Name = 
  14 active torsions:
  status: ('A' for Active; 'I' for Inactive)
    1  A    between atoms: C_1  and  C_8
    2  A    between atoms: C_5  and  C_7
    3  A    between atoms: C_5  and  N_20
    4  A    between atoms: C_7  and  C_11
    5  A    between atoms: C_11  and  N_40
    6  A    between atoms: C_13  and  C_36
    7  A    between atoms: N_16  and  C_24
    8  A    between atoms: C_23  and  C_28
    9  A    between atoms: C_23  and  C_35
   10  A    between atoms: C_24  and  C_28
   11  A    between atoms: C_24  and  C_41
   12  A    between atoms: C_25  and  C_36
   13  A    between atoms: C_25  and  C_39
   14  A    between atoms: N_32  and  C_41
                            x       y       z     vdW  Elec       q    Type
                         _______ _______ _______ _____ _____    ______ ____

>  <TORSDO>
F 14

$$$$
=
 OpenBabel10222419313D

 42 46  0  0  1  0  0  0  0  0999 V2000
  183.0480  179.0090  140.2570 C   0  0  0  0  0  0  0  0  0  0  0  0
  186.4030  177.8050  143.9260 C   0  0  0  0  0  0  0  0  0  0  0  0
  187.2440  179.2190  140.6820 O   0  0  0  0  0  0  0  0  0  0  0  0
  182.9290  178.3920  142.6010 C   0  0  0  0  0  3  0  0  0  0  0  0
  186.9080  177.1130  144.8520 O   0  0  0  0  0  0  0  0  0  0  0  0
  184.3240  178.4440  142.7000 C   0  0  0  0  0  0  0  0  0  0  0  0
  187.2120  178.2550  142.8170 N   0  0  0  0  0  0  0  0  0  0  0  0
  182.2960  178.6670  141.3870 C   0  0  0  0  0  3  0  0  0  0  0  0
  185.0890  178.7770  141.5660 C   0  0  0  0  0  0  0  0  0  0  0  0
  186.5600  178.7820  141.6490 C   0  0  0  0  0  0  0  0  0  0  0  0
  184.8740  179.4850  144.8750 C   0  0  0  0  0  1  0  0  0  0  0  0
  184.4460  179.0580  140.3530 C   0  0  0  0  0  3  0  0  0  0  0  0
  184.9660  178.2200  144.0400 C   0  0  2  0  0  3  0  0  0  0  0  0
  182.3800  179.3160  138.9780 C   0  0  0  0  0  0  0  0  0  0  0  0
  182.0380  180.5010  138.7130 O   0  0  0  0  0  0  0  0  0  0  0  0
  182.1290  178.2710  138.0320 N   0  0  0  0  0  2  0  0  0  0  0  0
  181.4360  178.5020  136.7760 C   0  0  0  0  0  2  0  0  0  0  0  0
  181.6470  177.3250  135.8410 C   0  0  0  0  0  2  0  0  0  0  0  0
  183.0320  177.3940  135.2180 C   0  0  0  0  0  2  0  0  0  0  0  0
  184.8900  176.3830  136.4470 O   0  0  0  0  0  0  0  0  0  0  0  0
  183.8160  176.2320  135.6010 N   0  0  0  0  0  0  0  0  0  0  0  0
  183.4390  175.0880  135.2740 O   0  0  0  0  0  0  0  0  0  0  0  0
  188.6800  178.1380  142.8120 C   0  0  2  0  0  3  0  0  0  0  0  0
  190.5930  176.3580  142.3160 C   0  0  0  0  0  2  0  0  0  0  0  0
  189.3600  175.6290  142.8440 C   0  0  0  0  0  2  0  0  0  0  0  0
  189.2100  176.9090  142.0490 C   0  0  0  0  0  0  0  0  0  0  0  0
  188.7230  176.7990  138.4050 O   0  0  0  0  0  0  0  0  0  0  0  0
  188.6690  176.6530  140.7200 N   0  0  0  0  0  2  0  0  0  0  0  0
  189.3390  176.9560  139.4910 C   0  0  0  0  0  0  0  0  0  0  0  0
  190.7420  177.4830  139.4740 C   0  0  0  0  0  2  0  0  0  0  0  0
  191.2670  175.3380  138.5750 O   0  0  0  0  0  0  0  0  0  0  0  0
  191.6970  176.4680  138.9280 C   0  0  0  0  0  0  0  0  0  0  0  0
  193.7700  176.6020  137.5820 O   0  0  0  0  0  0  0  0  0  0  0  0
  193.7830  177.1900  139.7930 O   0  0  0  0  0  1  0  0  0  0  0  0
  193.1290  176.7710  138.8030 C   0  0  0  0  0  0  0  0  0  0  0  0
  189.2760  178.2560  144.2090 C   0  0  0  0  0  2  0  0  0  0  0  0
  190.7770  178.4540  144.1270 C   0  0  0  0  0  2  0  0  0  0  0  0
  191.2770  176.1790  146.9630 C   0  0  2  0  0  3  0  0  0  0  0  0
  192.1030  176.7450  147.9350 O   0  0  0  0  0  1  0  0  0  0  0  0
  191.3960  178.1650  145.4770 C   0  0  2  0  0  3  0  0  0  0  0  0
  191.6840  176.6810  145.5890 C   0  0  2  0  0  3  0  0  0  0  0  0
  190.4720  177.2670  146.2760 C   0  0  1  0  0  3  0  0  0  0  0  0
  1 12  2  0  0  0  0
  1  8  1  0  0  0  0
  2 13  1  0  0  0  0
  2  5  2  0  0  0  0
  3 10  2  0  0  0  0
  4  6  1  0  0  0  0
  6 13  1  0  0  0  0
  7  2  1  0  0  0  0
  8  4  2  0  0  0  0
  9 10  1  0  0  0  0
  9  6  2  0  0  0  0
 10  7  1  0  0  0  0
 12  9  1  0  0  0  0
 13 11  1  1  0  0  0
 14  1  1  0  0  0  0
 15 14  2  0  0  0  0
 16 14  1  0  0  0  0
 17 16  1  0  0  0  0
 18 17  1  0  0  0  0
 19 21  1  0  0  0  0
 19 18  1  0  0  0  0
 21 20  2  0  0  0  0
 22 21  2  0  0  0  0
 23  7  1  0  0  0  0
 23 36  1  1  0  0  0
 24 25  1  0  0  0  0
 26 24  1  0  0  0  0
 26 23  1  0  0  0  0
 26 25  1  0  0  0  0
 27 29  2  0  0  0  0
 28 26  1  0  0  0  0
 29 28  1  0  0  0  0
 30 29  1  0  0  0  0
 31 32  2  0  0  0  0
 32 30  1  0  0  0  0
 33 35  2  0  0  0  0
 35 32  1  0  0  0  0
 35 34  1  0  0  0  0
 37 36  1  0  0  0  0
 37 40  1  0  0  0  0
 38 39  1  0  0  0  0
 40 41  1  0  0  0  0
 40 42  1  0  0  0  0
 41 42  1  0  0  0  0
 41 38  1  0  0  0  0
 42 38  1  0  0  0  0
M  END
>  <MODEL>
8

>  <REMARK>
 VINA RESULT:      -6.0      2.537      8.938
  Name = 
  14 active torsions:
  status: ('A' for Active; 'I' for Inactive)
    1  A    between atoms: C_1  and  C_8
    2  A    between atoms: C_5  and  C_7
    3  A    between atoms: C_5  and  N_20
    4  A    between atoms: C_7  and  C_11
    5  A    between atoms: C_11  and  N_40
    6  A    between atoms: C_13  and  C_36
    7  A    between atoms: N_16  and  C_24
    8  A    between atoms: C_23  and  C_28
    9  A    between atoms: C_23  and  C_35
   10  A    between atoms: C_24  and  C_28
   11  A    between atoms: C_24  and  C_41
   12  A    between atoms: C_25  and  C_36
   13  A    between atoms: C_25  and  C_39
   14  A    between atoms: N_32  and  C_41
                            x       y       z     vdW  Elec       q    Type
                         _______ _______ _______ _____ _____    ______ ____

>  <TORSDO>
F 14

$$$$
=
 OpenBabel10222419313D

 42 46  0  0  1  0  0  0  0  0999 V2000
  192.9060  175.7560  137.1050 C   0  0  0  0  0  0  0  0  0  0  0  0
  188.7350  177.5770  139.4430 C   0  0  0  0  0  0  0  0  0  0  0  0
  192.0950  177.5570  140.8380 O   0  0  0  0  0  0  0  0  0  0  0  0
  190.6230  176.2700  136.4600 C   0  0  0  0  0  3  0  0  0  0  0  0
  187.5280  177.5990  139.8040 O   0  0  0  0  0  0  0  0  0  0  0  0
  190.3800  176.8350  137.7170 C   0  0  0  0  0  0  0  0  0  0  0  0
  189.7970  177.7200  140.4120 N   0  0  0  0  0  0  0  0  0  0  0  0
  191.8750  175.7300  136.1570 C   0  0  0  0  0  3  0  0  0  0  0  0
  191.4080  176.8560  138.6790 C   0  0  0  0  0  0  0  0  0  0  0  0
  191.1440  177.4020  140.0220 C   0  0  0  0  0  0  0  0  0  0  0  0
  189.0140  178.8660  137.3650 C   0  0  0  0  0  1  0  0  0  0  0  0
  192.6630  176.3180  138.3660 C   0  0  0  0  0  3  0  0  0  0  0  0
  189.0470  177.4780  137.9790 C   0  0  2  0  0  3  0  0  0  0  0  0
  194.2330  175.2000  136.7820 C   0  0  0  0  0  0  0  0  0  0  0  0
  195.1770  175.9700  136.4540 O   0  0  0  0  0  0  0  0  0  0  0  0
  194.4540  173.7870  136.8500 N   0  0  0  0  0  2  0  0  0  0  0  0
  195.7260  173.1760  136.5010 C   0  0  0  0  0  2  0  0  0  0  0  0
  196.5280  172.8900  137.7580 C   0  0  0  0  0  2  0  0  0  0  0  0
  197.7480  173.7960  137.8170 C   0  0  0  0  0  2  0  0  0  0  0  0
  196.4010  174.8680  139.5540 O   0  0  0  0  0  0  0  0  0  0  0  0
  197.5450  174.8530  138.7930 N   0  0  0  0  0  0  0  0  0  0  0  0
  198.4620  175.6660  139.0330 O   0  0  0  0  0  0  0  0  0  0  0  0
  189.5450  178.1240  141.8060 C   0  0  2  0  0  3  0  0  0  0  0  0
  188.4170  176.2190  143.2790 C   0  0  0  0  0  2  0  0  0  0  0  0
  189.3870  175.5750  142.2940 C   0  0  0  0  0  2  0  0  0  0  0  0
  189.6470  176.9710  142.8230 C   0  0  0  0  0  0  0  0  0  0  0  0
  191.7940  177.6410  145.7320 O   0  0  0  0  0  0  0  0  0  0  0  0
  190.7640  176.9900  143.7580 N   0  0  0  0  0  2  0  0  0  0  0  0
  190.7310  177.5820  145.0610 C   0  0  0  0  0  0  0  0  0  0  0  0
  189.4680  178.1570  145.6270 C   0  0  0  0  0  2  0  0  0  0  0  0
  189.5690  176.2950  147.1130 O   0  0  0  0  0  0  0  0  0  0  0  0
  189.0100  177.3870  146.8270 C   0  0  0  0  0  0  0  0  0  0  0  0
  188.1670  178.2560  148.9850 O   0  0  0  0  0  1  0  0  0  0  0  0
  186.7490  177.9890  147.2100 O   0  0  0  0  0  0  0  0  0  0  0  0
  187.9160  177.8860  147.6700 C   0  0  0  0  0  0  0  0  0  0  0  0
  188.2520  178.9170  141.9550 C   0  0  0  0  0  2  0  0  0  0  0  0
  187.3400  178.2530  142.9670 C   0  0  0  0  0  2  0  0  0  0  0  0
  183.9370  178.6430  144.2840 C   0  0  2  0  0  3  0  0  0  0  0  0
  183.1530  179.4410  143.4510 O   0  0  0  0  0  1  0  0  0  0  0  0
  185.9450  178.8240  142.8360 C   0  0  2  0  0  3  0  0  0  0  0  0
  185.3830  179.0980  144.2170 C   0  0  2  0  0  3  0  0  0  0  0  0
  184.9450  177.8680  143.4550 C   0  0  1  0  0  3  0  0  0  0  0  0
  1 12  1  0  0  0  0
  2  5  2  0  0  0  0
  2  7  1  0  0  0  0
  4  6  2  0  0  0  0
  6 13  1  0  0  0  0
  6  9  1  0  0  0  0
  7 23  1  0  0  0  0
  8  4  1  0  0  0  0
  8  1  2  0  0  0  0
  9 10  1  0  0  0  0
 10  7  1  0  0  0  0
 10  3  2  0  0  0  0
 12  9  2  0  0  0  0
 13 11  1  1  0  0  0
 13  2  1  0  0  0  0
 14 16  1  0  0  0  0
 14  1  1  0  0  0  0
 15 14  2  0  0  0  0
 17 16  1  0  0  0  0
 17 18  1  0  0  0  0
 18 19  1  0  0  0  0
 19 21  1  0  0  0  0
 21 22  2  0  0  0  0
 21 20  2  0  0  0  0
 23 36  1  6  0  0  0
 23 26  1  0  0  0  0
 25 26  1  0  0  0  0
 25 24  1  0  0  0  0
 26 24  1  0  0  0  0
 26 28  1  0  0  0  0
 28 29  1  0  0  0  0
 29 30  1  0  0  0  0
 29 27  2  0  0  0  0
 30 32  1  0  0  0  0
 32 31  2  0  0  0  0
 32 35  1  0  0  0  0
 34 35  2  0  0  0  0
 35 33  1  0  0  0  0
 36 37  1  0  0  0  0
 39 38  1  0  0  0  0
 40 37  1  0  0  0  0
 40 42  1  0  0  0  0
 40 41  1  0  0  0  0
 41 38  1  0  0  0  0
 42 41  1  0  0  0  0
 42 38  1  0  0  0  0
M  END
>  <MODEL>
9

>  <REMARK>
 VINA RESULT:      -5.9      5.268     10.065
  Name = 
  14 active torsions:
  status: ('A' for Active; 'I' for Inactive)
    1  A    between atoms: C_1  and  C_8
    2  A    between atoms: C_5  and  C_7
    3  A    between atoms: C_5  and  N_20
    4  A    between atoms: C_7  and  C_11
    5  A    between atoms: C_11  and  N_40
    6  A    between atoms: C_13  and  C_36
    7  A    between atoms: N_16  and  C_24
    8  A    between atoms: C_23  and  C_28
    9  A    between atoms: C_23  and  C_35
   10  A    between atoms: C_24  and  C_28
   11  A    between atoms: C_24  and  C_41
   12  A    between atoms: C_25  and  C_36
   13  A    between atoms: C_25  and  C_39
   14  A    between atoms: N_32  and  C_41
                            x       y       z     vdW  Elec       q    Type
                         _______ _______ _______ _____ _____    ______ ____

>  <TORSDO>
F 14

$$$$
