=
 OpenBabel10222418473D

 29 33  0  0  1  0  0  0  0  0999 V2000
  188.9450  177.1980  147.6170 C   0  0  0  0  0  3  0  0  0  0  0  0
  184.5760  178.5790  142.8760 C   0  0  2  0  0  3  0  0  0  0  0  0
  181.6080  179.3210  140.6750 C   0  0  0  0  0  1  0  0  0  0  0  0
  182.6920  178.7560  144.3130 C   0  0  0  0  0  3  0  0  0  0  0  0
  184.7310  178.7540  140.6990 C   0  0  0  0  0  0  0  0  0  0  0  0
  189.9680  177.2410  145.3960 C   0  0  0  0  0  3  0  0  0  0  0  0
  185.9780  178.4660  141.1700 N   0  0  0  0  0  0  0  0  0  0  0  0
  185.0090  178.2270  145.3200 C   0  0  0  0  0  3  0  0  0  0  0  0
  187.6880  177.5040  147.0690 C   0  0  0  0  0  3  0  0  0  0  0  0
  188.2870  177.7780  143.5070 C   0  0  0  0  0  0  0  0  0  0  0  0
  189.0210  177.7520  142.4850 O   0  0  0  0  0  0  0  0  0  0  0  0
  186.4460  177.9920  144.8520 C   0  0  0  0  0  0  0  0  0  0  0  0
  183.8330  178.8220  141.7640 C   0  0  0  0  0  0  0  0  0  0  0  0
  188.7120  177.5440  144.8770 C   0  0  0  0  0  0  0  0  0  0  0  0
  187.6020  177.6720  145.6870 C   0  0  0  0  0  0  0  0  0  0  0  0
  190.0790  177.0670  146.7860 C   0  0  0  0  0  0  0  0  0  0  0  0
  185.8660  178.3650  142.5160 C   0  0  0  0  0  0  0  0  0  0  0  0
  180.5230  179.2420  143.3500 O   0  0  0  0  0  1  0  0  0  0  0  0
  186.8480  178.0540  143.5670 C   0  0  0  0  0  0  0  0  0  0  0  0
  181.8840  179.0190  143.1750 C   0  0  0  0  0  0  0  0  0  0  0  0
  184.0700  178.5290  144.1640 C   0  0  0  0  0  0  0  0  0  0  0  0
  182.4540  179.0510  141.8740 C   0  0  0  0  0  0  0  0  0  0  0  0
  191.4000  176.7430  147.3860 C   0  0  0  0  0  1  0  0  0  0  0  0
  187.1740  178.2810  140.3660 C   0  0  0  0  0  1  0  0  0  0  0  0
  184.3900  178.8870  139.2490 C   0  0  0  0  0  2  0  0  0  0  0  0
  183.5080  176.5500  138.3060 C   0  0  0  0  0  0  0  0  0  0  0  0
  183.9040  177.6070  138.7320 C   0  0  0  0  0  0  0  0  0  0  0  0
  183.8970  174.3170  137.5500 C   0  0  0  0  0  2  0  0  0  0  0  0
  183.0390  175.2930  137.7980 C   0  0  0  0  0  3  0  0  0  0  0  0
  2 13  1  6  0  0  0
  2 21  1  0  0  0  0
  3 22  1  0  0  0  0
  5  7  1  0  0  0  0
  5 13  2  0  0  0  0
  6 16  1  0  0  0  0
  7 17  1  0  0  0  0
  9  1  1  0  0  0  0
 10 19  1  0  0  0  0
 10 14  1  0  0  0  0
 11 10  2  0  0  0  0
 12  8  2  0  0  0  0
 12 15  1  0  0  0  0
 13 22  1  0  0  0  0
 14  6  2  0  0  0  0
 14 15  1  0  0  0  0
 15  9  2  0  0  0  0
 16 23  1  0  0  0  0
 16  1  2  0  0  0  0
 17  2  1  0  0  0  0
 17 19  2  0  0  0  0
 19 12  1  0  0  0  0
 20 18  1  0  0  0  0
 20  4  1  0  0  0  0
 21  4  2  0  0  0  0
 21  8  1  0  0  0  0
 22 20  2  0  0  0  0
 24  7  1  0  0  0  0
 25  5  1  0  0  0  0
 26 27  3  0  0  0  0
 27 25  1  0  0  0  0
 28 29  2  0  0  0  0
 29 26  1  0  0  0  0
M  END
>  <MODEL>
1

>  <REMARK>
 VINA RESULT:     -10.3      0.000      0.000
  Name = 
  3 active torsions:
  status: ('A' for Active; 'I' for Inactive)
    1  A    between atoms: C_5  and  C_8
    2  A    between atoms: C_8  and  C_20
    3  A    between atoms: C_12  and  C_28
                            x       y       z     vdW  Elec       q    Type
                         _______ _______ _______ _____ _____    ______ ____

>  <TORSDO>
F 3

$$$$
=
 OpenBabel10222418473D

 29 33  0  0  1  0  0  0  0  0999 V2000
  190.1370  176.6300  147.6000 C   0  0  0  0  0  3  0  0  0  0  0  0
  187.1550  178.0990  141.9060 C   0  0  2  0  0  3  0  0  0  0  0  0
  184.8690  178.9440  139.0310 C   0  0  0  0  0  1  0  0  0  0  0  0
  184.9980  178.4610  142.8370 C   0  0  0  0  0  3  0  0  0  0  0  0
  187.8420  178.1740  139.8290 C   0  0  0  0  0  0  0  0  0  0  0  0
  191.6650  176.5130  145.6940 C   0  0  0  0  0  3  0  0  0  0  0  0
  188.9140  177.8230  140.5960 N   0  0  0  0  0  0  0  0  0  0  0  0
  186.9580  177.8210  144.3900 C   0  0  0  0  0  3  0  0  0  0  0  0
  189.0750  176.9960  146.7550 C   0  0  0  0  0  3  0  0  0  0  0  0
  190.5340  177.0820  143.4410 C   0  0  0  0  0  0  0  0  0  0  0  0
  191.4880  176.9640  142.6300 O   0  0  0  0  0  0  0  0  0  0  0  0
  188.4440  177.4720  144.2910 C   0  0  0  0  0  0  0  0  0  0  0  0
  186.7210  178.3450  140.6410 C   0  0  0  0  0  0  0  0  0  0  0  0
  190.5970  176.8770  144.8780 C   0  0  0  0  0  0  0  0  0  0  0  0
  189.3380  177.1120  145.3900 C   0  0  0  0  0  0  0  0  0  0  0  0
  191.4240  176.3890  147.0740 C   0  0  0  0  0  0  0  0  0  0  0  0
  188.4730  177.7860  141.8760 C   0  0  0  0  0  0  0  0  0  0  0  0
  183.1680  179.0480  141.3630 O   0  0  0  0  0  1  0  0  0  0  0  0
  189.1470  177.4540  143.1420 C   0  0  0  0  0  0  0  0  0  0  0  0
  184.5100  178.7290  141.5310 C   0  0  0  0  0  0  0  0  0  0  0  0
  186.3500  178.1370  143.0330 C   0  0  0  0  0  0  0  0  0  0  0  0
  185.3780  178.6690  140.4070 C   0  0  0  0  0  0  0  0  0  0  0  0
  192.5330  176.0040  147.9850 C   0  0  0  0  0  1  0  0  0  0  0  0
  190.2510  177.5260  140.1120 C   0  0  0  0  0  1  0  0  0  0  0  0
  187.8720  178.2690  138.3370 C   0  0  0  0  0  2  0  0  0  0  0  0
  187.4020  175.8700  137.2630 C   0  0  0  0  0  0  0  0  0  0  0  0
  187.6160  176.9530  137.7490 C   0  0  0  0  0  0  0  0  0  0  0  0
  186.1730  173.8220  137.1650 C   0  0  0  0  0  2  0  0  0  0  0  0
  187.1440  174.5820  136.6850 C   0  0  0  0  0  3  0  0  0  0  0  0
  2 13  1  6  0  0  0
  2 21  1  0  0  0  0
  3 22  1  0  0  0  0
  4 21  2  0  0  0  0
  5  7  1  0  0  0  0
  5 13  2  0  0  0  0
  6 16  2  0  0  0  0
  7 17  1  0  0  0  0
  9  1  2  0  0  0  0
 10 14  1  0  0  0  0
 11 10  2  0  0  0  0
 12  8  2  0  0  0  0
 12 15  1  0  0  0  0
 14 15  2  0  0  0  0
 14  6  1  0  0  0  0
 15  9  1  0  0  0  0
 16  1  1  0  0  0  0
 16 23  1  0  0  0  0
 17  2  1  0  0  0  0
 17 19  2  0  0  0  0
 18 20  1  0  0  0  0
 19 10  1  0  0  0  0
 19 12  1  0  0  0  0
 20  4  1  0  0  0  0
 21  8  1  0  0  0  0
 22 13  1  0  0  0  0
 22 20  2  0  0  0  0
 24  7  1  0  0  0  0
 25  5  1  0  0  0  0
 26 27  3  0  0  0  0
 27 25  1  0  0  0  0
 29 28  2  0  0  0  0
 29 26  1  0  0  0  0
M  END
>  <MODEL>
2

>  <REMARK>
 VINA RESULT:     -10.1      1.911      2.822
  Name = 
  3 active torsions:
  status: ('A' for Active; 'I' for Inactive)
    1  A    between atoms: C_5  and  C_8
    2  A    between atoms: C_8  and  C_20
    3  A    between atoms: C_12  and  C_28
                            x       y       z     vdW  Elec       q    Type
                         _______ _______ _______ _____ _____    ______ ____

>  <TORSDO>
F 3

$$$$
=
 OpenBabel10222418473D

 29 33  0  0  1  0  0  0  0  0999 V2000
  181.5130  178.8870  143.9290 C   0  0  0  0  0  3  0  0  0  0  0  0
  188.0090  177.7790  144.1370 C   0  0  2  0  0  3  0  0  0  0  0  0
  191.6350  177.1400  144.9450 C   0  0  0  0  0  1  0  0  0  0  0  0
  188.1330  177.4410  146.4870 C   0  0  0  0  0  3  0  0  0  0  0  0
  189.5800  177.7800  142.6120 C   0  0  0  0  0  0  0  0  0  0  0  0
  182.5530  179.0450  141.7210 C   0  0  0  0  0  3  0  0  0  0  0  0
  188.4050  178.0610  141.9810 N   0  0  0  0  0  0  0  0  0  0  0  0
  185.8480  177.9460  145.3960 C   0  0  0  0  0  3  0  0  0  0  0  0
  182.7550  178.5940  144.5180 C   0  0  0  0  0  3  0  0  0  0  0  0
  185.1020  178.6180  141.7600 C   0  0  0  0  0  0  0  0  0  0  0  0
  185.4090  178.7430  140.5460 O   0  0  0  0  0  0  0  0  0  0  0  0
  185.2700  178.2530  144.0140 C   0  0  0  0  0  0  0  0  0  0  0  0
  189.3480  177.6060  143.9770 C   0  0  0  0  0  0  0  0  0  0  0  0
  183.7720  178.7530  142.3280 C   0  0  0  0  0  0  0  0  0  0  0  0
  183.8730  178.5340  143.6870 C   0  0  0  0  0  0  0  0  0  0  0  0
  181.4120  179.1120  142.5400 C   0  0  0  0  0  0  0  0  0  0  0  0
  187.4440  178.0520  142.9360 C   0  0  0  0  0  0  0  0  0  0  0  0
  190.2870  176.9800  147.4930 O   0  0  0  0  0  1  0  0  0  0  0  0
  185.9950  178.3030  142.8790 C   0  0  0  0  0  0  0  0  0  0  0  0
  189.5340  177.2490  146.3570 C   0  0  0  0  0  0  0  0  0  0  0  0
  187.3500  177.7130  145.3530 C   0  0  0  0  0  0  0  0  0  0  0  0
  190.1620  177.3340  145.0850 C   0  0  0  0  0  0  0  0  0  0  0  0
  180.0890  179.4200  141.9370 C   0  0  0  0  0  1  0  0  0  0  0  0
  188.2400  178.3390  140.5640 C   0  0  0  0  0  1  0  0  0  0  0  0
  190.9140  177.7540  141.9350 C   0  0  0  0  0  2  0  0  0  0  0  0
  190.7330  176.4400  139.6180 C   0  0  0  0  0  0  0  0  0  0  0  0
  190.8130  177.0330  140.6650 C   0  0  0  0  0  0  0  0  0  0  0  0
  191.7350  175.2750  137.7860 C   0  0  0  0  0  2  0  0  0  0  0  0
  190.6400  175.7370  138.3700 C   0  0  0  0  0  3  0  0  0  0  0  0
  1  9  1  0  0  0  0
  2 17  1  1  0  0  0
  2 21  1  0  0  0  0
  3 22  1  0  0  0  0
  5 13  2  0  0  0  0
  6 14  2  0  0  0  0
  6 16  1  0  0  0  0
  7  5  1  0  0  0  0
  7 17  1  0  0  0  0
 10 14  1  0  0  0  0
 10 19  1  0  0  0  0
 11 10  2  0  0  0  0
 12  8  2  0  0  0  0
 13  2  1  0  0  0  0
 13 22  1  0  0  0  0
 14 15  1  0  0  0  0
 15 12  1  0  0  0  0
 15  9  2  0  0  0  0
 16  1  2  0  0  0  0
 19 17  2  0  0  0  0
 19 12  1  0  0  0  0
 20  4  1  0  0  0  0
 20 18  1  0  0  0  0
 21  8  1  0  0  0  0
 21  4  2  0  0  0  0
 22 20  2  0  0  0  0
 23 16  1  0  0  0  0
 24  7  1  0  0  0  0
 25  5  1  0  0  0  0
 26 27  3  0  0  0  0
 27 25  1  0  0  0  0
 28 29  2  0  0  0  0
 29 26  1  0  0  0  0
M  END
>  <MODEL>
3

>  <REMARK>
 VINA RESULT:      -9.9      2.491      6.762
  Name = 
  3 active torsions:
  status: ('A' for Active; 'I' for Inactive)
    1  A    between atoms: C_5  and  C_8
    2  A    between atoms: C_8  and  C_20
    3  A    between atoms: C_12  and  C_28
                            x       y       z     vdW  Elec       q    Type
                         _______ _______ _______ _____ _____    ______ ____

>  <TORSDO>
F 3

$$$$
=
 OpenBabel10222418473D

 29 33  0  0  1  0  0  0  0  0999 V2000
  188.0330  177.5800  146.5540 C   0  0  0  0  0  3  0  0  0  0  0  0
  182.9810  178.7240  142.4750 C   0  0  2  0  0  3  0  0  0  0  0  0
  179.7020  179.3190  140.7140 C   0  0  0  0  0  1  0  0  0  0  0  0
  181.3140  178.8450  144.1650 C   0  0  0  0  0  3  0  0  0  0  0  0
  182.8170  178.8780  140.2970 C   0  0  0  0  0  0  0  0  0  0  0  0
  188.7270  177.6350  144.2100 C   0  0  0  0  0  3  0  0  0  0  0  0
  184.1290  178.6450  140.5880 N   0  0  0  0  0  0  0  0  0  0  0  0
  183.7710  178.4220  144.8350 C   0  0  0  0  0  3  0  0  0  0  0  0
  186.6990  177.8290  146.1890 C   0  0  0  0  0  3  0  0  0  0  0  0
  186.7730  178.0810  142.5770 C   0  0  0  0  0  0  0  0  0  0  0  0
  187.3550  178.0710  141.4610 O   0  0  0  0  0  0  0  0  0  0  0  0
  185.1350  178.2380  144.1690 C   0  0  0  0  0  0  0  0  0  0  0  0
  182.0770  178.9240  141.4790 C   0  0  0  0  0  0  0  0  0  0  0  0
  187.3980  177.8810  143.8730 C   0  0  0  0  0  0  0  0  0  0  0  0
  186.4110  177.9760  144.8320 C   0  0  0  0  0  0  0  0  0  0  0  0
  189.0410  177.4830  145.5720 C   0  0  0  0  0  0  0  0  0  0  0  0
  184.2140  178.5580  141.9370 C   0  0  0  0  0  0  0  0  0  0  0  0
  179.0130  179.2320  143.5170 O   0  0  0  0  0  1  0  0  0  0  0  0
  185.3480  178.3000  142.8390 C   0  0  0  0  0  0  0  0  0  0  0  0
  180.3430  179.0610  143.1520 C   0  0  0  0  0  0  0  0  0  0  0  0
  182.6650  178.6720  143.8220 C   0  0  0  0  0  0  0  0  0  0  0  0
  180.7200  179.0990  141.7830 C   0  0  0  0  0  0  0  0  0  0  0  0
  190.4460  177.2200  145.9790 C   0  0  0  0  0  1  0  0  0  0  0  0
  185.2050  178.4980  139.6230 C   0  0  0  0  0  1  0  0  0  0  0  0
  182.2680  178.9790  138.9100 C   0  0  0  0  0  2  0  0  0  0  0  0
  181.7870  181.5350  138.3060 C   0  0  0  0  0  0  0  0  0  0  0  0
  182.0060  180.3810  138.5790 C   0  0  0  0  0  0  0  0  0  0  0  0
  180.7720  183.2070  136.9310 C   0  0  0  0  0  2  0  0  0  0  0  0
  181.5230  182.9070  137.9790 C   0  0  0  0  0  3  0  0  0  0  0  0
  2 13  1  6  0  0  0
  2 21  1  0  0  0  0
  3 22  1  0  0  0  0
  5  7  1  0  0  0  0
  5 13  2  0  0  0  0
  6 16  1  0  0  0  0
  7 17  1  0  0  0  0
  9  1  1  0  0  0  0
 10 19  1  0  0  0  0
 10 14  1  0  0  0  0
 11 10  2  0  0  0  0
 12 15  1  0  0  0  0
 12  8  2  0  0  0  0
 13 22  1  0  0  0  0
 14  6  2  0  0  0  0
 14 15  1  0  0  0  0
 15  9  2  0  0  0  0
 16 23  1  0  0  0  0
 16  1  2  0  0  0  0
 17  2  1  0  0  0  0
 17 19  2  0  0  0  0
 19 12  1  0  0  0  0
 20 18  1  0  0  0  0
 20  4  1  0  0  0  0
 21  4  2  0  0  0  0
 21  8  1  0  0  0  0
 22 20  2  0  0  0  0
 24  7  1  0  0  0  0
 25  5  1  0  0  0  0
 26 27  3  0  0  0  0
 27 25  1  0  0  0  0
 28 29  2  0  0  0  0
 29 26  1  0  0  0  0
M  END
>  <MODEL>
4

>  <REMARK>
 VINA RESULT:      -9.7      1.858      3.004
  Name = 
  3 active torsions:
  status: ('A' for Active; 'I' for Inactive)
    1  A    between atoms: C_5  and  C_8
    2  A    between atoms: C_8  and  C_20
    3  A    between atoms: C_12  and  C_28
                            x       y       z     vdW  Elec       q    Type
                         _______ _______ _______ _____ _____    ______ ____

>  <TORSDO>
F 3

$$$$
=
 OpenBabel10222418473D

 29 33  0  0  1  0  0  0  0  0999 V2000
  188.9750  177.8660  146.4820 C   0  0  0  0  0  3  0  0  0  0  0  0
  184.6450  178.4900  141.5500 C   0  0  2  0  0  3  0  0  0  0  0  0
  182.7310  178.8380  138.3210 C   0  0  0  0  0  1  0  0  0  0  0  0
  186.2280  178.2570  139.7930 C   0  0  0  0  0  3  0  0  0  0  0  0
  182.4880  178.8600  141.4860 C   0  0  0  0  0  0  0  0  0  0  0  0
  186.6960  178.2320  147.2890 C   0  0  0  0  0  3  0  0  0  0  0  0
  182.8500  178.8100  142.8000 N   0  0  0  0  0  0  0  0  0  0  0  0
  187.0250  178.1230  142.2440 C   0  0  0  0  0  3  0  0  0  0  0  0
  188.5360  177.9210  145.1480 C   0  0  0  0  0  3  0  0  0  0  0  0
  184.9660  178.4830  145.3840 C   0  0  0  0  0  0  0  0  0  0  0  0
  183.8940  178.6520  146.0220 O   0  0  0  0  0  0  0  0  0  0  0  0
  186.4460  178.2330  143.6550 C   0  0  0  0  0  0  0  0  0  0  0  0
  183.6120  178.6670  140.6830 C   0  0  0  0  0  0  0  0  0  0  0  0
  186.2850  178.2830  145.9590 C   0  0  0  0  0  0  0  0  0  0  0  0
  187.1770  178.1320  144.9170 C   0  0  0  0  0  0  0  0  0  0  0  0
  188.0610  178.0200  147.5470 C   0  0  0  0  0  0  0  0  0  0  0  0
  184.1830  178.5760  142.8210 C   0  0  0  0  0  0  0  0  0  0  0  0
  185.4630  178.3980  137.4990 O   0  0  0  0  0  1  0  0  0  0  0  0
  185.1430  178.4400  143.9300 C   0  0  0  0  0  0  0  0  0  0  0  0
  185.1740  178.4330  138.8580 C   0  0  0  0  0  0  0  0  0  0  0  0
  185.9610  178.2870  141.1710 C   0  0  0  0  0  0  0  0  0  0  0  0
  183.8410  178.6460  139.3010 C   0  0  0  0  0  0  0  0  0  0  0  0
  188.5460  177.9580  148.9500 C   0  0  0  0  0  1  0  0  0  0  0  0
  181.9660  178.9980  143.9380 C   0  0  0  0  0  1  0  0  0  0  0  0
  181.1040  179.1640  141.0060 C   0  0  0  0  0  2  0  0  0  0  0  0
  179.7300  176.8940  140.7100 C   0  0  0  0  0  0  0  0  0  0  0  0
  180.3500  177.9210  140.8420 C   0  0  0  0  0  0  0  0  0  0  0  0
  179.6320  174.5100  140.5630 C   0  0  0  0  0  2  0  0  0  0  0  0
  178.9960  175.6710  140.5550 C   0  0  0  0  0  3  0  0  0  0  0  0
  1 16  1  0  0  0  0
  2 13  1  6  0  0  0
  2 17  1  0  0  0  0
  3 22  1  0  0  0  0
  4 21  2  0  0  0  0
  5  7  1  0  0  0  0
  6 16  2  0  0  0  0
  7 17  1  0  0  0  0
  7 24  1  0  0  0  0
  8 12  2  0  0  0  0
  9  1  2  0  0  0  0
 10 14  1  0  0  0  0
 10 11  2  0  0  0  0
 12 19  1  0  0  0  0
 12 15  1  0  0  0  0
 13  5  2  0  0  0  0
 14  6  1  0  0  0  0
 15  9  1  0  0  0  0
 15 14  2  0  0  0  0
 16 23  1  0  0  0  0
 17 19  2  0  0  0  0
 18 20  1  0  0  0  0
 19 10  1  0  0  0  0
 20 22  2  0  0  0  0
 20  4  1  0  0  0  0
 21  2  1  0  0  0  0
 21  8  1  0  0  0  0
 22 13  1  0  0  0  0
 25  5  1  0  0  0  0
 26 27  3  0  0  0  0
 27 25  1  0  0  0  0
 29 28  2  0  0  0  0
 29 26  1  0  0  0  0
M  END
>  <MODEL>
5

>  <REMARK>
 VINA RESULT:      -9.3      2.234      3.889
  Name = 
  3 active torsions:
  status: ('A' for Active; 'I' for Inactive)
    1  A    between atoms: C_5  and  C_8
    2  A    between atoms: C_8  and  C_20
    3  A    between atoms: C_12  and  C_28
                            x       y       z     vdW  Elec       q    Type
                         _______ _______ _______ _____ _____    ______ ____

>  <TORSDO>
F 3

$$$$
=
 OpenBabel10222418473D

 29 33  0  0  1  0  0  0  0  0999 V2000
  189.6490  177.1240  147.0900 C   0  0  0  0  0  3  0  0  0  0  0  0
  189.0550  177.5380  140.5370 C   0  0  2  0  0  3  0  0  0  0  0  0
  189.3960  177.6370  136.7850 C   0  0  0  0  0  1  0  0  0  0  0  0
  191.2780  176.8590  140.0390 C   0  0  0  0  0  3  0  0  0  0  0  0
  187.4220  178.1540  139.2150 C   0  0  0  0  0  0  0  0  0  0  0  0
  187.4260  177.8780  146.4060 C   0  0  0  0  0  3  0  0  0  0  0  0
  186.9640  178.2530  140.4960 N   0  0  0  0  0  0  0  0  0  0  0  0
  190.5140  176.9900  142.5010 C   0  0  0  0  0  3  0  0  0  0  0  0
  190.0580  177.0350  145.7480 C   0  0  0  0  0  3  0  0  0  0  0  0
  187.1520  178.0550  143.8420 C   0  0  0  0  0  0  0  0  0  0  0  0
  185.9610  178.4450  143.7300 O   0  0  0  0  0  0  0  0  0  0  0  0
  189.2730  177.3760  143.3070 C   0  0  0  0  0  0  0  0  0  0  0  0
  188.7440  177.7100  139.2250 C   0  0  0  0  0  0  0  0  0  0  0  0
  187.8540  177.7830  145.0840 C   0  0  0  0  0  0  0  0  0  0  0  0
  189.1320  177.3730  144.7620 C   0  0  0  0  0  0  0  0  0  0  0  0
  188.3420  177.5420  147.4180 C   0  0  0  0  0  0  0  0  0  0  0  0
  187.9830  177.8650  141.2990 C   0  0  0  0  0  0  0  0  0  0  0  0
  191.9800  176.7530  137.7230 O   0  0  0  0  0  1  0  0  0  0  0  0
  188.1070  177.7780  142.7640 C   0  0  0  0  0  0  0  0  0  0  0  0
  190.9880  177.0220  138.6580 C   0  0  0  0  0  0  0  0  0  0  0  0
  190.2910  177.1230  141.0030 C   0  0  0  0  0  0  0  0  0  0  0  0
  189.7030  177.4580  138.2340 C   0  0  0  0  0  0  0  0  0  0  0  0
  187.9310  177.6290  148.8440 C   0  0  0  0  0  1  0  0  0  0  0  0
  185.6460  178.7130  140.8990 C   0  0  0  0  0  1  0  0  0  0  0  0
  186.6340  178.5500  138.0070 C   0  0  0  0  0  2  0  0  0  0  0  0
  185.1090  176.5070  137.2120 C   0  0  0  0  0  0  0  0  0  0  0  0
  185.7990  177.4300  137.5690 C   0  0  0  0  0  0  0  0  0  0  0  0
  184.1270  174.3600  137.5810 C   0  0  0  0  0  2  0  0  0  0  0  0
  184.2890  175.4080  136.7900 C   0  0  0  0  0  3  0  0  0  0  0  0
  1 16  1  0  0  0  0
  2 13  1  1  0  0  0
  2 21  1  0  0  0  0
  2 17  1  0  0  0  0
  3 22  1  0  0  0  0
  4 21  2  0  0  0  0
  5 13  2  0  0  0  0
  5  7  1  0  0  0  0
  6 16  2  0  0  0  0
  7 24  1  0  0  0  0
  7 17  1  0  0  0  0
  8 12  2  0  0  0  0
  9  1  2  0  0  0  0
 10 14  1  0  0  0  0
 11 10  2  0  0  0  0
 12 15  1  0  0  0  0
 14  6  1  0  0  0  0
 15 14  2  0  0  0  0
 15  9  1  0  0  0  0
 16 23  1  0  0  0  0
 17 19  2  0  0  0  0
 18 20  1  0  0  0  0
 19 12  1  0  0  0  0
 19 10  1  0  0  0  0
 20  4  1  0  0  0  0
 21  8  1  0  0  0  0
 22 20  2  0  0  0  0
 22 13  1  0  0  0  0
 25  5  1  0  0  0  0
 26 27  3  0  0  0  0
 27 25  1  0  0  0  0
 29 26  1  0  0  0  0
 29 28  2  0  0  0  0
M  END
>  <MODEL>
6

>  <REMARK>
 VINA RESULT:      -9.2      2.394      5.156
  Name = 
  3 active torsions:
  status: ('A' for Active; 'I' for Inactive)
    1  A    between atoms: C_5  and  C_8
    2  A    between atoms: C_8  and  C_20
    3  A    between atoms: C_12  and  C_28
                            x       y       z     vdW  Elec       q    Type
                         _______ _______ _______ _____ _____    ______ ____

>  <TORSDO>
F 3

$$$$
=
 OpenBabel10222418473D

 29 33  0  0  1  0  0  0  0  0999 V2000
  186.5570  178.1680  147.0870 C   0  0  0  0  0  3  0  0  0  0  0  0
  187.2610  178.1330  140.5310 C   0  0  2  0  0  3  0  0  0  0  0  0
  186.9720  178.1770  136.7730 C   0  0  0  0  0  1  0  0  0  0  0  0
  184.9830  178.5920  140.0300 C   0  0  0  0  0  3  0  0  0  0  0  0
  188.9650  177.7610  139.2080 C   0  0  0  0  0  0  0  0  0  0  0  0
  188.8560  177.6910  146.4020 C   0  0  0  0  0  3  0  0  0  0  0  0
  189.4180  177.6510  140.4900 N   0  0  0  0  0  0  0  0  0  0  0  0
  185.7310  178.4260  142.4950 C   0  0  0  0  0  3  0  0  0  0  0  0
  186.1560  178.2760  145.7440 C   0  0  0  0  0  3  0  0  0  0  0  0
  189.1740  177.6680  143.8370 C   0  0  0  0  0  0  0  0  0  0  0  0
  190.4020  177.4140  143.7260 O   0  0  0  0  0  0  0  0  0  0  0  0
  186.9980  178.1390  143.3010 C   0  0  0  0  0  0  0  0  0  0  0  0
  187.6020  178.0590  139.2170 C   0  0  0  0  0  0  0  0  0  0  0  0
  188.4340  177.8030  145.0800 C   0  0  0  0  0  0  0  0  0  0  0  0
  187.1230  178.0870  144.7570 C   0  0  0  0  0  0  0  0  0  0  0  0
  187.8990  177.8780  147.4150 C   0  0  0  0  0  0  0  0  0  0  0  0
  188.3540  177.8880  141.2940 C   0  0  0  0  0  0  0  0  0  0  0  0
  184.2980  178.7310  137.7110 O   0  0  0  0  0  1  0  0  0  0  0  0
  188.2070  177.8920  142.7590 C   0  0  0  0  0  0  0  0  0  0  0  0
  185.3030  178.5270  138.6480 C   0  0  0  0  0  0  0  0  0  0  0  0
  185.9820  178.3900  140.9970 C   0  0  0  0  0  0  0  0  0  0  0  0
  186.6320  178.2530  138.2250 C   0  0  0  0  0  0  0  0  0  0  0  0
  188.3020  177.7680  148.8410 C   0  0  0  0  0  1  0  0  0  0  0  0
  190.7740  177.3180  140.8920 C   0  0  0  0  0  1  0  0  0  0  0  0
  189.8040  177.5110  137.9950 C   0  0  0  0  0  2  0  0  0  0  0  0
  189.5740  174.9600  137.2380 C   0  0  0  0  0  0  0  0  0  0  0  0
  189.6770  176.1120  137.5820 C   0  0  0  0  0  0  0  0  0  0  0  0
  188.2810  172.9790  136.9010 C   0  0  0  0  0  2  0  0  0  0  0  0
  189.4520  173.5910  136.8270 C   0  0  0  0  0  3  0  0  0  0  0  0
  1 16  1  0  0  0  0
  2 13  1  6  0  0  0
  2 21  1  0  0  0  0
  2 17  1  0  0  0  0
  3 22  1  0  0  0  0
  4 21  2  0  0  0  0
  5 13  2  0  0  0  0
  5  7  1  0  0  0  0
  6 16  2  0  0  0  0
  7 24  1  0  0  0  0
  7 17  1  0  0  0  0
  8 12  2  0  0  0  0
  9  1  2  0  0  0  0
 10 14  1  0  0  0  0
 11 10  2  0  0  0  0
 12 15  1  0  0  0  0
 14  6  1  0  0  0  0
 15 14  2  0  0  0  0
 15  9  1  0  0  0  0
 16 23  1  0  0  0  0
 17 19  2  0  0  0  0
 18 20  1  0  0  0  0
 19 12  1  0  0  0  0
 19 10  1  0  0  0  0
 20  4  1  0  0  0  0
 21  8  1  0  0  0  0
 22 20  2  0  0  0  0
 22 13  1  0  0  0  0
 25  5  1  0  0  0  0
 26 27  3  0  0  0  0
 27 25  1  0  0  0  0
 29 28  2  0  0  0  0
 29 26  1  0  0  0  0
M  END
>  <MODEL>
7

>  <REMARK>
 VINA RESULT:      -9.1      2.799      4.202
  Name = 
  3 active torsions:
  status: ('A' for Active; 'I' for Inactive)
    1  A    between atoms: C_5  and  C_8
    2  A    between atoms: C_8  and  C_20
    3  A    between atoms: C_12  and  C_28
                            x       y       z     vdW  Elec       q    Type
                         _______ _______ _______ _____ _____    ______ ____

>  <TORSDO>
F 3

$$$$
=
 OpenBabel10222418473D

 29 33  0  0  0  0  0  0  0  0999 V2000
  188.3440  177.6360  137.3750 C   0  0  0  0  0  3  0  0  0  0  0  0
  187.0620  178.1090  143.8260 C   0  0  0  0  0  0  0  0  0  0  0  0
  185.7070  178.6100  147.3070 C   0  0  0  0  0  1  0  0  0  0  0  0
  184.7710  178.6950  143.5860 C   0  0  0  0  0  3  0  0  0  0  0  0
  188.2970  177.8880  145.6200 C   0  0  0  0  0  0  0  0  0  0  0  0
  190.3180  177.1910  138.7490 C   0  0  0  0  0  3  0  0  0  0  0  0
  189.1030  177.6560  144.5450 N   0  0  0  0  0  0  0  0  0  0  0  0
  186.1960  178.2590  141.4780 C   0  0  0  0  0  2  0  0  0  0  0  0
  187.5650  177.8550  138.5250 C   0  0  0  0  0  3  0  0  0  0  0  0
  189.8570  177.3680  141.2860 C   0  0  0  0  0  0  0  0  0  0  0  0
  190.9840  177.1000  141.7780 O   0  0  0  0  0  0  0  0  0  0  0  0
  187.6380  177.9030  141.1110 C   0  0  0  0  0  0  0  0  0  0  0  0
  187.0060  178.1820  145.1820 C   0  0  0  0  0  0  0  0  0  0  0  0
  189.5250  177.4130  139.8730 C   0  0  0  0  0  0  0  0  0  0  0  0
  188.1880  177.7360  139.7670 C   0  0  0  0  0  0  0  0  0  0  0  0
  189.7120  177.3060  137.4860 C   0  0  0  0  0  0  0  0  0  0  0  0
  188.3240  177.7930  143.4450 C   0  0  0  0  0  0  0  0  0  0  0  0
  183.4530  179.1120  145.5740 O   0  0  0  0  0  1  0  0  0  0  0  0
  188.6200  177.6870  142.0070 C   0  0  0  0  0  0  0  0  0  0  0  0
  184.6730  178.7750  145.0000 C   0  0  0  0  0  0  0  0  0  0  0  0
  185.9930  178.3550  142.9810 C   0  0  0  0  0  0  0  0  0  0  0  0
  185.8050  178.5200  145.8200 C   0  0  0  0  0  0  0  0  0  0  0  0
  190.5170  177.0780  136.2580 C   0  0  0  0  0  1  0  0  0  0  0  0
  190.5230  177.3510  144.5900 C   0  0  0  0  0  1  0  0  0  0  0  0
  188.7710  177.9020  147.0390 C   0  0  0  0  0  2  0  0  0  0  0  0
  190.9120  176.3280  147.2940 C   0  0  0  0  0  0  0  0  0  0  0  0
  189.9440  177.0380  147.1800 C   0  0  0  0  0  0  0  0  0  0  0  0
  192.9270  175.6880  148.4090 C   0  0  0  0  0  2  0  0  0  0  0  0
  192.0650  175.4830  147.4260 C   0  0  0  0  0  3  0  0  0  0  0  0
  1 16  2  0  0  0  0
  1  9  1  0  0  0  0
  2 13  1  0  0  0  0
  4 20  1  0  0  0  0
  5 25  1  0  0  0  0
  6 14  2  0  0  0  0
  7 24  1  0  0  0  0
  7  5  1  0  0  0  0
  8 21  1  0  0  0  0
  9 15  2  0  0  0  0
 10 11  2  0  0  0  0
 10 19  1  0  0  0  0
 12  8  1  0  0  0  0
 12 19  2  0  0  0  0
 13  5  2  0  0  0  0
 13 22  1  0  0  0  0
 14 10  1  0  0  0  0
 15 14  1  0  0  0  0
 15 12  1  0  0  0  0
 16  6  1  0  0  0  0
 17  2  2  0  0  0  0
 17  7  1  0  0  0  0
 19 17  1  0  0  0  0
 20 18  1  0  0  0  0
 20 22  2  0  0  0  0
 21  4  2  0  0  0  0
 21  2  1  0  0  0  0
 22  3  1  0  0  0  0
 23 16  1  0  0  0  0
 25 27  1  0  0  0  0
 26 29  1  0  0  0  0
 27 26  3  0  0  0  0
 29 28  2  0  0  0  0
M  END
>  <MODEL>
8

>  <REMARK>
 VINA RESULT:      -8.8      2.566      7.179
  Name = 
  3 active torsions:
  status: ('A' for Active; 'I' for Inactive)
    1  A    between atoms: C_5  and  C_8
    2  A    between atoms: C_8  and  C_20
    3  A    between atoms: C_12  and  C_28
                            x       y       z     vdW  Elec       q    Type
                         _______ _______ _______ _____ _____    ______ ____

>  <TORSDO>
F 3

$$$$
=
 OpenBabel10222418473D

 29 33  0  0  0  0  0  0  0  0999 V2000
  191.5240  176.7510  138.0640 C   0  0  0  0  0  3  0  0  0  0  0  0
  189.5500  177.3630  144.3250 C   0  0  0  0  0  0  0  0  0  0  0  0
  189.0520  177.4680  148.0600 C   0  0  0  0  0  1  0  0  0  0  0  0
  191.6410  176.8030  145.3050 C   0  0  0  0  0  3  0  0  0  0  0  0
  187.6240  177.8430  145.2500 C   0  0  0  0  0  0  0  0  0  0  0  0
  189.1630  177.3650  138.2370 C   0  0  0  0  0  3  0  0  0  0  0  0
  187.4420  177.8770  143.8990 N   0  0  0  0  0  0  0  0  0  0  0  0
  191.4190  176.8560  142.7340 C   0  0  0  0  0  2  0  0  0  0  0  0
  191.6470  176.7410  139.4640 C   0  0  0  0  0  3  0  0  0  0  0  0
  188.3490  177.6150  140.6780 C   0  0  0  0  0  0  0  0  0  0  0  0
  187.1400  177.9310  140.5220 O   0  0  0  0  0  0  0  0  0  0  0  0
  190.3490  177.1120  141.6720 C   0  0  0  0  0  0  0  0  0  0  0  0
  188.9490  177.5130  145.5350 C   0  0  0  0  0  0  0  0  0  0  0  0
  189.3100  177.3490  139.6220 C   0  0  0  0  0  0  0  0  0  0  0  0
  190.5160  177.0450  140.2210 C   0  0  0  0  0  0  0  0  0  0  0  0
  190.2900  177.0620  137.4540 C   0  0  0  0  0  0  0  0  0  0  0  0
  188.6420  177.5830  143.3430 C   0  0  0  0  0  0  0  0  0  0  0  0
  191.8270  176.7460  147.7190 O   0  0  0  0  0  1  0  0  0  0  0  0
  189.0720  177.4470  141.9420 C   0  0  0  0  0  0  0  0  0  0  0  0
  191.0490  176.9550  146.5870 C   0  0  0  0  0  0  0  0  0  0  0  0
  190.8760  177.0100  144.1460 C   0  0  0  0  0  0  0  0  0  0  0  0
  189.6800  177.3130  146.7150 C   0  0  0  0  0  0  0  0  0  0  0  0
  190.1810  177.0680  135.9710 C   0  0  0  0  0  1  0  0  0  0  0  0
  186.1920  178.1520  143.2110 C   0  0  0  0  0  1  0  0  0  0  0  0
  186.5320  178.0480  146.2510 C   0  0  0  0  0  2  0  0  0  0  0  0
  184.3430  178.9740  145.0360 C   0  0  0  0  0  0  0  0  0  0  0  0
  185.3330  178.5560  145.5830 C   0  0  0  0  0  0  0  0  0  0  0  0
  182.2340  178.6280  143.9660 C   0  0  0  0  0  2  0  0  0  0  0  0
  183.1640  179.4710  144.3860 C   0  0  0  0  0  3  0  0  0  0  0  0
  1  9  1  0  0  0  0
  2 13  1  0  0  0  0
  4 20  1  0  0  0  0
  5 13  2  0  0  0  0
  5 25  1  0  0  0  0
  6 14  2  0  0  0  0
  7  5  1  0  0  0  0
  8 21  1  0  0  0  0
  9 15  2  0  0  0  0
 10 19  1  0  0  0  0
 11 10  2  0  0  0  0
 12 19  2  0  0  0  0
 12  8  1  0  0  0  0
 13 22  1  0  0  0  0
 14 15  1  0  0  0  0
 14 10  1  0  0  0  0
 15 12  1  0  0  0  0
 16  1  2  0  0  0  0
 16  6  1  0  0  0  0
 17  7  1  0  0  0  0
 17  2  2  0  0  0  0
 19 17  1  0  0  0  0
 20 22  2  0  0  0  0
 20 18  1  0  0  0  0
 21  2  1  0  0  0  0
 21  4  2  0  0  0  0
 22  3  1  0  0  0  0
 23 16  1  0  0  0  0
 24  7  1  0  0  0  0
 26 27  3  0  0  0  0
 27 25  1  0  0  0  0
 28 29  2  0  0  0  0
 29 26  1  0  0  0  0
M  END
>  <MODEL>
9

>  <REMARK>
 VINA RESULT:      -8.8      3.061      7.417
  Name = 
  3 active torsions:
  status: ('A' for Active; 'I' for Inactive)
    1  A    between atoms: C_5  and  C_8
    2  A    between atoms: C_8  and  C_20
    3  A    between atoms: C_12  and  C_28
                            x       y       z     vdW  Elec       q    Type
                         _______ _______ _______ _____ _____    ______ ____

>  <TORSDO>
F 3

$$$$
