=
 OpenBabel10222419383D

 39 43  0  0  1  0  0  0  0  0999 V2000
  185.5200  178.5810  146.1840 C   0  0  0  0  0  3  0  0  0  0  0  0
  187.8070  177.7410  146.3410 C   0  0  0  0  0  0  0  0  0  0  0  0
  190.0840  176.6360  145.1540 C   0  0  0  0  0  3  0  0  0  0  0  0
  188.9590  177.4550  147.0790 O   0  0  0  0  0  0  0  0  0  0  0  0
  185.4130  178.3560  144.8650 C   0  0  0  0  0  0  0  0  0  0  0  0
  187.7880  177.4520  144.8920 C   0  0  0  0  0  0  0  0  0  0  0  0
  190.0940  176.9020  146.4670 C   0  0  0  0  0  0  0  0  0  0  0  0
  186.7430  178.2680  146.9400 C   0  0  0  0  0  3  0  0  0  0  0  0
  188.8860  176.9160  144.3260 C   0  0  0  0  0  0  0  0  0  0  0  0
  186.5560  177.7600  144.0740 C   0  0  0  0  0  2  0  0  0  0  0  0
  192.8340  176.6900  148.8110 N   0  0  0  0  0  0  0  0  0  0  0  0
  191.2880  176.6220  147.2770 C   0  0  0  0  0  0  0  0  0  0  0  0
  192.2160  175.6250  147.0350 C   0  0  0  0  0  3  0  0  0  0  0  0
  191.7000  177.2910  148.4150 C   0  0  0  0  0  3  0  0  0  0  0  0
  193.1540  175.6960  147.9990 N   0  0  0  0  0  0  0  0  0  0  0  0
  193.6170  177.0670  149.9720 C   0  0  0  0  0  1  0  0  0  0  0  0
  190.2680  176.6100  140.9190 C   0  0  0  0  0  2  0  0  0  0  0  0
  190.2700  176.1900  142.3710 C   0  0  0  0  0  2  0  0  0  0  0  0
  189.3230  177.7210  140.7740 N   0  0  0  0  0  0  0  0  0  0  0  0
  188.5520  177.8140  142.0110 C   0  0  0  0  0  2  0  0  0  0  0  0
  188.9120  176.6130  142.8570 C   0  0  2  0  0  3  0  0  0  0  0  0
  188.4190  177.5210  139.6250 C   0  0  2  0  0  3  0  0  0  0  0  0
  189.4740  178.1380  137.3840 C   0  0  0  0  0  2  0  0  0  0  0  0
  190.8990  176.1620  135.3620 O   0  0  0  0  0  1  0  0  0  0  0  0
  189.2050  177.7640  135.9220 C   0  0  0  0  0  2  0  0  0  0  0  0
  189.5360  176.2970  135.6240 C   0  0  2  0  0  3  0  0  0  0  0  0
  189.1140  176.9900  138.3490 C   0  0  2  0  0  3  0  0  0  0  0  0
  189.1480  175.3760  136.7900 C   0  0  0  0  0  2  0  0  0  0  0  0
  188.3070  176.0380  137.7010 O   0  0  0  0  0  0  0  0  0  0  0  0
  187.7080  178.7630  139.3450 N   0  0  0  0  0  2  0  0  0  0  0  0
  185.8600  178.4680  138.2410 C   0  0  0  0  0  1  0  0  0  0  0  0
  186.3900  178.5150  139.5290 O   0  0  0  0  0  0  0  0  0  0  0  0
  184.1570  178.6960  144.1660 C   0  0  0  0  0  0  0  0  0  0  0  0
  183.1500  179.0840  144.8230 O   0  0  0  0  0  0  0  0  0  0  0  0
  182.9230  178.6050  142.0490 C   0  0  0  0  0  3  0  0  0  0  0  0
  184.0780  178.5870  142.7000 C   0  0  0  0  0  3  0  0  0  0  0  0
  182.9120  178.4880  140.5670 C   0  0  0  0  0  2  0  0  0  0  0  0
  183.0330  177.0930  140.1890 N   0  0  0  0  0  2  0  0  0  0  0  0
  182.5830  176.9950  138.8130 C   0  0  0  0  0  1  0  0  0  0  0  0
  1  8  1  0  0  0  0
  2  8  2  0  0  0  0
  2  4  1  0  0  0  0
  3  7  2  0  0  0  0
  5  1  2  0  0  0  0
  6  2  1  0  0  0  0
  7  4  1  0  0  0  0
  7 12  1  0  0  0  0
  9  6  2  0  0  0  0
  9  3  1  0  0  0  0
 10  5  1  0  0  0  0
 10  6  1  0  0  0  0
 11 16  1  0  0  0  0
 12 14  2  0  0  0  0
 13 12  1  0  0  0  0
 13 15  2  0  0  0  0
 14 11  1  0  0  0  0
 15 11  1  0  0  0  0
 17 18  1  0  0  0  0
 18 21  1  0  0  0  0
 19 17  1  0  0  0  0
 19 20  1  0  0  0  0
 20 21  1  0  0  0  0
 21  9  1  1  0  0  0
 22 30  1  6  0  0  0
 22 19  1  0  0  0  0
 23 27  1  0  0  0  0
 25 23  1  0  0  0  0
 26 24  1  1  0  0  0
 26 25  1  0  0  0  0
 26 28  1  0  0  0  0
 27 22  1  1  0  0  0
 28 29  1  0  0  0  0
 29 27  1  0  0  0  0
 30 32  1  0  0  0  0
 31 32  1  0  0  0  0
 33 34  2  0  0  0  0
 33  5  1  0  0  0  0
 35 36  2  0  0  0  0
 36 33  1  0  0  0  0
 37 35  1  0  0  0  0
 38 37  1  0  0  0  0
 39 38  1  0  0  0  0
M  END
>  <MODEL>
1

>  <REMARK>
 VINA RESULT:      -9.3      0.000      0.000
  Name = 
  10 active torsions:
  status: ('A' for Active; 'I' for Inactive)
    1  A    between atoms: N_7  and  C_10
    2  A    between atoms: C_8  and  C_17
    3  A    between atoms: C_8  and  C_28
    4  A    between atoms: C_9  and  C_10
    5  A    between atoms: N_12  and  O_20
    6  A    between atoms: N_12  and  C_24
    7  A    between atoms: C_18  and  C_24
    8  A    between atoms: N_21  and  C_24
    9  A    between atoms: C_22  and  C_27
   10  A    between atoms: C_33  and  C_36
                            x       y       z     vdW  Elec       q    Type
                         _______ _______ _______ _____ _____    ______ ____

>  <TORSDO>
F 10

$$$$
=
 OpenBabel10222419383D

 39 43  0  0  1  0  0  0  0  0999 V2000
  186.3550  178.2380  138.8150 C   0  0  0  0  0  3  0  0  0  0  0  0
  188.6480  177.4010  138.8990 C   0  0  2  0  0  3  0  0  0  0  0  0
  190.9810  176.8250  140.3260 C   0  0  0  0  0  3  0  0  0  0  0  0
  189.7730  176.8490  138.2800 O   0  0  0  0  0  0  0  0  0  0  0  0
  186.3000  178.5300  140.1240 C   0  0  0  0  0  0  0  0  0  0  0  0
  188.6880  177.6900  140.3470 C   0  0  0  0  0  0  0  0  0  0  0  0
  190.9360  176.5650  139.0120 C   0  0  0  0  0  0  0  0  0  0  0  0
  187.5540  177.6600  138.1870 C   0  0  0  0  0  3  0  0  0  0  0  0
  189.8160  177.4150  141.0290 C   0  0  0  0  0  0  0  0  0  0  0  0
  187.4810  178.2800  141.0360 C   0  0  0  0  0  3  0  0  0  0  0  0
  193.4030  174.6490  137.1990 N   0  0  0  0  0  0  0  0  0  0  0  0
  192.0960  175.9790  138.3270 C   0  0  0  0  0  0  0  0  0  0  0  0
  193.3520  176.5500  138.2250 C   0  0  0  0  0  3  0  0  0  0  0  0
  192.1500  174.7650  137.6660 C   0  0  0  0  0  3  0  0  0  0  0  0
  194.1320  175.7050  137.5240 N   0  0  0  0  0  0  0  0  0  0  0  0
  193.9100  173.5240  136.4380 C   0  0  0  0  0  1  0  0  0  0  0  0
  191.1940  178.7060  144.1990 C   0  0  0  0  0  2  0  0  0  0  0  0
  190.6280  178.9630  142.8210 C   0  0  0  0  0  2  0  0  0  0  0  0
  191.3490  177.2560  144.3580 N   0  0  0  0  0  0  0  0  0  0  0  0
  190.6500  176.6100  143.2500 C   0  0  0  0  0  2  0  0  0  0  0  0
  189.8980  177.6880  142.5020 C   0  0  2  0  0  3  0  0  0  0  0  0
  190.8020  176.7890  145.6460 C   0  0  2  0  0  3  0  0  0  0  0  0
  189.4240  177.5980  147.6360 C   0  0  0  0  0  2  0  0  0  0  0  0
  186.7570  179.3000  147.5170 O   0  0  0  0  0  1  0  0  0  0  0  0
  187.9980  177.3440  148.1390 C   0  0  0  0  0  2  0  0  0  0  0  0
  186.9370  177.9510  147.2140 C   0  0  2  0  0  3  0  0  0  0  0  0
  189.5160  177.5180  146.0990 C   0  0  2  0  0  3  0  0  0  0  0  0
  187.3210  177.8070  145.7330 C   0  0  0  0  0  2  0  0  0  0  0  0
  188.3740  176.8920  145.5690 O   0  0  0  0  0  0  0  0  0  0  0  0
  191.8340  176.8810  146.6730 N   0  0  0  0  0  2  0  0  0  0  0  0
  192.8030  175.6760  148.2000 C   0  0  0  0  0  1  0  0  0  0  0  0
  192.2670  175.6210  146.9140 O   0  0  0  0  0  0  0  0  0  0  0  0
  185.0640  179.1060  140.6920 C   0  0  0  0  0  0  0  0  0  0  0  0
  184.2760  179.7670  139.9570 O   0  0  0  0  0  0  0  0  0  0  0  0
  183.5030  178.9500  142.5770 C   0  0  0  0  0  3  0  0  0  0  0  0
  184.7460  178.9080  142.1150 C   0  0  0  0  0  3  0  0  0  0  0  0
  183.2500  178.7440  144.0270 C   0  0  0  0  0  2  0  0  0  0  0  0
  181.8240  178.6220  144.2590 N   0  0  0  0  0  2  0  0  0  0  0  0
  181.1630  179.2260  143.1180 C   0  0  0  0  0  1  0  0  0  0  0  0
  1  5  1  0  0  0  0
  2  8  1  1  0  0  0
  2  6  1  0  0  0  0
  3  9  1  0  0  0  0
  4  2  1  0  0  0  0
  4  7  1  0  0  0  0
  5 33  1  0  0  0  0
  5 10  2  0  0  0  0
  6  9  2  0  0  0  0
  6 10  1  0  0  0  0
  7  3  2  0  0  0  0
  8  1  2  0  0  0  0
 11 15  1  0  0  0  0
 11 14  1  0  0  0  0
 12  7  1  0  0  0  0
 13 12  1  0  0  0  0
 14 12  2  0  0  0  0
 15 13  2  0  0  0  0
 16 11  1  0  0  0  0
 17 19  1  0  0  0  0
 18 17  1  0  0  0  0
 19 22  1  0  0  0  0
 20 19  1  0  0  0  0
 21  9  1  6  0  0  0
 21 18  1  0  0  0  0
 21 20  1  0  0  0  0
 22 30  1  1  0  0  0
 23 25  1  0  0  0  0
 26 24  1  1  0  0  0
 26 25  1  0  0  0  0
 27 22  1  1  0  0  0
 27 23  1  0  0  0  0
 28 26  1  0  0  0  0
 29 28  1  0  0  0  0
 29 27  1  0  0  0  0
 30 32  1  0  0  0  0
 32 31  1  0  0  0  0
 33 36  1  0  0  0  0
 34 33  2  0  0  0  0
 35 37  1  0  0  0  0
 36 35  2  0  0  0  0
 37 38  1  0  0  0  0
 39 38  1  0  0  0  0
M  END
>  <MODEL>
2

>  <REMARK>
 VINA RESULT:      -9.3      2.638      7.925
  Name = 
  10 active torsions:
  status: ('A' for Active; 'I' for Inactive)
    1  A    between atoms: N_7  and  C_10
    2  A    between atoms: C_8  and  C_17
    3  A    between atoms: C_8  and  C_28
    4  A    between atoms: C_9  and  C_10
    5  A    between atoms: N_12  and  O_20
    6  A    between atoms: N_12  and  C_24
    7  A    between atoms: C_18  and  C_24
    8  A    between atoms: N_21  and  C_24
    9  A    between atoms: C_22  and  C_27
   10  A    between atoms: C_33  and  C_36
                            x       y       z     vdW  Elec       q    Type
                         _______ _______ _______ _____ _____    ______ ____

>  <TORSDO>
F 10

$$$$
=
 OpenBabel10222419383D

 39 43  0  0  1  0  0  0  0  0999 V2000
  186.2350  178.4250  147.4080 C   0  0  0  0  0  3  0  0  0  0  0  0
  184.9540  178.5180  145.3310 C   0  0  1  0  0  3  0  0  0  0  0  0
  184.7610  178.1430  142.5690 C   0  0  0  0  0  3  0  0  0  0  0  0
  183.7760  178.7920  144.6300 O   0  0  0  0  0  0  0  0  0  0  0  0
  187.3520  177.9650  146.8240 C   0  0  0  0  0  0  0  0  0  0  0  0
  186.1330  178.0180  144.5950 C   0  0  0  0  0  0  0  0  0  0  0  0
  183.6960  178.5960  143.2430 C   0  0  0  0  0  0  0  0  0  0  0  0
  185.0080  178.7090  146.6470 C   0  0  0  0  0  3  0  0  0  0  0  0
  186.0360  177.8430  143.2630 C   0  0  0  0  0  0  0  0  0  0  0  0
  187.4130  177.7100  145.3340 C   0  0  0  0  0  3  0  0  0  0  0  0
  180.9150  179.1540  141.0070 N   0  0  0  0  0  0  0  0  0  0  0  0
  182.4370  178.8880  142.5430 C   0  0  0  0  0  0  0  0  0  0  0  0
  181.2610  179.3170  143.1340 C   0  0  0  0  0  3  0  0  0  0  0  0
  182.1960  178.7910  141.1850 C   0  0  0  0  0  3  0  0  0  0  0  0
  180.3450  179.4700  142.1580 N   0  0  0  0  0  0  0  0  0  0  0  0
  180.2310  179.2000  139.7290 C   0  0  0  0  0  1  0  0  0  0  0  0
  189.4320  176.5420  142.6380 C   0  0  0  0  0  2  0  0  0  0  0  0
  188.0650  176.3770  143.2630 C   0  0  0  0  0  2  0  0  0  0  0  0
  189.4970  177.8830  142.0490 N   0  0  0  0  0  0  0  0  0  0  0  0
  188.1450  178.4360  142.0480 C   0  0  0  0  0  2  0  0  0  0  0  0
  187.2070  177.3300  142.4780 C   0  0  2  0  0  3  0  0  0  0  0  0
  190.0350  177.8480  140.6760 C   0  0  2  0  0  3  0  0  0  0  0  0
  189.6030  176.3930  138.6240 C   0  0  0  0  0  2  0  0  0  0  0  0
  186.8630  176.0930  137.0660 O   0  0  0  0  0  1  0  0  0  0  0  0
  189.1900  176.6630  137.1730 C   0  0  0  0  0  2  0  0  0  0  0  0
  187.7470  177.1710  137.0620 C   0  0  2  0  0  3  0  0  0  0  0  0
  189.0080  177.4310  139.5970 C   0  0  2  0  0  3  0  0  0  0  0  0
  187.3900  178.1290  138.2080 C   0  0  0  0  0  2  0  0  0  0  0  0
  188.5410  178.5550  138.8910 O   0  0  0  0  0  0  0  0  0  0  0  0
  191.2050  176.9800  140.6350 N   0  0  0  0  0  2  0  0  0  0  0  0
  193.1750  177.1720  139.7370 C   0  0  0  0  0  1  0  0  0  0  0  0
  192.2950  177.7830  140.6300 O   0  0  0  0  0  0  0  0  0  0  0  0
  188.5500  177.6980  147.6470 C   0  0  0  0  0  0  0  0  0  0  0  0
  188.6580  178.2150  148.7950 O   0  0  0  0  0  0  0  0  0  0  0  0
  190.7570  177.3090  146.6500 C   0  0  0  0  0  3  0  0  0  0  0  0
  189.6180  176.8270  147.1310 C   0  0  0  0  0  3  0  0  0  0  0  0
  191.7940  176.3750  146.1430 C   0  0  0  0  0  2  0  0  0  0  0  0
  191.9760  175.2890  147.0870 N   0  0  0  0  0  2  0  0  0  0  0  0
  192.8190  175.8000  148.1510 C   0  0  0  0  0  1  0  0  0  0  0  0
  2  8  1  6  0  0  0
  3  7  2  0  0  0  0
  3  9  1  0  0  0  0
  4  2  1  0  0  0  0
  5  1  1  0  0  0  0
  5 33  1  0  0  0  0
  6  2  1  0  0  0  0
  6 10  1  0  0  0  0
  7  4  1  0  0  0  0
  8  1  2  0  0  0  0
  9  6  2  0  0  0  0
 10  5  2  0  0  0  0
 11 14  1  0  0  0  0
 11 15  1  0  0  0  0
 12 13  1  0  0  0  0
 12  7  1  0  0  0  0
 14 12  2  0  0  0  0
 15 13  2  0  0  0  0
 16 11  1  0  0  0  0
 17 18  1  0  0  0  0
 19 17  1  0  0  0  0
 20 19  1  0  0  0  0
 20 21  1  0  0  0  0
 21 18  1  0  0  0  0
 21  9  1  1  0  0  0
 22 30  1  1  0  0  0
 22 19  1  0  0  0  0
 23 27  1  0  0  0  0
 25 23  1  0  0  0  0
 26 24  1  1  0  0  0
 26 25  1  0  0  0  0
 26 28  1  0  0  0  0
 27 22  1  1  0  0  0
 28 29  1  0  0  0  0
 29 27  1  0  0  0  0
 31 32  1  0  0  0  0
 32 30  1  0  0  0  0
 33 34  2  0  0  0  0
 35 36  2  0  0  0  0
 36 33  1  0  0  0  0
 37 35  1  0  0  0  0
 37 38  1  0  0  0  0
 38 39  1  0  0  0  0
M  END
>  <MODEL>
3

>  <REMARK>
 VINA RESULT:      -9.1      1.783      7.364
  Name = 
  10 active torsions:
  status: ('A' for Active; 'I' for Inactive)
    1  A    between atoms: N_7  and  C_10
    2  A    between atoms: C_8  and  C_17
    3  A    between atoms: C_8  and  C_28
    4  A    between atoms: C_9  and  C_10
    5  A    between atoms: N_12  and  O_20
    6  A    between atoms: N_12  and  C_24
    7  A    between atoms: C_18  and  C_24
    8  A    between atoms: N_21  and  C_24
    9  A    between atoms: C_22  and  C_27
   10  A    between atoms: C_33  and  C_36
                            x       y       z     vdW  Elec       q    Type
                         _______ _______ _______ _____ _____    ______ ____

>  <TORSDO>
F 10

$$$$
=
 OpenBabel10222419383D

 39 43  0  0  1  0  0  0  0  0999 V2000
  186.0920  178.0990  137.8120 C   0  0  0  0  0  3  0  0  0  0  0  0
  188.3630  177.3590  138.3180 C   0  0  2  0  0  3  0  0  0  0  0  0
  190.4520  176.9740  140.1340 C   0  0  0  0  0  3  0  0  0  0  0  0
  189.5880  176.8110  137.9280 O   0  0  0  0  0  0  0  0  0  0  0  0
  185.8190  178.4770  139.0710 C   0  0  0  0  0  0  0  0  0  0  0  0
  188.1630  177.7480  139.7290 C   0  0  0  0  0  0  0  0  0  0  0  0
  190.6260  176.6230  138.8530 C   0  0  0  0  0  0  0  0  0  0  0  0
  187.3910  177.5260  137.4250 C   0  0  0  0  0  3  0  0  0  0  0  0
  189.1740  177.5640  140.5990 C   0  0  0  0  0  0  0  0  0  0  0  0
  186.8450  178.3360  140.1740 C   0  0  0  0  0  3  0  0  0  0  0  0
  193.3940  174.7270  137.5140 N   0  0  0  0  0  0  0  0  0  0  0  0
  191.8970  176.0370  138.4050 C   0  0  0  0  0  0  0  0  0  0  0  0
  193.1550  176.5740  138.6120 C   0  0  0  0  0  3  0  0  0  0  0  0
  192.0710  174.8580  137.7030 C   0  0  0  0  0  3  0  0  0  0  0  0
  194.0530  175.7420  138.0500 N   0  0  0  0  0  0  0  0  0  0  0  0
  194.0330  173.6270  136.8180 C   0  0  0  0  0  1  0  0  0  0  0  0
  190.1510  178.2140  144.0980 C   0  0  0  0  0  2  0  0  0  0  0  0
  190.2500  178.5590  142.6290 C   0  0  0  0  0  2  0  0  0  0  0  0
  189.3410  176.9980  144.2200 N   0  0  0  0  0  0  0  0  0  0  0  0
  188.7190  176.7460  142.9230 C   0  0  0  0  0  2  0  0  0  0  0  0
  189.0110  177.9400  142.0430 C   0  0  2  0  0  3  0  0  0  0  0  0
  188.3070  177.1360  145.2630 C   0  0  2  0  0  3  0  0  0  0  0  0
  186.4020  178.6360  146.0580 C   0  0  0  0  0  2  0  0  0  0  0  0
  184.3040  180.1500  144.2330 O   0  0  0  0  0  1  0  0  0  0  0  0
  184.8730  178.5870  145.9620 C   0  0  0  0  0  2  0  0  0  0  0  0
  184.3730  178.7880  144.5260 C   0  0  2  0  0  3  0  0  0  0  0  0
  187.0800  177.9760  144.8410 C   0  0  2  0  0  3  0  0  0  0  0  0
  185.2820  178.0910  143.5020 C   0  0  0  0  0  2  0  0  0  0  0  0
  186.1550  177.1880  144.1310 O   0  0  0  0  0  0  0  0  0  0  0  0
  188.9100  177.6790  146.4750 N   0  0  0  0  0  2  0  0  0  0  0  0
  190.6890  176.9600  147.4960 C   0  0  0  0  0  1  0  0  0  0  0  0
  189.3690  176.6270  147.1940 O   0  0  0  0  0  0  0  0  0  0  0  0
  184.4930  179.0420  139.3920 C   0  0  0  0  0  0  0  0  0  0  0  0
  184.2860  180.2820  139.2730 O   0  0  0  0  0  0  0  0  0  0  0  0
  182.1560  178.5790  139.9770 C   0  0  0  0  0  3  0  0  0  0  0  0
  183.4080  178.1590  139.8500 C   0  0  0  0  0  3  0  0  0  0  0  0
  181.1080  177.6370  140.4460 C   0  0  0  0  0  2  0  0  0  0  0  0
  181.3390  176.3260  139.8700 N   0  0  0  0  0  2  0  0  0  0  0  0
  180.2370  176.0710  138.9620 C   0  0  0  0  0  1  0  0  0  0  0  0
  1  5  1  0  0  0  0
  2  8  1  1  0  0  0
  2  6  1  0  0  0  0
  3  9  1  0  0  0  0
  4  2  1  0  0  0  0
  4  7  1  0  0  0  0
  5 33  1  0  0  0  0
  5 10  2  0  0  0  0
  6 10  1  0  0  0  0
  6  9  2  0  0  0  0
  7  3  2  0  0  0  0
  8  1  2  0  0  0  0
 11 14  1  0  0  0  0
 11 15  1  0  0  0  0
 12 13  1  0  0  0  0
 12  7  1  0  0  0  0
 14 12  2  0  0  0  0
 15 13  2  0  0  0  0
 16 11  1  0  0  0  0
 17 19  1  0  0  0  0
 18 17  1  0  0  0  0
 19 22  1  0  0  0  0
 20 19  1  0  0  0  0
 21  9  1  6  0  0  0
 21 18  1  0  0  0  0
 21 20  1  0  0  0  0
 22 30  1  1  0  0  0
 25 23  1  0  0  0  0
 26 24  1  6  0  0  0
 26 25  1  0  0  0  0
 27 22  1  1  0  0  0
 27 23  1  0  0  0  0
 28 29  1  0  0  0  0
 28 26  1  0  0  0  0
 29 27  1  0  0  0  0
 30 32  1  0  0  0  0
 32 31  1  0  0  0  0
 33 36  1  0  0  0  0
 34 33  2  0  0  0  0
 35 37  1  0  0  0  0
 36 35  2  0  0  0  0
 38 37  1  0  0  0  0
 39 38  1  0  0  0  0
M  END
>  <MODEL>
4

>  <REMARK>
 VINA RESULT:      -8.4      2.459      7.476
  Name = 
  10 active torsions:
  status: ('A' for Active; 'I' for Inactive)
    1  A    between atoms: N_7  and  C_10
    2  A    between atoms: C_8  and  C_17
    3  A    between atoms: C_8  and  C_28
    4  A    between atoms: C_9  and  C_10
    5  A    between atoms: N_12  and  O_20
    6  A    between atoms: N_12  and  C_24
    7  A    between atoms: C_18  and  C_24
    8  A    between atoms: N_21  and  C_24
    9  A    between atoms: C_22  and  C_27
   10  A    between atoms: C_33  and  C_36
                            x       y       z     vdW  Elec       q    Type
                         _______ _______ _______ _____ _____    ______ ____

>  <TORSDO>
F 10

$$$$
=
 OpenBabel10222419383D

 39 43  0  0  1  0  0  0  0  0999 V2000
  183.5660  178.9710  145.0910 C   0  0  0  0  0  3  0  0  0  0  0  0
  185.8900  178.3220  145.4680 C   0  0  0  0  0  0  0  0  0  0  0  0
  188.3670  177.4630  144.5000 C   0  0  0  0  0  3  0  0  0  0  0  0
  186.9790  178.1050  146.3170 O   0  0  0  0  0  0  0  0  0  0  0  0
  183.6190  178.7920  143.7630 C   0  0  0  0  0  0  0  0  0  0  0  0
  186.0480  178.0920  144.0170 C   0  0  0  0  0  0  0  0  0  0  0  0
  188.2160  177.6760  145.8140 C   0  0  0  0  0  0  0  0  0  0  0  0
  184.7260  178.7330  145.9650 C   0  0  0  0  0  3  0  0  0  0  0  0
  187.2420  177.6740  143.5560 C   0  0  0  0  0  0  0  0  0  0  0  0
  184.8860  178.3270  143.0810 C   0  0  0  0  0  2  0  0  0  0  0  0
  191.1820  176.7540  147.6560 N   0  0  0  0  0  0  0  0  0  0  0  0
  189.3390  177.4650  146.7380 C   0  0  0  0  0  0  0  0  0  0  0  0
  189.5120  178.0920  147.9590 C   0  0  0  0  0  3  0  0  0  0  0  0
  190.4150  176.6150  146.5630 C   0  0  0  0  0  3  0  0  0  0  0  0
  190.6580  177.6310  148.4970 N   0  0  0  0  0  0  0  0  0  0  0  0
  192.4250  176.0470  147.9000 C   0  0  0  0  0  1  0  0  0  0  0  0
  188.7430  178.0430  140.2060 C   0  0  0  0  0  2  0  0  0  0  0  0
  188.8730  177.6420  141.6580 C   0  0  0  0  0  2  0  0  0  0  0  0
  187.4180  178.6430  140.0220 N   0  0  0  0  0  0  0  0  0  0  0  0
  186.6380  178.3760  141.2290 C   0  0  0  0  0  2  0  0  0  0  0  0
  187.4480  177.4340  142.0890 C   0  0  2  0  0  3  0  0  0  0  0  0
  186.7300  178.0910  138.8390 C   0  0  2  0  0  3  0  0  0  0  0  0
  187.4470  178.6550  136.4560 C   0  0  0  0  0  2  0  0  0  0  0  0
  189.7910  177.2950  134.8180 O   0  0  0  0  0  1  0  0  0  0  0  0
  187.4880  177.8890  135.1280 C   0  0  0  0  0  2  0  0  0  0  0  0
  188.5370  176.7720  135.1320 C   0  0  2  0  0  3  0  0  0  0  0  0
  187.6680  177.7250  137.6660 C   0  0  2  0  0  3  0  0  0  0  0  0
  188.6080  176.0600  136.4910 C   0  0  0  0  0  2  0  0  0  0  0  0
  187.4980  176.3800  137.2900 O   0  0  0  0  0  0  0  0  0  0  0  0
  185.6970  179.0220  138.4010 N   0  0  0  0  0  2  0  0  0  0  0  0
  184.1390  177.6970  137.6680 C   0  0  0  0  0  1  0  0  0  0  0  0
  184.5050  178.4880  138.7570 O   0  0  0  0  0  0  0  0  0  0  0  0
  182.4180  179.0520  142.9430 C   0  0  0  0  0  0  0  0  0  0  0  0
  181.5350  179.8590  143.3490 O   0  0  0  0  0  0  0  0  0  0  0  0
  181.2230  178.6210  140.8450 C   0  0  0  0  0  3  0  0  0  0  0  0
  182.2480  178.3720  141.6480 C   0  0  0  0  0  3  0  0  0  0  0  0
  181.1100  177.8990  139.5510 C   0  0  0  0  0  2  0  0  0  0  0  0
  180.4520  176.6230  139.7620 N   0  0  0  0  0  2  0  0  0  0  0  0
  181.2100  175.6370  139.0160 C   0  0  0  0  0  1  0  0  0  0  0  0
  1  8  1  0  0  0  0
  2  8  2  0  0  0  0
  2  4  1  0  0  0  0
  3  7  2  0  0  0  0
  5  1  2  0  0  0  0
  6  2  1  0  0  0  0
  7  4  1  0  0  0  0
  7 12  1  0  0  0  0
  9  6  2  0  0  0  0
  9  3  1  0  0  0  0
 10  5  1  0  0  0  0
 10  6  1  0  0  0  0
 11 16  1  0  0  0  0
 11 15  1  0  0  0  0
 12 13  1  0  0  0  0
 13 15  2  0  0  0  0
 14 12  2  0  0  0  0
 14 11  1  0  0  0  0
 17 18  1  0  0  0  0
 18 21  1  0  0  0  0
 19 17  1  0  0  0  0
 19 20  1  0  0  0  0
 20 21  1  0  0  0  0
 21  9  1  1  0  0  0
 22 30  1  6  0  0  0
 22 19  1  0  0  0  0
 23 27  1  0  0  0  0
 25 26  1  0  0  0  0
 25 23  1  0  0  0  0
 26 24  1  1  0  0  0
 26 28  1  0  0  0  0
 27 22  1  1  0  0  0
 28 29  1  0  0  0  0
 29 27  1  0  0  0  0
 30 32  1  0  0  0  0
 31 32  1  0  0  0  0
 33 34  2  0  0  0  0
 33  5  1  0  0  0  0
 35 36  2  0  0  0  0
 36 33  1  0  0  0  0
 37 38  1  0  0  0  0
 37 35  1  0  0  0  0
 39 38  1  0  0  0  0
M  END
>  <MODEL>
5

>  <REMARK>
 VINA RESULT:      -8.2      1.526      2.165
  Name = 
  10 active torsions:
  status: ('A' for Active; 'I' for Inactive)
    1  A    between atoms: N_7  and  C_10
    2  A    between atoms: C_8  and  C_17
    3  A    between atoms: C_8  and  C_28
    4  A    between atoms: C_9  and  C_10
    5  A    between atoms: N_12  and  O_20
    6  A    between atoms: N_12  and  C_24
    7  A    between atoms: C_18  and  C_24
    8  A    between atoms: N_21  and  C_24
    9  A    between atoms: C_22  and  C_27
   10  A    between atoms: C_33  and  C_36
                            x       y       z     vdW  Elec       q    Type
                         _______ _______ _______ _____ _____    ______ ____

>  <TORSDO>
F 10

$$$$
=
 OpenBabel10222419383D

 39 43  0  0  1  0  0  0  0  0999 V2000
  185.4060  178.4240  146.9980 C   0  0  0  0  0  3  0  0  0  0  0  0
  184.0270  178.6560  144.9970 C   0  0  0  0  0  0  0  0  0  0  0  0
  183.7270  178.5600  142.2200 C   0  0  0  0  0  3  0  0  0  0  0  0
  182.8040  178.9310  144.3770 O   0  0  0  0  0  0  0  0  0  0  0  0
  186.5180  178.0930  146.3240 C   0  0  0  0  0  0  0  0  0  0  0  0
  185.1960  178.3060  144.1640 C   0  0  0  0  0  0  0  0  0  0  0  0
  182.6710  178.8760  142.9810 C   0  0  0  0  0  0  0  0  0  0  0  0
  184.1310  178.7110  146.3220 C   0  0  0  0  0  3  0  0  0  0  0  0
  185.0470  178.2650  142.8270 C   0  0  0  0  0  0  0  0  0  0  0  0
  186.5240  177.9990  144.8140 C   0  0  0  0  0  2  0  0  0  0  0  0
  179.7700  179.5250  140.9300 N   0  0  0  0  0  0  0  0  0  0  0  0
  181.3670  179.1650  142.3680 C   0  0  0  0  0  0  0  0  0  0  0  0
  180.1880  179.4110  143.0470 C   0  0  0  0  0  3  0  0  0  0  0  0
  181.0790  179.2420  141.0170 C   0  0  0  0  0  3  0  0  0  0  0  0
  179.2250  179.6290  142.1310 N   0  0  0  0  0  0  0  0  0  0  0  0
  179.0330  179.6970  139.6930 C   0  0  0  0  0  1  0  0  0  0  0  0
  188.3640  178.5760  141.2400 C   0  0  0  0  0  2  0  0  0  0  0  0
  187.5230  178.3940  142.4830 C   0  0  0  0  0  2  0  0  0  0  0  0
  187.4550  178.8170  140.1150 N   0  0  0  0  0  0  0  0  0  0  0  0
  186.0980  178.5200  140.5670 C   0  0  0  0  0  2  0  0  0  0  0  0
  186.2070  177.9060  141.9440 C   0  0  2  0  0  3  0  0  0  0  0  0
  187.7980  177.9810  138.9490 C   0  0  2  0  0  3  0  0  0  0  0  0
  189.8050  177.8150  137.3810 C   0  0  0  0  0  2  0  0  0  0  0  0
  192.7810  177.1060  138.1940 O   0  0  0  0  0  1  0  0  0  0  0  0
  190.7640  176.6930  136.9650 C   0  0  0  0  0  2  0  0  0  0  0  0
  191.6800  176.2540  138.1130 C   0  0  2  0  0  3  0  0  0  0  0  0
  189.3010  177.6380  138.8270 C   0  0  2  0  0  3  0  0  0  0  0  0
  190.9430  176.2450  139.4610 C   0  0  0  0  0  2  0  0  0  0  0  0
  189.5520  176.3290  139.2790 O   0  0  0  0  0  0  0  0  0  0  0  0
  187.3180  178.6260  137.7320 N   0  0  0  0  0  2  0  0  0  0  0  0
  186.4440  176.7010  137.2270 C   0  0  0  0  0  1  0  0  0  0  0  0
  186.1340  178.0470  137.4180 O   0  0  0  0  0  0  0  0  0  0  0  0
  187.7650  177.8140  147.0650 C   0  0  0  0  0  0  0  0  0  0  0  0
  187.7230  177.5450  148.2990 O   0  0  0  0  0  0  0  0  0  0  0  0
  189.6740  176.7430  145.9590 C   0  0  0  0  0  3  0  0  0  0  0  0
  189.0600  177.8460  146.3660 C   0  0  0  0  0  3  0  0  0  0  0  0
  190.9810  176.8440  145.2600 C   0  0  0  0  0  2  0  0  0  0  0  0
  192.0490  176.9450  146.2370 N   0  0  0  0  0  2  0  0  0  0  0  0
  192.2340  175.6160  146.7890 C   0  0  0  0  0  1  0  0  0  0  0  0
  2  8  2  0  0  0  0
  3  9  1  0  0  0  0
  3  7  2  0  0  0  0
  4  2  1  0  0  0  0
  5  1  2  0  0  0  0
  5 33  1  0  0  0  0
  6 10  1  0  0  0  0
  6  2  1  0  0  0  0
  7  4  1  0  0  0  0
  8  1  1  0  0  0  0
  9  6  2  0  0  0  0
 10  5  1  0  0  0  0
 11 14  1  0  0  0  0
 11 15  1  0  0  0  0
 12  7  1  0  0  0  0
 12 13  1  0  0  0  0
 14 12  2  0  0  0  0
 15 13  2  0  0  0  0
 16 11  1  0  0  0  0
 17 18  1  0  0  0  0
 19 20  1  0  0  0  0
 19 17  1  0  0  0  0
 20 21  1  0  0  0  0
 21 18  1  0  0  0  0
 21  9  1  1  0  0  0
 22 30  1  6  0  0  0
 22 19  1  0  0  0  0
 23 27  1  0  0  0  0
 25 23  1  0  0  0  0
 25 26  1  0  0  0  0
 26 24  1  1  0  0  0
 26 28  1  0  0  0  0
 27 22  1  6  0  0  0
 27 29  1  0  0  0  0
 29 28  1  0  0  0  0
 31 32  1  0  0  0  0
 32 30  1  0  0  0  0
 33 34  2  0  0  0  0
 35 36  2  0  0  0  0
 36 33  1  0  0  0  0
 37 35  1  0  0  0  0
 37 38  1  0  0  0  0
 38 39  1  0  0  0  0
M  END
>  <MODEL>
6

>  <REMARK>
 VINA RESULT:      -8.1      1.980      7.408
  Name = 
  10 active torsions:
  status: ('A' for Active; 'I' for Inactive)
    1  A    between atoms: N_7  and  C_10
    2  A    between atoms: C_8  and  C_17
    3  A    between atoms: C_8  and  C_28
    4  A    between atoms: C_9  and  C_10
    5  A    between atoms: N_12  and  O_20
    6  A    between atoms: N_12  and  C_24
    7  A    between atoms: C_18  and  C_24
    8  A    between atoms: N_21  and  C_24
    9  A    between atoms: C_22  and  C_27
   10  A    between atoms: C_33  and  C_36
                            x       y       z     vdW  Elec       q    Type
                         _______ _______ _______ _____ _____    ______ ____

>  <TORSDO>
F 10

$$$$
=
 OpenBabel10222419383D

 39 43  0  0  1  0  0  0  0  0999 V2000
  185.6170  178.5290  146.8930 C   0  0  0  0  0  3  0  0  0  0  0  0
  187.9470  177.8000  146.9470 C   0  0  0  0  0  0  0  0  0  0  0  0
  190.2800  176.9990  145.6340 C   0  0  0  0  0  3  0  0  0  0  0  0
  189.1120  177.4740  147.6470 O   0  0  0  0  0  0  0  0  0  0  0  0
  185.5230  178.4890  145.5550 C   0  0  0  0  0  0  0  0  0  0  0  0
  187.9440  177.7190  145.4720 C   0  0  0  0  0  0  0  0  0  0  0  0
  190.2760  177.0750  146.9710 C   0  0  0  0  0  0  0  0  0  0  0  0
  186.8550  178.1780  147.6070 C   0  0  0  0  0  3  0  0  0  0  0  0
  189.0690  177.3290  144.8440 C   0  0  0  0  0  0  0  0  0  0  0  0
  186.6970  178.0730  144.6960 C   0  0  0  0  0  2  0  0  0  0  0  0
  193.0860  176.7610  149.2180 N   0  0  0  0  0  0  0  0  0  0  0  0
  191.4830  176.7470  147.7420 C   0  0  0  0  0  0  0  0  0  0  0  0
  192.3500  175.7010  147.4850 C   0  0  0  0  0  3  0  0  0  0  0  0
  191.9700  177.4120  148.8520 C   0  0  0  0  0  3  0  0  0  0  0  0
  193.3250  175.7390  148.4130 N   0  0  0  0  0  0  0  0  0  0  0  0
  193.9290  177.1160  150.3430 C   0  0  0  0  0  1  0  0  0  0  0  0
  189.6420  175.8340  141.5200 C   0  0  0  0  0  2  0  0  0  0  0  0
  188.9040  175.8400  142.8390 C   0  0  0  0  0  2  0  0  0  0  0  0
  190.6900  176.8570  141.5870 N   0  0  0  0  0  0  0  0  0  0  0  0
  190.4460  177.6670  142.7780 C   0  0  0  0  0  2  0  0  0  0  0  0
  189.1110  177.2400  143.3470 C   0  0  2  0  0  3  0  0  0  0  0  0
  190.6960  177.7110  140.3840 C   0  0  2  0  0  3  0  0  0  0  0  0
  189.7460  177.6440  138.0160 C   0  0  0  0  0  2  0  0  0  0  0  0
  186.7150  177.2170  137.2090 O   0  0  0  0  0  1  0  0  0  0  0  0
  188.7440  178.4950  137.2270 C   0  0  0  0  0  2  0  0  0  0  0  0
  187.3130  178.3510  137.7580 C   0  0  2  0  0  3  0  0  0  0  0  0
  189.4160  177.6100  139.5210 C   0  0  2  0  0  3  0  0  0  0  0  0
  187.2790  178.2550  139.2900 C   0  0  0  0  0  2  0  0  0  0  0  0
  188.5100  178.6350  139.8500 O   0  0  0  0  0  0  0  0  0  0  0  0
  191.8790  177.4150  139.5850 N   0  0  0  0  0  2  0  0  0  0  0  0
  194.0280  177.1260  139.7360 C   0  0  0  0  0  1  0  0  0  0  0  0
  192.9540  177.8070  140.3090 O   0  0  0  0  0  0  0  0  0  0  0  0
  184.2510  178.8570  144.9010 C   0  0  0  0  0  0  0  0  0  0  0  0
  183.3160  179.3730  145.5770 O   0  0  0  0  0  0  0  0  0  0  0  0
  182.9760  179.0020  142.8110 C   0  0  0  0  0  3  0  0  0  0  0  0
  184.0700  178.6250  143.4590 C   0  0  0  0  0  3  0  0  0  0  0  0
  182.8550  178.7360  141.3540 C   0  0  0  0  0  2  0  0  0  0  0  0
  181.5780  178.1060  141.0790 N   0  0  0  0  0  2  0  0  0  0  0  0
  180.6200  178.6910  141.9980 C   0  0  0  0  0  1  0  0  0  0  0  0
  1  8  1  0  0  0  0
  2  8  2  0  0  0  0
  2  4  1  0  0  0  0
  3  7  2  0  0  0  0
  5  1  2  0  0  0  0
  6  2  1  0  0  0  0
  7  4  1  0  0  0  0
  7 12  1  0  0  0  0
  9  6  2  0  0  0  0
  9  3  1  0  0  0  0
 10  6  1  0  0  0  0
 10  5  1  0  0  0  0
 11 16  1  0  0  0  0
 12 14  2  0  0  0  0
 13 12  1  0  0  0  0
 13 15  2  0  0  0  0
 14 11  1  0  0  0  0
 15 11  1  0  0  0  0
 17 19  1  0  0  0  0
 17 18  1  0  0  0  0
 18 21  1  0  0  0  0
 19 20  1  0  0  0  0
 20 21  1  0  0  0  0
 21  9  1  1  0  0  0
 22 30  1  6  0  0  0
 22 19  1  0  0  0  0
 23 27  1  0  0  0  0
 25 26  1  0  0  0  0
 25 23  1  0  0  0  0
 26 24  1  6  0  0  0
 26 28  1  0  0  0  0
 27 29  1  0  0  0  0
 27 22  1  1  0  0  0
 28 29  1  0  0  0  0
 30 32  1  0  0  0  0
 31 32  1  0  0  0  0
 33  5  1  0  0  0  0
 33 34  2  0  0  0  0
 35 36  2  0  0  0  0
 36 33  1  0  0  0  0
 37 35  1  0  0  0  0
 38 37  1  0  0  0  0
 38 39  1  0  0  0  0
M  END
>  <MODEL>
7

>  <REMARK>
 VINA RESULT:      -8.1      1.613      2.541
  Name = 
  10 active torsions:
  status: ('A' for Active; 'I' for Inactive)
    1  A    between atoms: N_7  and  C_10
    2  A    between atoms: C_8  and  C_17
    3  A    between atoms: C_8  and  C_28
    4  A    between atoms: C_9  and  C_10
    5  A    between atoms: N_12  and  O_20
    6  A    between atoms: N_12  and  C_24
    7  A    between atoms: C_18  and  C_24
    8  A    between atoms: N_21  and  C_24
    9  A    between atoms: C_22  and  C_27
   10  A    between atoms: C_33  and  C_36
                            x       y       z     vdW  Elec       q    Type
                         _______ _______ _______ _____ _____    ______ ____

>  <TORSDO>
F 10

$$$$
=
 OpenBabel10222419383D

 39 43  0  0  1  0  0  0  0  0999 V2000
  184.2310  178.6280  143.7000 C   0  0  0  0  0  3  0  0  0  0  0  0
  186.4480  178.0370  144.5350 C   0  0  0  0  0  0  0  0  0  0  0  0
  189.0640  177.1600  144.0930 C   0  0  0  0  0  3  0  0  0  0  0  0
  187.3620  177.8870  145.5820 O   0  0  0  0  0  0  0  0  0  0  0  0
  184.5280  178.3710  142.4170 C   0  0  0  0  0  0  0  0  0  0  0  0
  186.8720  177.7240  143.1550 C   0  0  0  0  0  0  0  0  0  0  0  0
  188.6730  177.4470  145.3420 C   0  0  0  0  0  0  0  0  0  0  0  0
  185.2110  178.4580  144.7850 C   0  0  0  0  0  3  0  0  0  0  0  0
  188.1320  177.2970  142.9480 C   0  0  0  0  0  0  0  0  0  0  0  0
  185.9010  177.8860  142.0090 C   0  0  0  0  0  2  0  0  0  0  0  0
  191.3030  176.7520  147.7170 N   0  0  0  0  0  0  0  0  0  0  0  0
  189.6070  177.3080  146.4680 C   0  0  0  0  0  0  0  0  0  0  0  0
  189.4580  177.8780  147.7190 C   0  0  0  0  0  3  0  0  0  0  0  0
  190.7900  176.5930  146.4870 C   0  0  0  0  0  3  0  0  0  0  0  0
  190.5210  177.5160  148.4640 N   0  0  0  0  0  0  0  0  0  0  0  0
  192.5470  176.1730  148.1850 C   0  0  0  0  0  1  0  0  0  0  0  0
  190.4320  177.1410  140.0670 C   0  0  0  0  0  2  0  0  0  0  0  0
  190.0910  176.7530  141.4880 C   0  0  0  0  0  2  0  0  0  0  0  0
  189.4170  178.0930  139.6050 N   0  0  0  0  0  0  0  0  0  0  0  0
  188.3290  178.0900  140.5800 C   0  0  0  0  0  2  0  0  0  0  0  0
  188.6060  176.9740  141.5610 C   0  0  2  0  0  3  0  0  0  0  0  0
  188.9050  177.7360  138.2690 C   0  0  2  0  0  3  0  0  0  0  0  0
  190.3520  176.8110  136.3810 C   0  0  0  0  0  2  0  0  0  0  0  0
  191.3340  173.8200  136.0470 O   0  0  0  0  0  1  0  0  0  0  0  0
  190.1550  175.7620  135.2800 C   0  0  0  0  0  2  0  0  0  0  0  0
  190.0570  174.3390  135.8420 C   0  0  2  0  0  3  0  0  0  0  0  0
  189.5490  176.4720  137.6520 C   0  0  2  0  0  3  0  0  0  0  0  0
  189.2720  174.3000  137.1620 C   0  0  0  0  0  2  0  0  0  0  0  0
  188.5720  175.5000  137.3720 O   0  0  0  0  0  0  0  0  0  0  0  0
  189.0510  178.8770  137.3730 N   0  0  0  0  0  2  0  0  0  0  0  0
  187.1910  178.6010  136.2830 C   0  0  0  0  0  1  0  0  0  0  0  0
  187.8210  179.4210  137.2190 O   0  0  0  0  0  0  0  0  0  0  0  0
  183.4980  178.5640  141.3760 C   0  0  0  0  0  0  0  0  0  0  0  0
  183.8290  178.6180  140.1580 O   0  0  0  0  0  0  0  0  0  0  0  0
  181.2100  179.3770  141.0260 C   0  0  0  0  0  3  0  0  0  0  0  0
  182.0820  178.6930  141.7560 C   0  0  0  0  0  3  0  0  0  0  0  0
  179.7950  179.4700  141.4680 C   0  0  0  0  0  2  0  0  0  0  0  0
  179.6870  180.4180  142.5610 N   0  0  0  0  0  2  0  0  0  0  0  0
  178.9480  179.7530  143.6160 C   0  0  0  0  0  1  0  0  0  0  0  0
  1  8  1  0  0  0  0
  2  8  2  0  0  0  0
  2  4  1  0  0  0  0
  3  7  2  0  0  0  0
  5  1  2  0  0  0  0
  6  2  1  0  0  0  0
  7  4  1  0  0  0  0
  7 12  1  0  0  0  0
  9  6  2  0  0  0  0
  9  3  1  0  0  0  0
 10  5  1  0  0  0  0
 10  6  1  0  0  0  0
 11 16  1  0  0  0  0
 11 15  1  0  0  0  0
 12 14  2  0  0  0  0
 12 13  1  0  0  0  0
 13 15  2  0  0  0  0
 14 11  1  0  0  0  0
 17 18  1  0  0  0  0
 18 21  1  0  0  0  0
 19 17  1  0  0  0  0
 19 20  1  0  0  0  0
 20 21  1  0  0  0  0
 21  9  1  1  0  0  0
 22 30  1  6  0  0  0
 22 19  1  0  0  0  0
 23 27  1  0  0  0  0
 25 26  1  0  0  0  0
 25 23  1  0  0  0  0
 26 24  1  1  0  0  0
 26 28  1  0  0  0  0
 27 22  1  6  0  0  0
 28 29  1  0  0  0  0
 29 27  1  0  0  0  0
 31 32  1  0  0  0  0
 32 30  1  0  0  0  0
 33 36  1  0  0  0  0
 33  5  1  0  0  0  0
 34 33  2  0  0  0  0
 35 37  1  0  0  0  0
 35 36  2  0  0  0  0
 37 38  1  0  0  0  0
 38 39  1  0  0  0  0
M  END
>  <MODEL>
8

>  <REMARK>
 VINA RESULT:      -8.0      1.880      2.607
  Name = 
  10 active torsions:
  status: ('A' for Active; 'I' for Inactive)
    1  A    between atoms: N_7  and  C_10
    2  A    between atoms: C_8  and  C_17
    3  A    between atoms: C_8  and  C_28
    4  A    between atoms: C_9  and  C_10
    5  A    between atoms: N_12  and  O_20
    6  A    between atoms: N_12  and  C_24
    7  A    between atoms: C_18  and  C_24
    8  A    between atoms: N_21  and  C_24
    9  A    between atoms: C_22  and  C_27
   10  A    between atoms: C_33  and  C_36
                            x       y       z     vdW  Elec       q    Type
                         _______ _______ _______ _____ _____    ______ ____

>  <TORSDO>
F 10

$$$$
=
 OpenBabel10222419383D

 39 43  0  0  1  0  0  0  0  0999 V2000
  184.2200  178.8760  143.2190 C   0  0  0  0  0  3  0  0  0  0  0  0
  186.3940  178.1780  144.0860 C   0  0  0  0  0  0  0  0  0  0  0  0
  188.9860  177.2190  143.6760 C   0  0  0  0  0  3  0  0  0  0  0  0
  187.2760  177.9600  145.1480 O   0  0  0  0  0  0  0  0  0  0  0  0
  184.5390  178.6490  141.9360 C   0  0  0  0  0  0  0  0  0  0  0  0
  186.8390  177.8930  142.7070 C   0  0  0  0  0  0  0  0  0  0  0  0
  188.5750  177.4800  144.9240 C   0  0  0  0  0  0  0  0  0  0  0  0
  185.1670  178.6360  144.3200 C   0  0  0  0  0  3  0  0  0  0  0  0
  188.0880  177.4270  142.5150 C   0  0  0  0  0  0  0  0  0  0  0  0
  185.9040  178.1270  141.5450 C   0  0  0  0  0  2  0  0  0  0  0  0
  191.1280  176.6260  147.3320 N   0  0  0  0  0  0  0  0  0  0  0  0
  189.4760  177.2710  146.0660 C   0  0  0  0  0  0  0  0  0  0  0  0
  189.3030  177.7840  147.3390 C   0  0  0  0  0  3  0  0  0  0  0  0
  190.6460  176.5340  146.0820 C   0  0  0  0  0  3  0  0  0  0  0  0
  190.3390  177.3680  148.0930 N   0  0  0  0  0  0  0  0  0  0  0  0
  192.3490  176.0020  147.8040 C   0  0  0  0  0  1  0  0  0  0  0  0
  190.4760  177.1920  139.7120 C   0  0  0  0  0  2  0  0  0  0  0  0
  190.0420  176.7670  141.0960 C   0  0  0  0  0  2  0  0  0  0  0  0
  189.5790  178.2640  139.2690 N   0  0  0  0  0  0  0  0  0  0  0  0
  188.4570  178.3190  140.2030 C   0  0  0  0  0  2  0  0  0  0  0  0
  188.5840  177.1310  141.1300 C   0  0  2  0  0  3  0  0  0  0  0  0
  189.0880  178.0300  137.8970 C   0  0  2  0  0  3  0  0  0  0  0  0
  187.6140  175.9750  137.5550 C   0  0  0  0  0  2  0  0  0  0  0  0
  184.4560  175.8650  137.7480 O   0  0  0  0  0  1  0  0  0  0  0  0
  186.5180  175.5830  136.5570 C   0  0  0  0  0  2  0  0  0  0  0  0
  185.2430  176.4140  136.7360 C   0  0  2  0  0  3  0  0  0  0  0  0
  187.6400  177.4940  137.8180 C   0  0  2  0  0  3  0  0  0  0  0  0
  185.5580  177.8790  137.0730 C   0  0  0  0  0  2  0  0  0  0  0  0
  186.9090  178.1770  136.8280 O   0  0  0  0  0  0  0  0  0  0  0  0
  190.0070  177.1370  137.2000 N   0  0  0  0  0  2  0  0  0  0  0  0
  190.4790  176.3700  135.2220 C   0  0  0  0  0  1  0  0  0  0  0  0
  189.9860  177.4890  135.8930 O   0  0  0  0  0  0  0  0  0  0  0  0
  183.5420  178.9140  140.8780 C   0  0  0  0  0  0  0  0  0  0  0  0
  183.8260  179.6830  139.9170 O   0  0  0  0  0  0  0  0  0  0  0  0
  181.7760  177.4590  139.9950 C   0  0  0  0  0  3  0  0  0  0  0  0
  182.2160  178.2790  140.9410 C   0  0  0  0  0  3  0  0  0  0  0  0
  180.4250  176.8530  140.1180 C   0  0  0  0  0  2  0  0  0  0  0  0
  180.4910  175.4450  139.7760 N   0  0  0  0  0  2  0  0  0  0  0  0
  179.5590  174.7610  140.6510 C   0  0  0  0  0  1  0  0  0  0  0  0
  1  8  1  0  0  0  0
  2  8  2  0  0  0  0
  2  4  1  0  0  0  0
  3  7  2  0  0  0  0
  5  1  2  0  0  0  0
  6  2  1  0  0  0  0
  7  4  1  0  0  0  0
  7 12  1  0  0  0  0
  9  6  2  0  0  0  0
  9  3  1  0  0  0  0
 10  5  1  0  0  0  0
 10  6  1  0  0  0  0
 11 16  1  0  0  0  0
 11 15  1  0  0  0  0
 12 14  2  0  0  0  0
 12 13  1  0  0  0  0
 13 15  2  0  0  0  0
 14 11  1  0  0  0  0
 17 18  1  0  0  0  0
 18 21  1  0  0  0  0
 19 17  1  0  0  0  0
 19 20  1  0  0  0  0
 20 21  1  0  0  0  0
 21  9  1  1  0  0  0
 22 30  1  1  0  0  0
 22 19  1  0  0  0  0
 23 27  1  0  0  0  0
 25 26  1  0  0  0  0
 25 23  1  0  0  0  0
 26 28  1  0  0  0  0
 26 24  1  1  0  0  0
 27 22  1  6  0  0  0
 29 28  1  0  0  0  0
 29 27  1  0  0  0  0
 31 32  1  0  0  0  0
 32 30  1  0  0  0  0
 33 36  1  0  0  0  0
 33  5  1  0  0  0  0
 34 33  2  0  0  0  0
 35 37  1  0  0  0  0
 35 36  2  0  0  0  0
 38 37  1  0  0  0  0
 38 39  1  0  0  0  0
M  END
>  <MODEL>
9

>  <REMARK>
 VINA RESULT:      -7.9      1.930      3.250
  Name = 
  10 active torsions:
  status: ('A' for Active; 'I' for Inactive)
    1  A    between atoms: N_7  and  C_10
    2  A    between atoms: C_8  and  C_17
    3  A    between atoms: C_8  and  C_28
    4  A    between atoms: C_9  and  C_10
    5  A    between atoms: N_12  and  O_20
    6  A    between atoms: N_12  and  C_24
    7  A    between atoms: C_18  and  C_24
    8  A    between atoms: N_21  and  C_24
    9  A    between atoms: C_22  and  C_27
   10  A    between atoms: C_33  and  C_36
                            x       y       z     vdW  Elec       q    Type
                         _______ _______ _______ _____ _____    ______ ____

>  <TORSDO>
F 10

$$$$
