=
 OpenBabel10222420533D

 48 54  0  0  1  0  0  0  0  0999 V2000
  183.2820  178.3820  142.7530 C   0  0  2  0  0  3  0  0  0  0  0  0
  182.9350  177.8590  141.3740 C   0  0  0  0  0  2  0  0  0  0  0  0
  181.5480  178.2140  141.1550 N   0  0  0  0  0  0  0  0  0  0  0  0
  182.1570  179.3330  143.1550 C   0  0  0  0  0  2  0  0  0  0  0  0
  181.0120  179.0720  142.1950 C   0  0  0  0  0  2  0  0  0  0  0  0
  181.0030  178.8420  138.8700 C   0  0  0  0  0  3  0  0  0  0  0  0
  180.8970  177.9800  139.8950 C   0  0  0  0  0  0  0  0  0  0  0  0
  181.7410  180.1440  138.9120 C   0  0  1  0  0  3  0  0  0  0  0  0
  183.2350  179.8900  138.8200 C   0  0  0  0  0  1  0  0  0  0  0  0
  180.4020  181.3640  135.5790 C   0  0  0  0  0  3  0  0  0  0  0  0
  180.9100  183.3010  136.9400 C   0  0  0  0  0  0  0  0  0  0  0  0
  180.4460  182.7520  135.7420 C   0  0  0  0  0  3  0  0  0  0  0  0
  181.3320  182.4620  137.9770 C   0  0  0  0  0  3  0  0  0  0  0  0
  181.2970  181.0680  137.8150 C   0  0  0  0  0  0  0  0  0  0  0  0
  180.9630  185.0380  137.1450 Cl  0  0  0  0  0  0  0  0  0  0  0  0
  180.8250  180.5240  136.6140 C   0  0  0  0  0  3  0  0  0  0  0  0
  180.0810  176.8090  139.7530 N   0  0  0  0  0  2  0  0  0  0  0  0
  180.5910  175.4440  139.8000 C   0  0  2  0  0  3  0  0  0  0  0  0
  181.6290  175.2640  138.7290 C   0  0  0  0  0  2  0  0  0  0  0  0
  179.5040  174.4790  139.3990 C   0  0  0  0  0  2  0  0  0  0  0  0
  179.9910  173.7380  138.2440 N   0  0  0  0  0  2  0  0  0  0  0  0
  180.9920  174.5270  137.6470 N   0  0  2  0  0  0  0  0  0  0  0  0
  181.3500  174.7530  135.0940 O   0  0  0  0  0  1  0  0  0  0  0  0
  181.9900  173.6140  137.1000 C   0  0  2  0  0  3  0  0  0  0  0  0
  182.1750  173.7670  135.6430 C   0  0  1  0  0  3  0  0  0  0  0  0
  181.3440  172.6740  136.1690 N   0  0  0  0  0  0  0  0  0  0  0  0
  182.1700  171.4800  136.1500 C   0  0  0  0  0  1  0  0  0  0  0  0
  184.8110  179.9730  143.7810 O   0  0  0  0  0  1  0  0  0  0  0  0
  184.6560  179.0530  142.7380 C   0  0  1  0  0  3  0  0  0  0  0  0
  187.0600  178.6190  141.9970 C   0  0  2  0  0  3  0  0  0  0  0  0
  188.2200  177.7720  142.5030 C   0  0  2  0  0  3  0  0  0  0  0  0
  185.8180  178.0500  142.6550 C   0  0  1  0  0  3  0  0  0  0  0  0
  186.2830  177.3660  143.9400 C   0  0  2  0  0  3  0  0  0  0  0  0
  186.4120  178.3170  145.1230 C   0  0  0  0  0  1  0  0  0  0  0  0
  187.6690  176.8590  143.5930 C   0  0  0  0  0  2  0  0  0  0  0  0
  189.3100  178.6630  143.0830 C   0  0  0  0  0  2  0  0  0  0  0  0
  190.2030  177.8810  143.9220 N   0  0  0  0  0  0  0  0  0  0  0  0
  191.3240  177.0330  143.6910 C   0  0  0  0  0  0  0  0  0  0  0  0
  191.9470  175.9990  146.1170 C   0  0  0  0  0  3  0  0  0  0  0  0
  192.0030  176.6960  142.6880 O   0  0  0  0  0  0  0  0  0  0  0  0
  191.3660  176.1640  147.4000 C   0  0  0  0  0  3  0  0  0  0  0  0
  191.3320  176.7190  145.1070 C   0  0  0  0  0  0  0  0  0  0  0  0
  190.2490  177.5280  145.3070 C   0  0  0  0  0  0  0  0  0  0  0  0
  190.2310  177.0100  147.6030 C   0  0  0  0  0  3  0  0  0  0  0  0
  189.6380  177.7240  146.5320 C   0  0  0  0  0  3  0  0  0  0  0  0
  186.9740  178.5090  140.4820 C   0  0  0  0  0  2  0  0  0  0  0  0
  188.2690  177.8580  138.8200 C   0  0  0  0  0  1  0  0  0  0  0  0
  188.2310  178.7200  139.9150 O   0  0  0  0  0  0  0  0  0  0  0  0
  1 29  1  6  0  0  0
  1  4  1  0  0  0  0
  2  1  1  0  0  0  0
  3  2  1  0  0  0  0
  3  5  1  0  0  0  0
  5  4  1  0  0  0  0
  6  8  1  0  0  0  0
  6  7  2  0  0  0  0
  7  3  1  0  0  0  0
  8  9  1  6  0  0  0
 10 12  2  0  0  0  0
 10 16  1  0  0  0  0
 11 15  1  0  0  0  0
 11 13  2  0  0  0  0
 12 11  1  0  0  0  0
 14 13  1  0  0  0  0
 14  8  1  0  0  0  0
 16 14  2  0  0  0  0
 17  7  1  0  0  0  0
 18 17  1  6  0  0  0
 19 18  1  0  0  0  0
 20 18  1  0  0  0  0
 21 20  1  0  0  0  0
 22 21  1  0  0  0  0
 22 19  1  1  0  0  0
 24 26  1  6  0  0  0
 24 22  1  0  0  0  0
 25 23  1  6  0  0  0
 25 26  1  0  0  0  0
 25 24  1  0  0  0  0
 27 26  1  0  0  0  0
 29 28  1  1  0  0  0
 30 46  1  6  0  0  0
 30 31  1  0  0  0  0
 30 32  1  0  0  0  0
 31 36  1  1  0  0  0
 31 35  1  0  0  0  0
 32 29  1  1  0  0  0
 32 33  1  0  0  0  0
 33 34  1  1  0  0  0
 35 33  1  0  0  0  0
 36 37  1  0  0  0  0
 37 43  1  0  0  0  0
 38 37  1  0  0  0  0
 38 42  1  0  0  0  0
 39 41  1  0  0  0  0
 40 38  2  0  0  0  0
 41 44  2  0  0  0  0
 42 43  1  0  0  0  0
 42 39  2  0  0  0  0
 43 45  2  0  0  0  0
 45 44  1  0  0  0  0
 47 48  1  0  0  0  0
 48 46  1  0  0  0  0
M  END
>  <MODEL>
1

>  <REMARK>
 VINA RESULT:      -8.9      0.000      0.000
  Name = 
  12 active torsions:
  status: ('A' for Active; 'I' for Inactive)
    1  A    between atoms: C_1  and  N_16
    2  A    between atoms: C_3  and  C_7
    3  A    between atoms: C_3  and  C_43
    4  A    between atoms: C_4  and  C_35
    5  A    between atoms: N_5  and  C_40
    6  A    between atoms: C_9  and  N_16
    7  A    between atoms: C_9  and  N_22
    8  A    between atoms: O_10  and  C_41
    9  A    between atoms: C_11  and  C_41
   10  A    between atoms: C_17  and  C_40
   11  A    between atoms: C_18  and  N_26
   12  A    between atoms: C_19  and  C_35
                            x       y       z     vdW  Elec       q    Type
                         _______ _______ _______ _____ _____    ______ ____

>  <TORSDO>
F 12

$$$$
=
 OpenBabel10222420533D

 48 54  0  0  1  0  0  0  0  0999 V2000
  189.4860  177.2010  139.1270 C   0  0  2  0  0  3  0  0  0  0  0  0
  189.2470  175.9280  138.3400 C   0  0  0  0  0  2  0  0  0  0  0  0
  189.1260  176.3380  136.9560 N   0  0  0  0  0  0  0  0  0  0  0  0
  189.8350  178.2840  138.1100 C   0  0  0  0  0  2  0  0  0  0  0  0
  189.4370  177.7400  136.7510 C   0  0  0  0  0  2  0  0  0  0  0  0
  187.8170  175.0670  135.3480 C   0  0  0  0  0  3  0  0  0  0  0  0
  189.0060  175.3800  135.8910 C   0  0  0  0  0  0  0  0  0  0  0  0
  186.4950  175.6100  135.7970 C   0  0  1  0  0  3  0  0  0  0  0  0
  185.8750  176.4330  134.6830 C   0  0  0  0  0  1  0  0  0  0  0  0
  185.0290  172.7150  137.7620 C   0  0  0  0  0  3  0  0  0  0  0  0
  183.5180  173.2310  135.9410 C   0  0  0  0  0  0  0  0  0  0  0  0
  183.8470  172.4600  137.0600 C   0  0  0  0  0  3  0  0  0  0  0  0
  184.3710  174.2580  135.5240 C   0  0  0  0  0  3  0  0  0  0  0  0
  185.5630  174.5130  136.2220 C   0  0  0  0  0  0  0  0  0  0  0  0
  182.0380  172.9140  135.0640 Cl  0  0  0  0  0  0  0  0  0  0  0  0
  185.8840  173.7410  137.3440 C   0  0  0  0  0  3  0  0  0  0  0  0
  190.1910  174.7170  135.4280 N   0  0  0  0  0  2  0  0  0  0  0  0
  190.8350  173.6090  136.1240 C   0  0  2  0  0  3  0  0  0  0  0  0
  191.8430  174.1510  137.0960 C   0  0  0  0  0  2  0  0  0  0  0  0
  191.6730  172.8160  135.1550 C   0  0  0  0  0  2  0  0  0  0  0  0
  193.0410  172.8360  135.6540 N   0  0  0  0  0  2  0  0  0  0  0  0
  193.1530  173.9630  136.4900 N   0  0  2  0  0  0  0  0  0  0  0  0
  195.1670  175.5730  136.7190 O   0  0  0  0  0  1  0  0  0  0  0  0
  194.0800  173.6130  137.5620 C   0  0  2  0  0  3  0  0  0  0  0  0
  195.2160  174.5490  137.6700 C   0  0  1  0  0  3  0  0  0  0  0  0
  195.3890  173.2580  136.9890 N   0  0  0  0  0  0  0  0  0  0  0  0
  196.0280  172.3690  137.9410 C   0  0  0  0  0  1  0  0  0  0  0  0
  191.8670  177.1260  139.6300 O   0  0  0  0  0  1  0  0  0  0  0  0
  190.5840  176.9830  140.1700 C   0  0  1  0  0  3  0  0  0  0  0  0
  188.9840  177.6990  142.0260 C   0  0  2  0  0  3  0  0  0  0  0  0
  189.1170  178.0630  143.4990 C   0  0  2  0  0  3  0  0  0  0  0  0
  190.3800  177.8170  141.4450 C   0  0  1  0  0  3  0  0  0  0  0  0
  191.3510  177.6180  142.6080 C   0  0  2  0  0  3  0  0  0  0  0  0
  191.6540  176.1540  142.9050 C   0  0  0  0  0  1  0  0  0  0  0  0
  190.6070  178.1930  143.7970 C   0  0  0  0  0  2  0  0  0  0  0  0
  188.5130  176.9720  144.3700 C   0  0  0  0  0  2  0  0  0  0  0  0
  187.4020  177.5030  145.1420 N   0  0  0  0  0  0  0  0  0  0  0  0
  187.1050  177.6340  146.5280 C   0  0  0  0  0  0  0  0  0  0  0  0
  184.5750  178.5990  146.6290 C   0  0  0  0  0  3  0  0  0  0  0  0
  187.7170  177.4040  147.6030 O   0  0  0  0  0  0  0  0  0  0  0  0
  183.6400  178.9260  145.6140 C   0  0  0  0  0  3  0  0  0  0  0  0
  185.7930  178.1320  146.1650 C   0  0  0  0  0  0  0  0  0  0  0  0
  186.0910  177.9880  144.8380 C   0  0  0  0  0  0  0  0  0  0  0  0
  183.9570  178.7720  144.2280 C   0  0  0  0  0  3  0  0  0  0  0  0
  185.2210  178.2870  143.8060 C   0  0  0  0  0  3  0  0  0  0  0  0
  188.0270  178.6670  141.3480 C   0  0  0  0  0  2  0  0  0  0  0  0
  186.1460  178.6610  140.1960 C   0  0  0  0  0  1  0  0  0  0  0  0
  186.7350  178.1420  141.3480 O   0  0  0  0  0  0  0  0  0  0  0  0
  1 29  1  1  0  0  0
  2  1  1  0  0  0  0
  3  2  1  0  0  0  0
  4  1  1  0  0  0  0
  5  3  1  0  0  0  0
  5  4  1  0  0  0  0
  6  8  1  0  0  0  0
  6  7  2  0  0  0  0
  7  3  1  0  0  0  0
  8  9  1  6  0  0  0
  8 14  1  0  0  0  0
 11 12  1  0  0  0  0
 12 10  2  0  0  0  0
 13 11  2  0  0  0  0
 13 14  1  0  0  0  0
 14 16  2  0  0  0  0
 15 11  1  0  0  0  0
 16 10  1  0  0  0  0
 17  7  1  0  0  0  0
 18 17  1  6  0  0  0
 18 19  1  0  0  0  0
 20 21  1  0  0  0  0
 20 18  1  0  0  0  0
 21 22  1  0  0  0  0
 22 19  1  1  0  0  0
 22 24  1  0  0  0  0
 24 26  1  6  0  0  0
 24 25  1  0  0  0  0
 25 23  1  6  0  0  0
 26 25  1  0  0  0  0
 26 27  1  0  0  0  0
 29 28  1  6  0  0  0
 30 46  1  6  0  0  0
 30 31  1  0  0  0  0
 31 35  1  0  0  0  0
 31 36  1  1  0  0  0
 32 29  1  6  0  0  0
 32 30  1  0  0  0  0
 32 33  1  0  0  0  0
 33 34  1  1  0  0  0
 33 35  1  0  0  0  0
 36 37  1  0  0  0  0
 37 38  1  0  0  0  0
 38 40  2  0  0  0  0
 41 39  2  0  0  0  0
 42 38  1  0  0  0  0
 42 39  1  0  0  0  0
 43 37  1  0  0  0  0
 43 42  2  0  0  0  0
 44 41  1  0  0  0  0
 45 44  2  0  0  0  0
 45 43  1  0  0  0  0
 47 48  1  0  0  0  0
 48 46  1  0  0  0  0
M  END
>  <MODEL>
2

>  <REMARK>
 VINA RESULT:      -8.4      5.031      8.745
  Name = 
  12 active torsions:
  status: ('A' for Active; 'I' for Inactive)
    1  A    between atoms: C_1  and  N_16
    2  A    between atoms: C_3  and  C_7
    3  A    between atoms: C_3  and  C_43
    4  A    between atoms: C_4  and  C_35
    5  A    between atoms: N_5  and  C_40
    6  A    between atoms: C_9  and  N_16
    7  A    between atoms: C_9  and  N_22
    8  A    between atoms: O_10  and  C_41
    9  A    between atoms: C_11  and  C_41
   10  A    between atoms: C_17  and  C_40
   11  A    between atoms: C_18  and  N_26
   12  A    between atoms: C_19  and  C_35
                            x       y       z     vdW  Elec       q    Type
                         _______ _______ _______ _____ _____    ______ ____

>  <TORSDO>
F 12

$$$$
=
 OpenBabel10222420533D

 48 54  0  0  1  0  0  0  0  0999 V2000
  184.0310  178.3360  140.8070 C   0  0  2  0  0  3  0  0  0  0  0  0
  184.2530  177.3360  139.6890 C   0  0  0  0  0  2  0  0  0  0  0  0
  183.5630  177.8750  138.5350 N   0  0  0  0  0  0  0  0  0  0  0  0
  183.4910  179.6060  140.1550 C   0  0  0  0  0  2  0  0  0  0  0  0
  183.0590  179.2190  138.7540 C   0  0  0  0  0  2  0  0  0  0  0  0
  182.6920  176.4230  136.7910 C   0  0  0  0  0  3  0  0  0  0  0  0
  183.6470  177.2520  137.2430 C   0  0  0  0  0  0  0  0  0  0  0  0
  181.4770  176.0060  137.5620 C   0  0  1  0  0  3  0  0  0  0  0  0
  180.2650  176.7720  137.0640 C   0  0  0  0  0  1  0  0  0  0  0  0
  179.7210  172.6450  137.6540 C   0  0  0  0  0  3  0  0  0  0  0  0
  182.0230  172.2740  137.0030 C   0  0  0  0  0  0  0  0  0  0  0  0
  180.7490  171.7730  137.2860 C   0  0  0  0  0  3  0  0  0  0  0  0
  182.2690  173.6480  137.0890 C   0  0  0  0  0  3  0  0  0  0  0  0
  181.2400  174.5270  137.4650 C   0  0  0  0  0  0  0  0  0  0  0  0
  183.3100  171.1830  136.5400 Cl  0  0  0  0  0  0  0  0  0  0  0  0
  179.9650  174.0200  137.7410 C   0  0  0  0  0  3  0  0  0  0  0  0
  184.8090  177.4970  136.4390 N   0  0  0  0  0  2  0  0  0  0  0  0
  185.8690  176.5220  136.2110 C   0  0  2  0  0  3  0  0  0  0  0  0
  186.7890  176.5010  137.3980 C   0  0  0  0  0  2  0  0  0  0  0  0
  186.7590  176.9880  135.0870 C   0  0  0  0  0  2  0  0  0  0  0  0
  188.1080  177.0940  135.6230 N   0  0  0  0  0  2  0  0  0  0  0  0
  187.9830  177.2420  137.0170 N   0  0  2  0  0  0  0  0  0  0  0  0
  189.2350  178.6580  138.7850 O   0  0  0  0  0  1  0  0  0  0  0  0
  189.1240  176.5660  137.6250 C   0  0  2  0  0  3  0  0  0  0  0  0
  189.8160  177.3960  138.6310 C   0  0  1  0  0  3  0  0  0  0  0  0
  190.3650  177.2750  137.2720 N   0  0  0  0  0  0  0  0  0  0  0  0
  191.4340  176.2940  137.3430 C   0  0  0  0  0  1  0  0  0  0  0  0
  185.6440  179.9240  141.7020 O   0  0  0  0  0  1  0  0  0  0  0  0
  185.3300  178.5660  141.5800 C   0  0  1  0  0  3  0  0  0  0  0  0
  186.7640  177.7290  143.5190 C   0  0  2  0  0  3  0  0  0  0  0  0
  186.5630  177.5270  145.0150 C   0  0  2  0  0  3  0  0  0  0  0  0
  185.3720  177.8250  142.9270 C   0  0  1  0  0  3  0  0  0  0  0  0
  184.4550  178.3050  144.0510 C   0  0  2  0  0  3  0  0  0  0  0  0
  184.4350  179.8200  144.2140 C   0  0  0  0  0  1  0  0  0  0  0  0
  185.0760  177.7070  145.2980 C   0  0  0  0  0  2  0  0  0  0  0  0
  187.3630  178.5580  145.7990 C   0  0  0  0  0  2  0  0  0  0  0  0
  188.4800  177.9190  146.4740 N   0  0  0  0  0  0  0  0  0  0  0  0
  188.8910  177.7700  147.8300 C   0  0  0  0  0  0  0  0  0  0  0  0
  191.3050  176.5440  147.7130 C   0  0  0  0  0  3  0  0  0  0  0  0
  188.4110  178.0730  148.9520 O   0  0  0  0  0  0  0  0  0  0  0  0
  192.1010  176.1110  146.6210 C   0  0  0  0  0  3  0  0  0  0  0  0
  190.1040  177.1330  147.3550 C   0  0  0  0  0  0  0  0  0  0  0  0
  189.6980  177.2960  146.0600 C   0  0  0  0  0  0  0  0  0  0  0  0
  191.6720  176.2860  145.2690 C   0  0  0  0  0  3  0  0  0  0  0  0
  190.4320  176.8970  144.9570 C   0  0  0  0  0  3  0  0  0  0  0  0
  187.5210  176.5420  142.9440 C   0  0  0  0  0  2  0  0  0  0  0  0
  188.7220  178.2970  142.3570 C   0  0  0  0  0  1  0  0  0  0  0  0
  188.4480  176.9780  141.9970 O   0  0  0  0  0  0  0  0  0  0  0  0
  1 29  1  6  0  0  0
  2  1  1  0  0  0  0
  3  5  1  0  0  0  0
  3  2  1  0  0  0  0
  4  1  1  0  0  0  0
  5  4  1  0  0  0  0
  6  7  2  0  0  0  0
  6  8  1  0  0  0  0
  7  3  1  0  0  0  0
  8  9  1  6  0  0  0
 10 16  1  0  0  0  0
 11 13  2  0  0  0  0
 11 12  1  0  0  0  0
 12 10  2  0  0  0  0
 13 14  1  0  0  0  0
 14  8  1  0  0  0  0
 14 16  2  0  0  0  0
 15 11  1  0  0  0  0
 17  7  1  0  0  0  0
 18 17  1  1  0  0  0
 18 19  1  0  0  0  0
 20 21  1  0  0  0  0
 20 18  1  0  0  0  0
 21 22  1  0  0  0  0
 22 19  1  1  0  0  0
 22 24  1  0  0  0  0
 24 26  1  6  0  0  0
 24 25  1  0  0  0  0
 25 23  1  6  0  0  0
 26 27  1  0  0  0  0
 26 25  1  0  0  0  0
 29 28  1  1  0  0  0
 30 46  1  6  0  0  0
 30 31  1  0  0  0  0
 31 35  1  0  0  0  0
 31 36  1  1  0  0  0
 32 29  1  6  0  0  0
 32 30  1  0  0  0  0
 32 33  1  0  0  0  0
 33 34  1  1  0  0  0
 33 35  1  0  0  0  0
 36 37  1  0  0  0  0
 37 38  1  0  0  0  0
 38 40  2  0  0  0  0
 41 39  2  0  0  0  0
 42 39  1  0  0  0  0
 42 38  1  0  0  0  0
 43 37  1  0  0  0  0
 43 42  2  0  0  0  0
 44 41  1  0  0  0  0
 45 44  2  0  0  0  0
 45 43  1  0  0  0  0
 48 47  1  0  0  0  0
 48 46  1  0  0  0  0
M  END
>  <MODEL>
3

>  <REMARK>
 VINA RESULT:      -8.2      3.551      6.073
  Name = 
  12 active torsions:
  status: ('A' for Active; 'I' for Inactive)
    1  A    between atoms: C_1  and  N_16
    2  A    between atoms: C_3  and  C_7
    3  A    between atoms: C_3  and  C_43
    4  A    between atoms: C_4  and  C_35
    5  A    between atoms: N_5  and  C_40
    6  A    between atoms: C_9  and  N_16
    7  A    between atoms: C_9  and  N_22
    8  A    between atoms: O_10  and  C_41
    9  A    between atoms: C_11  and  C_41
   10  A    between atoms: C_17  and  C_40
   11  A    between atoms: C_18  and  N_26
   12  A    between atoms: C_19  and  C_35
                            x       y       z     vdW  Elec       q    Type
                         _______ _______ _______ _____ _____    ______ ____

>  <TORSDO>
F 12

$$$$
=
 OpenBabel10222420533D

 48 54  0  0  1  0  0  0  0  0999 V2000
  190.7510  177.3480  141.7610 C   0  0  2  0  0  3  0  0  0  0  0  0
  190.2150  176.3940  140.7120 C   0  0  0  0  0  2  0  0  0  0  0  0
  191.0070  176.6300  139.5220 N   0  0  0  0  0  0  0  0  0  0  0  0
  192.0800  177.8780  141.2300 C   0  0  0  0  0  2  0  0  0  0  0  0
  192.1230  177.5290  139.7550 C   0  0  0  0  0  2  0  0  0  0  0  0
  189.8780  176.0340  137.4540 C   0  0  0  0  0  3  0  0  0  0  0  0
  190.8620  175.8210  138.3430 C   0  0  0  0  0  0  0  0  0  0  0  0
  188.8030  177.0690  137.5880 C   0  0  1  0  0  3  0  0  0  0  0  0
  189.0700  178.2120  136.6260 C   0  0  0  0  0  1  0  0  0  0  0  0
  186.0670  174.5580  136.8130 C   0  0  0  0  0  3  0  0  0  0  0  0
  185.0260  176.7080  137.2110 C   0  0  0  0  0  0  0  0  0  0  0  0
  184.9180  175.3500  136.8990 C   0  0  0  0  0  3  0  0  0  0  0  0
  186.2840  177.2760  137.4380 C   0  0  0  0  0  3  0  0  0  0  0  0
  187.4410  176.4860  137.3470 C   0  0  0  0  0  0  0  0  0  0  0  0
  183.5870  177.6980  137.3200 Cl  0  0  0  0  0  0  0  0  0  0  0  0
  187.3260  175.1250  137.0390 C   0  0  0  0  0  3  0  0  0  0  0  0
  191.7750  174.7340  138.1410 N   0  0  0  0  0  2  0  0  0  0  0  0
  192.7100  174.6450  137.0260 C   0  0  2  0  0  3  0  0  0  0  0  0
  193.9370  173.8970  137.4630 C   0  0  0  0  0  2  0  0  0  0  0  0
  193.2370  176.0170  136.6910 C   0  0  0  0  0  2  0  0  0  0  0  0
  194.6850  175.9660  136.8270 N   0  0  0  0  0  2  0  0  0  0  0  0
  194.9750  174.8920  137.6890 N   0  0  2  0  0  0  0  0  0  0  0  0
  196.9370  175.2020  139.3490 O   0  0  0  0  0  1  0  0  0  0  0  0
  196.2360  174.3090  137.2410 C   0  0  2  0  0  3  0  0  0  0  0  0
  197.3350  174.5000  138.2080 C   0  0  1  0  0  3  0  0  0  0  0  0
  197.2290  175.3770  137.0330 N   0  0  0  0  0  0  0  0  0  0  0  0
  198.1750  174.8740  136.0530 C   0  0  0  0  0  1  0  0  0  0  0  0
  191.8020  177.2680  143.9550 O   0  0  0  0  0  1  0  0  0  0  0  0
  190.8850  176.6370  143.1080 C   0  0  1  0  0  3  0  0  0  0  0  0
  189.2620  177.2910  144.9680 C   0  0  2  0  0  3  0  0  0  0  0  0
  187.7490  177.3130  145.1350 C   0  0  2  0  0  3  0  0  0  0  0  0
  189.5320  176.3740  143.7910 C   0  0  1  0  0  3  0  0  0  0  0  0
  188.2690  176.3880  142.9310 C   0  0  2  0  0  3  0  0  0  0  0  0
  188.2150  177.5500  141.9480 C   0  0  0  0  0  1  0  0  0  0  0  0
  187.1530  176.5760  143.9410 C   0  0  0  0  0  2  0  0  0  0  0  0
  187.2410  178.7480  145.1570 C   0  0  0  0  0  2  0  0  0  0  0  0
  185.7940  178.7700  145.0230 N   0  0  0  0  0  0  0  0  0  0  0  0
  184.6940  178.6300  145.9170 C   0  0  0  0  0  0  0  0  0  0  0  0
  182.4890  178.6440  144.3430 C   0  0  0  0  0  3  0  0  0  0  0  0
  184.5580  178.5040  147.1610 O   0  0  0  0  0  0  0  0  0  0  0  0
  182.3230  178.7420  142.9370 C   0  0  0  0  0  3  0  0  0  0  0  0
  183.8040  178.6830  144.7740 C   0  0  0  0  0  0  0  0  0  0  0  0
  184.8730  178.8040  143.9300 C   0  0  0  0  0  0  0  0  0  0  0  0
  183.4450  178.8670  142.0600 C   0  0  0  0  0  3  0  0  0  0  0  0
  184.7730  178.9000  142.5540 C   0  0  0  0  0  3  0  0  0  0  0  0
  189.9060  176.7540  146.2370 C   0  0  0  0  0  2  0  0  0  0  0  0
  189.4340  177.8460  148.0940 C   0  0  0  0  0  1  0  0  0  0  0  0
  188.9930  176.7960  147.2910 O   0  0  0  0  0  0  0  0  0  0  0  0
  1 29  1  1  0  0  0
  2  1  1  0  0  0  0
  3  5  1  0  0  0  0
  3  2  1  0  0  0  0
  4  1  1  0  0  0  0
  5  4  1  0  0  0  0
  6  8  1  0  0  0  0
  6  7  2  0  0  0  0
  7  3  1  0  0  0  0
  8  9  1  6  0  0  0
 10 12  2  0  0  0  0
 10 16  1  0  0  0  0
 11 15  1  0  0  0  0
 11 13  2  0  0  0  0
 12 11  1  0  0  0  0
 14 13  1  0  0  0  0
 14  8  1  0  0  0  0
 16 14  2  0  0  0  0
 17  7  1  0  0  0  0
 18 19  1  0  0  0  0
 18 17  1  1  0  0  0
 20 21  1  0  0  0  0
 20 18  1  0  0  0  0
 21 22  1  0  0  0  0
 22 19  1  6  0  0  0
 24 26  1  6  0  0  0
 24 22  1  0  0  0  0
 24 25  1  0  0  0  0
 25 23  1  1  0  0  0
 26 25  1  0  0  0  0
 27 26  1  0  0  0  0
 29 28  1  1  0  0  0
 30 31  1  0  0  0  0
 30 46  1  1  0  0  0
 31 36  1  6  0  0  0
 32 29  1  6  0  0  0
 32 30  1  0  0  0  0
 33 34  1  6  0  0  0
 33 32  1  0  0  0  0
 33 35  1  0  0  0  0
 35 31  1  0  0  0  0
 37 36  1  0  0  0  0
 37 38  1  0  0  0  0
 38 40  2  0  0  0  0
 39 42  1  0  0  0  0
 41 39  2  0  0  0  0
 42 38  1  0  0  0  0
 43 42  2  0  0  0  0
 43 37  1  0  0  0  0
 44 45  2  0  0  0  0
 44 41  1  0  0  0  0
 45 43  1  0  0  0  0
 46 48  1  0  0  0  0
 48 47  1  0  0  0  0
M  END
>  <MODEL>
4

>  <REMARK>
 VINA RESULT:      -8.1      4.959      9.614
  Name = 
  12 active torsions:
  status: ('A' for Active; 'I' for Inactive)
    1  A    between atoms: C_1  and  N_16
    2  A    between atoms: C_3  and  C_7
    3  A    between atoms: C_3  and  C_43
    4  A    between atoms: C_4  and  C_35
    5  A    between atoms: N_5  and  C_40
    6  A    between atoms: C_9  and  N_16
    7  A    between atoms: C_9  and  N_22
    8  A    between atoms: O_10  and  C_41
    9  A    between atoms: C_11  and  C_41
   10  A    between atoms: C_17  and  C_40
   11  A    between atoms: C_18  and  N_26
   12  A    between atoms: C_19  and  C_35
                            x       y       z     vdW  Elec       q    Type
                         _______ _______ _______ _____ _____    ______ ____

>  <TORSDO>
F 12

$$$$
=
 OpenBabel10222420533D

 48 54  0  0  1  0  0  0  0  0999 V2000
  187.6380  178.2100  138.2030 C   0  0  2  0  0  3  0  0  0  0  0  0
  186.2810  177.5770  138.4380 C   0  0  0  0  0  2  0  0  0  0  0  0
  185.5050  177.8520  137.2460 N   0  0  0  0  0  0  0  0  0  0  0  0
  187.7100  178.5480  136.7160 C   0  0  0  0  0  2  0  0  0  0  0  0
  186.2920  178.4570  136.1860 C   0  0  0  0  0  2  0  0  0  0  0  0
  183.1700  177.6050  137.8750 C   0  0  0  0  0  3  0  0  0  0  0  0
  184.1910  177.3040  137.0550 C   0  0  0  0  0  0  0  0  0  0  0  0
  183.2680  178.4780  139.0890 C   0  0  1  0  0  3  0  0  0  0  0  0
  183.3560  179.9330  138.6690 C   0  0  0  0  0  1  0  0  0  0  0  0
  179.8490  177.4530  140.3730 C   0  0  0  0  0  3  0  0  0  0  0  0
  181.0770  178.4440  142.2100 C   0  0  0  0  0  0  0  0  0  0  0  0
  179.9160  177.8440  141.7130 C   0  0  0  0  0  3  0  0  0  0  0  0
  182.1720  178.6530  141.3660 C   0  0  0  0  0  3  0  0  0  0  0  0
  182.1070  178.2670  140.0170 C   0  0  0  0  0  0  0  0  0  0  0  0
  181.1610  178.9320  143.8880 Cl  0  0  0  0  0  0  0  0  0  0  0  0
  180.9430  177.6620  139.5270 C   0  0  0  0  0  3  0  0  0  0  0  0
  183.9830  176.3790  135.9780 N   0  0  0  0  0  2  0  0  0  0  0  0
  184.6530  175.0890  135.8650 C   0  0  2  0  0  3  0  0  0  0  0  0
  183.7850  174.1450  135.0850 C   0  0  0  0  0  2  0  0  0  0  0  0
  184.7430  174.4410  137.2230 C   0  0  0  0  0  2  0  0  0  0  0  0
  184.0590  173.1590  137.1340 N   0  0  0  0  0  2  0  0  0  0  0  0
  183.1640  173.2500  136.0510 N   0  0  2  0  0  0  0  0  0  0  0  0
  180.8640  172.0860  136.2840 O   0  0  0  0  0  1  0  0  0  0  0  0
  183.0970  171.9280  135.4360 C   0  0  2  0  0  3  0  0  0  0  0  0
  181.7740  171.2900  135.5820 C   0  0  1  0  0  3  0  0  0  0  0  0
  182.8790  170.9090  136.4750 N   0  0  0  0  0  0  0  0  0  0  0  0
  183.4220  169.6670  135.9550 C   0  0  0  0  0  1  0  0  0  0  0  0
  189.5110  176.7830  137.5850 O   0  0  0  0  0  1  0  0  0  0  0  0
  188.7520  177.2660  138.6560 C   0  0  1  0  0  3  0  0  0  0  0  0
  189.0400  177.6330  141.1660 C   0  0  2  0  0  3  0  0  0  0  0  0
  190.2190  177.7200  142.1260 C   0  0  2  0  0  3  0  0  0  0  0  0
  189.6200  177.8510  139.7820 C   0  0  1  0  0  3  0  0  0  0  0  0
  191.0890  177.4390  139.8580 C   0  0  2  0  0  3  0  0  0  0  0  0
  191.3130  175.9450  139.6600 C   0  0  0  0  0  1  0  0  0  0  0  0
  191.4850  177.7880  141.2790 C   0  0  0  0  0  2  0  0  0  0  0  0
  190.2660  176.4890  143.0190 C   0  0  0  0  0  2  0  0  0  0  0  0
  189.9710  176.8550  144.3950 N   0  0  0  0  0  0  0  0  0  0  0  0
  190.7160  176.9100  145.6080 C   0  0  0  0  0  0  0  0  0  0  0  0
  188.9100  177.5460  147.5250 C   0  0  0  0  0  3  0  0  0  0  0  0
  191.9170  176.7300  145.9330 O   0  0  0  0  0  0  0  0  0  0  0  0
  187.5110  177.7800  147.4750 C   0  0  0  0  0  3  0  0  0  0  0  0
  189.4900  177.2490  146.3030 C   0  0  0  0  0  0  0  0  0  0  0  0
  188.7890  177.1790  145.1310 C   0  0  0  0  0  0  0  0  0  0  0  0
  186.7840  177.7040  146.2470 C   0  0  0  0  0  3  0  0  0  0  0  0
  187.4270  177.3940  145.0220 C   0  0  0  0  0  3  0  0  0  0  0  0
  188.0250  178.7120  141.5090 C   0  0  0  0  0  2  0  0  0  0  0  0
  185.8800  179.1740  141.7370 C   0  0  0  0  0  1  0  0  0  0  0  0
  186.8000  178.1300  141.8340 O   0  0  0  0  0  0  0  0  0  0  0  0
  1  2  1  0  0  0  0
  1 29  1  6  0  0  0
  3  2  1  0  0  0  0
  4  1  1  0  0  0  0
  5  4  1  0  0  0  0
  5  3  1  0  0  0  0
  6  8  1  0  0  0  0
  7  3  1  0  0  0  0
  7  6  2  0  0  0  0
  8  9  1  6  0  0  0
  8 14  1  0  0  0  0
 10 12  1  0  0  0  0
 11 15  1  0  0  0  0
 12 11  2  0  0  0  0
 13 11  1  0  0  0  0
 14 13  2  0  0  0  0
 16 14  1  0  0  0  0
 16 10  2  0  0  0  0
 17  7  1  0  0  0  0
 18 17  1  1  0  0  0
 18 20  1  0  0  0  0
 19 18  1  0  0  0  0
 21 20  1  0  0  0  0
 22 19  1  6  0  0  0
 22 21  1  0  0  0  0
 24 25  1  0  0  0  0
 24 22  1  0  0  0  0
 24 26  1  1  0  0  0
 25 23  1  1  0  0  0
 25 26  1  0  0  0  0
 27 26  1  0  0  0  0
 29 28  1  6  0  0  0
 30 46  1  1  0  0  0
 30 31  1  0  0  0  0
 31 36  1  1  0  0  0
 32 29  1  6  0  0  0
 32 33  1  0  0  0  0
 32 30  1  0  0  0  0
 33 34  1  1  0  0  0
 33 35  1  0  0  0  0
 35 31  1  0  0  0  0
 36 37  1  0  0  0  0
 37 43  1  0  0  0  0
 37 38  1  0  0  0  0
 38 40  2  0  0  0  0
 38 42  1  0  0  0  0
 41 39  1  0  0  0  0
 42 39  2  0  0  0  0
 43 42  1  0  0  0  0
 44 41  2  0  0  0  0
 45 43  2  0  0  0  0
 45 44  1  0  0  0  0
 46 48  1  0  0  0  0
 47 48  1  0  0  0  0
M  END
>  <MODEL>
5

>  <REMARK>
 VINA RESULT:      -8.0      2.812      4.759
  Name = 
  12 active torsions:
  status: ('A' for Active; 'I' for Inactive)
    1  A    between atoms: C_1  and  N_16
    2  A    between atoms: C_3  and  C_7
    3  A    between atoms: C_3  and  C_43
    4  A    between atoms: C_4  and  C_35
    5  A    between atoms: N_5  and  C_40
    6  A    between atoms: C_9  and  N_16
    7  A    between atoms: C_9  and  N_22
    8  A    between atoms: O_10  and  C_41
    9  A    between atoms: C_11  and  C_41
   10  A    between atoms: C_17  and  C_40
   11  A    between atoms: C_18  and  N_26
   12  A    between atoms: C_19  and  C_35
                            x       y       z     vdW  Elec       q    Type
                         _______ _______ _______ _____ _____    ______ ____

>  <TORSDO>
F 12

$$$$
=
 OpenBabel10222420533D

 48 54  0  0  1  0  0  0  0  0999 V2000
  187.0080  177.2630  136.7890 C   0  0  2  0  0  3  0  0  0  0  0  0
  185.8800  176.6820  137.6180 C   0  0  0  0  0  2  0  0  0  0  0  0
  184.7440  176.5860  136.7250 N   0  0  0  0  0  0  0  0  0  0  0  0
  186.5710  177.1680  135.3300 C   0  0  0  0  0  2  0  0  0  0  0  0
  185.0810  176.8900  135.3460 C   0  0  0  0  0  2  0  0  0  0  0  0
  183.3440  174.6350  137.1050 C   0  0  0  0  0  3  0  0  0  0  0  0
  183.5120  175.9670  137.1320 C   0  0  0  0  0  0  0  0  0  0  0  0
  184.3590  173.6480  136.6150 C   0  0  1  0  0  3  0  0  0  0  0  0
  185.3790  173.3770  137.7050 C   0  0  0  0  0  1  0  0  0  0  0  0
  183.9450  170.0600  135.4550 C   0  0  0  0  0  3  0  0  0  0  0  0
  181.7430  171.0510  135.6380 C   0  0  0  0  0  0  0  0  0  0  0  0
  182.5560  169.9540  135.3380 C   0  0  0  0  0  3  0  0  0  0  0  0
  182.3190  172.2560  136.0550 C   0  0  0  0  0  3  0  0  0  0  0  0
  183.7150  172.3680  136.1670 C   0  0  0  0  0  0  0  0  0  0  0  0
  180.0050  170.9180  135.4930 Cl  0  0  0  0  0  0  0  0  0  0  0  0
  184.5230  171.2640  135.8710 C   0  0  0  0  0  3  0  0  0  0  0  0
  182.4240  176.8090  137.5380 N   0  0  0  0  0  2  0  0  0  0  0  0
  182.5750  178.0030  138.3610 C   0  0  2  0  0  3  0  0  0  0  0  0
  182.3110  177.6540  139.7980 C   0  0  0  0  0  2  0  0  0  0  0  0
  181.4820  178.9890  138.0350 C   0  0  0  0  0  2  0  0  0  0  0  0
  180.7490  179.2420  139.2670 N   0  0  0  0  0  2  0  0  0  0  0  0
  180.9740  178.1360  140.1080 N   0  0  2  0  0  0  0  0  0  0  0  0
  179.3060  176.9620  141.7020 O   0  0  0  0  0  1  0  0  0  0  0  0
  181.0020  178.6370  141.4790 C   0  0  2  0  0  3  0  0  0  0  0  0
  180.0430  177.9470  142.3640 C   0  0  1  0  0  3  0  0  0  0  0  0
  179.7110  179.2650  141.8030 N   0  0  0  0  0  0  0  0  0  0  0  0
  179.9770  180.2390  142.8460 C   0  0  0  0  0  1  0  0  0  0  0  0
  188.9670  176.1230  135.8990 O   0  0  0  0  0  1  0  0  0  0  0  0
  188.3150  176.5190  137.0710 C   0  0  1  0  0  3  0  0  0  0  0  0
  188.7550  177.2500  139.4770 C   0  0  2  0  0  3  0  0  0  0  0  0
  189.9910  177.4870  140.3350 C   0  0  2  0  0  3  0  0  0  0  0  0
  189.2410  177.2700  138.0410 C   0  0  1  0  0  3  0  0  0  0  0  0
  190.7200  176.8880  138.0790 C   0  0  2  0  0  3  0  0  0  0  0  0
  190.9590  175.3830  138.0850 C   0  0  0  0  0  1  0  0  0  0  0  0
  191.1990  177.4440  139.4060 C   0  0  0  0  0  2  0  0  0  0  0  0
  190.1170  176.3990  141.3920 C   0  0  0  0  0  2  0  0  0  0  0  0
  189.9610  176.9690  142.7200 N   0  0  0  0  0  0  0  0  0  0  0  0
  190.8350  177.5620  143.6750 C   0  0  0  0  0  0  0  0  0  0  0  0
  189.3040  178.0050  145.8660 C   0  0  0  0  0  3  0  0  0  0  0  0
  192.0520  177.8780  143.7030 O   0  0  0  0  0  0  0  0  0  0  0  0
  187.9380  177.7390  146.1420 C   0  0  0  0  0  3  0  0  0  0  0  0
  189.7210  177.6310  144.6000 C   0  0  0  0  0  0  0  0  0  0  0  0
  188.8990  177.0490  143.6750 C   0  0  0  0  0  0  0  0  0  0  0  0
  187.0840  177.1290  145.1710 C   0  0  0  0  0  3  0  0  0  0  0  0
  187.5630  176.7630  143.8880 C   0  0  0  0  0  3  0  0  0  0  0  0
  187.7430  178.3570  139.7270 C   0  0  0  0  0  2  0  0  0  0  0  0
  185.9560  178.9600  140.8710 C   0  0  0  0  0  1  0  0  0  0  0  0
  187.0800  178.1370  140.9340 O   0  0  0  0  0  0  0  0  0  0  0  0
  1 29  1  6  0  0  0
  1  2  1  0  0  0  0
  3  7  1  0  0  0  0
  3  2  1  0  0  0  0
  4  5  1  0  0  0  0
  4  1  1  0  0  0  0
  5  3  1  0  0  0  0
  6  7  2  0  0  0  0
  7 17  1  0  0  0  0
  8  6  1  0  0  0  0
  8  9  1  1  0  0  0
 10 16  1  0  0  0  0
 11 13  2  0  0  0  0
 12 10  2  0  0  0  0
 12 11  1  0  0  0  0
 13 14  1  0  0  0  0
 14  8  1  0  0  0  0
 15 11  1  0  0  0  0
 16 14  2  0  0  0  0
 18 17  1  6  0  0  0
 18 19  1  0  0  0  0
 20 18  1  0  0  0  0
 20 21  1  0  0  0  0
 21 22  1  0  0  0  0
 22 19  1  6  0  0  0
 22 24  1  0  0  0  0
 24 26  1  6  0  0  0
 24 25  1  0  0  0  0
 25 23  1  6  0  0  0
 26 25  1  0  0  0  0
 26 27  1  0  0  0  0
 29 28  1  6  0  0  0
 30 46  1  6  0  0  0
 30 31  1  0  0  0  0
 31 36  1  1  0  0  0
 32 29  1  6  0  0  0
 32 33  1  0  0  0  0
 32 30  1  0  0  0  0
 33 34  1  1  0  0  0
 33 35  1  0  0  0  0
 35 31  1  0  0  0  0
 36 37  1  0  0  0  0
 37 38  1  0  0  0  0
 37 43  1  0  0  0  0
 38 40  2  0  0  0  0
 38 42  1  0  0  0  0
 39 41  1  0  0  0  0
 42 39  2  0  0  0  0
 43 45  2  0  0  0  0
 43 42  1  0  0  0  0
 44 41  2  0  0  0  0
 45 44  1  0  0  0  0
 46 48  1  0  0  0  0
 47 48  1  0  0  0  0
M  END
>  <MODEL>
6

>  <REMARK>
 VINA RESULT:      -7.6      3.283      6.917
  Name = 
  12 active torsions:
  status: ('A' for Active; 'I' for Inactive)
    1  A    between atoms: C_1  and  N_16
    2  A    between atoms: C_3  and  C_7
    3  A    between atoms: C_3  and  C_43
    4  A    between atoms: C_4  and  C_35
    5  A    between atoms: N_5  and  C_40
    6  A    between atoms: C_9  and  N_16
    7  A    between atoms: C_9  and  N_22
    8  A    between atoms: O_10  and  C_41
    9  A    between atoms: C_11  and  C_41
   10  A    between atoms: C_17  and  C_40
   11  A    between atoms: C_18  and  N_26
   12  A    between atoms: C_19  and  C_35
                            x       y       z     vdW  Elec       q    Type
                         _______ _______ _______ _____ _____    ______ ____

>  <TORSDO>
F 12

$$$$
=
 OpenBabel10222420533D

 48 54  0  0  1  0  0  0  0  0999 V2000
  189.7850  177.1060  139.0250 C   0  0  2  0  0  3  0  0  0  0  0  0
  189.1420  176.6360  140.3140 C   0  0  0  0  0  2  0  0  0  0  0  0
  188.6210  177.8270  140.9520 N   0  0  0  0  0  0  0  0  0  0  0  0
  189.3100  178.5380  138.7970 C   0  0  0  0  0  2  0  0  0  0  0  0
  188.7150  179.0060  140.1110 C   0  0  0  0  0  2  0  0  0  0  0  0
  188.4030  177.7220  143.3710 C   0  0  0  0  0  3  0  0  0  0  0  0
  187.8360  177.7600  142.1540 C   0  0  0  0  0  0  0  0  0  0  0  0
  189.8780  177.6910  143.6350 C   0  0  1  0  0  3  0  0  0  0  0  0
  190.4960  179.0230  143.2520 C   0  0  0  0  0  1  0  0  0  0  0  0
  191.6690  176.3900  146.7150 C   0  0  0  0  0  3  0  0  0  0  0  0
  189.5920  177.4120  147.4270 C   0  0  0  0  0  0  0  0  0  0  0  0
  190.7810  176.7440  147.7350 C   0  0  0  0  0  3  0  0  0  0  0  0
  189.2900  177.7250  146.0980 C   0  0  0  0  0  3  0  0  0  0  0  0
  190.1760  177.3650  145.0690 C   0  0  0  0  0  0  0  0  0  0  0  0
  188.4820  177.8580  148.7040 Cl  0  0  0  0  0  0  0  0  0  0  0  0
  191.3680  176.7010  145.3850 C   0  0  0  0  0  3  0  0  0  0  0  0
  186.4080  177.6920  142.0370 N   0  0  0  0  0  2  0  0  0  0  0  0
  185.5500  178.8460  141.7980 C   0  0  2  0  0  3  0  0  0  0  0  0
  184.1790  178.5690  142.3460 C   0  0  0  0  0  2  0  0  0  0  0  0
  185.3090  179.0050  140.3180 C   0  0  0  0  0  2  0  0  0  0  0  0
  183.8700  178.9360  140.1070 N   0  0  0  0  0  2  0  0  0  0  0  0
  183.3300  178.2470  141.2090 N   0  0  2  0  0  0  0  0  0  0  0  0
  181.3530  176.8410  140.3070 O   0  0  0  0  0  1  0  0  0  0  0  0
  182.0150  178.8230  141.4750 C   0  0  2  0  0  3  0  0  0  0  0  0
  180.9080  177.9990  140.9510 C   0  0  1  0  0  3  0  0  0  0  0  0
  181.3650  179.1790  140.2030 N   0  0  0  0  0  0  0  0  0  0  0  0
  180.4300  180.2480  140.5040 C   0  0  0  0  0  1  0  0  0  0  0  0
  189.1580  176.8540  136.6860 O   0  0  0  0  0  1  0  0  0  0  0  0
  189.4210  176.1650  137.8740 C   0  0  1  0  0  3  0  0  0  0  0  0
  190.3750  174.3890  136.3090 C   0  0  2  0  0  3  0  0  0  0  0  0
  191.7380  173.7430  136.0950 C   0  0  2  0  0  3  0  0  0  0  0  0
  190.4320  175.0220  137.6860 C   0  0  1  0  0  3  0  0  0  0  0  0
  191.9070  175.2990  137.9750 C   0  0  2  0  0  3  0  0  0  0  0  0
  192.4010  176.6210  137.4020 C   0  0  0  0  0  1  0  0  0  0  0  0
  192.6280  174.1770  137.2540 C   0  0  0  0  0  2  0  0  0  0  0  0
  192.3440  174.2120  134.7800 C   0  0  0  0  0  2  0  0  0  0  0  0
  193.7940  174.1230  134.8350 N   0  0  0  0  0  0  0  0  0  0  0  0
  194.7360  173.0680  134.9930 C   0  0  0  0  0  0  0  0  0  0  0  0
  197.1510  174.2860  135.1540 C   0  0  0  0  0  3  0  0  0  0  0  0
  194.6750  171.8140  135.0760 O   0  0  0  0  0  0  0  0  0  0  0  0
  197.5320  175.6520  135.1210 C   0  0  0  0  0  3  0  0  0  0  0  0
  195.7900  174.0620  135.0320 C   0  0  0  0  0  0  0  0  0  0  0  0
  194.8700  175.0630  134.8910 C   0  0  0  0  0  0  0  0  0  0  0  0
  196.5650  176.6940  134.9760 C   0  0  0  0  0  3  0  0  0  0  0  0
  195.1810  176.4100  134.8560 C   0  0  0  0  0  3  0  0  0  0  0  0
  189.2930  173.3230  136.2430 C   0  0  0  0  0  2  0  0  0  0  0  0
  188.6330  171.3850  135.4220 C   0  0  0  0  0  1  0  0  0  0  0  0
  189.6490  172.3350  135.3250 O   0  0  0  0  0  0  0  0  0  0  0  0
  1 29  1  6  0  0  0
  1  2  1  0  0  0  0
  2  3  1  0  0  0  0
  3  7  1  0  0  0  0
  4  1  1  0  0  0  0
  4  5  1  0  0  0  0
  5  3  1  0  0  0  0
  6  8  1  0  0  0  0
  7  6  2  0  0  0  0
  8  9  1  1  0  0  0
  8 14  1  0  0  0  0
 10 12  1  0  0  0  0
 11 12  2  0  0  0  0
 11 15  1  0  0  0  0
 13 11  1  0  0  0  0
 14 16  1  0  0  0  0
 14 13  2  0  0  0  0
 16 10  2  0  0  0  0
 17  7  1  0  0  0  0
 18 17  1  6  0  0  0
 18 19  1  0  0  0  0
 20 18  1  0  0  0  0
 21 20  1  0  0  0  0
 21 22  1  0  0  0  0
 22 24  1  0  0  0  0
 22 19  1  1  0  0  0
 24 26  1  6  0  0  0
 25 23  1  6  0  0  0
 25 24  1  0  0  0  0
 26 27  1  0  0  0  0
 26 25  1  0  0  0  0
 29 28  1  6  0  0  0
 30 46  1  1  0  0  0
 30 32  1  0  0  0  0
 31 36  1  6  0  0  0
 31 30  1  0  0  0  0
 31 35  1  0  0  0  0
 32 29  1  6  0  0  0
 32 33  1  0  0  0  0
 33 34  1  6  0  0  0
 35 33  1  0  0  0  0
 36 37  1  0  0  0  0
 37 43  1  0  0  0  0
 37 38  1  0  0  0  0
 38 42  1  0  0  0  0
 38 40  2  0  0  0  0
 41 39  1  0  0  0  0
 42 39  2  0  0  0  0
 43 42  1  0  0  0  0
 44 41  2  0  0  0  0
 45 43  2  0  0  0  0
 45 44  1  0  0  0  0
 48 47  1  0  0  0  0
 48 46  1  0  0  0  0
M  END
>  <MODEL>
7

>  <REMARK>
 VINA RESULT:      -7.4      5.562      9.935
  Name = 
  12 active torsions:
  status: ('A' for Active; 'I' for Inactive)
    1  A    between atoms: C_1  and  N_16
    2  A    between atoms: C_3  and  C_7
    3  A    between atoms: C_3  and  C_43
    4  A    between atoms: C_4  and  C_35
    5  A    between atoms: N_5  and  C_40
    6  A    between atoms: C_9  and  N_16
    7  A    between atoms: C_9  and  N_22
    8  A    between atoms: O_10  and  C_41
    9  A    between atoms: C_11  and  C_41
   10  A    between atoms: C_17  and  C_40
   11  A    between atoms: C_18  and  N_26
   12  A    between atoms: C_19  and  C_35
                            x       y       z     vdW  Elec       q    Type
                         _______ _______ _______ _____ _____    ______ ____

>  <TORSDO>
F 12

$$$$
=
 OpenBabel10222420533D

 48 54  0  0  1  0  0  0  0  0999 V2000
  184.0730  179.0040  140.8540 C   0  0  2  0  0  3  0  0  0  0  0  0
  185.4360  178.5460  140.3740 C   0  0  0  0  0  2  0  0  0  0  0  0
  186.3480  178.8090  141.4680 N   0  0  0  0  0  0  0  0  0  0  0  0
  184.1880  179.2110  142.3610 C   0  0  0  0  0  2  0  0  0  0  0  0
  185.6710  179.2360  142.6790 C   0  0  0  0  0  2  0  0  0  0  0  0
  188.3300  177.8300  142.4790 C   0  0  0  0  0  3  0  0  0  0  0  0
  187.7240  178.3970  141.4220 C   0  0  0  0  0  0  0  0  0  0  0  0
  187.6980  177.6060  143.8180 C   0  0  1  0  0  3  0  0  0  0  0  0
  186.8090  176.3770  143.7660 C   0  0  0  0  0  1  0  0  0  0  0  0
  190.9580  176.7800  145.5730 C   0  0  0  0  0  3  0  0  0  0  0  0
  189.4450  177.7360  147.2050 C   0  0  0  0  0  0  0  0  0  0  0  0
  190.6900  177.1870  146.8830 C   0  0  0  0  0  3  0  0  0  0  0  0
  188.4670  177.8770  146.2160 C   0  0  0  0  0  3  0  0  0  0  0  0
  188.7290  177.4630  144.8990 C   0  0  0  0  0  0  0  0  0  0  0  0
  189.1110  178.2480  148.8440 Cl  0  0  0  0  0  0  0  0  0  0  0  0
  189.9800  176.9200  144.5830 C   0  0  0  0  0  3  0  0  0  0  0  0
  188.4730  178.6390  140.2230 N   0  0  0  0  0  2  0  0  0  0  0  0
  188.4360  177.7790  139.0460 C   0  0  2  0  0  3  0  0  0  0  0  0
  189.4830  176.7110  139.1780 C   0  0  0  0  0  2  0  0  0  0  0  0
  188.8790  178.5560  137.8330 C   0  0  0  0  0  2  0  0  0  0  0  0
  190.0330  177.8640  137.2780 N   0  0  0  0  0  2  0  0  0  0  0  0
  190.5920  177.1030  138.3210 N   0  0  2  0  0  0  0  0  0  0  0  0
  193.1280  176.7600  138.7130 O   0  0  0  0  0  1  0  0  0  0  0  0
  191.1300  175.8850  137.7250 C   0  0  2  0  0  3  0  0  0  0  0  0
  192.5770  175.7140  137.9660 C   0  0  1  0  0  3  0  0  0  0  0  0
  192.1020  176.2340  136.6760 N   0  0  0  0  0  0  0  0  0  0  0  0
  192.1240  175.1190  135.7460 C   0  0  0  0  0  1  0  0  0  0  0  0
  181.7770  178.2320  141.0950 O   0  0  0  0  0  1  0  0  0  0  0  0
  183.0030  177.9800  140.4700 C   0  0  1  0  0  3  0  0  0  0  0  0
  182.1660  176.5000  138.5660 C   0  0  2  0  0  3  0  0  0  0  0  0
  181.6090  176.7350  137.1680 C   0  0  2  0  0  3  0  0  0  0  0  0
  182.8660  177.7890  138.9500 C   0  0  1  0  0  3  0  0  0  0  0  0
  182.2090  178.9000  138.1330 C   0  0  2  0  0  3  0  0  0  0  0  0
  180.9430  179.4580  138.7710 C   0  0  0  0  0  1  0  0  0  0  0  0
  181.8170  178.2100  136.8420 C   0  0  0  0  0  2  0  0  0  0  0  0
  180.1230  176.4070  137.1290 C   0  0  0  0  0  2  0  0  0  0  0  0
  179.9240  174.9700  137.2270 N   0  0  0  0  0  0  0  0  0  0  0  0
  179.4370  174.0830  138.2290 C   0  0  0  0  0  0  0  0  0  0  0  0
  179.8000  171.5960  137.2180 C   0  0  0  0  0  3  0  0  0  0  0  0
  178.9350  174.2120  139.3750 O   0  0  0  0  0  0  0  0  0  0  0  0
  180.3520  171.1370  135.9950 C   0  0  0  0  0  3  0  0  0  0  0  0
  179.7830  172.9730  137.3640 C   0  0  0  0  0  0  0  0  0  0  0  0
  180.2570  173.8390  136.4190 C   0  0  0  0  0  0  0  0  0  0  0  0
  180.8470  172.0480  135.0110 C   0  0  0  0  0  3  0  0  0  0  0  0
  180.8080  173.4500  135.2110 C   0  0  0  0  0  3  0  0  0  0  0  0
  183.1440  175.3360  138.5340 C   0  0  0  0  0  2  0  0  0  0  0  0
  183.9210  173.7290  137.2390 C   0  0  0  0  0  1  0  0  0  0  0  0
  183.5230  175.0650  137.2190 O   0  0  0  0  0  0  0  0  0  0  0  0
  1 29  1  1  0  0  0
  1  4  1  0  0  0  0
  2  1  1  0  0  0  0
  2  3  1  0  0  0  0
  3  5  1  0  0  0  0
  4  5  1  0  0  0  0
  6  8  1  0  0  0  0
  7  3  1  0  0  0  0
  7  6  2  0  0  0  0
  8  9  1  6  0  0  0
  8 14  1  0  0  0  0
 10 12  1  0  0  0  0
 11 15  1  0  0  0  0
 12 11  2  0  0  0  0
 13 11  1  0  0  0  0
 14 13  2  0  0  0  0
 16 14  1  0  0  0  0
 16 10  2  0  0  0  0
 17  7  1  0  0  0  0
 18 19  1  0  0  0  0
 18 17  1  1  0  0  0
 20 18  1  0  0  0  0
 21 20  1  0  0  0  0
 21 22  1  0  0  0  0
 22 19  1  1  0  0  0
 24 26  1  6  0  0  0
 24 25  1  0  0  0  0
 24 22  1  0  0  0  0
 25 23  1  1  0  0  0
 26 25  1  0  0  0  0
 27 26  1  0  0  0  0
 29 28  1  6  0  0  0
 30 46  1  6  0  0  0
 30 32  1  0  0  0  0
 31 36  1  1  0  0  0
 31 30  1  0  0  0  0
 32 29  1  1  0  0  0
 33 34  1  1  0  0  0
 33 32  1  0  0  0  0
 35 31  1  0  0  0  0
 35 33  1  0  0  0  0
 36 37  1  0  0  0  0
 37 38  1  0  0  0  0
 38 40  2  0  0  0  0
 39 42  1  0  0  0  0
 41 39  2  0  0  0  0
 42 38  1  0  0  0  0
 43 37  1  0  0  0  0
 43 42  2  0  0  0  0
 44 45  2  0  0  0  0
 44 41  1  0  0  0  0
 45 43  1  0  0  0  0
 48 47  1  0  0  0  0
 48 46  1  0  0  0  0
M  END
>  <MODEL>
8

>  <REMARK>
 VINA RESULT:      -7.4      3.659     10.556
  Name = 
  12 active torsions:
  status: ('A' for Active; 'I' for Inactive)
    1  A    between atoms: C_1  and  N_16
    2  A    between atoms: C_3  and  C_7
    3  A    between atoms: C_3  and  C_43
    4  A    between atoms: C_4  and  C_35
    5  A    between atoms: N_5  and  C_40
    6  A    between atoms: C_9  and  N_16
    7  A    between atoms: C_9  and  N_22
    8  A    between atoms: O_10  and  C_41
    9  A    between atoms: C_11  and  C_41
   10  A    between atoms: C_17  and  C_40
   11  A    between atoms: C_18  and  N_26
   12  A    between atoms: C_19  and  C_35
                            x       y       z     vdW  Elec       q    Type
                         _______ _______ _______ _____ _____    ______ ____

>  <TORSDO>
F 12

$$$$
=
 OpenBabel10222420533D

 48 54  0  0  1  0  0  0  0  0999 V2000
  187.2690  177.5470  136.9130 C   0  0  2  0  0  3  0  0  0  0  0  0
  186.1220  177.2000  137.8410 C   0  0  0  0  0  2  0  0  0  0  0  0
  184.9150  177.3820  137.0620 N   0  0  0  0  0  0  0  0  0  0  0  0
  186.6890  177.5950  135.5020 C   0  0  0  0  0  2  0  0  0  0  0  0
  185.1820  177.6480  135.6600 C   0  0  0  0  0  2  0  0  0  0  0  0
  183.1340  177.5860  138.7050 C   0  0  0  0  0  3  0  0  0  0  0  0
  183.6200  177.0340  137.5800 C   0  0  0  0  0  0  0  0  0  0  0  0
  183.8670  178.5620  139.5730 C   0  0  1  0  0  3  0  0  0  0  0  0
  183.8670  179.9310  138.9180 C   0  0  0  0  0  1  0  0  0  0  0  0
  183.5860  178.7670  143.3500 C   0  0  0  0  0  3  0  0  0  0  0  0
  181.3470  178.7320  142.4290 C   0  0  0  0  0  0  0  0  0  0  0  0
  182.2010  178.7840  143.5350 C   0  0  0  0  0  3  0  0  0  0  0  0
  181.8790  178.6610  141.1380 C   0  0  0  0  0  3  0  0  0  0  0  0
  183.2700  178.6360  140.9480 C   0  0  0  0  0  0  0  0  0  0  0  0
  179.6130  178.7560  142.6610 Cl  0  0  0  0  0  0  0  0  0  0  0  0
  184.1200  178.6950  142.0590 C   0  0  0  0  0  3  0  0  0  0  0  0
  182.8510  176.0400  136.8900 N   0  0  0  0  0  2  0  0  0  0  0  0
  183.4230  174.8730  136.2300 C   0  0  2  0  0  3  0  0  0  0  0  0
  182.3360  174.1220  135.5160 C   0  0  0  0  0  2  0  0  0  0  0  0
  183.9070  173.8880  137.2630 C   0  0  0  0  0  2  0  0  0  0  0  0
  183.1970  172.6380  137.0320 N   0  0  0  0  0  2  0  0  0  0  0  0
  182.0180  172.9630  136.3360 N   0  0  2  0  0  0  0  0  0  0  0  0
  180.1570  171.3640  137.1600 O   0  0  0  0  0  1  0  0  0  0  0  0
  181.7350  171.8550  135.4290 C   0  0  2  0  0  3  0  0  0  0  0  0
  180.6690  170.9630  135.9230 C   0  0  1  0  0  3  0  0  0  0  0  0
  182.0800  170.5810  136.0800 N   0  0  0  0  0  0  0  0  0  0  0  0
  182.3760  169.6400  135.0140 C   0  0  0  0  0  1  0  0  0  0  0  0
  188.7420  175.9310  135.8410 O   0  0  0  0  0  1  0  0  0  0  0  0
  188.4000  176.5270  137.0600 C   0  0  1  0  0  3  0  0  0  0  0  0
  189.3690  177.3000  139.2920 C   0  0  2  0  0  3  0  0  0  0  0  0
  190.7410  177.2710  139.9520 C   0  0  2  0  0  3  0  0  0  0  0  0
  189.6210  177.0820  137.8120 C   0  0  1  0  0  3  0  0  0  0  0  0
  190.9460  176.3300  137.7040 C   0  0  2  0  0  3  0  0  0  0  0  0
  190.8030  174.8200  137.8500 C   0  0  0  0  0  1  0  0  0  0  0  0
  191.7440  176.8410  138.8870 C   0  0  0  0  0  2  0  0  0  0  0  0
  190.7530  176.2720  141.1010 C   0  0  0  0  0  2  0  0  0  0  0  0
  190.3450  176.9220  142.3350 N   0  0  0  0  0  0  0  0  0  0  0  0
  190.9790  177.7640  143.2920 C   0  0  0  0  0  0  0  0  0  0  0  0
  189.1560  178.0980  145.2690 C   0  0  0  0  0  3  0  0  0  0  0  0
  192.1040  178.3170  143.3960 O   0  0  0  0  0  0  0  0  0  0  0  0
  187.8430  177.5930  145.4470 C   0  0  0  0  0  3  0  0  0  0  0  0
  189.7760  177.6970  144.0970 C   0  0  0  0  0  0  0  0  0  0  0  0
  189.1870  176.8790  143.1730 C   0  0  0  0  0  0  0  0  0  0  0  0
  187.2330  176.7370  144.4780 C   0  0  0  0  0  3  0  0  0  0  0  0
  187.9130  176.3550  143.2940 C   0  0  0  0  0  3  0  0  0  0  0  0
  188.7140  178.6490  139.5410 C   0  0  0  0  0  2  0  0  0  0  0  0
  187.5660  179.1890  141.3460 C   0  0  0  0  0  1  0  0  0  0  0  0
  187.4730  178.4730  140.1530 O   0  0  0  0  0  0  0  0  0  0  0  0
  1 29  1  6  0  0  0
  1  2  1  0  0  0  0
  3  7  1  0  0  0  0
  3  2  1  0  0  0  0
  4  5  1  0  0  0  0
  4  1  1  0  0  0  0
  5  3  1  0  0  0  0
  6  8  1  0  0  0  0
  7  6  2  0  0  0  0
  8  9  1  6  0  0  0
  8 14  1  0  0  0  0
 10 12  1  0  0  0  0
 11 15  1  0  0  0  0
 11 12  2  0  0  0  0
 13 11  1  0  0  0  0
 14 13  2  0  0  0  0
 14 16  1  0  0  0  0
 16 10  2  0  0  0  0
 17  7  1  0  0  0  0
 18 17  1  1  0  0  0
 18 20  1  0  0  0  0
 19 18  1  0  0  0  0
 21 20  1  0  0  0  0
 22 19  1  6  0  0  0
 22 21  1  0  0  0  0
 24 25  1  0  0  0  0
 24 26  1  1  0  0  0
 24 22  1  0  0  0  0
 25 26  1  0  0  0  0
 25 23  1  1  0  0  0
 27 26  1  0  0  0  0
 29 28  1  6  0  0  0
 30 46  1  6  0  0  0
 30 31  1  0  0  0  0
 31 36  1  1  0  0  0
 32 29  1  1  0  0  0
 32 30  1  0  0  0  0
 33 32  1  0  0  0  0
 33 34  1  1  0  0  0
 33 35  1  0  0  0  0
 35 31  1  0  0  0  0
 36 37  1  0  0  0  0
 37 43  1  0  0  0  0
 37 38  1  0  0  0  0
 38 40  2  0  0  0  0
 38 42  1  0  0  0  0
 39 41  1  0  0  0  0
 42 39  2  0  0  0  0
 43 45  2  0  0  0  0
 43 42  1  0  0  0  0
 44 41  2  0  0  0  0
 45 44  1  0  0  0  0
 46 48  1  0  0  0  0
 48 47  1  0  0  0  0
M  END
>  <MODEL>
9

>  <REMARK>
 VINA RESULT:      -7.4      2.932      5.173
  Name = 
  12 active torsions:
  status: ('A' for Active; 'I' for Inactive)
    1  A    between atoms: C_1  and  N_16
    2  A    between atoms: C_3  and  C_7
    3  A    between atoms: C_3  and  C_43
    4  A    between atoms: C_4  and  C_35
    5  A    between atoms: N_5  and  C_40
    6  A    between atoms: C_9  and  N_16
    7  A    between atoms: C_9  and  N_22
    8  A    between atoms: O_10  and  C_41
    9  A    between atoms: C_11  and  C_41
   10  A    between atoms: C_17  and  C_40
   11  A    between atoms: C_18  and  N_26
   12  A    between atoms: C_19  and  C_35
                            x       y       z     vdW  Elec       q    Type
                         _______ _______ _______ _____ _____    ______ ____

>  <TORSDO>
F 12

$$$$
