=
 OpenBabel10222421083D

 29 32  0  0  1  0  0  0  0  0999 V2000
  187.6460  178.6340  140.6440 N   0  0  0  0  0  0  0  0  0  0  0  0
  188.4540  178.2840  139.6880 C   0  0  0  0  0  0  0  0  0  0  0  0
  187.9750  178.0110  138.2880 C   0  0  2  0  0  3  0  0  0  0  0  0
  189.3690  176.6680  136.1330 C   0  0  0  0  0  3  0  0  0  0  0  0
  189.5030  177.9550  136.2400 N   0  0  0  0  0  0  0  0  0  0  0  0
  187.8500  176.5290  138.0400 C   0  0  0  0  0  3  0  0  0  0  0  0
  188.5000  175.9140  137.0490 C   0  0  0  0  0  3  0  0  0  0  0  0
  188.8240  178.7090  137.2530 C   0  0  0  0  0  0  0  0  0  0  0  0
  188.9310  179.9630  137.2710 O   0  0  0  0  0  0  0  0  0  0  0  0
  186.2880  178.7490  140.4470 O   0  0  0  0  0  0  0  0  0  0  0  0
  184.2480  178.2740  141.5940 C   0  0  0  0  0  2  0  0  0  0  0  0
  185.4510  179.1860  141.5000 C   0  0  1  0  0  3  0  0  0  0  0  0
  185.4000  178.1090  142.5630 C   0  0  1  0  0  3  0  0  0  0  0  0
  185.0350  178.7480  143.8900 C   0  0  0  0  0  2  0  0  0  0  0  0
  187.9920  178.1260  146.8060 O   0  0  0  0  0  0  0  0  0  0  0  0
  186.6920  178.2820  147.3210 C   0  0  0  0  0  2  0  0  0  0  0  0
  187.9200  177.1290  145.8160 C   0  0  0  0  0  2  0  0  0  0  0  0
  185.7410  178.0390  145.0320 C   0  0  0  0  0  3  0  0  0  0  0  0
  185.7910  178.9350  146.2720 C   0  0  0  0  0  2  0  0  0  0  0  0
  187.1540  177.6550  144.6020 C   0  0  0  0  0  2  0  0  0  0  0  0
  189.9170  178.2180  139.9670 C   0  0  0  0  0  2  0  0  0  0  0  0
  190.2240  177.0670  140.8730 C   0  0  0  0  0  0  0  0  0  0  0  0
  190.1860  175.8990  140.4020 O   0  0  0  0  0  0  0  0  0  0  0  0
  190.8590  178.7760  144.1860 C   0  0  0  0  0  3  0  0  0  0  0  0
  191.2920  177.7060  144.9730 C   0  0  0  0  0  3  0  0  0  0  0  0
  191.0310  176.2150  143.0840 C   0  0  0  0  0  3  0  0  0  0  0  0
  190.5120  178.5660  142.8490 C   0  0  0  0  0  3  0  0  0  0  0  0
  191.3780  176.4250  144.4220 C   0  0  0  0  0  3  0  0  0  0  0  0
  190.5940  177.2840  142.2870 C   0  0  0  0  0  0  0  0  0  0  0  0
  2 21  1  0  0  0  0
  2  1  2  0  0  0  0
  3  2  1  1  0  0  0
  4  5  2  0  0  0  0
  4  7  1  0  0  0  0
  5  8  1  0  0  0  0
  6  3  1  0  0  0  0
  7  6  2  0  0  0  0
  8  9  2  0  0  0  0
  8  3  1  0  0  0  0
 10  1  1  0  0  0  0
 11 13  1  0  0  0  0
 12 10  1  6  0  0  0
 12 11  1  0  0  0  0
 12 13  1  0  0  0  0
 13 14  1  1  0  0  0
 14 18  1  0  0  0  0
 15 16  1  0  0  0  0
 17 15  1  0  0  0  0
 18 19  1  0  0  0  0
 19 16  1  0  0  0  0
 20 18  1  0  0  0  0
 20 17  1  0  0  0  0
 21 22  1  0  0  0  0
 22 29  1  0  0  0  0
 23 22  2  0  0  0  0
 24 25  1  0  0  0  0
 26 28  1  0  0  0  0
 27 24  2  0  0  0  0
 28 25  2  0  0  0  0
 29 27  1  0  0  0  0
 29 26  2  0  0  0  0
M  END
>  <MODEL>
1

>  <REMARK>
 VINA RESULT:      -8.0      0.000      0.000
  Name = 
  8 active torsions:
  status: ('A' for Active; 'I' for Inactive)
    1  A    between atoms: N_2  and  O_19
    2  A    between atoms: C_5  and  C_9
    3  A    between atoms: C_9  and  C_25
    4  A    between atoms: C_14  and  O_19
    5  A    between atoms: C_16  and  C_22
    6  A    between atoms: C_16  and  C_25
    7  A    between atoms: C_20  and  C_24
    8  A    between atoms: C_21  and  C_24
                            x       y       z     vdW  Elec       q    Type
                         _______ _______ _______ _____ _____    ______ ____

>  <TORSDO>
F 8

$$$$
=
 OpenBabel10222421083D

 29 32  0  0  1  0  0  0  0  0999 V2000
  190.0800  176.7460  141.1940 N   0  0  0  0  0  0  0  0  0  0  0  0
  190.1360  176.5020  142.4680 C   0  0  0  0  0  0  0  0  0  0  0  0
  191.3960  176.6870  143.2700 C   0  0  2  0  0  3  0  0  0  0  0  0
  191.7330  176.6110  146.1460 C   0  0  0  0  0  3  0  0  0  0  0  0
  191.4690  177.7550  145.5910 N   0  0  0  0  0  0  0  0  0  0  0  0
  191.7550  175.4250  144.0110 C   0  0  0  0  0  3  0  0  0  0  0  0
  191.9020  175.3930  145.3380 C   0  0  0  0  0  3  0  0  0  0  0  0
  191.3200  177.8950  144.1720 C   0  0  0  0  0  0  0  0  0  0  0  0
  191.1340  179.0370  143.6780 O   0  0  0  0  0  0  0  0  0  0  0  0
  191.1820  177.1630  140.4810 O   0  0  0  0  0  0  0  0  0  0  0  0
  190.7110  175.9630  138.4700 C   0  0  0  0  0  2  0  0  0  0  0  0
  191.1130  177.2900  139.0740 C   0  0  1  0  0  3  0  0  0  0  0  0
  189.6830  177.0640  138.6320 C   0  0  1  0  0  3  0  0  0  0  0  0
  189.4690  177.7500  137.2960 C   0  0  0  0  0  2  0  0  0  0  0  0
  185.3200  177.1040  137.3440 O   0  0  0  0  0  0  0  0  0  0  0  0
  185.7540  178.1560  138.1710 C   0  0  0  0  0  2  0  0  0  0  0  0
  185.8670  177.3390  136.0680 C   0  0  0  0  0  2  0  0  0  0  0  0
  188.0020  178.0890  137.1020 C   0  0  0  0  0  3  0  0  0  0  0  0
  187.2550  178.0270  138.4350 C   0  0  0  0  0  2  0  0  0  0  0  0
  187.3800  177.1190  136.1020 C   0  0  0  0  0  2  0  0  0  0  0  0
  188.8920  176.0890  143.1800 C   0  0  0  0  0  2  0  0  0  0  0  0
  187.9170  177.2230  143.2270 C   0  0  0  0  0  0  0  0  0  0  0  0
  187.6250  177.8140  142.1520 O   0  0  0  0  0  0  0  0  0  0  0  0
  187.3700  177.8850  146.9090 C   0  0  0  0  0  3  0  0  0  0  0  0
  186.0750  178.4110  146.9080 C   0  0  0  0  0  3  0  0  0  0  0  0
  185.9790  178.1620  144.5020 C   0  0  0  0  0  3  0  0  0  0  0  0
  187.9680  177.4970  145.7070 C   0  0  0  0  0  3  0  0  0  0  0  0
  185.3800  178.5500  145.7040 C   0  0  0  0  0  3  0  0  0  0  0  0
  187.2780  177.6330  144.4940 C   0  0  0  0  0  0  0  0  0  0  0  0
  1  2  2  0  0  0  0
  2 21  1  0  0  0  0
  3  2  1  1  0  0  0
  3  6  1  0  0  0  0
  3  8  1  0  0  0  0
  5  4  2  0  0  0  0
  6  7  2  0  0  0  0
  7  4  1  0  0  0  0
  8  5  1  0  0  0  0
  9  8  2  0  0  0  0
 10  1  1  0  0  0  0
 11 13  1  0  0  0  0
 11 12  1  0  0  0  0
 12 10  1  1  0  0  0
 13 14  1  6  0  0  0
 13 12  1  0  0  0  0
 15 16  1  0  0  0  0
 16 19  1  0  0  0  0
 17 20  1  0  0  0  0
 17 15  1  0  0  0  0
 18 14  1  0  0  0  0
 18 19  1  0  0  0  0
 20 18  1  0  0  0  0
 21 22  1  0  0  0  0
 22 29  1  0  0  0  0
 23 22  2  0  0  0  0
 25 24  1  0  0  0  0
 26 28  1  0  0  0  0
 27 24  2  0  0  0  0
 28 25  2  0  0  0  0
 29 26  2  0  0  0  0
 29 27  1  0  0  0  0
M  END
>  <MODEL>
2

>  <REMARK>
 VINA RESULT:      -7.9      2.218      6.950
  Name = 
  8 active torsions:
  status: ('A' for Active; 'I' for Inactive)
    1  A    between atoms: N_2  and  O_19
    2  A    between atoms: C_5  and  C_9
    3  A    between atoms: C_9  and  C_25
    4  A    between atoms: C_14  and  O_19
    5  A    between atoms: C_16  and  C_22
    6  A    between atoms: C_16  and  C_25
    7  A    between atoms: C_20  and  C_24
    8  A    between atoms: C_21  and  C_24
                            x       y       z     vdW  Elec       q    Type
                         _______ _______ _______ _____ _____    ______ ____

>  <TORSDO>
F 8

$$$$
=
 OpenBabel10222421083D

 29 32  0  0  1  0  0  0  0  0999 V2000
  187.7330  177.8340  141.7000 N   0  0  0  0  0  0  0  0  0  0  0  0
  188.4340  177.1830  142.5780 C   0  0  0  0  0  0  0  0  0  0  0  0
  189.9390  177.1620  142.5550 C   0  0  2  0  0  3  0  0  0  0  0  0
  191.7670  176.4690  144.6910 C   0  0  0  0  0  3  0  0  0  0  0  0
  191.4070  177.7100  144.5730 N   0  0  0  0  0  0  0  0  0  0  0  0
  190.4620  175.7620  142.7520 C   0  0  0  0  0  3  0  0  0  0  0  0
  191.3000  175.4460  143.7420 C   0  0  0  0  0  3  0  0  0  0  0  0
  190.5340  178.1520  143.5260 C   0  0  0  0  0  0  0  0  0  0  0  0
  190.2700  179.3780  143.4140 O   0  0  0  0  0  0  0  0  0  0  0  0
  188.3210  178.5270  140.6650 O   0  0  0  0  0  0  0  0  0  0  0  0
  189.0930  178.9050  138.4360 C   0  0  0  0  0  2  0  0  0  0  0  0
  188.3130  177.9920  139.3550 C   0  0  1  0  0  3  0  0  0  0  0  0
  189.7320  177.6370  138.9630 C   0  0  1  0  0  3  0  0  0  0  0  0
  189.6900  176.5690  137.8870 C   0  0  0  0  0  2  0  0  0  0  0  0
  193.7910  176.4950  136.9860 O   0  0  0  0  0  0  0  0  0  0  0  0
  193.4770  176.0960  138.2980 C   0  0  0  0  0  2  0  0  0  0  0  0
  192.9830  175.7300  136.1250 C   0  0  0  0  0  2  0  0  0  0  0  0
  191.0660  175.9550  137.6940 C   0  0  0  0  0  3  0  0  0  0  0  0
  192.0720  176.5740  138.6660 C   0  0  0  0  0  2  0  0  0  0  0  0
  191.5240  176.1680  136.2540 C   0  0  0  0  0  2  0  0  0  0  0  0
  187.7290  176.4860  143.6930 C   0  0  0  0  0  2  0  0  0  0  0  0
  187.0400  177.4790  144.5750 C   0  0  0  0  0  0  0  0  0  0  0  0
  186.0580  178.1200  144.1140 O   0  0  0  0  0  0  0  0  0  0  0  0
  187.0650  178.6200  148.1800 C   0  0  0  0  0  3  0  0  0  0  0  0
  188.2830  178.1010  148.6290 C   0  0  0  0  0  3  0  0  0  0  0  0
  188.6940  177.1750  146.4300 C   0  0  0  0  0  3  0  0  0  0  0  0
  186.6620  178.4170  146.8570 C   0  0  0  0  0  3  0  0  0  0  0  0
  189.0970  177.3780  147.7530 C   0  0  0  0  0  3  0  0  0  0  0  0
  187.4720  177.6920  145.9710 C   0  0  0  0  0  0  0  0  0  0  0  0
  1  2  2  0  0  0  0
  2 21  1  0  0  0  0
  3  2  1  1  0  0  0
  3  6  1  0  0  0  0
  3  8  1  0  0  0  0
  5  4  2  0  0  0  0
  6  7  2  0  0  0  0
  7  4  1  0  0  0  0
  8  5  1  0  0  0  0
  9  8  2  0  0  0  0
 10  1  1  0  0  0  0
 11 13  1  0  0  0  0
 11 12  1  0  0  0  0
 12 10  1  1  0  0  0
 13 14  1  6  0  0  0
 13 12  1  0  0  0  0
 15 16  1  0  0  0  0
 16 19  1  0  0  0  0
 17 20  1  0  0  0  0
 17 15  1  0  0  0  0
 18 14  1  0  0  0  0
 18 19  1  0  0  0  0
 20 18  1  0  0  0  0
 21 22  1  0  0  0  0
 22 29  1  0  0  0  0
 23 22  2  0  0  0  0
 24 25  1  0  0  0  0
 26 28  1  0  0  0  0
 27 24  2  0  0  0  0
 28 25  2  0  0  0  0
 29 26  2  0  0  0  0
 29 27  1  0  0  0  0
M  END
>  <MODEL>
3

>  <REMARK>
 VINA RESULT:      -7.7      2.424      6.919
  Name = 
  8 active torsions:
  status: ('A' for Active; 'I' for Inactive)
    1  A    between atoms: N_2  and  O_19
    2  A    between atoms: C_5  and  C_9
    3  A    between atoms: C_9  and  C_25
    4  A    between atoms: C_14  and  O_19
    5  A    between atoms: C_16  and  C_22
    6  A    between atoms: C_16  and  C_25
    7  A    between atoms: C_20  and  C_24
    8  A    between atoms: C_21  and  C_24
                            x       y       z     vdW  Elec       q    Type
                         _______ _______ _______ _____ _____    ______ ____

>  <TORSDO>
F 8

$$$$
=
 OpenBabel10222421083D

 29 32  0  0  1  0  0  0  0  0999 V2000
  186.6680  177.0730  145.0360 N   0  0  0  0  0  0  0  0  0  0  0  0
  187.9010  177.1470  144.6330 C   0  0  0  0  0  0  0  0  0  0  0  0
  188.9760  177.8170  145.4460 C   0  0  2  0  0  3  0  0  0  0  0  0
  191.7520  177.0470  145.7490 C   0  0  0  0  0  3  0  0  0  0  0  0
  190.8880  176.5680  146.5920 N   0  0  0  0  0  0  0  0  0  0  0  0
  190.0690  178.3540  144.5560 C   0  0  0  0  0  3  0  0  0  0  0  0
  191.3460  177.9910  144.6960 C   0  0  0  0  0  3  0  0  0  0  0  0
  189.5000  176.9200  146.5410 C   0  0  0  0  0  0  0  0  0  0  0  0
  188.7160  176.4840  147.4230 O   0  0  0  0  0  0  0  0  0  0  0  0
  186.2540  177.6330  146.2240 O   0  0  0  0  0  0  0  0  0  0  0  0
  185.3760  179.7250  145.4760 C   0  0  0  0  0  2  0  0  0  0  0  0
  185.1070  178.4590  146.2600 C   0  0  1  0  0  3  0  0  0  0  0  0
  184.5660  178.6060  144.8530 C   0  0  1  0  0  3  0  0  0  0  0  0
  183.0910  178.9530  144.9290 C   0  0  0  0  0  2  0  0  0  0  0  0
  181.4460  178.0890  141.1640 O   0  0  0  0  0  0  0  0  0  0  0  0
  180.6400  178.9070  141.9760 C   0  0  0  0  0  2  0  0  0  0  0  0
  182.7230  178.6820  141.1290 C   0  0  0  0  0  2  0  0  0  0  0  0
  182.5430  179.2500  143.5440 C   0  0  0  0  0  3  0  0  0  0  0  0
  181.0860  178.7960  143.4340 C   0  0  0  0  0  2  0  0  0  0  0  0
  183.3970  178.5450  142.4940 C   0  0  0  0  0  2  0  0  0  0  0  0
  188.2830  176.4850  143.3530 C   0  0  0  0  0  2  0  0  0  0  0  0
  188.0450  177.4050  142.1980 C   0  0  0  0  0  0  0  0  0  0  0  0
  187.0880  178.2230  142.2640 O   0  0  0  0  0  0  0  0  0  0  0  0
  191.0680  176.8730  139.9890 C   0  0  0  0  0  3  0  0  0  0  0  0
  190.6030  177.3490  138.7610 C   0  0  0  0  0  3  0  0  0  0  0  0
  188.4650  177.8660  139.7730 C   0  0  0  0  0  3  0  0  0  0  0  0
  190.2320  176.8930  141.1100 C   0  0  0  0  0  3  0  0  0  0  0  0
  189.3010  177.8460  138.6530 C   0  0  0  0  0  3  0  0  0  0  0  0
  188.9240  177.3890  141.0110 C   0  0  0  0  0  0  0  0  0  0  0  0
  1 10  1  0  0  0  0
  2  1  2  0  0  0  0
  3  2  1  6  0  0  0
  3  8  1  0  0  0  0
  4  5  2  0  0  0  0
  6  7  2  0  0  0  0
  6  3  1  0  0  0  0
  7  4  1  0  0  0  0
  8  5  1  0  0  0  0
  8  9  2  0  0  0  0
 11 12  1  0  0  0  0
 12 10  1  6  0  0  0
 13 14  1  1  0  0  0
 13 11  1  0  0  0  0
 13 12  1  0  0  0  0
 15 16  1  0  0  0  0
 16 19  1  0  0  0  0
 17 15  1  0  0  0  0
 17 20  1  0  0  0  0
 18 14  1  0  0  0  0
 19 18  1  0  0  0  0
 20 18  1  0  0  0  0
 21  2  1  0  0  0  0
 22 23  2  0  0  0  0
 22 21  1  0  0  0  0
 24 27  1  0  0  0  0
 25 24  2  0  0  0  0
 26 29  1  0  0  0  0
 28 25  1  0  0  0  0
 28 26  2  0  0  0  0
 29 27  2  0  0  0  0
 29 22  1  0  0  0  0
M  END
>  <MODEL>
4

>  <REMARK>
 VINA RESULT:      -7.7      2.797      6.304
  Name = 
  8 active torsions:
  status: ('A' for Active; 'I' for Inactive)
    1  A    between atoms: N_2  and  O_19
    2  A    between atoms: C_5  and  C_9
    3  A    between atoms: C_9  and  C_25
    4  A    between atoms: C_14  and  O_19
    5  A    between atoms: C_16  and  C_22
    6  A    between atoms: C_16  and  C_25
    7  A    between atoms: C_20  and  C_24
    8  A    between atoms: C_21  and  C_24
                            x       y       z     vdW  Elec       q    Type
                         _______ _______ _______ _____ _____    ______ ____

>  <TORSDO>
F 8

$$$$
=
 OpenBabel10222421083D

 29 32  0  0  1  0  0  0  0  0999 V2000
  188.3920  177.9390  141.5800 N   0  0  0  0  0  0  0  0  0  0  0  0
  188.8840  177.2450  142.5620 C   0  0  0  0  0  0  0  0  0  0  0  0
  190.3590  177.1980  142.8570 C   0  0  2  0  0  3  0  0  0  0  0  0
  191.6800  176.5640  145.3550 C   0  0  0  0  0  3  0  0  0  0  0  0
  191.3850  177.8060  145.1170 N   0  0  0  0  0  0  0  0  0  0  0  0
  190.7930  175.7980  143.2130 C   0  0  0  0  0  3  0  0  0  0  0  0
  191.3960  175.5100  144.3690 C   0  0  0  0  0  3  0  0  0  0  0  0
  190.7620  178.2180  143.8930 C   0  0  0  0  0  0  0  0  0  0  0  0
  190.5600  179.4420  143.6810 O   0  0  0  0  0  0  0  0  0  0  0  0
  189.1940  178.6560  140.7200 O   0  0  0  0  0  0  0  0  0  0  0  0
  188.9860  177.0870  138.9320 C   0  0  0  0  0  2  0  0  0  0  0  0
  189.0130  178.5480  139.3220 C   0  0  1  0  0  3  0  0  0  0  0  0
  187.6900  177.8620  139.0510 C   0  0  1  0  0  3  0  0  0  0  0  0
  187.2100  178.2530  137.6670 C   0  0  0  0  0  2  0  0  0  0  0  0
  183.3380  176.9850  138.6830 O   0  0  0  0  0  0  0  0  0  0  0  0
  183.5760  178.3550  138.9000 C   0  0  0  0  0  2  0  0  0  0  0  0
  183.7200  176.7110  137.3570 C   0  0  0  0  0  2  0  0  0  0  0  0
  185.6930  178.2060  137.5980 C   0  0  0  0  0  3  0  0  0  0  0  0
  185.0810  178.6220  138.9370 C   0  0  0  0  0  2  0  0  0  0  0  0
  185.2410  176.7980  137.2250 C   0  0  0  0  0  2  0  0  0  0  0  0
  187.9510  176.5240  143.4750 C   0  0  0  0  0  2  0  0  0  0  0  0
  187.3260  177.4780  144.4430 C   0  0  0  0  0  0  0  0  0  0  0  0
  188.0000  177.8600  145.4370 O   0  0  0  0  0  0  0  0  0  0  0  0
  183.9330  179.0050  145.1200 C   0  0  0  0  0  3  0  0  0  0  0  0
  183.3600  178.9860  143.8450 C   0  0  0  0  0  3  0  0  0  0  0  0
  185.3750  177.9810  142.9570 C   0  0  0  0  0  3  0  0  0  0  0  0
  185.2270  178.5110  145.3130 C   0  0  0  0  0  3  0  0  0  0  0  0
  184.0810  178.4740  142.7640 C   0  0  0  0  0  3  0  0  0  0  0  0
  185.9580  177.9960  144.2330 C   0  0  0  0  0  0  0  0  0  0  0  0
  1  2  2  0  0  0  0
  2 21  1  0  0  0  0
  3  2  1  1  0  0  0
  3  6  1  0  0  0  0
  3  8  1  0  0  0  0
  5  4  2  0  0  0  0
  6  7  2  0  0  0  0
  7  4  1  0  0  0  0
  8  5  1  0  0  0  0
  9  8  2  0  0  0  0
 10  1  1  0  0  0  0
 11 13  1  0  0  0  0
 11 12  1  0  0  0  0
 12 10  1  1  0  0  0
 13 14  1  6  0  0  0
 13 12  1  0  0  0  0
 15 16  1  0  0  0  0
 16 19  1  0  0  0  0
 17 15  1  0  0  0  0
 18 14  1  0  0  0  0
 18 19  1  0  0  0  0
 20 17  1  0  0  0  0
 20 18  1  0  0  0  0
 21 22  1  0  0  0  0
 22 23  2  0  0  0  0
 24 27  1  0  0  0  0
 25 24  2  0  0  0  0
 26 29  1  0  0  0  0
 28 26  2  0  0  0  0
 28 25  1  0  0  0  0
 29 22  1  0  0  0  0
 29 27  2  0  0  0  0
M  END
>  <MODEL>
5

>  <REMARK>
 VINA RESULT:      -7.5      2.258      6.674
  Name = 
  8 active torsions:
  status: ('A' for Active; 'I' for Inactive)
    1  A    between atoms: N_2  and  O_19
    2  A    between atoms: C_5  and  C_9
    3  A    between atoms: C_9  and  C_25
    4  A    between atoms: C_14  and  O_19
    5  A    between atoms: C_16  and  C_22
    6  A    between atoms: C_16  and  C_25
    7  A    between atoms: C_20  and  C_24
    8  A    between atoms: C_21  and  C_24
                            x       y       z     vdW  Elec       q    Type
                         _______ _______ _______ _____ _____    ______ ____

>  <TORSDO>
F 8

$$$$
=
 OpenBabel10222421083D

 29 32  0  0  1  0  0  0  0  0999 V2000
  187.9240  177.8670  141.6910 N   0  0  0  0  0  0  0  0  0  0  0  0
  188.5580  177.2520  142.6440 C   0  0  0  0  0  0  0  0  0  0  0  0
  190.0600  177.1880  142.7020 C   0  0  2  0  0  3  0  0  0  0  0  0
  191.7500  176.4210  144.9250 C   0  0  0  0  0  3  0  0  0  0  0  0
  191.4330  177.6740  144.8020 N   0  0  0  0  0  0  0  0  0  0  0  0
  190.5320  175.7710  142.9110 C   0  0  0  0  0  3  0  0  0  0  0  0
  191.3050  175.4210  143.9420 C   0  0  0  0  0  3  0  0  0  0  0  0
  190.6310  178.1510  143.7140 C   0  0  0  0  0  0  0  0  0  0  0  0
  190.4090  179.3850  143.6010 O   0  0  0  0  0  0  0  0  0  0  0  0
  188.5850  178.4750  140.6480 O   0  0  0  0  0  0  0  0  0  0  0  0
  189.4090  178.7240  138.4200 C   0  0  0  0  0  2  0  0  0  0  0  0
  188.5250  177.9210  139.3480 C   0  0  1  0  0  3  0  0  0  0  0  0
  189.8970  177.4020  138.9740 C   0  0  1  0  0  3  0  0  0  0  0  0
  189.7430  176.3260  137.9150 C   0  0  0  0  0  2  0  0  0  0  0  0
  193.7110  176.3580  136.5430 O   0  0  0  0  0  0  0  0  0  0  0  0
  193.5590  175.9180  137.8710 C   0  0  0  0  0  2  0  0  0  0  0  0
  192.8210  175.6000  135.7600 C   0  0  0  0  0  2  0  0  0  0  0  0
  191.0970  175.7460  137.5470 C   0  0  0  0  0  3  0  0  0  0  0  0
  192.1990  176.3580  138.4130 C   0  0  0  0  0  2  0  0  0  0  0  0
  191.3800  176.0060  136.0700 C   0  0  0  0  0  2  0  0  0  0  0  0
  187.7750  176.6490  143.7610 C   0  0  0  0  0  2  0  0  0  0  0  0
  187.2080  177.7190  144.6390 C   0  0  0  0  0  0  0  0  0  0  0  0
  187.9570  178.2550  145.5000 O   0  0  0  0  0  0  0  0  0  0  0  0
  183.8870  178.6270  143.0770 C   0  0  0  0  0  3  0  0  0  0  0  0
  183.1520  179.0270  144.1960 C   0  0  0  0  0  3  0  0  0  0  0  0
  185.0660  178.5760  145.6090 C   0  0  0  0  0  3  0  0  0  0  0  0
  185.2100  178.2010  143.2230 C   0  0  0  0  0  3  0  0  0  0  0  0
  183.7420  179.0010  145.4630 C   0  0  0  0  0  3  0  0  0  0  0  0
  185.8110  178.1720  144.4900 C   0  0  0  0  0  0  0  0  0  0  0  0
  1  2  2  0  0  0  0
  2 21  1  0  0  0  0
  3  2  1  1  0  0  0
  3  6  1  0  0  0  0
  3  8  1  0  0  0  0
  5  4  2  0  0  0  0
  6  7  2  0  0  0  0
  7  4  1  0  0  0  0
  8  5  1  0  0  0  0
  9  8  2  0  0  0  0
 10  1  1  0  0  0  0
 11 13  1  0  0  0  0
 11 12  1  0  0  0  0
 12 10  1  1  0  0  0
 13 14  1  6  0  0  0
 13 12  1  0  0  0  0
 15 16  1  0  0  0  0
 16 19  1  0  0  0  0
 17 20  1  0  0  0  0
 17 15  1  0  0  0  0
 18 14  1  0  0  0  0
 18 19  1  0  0  0  0
 20 18  1  0  0  0  0
 21 22  1  0  0  0  0
 22 23  2  0  0  0  0
 24 27  2  0  0  0  0
 24 25  1  0  0  0  0
 25 28  2  0  0  0  0
 27 29  1  0  0  0  0
 28 26  1  0  0  0  0
 29 22  1  0  0  0  0
 29 26  2  0  0  0  0
M  END
>  <MODEL>
6

>  <REMARK>
 VINA RESULT:      -7.4      2.416      7.429
  Name = 
  8 active torsions:
  status: ('A' for Active; 'I' for Inactive)
    1  A    between atoms: N_2  and  O_19
    2  A    between atoms: C_5  and  C_9
    3  A    between atoms: C_9  and  C_25
    4  A    between atoms: C_14  and  O_19
    5  A    between atoms: C_16  and  C_22
    6  A    between atoms: C_16  and  C_25
    7  A    between atoms: C_20  and  C_24
    8  A    between atoms: C_21  and  C_24
                            x       y       z     vdW  Elec       q    Type
                         _______ _______ _______ _____ _____    ______ ____

>  <TORSDO>
F 8

$$$$
=
 OpenBabel10222421083D

 29 32  0  0  1  0  0  0  0  0999 V2000
  187.8900  178.0530  141.7210 N   0  0  0  0  0  0  0  0  0  0  0  0
  186.8650  178.1050  142.5180 C   0  0  0  0  0  0  0  0  0  0  0  0
  185.7880  179.1470  142.3790 C   0  0  2  0  0  3  0  0  0  0  0  0
  182.9830  178.9470  143.0720 C   0  0  0  0  0  3  0  0  0  0  0  0
  183.3410  178.6140  141.8690 N   0  0  0  0  0  0  0  0  0  0  0  0
  185.2550  179.5550  143.7280 C   0  0  0  0  0  3  0  0  0  0  0  0
  183.9620  179.4550  144.0460 C   0  0  0  0  0  3  0  0  0  0  0  0
  184.7010  178.7140  141.4260 C   0  0  0  0  0  0  0  0  0  0  0  0
  184.9850  178.4460  140.2290 O   0  0  0  0  0  0  0  0  0  0  0  0
  188.0770  178.9700  140.7110 O   0  0  0  0  0  0  0  0  0  0  0  0
  189.6700  177.3990  139.8730 C   0  0  0  0  0  2  0  0  0  0  0  0
  188.8410  178.6270  139.5710 C   0  0  1  0  0  3  0  0  0  0  0  0
  188.3920  177.2710  139.0710 C   0  0  1  0  0  3  0  0  0  0  0  0
  188.7340  177.1540  137.5970 C   0  0  0  0  0  2  0  0  0  0  0  0
  184.8270  175.7360  136.9990 O   0  0  0  0  0  0  0  0  0  0  0  0
  185.0840  176.9930  136.4210 C   0  0  0  0  0  2  0  0  0  0  0  0
  185.8450  174.8700  136.5570 C   0  0  0  0  0  2  0  0  0  0  0  0
  187.5250  176.6870  136.8070 C   0  0  0  0  0  3  0  0  0  0  0  0
  186.3310  177.6120  137.0530 C   0  0  0  0  0  2  0  0  0  0  0  0
  187.1750  175.2560  137.2040 C   0  0  0  0  0  2  0  0  0  0  0  0
  186.7100  177.0550  143.5650 C   0  0  0  0  0  2  0  0  0  0  0  0
  187.9820  176.8950  144.3360 C   0  0  0  0  0  0  0  0  0  0  0  0
  188.9780  176.3790  143.7590 O   0  0  0  0  0  0  0  0  0  0  0  0
  189.4330  177.7110  147.7310 C   0  0  0  0  0  3  0  0  0  0  0  0
  188.3180  178.2310  148.3930 C   0  0  0  0  0  3  0  0  0  0  0  0
  186.9790  177.8780  146.4070 C   0  0  0  0  0  3  0  0  0  0  0  0
  189.3210  177.2750  146.4070 C   0  0  0  0  0  3  0  0  0  0  0  0
  187.0900  178.3150  147.7300 C   0  0  0  0  0  3  0  0  0  0  0  0
  188.0940  177.3550  145.7340 C   0  0  0  0  0  0  0  0  0  0  0  0
  1  2  2  0  0  0  0
  2 21  1  0  0  0  0
  3  2  1  1  0  0  0
  3  6  1  0  0  0  0
  4  7  1  0  0  0  0
  5  4  2  0  0  0  0
  6  7  2  0  0  0  0
  8  5  1  0  0  0  0
  8  3  1  0  0  0  0
  9  8  2  0  0  0  0
 10  1  1  0  0  0  0
 12 11  1  0  0  0  0
 12 10  1  1  0  0  0
 13 14  1  6  0  0  0
 13 12  1  0  0  0  0
 13 11  1  0  0  0  0
 16 15  1  0  0  0  0
 16 19  1  0  0  0  0
 17 15  1  0  0  0  0
 17 20  1  0  0  0  0
 18 19  1  0  0  0  0
 18 20  1  0  0  0  0
 18 14  1  0  0  0  0
 21 22  1  0  0  0  0
 22 29  1  0  0  0  0
 23 22  2  0  0  0  0
 24 25  1  0  0  0  0
 26 28  1  0  0  0  0
 27 24  2  0  0  0  0
 28 25  2  0  0  0  0
 29 26  2  0  0  0  0
 29 27  1  0  0  0  0
M  END
>  <MODEL>
7

>  <REMARK>
 VINA RESULT:      -7.3      2.292      6.588
  Name = 
  8 active torsions:
  status: ('A' for Active; 'I' for Inactive)
    1  A    between atoms: N_2  and  O_19
    2  A    between atoms: C_5  and  C_9
    3  A    between atoms: C_9  and  C_25
    4  A    between atoms: C_14  and  O_19
    5  A    between atoms: C_16  and  C_22
    6  A    between atoms: C_16  and  C_25
    7  A    between atoms: C_20  and  C_24
    8  A    between atoms: C_21  and  C_24
                            x       y       z     vdW  Elec       q    Type
                         _______ _______ _______ _____ _____    ______ ____

>  <TORSDO>
F 8

$$$$
=
 OpenBabel10222421083D

 29 32  0  0  1  0  0  0  0  0999 V2000
  186.6730  178.6190  140.3800 N   0  0  0  0  0  0  0  0  0  0  0  0
  186.8860  178.0270  139.2430 C   0  0  0  0  0  0  0  0  0  0  0  0
  186.0610  178.3150  138.0180 C   0  0  2  0  0  3  0  0  0  0  0  0
  185.9620  176.8470  135.5230 C   0  0  0  0  0  3  0  0  0  0  0  0
  186.8240  177.8130  135.6310 N   0  0  0  0  0  0  0  0  0  0  0  0
  185.0660  177.2110  137.7650 C   0  0  0  0  0  3  0  0  0  0  0  0
  185.0290  176.5330  136.6160 C   0  0  0  0  0  3  0  0  0  0  0  0
  186.9210  178.6160  136.8140 C   0  0  0  0  0  0  0  0  0  0  0  0
  187.7240  179.5840  136.8430 O   0  0  0  0  0  0  0  0  0  0  0  0
  185.6550  179.5310  140.5490 O   0  0  0  0  0  0  0  0  0  0  0  0
  183.9690  178.0850  141.4290 C   0  0  0  0  0  2  0  0  0  0  0  0
  184.7320  179.3780  141.6100 C   0  0  1  0  0  3  0  0  0  0  0  0
  185.1140  178.1550  142.4180 C   0  0  1  0  0  3  0  0  0  0  0  0
  184.5560  178.3020  143.8210 C   0  0  0  0  0  2  0  0  0  0  0  0
  187.0950  177.5890  147.0890 O   0  0  0  0  0  0  0  0  0  0  0  0
  187.7590  177.7220  145.8550 C   0  0  0  0  0  2  0  0  0  0  0  0
  186.2600  178.7150  147.2230 C   0  0  0  0  0  2  0  0  0  0  0  0
  185.6720  178.5890  144.8100 C   0  0  0  0  0  3  0  0  0  0  0  0
  186.7680  177.5260  144.7070 C   0  0  0  0  0  2  0  0  0  0  0  0
  185.1050  178.6280  146.2260 C   0  0  0  0  0  2  0  0  0  0  0  0
  188.0310  177.0790  139.1260 C   0  0  0  0  0  2  0  0  0  0  0  0
  189.2740  177.6910  139.6900 C   0  0  0  0  0  0  0  0  0  0  0  0
  189.8220  178.6370  139.0620 O   0  0  0  0  0  0  0  0  0  0  0  0
  191.7220  177.0690  142.5040 C   0  0  0  0  0  3  0  0  0  0  0  0
  190.9320  176.3530  143.4080 C   0  0  0  0  0  3  0  0  0  0  0  0
  189.0560  176.5070  141.8850 C   0  0  0  0  0  3  0  0  0  0  0  0
  191.1790  177.5040  141.2920 C   0  0  0  0  0  3  0  0  0  0  0  0
  189.5990  176.0730  143.0980 C   0  0  0  0  0  3  0  0  0  0  0  0
  189.8420  177.2270  140.9720 C   0  0  0  0  0  0  0  0  0  0  0  0
  1 10  1  0  0  0  0
  2  1  2  0  0  0  0
  3  2  1  1  0  0  0
  4  5  2  0  0  0  0
  4  7  1  0  0  0  0
  5  8  1  0  0  0  0
  6  3  1  0  0  0  0
  7  6  2  0  0  0  0
  8  9  2  0  0  0  0
  8  3  1  0  0  0  0
 11 12  1  0  0  0  0
 11 13  1  0  0  0  0
 12 10  1  6  0  0  0
 12 13  1  0  0  0  0
 13 14  1  1  0  0  0
 14 18  1  0  0  0  0
 15 17  1  0  0  0  0
 16 15  1  0  0  0  0
 18 20  1  0  0  0  0
 19 18  1  0  0  0  0
 19 16  1  0  0  0  0
 20 17  1  0  0  0  0
 21  2  1  0  0  0  0
 21 22  1  0  0  0  0
 22 29  1  0  0  0  0
 23 22  2  0  0  0  0
 24 25  1  0  0  0  0
 26 28  1  0  0  0  0
 27 24  2  0  0  0  0
 28 25  2  0  0  0  0
 29 27  1  0  0  0  0
 29 26  2  0  0  0  0
M  END
>  <MODEL>
8

>  <REMARK>
 VINA RESULT:      -7.3      1.542      2.091
  Name = 
  8 active torsions:
  status: ('A' for Active; 'I' for Inactive)
    1  A    between atoms: N_2  and  O_19
    2  A    between atoms: C_5  and  C_9
    3  A    between atoms: C_9  and  C_25
    4  A    between atoms: C_14  and  O_19
    5  A    between atoms: C_16  and  C_22
    6  A    between atoms: C_16  and  C_25
    7  A    between atoms: C_20  and  C_24
    8  A    between atoms: C_21  and  C_24
                            x       y       z     vdW  Elec       q    Type
                         _______ _______ _______ _____ _____    ______ ____

>  <TORSDO>
F 8

$$$$
=
 OpenBabel10222421083D

 29 32  0  0  1  0  0  0  0  0999 V2000
  189.7190  177.0840  140.8620 N   0  0  0  0  0  0  0  0  0  0  0  0
  189.8830  177.4900  142.0850 C   0  0  0  0  0  0  0  0  0  0  0  0
  191.1980  177.3650  142.8070 C   0  0  2  0  0  3  0  0  0  0  0  0
  191.6780  176.6610  145.5750 C   0  0  0  0  0  3  0  0  0  0  0  0
  191.5300  177.9170  145.2790 N   0  0  0  0  0  0  0  0  0  0  0  0
  191.4360  175.9450  143.2530 C   0  0  0  0  0  3  0  0  0  0  0  0
  191.6500  175.6240  144.5310 C   0  0  0  0  0  3  0  0  0  0  0  0
  191.3230  178.3620  143.9330 C   0  0  0  0  0  0  0  0  0  0  0  0
  191.2550  179.5950  143.6900 O   0  0  0  0  0  0  0  0  0  0  0  0
  190.7320  176.4810  140.1510 O   0  0  0  0  0  0  0  0  0  0  0  0
  190.5950  177.1690  137.8670 C   0  0  0  0  0  2  0  0  0  0  0  0
  190.4980  176.0120  138.8370 C   0  0  1  0  0  3  0  0  0  0  0  0
  191.7550  176.2070  138.0170 C   0  0  1  0  0  3  0  0  0  0  0  0
  191.7440  175.2230  136.8620 C   0  0  0  0  0  2  0  0  0  0  0  0
  195.9360  175.4680  136.8260 O   0  0  0  0  0  0  0  0  0  0  0  0
  195.4290  174.2620  137.3420 C   0  0  0  0  0  2  0  0  0  0  0  0
  195.3220  175.6650  135.5750 C   0  0  0  0  0  2  0  0  0  0  0  0
  193.1620  174.8310  136.4840 C   0  0  0  0  0  3  0  0  0  0  0  0
  193.9600  174.4360  137.7280 C   0  0  0  0  0  2  0  0  0  0  0  0
  193.8410  175.9940  135.7680 C   0  0  0  0  0  2  0  0  0  0  0  0
  188.7500  178.1680  142.7800 C   0  0  0  0  0  2  0  0  0  0  0  0
  188.0140  177.1970  143.6480 C   0  0  0  0  0  0  0  0  0  0  0  0
  187.9500  175.9910  143.2860 O   0  0  0  0  0  0  0  0  0  0  0  0
  185.5070  178.5500  146.1340 C   0  0  0  0  0  3  0  0  0  0  0  0
  186.2130  178.4300  147.3340 C   0  0  0  0  0  3  0  0  0  0  0  0
  188.0990  177.5060  146.1300 C   0  0  0  0  0  3  0  0  0  0  0  0
  186.0970  178.1480  144.9320 C   0  0  0  0  0  3  0  0  0  0  0  0
  187.5090  177.9080  147.3320 C   0  0  0  0  0  3  0  0  0  0  0  0
  187.3970  177.6220  144.9200 C   0  0  0  0  0  0  0  0  0  0  0  0
  1  2  2  0  0  0  0
  2 21  1  0  0  0  0
  3  2  1  1  0  0  0
  3  6  1  0  0  0  0
  3  8  1  0  0  0  0
  5  4  2  0  0  0  0
  6  7  2  0  0  0  0
  7  4  1  0  0  0  0
  8  5  1  0  0  0  0
  9  8  2  0  0  0  0
 10  1  1  0  0  0  0
 11 13  1  0  0  0  0
 11 12  1  0  0  0  0
 12 10  1  1  0  0  0
 13 14  1  6  0  0  0
 13 12  1  0  0  0  0
 15 16  1  0  0  0  0
 16 19  1  0  0  0  0
 17 20  1  0  0  0  0
 17 15  1  0  0  0  0
 18 14  1  0  0  0  0
 18 19  1  0  0  0  0
 20 18  1  0  0  0  0
 21 22  1  0  0  0  0
 22 29  1  0  0  0  0
 23 22  2  0  0  0  0
 24 25  1  0  0  0  0
 26 28  1  0  0  0  0
 27 24  2  0  0  0  0
 28 25  2  0  0  0  0
 29 27  1  0  0  0  0
 29 26  2  0  0  0  0
M  END
>  <MODEL>
9

>  <REMARK>
 VINA RESULT:      -7.3      3.286      8.006
  Name = 
  8 active torsions:
  status: ('A' for Active; 'I' for Inactive)
    1  A    between atoms: N_2  and  O_19
    2  A    between atoms: C_5  and  C_9
    3  A    between atoms: C_9  and  C_25
    4  A    between atoms: C_14  and  O_19
    5  A    between atoms: C_16  and  C_22
    6  A    between atoms: C_16  and  C_25
    7  A    between atoms: C_20  and  C_24
    8  A    between atoms: C_21  and  C_24
                            x       y       z     vdW  Elec       q    Type
                         _______ _______ _______ _____ _____    ______ ____

>  <TORSDO>
F 8

$$$$
