=
 OpenBabel10222418033D

 58 63  0  0  1  0  0  0  0  0999 V2000
  190.6280  176.1300  135.7210 N   0  0  0  0  0  0  0  0  0  0  0  0
  188.3870  176.5830  137.4300 C   0  0  2  0  0  3  0  0  0  0  0  0
  189.8050  176.5880  137.9530 C   0  0  0  0  0  0  0  0  0  0  0  0
  190.8330  176.3970  137.1140 C   0  0  0  0  0  3  0  0  0  0  0  0
  189.4430  175.9540  135.2250 C   0  0  0  0  0  3  0  0  0  0  0  0
  188.2770  176.0400  136.0560 N   0  0  0  0  0  0  0  0  0  0  0  0
  185.9080  176.4400  135.4350 C   0  0  0  0  0  3  0  0  0  0  0  0
  184.5320  174.6380  134.5950 C   0  0  0  0  0  3  0  0  0  0  0  0
  184.6800  175.9790  134.9550 C   0  0  0  0  0  0  0  0  0  0  0  0
  185.6180  173.7700  134.6940 C   0  0  0  0  0  3  0  0  0  0  0  0
  186.8470  174.2360  135.1640 C   0  0  0  0  0  3  0  0  0  0  0  0
  187.0120  175.5760  135.5490 C   0  0  0  0  0  0  0  0  0  0  0  0
  183.2520  177.0660  134.8960 S   0  0  0  0  0  0  0  0  0  0  0  0
  182.6510  176.8260  136.6090 C   0  0  2  0  0  0  0  0  0  0  0  0
  182.9710  178.0730  137.4400 C   0  0  0  0  0  2  0  0  0  0  0  0
  180.6640  178.1780  138.4400 N   0  0  0  0  0  0  0  0  0  0  0  0
  183.2960  175.7210  137.1700 O   0  0  0  0  0  1  0  0  0  0  0  0
  182.1160  178.0710  138.7080 C   0  0  0  0  0  2  0  0  0  0  0  0
  180.2770  177.7670  137.0770 C   0  0  0  0  0  2  0  0  0  0  0  0
  181.1140  176.5930  136.5400 C   0  0  2  0  0  3  0  0  0  0  0  0
  180.8840  174.1220  136.1580 C   0  0  0  0  0  3  0  0  0  0  0  0
  180.6260  175.2300  136.9820 C   0  0  0  0  0  0  0  0  0  0  0  0
  179.8480  172.6670  137.7930 C   0  0  0  0  0  3  0  0  0  0  0  0
  179.6060  173.7660  138.6230 C   0  0  0  0  0  3  0  0  0  0  0  0
  180.0020  175.0400  138.2210 C   0  0  0  0  0  3  0  0  0  0  0  0
  180.4940  172.8410  136.5620 C   0  0  0  0  0  3  0  0  0  0  0  0
  180.0900  179.5230  138.6300 C   0  0  2  0  0  3  0  0  0  0  0  0
  180.8630  180.6690  138.0170 C   0  0  0  0  0  0  0  0  0  0  0  0
  181.5420  181.5820  138.8260 O   0  0  0  0  0  1  0  0  0  0  0  0
  180.8610  180.8410  136.7650 O   0  0  0  0  0  0  0  0  0  0  0  0
  179.7100  178.5700  140.8040 O   0  0  0  0  0  1  0  0  0  0  0  0
  179.8220  179.7780  140.1110 C   0  0  0  0  0  2  0  0  0  0  0  0
  192.1460  177.6030  140.8860 N   0  0  0  0  0  0  0  0  0  0  0  0
  191.3360  177.1450  139.8620 C   0  0  0  0  0  0  0  0  0  0  0  0
  190.0320  176.9120  139.3300 N   0  0  0  0  0  2  0  0  0  0  0  0
  192.6720  177.0710  139.7350 N   0  0  0  0  0  0  0  0  0  0  0  0
  192.3290  178.1510  142.1640 N   0  0  0  0  0  2  0  0  0  0  0  0
  191.4800  177.4030  143.0910 C   0  0  0  0  0  2  0  0  0  0  0  0
  190.0570  177.6520  142.8180 C   0  0  0  0  0  0  0  0  0  0  0  0
  188.8840  177.8730  142.6310 C   0  0  0  0  0  0  0  0  0  0  0  0
  187.5200  178.1400  142.4480 N   0  0  0  0  0  2  0  0  0  0  0  0
  186.5170  177.7720  143.3720 N   0  0  0  0  0  0  0  0  0  0  0  0
  182.4500  179.0180  143.4940 C   0  0  0  0  0  0  0  0  0  0  0  0
  182.9560  178.5800  142.3350 C   0  0  0  0  0  3  0  0  0  0  0  0
  184.4460  178.5980  142.0890 C   0  0  0  0  0  2  0  0  0  0  0  0
  181.1050  179.0310  143.6780 F   0  0  0  0  0  0  0  0  0  0  0  0
  185.2280  178.3980  143.3740 C   0  0  0  0  0  0  0  0  0  0  0  0
  184.6890  178.8240  144.5290 C   0  0  0  0  0  3  0  0  0  0  0  0
  183.3650  179.5350  144.5730 C   0  0  0  0  0  2  0  0  0  0  0  0
  186.8840  176.8850  144.4850 C   0  0  0  0  0  2  0  0  0  0  0  0
  187.8610  177.5180  145.2940 O   0  0  0  0  0  0  0  0  0  0  0  0
  186.5020  177.9330  147.1140 O   0  0  0  0  0  0  0  0  0  0  0  0
  187.6640  177.7230  146.6640 C   0  0  0  0  0  0  0  0  0  0  0  0
  188.7040  178.2190  148.8090 C   0  0  0  0  0  2  0  0  0  0  0  0
  188.8170  177.7290  147.5800 C   0  0  0  0  0  0  0  0  0  0  0  0
  190.0930  177.0600  147.1920 C   0  0  0  0  0  1  0  0  0  0  0  0
  186.9570  177.9030  138.5060 C   0  0  0  0  0  1  0  0  0  0  0  0
  187.8770  177.8880  137.4610 O   0  0  0  0  0  0  0  0  0  0  0  0
  1  4  1  0  0  0  0
  2 58  1  6  0  0  0
  2  3  1  0  0  0  0
  3 35  1  0  0  0  0
  4  3  2  0  0  0  0
  5  1  2  0  0  0  0
  5  6  1  0  0  0  0
  6  2  1  0  0  0  0
  7 12  1  0  0  0  0
  8 10  2  0  0  0  0
  8  9  1  0  0  0  0
  9  7  2  0  0  0  0
 10 11  1  0  0  0  0
 11 12  2  0  0  0  0
 12  6  1  0  0  0  0
 13  9  1  0  0  0  0
 13 14  1  0  0  0  0
 14 17  1  1  0  0  0
 14 15  1  0  0  0  0
 15 18  1  0  0  0  0
 16 27  1  0  0  0  0
 16 18  1  0  0  0  0
 19 16  1  0  0  0  0
 20 14  1  0  0  0  0
 20 22  1  1  0  0  0
 20 19  1  0  0  0  0
 21 26  2  0  0  0  0
 21 22  1  0  0  0  0
 22 25  2  0  0  0  0
 23 24  2  0  0  0  0
 25 24  1  0  0  0  0
 26 23  1  0  0  0  0
 27 32  1  1  0  0  0
 28 27  1  0  0  0  0
 28 29  1  0  0  0  0
 30 28  2  0  0  0  0
 32 31  1  0  0  0  0
 33 37  1  0  0  0  0
 34 33  1  0  0  0  0
 35 34  1  0  0  0  0
 36 34  2  0  0  0  0
 36 33  1  0  0  0  0
 37 38  1  0  0  0  0
 39 38  1  0  0  0  0
 40 39  3  0  0  0  0
 41 40  1  0  0  0  0
 41 42  1  0  0  0  0
 42 47  1  0  0  0  0
 42 50  1  0  0  0  0
 43 46  1  0  0  0  0
 43 49  1  0  0  0  0
 44 43  2  0  0  0  0
 45 44  1  0  0  0  0
 45 47  1  0  0  0  0
 47 48  2  0  0  0  0
 48 49  1  0  0  0  0
 50 51  1  0  0  0  0
 51 53  1  0  0  0  0
 53 52  2  0  0  0  0
 53 55  1  0  0  0  0
 55 54  2  0  0  0  0
 56 55  1  0  0  0  0
 58 57  1  0  0  0  0
M  END
>  <MODEL>
1

>  <REMARK>
 VINA RESULT:      -7.0      0.000      0.000
  Name = 
  19 active torsions:
  status: ('A' for Active; 'I' for Inactive)
    1  A    between atoms: C_4  and  S_14
    2  A    between atoms: N_5  and  N_56
    3  A    between atoms: C_8  and  O_37
    4  A    between atoms: S_14  and  C_27
    5  A    between atoms: C_17  and  N_23
    6  A    between atoms: C_18  and  C_19
    7  A    between atoms: C_19  and  N_56
    8  A    between atoms: C_20  and  C_43
    9  A    between atoms: N_21  and  C_30
   10  A    between atoms: C_25  and  C_49
   11  A    between atoms: C_29  and  N_48
   12  A    between atoms: C_30  and  C_31
   13  A    between atoms: C_30  and  C_40
   14  A    between atoms: N_35  and  C_47
   15  A    between atoms: N_35  and  N_48
   16  A    between atoms: N_45  and  C_55
   17  A    between atoms: C_46  and  N_48
   18  A    between atoms: C_46  and  O_54
   19  A    between atoms: C_49  and  O_54
                            x       y       z     vdW  Elec       q    Type
                         _______ _______ _______ _____ _____    ______ ____

>  <TORSDO>
F 19

$$$$
=
 OpenBabel10222418033D

 58 63  0  0  1  0  0  0  0  0999 V2000
  187.1600  178.0110  134.5940 N   0  0  0  0  0  0  0  0  0  0  0  0
  186.6300  177.0130  137.2150 C   0  0  2  0  0  3  0  0  0  0  0  0
  188.0190  176.9990  136.6190 C   0  0  0  0  0  0  0  0  0  0  0  0
  188.2330  177.5000  135.3940 C   0  0  0  0  0  3  0  0  0  0  0  0
  185.9220  177.9170  134.9670 C   0  0  0  0  0  3  0  0  0  0  0  0
  185.5750  177.3080  136.2190 N   0  0  0  0  0  0  0  0  0  0  0  0
  183.1470  177.6070  135.8020 C   0  0  0  0  0  3  0  0  0  0  0  0
  181.5150  176.3260  137.0430 C   0  0  0  0  0  3  0  0  0  0  0  0
  181.8150  177.2830  136.0730 C   0  0  0  0  0  0  0  0  0  0  0  0
  182.5470  175.6790  137.7220 C   0  0  0  0  0  3  0  0  0  0  0  0
  183.8770  175.9970  137.4410 C   0  0  0  0  0  3  0  0  0  0  0  0
  184.2000  176.9700  136.4820 C   0  0  0  0  0  0  0  0  0  0  0  0
  180.4750  178.1630  135.2650 S   0  0  0  0  0  0  0  0  0  0  0  0
  179.9760  179.2440  136.6550 C   0  0  2  0  0  0  0  0  0  0  0  0
  179.4540  178.3820  137.8100 C   0  0  0  0  0  2  0  0  0  0  0  0
  180.7990  179.6210  139.5380 N   0  0  0  0  0  0  0  0  0  0  0  0
  178.9590  180.1020  136.2270 O   0  0  0  0  0  1  0  0  0  0  0  0
  179.4480  179.2060  139.0970 C   0  0  0  0  0  2  0  0  0  0  0  0
  181.8050  179.6210  138.4600 C   0  0  0  0  0  2  0  0  0  0  0  0
  181.2310  180.0510  137.0980 C   0  0  2  0  0  3  0  0  0  0  0  0
  180.9680  182.0490  135.6010 C   0  0  0  0  0  3  0  0  0  0  0  0
  181.1640  181.5490  136.8990 C   0  0  0  0  0  0  0  0  0  0  0  0
  180.9210  184.3060  136.4770 C   0  0  0  0  0  3  0  0  0  0  0  0
  181.0990  183.8110  137.7720 C   0  0  0  0  0  3  0  0  0  0  0  0
  181.2110  182.4380  137.9810 C   0  0  0  0  0  3  0  0  0  0  0  0
  180.8480  183.4260  135.3890 C   0  0  0  0  0  3  0  0  0  0  0  0
  181.3790  178.8110  140.6260 C   0  0  2  0  0  3  0  0  0  0  0  0
  181.2530  179.3820  142.0200 C   0  0  0  0  0  0  0  0  0  0  0  0
  180.2230  180.2710  142.3350 O   0  0  0  0  0  0  0  0  0  0  0  0
  182.1110  179.0990  142.9040 O   0  0  0  0  0  1  0  0  0  0  0  0
  183.0630  177.1010  140.5000 O   0  0  0  0  0  1  0  0  0  0  0  0
  182.8310  178.4650  140.3080 C   0  0  0  0  0  2  0  0  0  0  0  0
  190.9910  174.5900  137.3120 N   0  0  0  0  0  0  0  0  0  0  0  0
  189.8730  175.3790  137.1120 C   0  0  0  0  0  0  0  0  0  0  0  0
  189.1120  176.5460  137.4280 N   0  0  0  0  0  2  0  0  0  0  0  0
  190.0190  174.2440  136.4070 N   0  0  0  0  0  0  0  0  0  0  0  0
  192.1960  174.3000  137.9690 N   0  0  0  0  0  2  0  0  0  0  0  0
  192.9920  175.5270  137.9900 C   0  0  0  0  0  2  0  0  0  0  0  0
  192.5900  176.3960  139.1070 C   0  0  0  0  0  0  0  0  0  0  0  0
  192.2820  177.0860  140.0490 C   0  0  0  0  0  0  0  0  0  0  0  0
  191.9400  177.8630  141.1650 N   0  0  0  0  0  2  0  0  0  0  0  0
  191.2360  177.3640  142.2830 N   0  0  0  0  0  0  0  0  0  0  0  0
  187.0310  177.3900  142.9360 C   0  0  0  0  0  0  0  0  0  0  0  0
  187.7460  176.3470  143.3750 C   0  0  0  0  0  3  0  0  0  0  0  0
  189.0940  176.0280  142.7720 C   0  0  0  0  0  2  0  0  0  0  0  0
  185.8050  177.6340  143.4640 F   0  0  0  0  0  0  0  0  0  0  0  0
  189.8060  177.2810  142.2980 C   0  0  0  0  0  0  0  0  0  0  0  0
  189.0670  178.3250  141.8850 C   0  0  0  0  0  3  0  0  0  0  0  0
  187.5660  178.2630  141.8300 C   0  0  0  0  0  2  0  0  0  0  0  0
  191.9790  177.1320  143.5300 C   0  0  0  0  0  2  0  0  0  0  0  0
  191.1890  176.3570  144.4160 O   0  0  0  0  0  0  0  0  0  0  0  0
  192.1250  176.0890  146.5100 O   0  0  0  0  0  0  0  0  0  0  0  0
  191.2010  176.5760  145.7980 C   0  0  0  0  0  0  0  0  0  0  0  0
  189.7580  177.1080  147.6850 C   0  0  0  0  0  2  0  0  0  0  0  0
  190.1170  177.3470  146.4300 C   0  0  0  0  0  0  0  0  0  0  0  0
  189.4980  178.5020  145.7170 C   0  0  0  0  0  1  0  0  0  0  0  0
  187.8580  178.5040  138.3160 C   0  0  0  0  0  1  0  0  0  0  0  0
  186.5780  177.9600  138.2470 O   0  0  0  0  0  0  0  0  0  0  0  0
  1  5  2  0  0  0  0
  1  4  1  0  0  0  0
  2 58  1  1  0  0  0
  3  2  1  0  0  0  0
  3 35  1  0  0  0  0
  4  3  2  0  0  0  0
  5  6  1  0  0  0  0
  6 12  1  0  0  0  0
  6  2  1  0  0  0  0
  7  9  2  0  0  0  0
  7 12  1  0  0  0  0
  8 10  2  0  0  0  0
  9  8  1  0  0  0  0
 11 10  1  0  0  0  0
 12 11  2  0  0  0  0
 13  9  1  0  0  0  0
 13 14  1  0  0  0  0
 14 17  1  6  0  0  0
 14 20  1  0  0  0  0
 14 15  1  0  0  0  0
 15 18  1  0  0  0  0
 16 27  1  0  0  0  0
 18 16  1  0  0  0  0
 19 16  1  0  0  0  0
 20 22  1  1  0  0  0
 20 19  1  0  0  0  0
 21 22  1  0  0  0  0
 22 25  2  0  0  0  0
 23 24  2  0  0  0  0
 24 25  1  0  0  0  0
 26 21  2  0  0  0  0
 26 23  1  0  0  0  0
 27 32  1  6  0  0  0
 27 28  1  0  0  0  0
 28 29  2  0  0  0  0
 28 30  1  0  0  0  0
 32 31  1  0  0  0  0
 33 37  1  0  0  0  0
 34 33  1  0  0  0  0
 34 35  1  0  0  0  0
 36 34  2  0  0  0  0
 36 33  1  0  0  0  0
 37 38  1  0  0  0  0
 38 39  1  0  0  0  0
 39 40  3  0  0  0  0
 40 41  1  0  0  0  0
 41 42  1  0  0  0  0
 42 47  1  0  0  0  0
 42 50  1  0  0  0  0
 43 44  2  0  0  0  0
 43 46  1  0  0  0  0
 45 44  1  0  0  0  0
 47 45  1  0  0  0  0
 48 47  2  0  0  0  0
 49 48  1  0  0  0  0
 49 43  1  0  0  0  0
 50 51  1  0  0  0  0
 51 53  1  0  0  0  0
 53 55  1  0  0  0  0
 53 52  2  0  0  0  0
 55 54  2  0  0  0  0
 56 55  1  0  0  0  0
 58 57  1  0  0  0  0
M  END
>  <MODEL>
2

>  <REMARK>
 VINA RESULT:      -6.2      2.473      4.879
  Name = 
  19 active torsions:
  status: ('A' for Active; 'I' for Inactive)
    1  A    between atoms: C_4  and  S_14
    2  A    between atoms: N_5  and  N_56
    3  A    between atoms: C_8  and  O_37
    4  A    between atoms: S_14  and  C_27
    5  A    between atoms: C_17  and  N_23
    6  A    between atoms: C_18  and  C_19
    7  A    between atoms: C_19  and  N_56
    8  A    between atoms: C_20  and  C_43
    9  A    between atoms: N_21  and  C_30
   10  A    between atoms: C_25  and  C_49
   11  A    between atoms: C_29  and  N_48
   12  A    between atoms: C_30  and  C_31
   13  A    between atoms: C_30  and  C_40
   14  A    between atoms: N_35  and  C_47
   15  A    between atoms: N_35  and  N_48
   16  A    between atoms: N_45  and  C_55
   17  A    between atoms: C_46  and  N_48
   18  A    between atoms: C_46  and  O_54
   19  A    between atoms: C_49  and  O_54
                            x       y       z     vdW  Elec       q    Type
                         _______ _______ _______ _____ _____    ______ ____

>  <TORSDO>
F 19

$$$$
=
 OpenBabel10222418033D

 58 63  0  0  1  0  0  0  0  0999 V2000
  187.4460  178.0540  134.6270 N   0  0  0  0  0  0  0  0  0  0  0  0
  187.1870  177.1390  137.3180 C   0  0  2  0  0  3  0  0  0  0  0  0
  188.5310  177.2370  136.6330 C   0  0  0  0  0  0  0  0  0  0  0  0
  188.6140  177.6960  135.3750 C   0  0  0  0  0  3  0  0  0  0  0  0
  186.2510  177.8530  135.0850 C   0  0  0  0  0  3  0  0  0  0  0  0
  186.0470  177.2750  136.3830 N   0  0  0  0  0  0  0  0  0  0  0  0
  183.5990  177.1590  136.0000 C   0  0  0  0  0  3  0  0  0  0  0  0
  182.1690  175.9330  137.5150 C   0  0  0  0  0  3  0  0  0  0  0  0
  182.3260  176.7180  136.3710 C   0  0  0  0  0  0  0  0  0  0  0  0
  183.2850  175.5730  138.2680 C   0  0  0  0  0  3  0  0  0  0  0  0
  184.5560  176.0060  137.8870 C   0  0  0  0  0  3  0  0  0  0  0  0
  184.7350  176.8120  136.7520 C   0  0  0  0  0  0  0  0  0  0  0  0
  180.8710  177.2380  135.4570 S   0  0  0  0  0  0  0  0  0  0  0  0
  180.0990  178.2900  136.7420 C   0  0  2  0  0  0  0  0  0  0  0  0
  179.7200  177.4250  137.9490 C   0  0  0  0  0  2  0  0  0  0  0  0
  180.7030  179.0450  139.6050 N   0  0  0  0  0  0  0  0  0  0  0  0
  178.9460  178.8800  136.2190 O   0  0  0  0  0  1  0  0  0  0  0  0
  179.4880  178.3230  139.1640 C   0  0  0  0  0  2  0  0  0  0  0  0
  181.7320  179.1770  138.5560 C   0  0  0  0  0  2  0  0  0  0  0  0
  181.1390  179.3740  137.1500 C   0  0  2  0  0  3  0  0  0  0  0  0
  180.4140  181.6640  137.8810 C   0  0  0  0  0  3  0  0  0  0  0  0
  180.7700  180.8050  136.8270 C   0  0  0  0  0  0  0  0  0  0  0  0
  180.1820  183.4930  136.3110 C   0  0  0  0  0  3  0  0  0  0  0  0
  180.5530  182.6450  135.2630 C   0  0  0  0  0  3  0  0  0  0  0  0
  180.8530  181.3100  135.5230 C   0  0  0  0  0  3  0  0  0  0  0  0
  180.1190  183.0060  137.6240 C   0  0  0  0  0  3  0  0  0  0  0  0
  181.3920  178.4590  140.7690 C   0  0  2  0  0  3  0  0  0  0  0  0
  180.9420  178.9520  142.1260 C   0  0  0  0  0  0  0  0  0  0  0  0
  180.5020  178.0530  143.0990 O   0  0  0  0  0  1  0  0  0  0  0  0
  180.9140  180.1900  142.3760 O   0  0  0  0  0  0  0  0  0  0  0  0
  183.5670  177.6210  141.3570 O   0  0  0  0  0  1  0  0  0  0  0  0
  182.9040  178.5990  140.6130 C   0  0  0  0  0  2  0  0  0  0  0  0
  191.5580  174.9500  137.4810 N   0  0  0  0  0  0  0  0  0  0  0  0
  190.4260  175.7100  137.2460 C   0  0  0  0  0  0  0  0  0  0  0  0
  189.7120  176.9390  137.3850 N   0  0  0  0  0  2  0  0  0  0  0  0
  190.4810  174.4440  136.7950 N   0  0  0  0  0  0  0  0  0  0  0  0
  192.8330  174.7750  138.0370 N   0  0  0  0  0  2  0  0  0  0  0  0
  193.4560  176.0940  138.1360 C   0  0  0  0  0  2  0  0  0  0  0  0
  192.9820  176.8120  139.3280 C   0  0  0  0  0  0  0  0  0  0  0  0
  192.5760  177.3670  140.3210 C   0  0  0  0  0  0  0  0  0  0  0  0
  192.0860  177.9820  141.4820 N   0  0  0  0  0  2  0  0  0  0  0  0
  191.0700  177.4310  142.2940 N   0  0  0  0  0  0  0  0  0  0  0  0
  191.0670  176.4000  146.4220 C   0  0  0  0  0  0  0  0  0  0  0  0
  190.6560  177.6210  146.0620 C   0  0  0  0  0  3  0  0  0  0  0  0
  191.0810  178.2200  144.7420 C   0  0  0  0  0  2  0  0  0  0  0  0
  190.7060  175.8980  147.6310 F   0  0  0  0  0  0  0  0  0  0  0  0
  191.2830  177.1520  143.6830 C   0  0  0  0  0  0  0  0  0  0  0  0
  191.6740  175.9260  144.0700 C   0  0  0  0  0  3  0  0  0  0  0  0
  191.9630  175.6020  145.5100 C   0  0  0  0  0  2  0  0  0  0  0  0
  189.8480  176.9380  141.6440 C   0  0  0  0  0  2  0  0  0  0  0  0
  188.7460  177.7410  142.0350 O   0  0  0  0  0  0  0  0  0  0  0  0
  187.8720  176.1180  143.4250 O   0  0  0  0  0  0  0  0  0  0  0  0
  187.7720  177.2740  142.9250 C   0  0  0  0  0  0  0  0  0  0  0  0
  186.3030  179.1690  142.5040 C   0  0  0  0  0  2  0  0  0  0  0  0
  186.6110  178.1180  143.2530 C   0  0  0  0  0  0  0  0  0  0  0  0
  185.6810  177.7280  144.3520 C   0  0  0  0  0  1  0  0  0  0  0  0
  186.5190  177.5000  139.4080 C   0  0  0  0  0  1  0  0  0  0  0  0
  187.1000  178.1260  138.3090 O   0  0  0  0  0  0  0  0  0  0  0  0
  1  5  2  0  0  0  0
  1  4  1  0  0  0  0
  2 58  1  1  0  0  0
  3  2  1  0  0  0  0
  3 35  1  0  0  0  0
  4  3  2  0  0  0  0
  5  6  1  0  0  0  0
  6 12  1  0  0  0  0
  6  2  1  0  0  0  0
  7  9  2  0  0  0  0
  7 12  1  0  0  0  0
  8 10  2  0  0  0  0
  9  8  1  0  0  0  0
 11 10  1  0  0  0  0
 12 11  2  0  0  0  0
 13  9  1  0  0  0  0
 13 14  1  0  0  0  0
 14 17  1  6  0  0  0
 14 20  1  0  0  0  0
 14 15  1  0  0  0  0
 15 18  1  0  0  0  0
 16 27  1  0  0  0  0
 18 16  1  0  0  0  0
 19 16  1  0  0  0  0
 20 22  1  1  0  0  0
 20 19  1  0  0  0  0
 22 21  2  0  0  0  0
 23 26  2  0  0  0  0
 24 25  2  0  0  0  0
 24 23  1  0  0  0  0
 25 22  1  0  0  0  0
 26 21  1  0  0  0  0
 27 32  1  6  0  0  0
 27 28  1  0  0  0  0
 28 30  2  0  0  0  0
 28 29  1  0  0  0  0
 32 31  1  0  0  0  0
 33 37  1  0  0  0  0
 34 35  1  0  0  0  0
 34 33  1  0  0  0  0
 36 34  2  0  0  0  0
 36 33  1  0  0  0  0
 37 38  1  0  0  0  0
 38 39  1  0  0  0  0
 39 40  3  0  0  0  0
 40 41  1  0  0  0  0
 41 42  1  0  0  0  0
 42 47  1  0  0  0  0
 43 46  1  0  0  0  0
 44 43  2  0  0  0  0
 45 44  1  0  0  0  0
 47 48  2  0  0  0  0
 47 45  1  0  0  0  0
 48 49  1  0  0  0  0
 49 43  1  0  0  0  0
 50 51  1  0  0  0  0
 50 42  1  0  0  0  0
 51 53  1  0  0  0  0
 53 55  1  0  0  0  0
 53 52  2  0  0  0  0
 54 55  2  0  0  0  0
 55 56  1  0  0  0  0
 58 57  1  0  0  0  0
M  END
>  <MODEL>
3

>  <REMARK>
 VINA RESULT:      -6.0      2.761      5.341
  Name = 
  19 active torsions:
  status: ('A' for Active; 'I' for Inactive)
    1  A    between atoms: C_4  and  S_14
    2  A    between atoms: N_5  and  N_56
    3  A    between atoms: C_8  and  O_37
    4  A    between atoms: S_14  and  C_27
    5  A    between atoms: C_17  and  N_23
    6  A    between atoms: C_18  and  C_19
    7  A    between atoms: C_19  and  N_56
    8  A    between atoms: C_20  and  C_43
    9  A    between atoms: N_21  and  C_30
   10  A    between atoms: C_25  and  C_49
   11  A    between atoms: C_29  and  N_48
   12  A    between atoms: C_30  and  C_31
   13  A    between atoms: C_30  and  C_40
   14  A    between atoms: N_35  and  C_47
   15  A    between atoms: N_35  and  N_48
   16  A    between atoms: N_45  and  C_55
   17  A    between atoms: C_46  and  N_48
   18  A    between atoms: C_46  and  O_54
   19  A    between atoms: C_49  and  O_54
                            x       y       z     vdW  Elec       q    Type
                         _______ _______ _______ _____ _____    ______ ____

>  <TORSDO>
F 19

$$$$
=
 OpenBabel10222418033D

 58 63  0  0  1  0  0  0  0  0999 V2000
  180.8310  180.3850  137.0460 N   0  0  0  0  0  0  0  0  0  0  0  0
  180.5240  178.1620  138.8100 C   0  0  2  0  0  3  0  0  0  0  0  0
  180.9500  179.5240  139.3070 C   0  0  0  0  0  0  0  0  0  0  0  0
  181.0590  180.5500  138.4510 C   0  0  0  0  0  3  0  0  0  0  0  0
  180.6150  179.2200  136.5200 C   0  0  0  0  0  3  0  0  0  0  0  0
  180.5760  178.0400  137.3350 N   0  0  0  0  0  0  0  0  0  0  0  0
  181.5950  175.7970  137.0360 C   0  0  0  0  0  3  0  0  0  0  0  0
  180.6880  174.2340  135.4310 C   0  0  0  0  0  3  0  0  0  0  0  0
  181.6300  174.5480  136.4110 C   0  0  0  0  0  0  0  0  0  0  0  0
  179.7000  175.1590  135.0960 C   0  0  0  0  0  3  0  0  0  0  0  0
  179.6600  176.4020  135.7310 C   0  0  0  0  0  3  0  0  0  0  0  0
  180.6100  176.7450  136.7050 C   0  0  0  0  0  0  0  0  0  0  0  0
  182.9420  173.3780  136.7740 S   0  0  0  0  0  0  0  0  0  0  0  0
  184.2740  174.1350  135.7710 C   0  0  2  0  0  0  0  0  0  0  0  0
  183.8900  175.5760  135.4190 C   0  0  0  0  0  2  0  0  0  0  0  0
  186.1500  176.4880  136.0450 N   0  0  0  0  0  0  0  0  0  0  0  0
  184.4340  173.4010  134.5940 O   0  0  0  0  0  1  0  0  0  0  0  0
  185.1380  176.3400  134.9750 C   0  0  0  0  0  2  0  0  0  0  0  0
  186.0270  175.4910  137.1250 C   0  0  0  0  0  2  0  0  0  0  0  0
  185.5770  174.1080  136.6220 C   0  0  2  0  0  3  0  0  0  0  0  0
  187.8000  173.8710  135.4800 C   0  0  0  0  0  3  0  0  0  0  0  0
  186.7010  173.2460  136.0910 C   0  0  0  0  0  0  0  0  0  0  0  0
  188.8630  171.7150  135.1860 C   0  0  0  0  0  3  0  0  0  0  0  0
  187.7780  171.0910  135.8090 C   0  0  0  0  0  3  0  0  0  0  0  0
  186.7070  171.8550  136.2670 C   0  0  0  0  0  3  0  0  0  0  0  0
  188.8800  173.1080  135.0260 C   0  0  0  0  0  3  0  0  0  0  0  0
  186.1680  177.8020  136.7140 C   0  0  2  0  0  3  0  0  0  0  0  0
  187.4990  178.5170  136.7410 C   0  0  0  0  0  0  0  0  0  0  0  0
  188.6740  177.8220  137.0370 O   0  0  0  0  0  1  0  0  0  0  0  0
  187.5570  179.7640  136.5450 O   0  0  0  0  0  0  0  0  0  0  0  0
  186.2670  178.5200  139.0060 O   0  0  0  0  0  1  0  0  0  0  0  0
  185.5830  177.6860  138.1190 C   0  0  0  0  0  2  0  0  0  0  0  0
  182.9900  179.1060  142.5900 N   0  0  0  0  0  0  0  0  0  0  0  0
  182.2220  179.1640  141.4410 C   0  0  0  0  0  0  0  0  0  0  0  0
  181.1250  179.7210  140.7150 N   0  0  0  0  0  2  0  0  0  0  0  0
  183.2560  178.3070  141.5060 N   0  0  0  0  0  0  0  0  0  0  0  0
  183.2780  179.5040  143.9030 N   0  0  0  0  0  2  0  0  0  0  0  0
  183.6140  178.3020  144.6660 C   0  0  0  0  0  2  0  0  0  0  0  0
  185.0140  178.3370  145.1140 C   0  0  0  0  0  0  0  0  0  0  0  0
  186.1510  178.3760  145.5180 C   0  0  0  0  0  0  0  0  0  0  0  0
  187.4600  178.4370  146.0200 N   0  0  0  0  0  2  0  0  0  0  0  0
  188.5990  178.0280  145.2920 N   0  0  0  0  0  0  0  0  0  0  0  0
  191.8420  176.0190  147.1770 C   0  0  0  0  0  0  0  0  0  0  0  0
  191.9750  176.4040  145.9030 C   0  0  0  0  0  3  0  0  0  0  0  0
  190.7600  176.6550  145.0420 C   0  0  0  0  0  2  0  0  0  0  0  0
  192.9480  175.7600  147.9210 F   0  0  0  0  0  0  0  0  0  0  0  0
  189.5880  177.1630  145.8620 C   0  0  0  0  0  0  0  0  0  0  0  0
  189.4880  176.7820  147.1470 C   0  0  0  0  0  3  0  0  0  0  0  0
  190.4710  175.8310  147.7730 C   0  0  0  0  0  2  0  0  0  0  0  0
  188.8770  178.6810  144.0050 C   0  0  0  0  0  2  0  0  0  0  0  0
  188.1780  178.0080  142.9700 O   0  0  0  0  0  0  0  0  0  0  0  0
  188.4230  175.7670  142.4700 O   0  0  0  0  0  0  0  0  0  0  0  0
  188.7620  176.9630  142.2450 C   0  0  0  0  0  0  0  0  0  0  0  0
  189.4760  177.4270  139.9640 C   0  0  0  0  0  2  0  0  0  0  0  0
  189.7980  177.2550  141.2400 C   0  0  0  0  0  0  0  0  0  0  0  0
  191.2090  177.4990  141.6590 C   0  0  0  0  0  1  0  0  0  0  0  0
  179.2010  176.5280  139.5340 C   0  0  0  0  0  1  0  0  0  0  0  0
  179.2230  177.8920  139.2570 O   0  0  0  0  0  0  0  0  0  0  0  0
  1  4  1  0  0  0  0
  2 58  1  6  0  0  0
  2  3  1  0  0  0  0
  3 35  1  0  0  0  0
  4  3  2  0  0  0  0
  5  1  2  0  0  0  0
  5  6  1  0  0  0  0
  6  2  1  0  0  0  0
  8  9  1  0  0  0  0
  9 13  1  0  0  0  0
  9  7  2  0  0  0  0
 10  8  2  0  0  0  0
 10 11  1  0  0  0  0
 11 12  2  0  0  0  0
 12  7  1  0  0  0  0
 12  6  1  0  0  0  0
 14 17  1  6  0  0  0
 14 20  1  0  0  0  0
 14 13  1  0  0  0  0
 15 14  1  0  0  0  0
 16 27  1  0  0  0  0
 16 19  1  0  0  0  0
 18 15  1  0  0  0  0
 18 16  1  0  0  0  0
 20 22  1  6  0  0  0
 20 19  1  0  0  0  0
 21 22  1  0  0  0  0
 22 25  2  0  0  0  0
 23 24  2  0  0  0  0
 24 25  1  0  0  0  0
 26 23  1  0  0  0  0
 26 21  2  0  0  0  0
 27 28  1  0  0  0  0
 27 32  1  1  0  0  0
 28 29  1  0  0  0  0
 30 28  2  0  0  0  0
 32 31  1  0  0  0  0
 33 37  1  0  0  0  0
 34 36  2  0  0  0  0
 34 33  1  0  0  0  0
 35 34  1  0  0  0  0
 36 33  1  0  0  0  0
 37 38  1  0  0  0  0
 38 39  1  0  0  0  0
 39 40  3  0  0  0  0
 40 41  1  0  0  0  0
 42 47  1  0  0  0  0
 42 41  1  0  0  0  0
 43 49  1  0  0  0  0
 43 46  1  0  0  0  0
 44 43  2  0  0  0  0
 45 47  1  0  0  0  0
 45 44  1  0  0  0  0
 47 48  2  0  0  0  0
 48 49  1  0  0  0  0
 50 42  1  0  0  0  0
 51 50  1  0  0  0  0
 53 52  2  0  0  0  0
 53 51  1  0  0  0  0
 54 55  2  0  0  0  0
 55 56  1  0  0  0  0
 55 53  1  0  0  0  0
 58 57  1  0  0  0  0
M  END
>  <MODEL>
4

>  <REMARK>
 VINA RESULT:      -5.9      3.120      7.316
  Name = 
  19 active torsions:
  status: ('A' for Active; 'I' for Inactive)
    1  A    between atoms: C_4  and  S_14
    2  A    between atoms: N_5  and  N_56
    3  A    between atoms: C_8  and  O_37
    4  A    between atoms: S_14  and  C_27
    5  A    between atoms: C_17  and  N_23
    6  A    between atoms: C_18  and  C_19
    7  A    between atoms: C_19  and  N_56
    8  A    between atoms: C_20  and  C_43
    9  A    between atoms: N_21  and  C_30
   10  A    between atoms: C_25  and  C_49
   11  A    between atoms: C_29  and  N_48
   12  A    between atoms: C_30  and  C_31
   13  A    between atoms: C_30  and  C_40
   14  A    between atoms: N_35  and  C_47
   15  A    between atoms: N_35  and  N_48
   16  A    between atoms: N_45  and  C_55
   17  A    between atoms: C_46  and  N_48
   18  A    between atoms: C_46  and  O_54
   19  A    between atoms: C_49  and  O_54
                            x       y       z     vdW  Elec       q    Type
                         _______ _______ _______ _____ _____    ______ ____

>  <TORSDO>
F 19

$$$$
=
 OpenBabel10222418033D

 58 63  0  0  1  0  0  0  0  0999 V2000
  184.9120  179.3580  140.6370 N   0  0  0  0  0  0  0  0  0  0  0  0
  182.7030  178.6810  142.3130 C   0  0  2  0  0  3  0  0  0  0  0  0
  184.0840  178.9320  142.8730 C   0  0  0  0  0  0  0  0  0  0  0  0
  185.0920  179.2720  142.0560 C   0  0  0  0  0  3  0  0  0  0  0  0
  183.8030  179.0080  140.0640 C   0  0  0  0  0  3  0  0  0  0  0  0
  182.6920  178.5350  140.8390 N   0  0  0  0  0  0  0  0  0  0  0  0
  181.3490  178.0960  138.7990 C   0  0  0  0  0  3  0  0  0  0  0  0
  179.3880  176.6860  138.8920 C   0  0  0  0  0  3  0  0  0  0  0  0
  180.2650  177.4890  138.1610 C   0  0  0  0  0  0  0  0  0  0  0  0
  179.6120  176.4750  140.2520 C   0  0  0  0  0  3  0  0  0  0  0  0
  180.7020  177.0740  140.8840 C   0  0  0  0  0  3  0  0  0  0  0  0
  181.5850  177.9000  140.1720 C   0  0  0  0  0  0  0  0  0  0  0  0
  179.9200  177.8150  136.4300 S   0  0  0  0  0  0  0  0  0  0  0  0
  180.9710  176.5120  135.6880 C   0  0  2  0  0  0  0  0  0  0  0  0
  182.0770  177.1640  134.8510 C   0  0  0  0  0  2  0  0  0  0  0  0
  183.8800  175.7050  135.8280 N   0  0  0  0  0  0  0  0  0  0  0  0
  180.1860  175.7040  134.8620 O   0  0  0  0  0  1  0  0  0  0  0  0
  183.1880  176.1450  134.5950 C   0  0  0  0  0  2  0  0  0  0  0  0
  183.0930  175.9070  137.0580 C   0  0  0  0  0  2  0  0  0  0  0  0
  181.5840  175.6820  136.8540 C   0  0  2  0  0  3  0  0  0  0  0  0
  179.8010  173.9180  136.7410 C   0  0  0  0  0  3  0  0  0  0  0  0
  181.1560  174.2330  136.9360 C   0  0  0  0  0  0  0  0  0  0  0  0
  180.3160  171.5630  136.9670 C   0  0  0  0  0  3  0  0  0  0  0  0
  181.6680  171.8720  137.1450 C   0  0  0  0  0  3  0  0  0  0  0  0
  182.0860  173.2010  137.1200 C   0  0  0  0  0  3  0  0  0  0  0  0
  179.3800  172.5840  136.7580 C   0  0  0  0  0  3  0  0  0  0  0  0
  185.1830  176.3480  136.0780 C   0  0  2  0  0  3  0  0  0  0  0  0
  186.3980  175.4560  135.9640 C   0  0  0  0  0  0  0  0  0  0  0  0
  186.2640  174.1150  135.5960 O   0  0  0  0  0  0  0  0  0  0  0  0
  187.5450  175.9020  136.2480 O   0  0  0  0  0  1  0  0  0  0  0  0
  185.9170  178.2480  137.3550 O   0  0  0  0  0  1  0  0  0  0  0  0
  185.1650  177.0730  137.4210 C   0  0  0  0  0  2  0  0  0  0  0  0
  186.0420  177.8430  146.0500 N   0  0  0  0  0  0  0  0  0  0  0  0
  185.2940  178.1430  144.9260 C   0  0  0  0  0  0  0  0  0  0  0  0
  184.2670  178.9080  144.2930 N   0  0  0  0  0  2  0  0  0  0  0  0
  186.2330  177.1830  144.8620 N   0  0  0  0  0  0  0  0  0  0  0  0
  186.3600  178.0190  147.4050 N   0  0  0  0  0  2  0  0  0  0  0  0
  187.8050  177.8470  147.5460 C   0  0  0  0  0  2  0  0  0  0  0  0
  188.4970  178.1490  146.2840 C   0  0  0  0  0  0  0  0  0  0  0  0
  189.0680  178.3580  145.2400 C   0  0  0  0  0  0  0  0  0  0  0  0
  189.7370  178.5640  144.0250 N   0  0  0  0  0  2  0  0  0  0  0  0
  190.2060  177.5190  143.1990 N   0  0  0  0  0  0  0  0  0  0  0  0
  190.0570  177.2410  138.9560 C   0  0  0  0  0  0  0  0  0  0  0  0
  191.1650  176.8420  139.5900 C   0  0  0  0  0  3  0  0  0  0  0  0
  191.4870  177.3510  140.9750 C   0  0  0  0  0  2  0  0  0  0  0  0
  189.8080  176.8020  137.6950 F   0  0  0  0  0  0  0  0  0  0  0  0
  190.2280  177.6390  141.7720 C   0  0  0  0  0  0  0  0  0  0  0  0
  189.1190  178.0140  141.1120 C   0  0  0  0  0  3  0  0  0  0  0  0
  189.1100  178.2060  139.6200 C   0  0  0  0  0  2  0  0  0  0  0  0
  190.4720  176.2100  143.8120 C   0  0  0  0  0  2  0  0  0  0  0  0
  191.7490  176.2240  144.4280 O   0  0  0  0  0  0  0  0  0  0  0  0
  192.3710  174.1740  145.2880 O   0  0  0  0  0  0  0  0  0  0  0  0
  192.0600  175.3800  145.5000 C   0  0  0  0  0  0  0  0  0  0  0  0
  191.0160  176.7080  147.2540 C   0  0  0  0  0  2  0  0  0  0  0  0
  191.9910  175.8880  146.8810 C   0  0  0  0  0  0  0  0  0  0  0  0
  192.9360  175.3830  147.9190 C   0  0  0  0  0  1  0  0  0  0  0  0
  180.8970  179.1620  143.5190 C   0  0  0  0  0  1  0  0  0  0  0  0
  181.8550  179.7330  142.6850 O   0  0  0  0  0  0  0  0  0  0  0  0
  1  4  1  0  0  0  0
  2 58  1  6  0  0  0
  2  3  1  0  0  0  0
  3 35  1  0  0  0  0
  4  3  2  0  0  0  0
  5  1  2  0  0  0  0
  5  6  1  0  0  0  0
  6  2  1  0  0  0  0
  7 12  1  0  0  0  0
  8 10  2  0  0  0  0
  9  7  2  0  0  0  0
  9  8  1  0  0  0  0
 10 11  1  0  0  0  0
 12  6  1  0  0  0  0
 12 11  2  0  0  0  0
 13  9  1  0  0  0  0
 14 17  1  6  0  0  0
 14 13  1  0  0  0  0
 14 20  1  0  0  0  0
 15 14  1  0  0  0  0
 16 27  1  0  0  0  0
 16 19  1  0  0  0  0
 18 15  1  0  0  0  0
 18 16  1  0  0  0  0
 20 22  1  6  0  0  0
 20 19  1  0  0  0  0
 21 26  2  0  0  0  0
 21 22  1  0  0  0  0
 22 25  2  0  0  0  0
 23 24  2  0  0  0  0
 25 24  1  0  0  0  0
 26 23  1  0  0  0  0
 27 32  1  1  0  0  0
 28 27  1  0  0  0  0
 28 30  1  0  0  0  0
 29 28  2  0  0  0  0
 31 32  1  0  0  0  0
 33 37  1  0  0  0  0
 34 33  1  0  0  0  0
 35 34  1  0  0  0  0
 36 34  2  0  0  0  0
 36 33  1  0  0  0  0
 37 38  1  0  0  0  0
 39 38  1  0  0  0  0
 40 39  3  0  0  0  0
 41 40  1  0  0  0  0
 42 50  1  0  0  0  0
 42 41  1  0  0  0  0
 43 44  2  0  0  0  0
 43 49  1  0  0  0  0
 44 45  1  0  0  0  0
 45 47  1  0  0  0  0
 46 43  1  0  0  0  0
 47 42  1  0  0  0  0
 48 47  2  0  0  0  0
 49 48  1  0  0  0  0
 50 51  1  0  0  0  0
 51 53  1  0  0  0  0
 52 53  2  0  0  0  0
 53 55  1  0  0  0  0
 55 54  2  0  0  0  0
 55 56  1  0  0  0  0
 58 57  1  0  0  0  0
M  END
>  <MODEL>
5

>  <REMARK>
 VINA RESULT:      -5.9      2.937      6.304
  Name = 
  19 active torsions:
  status: ('A' for Active; 'I' for Inactive)
    1  A    between atoms: C_4  and  S_14
    2  A    between atoms: N_5  and  N_56
    3  A    between atoms: C_8  and  O_37
    4  A    between atoms: S_14  and  C_27
    5  A    between atoms: C_17  and  N_23
    6  A    between atoms: C_18  and  C_19
    7  A    between atoms: C_19  and  N_56
    8  A    between atoms: C_20  and  C_43
    9  A    between atoms: N_21  and  C_30
   10  A    between atoms: C_25  and  C_49
   11  A    between atoms: C_29  and  N_48
   12  A    between atoms: C_30  and  C_31
   13  A    between atoms: C_30  and  C_40
   14  A    between atoms: N_35  and  C_47
   15  A    between atoms: N_35  and  N_48
   16  A    between atoms: N_45  and  C_55
   17  A    between atoms: C_46  and  N_48
   18  A    between atoms: C_46  and  O_54
   19  A    between atoms: C_49  and  O_54
                            x       y       z     vdW  Elec       q    Type
                         _______ _______ _______ _____ _____    ______ ____

>  <TORSDO>
F 19

$$$$
=
 OpenBabel10222418033D

 58 63  0  0  1  0  0  0  0  0999 V2000
  181.4860  180.1580  137.5740 N   0  0  0  0  0  0  0  0  0  0  0  0
  182.1190  177.8190  139.0810 C   0  0  2  0  0  3  0  0  0  0  0  0
  182.3930  179.2090  139.6090 C   0  0  0  0  0  0  0  0  0  0  0  0
  182.0580  180.2840  138.8810 C   0  0  0  0  0  3  0  0  0  0  0  0
  181.3640  179.0090  136.9870 C   0  0  0  0  0  3  0  0  0  0  0  0
  181.7830  177.8020  137.6390 N   0  0  0  0  0  0  0  0  0  0  0  0
  182.8530  175.6090  137.1880 C   0  0  0  0  0  3  0  0  0  0  0  0
  182.1230  174.2370  135.3370 C   0  0  0  0  0  3  0  0  0  0  0  0
  182.9630  174.4390  136.4330 C   0  0  0  0  0  0  0  0  0  0  0  0
  181.1610  175.1930  135.0160 C   0  0  0  0  0  3  0  0  0  0  0  0
  181.0460  176.3550  135.7800 C   0  0  0  0  0  3  0  0  0  0  0  0
  181.8930  176.5870  136.8740 C   0  0  0  0  0  0  0  0  0  0  0  0
  184.2490  173.2360  136.7870 S   0  0  0  0  0  0  0  0  0  0  0  0
  185.6060  173.9890  135.8140 C   0  0  2  0  0  0  0  0  0  0  0  0
  185.2630  175.4500  135.5050 C   0  0  0  0  0  2  0  0  0  0  0  0
  187.5430  176.2800  136.1710 N   0  0  0  0  0  0  0  0  0  0  0  0
  185.7540  173.2870  134.6150 O   0  0  0  0  0  1  0  0  0  0  0  0
  186.5330  176.1940  135.0920 C   0  0  0  0  0  2  0  0  0  0  0  0
  187.3870  175.2550  137.2190 C   0  0  0  0  0  2  0  0  0  0  0  0
  186.9030  173.9000  136.6710 C   0  0  2  0  0  3  0  0  0  0  0  0
  187.8190  171.6330  136.1020 C   0  0  0  0  0  3  0  0  0  0  0  0
  188.0070  173.0250  136.1190 C   0  0  0  0  0  0  0  0  0  0  0  0
  189.9640  171.3570  135.0110 C   0  0  0  0  0  3  0  0  0  0  0  0
  190.1450  172.7430  135.0110 C   0  0  0  0  0  3  0  0  0  0  0  0
  189.1670  173.5720  135.5550 C   0  0  0  0  0  3  0  0  0  0  0  0
  188.7970  170.7990  135.5510 C   0  0  0  0  0  3  0  0  0  0  0  0
  187.5920  177.5720  136.8800 C   0  0  2  0  0  3  0  0  0  0  0  0
  188.9320  177.9630  137.4600 C   0  0  0  0  0  0  0  0  0  0  0  0
  189.9210  177.0010  137.6760 O   0  0  0  0  0  0  0  0  0  0  0  0
  189.1540  179.1590  137.8030 O   0  0  0  0  0  1  0  0  0  0  0  0
  186.9910  178.2010  139.1220 O   0  0  0  0  0  1  0  0  0  0  0  0
  186.5000  177.6300  137.9450 C   0  0  0  0  0  2  0  0  0  0  0  0
  182.0100  178.9680  143.4700 N   0  0  0  0  0  0  0  0  0  0  0  0
  182.1080  179.1480  142.1020 C   0  0  0  0  0  0  0  0  0  0  0  0
  182.9090  179.3530  140.9370 N   0  0  0  0  0  2  0  0  0  0  0  0
  180.8980  178.9960  142.6670 N   0  0  0  0  0  0  0  0  0  0  0  0
  182.5840  178.8740  144.7470 N   0  0  0  0  0  2  0  0  0  0  0  0
  183.8350  179.6310  144.7250 C   0  0  0  0  0  2  0  0  0  0  0  0
  184.9090  178.8910  145.4040 C   0  0  0  0  0  0  0  0  0  0  0  0
  185.7820  178.2510  145.9400 C   0  0  0  0  0  0  0  0  0  0  0  0
  186.7810  177.4770  146.5480 N   0  0  0  0  0  2  0  0  0  0  0  0
  188.1570  177.5980  146.2530 N   0  0  0  0  0  0  0  0  0  0  0  0
  189.1120  177.6580  142.1060 C   0  0  0  0  0  0  0  0  0  0  0  0
  188.2500  176.7390  142.5560 C   0  0  0  0  0  3  0  0  0  0  0  0
  188.2420  176.3360  144.0130 C   0  0  0  0  0  2  0  0  0  0  0  0
  189.1280  177.9740  140.7860 F   0  0  0  0  0  0  0  0  0  0  0  0
  188.6520  177.4870  144.9130 C   0  0  0  0  0  0  0  0  0  0  0  0
  189.5000  178.4120  144.4310 C   0  0  0  0  0  3  0  0  0  0  0  0
  190.0890  178.3070  143.0510 C   0  0  0  0  0  2  0  0  0  0  0  0
  189.1120  177.6200  147.3690 C   0  0  0  0  0  2  0  0  0  0  0  0
  190.3960  177.2420  146.9020 O   0  0  0  0  0  0  0  0  0  0  0  0
  191.7200  177.9830  148.6430 O   0  0  0  0  0  0  0  0  0  0  0  0
  191.4840  177.1000  147.7710 C   0  0  0  0  0  0  0  0  0  0  0  0
  193.1040  175.5250  148.6790 C   0  0  0  0  0  2  0  0  0  0  0  0
  192.3760  175.9340  147.6480 C   0  0  0  0  0  0  0  0  0  0  0  0
  192.3740  175.1110  146.4040 C   0  0  0  0  0  1  0  0  0  0  0  0
  181.6390  176.1690  140.4930 C   0  0  0  0  0  1  0  0  0  0  0  0
  181.0720  177.2440  139.8130 O   0  0  0  0  0  0  0  0  0  0  0  0
  1  4  1  0  0  0  0
  2  3  1  0  0  0  0
  2 58  1  1  0  0  0
  3 35  1  0  0  0  0
  4  3  2  0  0  0  0
  5  1  2  0  0  0  0
  5  6  1  0  0  0  0
  6  2  1  0  0  0  0
  8  9  1  0  0  0  0
  9 13  1  0  0  0  0
  9  7  2  0  0  0  0
 10  8  2  0  0  0  0
 10 11  1  0  0  0  0
 11 12  2  0  0  0  0
 12  7  1  0  0  0  0
 12  6  1  0  0  0  0
 14 17  1  6  0  0  0
 14 20  1  0  0  0  0
 14 13  1  0  0  0  0
 15 14  1  0  0  0  0
 16 27  1  0  0  0  0
 16 19  1  0  0  0  0
 18 15  1  0  0  0  0
 18 16  1  0  0  0  0
 20 22  1  6  0  0  0
 20 19  1  0  0  0  0
 21 22  1  0  0  0  0
 23 26  1  0  0  0  0
 24 23  2  0  0  0  0
 24 25  1  0  0  0  0
 25 22  2  0  0  0  0
 26 21  2  0  0  0  0
 27 28  1  0  0  0  0
 27 32  1  1  0  0  0
 28 29  2  0  0  0  0
 28 30  1  0  0  0  0
 32 31  1  0  0  0  0
 33 37  1  0  0  0  0
 34 36  2  0  0  0  0
 34 33  1  0  0  0  0
 35 34  1  0  0  0  0
 36 33  1  0  0  0  0
 38 37  1  0  0  0  0
 38 39  1  0  0  0  0
 39 40  3  0  0  0  0
 40 41  1  0  0  0  0
 42 41  1  0  0  0  0
 42 50  1  0  0  0  0
 43 44  2  0  0  0  0
 43 49  1  0  0  0  0
 44 45  1  0  0  0  0
 45 47  1  0  0  0  0
 46 43  1  0  0  0  0
 47 42  1  0  0  0  0
 48 47  2  0  0  0  0
 49 48  1  0  0  0  0
 51 50  1  0  0  0  0
 51 53  1  0  0  0  0
 53 52  2  0  0  0  0
 55 53  1  0  0  0  0
 55 54  2  0  0  0  0
 56 55  1  0  0  0  0
 58 57  1  0  0  0  0
M  END
>  <MODEL>
6

>  <REMARK>
 VINA RESULT:      -5.8      2.893      7.046
  Name = 
  19 active torsions:
  status: ('A' for Active; 'I' for Inactive)
    1  A    between atoms: C_4  and  S_14
    2  A    between atoms: N_5  and  N_56
    3  A    between atoms: C_8  and  O_37
    4  A    between atoms: S_14  and  C_27
    5  A    between atoms: C_17  and  N_23
    6  A    between atoms: C_18  and  C_19
    7  A    between atoms: C_19  and  N_56
    8  A    between atoms: C_20  and  C_43
    9  A    between atoms: N_21  and  C_30
   10  A    between atoms: C_25  and  C_49
   11  A    between atoms: C_29  and  N_48
   12  A    between atoms: C_30  and  C_31
   13  A    between atoms: C_30  and  C_40
   14  A    between atoms: N_35  and  C_47
   15  A    between atoms: N_35  and  N_48
   16  A    between atoms: N_45  and  C_55
   17  A    between atoms: C_46  and  N_48
   18  A    between atoms: C_46  and  O_54
   19  A    between atoms: C_49  and  O_54
                            x       y       z     vdW  Elec       q    Type
                         _______ _______ _______ _____ _____    ______ ____

>  <TORSDO>
F 19

$$$$
=
 OpenBabel10222418033D

 58 63  0  0  1  0  0  0  0  0999 V2000
  191.7530  176.8410  137.8180 N   0  0  0  0  0  0  0  0  0  0  0  0
  189.1850  176.6010  139.0410 C   0  0  2  0  0  3  0  0  0  0  0  0
  190.4590  176.6360  139.8550 C   0  0  0  0  0  0  0  0  0  0  0  0
  191.6450  176.7750  139.2450 C   0  0  0  0  0  3  0  0  0  0  0  0
  190.7280  176.6630  137.0440 C   0  0  0  0  0  3  0  0  0  0  0  0
  189.4270  176.4080  137.5930 N   0  0  0  0  0  0  0  0  0  0  0  0
  187.2010  176.6970  136.5360 C   0  0  0  0  0  3  0  0  0  0  0  0
  186.3050  175.0020  135.0640 C   0  0  0  0  0  3  0  0  0  0  0  0
  186.1770  176.2350  135.7050 C   0  0  0  0  0  0  0  0  0  0  0  0
  187.4640  174.2470  135.2370 C   0  0  0  0  0  3  0  0  0  0  0  0
  188.4900  174.7170  136.0580 C   0  0  0  0  0  3  0  0  0  0  0  0
  188.3740  175.9450  136.7270 C   0  0  0  0  0  0  0  0  0  0  0  0
  184.6470  177.1590  135.5350 S   0  0  0  0  0  0  0  0  0  0  0  0
  183.7040  176.3840  136.9010 C   0  0  2  0  0  0  0  0  0  0  0  0
  183.1260  177.4770  137.8060 C   0  0  0  0  0  2  0  0  0  0  0  0
  180.8450  176.4170  137.8790 N   0  0  0  0  0  0  0  0  0  0  0  0
  184.5620  175.5740  137.6480 O   0  0  0  0  0  1  0  0  0  0  0  0
  182.0080  176.8870  138.6650 C   0  0  0  0  0  2  0  0  0  0  0  0
  181.1560  176.1330  136.4660 C   0  0  0  0  0  2  0  0  0  0  0  0
  182.5620  175.5400  136.2630 C   0  0  2  0  0  3  0  0  0  0  0  0
  181.4520  173.2960  136.4550 C   0  0  0  0  0  3  0  0  0  0  0  0
  182.6410  174.0440  136.4770 C   0  0  0  0  0  0  0  0  0  0  0  0
  182.7280  171.2600  136.7570 C   0  0  0  0  0  3  0  0  0  0  0  0
  183.9140  172.0000  136.7630 C   0  0  0  0  0  3  0  0  0  0  0  0
  183.8700  173.3850  136.6150 C   0  0  0  0  0  3  0  0  0  0  0  0
  181.4940  171.9060  136.5960 C   0  0  0  0  0  3  0  0  0  0  0  0
  179.6920  177.3350  137.8580 C   0  0  2  0  0  3  0  0  0  0  0  0
  179.9810  178.7570  137.4350 C   0  0  0  0  0  0  0  0  0  0  0  0
  180.4730  179.6870  138.3530 O   0  0  0  0  0  1  0  0  0  0  0  0
  179.7340  179.1330  136.2540 O   0  0  0  0  0  0  0  0  0  0  0  0
  179.6570  176.4970  140.1110 O   0  0  0  0  0  1  0  0  0  0  0  0
  178.9680  177.3030  139.2020 C   0  0  0  0  0  2  0  0  0  0  0  0
  191.6090  177.8570  143.3620 N   0  0  0  0  0  0  0  0  0  0  0  0
  191.2720  177.3510  142.1190 C   0  0  0  0  0  0  0  0  0  0  0  0
  190.3640  176.6300  141.2840 N   0  0  0  0  0  2  0  0  0  0  0  0
  192.4250  178.0240  142.2710 N   0  0  0  0  0  0  0  0  0  0  0  0
  191.3600  178.0380  144.7300 N   0  0  0  0  0  2  0  0  0  0  0  0
  190.4020  177.0130  145.1430 C   0  0  0  0  0  2  0  0  0  0  0  0
  189.0700  177.2800  144.5800 C   0  0  0  0  0  0  0  0  0  0  0  0
  187.9880  177.4830  144.0830 C   0  0  0  0  0  0  0  0  0  0  0  0
  186.7450  177.7070  143.4730 N   0  0  0  0  0  2  0  0  0  0  0  0
  185.5570  177.9770  144.1880 N   0  0  0  0  0  0  0  0  0  0  0  0
  182.0030  179.0230  142.0940 C   0  0  0  0  0  0  0  0  0  0  0  0
  183.1580  178.9720  141.4200 C   0  0  0  0  0  3  0  0  0  0  0  0
  184.4790  179.1020  142.1420 C   0  0  0  0  0  2  0  0  0  0  0  0
  180.8270  178.9450  141.4200 F   0  0  0  0  0  0  0  0  0  0  0  0
  184.4040  178.5390  143.5490 C   0  0  0  0  0  0  0  0  0  0  0  0
  183.2280  178.5780  144.1980 C   0  0  0  0  0  3  0  0  0  0  0  0
  182.0060  179.2090  143.5890 C   0  0  0  0  0  2  0  0  0  0  0  0
  185.5860  177.8780  145.6540 C   0  0  0  0  0  2  0  0  0  0  0  0
  186.1380  179.0640  146.1990 O   0  0  0  0  0  0  0  0  0  0  0  0
  186.0950  179.9730  148.3210 O   0  0  0  0  0  0  0  0  0  0  0  0
  186.5890  179.1280  147.5230 C   0  0  0  0  0  0  0  0  0  0  0  0
  187.4520  176.9260  148.1020 C   0  0  0  0  0  2  0  0  0  0  0  0
  187.6640  178.2300  147.9770 C   0  0  0  0  0  0  0  0  0  0  0  0
  189.0490  178.7500  148.1730 C   0  0  0  0  0  1  0  0  0  0  0  0
  187.4720  177.4760  140.1570 C   0  0  0  0  0  1  0  0  0  0  0  0
  188.4740  177.7920  139.2430 O   0  0  0  0  0  0  0  0  0  0  0  0
  1  4  1  0  0  0  0
  2 58  1  6  0  0  0
  2  3  1  0  0  0  0
  3 35  1  0  0  0  0
  4  3  2  0  0  0  0
  5  6  1  0  0  0  0
  5  1  2  0  0  0  0
  6  2  1  0  0  0  0
  7 12  1  0  0  0  0
  8 10  2  0  0  0  0
  8  9  1  0  0  0  0
  9  7  2  0  0  0  0
 10 11  1  0  0  0  0
 11 12  2  0  0  0  0
 12  6  1  0  0  0  0
 13  9  1  0  0  0  0
 13 14  1  0  0  0  0
 14 17  1  1  0  0  0
 14 15  1  0  0  0  0
 15 18  1  0  0  0  0
 16 18  1  0  0  0  0
 19 16  1  0  0  0  0
 20 19  1  0  0  0  0
 20 22  1  1  0  0  0
 20 14  1  0  0  0  0
 21 22  2  0  0  0  0
 21 26  1  0  0  0  0
 22 25  1  0  0  0  0
 23 24  1  0  0  0  0
 25 24  2  0  0  0  0
 26 23  2  0  0  0  0
 27 16  1  0  0  0  0
 27 32  1  1  0  0  0
 28 27  1  0  0  0  0
 28 29  1  0  0  0  0
 30 28  2  0  0  0  0
 32 31  1  0  0  0  0
 33 37  1  0  0  0  0
 34 36  2  0  0  0  0
 34 33  1  0  0  0  0
 35 34  1  0  0  0  0
 36 33  1  0  0  0  0
 37 38  1  0  0  0  0
 39 38  1  0  0  0  0
 40 39  3  0  0  0  0
 41 40  1  0  0  0  0
 41 42  1  0  0  0  0
 42 50  1  0  0  0  0
 43 49  1  0  0  0  0
 44 43  2  0  0  0  0
 44 45  1  0  0  0  0
 45 47  1  0  0  0  0
 46 43  1  0  0  0  0
 47 42  1  0  0  0  0
 47 48  2  0  0  0  0
 49 48  1  0  0  0  0
 50 51  1  0  0  0  0
 51 53  1  0  0  0  0
 53 55  1  0  0  0  0
 53 52  2  0  0  0  0
 55 54  2  0  0  0  0
 55 56  1  0  0  0  0
 58 57  1  0  0  0  0
M  END
>  <MODEL>
7

>  <REMARK>
 VINA RESULT:      -5.6      1.594      2.128
  Name = 
  19 active torsions:
  status: ('A' for Active; 'I' for Inactive)
    1  A    between atoms: C_4  and  S_14
    2  A    between atoms: N_5  and  N_56
    3  A    between atoms: C_8  and  O_37
    4  A    between atoms: S_14  and  C_27
    5  A    between atoms: C_17  and  N_23
    6  A    between atoms: C_18  and  C_19
    7  A    between atoms: C_19  and  N_56
    8  A    between atoms: C_20  and  C_43
    9  A    between atoms: N_21  and  C_30
   10  A    between atoms: C_25  and  C_49
   11  A    between atoms: C_29  and  N_48
   12  A    between atoms: C_30  and  C_31
   13  A    between atoms: C_30  and  C_40
   14  A    between atoms: N_35  and  C_47
   15  A    between atoms: N_35  and  N_48
   16  A    between atoms: N_45  and  C_55
   17  A    between atoms: C_46  and  N_48
   18  A    between atoms: C_46  and  O_54
   19  A    between atoms: C_49  and  O_54
                            x       y       z     vdW  Elec       q    Type
                         _______ _______ _______ _____ _____    ______ ____

>  <TORSDO>
F 19

$$$$
=
 OpenBabel10222418033D

 58 63  0  0  1  0  0  0  0  0999 V2000
  189.7800  175.7770  143.0450 N   0  0  0  0  0  0  0  0  0  0  0  0
  188.4700  178.0780  141.9800 C   0  0  2  0  0  3  0  0  0  0  0  0
  188.0530  177.4570  143.2930 C   0  0  0  0  0  0  0  0  0  0  0  0
  188.7100  176.3910  143.7730 C   0  0  0  0  0  3  0  0  0  0  0  0
  190.0950  176.1510  141.8450 C   0  0  0  0  0  3  0  0  0  0  0  0
  189.3890  177.2190  141.1980 N   0  0  0  0  0  0  0  0  0  0  0  0
  188.6090  178.1180  139.0210 C   0  0  0  0  0  3  0  0  0  0  0  0
  189.9150  177.7960  137.0130 C   0  0  0  0  0  3  0  0  0  0  0  0
  188.7830  178.3080  137.6470 C   0  0  0  0  0  0  0  0  0  0  0  0
  190.8800  177.1180  137.7560 C   0  0  0  0  0  3  0  0  0  0  0  0
  190.7090  176.9410  139.1300 C   0  0  0  0  0  3  0  0  0  0  0  0
  189.5680  177.4310  139.7850 C   0  0  0  0  0  0  0  0  0  0  0  0
  187.5120  179.1090  136.6640 S   0  0  0  0  0  0  0  0  0  0  0  0
  186.9920  177.6690  135.6590 C   0  0  2  0  0  0  0  0  0  0  0  0
  188.2320  176.9610  135.1030 C   0  0  0  0  0  2  0  0  0  0  0  0
  187.3970  174.6760  135.7500 N   0  0  0  0  0  0  0  0  0  0  0  0
  186.2010  178.1140  134.5960 O   0  0  0  0  0  1  0  0  0  0  0  0
  187.8500  175.5530  134.6460 C   0  0  0  0  0  2  0  0  0  0  0  0
  186.9230  175.4100  136.9380 C   0  0  0  0  0  2  0  0  0  0  0  0
  186.1850  176.7150  136.5870 C   0  0  2  0  0  3  0  0  0  0  0  0
  183.7880  177.4450  136.7490 C   0  0  0  0  0  3  0  0  0  0  0  0
  184.7240  176.5280  136.2420 C   0  0  0  0  0  0  0  0  0  0  0  0
  182.0200  176.3020  135.5520 C   0  0  0  0  0  3  0  0  0  0  0  0
  182.9520  175.3980  135.0320 C   0  0  0  0  0  3  0  0  0  0  0  0
  184.2980  175.5170  135.3700 C   0  0  0  0  0  3  0  0  0  0  0  0
  182.4380  177.3320  136.4060 C   0  0  0  0  0  3  0  0  0  0  0  0
  188.4070  173.7230  136.2460 C   0  0  2  0  0  3  0  0  0  0  0  0
  189.7010  173.6590  135.4670 C   0  0  0  0  0  0  0  0  0  0  0  0
  190.5650  174.7540  135.4300 O   0  0  0  0  0  1  0  0  0  0  0  0
  189.9900  172.6260  134.7980 O   0  0  0  0  0  0  0  0  0  0  0  0
  186.8890  172.0820  135.3610 O   0  0  0  0  0  1  0  0  0  0  0  0
  187.7920  172.3340  136.3970 C   0  0  0  0  0  2  0  0  0  0  0  0
  184.5410  179.0920  143.6120 N   0  0  0  0  0  0  0  0  0  0  0  0
  185.8270  178.6020  143.4740 C   0  0  0  0  0  0  0  0  0  0  0  0
  187.0250  178.0930  144.0610 N   0  0  0  0  0  2  0  0  0  0  0  0
  185.1320  178.9620  142.3800 N   0  0  0  0  0  0  0  0  0  0  0  0
  183.4490  179.4870  144.3990 N   0  0  0  0  0  2  0  0  0  0  0  0
  182.2860  178.7190  143.9550 C   0  0  0  0  0  2  0  0  0  0  0  0
  181.4860  179.4860  142.9880 C   0  0  0  0  0  0  0  0  0  0  0  0
  180.8330  180.0850  142.1680 C   0  0  0  0  0  0  0  0  0  0  0  0
  180.0830  180.7550  141.1900 N   0  0  0  0  0  2  0  0  0  0  0  0
  179.8420  180.2420  139.8970 N   0  0  0  0  0  0  0  0  0  0  0  0
  180.5400  182.9280  136.6720 C   0  0  0  0  0  0  0  0  0  0  0  0
  179.9840  183.3990  137.7940 C   0  0  0  0  0  3  0  0  0  0  0  0
  179.2690  182.4710  138.7480 C   0  0  0  0  0  2  0  0  0  0  0  0
  181.1420  183.7870  135.8090 F   0  0  0  0  0  0  0  0  0  0  0  0
  179.8760  181.0800  138.7350 C   0  0  0  0  0  0  0  0  0  0  0  0
  180.4500  180.6380  137.6040 C   0  0  0  0  0  3  0  0  0  0  0  0
  180.4610  181.4600  136.3450 C   0  0  0  0  0  2  0  0  0  0  0  0
  179.3340  178.8680  139.7730 C   0  0  0  0  0  2  0  0  0  0  0  0
  180.3640  178.0240  139.2850 O   0  0  0  0  0  0  0  0  0  0  0  0
  179.4240  176.1050  140.1610 O   0  0  0  0  0  0  0  0  0  0  0  0
  180.4080  176.6600  139.5950 C   0  0  0  0  0  0  0  0  0  0  0  0
  182.8020  176.2490  139.7590 C   0  0  0  0  0  2  0  0  0  0  0  0
  181.6170  175.8760  139.2920 C   0  0  0  0  0  0  0  0  0  0  0  0
  181.5120  174.5740  138.5710 C   0  0  0  0  0  1  0  0  0  0  0  0
  190.2540  179.0210  142.9150 C   0  0  0  0  0  1  0  0  0  0  0  0
  189.0800  179.3150  142.2260 O   0  0  0  0  0  0  0  0  0  0  0  0
  1  4  1  0  0  0  0
  2 58  1  1  0  0  0
  2  3  1  0  0  0  0
  3  4  2  0  0  0  0
  3 35  1  0  0  0  0
  5  1  2  0  0  0  0
  6  5  1  0  0  0  0
  6  2  1  0  0  0  0
  7 12  1  0  0  0  0
  8  9  1  0  0  0  0
  8 10  2  0  0  0  0
  9  7  2  0  0  0  0
 10 11  1  0  0  0  0
 11 12  2  0  0  0  0
 12  6  1  0  0  0  0
 13  9  1  0  0  0  0
 14 17  1  6  0  0  0
 14 20  1  0  0  0  0
 14 13  1  0  0  0  0
 15 14  1  0  0  0  0
 16 27  1  0  0  0  0
 16 19  1  0  0  0  0
 18 15  1  0  0  0  0
 18 16  1  0  0  0  0
 20 22  1  6  0  0  0
 20 19  1  0  0  0  0
 22 21  2  0  0  0  0
 23 26  2  0  0  0  0
 24 25  2  0  0  0  0
 24 23  1  0  0  0  0
 25 22  1  0  0  0  0
 26 21  1  0  0  0  0
 27 32  1  6  0  0  0
 28 27  1  0  0  0  0
 29 28  1  0  0  0  0
 30 28  2  0  0  0  0
 31 32  1  0  0  0  0
 33 37  1  0  0  0  0
 34 33  1  0  0  0  0
 34 35  1  0  0  0  0
 36 34  2  0  0  0  0
 36 33  1  0  0  0  0
 38 37  1  0  0  0  0
 39 38  1  0  0  0  0
 40 39  3  0  0  0  0
 41 40  1  0  0  0  0
 42 41  1  0  0  0  0
 43 44  2  0  0  0  0
 44 45  1  0  0  0  0
 46 43  1  0  0  0  0
 47 45  1  0  0  0  0
 47 42  1  0  0  0  0
 48 47  2  0  0  0  0
 49 43  1  0  0  0  0
 49 48  1  0  0  0  0
 50 42  1  0  0  0  0
 51 53  1  0  0  0  0
 51 50  1  0  0  0  0
 53 52  2  0  0  0  0
 55 53  1  0  0  0  0
 55 54  2  0  0  0  0
 56 55  1  0  0  0  0
 58 57  1  0  0  0  0
M  END
>  <MODEL>
8

>  <REMARK>
 VINA RESULT:      -5.4      2.775      7.913
  Name = 
  19 active torsions:
  status: ('A' for Active; 'I' for Inactive)
    1  A    between atoms: C_4  and  S_14
    2  A    between atoms: N_5  and  N_56
    3  A    between atoms: C_8  and  O_37
    4  A    between atoms: S_14  and  C_27
    5  A    between atoms: C_17  and  N_23
    6  A    between atoms: C_18  and  C_19
    7  A    between atoms: C_19  and  N_56
    8  A    between atoms: C_20  and  C_43
    9  A    between atoms: N_21  and  C_30
   10  A    between atoms: C_25  and  C_49
   11  A    between atoms: C_29  and  N_48
   12  A    between atoms: C_30  and  C_31
   13  A    between atoms: C_30  and  C_40
   14  A    between atoms: N_35  and  C_47
   15  A    between atoms: N_35  and  N_48
   16  A    between atoms: N_45  and  C_55
   17  A    between atoms: C_46  and  N_48
   18  A    between atoms: C_46  and  O_54
   19  A    between atoms: C_49  and  O_54
                            x       y       z     vdW  Elec       q    Type
                         _______ _______ _______ _____ _____    ______ ____

>  <TORSDO>
F 19

$$$$
=
 OpenBabel10222418033D

 58 63  0  0  1  0  0  0  0  0999 V2000
  190.5640  175.7180  143.9030 N   0  0  0  0  0  0  0  0  0  0  0  0
  189.1680  177.8830  142.6740 C   0  0  2  0  0  3  0  0  0  0  0  0
  188.8000  177.3720  144.0480 C   0  0  0  0  0  0  0  0  0  0  0  0
  189.4970  176.3690  144.6020 C   0  0  0  0  0  3  0  0  0  0  0  0
  190.8390  175.9910  142.6660 C   0  0  0  0  0  3  0  0  0  0  0  0
  190.0890  176.9810  141.9460 N   0  0  0  0  0  0  0  0  0  0  0  0
  189.1070  177.2230  139.6810 C   0  0  0  0  0  3  0  0  0  0  0  0
  190.5140  177.1970  137.7160 C   0  0  0  0  0  3  0  0  0  0  0  0
  189.2470  177.2950  138.2930 C   0  0  0  0  0  0  0  0  0  0  0  0
  191.6370  177.0510  138.5290 C   0  0  0  0  0  3  0  0  0  0  0  0
  191.4940  176.9920  139.9160 C   0  0  0  0  0  3  0  0  0  0  0  0
  190.2280  177.0690  140.5150 C   0  0  0  0  0  0  0  0  0  0  0  0
  187.8040  177.4020  137.2290 S   0  0  0  0  0  0  0  0  0  0  0  0
  188.2000  176.0290  136.0860 C   0  0  2  0  0  0  0  0  0  0  0  0
  189.5400  176.3090  135.3960 C   0  0  0  0  0  2  0  0  0  0  0  0
  190.4060  173.9820  135.8050 N   0  0  0  0  0  0  0  0  0  0  0  0
  187.1970  175.9330  135.1190 O   0  0  0  0  0  1  0  0  0  0  0  0
  190.0830  175.0130  134.7930 C   0  0  0  0  0  2  0  0  0  0  0  0
  189.7090  174.1690  137.0910 C   0  0  0  0  0  2  0  0  0  0  0  0
  188.2810  174.7230  136.9290 C   0  0  2  0  0  3  0  0  0  0  0  0
  186.0530  173.6610  137.3830 C   0  0  0  0  0  3  0  0  0  0  0  0
  187.2380  173.6700  136.6290 C   0  0  0  0  0  0  0  0  0  0  0  0
  185.2200  171.8180  136.0510 C   0  0  0  0  0  3  0  0  0  0  0  0
  186.3910  171.8360  135.2880 C   0  0  0  0  0  3  0  0  0  0  0  0
  187.3900  172.7640  135.5710 C   0  0  0  0  0  3  0  0  0  0  0  0
  185.0450  172.7350  137.0970 C   0  0  0  0  0  3  0  0  0  0  0  0
  191.8370  173.8630  136.1410 C   0  0  2  0  0  3  0  0  0  0  0  0
  192.7840  174.7210  135.3340 C   0  0  0  0  0  0  0  0  0  0  0  0
  193.8340  174.1420  134.6180 O   0  0  0  0  0  0  0  0  0  0  0  0
  192.6640  175.9790  135.3370 O   0  0  0  0  0  1  0  0  0  0  0  0
  191.8410  171.7900  134.9230 O   0  0  0  0  0  1  0  0  0  0  0  0
  192.2660  172.3980  136.1070 C   0  0  0  0  0  2  0  0  0  0  0  0
  185.1500  178.6500  144.4410 N   0  0  0  0  0  0  0  0  0  0  0  0
  186.4700  178.2820  144.2530 C   0  0  0  0  0  0  0  0  0  0  0  0
  187.7750  178.0490  144.7840 N   0  0  0  0  0  2  0  0  0  0  0  0
  185.6330  178.3120  143.2010 N   0  0  0  0  0  0  0  0  0  0  0  0
  184.0950  179.0910  145.2530 N   0  0  0  0  0  2  0  0  0  0  0  0
  182.9270  178.2650  144.9470 C   0  0  0  0  0  2  0  0  0  0  0  0
  182.0710  178.9150  143.9440 C   0  0  0  0  0  0  0  0  0  0  0  0
  181.3500  179.4140  143.1130 C   0  0  0  0  0  0  0  0  0  0  0  0
  180.5020  179.9610  142.1390 N   0  0  0  0  0  2  0  0  0  0  0  0
  180.2970  179.3870  140.8650 N   0  0  0  0  0  0  0  0  0  0  0  0
  180.6250  182.1350  137.6330 C   0  0  0  0  0  0  0  0  0  0  0  0
  179.7910  182.4200  138.6400 C   0  0  0  0  0  3  0  0  0  0  0  0
  179.2560  181.3240  139.5310 C   0  0  0  0  0  2  0  0  0  0  0  0
  181.0620  183.1310  136.8190 F   0  0  0  0  0  0  0  0  0  0  0  0
  180.2500  180.1870  139.6770 C   0  0  0  0  0  0  0  0  0  0  0  0
  181.0950  179.9340  138.6630 C   0  0  0  0  0  3  0  0  0  0  0  0
  181.0450  180.7110  137.3760 C   0  0  0  0  0  2  0  0  0  0  0  0
  179.9110  177.9710  140.7900 C   0  0  0  0  0  2  0  0  0  0  0  0
  181.0470  177.1850  140.4720 O   0  0  0  0  0  0  0  0  0  0  0  0
  180.1680  175.0770  140.1340 O   0  0  0  0  0  0  0  0  0  0  0  0
  180.9400  175.9960  139.7410 C   0  0  0  0  0  0  0  0  0  0  0  0
  183.0500  175.5260  138.6210 C   0  0  0  0  0  2  0  0  0  0  0  0
  181.7550  175.8020  138.5300 C   0  0  0  0  0  0  0  0  0  0  0  0
  181.1120  175.7760  137.1840 C   0  0  0  0  0  1  0  0  0  0  0  0
  190.6790  179.0390  143.8240 C   0  0  0  0  0  1  0  0  0  0  0  0
  189.7510  179.1520  142.7920 O   0  0  0  0  0  0  0  0  0  0  0  0
  1  4  1  0  0  0  0
  2 58  1  1  0  0  0
  2  3  1  0  0  0  0
  3  4  2  0  0  0  0
  3 35  1  0  0  0  0
  5  1  2  0  0  0  0
  6  5  1  0  0  0  0
  6  2  1  0  0  0  0
  7 12  1  0  0  0  0
  8  9  1  0  0  0  0
  8 10  2  0  0  0  0
  9  7  2  0  0  0  0
 10 11  1  0  0  0  0
 11 12  2  0  0  0  0
 12  6  1  0  0  0  0
 13  9  1  0  0  0  0
 14 17  1  6  0  0  0
 14 20  1  0  0  0  0
 14 13  1  0  0  0  0
 15 14  1  0  0  0  0
 16 27  1  0  0  0  0
 16 19  1  0  0  0  0
 18 15  1  0  0  0  0
 18 16  1  0  0  0  0
 20 22  1  6  0  0  0
 20 19  1  0  0  0  0
 22 21  2  0  0  0  0
 23 26  2  0  0  0  0
 24 25  2  0  0  0  0
 24 23  1  0  0  0  0
 25 22  1  0  0  0  0
 26 21  1  0  0  0  0
 27 32  1  6  0  0  0
 28 30  1  0  0  0  0
 28 27  1  0  0  0  0
 29 28  2  0  0  0  0
 31 32  1  0  0  0  0
 33 37  1  0  0  0  0
 34 33  1  0  0  0  0
 34 35  1  0  0  0  0
 36 34  2  0  0  0  0
 36 33  1  0  0  0  0
 38 37  1  0  0  0  0
 39 38  1  0  0  0  0
 40 39  3  0  0  0  0
 41 40  1  0  0  0  0
 42 41  1  0  0  0  0
 43 44  2  0  0  0  0
 44 45  1  0  0  0  0
 45 47  1  0  0  0  0
 46 43  1  0  0  0  0
 47 42  1  0  0  0  0
 48 47  2  0  0  0  0
 49 43  1  0  0  0  0
 49 48  1  0  0  0  0
 50 42  1  0  0  0  0
 51 50  1  0  0  0  0
 53 52  2  0  0  0  0
 53 51  1  0  0  0  0
 55 54  2  0  0  0  0
 55 53  1  0  0  0  0
 56 55  1  0  0  0  0
 58 57  1  0  0  0  0
M  END
>  <MODEL>
9

>  <REMARK>
 VINA RESULT:      -5.3      2.882      8.609
  Name = 
  19 active torsions:
  status: ('A' for Active; 'I' for Inactive)
    1  A    between atoms: C_4  and  S_14
    2  A    between atoms: N_5  and  N_56
    3  A    between atoms: C_8  and  O_37
    4  A    between atoms: S_14  and  C_27
    5  A    between atoms: C_17  and  N_23
    6  A    between atoms: C_18  and  C_19
    7  A    between atoms: C_19  and  N_56
    8  A    between atoms: C_20  and  C_43
    9  A    between atoms: N_21  and  C_30
   10  A    between atoms: C_25  and  C_49
   11  A    between atoms: C_29  and  N_48
   12  A    between atoms: C_30  and  C_31
   13  A    between atoms: C_30  and  C_40
   14  A    between atoms: N_35  and  C_47
   15  A    between atoms: N_35  and  N_48
   16  A    between atoms: N_45  and  C_55
   17  A    between atoms: C_46  and  N_48
   18  A    between atoms: C_46  and  O_54
   19  A    between atoms: C_49  and  O_54
                            x       y       z     vdW  Elec       q    Type
                         _______ _______ _______ _____ _____    ______ ____

>  <TORSDO>
F 19

$$$$
