=
 OpenBabel10222416363D

 32 37  0  0  1  0  0  0  0  0999 V2000
  189.3430  178.6200  148.5810 C   0  0  0  0  0  1  0  0  0  0  0  0
  189.0590  177.4220  145.4320 C   0  0  0  0  0  0  0  0  0  0  0  0
  190.8930  176.6500  141.0370 C   0  0  0  0  0  1  0  0  0  0  0  0
  185.0480  178.2240  143.6130 C   0  0  0  0  0  0  0  0  0  0  0  0
  189.8330  177.3890  146.5700 O   0  0  0  0  0  0  0  0  0  0  0  0
  186.4480  177.3820  137.7860 C   0  0  0  0  0  0  0  0  0  0  0  0
  183.7290  178.6830  143.3060 N   0  0  0  0  0  2  0  0  0  0  0  0
  188.6150  176.1680  137.4130 C   0  0  0  0  0  3  0  0  0  0  0  0
  189.5450  177.1580  140.8570 N   0  0  0  0  0  0  0  0  0  0  0  0
  186.0370  177.8050  142.5540 C   0  0  1  0  0  3  0  0  0  0  0  0
  188.5530  177.6020  143.0730 C   0  0  0  0  0  0  0  0  0  0  0  0
  187.7680  178.6670  140.9570 N   0  0  0  0  0  0  0  0  0  0  0  0
  187.0800  178.5410  138.4820 C   0  0  0  0  0  2  0  0  0  0  0  0
  189.5140  177.5290  144.1060 C   0  0  0  0  0  3  0  0  0  0  0  0
  185.4470  178.0050  144.8330 N   0  0  0  0  0  0  0  0  0  0  0  0
  187.7250  177.4580  145.7480 C   0  0  0  0  0  0  0  0  0  0  0  0
  188.8890  177.2420  139.6010 C   0  0  0  0  0  0  0  0  0  0  0  0
  187.8850  178.0990  139.6550 C   0  0  0  0  0  0  0  0  0  0  0  0
  189.3380  176.5420  138.4300 N   0  0  0  0  0  0  0  0  0  0  0  0
  186.7820  177.5350  144.7290 C   0  0  0  0  0  0  0  0  0  0  0  0
  188.9280  178.1570  141.7200 C   0  0  2  0  0  3  0  0  0  0  0  0
  186.4690  178.8310  141.5540 C   0  0  0  0  0  0  0  0  0  0  0  0
  185.6740  179.7130  141.1330 O   0  0  0  0  0  0  0  0  0  0  0  0
  187.5480  177.5270  147.2190 C   0  0  0  0  0  2  0  0  0  0  0  0
  189.0010  177.4120  147.7310 C   0  0  2  0  0  3  0  0  0  0  0  0
  187.1930  177.4940  143.4200 C   0  0  0  0  0  0  0  0  0  0  0  0
  187.1610  176.3830  137.2610 C   0  0  0  0  0  3  0  0  0  0  0  0
  185.0330  177.4170  137.5530 C   0  0  0  0  0  0  0  0  0  0  0  0
  183.8900  177.4440  137.3660 N   0  0  0  0  0  0  0  0  0  0  0  0
  182.7700  179.0540  144.3360 C   0  0  0  0  0  2  0  0  0  0  0  0
  181.4320  178.6700  143.9220 N   0  0  0  0  0  2  0  0  0  0  0  0
  181.3090  179.0360  142.5220 C   0  0  0  0  0  1  0  0  0  0  0  0
  2 16  1  0  0  0  0
  2  5  1  0  0  0  0
  4 15  2  0  0  0  0
  5 25  1  0  0  0  0
  6 13  1  0  0  0  0
  7  4  1  0  0  0  0
  7 30  1  0  0  0  0
  8 19  2  0  0  0  0
  9  3  1  0  0  0  0
  9 21  1  0  0  0  0
 10 22  1  6  0  0  0
 10 26  1  0  0  0  0
 10  4  1  0  0  0  0
 11 26  2  0  0  0  0
 11 14  1  0  0  0  0
 12 22  1  0  0  0  0
 12 21  1  0  0  0  0
 13 18  1  0  0  0  0
 14  2  2  0  0  0  0
 16 24  1  0  0  0  0
 17 18  2  0  0  0  0
 17  9  1  0  0  0  0
 18 12  1  0  0  0  0
 19 17  1  0  0  0  0
 20 15  1  0  0  0  0
 20 16  2  0  0  0  0
 21 11  1  1  0  0  0
 23 22  2  0  0  0  0
 24 25  1  0  0  0  0
 25  1  1  1  0  0  0
 26 20  1  0  0  0  0
 27  8  1  0  0  0  0
 27  6  2  0  0  0  0
 28  6  1  0  0  0  0
 29 28  3  0  0  0  0
 31 30  1  0  0  0  0
 32 31  1  0  0  0  0
M  END
>  <MODEL>
1

>  <REMARK>
 VINA RESULT:     -10.1      0.000      0.000
  Name = 
  3 active torsions:
  status: ('A' for Active; 'I' for Inactive)
    1  A    between atoms: C_4  and  C_8
    2  A    between atoms: N_7  and  C_25
    3  A    between atoms: N_9  and  C_25
                            x       y       z     vdW  Elec       q    Type
                         _______ _______ _______ _____ _____    ______ ____

>  <TORSDO>
F 3

$$$$
=
 OpenBabel10222416363D

 32 37  0  0  1  0  0  0  0  0999 V2000
  190.3330  175.9810  136.2960 C   0  0  0  0  0  1  0  0  0  0  0  0
  190.4730  176.9050  139.5460 C   0  0  0  0  0  0  0  0  0  0  0  0
  191.8390  176.0920  144.1010 C   0  0  0  0  0  1  0  0  0  0  0  0
  186.6460  178.7020  141.0180 C   0  0  0  0  0  0  0  0  0  0  0  0
  191.2320  176.5100  138.4680 O   0  0  0  0  0  0  0  0  0  0  0  0
  187.5450  178.1340  146.9750 C   0  0  0  0  0  0  0  0  0  0  0  0
  185.3030  179.1590  141.1890 N   0  0  0  0  0  2  0  0  0  0  0  0
  189.9320  177.6880  147.6190 C   0  0  0  0  0  3  0  0  0  0  0  0
  190.4570  176.5370  144.1400 N   0  0  0  0  0  0  0  0  0  0  0  0
  187.5440  178.3430  142.1760 C   0  0  1  0  0  3  0  0  0  0  0  0
  189.6820  176.9470  141.8320 C   0  0  0  0  0  0  0  0  0  0  0  0
  188.1550  176.4920  143.7540 N   0  0  0  0  0  0  0  0  0  0  0  0
  187.4000  176.8790  146.1810 C   0  0  0  0  0  2  0  0  0  0  0  0
  190.5980  176.4590  140.8730 C   0  0  0  0  0  3  0  0  0  0  0  0
  187.2400  178.6920  139.8590 N   0  0  0  0  0  0  0  0  0  0  0  0
  189.4550  177.7350  139.1510 C   0  0  0  0  0  0  0  0  0  0  0  0
  189.7430  176.8120  145.3360 C   0  0  0  0  0  0  0  0  0  0  0  0
  188.4410  176.7830  145.1200 C   0  0  0  0  0  0  0  0  0  0  0  0
  190.3830  177.0030  146.6070 N   0  0  0  0  0  0  0  0  0  0  0  0
  188.5530  178.2100  140.0970 C   0  0  0  0  0  0  0  0  0  0  0  0
  189.4640  176.2010  143.1280 C   0  0  2  0  0  3  0  0  0  0  0  0
  187.1200  177.2170  143.0670 C   0  0  0  0  0  0  0  0  0  0  0  0
  185.9060  177.0100  143.3300 O   0  0  0  0  0  0  0  0  0  0  0  0
  189.4550  177.8790  137.6750 C   0  0  0  0  0  2  0  0  0  0  0  0
  190.7140  177.0830  137.2660 C   0  0  2  0  0  3  0  0  0  0  0  0
  188.7380  177.9060  141.4220 C   0  0  0  0  0  0  0  0  0  0  0  0
  188.6530  178.4290  147.6590 C   0  0  0  0  0  3  0  0  0  0  0  0
  186.3980  178.9840  147.1200 C   0  0  0  0  0  0  0  0  0  0  0  0
  185.4740  179.6720  147.2370 N   0  0  0  0  0  0  0  0  0  0  0  0
  184.4540  179.5350  140.0680 C   0  0  0  0  0  2  0  0  0  0  0  0
  183.1280  178.9700  140.2450 N   0  0  0  0  0  2  0  0  0  0  0  0
  183.0370  178.5490  141.6310 C   0  0  0  0  0  1  0  0  0  0  0  0
  2 14  1  0  0  0  0
  3  9  1  0  0  0  0
  4  7  1  0  0  0  0
  5  2  1  0  0  0  0
  6 28  1  0  0  0  0
  6 27  2  0  0  0  0
  8 27  1  0  0  0  0
  9 17  1  0  0  0  0
 10  4  1  6  0  0  0
 10 22  1  0  0  0  0
 12 18  1  0  0  0  0
 13  6  1  0  0  0  0
 14 11  2  0  0  0  0
 15 20  1  0  0  0  0
 15  4  2  0  0  0  0
 16  2  2  0  0  0  0
 16 20  1  0  0  0  0
 17 19  1  0  0  0  0
 18 17  2  0  0  0  0
 18 13  1  0  0  0  0
 19  8  2  0  0  0  0
 20 26  2  0  0  0  0
 21 11  1  6  0  0  0
 21 12  1  0  0  0  0
 21  9  1  0  0  0  0
 22 23  2  0  0  0  0
 22 12  1  0  0  0  0
 24 16  1  0  0  0  0
 25  1  1  6  0  0  0
 25 24  1  0  0  0  0
 25  5  1  0  0  0  0
 26 11  1  0  0  0  0
 26 10  1  0  0  0  0
 28 29  3  0  0  0  0
 30 31  1  0  0  0  0
 30  7  1  0  0  0  0
 31 32  1  0  0  0  0
M  END
>  <MODEL>
2

>  <REMARK>
 VINA RESULT:      -8.5      2.431      6.661
  Name = 
  3 active torsions:
  status: ('A' for Active; 'I' for Inactive)
    1  A    between atoms: C_4  and  C_8
    2  A    between atoms: N_7  and  C_25
    3  A    between atoms: N_9  and  C_25
                            x       y       z     vdW  Elec       q    Type
                         _______ _______ _______ _____ _____    ______ ____

>  <TORSDO>
F 3

$$$$
=
 OpenBabel10222416363D

 32 37  0  0  1  0  0  0  0  0999 V2000
  190.1280  176.2680  143.7060 C   0  0  0  0  0  1  0  0  0  0  0  0
  187.2580  178.0120  143.3150 C   0  0  0  0  0  0  0  0  0  0  0  0
  182.7180  178.9980  144.6150 C   0  0  0  0  0  1  0  0  0  0  0  0
  186.1560  178.6230  139.0190 C   0  0  0  0  0  0  0  0  0  0  0  0
  188.2220  177.6450  144.2270 O   0  0  0  0  0  0  0  0  0  0  0  0
  180.3130  180.0330  139.7150 C   0  0  0  0  0  0  0  0  0  0  0  0
  186.0550  178.5900  137.5940 N   0  0  0  0  0  2  0  0  0  0  0  0
  179.6800  180.6710  142.0610 C   0  0  0  0  0  3  0  0  0  0  0  0
  182.7390  178.9040  143.1660 N   0  0  0  0  0  0  0  0  0  0  0  0
  184.9860  178.9360  139.9180 C   0  0  1  0  0  3  0  0  0  0  0  0
  185.0350  178.3730  142.4310 C   0  0  0  0  0  0  0  0  0  0  0  0
  182.9960  177.9270  141.0620 N   0  0  0  0  0  0  0  0  0  0  0  0
  180.7320  178.6470  140.0790 C   0  0  0  0  0  2  0  0  0  0  0  0
  185.8660  178.0130  143.5150 C   0  0  0  0  0  3  0  0  0  0  0  0
  187.2950  178.5190  139.6430 N   0  0  0  0  0  0  0  0  0  0  0  0
  187.8160  178.2780  142.0910 C   0  0  0  0  0  0  0  0  0  0  0  0
  181.6310  179.2110  142.3340 C   0  0  0  0  0  0  0  0  0  0  0  0
  181.7730  178.6550  141.1440 C   0  0  0  0  0  0  0  0  0  0  0  0
  180.4880  179.9530  142.7860 N   0  0  0  0  0  0  0  0  0  0  0  0
  186.9950  178.6280  141.0250 C   0  0  0  0  0  0  0  0  0  0  0  0
  183.5780  177.9740  142.4220 C   0  0  2  0  0  3  0  0  0  0  0  0
  183.8060  178.0160  139.8770 C   0  0  0  0  0  0  0  0  0  0  0  0
  183.4430  177.4610  138.8060 O   0  0  0  0  0  0  0  0  0  0  0  0
  189.2750  178.0120  142.1240 C   0  0  0  0  0  2  0  0  0  0  0  0
  189.5100  177.6480  143.6080 C   0  0  2  0  0  3  0  0  0  0  0  0
  185.6460  178.7780  141.2300 C   0  0  0  0  0  0  0  0  0  0  0  0
  179.7840  180.8800  140.6010 C   0  0  0  0  0  3  0  0  0  0  0  0
  180.3520  180.4150  138.3330 C   0  0  0  0  0  0  0  0  0  0  0  0
  180.3820  180.7250  137.2180 N   0  0  0  0  0  0  0  0  0  0  0  0
  187.1980  178.3180  136.7340 C   0  0  0  0  0  2  0  0  0  0  0  0
  187.2310  176.9070  136.3930 N   0  0  0  0  0  2  0  0  0  0  0  0
  188.4690  176.3770  136.9360 C   0  0  0  0  0  1  0  0  0  0  0  0
  2 14  1  0  0  0  0
  2  5  1  0  0  0  0
  4 15  2  0  0  0  0
  6 13  1  0  0  0  0
  6 27  2  0  0  0  0
  7  4  1  0  0  0  0
  8 19  2  0  0  0  0
  9  3  1  0  0  0  0
 10  4  1  6  0  0  0
 10 26  1  0  0  0  0
 11 14  2  0  0  0  0
 12 18  1  0  0  0  0
 12 21  1  0  0  0  0
 13 18  1  0  0  0  0
 15 20  1  0  0  0  0
 16 24  1  0  0  0  0
 16  2  2  0  0  0  0
 17 19  1  0  0  0  0
 17  9  1  0  0  0  0
 18 17  2  0  0  0  0
 20 26  2  0  0  0  0
 20 16  1  0  0  0  0
 21 11  1  6  0  0  0
 21  9  1  0  0  0  0
 22 10  1  0  0  0  0
 22 12  1  0  0  0  0
 23 22  2  0  0  0  0
 24 25  1  0  0  0  0
 25  1  1  6  0  0  0
 25  5  1  0  0  0  0
 26 11  1  0  0  0  0
 27  8  1  0  0  0  0
 28  6  1  0  0  0  0
 29 28  3  0  0  0  0
 30  7  1  0  0  0  0
 31 30  1  0  0  0  0
 31 32  1  0  0  0  0
M  END
>  <MODEL>
3

>  <REMARK>
 VINA RESULT:      -7.8      2.272      6.383
  Name = 
  3 active torsions:
  status: ('A' for Active; 'I' for Inactive)
    1  A    between atoms: C_4  and  C_8
    2  A    between atoms: N_7  and  C_25
    3  A    between atoms: N_9  and  C_25
                            x       y       z     vdW  Elec       q    Type
                         _______ _______ _______ _____ _____    ______ ____

>  <TORSDO>
F 3

$$$$
=
 OpenBabel10222416363D

 32 37  0  0  1  0  0  0  0  0999 V2000
  193.9800  176.4330  135.9280 C   0  0  0  0  0  1  0  0  0  0  0  0
  190.7290  176.2060  136.8300 C   0  0  0  0  0  0  0  0  0  0  0  0
  186.0440  176.9040  135.9120 C   0  0  0  0  0  1  0  0  0  0  0  0
  190.0330  177.2240  141.1330 C   0  0  0  0  0  0  0  0  0  0  0  0
  191.6340  175.8920  135.8410 O   0  0  0  0  0  0  0  0  0  0  0  0
  184.0730  178.2490  140.9290 C   0  0  0  0  0  0  0  0  0  0  0  0
  190.1370  177.6580  142.4910 N   0  0  0  0  0  2  0  0  0  0  0  0
  182.9450  177.3580  138.8690 C   0  0  0  0  0  3  0  0  0  0  0  0
  186.2860  177.3450  137.2740 N   0  0  0  0  0  0  0  0  0  0  0  0
  188.7300  177.2090  140.3730 C   0  0  1  0  0  3  0  0  0  0  0  0
  188.6780  177.0410  137.8030 C   0  0  0  0  0  0  0  0  0  0  0  0
  187.1750  178.6270  139.0100 N   0  0  0  0  0  0  0  0  0  0  0  0
  184.9570  179.1920  140.1810 C   0  0  0  0  0  2  0  0  0  0  0  0
  189.4380  176.7330  136.6530 C   0  0  0  0  0  3  0  0  0  0  0  0
  191.0300  176.6820  140.4940 N   0  0  0  0  0  0  0  0  0  0  0  0
  191.2870  176.0520  138.0720 C   0  0  0  0  0  0  0  0  0  0  0  0
  185.2630  177.7510  138.1710 C   0  0  0  0  0  0  0  0  0  0  0  0
  185.7640  178.4800  139.1510 C   0  0  0  0  0  0  0  0  0  0  0  0
  183.8720  177.4640  137.9600 N   0  0  0  0  0  0  0  0  0  0  0  0
  190.5380  176.3600  139.2030 C   0  0  0  0  0  0  0  0  0  0  0  0
  187.5120  177.9970  137.7140 C   0  0  2  0  0  3  0  0  0  0  0  0
  188.0280  178.5140  140.1630 C   0  0  0  0  0  0  0  0  0  0  0  0
  188.0540  179.4220  141.0360 O   0  0  0  0  0  0  0  0  0  0  0  0
  192.7140  175.6690  137.9500 C   0  0  0  0  0  2  0  0  0  0  0  0
  192.8830  175.5110  136.4220 C   0  0  2  0  0  3  0  0  0  0  0  0
  189.2260  176.7390  139.0640 C   0  0  0  0  0  0  0  0  0  0  0  0
  183.1440  177.5050  140.3270 C   0  0  0  0  0  3  0  0  0  0  0  0
  184.1340  178.2510  142.3630 C   0  0  0  0  0  0  0  0  0  0  0  0
  184.1840  178.2530  143.5190 N   0  0  0  0  0  0  0  0  0  0  0  0
  191.3930  177.6380  143.2260 C   0  0  0  0  0  2  0  0  0  0  0  0
  191.4870  176.4150  144.0040 N   0  0  0  0  0  2  0  0  0  0  0  0
  191.4550  176.8070  145.4020 C   0  0  0  0  0  1  0  0  0  0  0  0
  2 16  1  0  0  0  0
  3  9  1  0  0  0  0
  4  7  1  0  0  0  0
  5 25  1  0  0  0  0
  5  2  1  0  0  0  0
  6 28  1  0  0  0  0
  7 30  1  0  0  0  0
  8 27  1  0  0  0  0
  9 21  1  0  0  0  0
  9 17  1  0  0  0  0
 10 26  1  6  0  0  0
 10  4  1  0  0  0  0
 11 26  2  0  0  0  0
 12 18  1  0  0  0  0
 12 22  1  0  0  0  0
 13  6  1  0  0  0  0
 14  2  2  0  0  0  0
 14 11  1  0  0  0  0
 15  4  2  0  0  0  0
 16 20  2  0  0  0  0
 17 18  2  0  0  0  0
 18 13  1  0  0  0  0
 19 17  1  0  0  0  0
 19  8  2  0  0  0  0
 20 15  1  0  0  0  0
 21 11  1  1  0  0  0
 21 12  1  0  0  0  0
 22 10  1  0  0  0  0
 22 23  2  0  0  0  0
 24 16  1  0  0  0  0
 25  1  1  6  0  0  0
 25 24  1  0  0  0  0
 26 20  1  0  0  0  0
 27  6  2  0  0  0  0
 28 29  3  0  0  0  0
 30 31  1  0  0  0  0
 31 32  1  0  0  0  0
M  END
>  <MODEL>
4

>  <REMARK>
 VINA RESULT:      -7.2      2.782      7.118
  Name = 
  3 active torsions:
  status: ('A' for Active; 'I' for Inactive)
    1  A    between atoms: C_4  and  C_8
    2  A    between atoms: N_7  and  C_25
    3  A    between atoms: N_9  and  C_25
                            x       y       z     vdW  Elec       q    Type
                         _______ _______ _______ _____ _____    ______ ____

>  <TORSDO>
F 3

$$$$
