=
 OpenBabel10222417413D

 30 34  0  0  1  0  0  0  0  0999 V2000
  181.9980  177.6410  140.7390 C   0  0  2  0  0  3  0  0  0  0  0  0
  179.7370  178.1410  141.6040 N   0  0  0  0  0  0  0  0  0  0  0  0
  185.9710  179.0670  142.7740 C   0  0  2  0  0  3  0  0  0  0  0  0
  181.2710  180.3850  139.0100 C   0  0  0  0  0  2  0  0  0  0  0  0
  185.2650  180.2570  142.5880 O   0  0  0  0  0  1  0  0  0  0  0  0
  183.2450  179.1320  144.2570 C   0  0  0  0  0  3  0  0  0  0  0  0
  182.0780  178.4910  142.0120 C   0  0  0  0  0  0  0  0  0  0  0  0
  180.0030  180.8430  140.9670 N   0  0  0  0  0  2  0  0  0  0  0  0
  179.1620  180.3970  142.0060 N   0  0  0  0  0  2  0  0  0  0  0  0
  185.7860  178.1250  141.5980 C   0  0  0  0  0  2  0  0  0  0  0  0
  180.8520  180.0360  140.4000 C   0  0  1  0  0  3  0  0  0  0  0  0
  183.2180  177.9980  140.0220 N   0  0  0  0  0  2  0  0  0  0  0  0
  185.4980  178.3770  138.2140 C   0  0  0  0  0  0  0  0  0  0  0  0
  184.1100  177.9960  137.7430 C   0  0  2  0  0  3  0  0  0  0  0  0
  178.9310  178.9890  142.1670 C   0  0  0  0  0  3  0  0  0  0  0  0
  184.4730  178.4710  144.7230 C   0  0  0  0  0  3  0  0  0  0  0  0
  186.2640  178.7240  140.4290 O   0  0  0  0  0  0  0  0  0  0  0  0
  186.1310  179.2230  137.5970 O   0  0  0  0  0  0  0  0  0  0  0  0
  180.9660  178.6270  140.9710 C   0  0  1  0  0  0  0  0  0  0  0  0
  185.6550  178.3890  144.0900 C   0  0  0  0  0  0  0  0  0  0  0  0
  186.1000  177.7520  139.4380 C   0  0  0  0  0  2  0  0  0  0  0  0
  183.0040  178.5100  138.6830 C   0  0  2  0  0  3  0  0  0  0  0  0
  183.0580  180.3200  138.7720 S   0  0  0  0  0  0  0  0  0  0  0  0
  182.6700  178.8180  143.1270 C   0  0  0  0  0  0  0  0  0  0  0  0
  182.9620  174.9900  135.9170 N   0  0  0  0  0  1  0  0  0  0  0  0
  183.9630  176.4910  137.5040 C   0  0  1  0  0  3  0  0  0  0  0  0
  183.6420  176.2610  136.0730 C   0  0  1  0  0  3  0  0  0  0  0  0
  184.9370  176.0420  136.5860 O   0  0  0  0  0  0  0  0  0  0  0  0
  186.6440  177.6170  144.7100 O   0  0  0  0  0  0  0  0  0  0  0  0
  187.1490  177.9160  146.0050 C   0  0  0  0  0  1  0  0  0  0  0  0
  1 12  1  6  0  0  0
  1 19  1  0  0  0  0
  1  7  1  0  0  0  0
  2 15  2  0  0  0  0
  3  5  1  6  0  0  0
  3 20  1  0  0  0  0
  6 16  1  0  0  0  0
  7 24  2  0  0  0  0
  8  9  1  0  0  0  0
  9 15  1  0  0  0  0
 10  3  1  0  0  0  0
 11  4  1  6  0  0  0
 11  8  1  0  0  0  0
 11 19  1  0  0  0  0
 13 21  1  0  0  0  0
 14 13  1  1  0  0  0
 14 22  1  0  0  0  0
 17 10  1  0  0  0  0
 18 13  2  0  0  0  0
 19  2  1  1  0  0  0
 19  7  1  0  0  0  0
 20 29  1  0  0  0  0
 20 16  2  0  0  0  0
 21 17  1  0  0  0  0
 22 23  1  1  0  0  0
 22 12  1  0  0  0  0
 23  4  1  0  0  0  0
 24  6  2  0  0  0  0
 26 28  1  6  0  0  0
 26 14  1  0  0  0  0
 27 25  1  1  0  0  0
 27 28  1  0  0  0  0
 27 26  1  0  0  0  0
 29 30  1  0  0  0  0
M  END
>  <MODEL>
1

>  <REMARK>
 VINA RESULT:      -5.4      0.000      0.000
  Name = 
  2 active torsions:
  status: ('A' for Active; 'I' for Inactive)
    1  A    between atoms: O_6  and  C_25
    2  A    between atoms: C_16  and  C_19
                            x       y       z     vdW  Elec       q    Type
                         _______ _______ _______ _____ _____    ______ ____

>  <TORSDO>
F 2

$$$$
=
 OpenBabel10222417413D

 30 34  0  0  1  0  0  0  0  0999 V2000
  183.5740  175.0690  137.9150 C   0  0  2  0  0  3  0  0  0  0  0  0
  181.3340  174.0320  138.0380 N   0  0  0  0  0  0  0  0  0  0  0  0
  184.6170  179.2960  139.6520 C   0  0  2  0  0  3  0  0  0  0  0  0
  182.3070  175.9950  134.9860 C   0  0  0  0  0  2  0  0  0  0  0  0
  183.5420  179.5590  138.8000 O   0  0  0  0  0  1  0  0  0  0  0  0
  182.0200  177.7870  140.4360 C   0  0  0  0  0  3  0  0  0  0  0  0
  182.5800  176.0020  138.6160 C   0  0  0  0  0  0  0  0  0  0  0  0
  180.2880  175.8850  136.2350 N   0  0  0  0  0  2  0  0  0  0  0  0
  179.4870  175.2440  137.2010 N   0  0  0  0  0  2  0  0  0  0  0  0
  185.5460  178.2500  139.0610 C   0  0  0  0  0  2  0  0  0  0  0  0
  181.5870  175.8000  136.2790 C   0  0  1  0  0  3  0  0  0  0  0  0
  184.5430  175.9920  137.3330 N   0  0  0  0  0  2  0  0  0  0  0  0
  186.7280  177.4090  135.9800 C   0  0  0  0  0  0  0  0  0  0  0  0
  186.1900  176.0690  135.5240 C   0  0  2  0  0  3  0  0  0  0  0  0
  180.0440  174.1730  137.9780 C   0  0  0  0  0  3  0  0  0  0  0  0
  183.0340  178.3120  141.3620 C   0  0  0  0  0  3  0  0  0  0  0  0
  186.0690  178.7090  137.8490 O   0  0  0  0  0  0  0  0  0  0  0  0
  186.9700  178.2740  135.1490 O   0  0  0  0  0  0  0  0  0  0  0  0
  182.2000  175.0670  137.4670 C   0  0  1  0  0  0  0  0  0  0  0  0
  184.1860  178.9320  141.0570 C   0  0  0  0  0  0  0  0  0  0  0  0
  186.9460  177.7020  137.4350 C   0  0  0  0  0  2  0  0  0  0  0  0
  184.7100  175.8670  135.8990 C   0  0  2  0  0  3  0  0  0  0  0  0
  183.6910  177.1440  135.1140 S   0  0  0  0  0  0  0  0  0  0  0  0
  182.3050  176.9030  139.5180 C   0  0  0  0  0  0  0  0  0  0  0  0
  187.8970  172.8020  135.2070 N   0  0  0  0  0  1  0  0  0  0  0  0
  187.0410  174.8960  136.0170 C   0  0  1  0  0  3  0  0  0  0  0  0
  187.5860  174.1710  134.8420 C   0  0  1  0  0  3  0  0  0  0  0  0
  188.3810  175.0520  135.6030 O   0  0  0  0  0  0  0  0  0  0  0  0
  185.0270  179.2520  142.1290 O   0  0  0  0  0  0  0  0  0  0  0  0
  185.5970  178.2630  142.9760 C   0  0  0  0  0  1  0  0  0  0  0  0
  1 12  1  6  0  0  0
  1  7  1  0  0  0  0
  3  5  1  6  0  0  0
  3 20  1  0  0  0  0
  4 23  1  0  0  0  0
  6 16  1  0  0  0  0
  7 24  2  0  0  0  0
  8 11  1  0  0  0  0
  8  9  1  0  0  0  0
  9 15  1  0  0  0  0
 10  3  1  0  0  0  0
 11  4  1  6  0  0  0
 11 19  1  0  0  0  0
 13 21  1  0  0  0  0
 14 22  1  0  0  0  0
 14 13  1  1  0  0  0
 14 26  1  0  0  0  0
 15  2  2  0  0  0  0
 17 10  1  0  0  0  0
 18 13  2  0  0  0  0
 19  1  1  0  0  0  0
 19  2  1  1  0  0  0
 19  7  1  0  0  0  0
 20 16  2  0  0  0  0
 20 29  1  0  0  0  0
 21 17  1  0  0  0  0
 22 23  1  6  0  0  0
 22 12  1  0  0  0  0
 24  6  2  0  0  0  0
 26 28  1  1  0  0  0
 27 25  1  1  0  0  0
 27 28  1  0  0  0  0
 27 26  1  0  0  0  0
 29 30  1  0  0  0  0
M  END
>  <MODEL>
2

>  <REMARK>
 VINA RESULT:      -5.3      3.009      4.461
  Name = 
  2 active torsions:
  status: ('A' for Active; 'I' for Inactive)
    1  A    between atoms: O_6  and  C_25
    2  A    between atoms: C_16  and  C_19
                            x       y       z     vdW  Elec       q    Type
                         _______ _______ _______ _____ _____    ______ ____

>  <TORSDO>
F 2

$$$$
=
 OpenBabel10222417413D

 30 34  0  0  1  0  0  0  0  0999 V2000
  182.5820  175.6270  138.9530 C   0  0  2  0  0  3  0  0  0  0  0  0
  180.3970  175.4920  140.1010 N   0  0  0  0  0  0  0  0  0  0  0  0
  185.7140  179.0440  139.6460 C   0  0  2  0  0  3  0  0  0  0  0  0
  180.6260  177.1400  136.7320 C   0  0  0  0  0  2  0  0  0  0  0  0
  184.5560  179.7410  139.2940 O   0  0  0  0  0  1  0  0  0  0  0  0
  183.3410  178.5640  141.5900 C   0  0  0  0  0  3  0  0  0  0  0  0
  182.3900  176.8170  139.9000 C   0  0  0  0  0  0  0  0  0  0  0  0
  179.4380  177.7110  138.7100 N   0  0  0  0  0  2  0  0  0  0  0  0
  178.9490  177.3550  139.9820 N   0  0  0  0  0  2  0  0  0  0  0  0
  185.8570  177.7660  138.8370 C   0  0  0  0  0  2  0  0  0  0  0  0
  180.5040  177.1460  138.2200 C   0  0  1  0  0  3  0  0  0  0  0  0
  183.4750  176.1570  137.9280 N   0  0  0  0  0  2  0  0  0  0  0  0
  185.2310  176.7410  135.6500 C   0  0  0  0  0  0  0  0  0  0  0  0
  184.1060  175.7300  135.6020 C   0  0  2  0  0  3  0  0  0  0  0  0
  179.3520  176.1070  140.5660 C   0  0  0  0  0  3  0  0  0  0  0  0
  184.7660  178.6150  141.9520 C   0  0  0  0  0  3  0  0  0  0  0  0
  185.9440  178.0730  137.4770 O   0  0  0  0  0  0  0  0  0  0  0  0
  185.3940  177.5050  134.7080 O   0  0  0  0  0  0  0  0  0  0  0  0
  181.2500  176.1650  139.1170 C   0  0  1  0  0  0  0  0  0  0  0  0
  185.8180  178.7800  141.1330 C   0  0  0  0  0  0  0  0  0  0  0  0
  186.1330  176.8400  136.8450 C   0  0  0  0  0  2  0  0  0  0  0  0
  182.9620  176.0700  136.5750 C   0  0  2  0  0  3  0  0  0  0  0  0
  182.2470  177.6810  136.1540 S   0  0  0  0  0  0  0  0  0  0  0  0
  182.8700  177.6970  140.7340 C   0  0  0  0  0  0  0  0  0  0  0  0
  184.1600  172.0800  134.9970 N   0  0  0  0  0  1  0  0  0  0  0  0
  184.5950  174.2960  135.8190 C   0  0  1  0  0  3  0  0  0  0  0  0
  184.2380  173.4810  134.6300 C   0  0  1  0  0  3  0  0  0  0  0  0
  185.5510  173.9490  134.8400 O   0  0  0  0  0  0  0  0  0  0  0  0
  187.0860  178.6950  141.7200 O   0  0  0  0  0  0  0  0  0  0  0  0
  187.3570  177.8620  142.8390 C   0  0  0  0  0  1  0  0  0  0  0  0
  1 12  1  6  0  0  0
  1 19  1  0  0  0  0
  1  7  1  0  0  0  0
  2 15  2  0  0  0  0
  3  5  1  1  0  0  0
  3 20  1  0  0  0  0
  6 16  1  0  0  0  0
  7 24  2  0  0  0  0
  8  9  1  0  0  0  0
  9 15  1  0  0  0  0
 10  3  1  0  0  0  0
 11  4  1  6  0  0  0
 11  8  1  0  0  0  0
 11 19  1  0  0  0  0
 13 21  1  0  0  0  0
 14 13  1  1  0  0  0
 14 26  1  0  0  0  0
 14 22  1  0  0  0  0
 17 10  1  0  0  0  0
 18 13  2  0  0  0  0
 19  7  1  1  0  0  0
 19  2  1  0  0  0  0
 20 29  1  0  0  0  0
 20 16  2  0  0  0  0
 21 17  1  0  0  0  0
 22 23  1  6  0  0  0
 22 12  1  0  0  0  0
 23  4  1  0  0  0  0
 24  6  2  0  0  0  0
 26 28  1  6  0  0  0
 27 28  1  0  0  0  0
 27 25  1  1  0  0  0
 27 26  1  0  0  0  0
 29 30  1  0  0  0  0
M  END
>  <MODEL>
3

>  <REMARK>
 VINA RESULT:      -5.2      2.411      3.169
  Name = 
  2 active torsions:
  status: ('A' for Active; 'I' for Inactive)
    1  A    between atoms: O_6  and  C_25
    2  A    between atoms: C_16  and  C_19
                            x       y       z     vdW  Elec       q    Type
                         _______ _______ _______ _____ _____    ______ ____

>  <TORSDO>
F 2

$$$$
=
 OpenBabel10222417413D

 30 34  0  0  1  0  0  0  0  0999 V2000
  184.1320  174.7640  137.8400 C   0  0  2  0  0  3  0  0  0  0  0  0
  182.4080  173.1460  137.1180 N   0  0  0  0  0  0  0  0  0  0  0  0
  183.1920  178.9950  139.6220 C   0  0  2  0  0  3  0  0  0  0  0  0
  183.9250  175.4910  134.6040 C   0  0  0  0  0  2  0  0  0  0  0  0
  182.5150  179.0070  138.4010 O   0  0  0  0  0  1  0  0  0  0  0  0
  181.0230  176.7860  139.3890 C   0  0  0  0  0  3  0  0  0  0  0  0
  182.7270  175.3420  138.0380 C   0  0  0  0  0  0  0  0  0  0  0  0
  181.6930  174.7530  134.9530 N   0  0  0  0  0  2  0  0  0  0  0  0
  180.7860  173.8570  135.5540 N   0  0  0  0  0  2  0  0  0  0  0  0
  184.5280  178.2830  139.5050 C   0  0  0  0  0  2  0  0  0  0  0  0
  182.8370  175.0240  135.5130 C   0  0  1  0  0  3  0  0  0  0  0  0
  184.9570  175.9510  137.6430 N   0  0  0  0  0  2  0  0  0  0  0  0
  187.0150  177.9950  137.1960 C   0  0  0  0  0  0  0  0  0  0  0  0
  187.0930  176.5910  136.6350 C   0  0  2  0  0  3  0  0  0  0  0  0
  181.2630  172.9330  136.5440 C   0  0  0  0  0  3  0  0  0  0  0  0
  181.4000  177.5090  140.6130 C   0  0  0  0  0  3  0  0  0  0  0  0
  185.3380  178.9430  138.5780 O   0  0  0  0  0  0  0  0  0  0  0  0
  187.3160  178.9440  136.4850 O   0  0  0  0  0  0  0  0  0  0  0  0
  183.1060  174.4130  136.8840 C   0  0  1  0  0  0  0  0  0  0  0  0
  182.3590  178.4390  140.7580 C   0  0  0  0  0  0  0  0  0  0  0  0
  186.5490  178.2440  138.6000 C   0  0  0  0  0  2  0  0  0  0  0  0
  185.7050  175.9680  136.4020 C   0  0  2  0  0  3  0  0  0  0  0  0
  184.7700  176.9640  135.2100 S   0  0  0  0  0  0  0  0  0  0  0  0
  181.8800  176.0740  138.7080 C   0  0  0  0  0  0  0  0  0  0  0  0
  189.5630  173.8940  137.1960 N   0  0  0  0  0  1  0  0  0  0  0  0
  187.9680  175.6670  137.4870 C   0  0  1  0  0  3  0  0  0  0  0  0
  189.0740  175.1430  136.6470 C   0  0  1  0  0  3  0  0  0  0  0  0
  189.2790  176.1790  137.5800 O   0  0  0  0  0  0  0  0  0  0  0  0
  182.5830  178.9080  142.0570 O   0  0  0  0  0  0  0  0  0  0  0  0
  181.5460  179.0130  143.0230 C   0  0  0  0  0  1  0  0  0  0  0  0
  1 12  1  6  0  0  0
  1  7  1  0  0  0  0
  3  5  1  6  0  0  0
  3 20  1  0  0  0  0
  4 23  1  0  0  0  0
  6 16  1  0  0  0  0
  7 24  2  0  0  0  0
  8 11  1  0  0  0  0
  8  9  1  0  0  0  0
  9 15  1  0  0  0  0
 10  3  1  0  0  0  0
 11  4  1  6  0  0  0
 11 19  1  0  0  0  0
 13 21  1  0  0  0  0
 14 13  1  1  0  0  0
 14 26  1  0  0  0  0
 15  2  2  0  0  0  0
 16 20  2  0  0  0  0
 17 21  1  0  0  0  0
 17 10  1  0  0  0  0
 18 13  2  0  0  0  0
 19  2  1  1  0  0  0
 19  1  1  0  0  0  0
 19  7  1  0  0  0  0
 20 29  1  0  0  0  0
 22 23  1  6  0  0  0
 22 14  1  0  0  0  0
 22 12  1  0  0  0  0
 24  6  2  0  0  0  0
 26 28  1  1  0  0  0
 27 25  1  1  0  0  0
 27 26  1  0  0  0  0
 27 28  1  0  0  0  0
 29 30  1  0  0  0  0
M  END
>  <MODEL>
4

>  <REMARK>
 VINA RESULT:      -5.1      3.681      5.488
  Name = 
  2 active torsions:
  status: ('A' for Active; 'I' for Inactive)
    1  A    between atoms: O_6  and  C_25
    2  A    between atoms: C_16  and  C_19
                            x       y       z     vdW  Elec       q    Type
                         _______ _______ _______ _____ _____    ______ ____

>  <TORSDO>
F 2

$$$$
=
 OpenBabel10222417413D

 30 34  0  0  1  0  0  0  0  0999 V2000
  181.2310  177.2400  140.7560 C   0  0  2  0  0  3  0  0  0  0  0  0
  180.0840  177.9290  142.8340 N   0  0  0  0  0  0  0  0  0  0  0  0
  185.3300  178.9870  139.3060 C   0  0  2  0  0  3  0  0  0  0  0  0
  179.2020  179.5980  139.5850 C   0  0  0  0  0  2  0  0  0  0  0  0
  184.5390  180.1260  139.4680 O   0  0  0  0  0  1  0  0  0  0  0  0
  184.3070  179.3780  142.2100 C   0  0  0  0  0  3  0  0  0  0  0  0
  182.0330  178.3220  141.4860 C   0  0  0  0  0  0  0  0  0  0  0  0
  179.5190  180.4490  141.7810 N   0  0  0  0  0  2  0  0  0  0  0  0
  179.6480  180.2270  143.1670 N   0  0  0  0  0  2  0  0  0  0  0  0
  184.5270  177.8340  138.7310 C   0  0  0  0  0  2  0  0  0  0  0  0
  179.8650  179.5350  140.9210 C   0  0  1  0  0  3  0  0  0  0  0  0
  181.6050  177.4320  139.3590 N   0  0  0  0  0  2  0  0  0  0  0  0
  182.0280  177.4170  136.4540 C   0  0  0  0  0  0  0  0  0  0  0  0
  180.7420  176.9700  137.1150 C   0  0  2  0  0  3  0  0  0  0  0  0
  179.7610  178.8820  143.6550 C   0  0  0  0  0  3  0  0  0  0  0  0
  185.6030  178.8060  141.8140 C   0  0  0  0  0  3  0  0  0  0  0  0
  184.0250  178.1840  137.4740 O   0  0  0  0  0  0  0  0  0  0  0  0
  181.9760  178.1170  135.4520 O   0  0  0  0  0  0  0  0  0  0  0  0
  180.5040  178.2650  141.4710 C   0  0  1  0  0  0  0  0  0  0  0  0
  186.0600  178.5850  140.5700 C   0  0  0  0  0  0  0  0  0  0  0  0
  183.3640  177.0380  137.0220 C   0  0  0  0  0  2  0  0  0  0  0  0
  180.4920  177.6730  138.4630 C   0  0  2  0  0  3  0  0  0  0  0  0
  180.3650  179.4640  138.2120 S   0  0  0  0  0  0  0  0  0  0  0  0
  183.1710  178.8550  141.8360 C   0  0  0  0  0  0  0  0  0  0  0  0
  179.0490  173.6800  137.0620 N   0  0  0  0  0  1  0  0  0  0  0  0
  180.6610  175.4490  137.2740 C   0  0  1  0  0  3  0  0  0  0  0  0
  179.4900  174.9480  136.5130 C   0  0  1  0  0  3  0  0  0  0  0  0
  180.8040  174.8150  136.0210 O   0  0  0  0  0  0  0  0  0  0  0  0
  187.2960  177.9380  140.4640 O   0  0  0  0  0  0  0  0  0  0  0  0
  188.2360  178.2450  139.4440 C   0  0  0  0  0  1  0  0  0  0  0  0
  1 12  1  6  0  0  0
  1 19  1  0  0  0  0
  1  7  1  0  0  0  0
  2 15  2  0  0  0  0
  3  5  1  1  0  0  0
  3 20  1  0  0  0  0
  7 24  2  0  0  0  0
  8  9  1  0  0  0  0
  9 15  1  0  0  0  0
 10  3  1  0  0  0  0
 11  4  1  1  0  0  0
 11 19  1  0  0  0  0
 11  8  1  0  0  0  0
 13 21  1  0  0  0  0
 14 13  1  1  0  0  0
 14 26  1  0  0  0  0
 14 22  1  0  0  0  0
 16  6  1  0  0  0  0
 17 10  1  0  0  0  0
 18 13  2  0  0  0  0
 19  7  1  1  0  0  0
 19  2  1  0  0  0  0
 20 16  2  0  0  0  0
 21 17  1  0  0  0  0
 22 23  1  6  0  0  0
 22 12  1  0  0  0  0
 23  4  1  0  0  0  0
 24  6  2  0  0  0  0
 26 28  1  6  0  0  0
 27 25  1  1  0  0  0
 27 26  1  0  0  0  0
 28 27  1  0  0  0  0
 29 20  1  0  0  0  0
 30 29  1  0  0  0  0
M  END
>  <MODEL>
5

>  <REMARK>
 VINA RESULT:      -5.0      2.277      3.203
  Name = 
  2 active torsions:
  status: ('A' for Active; 'I' for Inactive)
    1  A    between atoms: O_6  and  C_25
    2  A    between atoms: C_16  and  C_19
                            x       y       z     vdW  Elec       q    Type
                         _______ _______ _______ _____ _____    ______ ____

>  <TORSDO>
F 2

$$$$
=
 OpenBabel10222417413D

 30 34  0  0  1  0  0  0  0  0999 V2000
  182.2760  176.7360  139.9150 C   0  0  2  0  0  3  0  0  0  0  0  0
  181.0010  177.8260  141.7300 N   0  0  0  0  0  0  0  0  0  0  0  0
  186.4190  178.2510  138.3300 C   0  0  2  0  0  3  0  0  0  0  0  0
  180.2740  178.7190  138.1530 C   0  0  0  0  0  2  0  0  0  0  0  0
  185.5980  179.3730  138.1980 O   0  0  0  0  0  1  0  0  0  0  0  0
  185.2240  179.2340  141.0220 C   0  0  0  0  0  3  0  0  0  0  0  0
  183.0150  177.9760  140.4310 C   0  0  0  0  0  0  0  0  0  0  0  0
  180.4490  180.0380  140.1230 N   0  0  0  0  0  2  0  0  0  0  0  0
  180.5030  180.1270  141.5280 N   0  0  0  0  0  2  0  0  0  0  0  0
  185.6710  176.9760  137.9820 C   0  0  0  0  0  2  0  0  0  0  0  0
  180.8610  178.9690  139.5030 C   0  0  1  0  0  3  0  0  0  0  0  0
  182.7260  176.6310  138.5310 N   0  0  0  0  0  2  0  0  0  0  0  0
  183.3140  175.9970  135.7270 C   0  0  0  0  0  0  0  0  0  0  0  0
  182.0010  175.6650  136.4020 C   0  0  2  0  0  3  0  0  0  0  0  0
  180.6130  178.9250  142.3050 C   0  0  0  0  0  3  0  0  0  0  0  0
  186.5510  178.6300  140.8280 C   0  0  0  0  0  3  0  0  0  0  0  0
  185.2350  177.0290  136.6550 O   0  0  0  0  0  0  0  0  0  0  0  0
  183.3060  176.4600  134.5940 O   0  0  0  0  0  0  0  0  0  0  0  0
  181.4910  177.8700  140.3500 C   0  0  1  0  0  0  0  0  0  0  0  0
  187.0820  178.1570  139.6880 C   0  0  0  0  0  0  0  0  0  0  0  0
  184.6220  175.7920  136.4320 C   0  0  0  0  0  2  0  0  0  0  0  0
  181.6610  176.6370  137.5480 C   0  0  2  0  0  3  0  0  0  0  0  0
  181.5160  178.3260  136.9050 S   0  0  0  0  0  0  0  0  0  0  0  0
  184.1210  178.6070  140.7140 C   0  0  0  0  0  0  0  0  0  0  0  0
  180.3670  172.4020  137.0130 N   0  0  0  0  0  1  0  0  0  0  0  0
  181.9400  174.2130  136.8860 C   0  0  1  0  0  3  0  0  0  0  0  0
  180.8060  173.5300  136.2160 C   0  0  1  0  0  3  0  0  0  0  0  0
  182.1390  173.3260  135.8070 O   0  0  0  0  0  0  0  0  0  0  0  0
  188.3340  177.5410  139.7900 O   0  0  0  0  0  0  0  0  0  0  0  0
  189.4410  177.9160  138.9810 C   0  0  0  0  0  1  0  0  0  0  0  0
  1 12  1  6  0  0  0
  1 19  1  0  0  0  0
  1  7  1  0  0  0  0
  2 15  2  0  0  0  0
  3  5  1  1  0  0  0
  3 20  1  0  0  0  0
  7 24  2  0  0  0  0
  8  9  1  0  0  0  0
  9 15  1  0  0  0  0
 10  3  1  0  0  0  0
 11  4  1  1  0  0  0
 11  8  1  0  0  0  0
 11 19  1  0  0  0  0
 13 21  1  0  0  0  0
 14 13  1  1  0  0  0
 14 26  1  0  0  0  0
 14 22  1  0  0  0  0
 16  6  1  0  0  0  0
 17 10  1  0  0  0  0
 18 13  2  0  0  0  0
 19  7  1  1  0  0  0
 19  2  1  0  0  0  0
 20 29  1  0  0  0  0
 20 16  2  0  0  0  0
 21 17  1  0  0  0  0
 22 23  1  6  0  0  0
 22 12  1  0  0  0  0
 23  4  1  0  0  0  0
 24  6  2  0  0  0  0
 26 28  1  6  0  0  0
 27 26  1  0  0  0  0
 27 25  1  1  0  0  0
 28 27  1  0  0  0  0
 30 29  1  0  0  0  0
M  END
>  <MODEL>
6

>  <REMARK>
 VINA RESULT:      -4.7      2.447      3.577
  Name = 
  2 active torsions:
  status: ('A' for Active; 'I' for Inactive)
    1  A    between atoms: O_6  and  C_25
    2  A    between atoms: C_16  and  C_19
                            x       y       z     vdW  Elec       q    Type
                         _______ _______ _______ _____ _____    ______ ____

>  <TORSDO>
F 2

$$$$
=
 OpenBabel10222417413D

 30 34  0  0  1  0  0  0  0  0999 V2000
  182.2550  178.4380  139.6570 C   0  0  2  0  0  3  0  0  0  0  0  0
  181.7950  178.6290  142.0780 N   0  0  0  0  0  0  0  0  0  0  0  0
  179.9630  180.8330  136.3440 C   0  0  2  0  0  3  0  0  0  0  0  0
  180.1150  175.9290  140.0760 C   0  0  0  0  0  2  0  0  0  0  0  0
  178.9360  180.1900  137.0380 O   0  0  0  0  0  1  0  0  0  0  0  0
  179.8180  181.6190  139.3440 C   0  0  0  0  0  3  0  0  0  0  0  0
  181.1130  179.4260  139.9170 C   0  0  0  0  0  0  0  0  0  0  0  0
  179.3220  177.3720  141.7890 N   0  0  0  0  0  2  0  0  0  0  0  0
  179.5830  178.2840  142.8320 N   0  0  0  0  0  2  0  0  0  0  0  0
  181.1810  179.9370  136.2050 C   0  0  0  0  0  2  0  0  0  0  0  0
  180.1520  177.2370  140.7950 C   0  0  1  0  0  3  0  0  0  0  0  0
  181.9610  177.9340  138.3190 N   0  0  0  0  0  2  0  0  0  0  0  0
  181.8060  176.6290  135.6950 C   0  0  0  0  0  0  0  0  0  0  0  0
  182.4340  175.9870  136.9140 C   0  0  2  0  0  3  0  0  0  0  0  0
  180.9230  178.7580  143.0310 C   0  0  0  0  0  3  0  0  0  0  0  0
  180.2110  182.4980  138.2330 C   0  0  0  0  0  3  0  0  0  0  0  0
  180.8430  178.7850  135.4900 O   0  0  0  0  0  0  0  0  0  0  0  0
  181.0780  175.9620  134.9730 O   0  0  0  0  0  0  0  0  0  0  0  0
  181.3550  178.1710  140.7570 C   0  0  1  0  0  0  0  0  0  0  0  0
  180.3240  182.1820  136.9320 C   0  0  0  0  0  0  0  0  0  0  0  0
  182.0420  178.0750  135.3730 C   0  0  0  0  0  2  0  0  0  0  0  0
  181.8210  176.4940  138.2330 C   0  0  2  0  0  3  0  0  0  0  0  0
  180.0500  176.1100  138.2820 S   0  0  0  0  0  0  0  0  0  0  0  0
  180.4600  180.5160  139.6210 C   0  0  0  0  0  0  0  0  0  0  0  0
  185.9100  174.7570  137.2150 N   0  0  0  0  0  1  0  0  0  0  0  0
  183.9580  176.1290  136.9330 C   0  0  1  0  0  3  0  0  0  0  0  0
  184.5680  174.8010  136.6690 C   0  0  1  0  0  3  0  0  0  0  0  0
  184.4990  175.7960  135.6730 O   0  0  0  0  0  0  0  0  0  0  0  0
  180.8110  183.1830  136.0850 O   0  0  0  0  0  0  0  0  0  0  0  0
  180.3040  183.3890  134.7720 C   0  0  0  0  0  1  0  0  0  0  0  0
  1 12  1  6  0  0  0
  1  7  1  0  0  0  0
  1 19  1  0  0  0  0
  2 15  2  0  0  0  0
  3 20  1  0  0  0  0
  3  5  1  1  0  0  0
  6 24  2  0  0  0  0
  8  9  1  0  0  0  0
  9 15  1  0  0  0  0
 10  3  1  0  0  0  0
 11  4  1  1  0  0  0
 11  8  1  0  0  0  0
 14 13  1  6  0  0  0
 14 26  1  0  0  0  0
 14 22  1  0  0  0  0
 16  6  1  0  0  0  0
 17 10  1  0  0  0  0
 18 13  2  0  0  0  0
 19  7  1  6  0  0  0
 19 11  1  0  0  0  0
 19  2  1  0  0  0  0
 20 16  2  0  0  0  0
 21 17  1  0  0  0  0
 21 13  1  0  0  0  0
 22 23  1  6  0  0  0
 22 12  1  0  0  0  0
 23  4  1  0  0  0  0
 24  7  2  0  0  0  0
 26 28  1  6  0  0  0
 27 26  1  0  0  0  0
 27 25  1  1  0  0  0
 28 27  1  0  0  0  0
 29 20  1  0  0  0  0
 30 29  1  0  0  0  0
M  END
>  <MODEL>
7

>  <REMARK>
 VINA RESULT:      -4.7      3.856      5.945
  Name = 
  2 active torsions:
  status: ('A' for Active; 'I' for Inactive)
    1  A    between atoms: O_6  and  C_25
    2  A    between atoms: C_16  and  C_19
                            x       y       z     vdW  Elec       q    Type
                         _______ _______ _______ _____ _____    ______ ____

>  <TORSDO>
F 2

$$$$
=
 OpenBabel10222417413D

 30 34  0  0  1  0  0  0  0  0999 V2000
  183.8670  175.6710  137.9280 C   0  0  2  0  0  3  0  0  0  0  0  0
  181.5630  176.5030  138.2600 N   0  0  0  0  0  0  0  0  0  0  0  0
  187.7270  178.1600  138.8610 C   0  0  2  0  0  3  0  0  0  0  0  0
  183.1960  176.8450  134.8920 C   0  0  0  0  0  2  0  0  0  0  0  0
  187.0190  178.9870  137.9860 O   0  0  0  0  0  1  0  0  0  0  0  0
  184.9330  178.9880  139.9310 C   0  0  0  0  0  3  0  0  0  0  0  0
  183.8790  177.1090  138.4590 C   0  0  0  0  0  0  0  0  0  0  0  0
  181.8330  178.3220  136.1620 N   0  0  0  0  0  2  0  0  0  0  0  0
  180.9480  178.5420  137.2360 N   0  0  0  0  0  2  0  0  0  0  0  0
  187.6050  176.7000  138.4600 C   0  0  0  0  0  2  0  0  0  0  0  0
  182.7160  177.3660  136.2070 C   0  0  1  0  0  3  0  0  0  0  0  0
  185.1160  175.5810  137.1790 N   0  0  0  0  0  2  0  0  0  0  0  0
  187.4750  174.9040  135.5690 C   0  0  0  0  0  0  0  0  0  0  0  0
  186.1140  174.2700  135.3690 C   0  0  2  0  0  3  0  0  0  0  0  0
  180.7230  177.4910  138.1880 C   0  0  0  0  0  3  0  0  0  0  0  0
  186.1440  178.7720  140.7370 C   0  0  0  0  0  3  0  0  0  0  0  0
  188.1330  176.5140  137.1790 O   0  0  0  0  0  0  0  0  0  0  0  0
  188.1280  175.2470  134.5940 O   0  0  0  0  0  0  0  0  0  0  0  0
  182.8160  176.5670  137.5020 C   0  0  1  0  0  0  0  0  0  0  0  0
  187.3550  178.3750  140.3130 C   0  0  0  0  0  0  0  0  0  0  0  0
  188.0240  175.1400  136.9450 C   0  0  0  0  0  2  0  0  0  0  0  0
  184.9600  175.2000  135.7890 C   0  0  2  0  0  3  0  0  0  0  0  0
  184.9920  176.7160  134.7970 S   0  0  0  0  0  0  0  0  0  0  0  0
  184.4150  178.0500  139.1850 C   0  0  0  0  0  0  0  0  0  0  0  0
  185.0340  170.7430  135.6510 N   0  0  0  0  0  1  0  0  0  0  0  0
  185.9930  172.9080  136.0570 C   0  0  1  0  0  3  0  0  0  0  0  0
  185.6930  171.8770  135.0330 C   0  0  1  0  0  3  0  0  0  0  0  0
  186.9840  172.0250  135.5780 O   0  0  0  0  0  0  0  0  0  0  0  0
  188.3210  178.1500  141.3000 O   0  0  0  0  0  0  0  0  0  0  0  0
  188.0210  177.5080  142.5330 C   0  0  0  0  0  1  0  0  0  0  0  0
  1 12  1  6  0  0  0
  1  7  1  0  0  0  0
  3  5  1  6  0  0  0
  3 20  1  0  0  0  0
  6 16  1  0  0  0  0
  7 24  2  0  0  0  0
  8 11  1  0  0  0  0
  8  9  1  0  0  0  0
  9 15  1  0  0  0  0
 10  3  1  0  0  0  0
 11  4  1  6  0  0  0
 11 19  1  0  0  0  0
 13 21  1  0  0  0  0
 14 13  1  1  0  0  0
 14 22  1  0  0  0  0
 14 26  1  0  0  0  0
 15  2  2  0  0  0  0
 17 10  1  0  0  0  0
 18 13  2  0  0  0  0
 19  1  1  0  0  0  0
 19  2  1  1  0  0  0
 19  7  1  0  0  0  0
 20 16  2  0  0  0  0
 20 29  1  0  0  0  0
 21 17  1  0  0  0  0
 22 23  1  6  0  0  0
 22 12  1  0  0  0  0
 23  4  1  0  0  0  0
 24  6  2  0  0  0  0
 26 28  1  6  0  0  0
 27 28  1  0  0  0  0
 27 25  1  1  0  0  0
 27 26  1  0  0  0  0
 29 30  1  0  0  0  0
M  END
>  <MODEL>
8

>  <REMARK>
 VINA RESULT:      -4.5      3.300      4.658
  Name = 
  2 active torsions:
  status: ('A' for Active; 'I' for Inactive)
    1  A    between atoms: O_6  and  C_25
    2  A    between atoms: C_16  and  C_19
                            x       y       z     vdW  Elec       q    Type
                         _______ _______ _______ _____ _____    ______ ____

>  <TORSDO>
F 2

$$$$
=
 OpenBabel10222417413D

 30 34  0  0  1  0  0  0  0  0999 V2000
  185.5110  174.6540  137.6540 C   0  0  2  0  0  3  0  0  0  0  0  0
  187.6910  173.5500  137.2820 N   0  0  0  0  0  0  0  0  0  0  0  0
  181.4510  173.1300  135.8780 C   0  0  2  0  0  3  0  0  0  0  0  0
  186.6290  176.3670  135.0340 C   0  0  0  0  0  2  0  0  0  0  0  0
  182.2590  173.2690  134.7480 O   0  0  0  0  0  1  0  0  0  0  0  0
  183.9910  171.3470  135.9490 C   0  0  0  0  0  3  0  0  0  0  0  0
  185.3510  173.4240  136.7540 C   0  0  0  0  0  0  0  0  0  0  0  0
  187.6990  174.2910  134.5940 N   0  0  0  0  0  2  0  0  0  0  0  0
  188.3830  173.1500  135.0590 N   0  0  0  0  0  2  0  0  0  0  0  0
  181.6970  174.2500  136.8740 C   0  0  0  0  0  2  0  0  0  0  0  0
  186.8610  174.9280  135.3600 C   0  0  1  0  0  3  0  0  0  0  0  0
  184.4090  175.5160  137.2390 N   0  0  0  0  0  2  0  0  0  0  0  0
  182.3810  177.5840  136.7690 C   0  0  0  0  0  0  0  0  0  0  0  0
  183.7810  177.8820  137.2630 C   0  0  2  0  0  3  0  0  0  0  0  0
  188.4900  172.9230  136.4720 C   0  0  0  0  0  3  0  0  0  0  0  0
  182.6720  171.0060  136.5050 C   0  0  0  0  0  3  0  0  0  0  0  0
  181.3980  175.4820  136.2870 O   0  0  0  0  0  0  0  0  0  0  0  0
  181.8860  178.2940  135.9040 O   0  0  0  0  0  0  0  0  0  0  0  0
  186.5810  174.3340  136.7350 C   0  0  1  0  0  0  0  0  0  0  0  0
  181.5660  171.7670  136.5270 C   0  0  0  0  0  0  0  0  0  0  0  0
  181.6010  176.4200  137.3040 C   0  0  0  0  0  2  0  0  0  0  0  0
  184.8090  176.8360  136.7930 C   0  0  2  0  0  3  0  0  0  0  0  0
  184.8800  176.8060  134.9820 S   0  0  0  0  0  0  0  0  0  0  0  0
  184.6640  172.3940  136.3440 C   0  0  0  0  0  0  0  0  0  0  0  0
  185.0300  179.3600  140.4170 N   0  0  0  0  0  1  0  0  0  0  0  0
  183.8420  178.0590  138.7830 C   0  0  1  0  0  3  0  0  0  0  0  0
  184.4480  179.3780  139.0880 C   0  0  1  0  0  3  0  0  0  0  0  0
  183.0580  179.1630  139.1810 O   0  0  0  0  0  0  0  0  0  0  0  0
  180.4600  171.2430  137.2050 O   0  0  0  0  0  0  0  0  0  0  0  0
  179.1210  171.5350  136.8260 C   0  0  0  0  0  1  0  0  0  0  0  0
  1  7  1  6  0  0  0
  3  5  1  6  0  0  0
  3 20  1  0  0  0  0
  3 10  1  0  0  0  0
  6 24  2  0  0  0  0
  6 16  1  0  0  0  0
  8  9  1  0  0  0  0
  8 11  1  0  0  0  0
  9 15  1  0  0  0  0
 11  4  1  1  0  0  0
 11 19  1  0  0  0  0
 12  1  1  0  0  0  0
 13 21  1  0  0  0  0
 14 13  1  1  0  0  0
 14 26  1  0  0  0  0
 15  2  2  0  0  0  0
 16 20  2  0  0  0  0
 17 10  1  0  0  0  0
 17 21  1  0  0  0  0
 18 13  2  0  0  0  0
 19  7  1  6  0  0  0
 19  2  1  0  0  0  0
 19  1  1  0  0  0  0
 20 29  1  0  0  0  0
 22 23  1  6  0  0  0
 22 12  1  0  0  0  0
 22 14  1  0  0  0  0
 23  4  1  0  0  0  0
 24  7  2  0  0  0  0
 26 27  1  0  0  0  0
 26 28  1  6  0  0  0
 27 28  1  0  0  0  0
 27 25  1  1  0  0  0
 30 29  1  0  0  0  0
M  END
>  <MODEL>
9

>  <REMARK>
 VINA RESULT:      -4.5      4.234      8.612
  Name = 
  2 active torsions:
  status: ('A' for Active; 'I' for Inactive)
    1  A    between atoms: O_6  and  C_25
    2  A    between atoms: C_16  and  C_19
                            x       y       z     vdW  Elec       q    Type
                         _______ _______ _______ _____ _____    ______ ____

>  <TORSDO>
F 2

$$$$
