=
 OpenBabel10222419513D

 50 56  0  0  1  0  0  0  0  0999 V2000
  192.9810  175.9000  137.8360 N   0  0  0  0  0  0  0  0  0  0  0  0
  190.2500  177.3580  141.0150 N   0  0  0  0  0  0  0  0  0  0  0  0
  188.6710  177.3730  139.1660 C   0  0  0  0  0  0  0  0  0  0  0  0
  189.9230  177.0900  139.6300 C   0  0  0  0  0  0  0  0  0  0  0  0
  187.6950  178.1220  140.0430 C   0  0  0  0  0  2  0  0  0  0  0  0
  187.9400  177.8910  141.5260 C   0  0  0  0  0  2  0  0  0  0  0  0
  193.7910  174.0780  136.9590 C   0  0  0  0  0  3  0  0  0  0  0  0
  192.4530  176.7700  138.8670 C   0  0  0  0  0  2  0  0  0  0  0  0
  188.2170  177.1520  137.7600 C   0  0  0  0  0  0  0  0  0  0  0  0
  189.3730  175.0040  137.5310 C   0  0  1  0  0  3  0  0  0  0  0  0
  192.0220  175.1870  137.2900 C   0  0  0  0  0  0  0  0  0  0  0  0
  192.4500  174.0390  136.7410 N   0  0  0  0  0  0  0  0  0  0  0  0
  190.9660  176.4840  138.7600 C   0  0  0  0  0  0  0  0  0  0  0  0
  189.4000  173.9030  136.4870 C   0  0  0  0  0  1  0  0  0  0  0  0
  190.7330  175.5380  137.8470 C   0  0  0  0  0  0  0  0  0  0  0  0
  189.3890  178.2190  141.8190 C   0  0  0  0  0  2  0  0  0  0  0  0
  187.3270  178.1140  137.1830 N   0  0  0  0  0  2  0  0  0  0  0  0
  188.5360  176.0950  137.0630 N   0  0  0  0  0  0  0  0  0  0  0  0
  194.1230  175.2130  137.7010 C   0  0  0  0  0  3  0  0  0  0  0  0
  186.8430  177.9900  135.8700 N   0  0  0  0  0  2  0  0  0  0  0  0
  185.5700  177.2900  135.9320 C   0  0  0  0  0  2  0  0  0  0  0  0
  185.1240  177.1580  137.3860 C   0  0  0  0  0  2  0  0  0  0  0  0
  182.4560  178.7850  140.4100 C   0  0  0  0  0  0  0  0  0  0  0  0
  183.5520  178.4970  139.7970 N   0  0  0  0  0  0  0  0  0  0  0  0
  182.9390  177.4030  136.1870 C   0  0  0  0  0  2  0  0  0  0  0  0
  181.8590  179.1340  138.2400 C   0  0  2  0  0  3  0  0  0  0  0  0
  182.3350  178.7210  141.8260 N   0  0  0  0  0  1  0  0  0  0  0  0
  181.6360  178.2150  136.1950 C   0  0  0  0  0  2  0  0  0  0  0  0
  181.0750  178.2370  137.4850 O   0  0  0  0  0  0  0  0  0  0  0  0
  183.6190  177.3610  137.5680 C   0  0  2  0  0  0  0  0  0  0  0  0
  183.3330  178.6620  138.3650 C   0  0  2  0  0  3  0  0  0  0  0  0
  181.4110  179.1500  139.5840 O   0  0  0  0  0  0  0  0  0  0  0  0
  183.0800  176.1370  138.3030 C   0  0  0  0  0  1  0  0  0  0  0  0
  191.2180  176.5150  141.7130 C   0  0  0  0  0  2  0  0  0  0  0  0
  191.6700  177.1550  142.9880 C   0  0  0  0  0  0  0  0  0  0  0  0
  192.0180  178.3230  142.9960 O   0  0  0  0  0  0  0  0  0  0  0  0
  191.6860  176.3520  144.2450 C   0  0  0  0  0  2  0  0  0  0  0  0
  191.3720  177.2320  145.4430 C   0  0  0  0  0  2  0  0  0  0  0  0
  189.9790  177.6550  145.3980 N   0  0  0  0  0  2  0  0  0  0  0  0
  189.0140  177.3000  146.3980 C   0  0  0  0  0  0  0  0  0  0  0  0
  189.3760  176.6560  147.4220 O   0  0  0  0  0  0  0  0  0  0  0  0
  186.0240  180.1190  146.9500 F   0  0  0  0  0  0  0  0  0  0  0  0
  187.5980  177.6790  146.2280 C   0  0  0  0  0  0  0  0  0  0  0  0
  187.0640  177.7320  144.9990 C   0  0  0  0  0  3  0  0  0  0  0  0
  185.5580  178.8330  147.1690 C   0  0  2  0  0  3  0  0  0  0  0  0
  183.7630  179.2670  145.6330 O   0  0  0  0  0  1  0  0  0  0  0  0
  185.6450  178.0650  144.7860 C   0  0  0  0  0  0  0  0  0  0  0  0
  185.1730  178.0510  143.6180 O   0  0  0  0  0  0  0  0  0  0  0  0
  186.7360  177.8950  147.4490 C   0  0  0  0  0  2  0  0  0  0  0  0
  184.7500  178.3350  145.9650 C   0  0  1  0  0  3  0  0  0  0  0  0
  1  8  1  0  0  0  0
  2 34  1  0  0  0  0
  2 16  1  0  0  0  0
  3  4  2  0  0  0  0
  3  5  1  0  0  0  0
  4  2  1  0  0  0  0
  5  6  1  0  0  0  0
  6 16  1  0  0  0  0
  7 19  2  0  0  0  0
  9  3  1  0  0  0  0
 10 14  1  6  0  0  0
 10 15  1  0  0  0  0
 11  1  1  0  0  0  0
 11 15  1  0  0  0  0
 12  7  1  0  0  0  0
 12 11  2  0  0  0  0
 13  8  1  0  0  0  0
 13  4  1  0  0  0  0
 15 13  2  0  0  0  0
 17  9  1  0  0  0  0
 18 10  1  0  0  0  0
 18  9  2  0  0  0  0
 19  1  1  0  0  0  0
 20 21  1  0  0  0  0
 20 17  1  0  0  0  0
 21 22  1  0  0  0  0
 22 30  1  0  0  0  0
 23 27  1  0  0  0  0
 24 23  2  0  0  0  0
 25 28  1  0  0  0  0
 25 30  1  0  0  0  0
 26 29  1  6  0  0  0
 26 31  1  0  0  0  0
 26 32  1  0  0  0  0
 28 29  1  0  0  0  0
 30 33  1  1  0  0  0
 30 31  1  0  0  0  0
 31 24  1  1  0  0  0
 32 23  1  0  0  0  0
 34 35  1  0  0  0  0
 35 36  2  0  0  0  0
 35 37  1  0  0  0  0
 37 38  1  0  0  0  0
 39 38  1  0  0  0  0
 39 40  1  0  0  0  0
 40 41  2  0  0  0  0
 43 40  1  0  0  0  0
 43 49  1  0  0  0  0
 44 43  2  0  0  0  0
 45 42  1  6  0  0  0
 45 49  1  0  0  0  0
 47 44  1  0  0  0  0
 47 50  1  0  0  0  0
 48 47  2  0  0  0  0
 50 46  1  6  0  0  0
 50 45  1  0  0  0  0
M  END
>  <MODEL>
1

>  <REMARK>
 VINA RESULT:      -9.4      0.000      0.000
  Name = 
  10 active torsions:
  status: ('A' for Active; 'I' for Inactive)
    1  A    between atoms: N_2  and  C_43
    2  A    between atoms: C_7  and  C_18
    3  A    between atoms: C_7  and  N_32
    4  A    between atoms: C_13  and  C_39
    5  A    between atoms: C_15  and  C_31
    6  A    between atoms: C_15  and  N_33
    7  A    between atoms: C_18  and  C_23
    8  A    between atoms: C_23  and  C_43
    9  A    between atoms: C_31  and  C_38
   10  A    between atoms: N_33  and  N_46
                            x       y       z     vdW  Elec       q    Type
                         _______ _______ _______ _____ _____    ______ ____

>  <TORSDO>
F 10

$$$$
=
 OpenBabel10222419513D

 50 56  0  0  1  0  0  0  0  0999 V2000
  184.9700  178.3960  138.7320 N   0  0  0  0  0  0  0  0  0  0  0  0
  185.1670  178.7130  143.1530 N   0  0  0  0  0  0  0  0  0  0  0  0
  182.7600  178.9460  142.8940 C   0  0  0  0  0  0  0  0  0  0  0  0
  183.9810  178.7300  142.3220 C   0  0  0  0  0  0  0  0  0  0  0  0
  182.6710  179.3390  144.3500 C   0  0  0  0  0  2  0  0  0  0  0  0
  183.8320  178.8070  145.1750 C   0  0  0  0  0  2  0  0  0  0  0  0
  184.8730  176.9470  137.1080 C   0  0  0  0  0  3  0  0  0  0  0  0
  185.3230  178.9290  140.0320 C   0  0  0  0  0  2  0  0  0  0  0  0
  181.4690  178.9980  142.1450 C   0  0  0  0  0  0  0  0  0  0  0  0
  182.0440  177.1300  140.6660 C   0  0  1  0  0  3  0  0  0  0  0  0
  183.8530  177.7090  138.7950 C   0  0  0  0  0  0  0  0  0  0  0  0
  183.7320  176.7840  137.8290 N   0  0  0  0  0  0  0  0  0  0  0  0
  184.1340  178.4830  140.8640 C   0  0  0  0  0  0  0  0  0  0  0  0
  181.2980  176.3120  139.6280 C   0  0  0  0  0  1  0  0  0  0  0  0
  183.2930  177.7500  140.1290 C   0  0  0  0  0  0  0  0  0  0  0  0
  185.1200  179.2460  144.5110 C   0  0  0  0  0  2  0  0  0  0  0  0
  180.4810  179.9410  142.5730 N   0  0  0  0  0  2  0  0  0  0  0  0
  181.1750  178.1800  141.1690 N   0  0  0  0  0  0  0  0  0  0  0  0
  185.6830  177.9140  137.7050 C   0  0  0  0  0  3  0  0  0  0  0  0
  179.2360  180.0600  141.9340 N   0  0  0  0  0  2  0  0  0  0  0  0
  179.3460  181.1200  140.9450 C   0  0  0  0  0  2  0  0  0  0  0  0
  179.0310  180.5640  139.5580 C   0  0  0  0  0  2  0  0  0  0  0  0
  180.9070  179.3110  135.8400 C   0  0  0  0  0  0  0  0  0  0  0  0
  180.1670  179.2650  136.8920 N   0  0  0  0  0  0  0  0  0  0  0  0
  179.6390  182.7200  138.4380 C   0  0  0  0  0  2  0  0  0  0  0  0
  180.0600  181.4260  135.8840 C   0  0  2  0  0  3  0  0  0  0  0  0
  181.6570  178.1910  135.3850 N   0  0  0  0  0  1  0  0  0  0  0  0
  179.8850  183.3420  137.0550 C   0  0  0  0  0  2  0  0  0  0  0  0
  180.7860  182.5560  136.3140 O   0  0  0  0  0  0  0  0  0  0  0  0
  179.8810  181.1990  138.4550 C   0  0  2  0  0  0  0  0  0  0  0  0
  179.5460  180.5720  137.0750 C   0  0  2  0  0  3  0  0  0  0  0  0
  180.9210  180.5340  135.1970 O   0  0  0  0  0  0  0  0  0  0  0  0
  181.3440  180.9750  138.8210 C   0  0  0  0  0  1  0  0  0  0  0  0
  186.3010  177.8670  142.7890 C   0  0  0  0  0  2  0  0  0  0  0  0
  187.0710  177.4450  144.0010 C   0  0  0  0  0  0  0  0  0  0  0  0
  186.5150  176.8300  144.8940 O   0  0  0  0  0  0  0  0  0  0  0  0
  188.5210  177.7800  144.1020 C   0  0  0  0  0  2  0  0  0  0  0  0
  189.3650  176.6900  143.4630 C   0  0  0  0  0  2  0  0  0  0  0  0
  189.2190  176.7310  142.0160 N   0  0  0  0  0  2  0  0  0  0  0  0
  190.2550  177.1760  141.1300 C   0  0  0  0  0  0  0  0  0  0  0  0
  191.3910  177.4790  141.5920 O   0  0  0  0  0  0  0  0  0  0  0  0
  188.3580  175.6840  137.7590 F   0  0  0  0  0  0  0  0  0  0  0  0
  189.9950  177.2880  139.6820 C   0  0  0  0  0  0  0  0  0  0  0  0
  189.4330  178.4010  139.1880 C   0  0  0  0  0  3  0  0  0  0  0  0
  189.6390  176.1240  137.4690 C   0  0  2  0  0  3  0  0  0  0  0  0
  188.7340  177.4540  135.6850 O   0  0  0  0  0  1  0  0  0  0  0  0
  189.1930  178.5730  137.7450 C   0  0  0  0  0  0  0  0  0  0  0  0
  188.7120  179.6570  137.3210 O   0  0  0  0  0  0  0  0  0  0  0  0
  190.4670  176.1920  138.7560 C   0  0  0  0  0  2  0  0  0  0  0  0
  189.6020  177.4930  136.7810 C   0  0  1  0  0  3  0  0  0  0  0  0
  1 11  1  0  0  0  0
  1  8  1  0  0  0  0
  2 16  1  0  0  0  0
  3  5  1  0  0  0  0
  4  3  2  0  0  0  0
  4  2  1  0  0  0  0
  5  6  1  0  0  0  0
  7 19  2  0  0  0  0
  7 12  1  0  0  0  0
  8 13  1  0  0  0  0
  9 17  1  0  0  0  0
  9  3  1  0  0  0  0
 10 14  1  6  0  0  0
 10 18  1  0  0  0  0
 11 15  1  0  0  0  0
 12 11  2  0  0  0  0
 13  4  1  0  0  0  0
 15 10  1  0  0  0  0
 15 13  2  0  0  0  0
 16  6  1  0  0  0  0
 18  9  2  0  0  0  0
 19  1  1  0  0  0  0
 20 17  1  0  0  0  0
 21 20  1  0  0  0  0
 22 21  1  0  0  0  0
 23 24  2  0  0  0  0
 25 30  1  0  0  0  0
 26 32  1  6  0  0  0
 26 29  1  0  0  0  0
 26 31  1  0  0  0  0
 27 23  1  0  0  0  0
 28 25  1  0  0  0  0
 29 28  1  0  0  0  0
 30 33  1  1  0  0  0
 30 22  1  0  0  0  0
 31 24  1  1  0  0  0
 31 30  1  0  0  0  0
 32 23  1  0  0  0  0
 34  2  1  0  0  0  0
 34 35  1  0  0  0  0
 35 37  1  0  0  0  0
 35 36  2  0  0  0  0
 38 37  1  0  0  0  0
 39 38  1  0  0  0  0
 40 41  2  0  0  0  0
 40 39  1  0  0  0  0
 43 40  1  0  0  0  0
 44 43  2  0  0  0  0
 45 42  1  1  0  0  0
 45 49  1  0  0  0  0
 47 44  1  0  0  0  0
 48 47  2  0  0  0  0
 49 43  1  0  0  0  0
 50 46  1  6  0  0  0
 50 45  1  0  0  0  0
 50 47  1  0  0  0  0
M  END
>  <MODEL>
2

>  <REMARK>
 VINA RESULT:      -9.3      3.219      7.280
  Name = 
  10 active torsions:
  status: ('A' for Active; 'I' for Inactive)
    1  A    between atoms: N_2  and  C_43
    2  A    between atoms: C_7  and  C_18
    3  A    between atoms: C_7  and  N_32
    4  A    between atoms: C_13  and  C_39
    5  A    between atoms: C_15  and  C_31
    6  A    between atoms: C_15  and  N_33
    7  A    between atoms: C_18  and  C_23
    8  A    between atoms: C_23  and  C_43
    9  A    between atoms: C_31  and  C_38
   10  A    between atoms: N_33  and  N_46
                            x       y       z     vdW  Elec       q    Type
                         _______ _______ _______ _____ _____    ______ ____

>  <TORSDO>
F 10

$$$$
=
 OpenBabel10222419513D

 50 56  0  0  1  0  0  0  0  0999 V2000
  192.9300  175.7990  137.9900 N   0  0  0  0  0  0  0  0  0  0  0  0
  189.7690  177.2900  140.7230 N   0  0  0  0  0  0  0  0  0  0  0  0
  188.5230  177.4320  138.6400 C   0  0  0  0  0  0  0  0  0  0  0  0
  189.6670  177.0780  139.2950 C   0  0  0  0  0  0  0  0  0  0  0  0
  187.4460  178.2000  139.3700 C   0  0  0  0  0  2  0  0  0  0  0  0
  187.4300  177.9150  140.8630 C   0  0  0  0  0  2  0  0  0  0  0  0
  193.8000  173.9680  137.1940 C   0  0  0  0  0  3  0  0  0  0  0  0
  192.2740  176.6630  138.9510 C   0  0  0  0  0  2  0  0  0  0  0  0
  188.3010  177.2740  137.1710 C   0  0  0  0  0  0  0  0  0  0  0  0
  189.3910  175.0820  137.0600 C   0  0  1  0  0  3  0  0  0  0  0  0
  192.0480  175.1480  137.2670 C   0  0  0  0  0  0  0  0  0  0  0  0
  192.5140  173.9980  136.7550 N   0  0  0  0  0  0  0  0  0  0  0  0
  190.8150  176.4500  138.5880 C   0  0  0  0  0  0  0  0  0  0  0  0
  189.5470  174.0110  135.9950 C   0  0  0  0  0  1  0  0  0  0  0  0
  190.7000  175.5420  137.6150 C   0  0  0  0  0  0  0  0  0  0  0  0
  188.8220  178.1670  141.4050 C   0  0  0  0  0  2  0  0  0  0  0  0
  187.5610  178.2920  136.4900 N   0  0  0  0  0  2  0  0  0  0  0  0
  188.6890  176.2240  136.4990 N   0  0  0  0  0  0  0  0  0  0  0  0
  194.0490  175.0650  138.0210 C   0  0  0  0  0  3  0  0  0  0  0  0
  187.2980  178.2290  135.1120 N   0  0  0  0  0  2  0  0  0  0  0  0
  186.0290  177.5410  134.9340 C   0  0  0  0  0  2  0  0  0  0  0  0
  185.3120  177.4280  136.2760 C   0  0  0  0  0  2  0  0  0  0  0  0
  185.3940  173.1100  136.7920 C   0  0  0  0  0  0  0  0  0  0  0  0
  185.8070  174.3300  136.7640 N   0  0  0  0  0  0  0  0  0  0  0  0
  182.9180  176.8310  136.7060 C   0  0  0  0  0  2  0  0  0  0  0  0
  183.6170  174.2050  137.7030 C   0  0  2  0  0  3  0  0  0  0  0  0
  186.1850  172.0270  136.3180 N   0  0  0  0  0  1  0  0  0  0  0  0
  182.0350  175.7780  137.3930 C   0  0  0  0  0  2  0  0  0  0  0  0
  182.4210  174.4820  137.0080 O   0  0  0  0  0  0  0  0  0  0  0  0
  184.3020  176.2790  136.3170 C   0  0  2  0  0  0  0  0  0  0  0  0
  184.7600  175.1810  137.3150 C   0  0  2  0  0  3  0  0  0  0  0  0
  184.1230  172.9430  137.3050 O   0  0  0  0  0  0  0  0  0  0  0  0
  184.1890  175.7220  134.9020 C   0  0  0  0  0  1  0  0  0  0  0  0
  190.5710  176.3840  141.5420 C   0  0  0  0  0  2  0  0  0  0  0  0
  191.3790  177.1390  142.5500 C   0  0  0  0  0  0  0  0  0  0  0  0
  191.8320  178.2350  142.2730 O   0  0  0  0  0  0  0  0  0  0  0  0
  191.6170  176.5380  143.8950 C   0  0  0  0  0  2  0  0  0  0  0  0
  191.3740  177.5660  144.9880 C   0  0  0  0  0  2  0  0  0  0  0  0
  189.9630  177.9190  145.0330 N   0  0  0  0  0  2  0  0  0  0  0  0
  189.0650  177.4520  146.0490 C   0  0  0  0  0  0  0  0  0  0  0  0
  189.5050  176.7630  147.0100 O   0  0  0  0  0  0  0  0  0  0  0  0
  185.9820  180.1010  146.8710 F   0  0  0  0  0  0  0  0  0  0  0  0
  187.6260  177.7700  145.9680 C   0  0  0  0  0  0  0  0  0  0  0  0
  187.0250  177.8460  144.7710 C   0  0  0  0  0  3  0  0  0  0  0  0
  185.5870  178.7860  147.0590 C   0  0  2  0  0  3  0  0  0  0  0  0
  183.6950  179.1950  145.6370 O   0  0  0  0  0  1  0  0  0  0  0  0
  185.5830  178.1190  144.6440 C   0  0  0  0  0  0  0  0  0  0  0  0
  185.0510  178.1280  143.5030 O   0  0  0  0  0  0  0  0  0  0  0  0
  186.8200  177.8960  147.2390 C   0  0  0  0  0  2  0  0  0  0  0  0
  184.7400  178.2980  145.8780 C   0  0  1  0  0  3  0  0  0  0  0  0
  1 19  1  0  0  0  0
  1  8  1  0  0  0  0
  2 16  1  0  0  0  0
  2 34  1  0  0  0  0
  3  4  2  0  0  0  0
  3  5  1  0  0  0  0
  4  2  1  0  0  0  0
  5  6  1  0  0  0  0
  6 16  1  0  0  0  0
  7 19  2  0  0  0  0
  9  3  1  0  0  0  0
 10 14  1  6  0  0  0
 10 15  1  0  0  0  0
 11 15  1  0  0  0  0
 11  1  1  0  0  0  0
 12  7  1  0  0  0  0
 12 11  2  0  0  0  0
 13  8  1  0  0  0  0
 13  4  1  0  0  0  0
 15 13  2  0  0  0  0
 17  9  1  0  0  0  0
 18 10  1  0  0  0  0
 18  9  2  0  0  0  0
 20 17  1  0  0  0  0
 21 20  1  0  0  0  0
 21 22  1  0  0  0  0
 22 30  1  0  0  0  0
 23 32  1  0  0  0  0
 24 23  2  0  0  0  0
 25 28  1  0  0  0  0
 26 29  1  6  0  0  0
 27 23  1  0  0  0  0
 29 28  1  0  0  0  0
 30 33  1  6  0  0  0
 30 25  1  0  0  0  0
 30 31  1  0  0  0  0
 31 24  1  6  0  0  0
 31 26  1  0  0  0  0
 32 26  1  0  0  0  0
 34 35  1  0  0  0  0
 35 37  1  0  0  0  0
 36 35  2  0  0  0  0
 37 38  1  0  0  0  0
 38 39  1  0  0  0  0
 39 40  1  0  0  0  0
 40 41  2  0  0  0  0
 43 40  1  0  0  0  0
 43 49  1  0  0  0  0
 44 43  2  0  0  0  0
 45 42  1  6  0  0  0
 45 49  1  0  0  0  0
 47 44  1  0  0  0  0
 47 50  1  0  0  0  0
 48 47  2  0  0  0  0
 50 46  1  6  0  0  0
 50 45  1  0  0  0  0
M  END
>  <MODEL>
3

>  <REMARK>
 VINA RESULT:      -9.3      1.893      2.533
  Name = 
  10 active torsions:
  status: ('A' for Active; 'I' for Inactive)
    1  A    between atoms: N_2  and  C_43
    2  A    between atoms: C_7  and  C_18
    3  A    between atoms: C_7  and  N_32
    4  A    between atoms: C_13  and  C_39
    5  A    between atoms: C_15  and  C_31
    6  A    between atoms: C_15  and  N_33
    7  A    between atoms: C_18  and  C_23
    8  A    between atoms: C_23  and  C_43
    9  A    between atoms: C_31  and  C_38
   10  A    between atoms: N_33  and  N_46
                            x       y       z     vdW  Elec       q    Type
                         _______ _______ _______ _____ _____    ______ ____

>  <TORSDO>
F 10

$$$$
=
 OpenBabel10222419513D

 50 56  0  0  1  0  0  0  0  0999 V2000
  190.7390  173.3600  136.5430 N   0  0  0  0  0  0  0  0  0  0  0  0
  187.6630  176.4650  137.3060 N   0  0  0  0  0  0  0  0  0  0  0  0
  189.2410  177.1040  139.0420 C   0  0  0  0  0  0  0  0  0  0  0  0
  188.9310  176.2980  137.9840 C   0  0  0  0  0  0  0  0  0  0  0  0
  188.1970  178.0390  139.6070 C   0  0  0  0  0  2  0  0  0  0  0  0
  187.1770  178.4780  138.5680 C   0  0  0  0  0  2  0  0  0  0  0  0
  192.4780  172.9200  135.3070 C   0  0  0  0  0  3  0  0  0  0  0  0
  189.4520  173.9280  136.8910 C   0  0  0  0  0  2  0  0  0  0  0  0
  190.5080  177.0230  139.8280 C   0  0  0  0  0  0  0  0  0  0  0  0
  191.9180  176.6430  137.8600 C   0  0  1  0  0  3  0  0  0  0  0  0
  191.7090  174.2080  136.7960 C   0  0  0  0  0  0  0  0  0  0  0  0
  192.8110  174.0030  136.0570 N   0  0  0  0  0  0  0  0  0  0  0  0
  189.8720  175.2620  137.4840 C   0  0  0  0  0  0  0  0  0  0  0  0
  193.4120  176.5770  137.6050 C   0  0  0  0  0  1  0  0  0  0  0  0
  191.1960  175.4190  137.3990 C   0  0  0  0  0  0  0  0  0  0  0  0
  186.5920  177.2360  137.9290 C   0  0  0  0  0  2  0  0  0  0  0  0
  190.4380  177.2510  141.2400 N   0  0  0  0  0  2  0  0  0  0  0  0
  191.6770  176.8250  139.2820 N   0  0  0  0  0  0  0  0  0  0  0  0
  191.1560  172.5490  135.5620 C   0  0  0  0  0  3  0  0  0  0  0  0
  191.5760  177.2000  142.0620 N   0  0  0  0  0  2  0  0  0  0  0  0
  191.2960  176.2770  143.1500 C   0  0  0  0  0  2  0  0  0  0  0  0
  189.8710  176.4920  143.6540 C   0  0  0  0  0  2  0  0  0  0  0  0
  186.8550  178.2720  146.2320 C   0  0  0  0  0  0  0  0  0  0  0  0
  187.3660  177.6140  145.2500 N   0  0  0  0  0  0  0  0  0  0  0  0
  191.0370  176.7410  145.8560 C   0  0  0  0  0  2  0  0  0  0  0  0
  188.5490  177.1610  147.2730 C   0  0  2  0  0  3  0  0  0  0  0  0
  185.7330  179.1320  146.0710 N   0  0  0  0  0  1  0  0  0  0  0  0
  190.7720  176.8140  147.3670 C   0  0  0  0  0  2  0  0  0  0  0  0
  189.7700  177.7600  147.6480 O   0  0  0  0  0  0  0  0  0  0  0  0
  189.8200  177.1790  145.0200 C   0  0  2  0  0  0  0  0  0  0  0  0
  188.4950  176.8410  145.7550 C   0  0  2  0  0  3  0  0  0  0  0  0
  187.4880  178.0850  147.4450 O   0  0  0  0  0  0  0  0  0  0  0  0
  189.9490  178.6790  144.7810 C   0  0  0  0  0  1  0  0  0  0  0  0
  187.5560  176.1780  135.8770 C   0  0  0  0  0  2  0  0  0  0  0  0
  186.2510  175.5200  135.5540 C   0  0  0  0  0  0  0  0  0  0  0  0
  186.0920  174.3340  135.7840 O   0  0  0  0  0  0  0  0  0  0  0  0
  185.1510  176.3290  134.9550 C   0  0  0  0  0  2  0  0  0  0  0  0
  183.8000  175.8380  135.4460 C   0  0  0  0  0  2  0  0  0  0  0  0
  183.3460  176.6610  136.5570 N   0  0  0  0  0  2  0  0  0  0  0  0
  183.0940  176.1440  137.8710 C   0  0  0  0  0  0  0  0  0  0  0  0
  183.3440  174.9340  138.1300 O   0  0  0  0  0  0  0  0  0  0  0  0
  180.3030  176.7100  140.8850 F   0  0  0  0  0  0  0  0  0  0  0  0
  182.5350  177.0220  138.9180 C   0  0  0  0  0  0  0  0  0  0  0  0
  183.3190  177.4500  139.9180 C   0  0  0  0  0  3  0  0  0  0  0  0
  180.4980  177.8670  140.1480 C   0  0  2  0  0  3  0  0  0  0  0  0
  180.8940  179.0550  142.1980 O   0  0  0  0  0  1  0  0  0  0  0  0
  182.8160  178.3600  140.9610 C   0  0  0  0  0  0  0  0  0  0  0  0
  183.6020  178.7800  141.8510 O   0  0  0  0  0  0  0  0  0  0  0  0
  181.1150  177.5180  138.7910 C   0  0  0  0  0  2  0  0  0  0  0  0
  181.3940  178.8510  140.9090 C   0  0  1  0  0  3  0  0  0  0  0  0
  1 11  1  0  0  0  0
  1  8  1  0  0  0  0
  2 16  1  0  0  0  0
  2  4  1  0  0  0  0
  3  5  1  0  0  0  0
  3  9  1  0  0  0  0
  4  3  2  0  0  0  0
  6  5  1  0  0  0  0
  7 19  2  0  0  0  0
  7 12  1  0  0  0  0
  8 13  1  0  0  0  0
  9 17  1  0  0  0  0
 10 14  1  1  0  0  0
 10 18  1  0  0  0  0
 11 15  1  0  0  0  0
 12 11  2  0  0  0  0
 13  4  1  0  0  0  0
 15 13  2  0  0  0  0
 15 10  1  0  0  0  0
 16  6  1  0  0  0  0
 17 20  1  0  0  0  0
 18  9  2  0  0  0  0
 19  1  1  0  0  0  0
 20 21  1  0  0  0  0
 21 22  1  0  0  0  0
 22 30  1  0  0  0  0
 23 32  1  0  0  0  0
 24 23  2  0  0  0  0
 25 28  1  0  0  0  0
 26 32  1  6  0  0  0
 26 29  1  0  0  0  0
 27 23  1  0  0  0  0
 28 29  1  0  0  0  0
 30 33  1  6  0  0  0
 30 31  1  0  0  0  0
 30 25  1  0  0  0  0
 31 24  1  6  0  0  0
 31 26  1  0  0  0  0
 34  2  1  0  0  0  0
 35 36  2  0  0  0  0
 35 34  1  0  0  0  0
 37 38  1  0  0  0  0
 37 35  1  0  0  0  0
 38 39  1  0  0  0  0
 39 40  1  0  0  0  0
 40 41  2  0  0  0  0
 40 43  1  0  0  0  0
 43 44  2  0  0  0  0
 44 47  1  0  0  0  0
 45 42  1  1  0  0  0
 45 50  1  0  0  0  0
 47 48  2  0  0  0  0
 49 43  1  0  0  0  0
 49 45  1  0  0  0  0
 50 47  1  0  0  0  0
 50 46  1  1  0  0  0
M  END
>  <MODEL>
4

>  <REMARK>
 VINA RESULT:      -8.9      2.405      7.690
  Name = 
  10 active torsions:
  status: ('A' for Active; 'I' for Inactive)
    1  A    between atoms: N_2  and  C_43
    2  A    between atoms: C_7  and  C_18
    3  A    between atoms: C_7  and  N_32
    4  A    between atoms: C_13  and  C_39
    5  A    between atoms: C_15  and  C_31
    6  A    between atoms: C_15  and  N_33
    7  A    between atoms: C_18  and  C_23
    8  A    between atoms: C_23  and  C_43
    9  A    between atoms: C_31  and  C_38
   10  A    between atoms: N_33  and  N_46
                            x       y       z     vdW  Elec       q    Type
                         _______ _______ _______ _____ _____    ______ ____

>  <TORSDO>
F 10

$$$$
=
 OpenBabel10222419513D

 50 56  0  0  1  0  0  0  0  0999 V2000
  191.7690  175.3850  137.1460 N   0  0  0  0  0  0  0  0  0  0  0  0
  188.2570  177.6250  138.6720 N   0  0  0  0  0  0  0  0  0  0  0  0
  189.4130  177.3080  140.7870 C   0  0  0  0  0  0  0  0  0  0  0  0
  189.3950  177.1510  139.4310 C   0  0  0  0  0  0  0  0  0  0  0  0
  188.1810  177.8100  141.5030 C   0  0  0  0  0  2  0  0  0  0  0  0
  187.3160  178.7050  140.6290 C   0  0  0  0  0  2  0  0  0  0  0  0
  193.7400  175.6600  136.2600 C   0  0  0  0  0  3  0  0  0  0  0  0
  190.3830  175.6780  137.4470 C   0  0  0  0  0  2  0  0  0  0  0  0
  190.5210  176.8540  141.6800 C   0  0  0  0  0  0  0  0  0  0  0  0
  192.2930  177.5500  140.1370 C   0  0  1  0  0  3  0  0  0  0  0  0
  192.5700  175.9970  137.9870 C   0  0  0  0  0  0  0  0  0  0  0  0
  193.8020  176.2130  137.5000 N   0  0  0  0  0  0  0  0  0  0  0  0
  190.5270  176.5280  138.6970 C   0  0  0  0  0  0  0  0  0  0  0  0
  193.8060  177.6430  140.2080 C   0  0  0  0  0  1  0  0  0  0  0  0
  191.8160  176.7230  138.9870 C   0  0  0  0  0  0  0  0  0  0  0  0
  187.0070  177.9550  139.3500 C   0  0  0  0  0  2  0  0  0  0  0  0
  190.1760  176.3280  142.9650 N   0  0  0  0  0  2  0  0  0  0  0  0
  191.7840  176.9780  141.3710 N   0  0  0  0  0  0  0  0  0  0  0  0
  192.4480  175.1940  136.0080 C   0  0  0  0  0  3  0  0  0  0  0  0
  191.1470  175.8790  143.8750 N   0  0  0  0  0  2  0  0  0  0  0  0
  191.1280  176.7750  145.0200 C   0  0  0  0  0  2  0  0  0  0  0  0
  190.1050  176.2840  146.0410 C   0  0  0  0  0  2  0  0  0  0  0  0
  186.2100  177.8780  144.9450 C   0  0  0  0  0  0  0  0  0  0  0  0
  187.2260  177.0880  144.9680 N   0  0  0  0  0  0  0  0  0  0  0  0
  189.4730  177.7160  147.9960 C   0  0  0  0  0  2  0  0  0  0  0  0
  186.7020  177.8480  147.1690 C   0  0  2  0  0  3  0  0  0  0  0  0
  185.5290  178.2090  143.7410 N   0  0  0  0  0  1  0  0  0  0  0  0
  188.2550  178.2800  148.7430 C   0  0  0  0  0  2  0  0  0  0  0  0
  187.3650  178.8940  147.8430 O   0  0  0  0  0  0  0  0  0  0  0  0
  189.1650  177.3910  146.5220 C   0  0  2  0  0  0  0  0  0  0  0  0
  187.6820  176.9660  146.3480 C   0  0  2  0  0  3  0  0  0  0  0  0
  185.8430  178.3820  146.1770 O   0  0  0  0  0  0  0  0  0  0  0  0
  189.4780  178.6410  145.7060 C   0  0  0  0  0  1  0  0  0  0  0  0
  188.4400  178.1060  137.3040 C   0  0  0  0  0  2  0  0  0  0  0  0
  187.4060  177.5320  136.3870 C   0  0  0  0  0  0  0  0  0  0  0  0
  186.8550  178.2450  135.5660 O   0  0  0  0  0  0  0  0  0  0  0  0
  187.0630  176.0840  136.4840 C   0  0  0  0  0  2  0  0  0  0  0  0
  185.5990  175.8600  136.1460 C   0  0  0  0  0  2  0  0  0  0  0  0
  184.7610  176.2910  137.2560 N   0  0  0  0  0  2  0  0  0  0  0  0
  183.6710  177.2120  137.1110 C   0  0  0  0  0  0  0  0  0  0  0  0
  183.3460  177.6280  135.9630 O   0  0  0  0  0  0  0  0  0  0  0  0
  183.7720  179.0140  140.8440 F   0  0  0  0  0  0  0  0  0  0  0  0
  182.9340  177.6810  138.3000 C   0  0  0  0  0  0  0  0  0  0  0  0
  181.9690  178.6040  138.1670 C   0  0  0  0  0  3  0  0  0  0  0  0
  182.8660  177.9670  140.8080 C   0  0  2  0  0  3  0  0  0  0  0  0
  181.1850  179.4460  141.6790 O   0  0  0  0  0  1  0  0  0  0  0  0
  181.1800  179.0700  139.3200 C   0  0  0  0  0  0  0  0  0  0  0  0
  180.2480  179.8980  139.1400 O   0  0  0  0  0  0  0  0  0  0  0  0
  183.1970  177.0350  139.6390 C   0  0  0  0  0  2  0  0  0  0  0  0
  181.4310  178.4930  140.6870 C   0  0  1  0  0  3  0  0  0  0  0  0
  1  8  1  0  0  0  0
  1 11  1  0  0  0  0
  2 16  1  0  0  0  0
  2  4  1  0  0  0  0
  3  5  1  0  0  0  0
  3  9  1  0  0  0  0
  4  3  2  0  0  0  0
  6  5  1  0  0  0  0
  7 12  1  0  0  0  0
  8 13  1  0  0  0  0
  9 17  1  0  0  0  0
 10 14  1  1  0  0  0
 10 18  1  0  0  0  0
 11 15  1  0  0  0  0
 12 11  2  0  0  0  0
 13 15  2  0  0  0  0
 13  4  1  0  0  0  0
 15 10  1  0  0  0  0
 16  6  1  0  0  0  0
 17 20  1  0  0  0  0
 18  9  2  0  0  0  0
 19  7  2  0  0  0  0
 19  1  1  0  0  0  0
 20 21  1  0  0  0  0
 21 22  1  0  0  0  0
 22 30  1  0  0  0  0
 23 24  2  0  0  0  0
 23 32  1  0  0  0  0
 25 28  1  0  0  0  0
 26 32  1  6  0  0  0
 26 29  1  0  0  0  0
 27 23  1  0  0  0  0
 29 28  1  0  0  0  0
 30 33  1  6  0  0  0
 30 25  1  0  0  0  0
 31 24  1  6  0  0  0
 31 30  1  0  0  0  0
 31 26  1  0  0  0  0
 34  2  1  0  0  0  0
 35 37  1  0  0  0  0
 35 34  1  0  0  0  0
 36 35  2  0  0  0  0
 38 37  1  0  0  0  0
 38 39  1  0  0  0  0
 40 39  1  0  0  0  0
 40 43  1  0  0  0  0
 41 40  2  0  0  0  0
 43 49  1  0  0  0  0
 44 43  2  0  0  0  0
 44 47  1  0  0  0  0
 45 42  1  6  0  0  0
 47 50  1  0  0  0  0
 48 47  2  0  0  0  0
 49 45  1  0  0  0  0
 50 45  1  0  0  0  0
 50 46  1  1  0  0  0
M  END
>  <MODEL>
5

>  <REMARK>
 VINA RESULT:      -8.6      2.112      7.557
  Name = 
  10 active torsions:
  status: ('A' for Active; 'I' for Inactive)
    1  A    between atoms: N_2  and  C_43
    2  A    between atoms: C_7  and  C_18
    3  A    between atoms: C_7  and  N_32
    4  A    between atoms: C_13  and  C_39
    5  A    between atoms: C_15  and  C_31
    6  A    between atoms: C_15  and  N_33
    7  A    between atoms: C_18  and  C_23
    8  A    between atoms: C_23  and  C_43
    9  A    between atoms: C_31  and  C_38
   10  A    between atoms: N_33  and  N_46
                            x       y       z     vdW  Elec       q    Type
                         _______ _______ _______ _____ _____    ______ ____

>  <TORSDO>
F 10

$$$$
=
 OpenBabel10222419513D

 50 56  0  0  1  0  0  0  0  0999 V2000
  192.1240  175.0590  136.0750 N   0  0  0  0  0  0  0  0  0  0  0  0
  189.8740  177.6770  138.8620 N   0  0  0  0  0  0  0  0  0  0  0  0
  187.9790  176.7320  137.6660 C   0  0  0  0  0  0  0  0  0  0  0  0
  189.3290  176.7720  137.8720 C   0  0  0  0  0  0  0  0  0  0  0  0
  187.0850  177.7470  138.3390 C   0  0  0  0  0  2  0  0  0  0  0  0
  187.6550  178.2530  139.6550 C   0  0  0  0  0  2  0  0  0  0  0  0
  193.0400  173.0890  135.9170 C   0  0  0  0  0  3  0  0  0  0  0  0
  191.6730  176.2790  136.7120 C   0  0  0  0  0  2  0  0  0  0  0  0
  187.2990  175.8520  136.6690 C   0  0  0  0  0  0  0  0  0  0  0  0
  188.7330  173.9180  137.1260 C   0  0  1  0  0  3  0  0  0  0  0  0
  191.2110  174.1200  136.1630 C   0  0  0  0  0  0  0  0  0  0  0  0
  191.7090  172.8750  136.0880 N   0  0  0  0  0  0  0  0  0  0  0  0
  190.2640  175.8910  137.1250 C   0  0  0  0  0  0  0  0  0  0  0  0
  188.7370  172.4600  136.7060 C   0  0  0  0  0  1  0  0  0  0  0  0
  190.0180  174.6150  136.8150 C   0  0  0  0  0  0  0  0  0  0  0  0
  189.0570  178.7630  139.3930 C   0  0  0  0  0  2  0  0  0  0  0  0
  186.1620  176.3770  135.9750 N   0  0  0  0  0  2  0  0  0  0  0  0
  187.6470  174.6120  136.4540 N   0  0  0  0  0  0  0  0  0  0  0  0
  193.3160  174.4560  135.9700 C   0  0  0  0  0  3  0  0  0  0  0  0
  185.4550  175.6250  135.0230 N   0  0  0  0  0  2  0  0  0  0  0  0
  184.0360  175.8020  135.2850 C   0  0  0  0  0  2  0  0  0  0  0  0
  183.6860  175.2150  136.6500 C   0  0  0  0  0  2  0  0  0  0  0  0
  183.4980  179.0320  138.7260 C   0  0  0  0  0  0  0  0  0  0  0  0
  183.9600  178.0800  137.9930 N   0  0  0  0  0  0  0  0  0  0  0  0
  181.2310  175.6240  136.9300 C   0  0  0  0  0  2  0  0  0  0  0  0
  181.6360  178.4180  137.5650 C   0  0  2  0  0  3  0  0  0  0  0  0
  184.3130  179.7520  139.6430 N   0  0  0  0  0  1  0  0  0  0  0  0
  180.1990  176.7510  137.0890 C   0  0  0  0  0  2  0  0  0  0  0  0
  180.5920  177.6400  138.1060 O   0  0  0  0  0  0  0  0  0  0  0  0
  182.6370  176.0390  137.4010 C   0  0  2  0  0  0  0  0  0  0  0  0
  182.8690  177.5570  137.1780 C   0  0  2  0  0  3  0  0  0  0  0  0
  182.1510  179.2890  138.5580 O   0  0  0  0  0  0  0  0  0  0  0  0
  182.7470  175.6770  138.8780 C   0  0  0  0  0  1  0  0  0  0  0  0
  191.0900  177.3180  139.5880 C   0  0  0  0  0  2  0  0  0  0  0  0
  190.7840  176.9460  141.0050 C   0  0  0  0  0  0  0  0  0  0  0  0
  190.1740  175.9200  141.2490 O   0  0  0  0  0  0  0  0  0  0  0  0
  191.2340  177.8400  142.1110 C   0  0  0  0  0  2  0  0  0  0  0  0
  190.7730  177.3000  143.4540 C   0  0  0  0  0  2  0  0  0  0  0  0
  189.4980  177.8980  143.8190 N   0  0  0  0  0  2  0  0  0  0  0  0
  188.2580  177.1760  143.8180 C   0  0  0  0  0  0  0  0  0  0  0  0
  188.2510  175.9380  143.5690 O   0  0  0  0  0  0  0  0  0  0  0  0
  184.2040  177.5880  143.0540 F   0  0  0  0  0  0  0  0  0  0  0  0
  186.9920  177.8790  144.1000 C   0  0  0  0  0  0  0  0  0  0  0  0
  186.4940  177.8840  145.3450 C   0  0  0  0  0  3  0  0  0  0  0  0
  184.8180  178.8190  143.2240 C   0  0  2  0  0  3  0  0  0  0  0  0
  183.1490  179.3780  144.8590 O   0  0  0  0  0  1  0  0  0  0  0  0
  185.2550  178.6070  145.6810 C   0  0  0  0  0  0  0  0  0  0  0  0
  184.8540  178.6300  146.8750 O   0  0  0  0  0  0  0  0  0  0  0  0
  186.3270  178.6790  143.0050 C   0  0  0  0  0  2  0  0  0  0  0  0
  184.5260  179.3840  144.6180 C   0  0  1  0  0  3  0  0  0  0  0  0
  1 11  1  0  0  0  0
  1  8  1  0  0  0  0
  2 16  1  0  0  0  0
  2 34  1  0  0  0  0
  3  4  2  0  0  0  0
  3  5  1  0  0  0  0
  4  2  1  0  0  0  0
  5  6  1  0  0  0  0
  7 19  2  0  0  0  0
  7 12  1  0  0  0  0
  8 13  1  0  0  0  0
  9  3  1  0  0  0  0
 10 14  1  6  0  0  0
 11 15  1  0  0  0  0
 12 11  2  0  0  0  0
 13  4  1  0  0  0  0
 15 13  2  0  0  0  0
 15 10  1  0  0  0  0
 16  6  1  0  0  0  0
 17  9  1  0  0  0  0
 18  9  2  0  0  0  0
 18 10  1  0  0  0  0
 19  1  1  0  0  0  0
 20 21  1  0  0  0  0
 20 17  1  0  0  0  0
 21 22  1  0  0  0  0
 22 30  1  0  0  0  0
 23 27  1  0  0  0  0
 24 23  2  0  0  0  0
 25 28  1  0  0  0  0
 25 30  1  0  0  0  0
 26 29  1  1  0  0  0
 26 32  1  0  0  0  0
 28 29  1  0  0  0  0
 30 33  1  1  0  0  0
 31 30  1  0  0  0  0
 31 26  1  0  0  0  0
 31 24  1  1  0  0  0
 32 23  1  0  0  0  0
 34 35  1  0  0  0  0
 35 36  2  0  0  0  0
 35 37  1  0  0  0  0
 37 38  1  0  0  0  0
 38 39  1  0  0  0  0
 40 39  1  0  0  0  0
 40 43  1  0  0  0  0
 41 40  2  0  0  0  0
 43 44  2  0  0  0  0
 44 47  1  0  0  0  0
 45 42  1  1  0  0  0
 45 50  1  0  0  0  0
 47 48  2  0  0  0  0
 49 45  1  0  0  0  0
 49 43  1  0  0  0  0
 50 46  1  1  0  0  0
 50 47  1  0  0  0  0
M  END
>  <MODEL>
6

>  <REMARK>
 VINA RESULT:      -8.6      1.868      2.333
  Name = 
  10 active torsions:
  status: ('A' for Active; 'I' for Inactive)
    1  A    between atoms: N_2  and  C_43
    2  A    between atoms: C_7  and  C_18
    3  A    between atoms: C_7  and  N_32
    4  A    between atoms: C_13  and  C_39
    5  A    between atoms: C_15  and  C_31
    6  A    between atoms: C_15  and  N_33
    7  A    between atoms: C_18  and  C_23
    8  A    between atoms: C_23  and  C_43
    9  A    between atoms: C_31  and  C_38
   10  A    between atoms: N_33  and  N_46
                            x       y       z     vdW  Elec       q    Type
                         _______ _______ _______ _____ _____    ______ ____

>  <TORSDO>
F 10

$$$$
=
 OpenBabel10222419513D

 50 56  0  0  1  0  0  0  0  0999 V2000
  184.5410  178.0640  138.0330 N   0  0  0  0  0  0  0  0  0  0  0  0
  185.1070  178.5930  142.4020 N   0  0  0  0  0  0  0  0  0  0  0  0
  182.6980  178.9080  142.3230 C   0  0  0  0  0  0  0  0  0  0  0  0
  183.8600  178.6160  141.6680 C   0  0  0  0  0  0  0  0  0  0  0  0
  182.7410  179.3770  143.7580 C   0  0  0  0  0  2  0  0  0  0  0  0
  183.9460  178.8410  144.5160 C   0  0  0  0  0  2  0  0  0  0  0  0
  184.2610  176.5410  136.5010 C   0  0  0  0  0  3  0  0  0  0  0  0
  185.0170  178.6470  139.2710 C   0  0  0  0  0  2  0  0  0  0  0  0
  181.3530  178.9730  141.6770 C   0  0  0  0  0  0  0  0  0  0  0  0
  181.7390  177.0130  140.2580 C   0  0  1  0  0  3  0  0  0  0  0  0
  183.4090  177.4250  138.2210 C   0  0  0  0  0  0  0  0  0  0  0  0
  183.1780  176.4590  137.3180 N   0  0  0  0  0  0  0  0  0  0  0  0
  183.8840  178.2910  140.2180 C   0  0  0  0  0  0  0  0  0  0  0  0
  180.8830  176.1740  139.3260 C   0  0  0  0  0  1  0  0  0  0  0  0
  182.9610  177.5560  139.5910 C   0  0  0  0  0  0  0  0  0  0  0  0
  185.1900  179.1950  143.7290 C   0  0  0  0  0  2  0  0  0  0  0  0
  180.4370  179.9750  142.1310 N   0  0  0  0  0  2  0  0  0  0  0  0
  180.9520  178.1210  140.7720 N   0  0  0  0  0  0  0  0  0  0  0  0
  185.1510  177.5040  136.9800 C   0  0  0  0  0  3  0  0  0  0  0  0
  179.1490  180.1120  141.5880 N   0  0  0  0  0  2  0  0  0  0  0  0
  179.1830  181.2120  140.6380 C   0  0  0  0  0  2  0  0  0  0  0  0
  178.9940  180.6760  139.2210 C   0  0  0  0  0  2  0  0  0  0  0  0
  180.8060  179.7820  135.3710 C   0  0  0  0  0  0  0  0  0  0  0  0
  180.0700  179.6440  136.4180 N   0  0  0  0  0  0  0  0  0  0  0  0
  179.6750  182.9210  138.3450 C   0  0  0  0  0  2  0  0  0  0  0  0
  180.0370  181.9070  135.6590 C   0  0  2  0  0  3  0  0  0  0  0  0
  181.5140  178.6940  134.7880 N   0  0  0  0  0  1  0  0  0  0  0  0
  179.9380  183.6840  137.0380 C   0  0  0  0  0  2  0  0  0  0  0  0
  180.8060  182.9550  136.2060 O   0  0  0  0  0  0  0  0  0  0  0  0
  179.8610  181.4000  138.1890 C   0  0  2  0  0  0  0  0  0  0  0  0
  179.4980  180.9440  136.7500 C   0  0  2  0  0  3  0  0  0  0  0  0
  180.8620  181.0670  134.8690 O   0  0  0  0  0  0  0  0  0  0  0  0
  181.3170  181.0840  138.5150 C   0  0  0  0  0  1  0  0  0  0  0  0
  186.1780  177.6860  141.9950 C   0  0  0  0  0  2  0  0  0  0  0  0
  187.3490  178.4410  141.4490 C   0  0  0  0  0  0  0  0  0  0  0  0
  187.2990  179.6540  141.3470 O   0  0  0  0  0  0  0  0  0  0  0  0
  188.5740  177.6960  141.0370 C   0  0  0  0  0  2  0  0  0  0  0  0
  189.7380  178.0400  141.9510 C   0  0  0  0  0  2  0  0  0  0  0  0
  189.2750  178.1520  143.3260 N   0  0  0  0  0  2  0  0  0  0  0  0
  189.6880  177.2620  144.3730 C   0  0  0  0  0  0  0  0  0  0  0  0
  190.5560  176.3760  144.1390 O   0  0  0  0  0  0  0  0  0  0  0  0
  189.8790  178.8650  148.1920 F   0  0  0  0  0  0  0  0  0  0  0  0
  189.0940  177.3760  145.7190 C   0  0  0  0  0  0  0  0  0  0  0  0
  187.8480  177.8530  145.8610 C   0  0  0  0  0  3  0  0  0  0  0  0
  189.4480  177.5490  148.2130 C   0  0  2  0  0  3  0  0  0  0  0  0
  187.5560  178.2340  149.5250 O   0  0  0  0  0  1  0  0  0  0  0  0
  187.2000  177.9450  147.1800 C   0  0  0  0  0  0  0  0  0  0  0  0
  186.0100  178.3480  147.2610 O   0  0  0  0  0  0  0  0  0  0  0  0
  189.8540  176.8500  146.9130 C   0  0  0  0  0  2  0  0  0  0  0  0
  187.9290  177.4770  148.4110 C   0  0  1  0  0  3  0  0  0  0  0  0
  1 11  1  0  0  0  0
  1  8  1  0  0  0  0
  2 16  1  0  0  0  0
  3  5  1  0  0  0  0
  4  3  2  0  0  0  0
  4  2  1  0  0  0  0
  5  6  1  0  0  0  0
  7 19  2  0  0  0  0
  7 12  1  0  0  0  0
  8 13  1  0  0  0  0
  9 17  1  0  0  0  0
  9  3  1  0  0  0  0
 10 14  1  6  0  0  0
 10 18  1  0  0  0  0
 11 15  1  0  0  0  0
 12 11  2  0  0  0  0
 13  4  1  0  0  0  0
 15 13  2  0  0  0  0
 15 10  1  0  0  0  0
 16  6  1  0  0  0  0
 18  9  2  0  0  0  0
 19  1  1  0  0  0  0
 20 17  1  0  0  0  0
 21 20  1  0  0  0  0
 22 21  1  0  0  0  0
 23 24  2  0  0  0  0
 26 32  1  6  0  0  0
 26 29  1  0  0  0  0
 26 31  1  0  0  0  0
 27 23  1  0  0  0  0
 28 25  1  0  0  0  0
 29 28  1  0  0  0  0
 30 25  1  0  0  0  0
 30 33  1  1  0  0  0
 30 22  1  0  0  0  0
 31 24  1  6  0  0  0
 31 30  1  0  0  0  0
 32 23  1  0  0  0  0
 34  2  1  0  0  0  0
 35 34  1  0  0  0  0
 36 35  2  0  0  0  0
 37 35  1  0  0  0  0
 37 38  1  0  0  0  0
 38 39  1  0  0  0  0
 39 40  1  0  0  0  0
 40 43  1  0  0  0  0
 41 40  2  0  0  0  0
 43 44  2  0  0  0  0
 43 49  1  0  0  0  0
 44 47  1  0  0  0  0
 45 42  1  6  0  0  0
 45 50  1  0  0  0  0
 47 48  2  0  0  0  0
 47 50  1  0  0  0  0
 49 45  1  0  0  0  0
 50 46  1  1  0  0  0
M  END
>  <MODEL>
7

>  <REMARK>
 VINA RESULT:      -8.5      3.409      6.342
  Name = 
  10 active torsions:
  status: ('A' for Active; 'I' for Inactive)
    1  A    between atoms: N_2  and  C_43
    2  A    between atoms: C_7  and  C_18
    3  A    between atoms: C_7  and  N_32
    4  A    between atoms: C_13  and  C_39
    5  A    between atoms: C_15  and  C_31
    6  A    between atoms: C_15  and  N_33
    7  A    between atoms: C_18  and  C_23
    8  A    between atoms: C_23  and  C_43
    9  A    between atoms: C_31  and  C_38
   10  A    between atoms: N_33  and  N_46
                            x       y       z     vdW  Elec       q    Type
                         _______ _______ _______ _____ _____    ______ ____

>  <TORSDO>
F 10

$$$$
=
 OpenBabel10222419513D

 50 56  0  0  1  0  0  0  0  0999 V2000
  193.1390  175.8440  137.9160 N   0  0  0  0  0  0  0  0  0  0  0  0
  190.1900  177.3300  140.8790 N   0  0  0  0  0  0  0  0  0  0  0  0
  188.7930  177.4770  138.8940 C   0  0  0  0  0  0  0  0  0  0  0  0
  189.9830  177.1200  139.4610 C   0  0  0  0  0  0  0  0  0  0  0  0
  187.7730  178.2430  139.7040 C   0  0  0  0  0  2  0  0  0  0  0  0
  187.8680  177.9550  141.1940 C   0  0  0  0  0  2  0  0  0  0  0  0
  193.9460  174.0140  137.0530 C   0  0  0  0  0  3  0  0  0  0  0  0
  192.5560  176.7060  138.9240 C   0  0  0  0  0  2  0  0  0  0  0  0
  188.4630  177.3220  137.4460 C   0  0  0  0  0  0  0  0  0  0  0  0
  189.5400  175.1290  137.2490 C   0  0  1  0  0  3  0  0  0  0  0  0
  192.2050  175.1950  137.2590 C   0  0  0  0  0  0  0  0  0  0  0  0
  192.6310  174.0450  136.7110 N   0  0  0  0  0  0  0  0  0  0  0  0
  191.0740  176.4940  138.6700 C   0  0  0  0  0  0  0  0  0  0  0  0
  189.6160  174.0620  136.1730 C   0  0  0  0  0  1  0  0  0  0  0  0
  190.8870  175.5880  137.7060 C   0  0  0  0  0  0  0  0  0  0  0  0
  189.2960  178.2050  141.6310 C   0  0  0  0  0  2  0  0  0  0  0  0
  187.6740  178.3420  136.8230 N   0  0  0  0  0  2  0  0  0  0  0  0
  188.7990  176.2730  136.7440 N   0  0  0  0  0  0  0  0  0  0  0  0
  194.2570  175.1080  137.8610 C   0  0  0  0  0  3  0  0  0  0  0  0
  187.3100  178.2820  135.4680 N   0  0  0  0  0  2  0  0  0  0  0  0
  186.5100  177.0830  135.2770 C   0  0  0  0  0  2  0  0  0  0  0  0
  185.0590  177.3650  135.6600 C   0  0  0  0  0  2  0  0  0  0  0  0
  181.1410  176.0560  137.0180 C   0  0  0  0  0  0  0  0  0  0  0  0
  182.0330  176.6610  136.3140 N   0  0  0  0  0  0  0  0  0  0  0  0
  185.5300  175.2260  136.8740 C   0  0  0  0  0  2  0  0  0  0  0  0
  182.7430  174.4460  136.8480 C   0  0  2  0  0  3  0  0  0  0  0  0
  179.9150  176.6750  137.3900 N   0  0  0  0  0  1  0  0  0  0  0  0
  184.8840  173.8920  137.2760 C   0  0  0  0  0  2  0  0  0  0  0  0
  183.6370  174.1120  137.8870 O   0  0  0  0  0  0  0  0  0  0  0  0
  184.4930  176.3410  136.6460 C   0  0  2  0  0  0  0  0  0  0  0  0
  183.1570  175.7520  136.1180 C   0  0  2  0  0  3  0  0  0  0  0  0
  181.4740  174.7690  137.3910 O   0  0  0  0  0  0  0  0  0  0  0  0
  184.2910  177.0540  137.9780 C   0  0  0  0  0  1  0  0  0  0  0  0
  191.0500  176.4210  141.6330 C   0  0  0  0  0  2  0  0  0  0  0  0
  191.5920  177.0840  142.8610 C   0  0  0  0  0  0  0  0  0  0  0  0
  192.0390  178.2160  142.7970 O   0  0  0  0  0  0  0  0  0  0  0  0
  191.5740  176.3490  144.1590 C   0  0  0  0  0  2  0  0  0  0  0  0
  191.2260  177.2900  145.2990 C   0  0  0  0  0  2  0  0  0  0  0  0
  189.8700  177.7930  145.1320 N   0  0  0  0  0  2  0  0  0  0  0  0
  188.7920  177.4660  146.0200 C   0  0  0  0  0  0  0  0  0  0  0  0
  189.0140  176.7740  147.0520 O   0  0  0  0  0  0  0  0  0  0  0  0
  185.3920  177.1660  143.6650 F   0  0  0  0  0  0  0  0  0  0  0  0
  187.4220  177.9310  145.7250 C   0  0  0  0  0  0  0  0  0  0  0  0
  186.4680  177.8320  146.6620 C   0  0  0  0  0  3  0  0  0  0  0  0
  185.6700  178.4830  143.9930 C   0  0  2  0  0  3  0  0  0  0  0  0
  183.4130  178.7190  144.7810 O   0  0  0  0  0  1  0  0  0  0  0  0
  185.0980  178.3210  146.4260 C   0  0  0  0  0  0  0  0  0  0  0  0
  184.2480  178.2570  147.3530 O   0  0  0  0  0  0  0  0  0  0  0  0
  187.1380  178.6150  144.4090 C   0  0  0  0  0  2  0  0  0  0  0  0
  184.7470  178.9700  145.1150 C   0  0  1  0  0  3  0  0  0  0  0  0
  1  8  1  0  0  0  0
  2 16  1  0  0  0  0
  2 34  1  0  0  0  0
  3  4  2  0  0  0  0
  3  5  1  0  0  0  0
  4  2  1  0  0  0  0
  5  6  1  0  0  0  0
  6 16  1  0  0  0  0
  7 19  2  0  0  0  0
  9  3  1  0  0  0  0
 10 14  1  6  0  0  0
 10 15  1  0  0  0  0
 11 15  1  0  0  0  0
 11  1  1  0  0  0  0
 12  7  1  0  0  0  0
 12 11  2  0  0  0  0
 13  8  1  0  0  0  0
 13  4  1  0  0  0  0
 15 13  2  0  0  0  0
 17  9  1  0  0  0  0
 18 10  1  0  0  0  0
 18  9  2  0  0  0  0
 19  1  1  0  0  0  0
 20 17  1  0  0  0  0
 21 20  1  0  0  0  0
 21 22  1  0  0  0  0
 22 30  1  0  0  0  0
 23 27  1  0  0  0  0
 23 32  1  0  0  0  0
 24 23  2  0  0  0  0
 25 28  1  0  0  0  0
 26 32  1  1  0  0  0
 26 29  1  0  0  0  0
 28 29  1  0  0  0  0
 30 25  1  0  0  0  0
 30 33  1  1  0  0  0
 31 24  1  1  0  0  0
 31 30  1  0  0  0  0
 31 26  1  0  0  0  0
 34 35  1  0  0  0  0
 35 37  1  0  0  0  0
 36 35  2  0  0  0  0
 37 38  1  0  0  0  0
 39 38  1  0  0  0  0
 39 40  1  0  0  0  0
 40 41  2  0  0  0  0
 43 40  1  0  0  0  0
 43 44  2  0  0  0  0
 45 42  1  1  0  0  0
 45 49  1  0  0  0  0
 45 50  1  0  0  0  0
 47 44  1  0  0  0  0
 47 48  2  0  0  0  0
 49 43  1  0  0  0  0
 50 46  1  6  0  0  0
 50 47  1  0  0  0  0
M  END
>  <MODEL>
8

>  <REMARK>
 VINA RESULT:      -8.0      1.765      2.335
  Name = 
  10 active torsions:
  status: ('A' for Active; 'I' for Inactive)
    1  A    between atoms: N_2  and  C_43
    2  A    between atoms: C_7  and  C_18
    3  A    between atoms: C_7  and  N_32
    4  A    between atoms: C_13  and  C_39
    5  A    between atoms: C_15  and  C_31
    6  A    between atoms: C_15  and  N_33
    7  A    between atoms: C_18  and  C_23
    8  A    between atoms: C_23  and  C_43
    9  A    between atoms: C_31  and  C_38
   10  A    between atoms: N_33  and  N_46
                            x       y       z     vdW  Elec       q    Type
                         _______ _______ _______ _____ _____    ______ ____

>  <TORSDO>
F 10

$$$$
=
 OpenBabel10222419513D

 50 56  0  0  1  0  0  0  0  0999 V2000
  188.3480  176.7600  146.7060 N   0  0  0  0  0  0  0  0  0  0  0  0
  188.2460  177.9380  142.4300 N   0  0  0  0  0  0  0  0  0  0  0  0
  185.9370  178.4550  142.9890 C   0  0  0  0  0  0  0  0  0  0  0  0
  187.1710  178.0370  143.3950 C   0  0  0  0  0  0  0  0  0  0  0  0
  185.6530  178.6430  141.5170 C   0  0  0  0  0  2  0  0  0  0  0  0
  186.8960  179.0020  140.7190 C   0  0  0  0  0  2  0  0  0  0  0  0
  188.8580  177.5030  148.6890 C   0  0  0  0  0  3  0  0  0  0  0  0
  188.4290  176.6220  145.2660 C   0  0  0  0  0  2  0  0  0  0  0  0
  184.7480  178.5870  143.8830 C   0  0  0  0  0  0  0  0  0  0  0  0
  186.0310  179.5210  145.7510 C   0  0  1  0  0  3  0  0  0  0  0  0
  187.5650  177.7600  147.0370 C   0  0  0  0  0  0  0  0  0  0  0  0
  187.8330  178.2780  148.2470 N   0  0  0  0  0  0  0  0  0  0  0  0
  187.4590  177.7000  144.8140 C   0  0  0  0  0  0  0  0  0  0  0  0
  185.6820  180.1310  147.0960 C   0  0  0  0  0  1  0  0  0  0  0  0
  186.9800  178.3720  145.8640 C   0  0  0  0  0  0  0  0  0  0  0  0
  187.9540  177.9550  141.0000 C   0  0  0  0  0  2  0  0  0  0  0  0
  183.4650  178.2410  143.3510 N   0  0  0  0  0  2  0  0  0  0  0  0
  184.8160  179.0660  145.0970 N   0  0  0  0  0  0  0  0  0  0  0  0
  189.2280  176.5880  147.7020 C   0  0  0  0  0  3  0  0  0  0  0  0
  182.2900  178.3360  144.1140 N   0  0  0  0  0  2  0  0  0  0  0  0
  181.2980  179.0350  143.3140 C   0  0  0  0  0  2  0  0  0  0  0  0
  180.4610  178.0260  142.5330 C   0  0  0  0  0  2  0  0  0  0  0  0
  182.8050  179.5320  139.1940 C   0  0  0  0  0  0  0  0  0  0  0  0
  182.5350  179.0270  140.3470 N   0  0  0  0  0  0  0  0  0  0  0  0
  178.9310  177.7750  140.5660 C   0  0  0  0  0  2  0  0  0  0  0  0
  181.0940  178.1200  138.6740 C   0  0  2  0  0  3  0  0  0  0  0  0
  183.8390  180.4910  139.0040 N   0  0  0  0  0  1  0  0  0  0  0  0
  178.9360  177.5900  139.0410 C   0  0  0  0  0  2  0  0  0  0  0  0
  179.7710  178.5430  138.4310 O   0  0  0  0  0  0  0  0  0  0  0  0
  180.2130  178.4520  141.0840 C   0  0  2  0  0  0  0  0  0  0  0  0
  181.4300  178.0890  140.1900 C   0  0  2  0  0  3  0  0  0  0  0  0
  182.0070  179.0770  138.1630 O   0  0  0  0  0  0  0  0  0  0  0  0
  179.9640  179.9560  141.0880 C   0  0  0  0  0  1  0  0  0  0  0  0
  189.6270  178.1730  142.8480 C   0  0  0  0  0  2  0  0  0  0  0  0
  190.5500  177.1530  142.2590 C   0  0  0  0  0  0  0  0  0  0  0  0
  190.1940  175.9920  142.1590 O   0  0  0  0  0  0  0  0  0  0  0  0
  191.9040  177.5730  141.7940 C   0  0  0  0  0  2  0  0  0  0  0  0
  192.1850  177.0210  140.4070 C   0  0  0  0  0  2  0  0  0  0  0  0
  191.0740  177.3250  139.5160 N   0  0  0  0  0  2  0  0  0  0  0  0
  190.5860  176.4120  138.5230 C   0  0  0  0  0  0  0  0  0  0  0  0
  191.0710  175.2490  138.4450 O   0  0  0  0  0  0  0  0  0  0  0  0
  186.7840  175.7910  136.9900 F   0  0  0  0  0  0  0  0  0  0  0  0
  189.5240  176.8320  137.5890 C   0  0  0  0  0  0  0  0  0  0  0  0
  189.0050  178.0660  137.6790 C   0  0  0  0  0  3  0  0  0  0  0  0
  187.6770  176.1680  136.0000 C   0  0  2  0  0  3  0  0  0  0  0  0
  186.1490  177.9000  135.3400 O   0  0  0  0  0  1  0  0  0  0  0  0
  187.9730  178.5420  136.7420 C   0  0  0  0  0  0  0  0  0  0  0  0
  187.5530  179.7260  136.8310 O   0  0  0  0  0  0  0  0  0  0  0  0
  189.1110  175.9070  136.4690 C   0  0  0  0  0  2  0  0  0  0  0  0
  187.4910  177.6450  135.6340 C   0  0  1  0  0  3  0  0  0  0  0  0
  1 11  1  0  0  0  0
  1 19  1  0  0  0  0
  2 34  1  0  0  0  0
  2  4  1  0  0  0  0
  3  4  2  0  0  0  0
  3  9  1  0  0  0  0
  4 13  1  0  0  0  0
  5  3  1  0  0  0  0
  6 16  1  0  0  0  0
  6  5  1  0  0  0  0
  8  1  1  0  0  0  0
  9 18  2  0  0  0  0
 10 15  1  0  0  0  0
 10 14  1  1  0  0  0
 11 12  2  0  0  0  0
 12  7  1  0  0  0  0
 13  8  1  0  0  0  0
 13 15  2  0  0  0  0
 15 11  1  0  0  0  0
 16  2  1  0  0  0  0
 17  9  1  0  0  0  0
 17 20  1  0  0  0  0
 18 10  1  0  0  0  0
 19  7  2  0  0  0  0
 21 20  1  0  0  0  0
 22 21  1  0  0  0  0
 23 24  2  0  0  0  0
 25 30  1  0  0  0  0
 26 32  1  6  0  0  0
 26 31  1  0  0  0  0
 27 23  1  0  0  0  0
 28 25  1  0  0  0  0
 29 26  1  0  0  0  0
 29 28  1  0  0  0  0
 30 33  1  6  0  0  0
 30 22  1  0  0  0  0
 31 24  1  6  0  0  0
 31 30  1  0  0  0  0
 32 23  1  0  0  0  0
 35 34  1  0  0  0  0
 36 35  2  0  0  0  0
 37 35  1  0  0  0  0
 38 37  1  0  0  0  0
 39 38  1  0  0  0  0
 40 39  1  0  0  0  0
 41 40  2  0  0  0  0
 43 44  2  0  0  0  0
 43 40  1  0  0  0  0
 45 49  1  0  0  0  0
 45 42  1  1  0  0  0
 47 48  2  0  0  0  0
 47 44  1  0  0  0  0
 49 43  1  0  0  0  0
 50 46  1  1  0  0  0
 50 45  1  0  0  0  0
 50 47  1  0  0  0  0
M  END
>  <MODEL>
9

>  <REMARK>
 VINA RESULT:      -7.8      3.121      7.582
  Name = 
  10 active torsions:
  status: ('A' for Active; 'I' for Inactive)
    1  A    between atoms: N_2  and  C_43
    2  A    between atoms: C_7  and  C_18
    3  A    between atoms: C_7  and  N_32
    4  A    between atoms: C_13  and  C_39
    5  A    between atoms: C_15  and  C_31
    6  A    between atoms: C_15  and  N_33
    7  A    between atoms: C_18  and  C_23
    8  A    between atoms: C_23  and  C_43
    9  A    between atoms: C_31  and  C_38
   10  A    between atoms: N_33  and  N_46
                            x       y       z     vdW  Elec       q    Type
                         _______ _______ _______ _____ _____    ______ ____

>  <TORSDO>
F 10

$$$$
