=
 OpenBabel10222416393D

 30 34  0  0  1  0  0  0  0  0999 V2000
  192.5020  178.9820  144.7530 O   0  0  0  0  0  1  0  0  0  0  0  0
  191.4210  178.4570  144.0450 C   0  0  2  0  0  0  0  0  0  0  0  0
  190.9270  176.4920  142.9710 C   0  0  1  0  0  3  0  0  0  0  0  0
  190.3080  178.2910  144.8200 O   0  0  0  0  0  0  0  0  0  0  0  0
  190.9640  177.0750  144.4210 C   0  0  2  0  0  0  0  0  0  0  0  0
  191.1320  178.9170  142.6460 C   0  0  0  0  0  2  0  0  0  0  0  0
  189.7550  176.2640  143.8600 C   0  0  1  0  0  3  0  0  0  0  0  0
  190.8940  177.6210  141.9190 C   0  0  2  0  0  3  0  0  0  0  0  0
  188.5570  177.1190  138.8950 C   0  0  0  0  0  0  0  0  0  0  0  0
  189.6900  176.7730  139.8280 C   0  0  0  0  0  0  0  0  0  0  0  0
  192.3020  176.3990  137.1160 N   0  0  0  0  0  1  0  0  0  0  0  0
  188.5010  178.2940  141.4390 C   0  0  0  0  0  3  0  0  0  0  0  0
  187.4530  178.3590  140.6170 C   0  0  0  0  0  0  0  0  0  0  0  0
  189.8300  176.3740  137.0090 N   0  0  0  0  0  0  0  0  0  0  0  0
  188.6610  176.6720  137.5010 C   0  0  0  0  0  2  0  0  0  0  0  0
  187.5290  177.8020  139.2970 N   0  0  0  0  0  0  0  0  0  0  0  0
  191.0440  176.5020  137.7730 C   0  0  0  0  0  0  0  0  0  0  0  0
  189.7060  177.6090  141.0440 N   0  0  0  0  0  0  0  0  0  0  0  0
  191.0050  176.7560  139.0890 C   0  0  0  0  0  3  0  0  0  0  0  0
  186.2350  179.1140  141.0290 C   0  0  0  0  0  2  0  0  0  0  0  0
  185.1070  178.8680  140.0820 C   0  0  0  0  0  3  0  0  0  0  0  0
  184.5820  179.8410  139.4320 N   0  0  0  0  0  2  0  0  0  0  0  0
  188.6290  177.0600  143.4920 O   0  0  0  0  0  0  0  0  0  0  0  0
  186.3710  176.7550  143.7270 O   0  0  0  0  0  0  0  0  0  0  0  0
  187.5080  177.4540  145.6420 N   0  0  0  0  0  2  0  0  0  0  0  0
  187.4650  177.0760  144.2620 C   0  0  0  0  0  0  0  0  0  0  0  0
  186.3070  177.5140  146.4630 C   0  0  0  0  0  2  0  0  0  0  0  0
  185.8420  178.9550  146.5980 C   0  0  0  0  0  2  0  0  0  0  0  0
  185.0080  179.3670  145.3940 C   0  0  0  0  0  2  0  0  0  0  0  0
  183.6250  178.9580  145.5800 N   0  0  0  0  0  1  0  0  0  0  0  0
  2  5  1  0  0  0  0
  2  1  1  1  0  0  0
  2  4  1  0  0  0  0
  3  7  1  0  0  0  0
  3  5  1  0  0  0  0
  5  4  1  0  0  0  0
  6  2  1  0  0  0  0
  7  5  1  0  0  0  0
  8  6  1  0  0  0  0
  8  3  1  0  0  0  0
  9 16  2  0  0  0  0
  9 10  1  0  0  0  0
 10 18  1  0  0  0  0
 11 17  1  0  0  0  0
 13 20  1  0  0  0  0
 13 12  2  0  0  0  0
 14 15  1  0  0  0  0
 14 17  2  0  0  0  0
 15  9  1  0  0  0  0
 16 13  1  0  0  0  0
 17 19  1  0  0  0  0
 18 12  1  0  0  0  0
 18  8  1  0  0  0  0
 19 10  2  0  0  0  0
 21 20  1  0  0  0  0
 22 21  2  0  0  0  0
 23  7  1  0  0  0  0
 23 26  1  0  0  0  0
 24 26  2  0  0  0  0
 25 27  1  0  0  0  0
 26 25  1  0  0  0  0
 27 28  1  0  0  0  0
 29 30  1  0  0  0  0
 29 28  1  0  0  0  0
M  END
>  <MODEL>
1

>  <REMARK>
 VINA RESULT:      -6.4      0.000      0.000
  Name = 
  8 active torsions:
  status: ('A' for Active; 'I' for Inactive)
    1  A    between atoms: C_6  and  C_12
    2  A    between atoms: C_6  and  C_23
    3  A    between atoms: C_8  and  C_27
    4  A    between atoms: N_11  and  C_16
    5  A    between atoms: O_13  and  C_15
    6  A    between atoms: O_13  and  C_24
    7  A    between atoms: C_16  and  C_27
    8  A    between atoms: N_25  and  C_26
                            x       y       z     vdW  Elec       q    Type
                         _______ _______ _______ _____ _____    ______ ____

>  <TORSDO>
F 8

$$$$
=
 OpenBabel10222416393D

 30 34  0  0  1  0  0  0  0  0999 V2000
  192.3580  178.5630  144.7490 O   0  0  0  0  0  1  0  0  0  0  0  0
  191.2470  178.1560  144.0100 C   0  0  2  0  0  0  0  0  0  0  0  0
  190.6120  176.2850  142.8460 C   0  0  1  0  0  3  0  0  0  0  0  0
  190.1160  178.0440  144.7690 O   0  0  0  0  0  0  0  0  0  0  0  0
  190.6800  176.7990  144.3210 C   0  0  2  0  0  0  0  0  0  0  0  0
  191.0080  178.6980  142.6310 C   0  0  0  0  0  2  0  0  0  0  0  0
  189.4170  176.1100  143.7150 C   0  0  1  0  0  3  0  0  0  0  0  0
  190.6790  177.4580  141.8450 C   0  0  2  0  0  3  0  0  0  0  0  0
  188.3490  177.3000  138.7780 C   0  0  0  0  0  0  0  0  0  0  0  0
  189.4480  176.8230  139.6950 C   0  0  0  0  0  0  0  0  0  0  0  0
  192.0610  176.4550  136.9840 N   0  0  0  0  0  1  0  0  0  0  0  0
  188.3380  178.3120  141.3910 C   0  0  0  0  0  3  0  0  0  0  0  0
  187.3060  178.4970  140.5670 C   0  0  0  0  0  0  0  0  0  0  0  0
  189.5940  176.5960  136.8580 N   0  0  0  0  0  0  0  0  0  0  0  0
  188.4410  176.9360  137.3580 C   0  0  0  0  0  2  0  0  0  0  0  0
  187.3630  178.0210  139.2140 N   0  0  0  0  0  0  0  0  0  0  0  0
  190.8040  176.5970  137.6370 C   0  0  0  0  0  0  0  0  0  0  0  0
  189.5020  177.5780  140.9620 N   0  0  0  0  0  0  0  0  0  0  0  0
  190.7670  176.7690  138.9670 C   0  0  0  0  0  3  0  0  0  0  0  0
  186.1340  179.3010  141.0170 C   0  0  0  0  0  2  0  0  0  0  0  0
  184.9310  179.0070  140.1830 C   0  0  0  0  0  3  0  0  0  0  0  0
  184.4660  179.8930  139.3820 N   0  0  0  0  0  2  0  0  0  0  0  0
  188.3600  177.0070  143.3760 O   0  0  0  0  0  0  0  0  0  0  0  0
  186.1130  177.2300  143.7600 O   0  0  0  0  0  0  0  0  0  0  0  0
  187.4900  177.4270  145.6350 N   0  0  0  0  0  2  0  0  0  0  0  0
  187.2800  177.2200  144.2330 C   0  0  0  0  0  0  0  0  0  0  0  0
  186.3880  177.6850  146.5500 C   0  0  0  0  0  2  0  0  0  0  0  0
  186.8860  178.4690  147.7540 C   0  0  0  0  0  2  0  0  0  0  0  0
  187.9020  177.6580  148.5440 C   0  0  0  0  0  2  0  0  0  0  0  0
  189.2040  178.3030  148.4940 N   0  0  0  0  0  1  0  0  0  0  0  0
  2  5  1  0  0  0  0
  2  1  1  1  0  0  0
  2  4  1  0  0  0  0
  3  7  1  0  0  0  0
  3  5  1  0  0  0  0
  5  4  1  0  0  0  0
  6  2  1  0  0  0  0
  7  5  1  0  0  0  0
  8  6  1  0  0  0  0
  8  3  1  0  0  0  0
  9 16  2  0  0  0  0
  9 10  1  0  0  0  0
 10 18  1  0  0  0  0
 11 17  1  0  0  0  0
 13 20  1  0  0  0  0
 13 12  2  0  0  0  0
 14 15  1  0  0  0  0
 14 17  2  0  0  0  0
 15  9  1  0  0  0  0
 16 13  1  0  0  0  0
 17 19  1  0  0  0  0
 18 12  1  0  0  0  0
 18  8  1  0  0  0  0
 19 10  2  0  0  0  0
 21 20  1  0  0  0  0
 22 21  2  0  0  0  0
 23  7  1  0  0  0  0
 23 26  1  0  0  0  0
 24 26  2  0  0  0  0
 25 27  1  0  0  0  0
 26 25  1  0  0  0  0
 27 28  1  0  0  0  0
 28 29  1  0  0  0  0
 30 29  1  0  0  0  0
M  END
>  <MODEL>
2

>  <REMARK>
 VINA RESULT:      -6.3      0.963      1.488
  Name = 
  8 active torsions:
  status: ('A' for Active; 'I' for Inactive)
    1  A    between atoms: C_6  and  C_12
    2  A    between atoms: C_6  and  C_23
    3  A    between atoms: C_8  and  C_27
    4  A    between atoms: N_11  and  C_16
    5  A    between atoms: O_13  and  C_15
    6  A    between atoms: O_13  and  C_24
    7  A    between atoms: C_16  and  C_27
    8  A    between atoms: N_25  and  C_26
                            x       y       z     vdW  Elec       q    Type
                         _______ _______ _______ _____ _____    ______ ____

>  <TORSDO>
F 8

$$$$
=
 OpenBabel10222416393D

 30 34  0  0  1  0  0  0  0  0999 V2000
  194.5850  175.6880  134.6870 O   0  0  0  0  0  1  0  0  0  0  0  0
  193.4550  175.6960  135.5040 C   0  0  2  0  0  0  0  0  0  0  0  0
  192.1960  174.1420  136.6260 C   0  0  1  0  0  3  0  0  0  0  0  0
  193.6560  176.3560  136.6840 O   0  0  0  0  0  0  0  0  0  0  0  0
  193.5370  174.9270  136.7930 C   0  0  2  0  0  0  0  0  0  0  0  0
  192.0890  175.8980  134.9130 C   0  0  0  0  0  2  0  0  0  0  0  0
  192.4710  174.8110  137.9260 C   0  0  1  0  0  3  0  0  0  0  0  0
  191.2810  174.8190  135.5830 C   0  0  2  0  0  3  0  0  0  0  0  0
  187.6760  174.8220  136.9460 C   0  0  0  0  0  0  0  0  0  0  0  0
  189.0750  174.2900  136.7640 C   0  0  2  0  0  3  0  0  0  0  0  0
  188.0180  170.8340  135.6480 N   0  0  0  0  0  1  0  0  0  0  0  0
  189.6240  176.6580  136.1180 C   0  0  0  0  0  3  0  0  0  0  0  0
  188.4140  177.0550  136.5110 C   0  0  0  0  0  0  0  0  0  0  0  0
  186.7800  172.6030  136.8560 N   0  0  0  0  0  0  0  0  0  0  0  0
  186.6040  173.8490  137.1930 C   0  0  0  0  0  3  0  0  0  0  0  0
  187.4140  176.0900  136.8720 N   0  0  0  0  0  0  0  0  0  0  0  0
  187.9810  172.1410  136.2100 C   0  0  0  0  0  0  0  0  0  0  0  0
  189.9740  175.2600  136.1080 N   0  0  0  0  0  0  0  0  0  0  0  0
  189.0520  172.9390  136.0950 C   0  0  0  0  0  3  0  0  0  0  0  0
  188.0580  178.5030  136.4680 C   0  0  0  0  0  2  0  0  0  0  0  0
  188.9530  179.3010  137.3580 C   0  0  0  0  0  3  0  0  0  0  0  0
  188.9570  179.0960  138.6230 N   0  0  0  0  0  2  0  0  0  0  0  0
  191.6790  175.9830  138.1150 O   0  0  0  0  0  0  0  0  0  0  0  0
  192.5030  177.3520  139.7560 O   0  0  0  0  0  0  0  0  0  0  0  0
  190.4260  176.3810  140.1910 N   0  0  0  0  0  2  0  0  0  0  0  0
  191.5740  176.6000  139.3630 C   0  0  0  0  0  0  0  0  0  0  0  0
  190.3010  176.9830  141.5100 C   0  0  0  0  0  2  0  0  0  0  0  0
  188.9790  176.5770  142.1420 C   0  0  0  0  0  2  0  0  0  0  0  0
  188.5690  177.5700  143.2200 C   0  0  0  0  0  2  0  0  0  0  0  0
  187.5940  176.9650  144.1120 N   0  0  0  0  0  1  0  0  0  0  0  0
  2  1  1  6  0  0  0
  2  4  1  0  0  0  0
  2  5  1  0  0  0  0
  3  5  1  0  0  0  0
  3  7  1  0  0  0  0
  4  5  1  0  0  0  0
  5  7  1  0  0  0  0
  6  2  1  0  0  0  0
  6  8  1  0  0  0  0
  7 23  1  0  0  0  0
  8 18  1  0  0  0  0
  8  3  1  0  0  0  0
  9 15  1  0  0  0  0
 10  9  1  0  0  0  0
 11 17  1  0  0  0  0
 12 13  2  0  0  0  0
 13 16  1  0  0  0  0
 14 15  2  0  0  0  0
 16  9  2  0  0  0  0
 17 14  1  0  0  0  0
 18 12  1  0  0  0  0
 18 10  1  0  0  0  0
 19 17  2  0  0  0  0
 19 10  1  0  0  0  0
 20 13  1  0  0  0  0
 20 21  1  0  0  0  0
 21 22  2  0  0  0  0
 23 26  1  0  0  0  0
 25 27  1  0  0  0  0
 26 24  2  0  0  0  0
 26 25  1  0  0  0  0
 27 28  1  0  0  0  0
 28 29  1  0  0  0  0
 29 30  1  0  0  0  0
M  END
>  <MODEL>
3

>  <REMARK>
 VINA RESULT:      -6.0      3.950      6.280
  Name = 
  8 active torsions:
  status: ('A' for Active; 'I' for Inactive)
    1  A    between atoms: C_6  and  C_12
    2  A    between atoms: C_6  and  C_23
    3  A    between atoms: C_8  and  C_27
    4  A    between atoms: N_11  and  C_16
    5  A    between atoms: O_13  and  C_15
    6  A    between atoms: O_13  and  C_24
    7  A    between atoms: C_16  and  C_27
    8  A    between atoms: N_25  and  C_26
                            x       y       z     vdW  Elec       q    Type
                         _______ _______ _______ _____ _____    ______ ____

>  <TORSDO>
F 8

$$$$
=
 OpenBabel10222416393D

 30 34  0  0  1  0  0  0  0  0999 V2000
  179.3710  175.0940  139.6300 O   0  0  0  0  0  1  0  0  0  0  0  0
  180.3120  176.0770  139.3210 C   0  0  2  0  0  0  0  0  0  0  0  0
  181.4720  176.7480  137.4610 C   0  0  1  0  0  3  0  0  0  0  0  0
  179.8170  177.3440  139.4460 O   0  0  0  0  0  0  0  0  0  0  0  0
  180.0520  176.9090  138.0960 C   0  0  2  0  0  0  0  0  0  0  0  0
  181.7400  175.9300  139.7590 C   0  0  0  0  0  2  0  0  0  0  0  0
  180.8800  178.1110  137.5440 C   0  0  1  0  0  3  0  0  0  0  0  0
  182.5020  176.2840  138.5110 C   0  0  2  0  0  3  0  0  0  0  0  0
  185.7530  178.2940  138.0060 C   0  0  0  0  0  0  0  0  0  0  0  0
  184.4770  177.6130  137.5760 C   0  0  0  0  0  0  0  0  0  0  0  0
  186.0800  175.4840  134.8910 N   0  0  0  0  0  1  0  0  0  0  0  0
  183.8270  177.8530  139.9940 C   0  0  0  0  0  3  0  0  0  0  0  0
  184.8900  178.6270  140.2120 C   0  0  0  0  0  0  0  0  0  0  0  0
  186.8700  177.5330  136.0310 N   0  0  0  0  0  0  0  0  0  0  0  0
  186.8490  178.3650  137.0320 C   0  0  0  0  0  2  0  0  0  0  0  0
  185.8920  178.7880  139.1980 N   0  0  0  0  0  0  0  0  0  0  0  0
  185.8730  176.5090  135.8560 C   0  0  0  0  0  0  0  0  0  0  0  0
  183.6300  177.2140  138.7170 N   0  0  0  0  0  0  0  0  0  0  0  0
  184.7690  176.4870  136.6170 C   0  0  0  0  0  3  0  0  0  0  0  0
  185.0970  179.2390  141.5560 C   0  0  0  0  0  2  0  0  0  0  0  0
  185.1390  178.1930  142.6200 C   0  0  0  0  0  3  0  0  0  0  0  0
  186.2560  177.8530  143.1510 N   0  0  0  0  0  2  0  0  0  0  0  0
  181.4990  178.9140  138.5490 O   0  0  0  0  0  0  0  0  0  0  0  0
  182.6250  180.9060  138.6480 O   0  0  0  0  0  0  0  0  0  0  0  0
  180.3530  181.0460  138.1320 N   0  0  0  0  0  2  0  0  0  0  0  0
  181.5360  180.3050  138.4510 C   0  0  0  0  0  0  0  0  0  0  0  0
  180.3500  182.5000  138.0550 C   0  0  0  0  0  2  0  0  0  0  0  0
  180.7340  182.9460  136.6530 C   0  0  0  0  0  2  0  0  0  0  0  0
  181.1180  184.4180  136.6430 C   0  0  0  0  0  2  0  0  0  0  0  0
  182.2510  184.6460  137.5250 N   0  0  0  0  0  1  0  0  0  0  0  0
  2  4  1  0  0  0  0
  2  1  1  1  0  0  0
  2  6  1  0  0  0  0
  3  7  1  0  0  0  0
  3  5  1  0  0  0  0
  3  8  1  0  0  0  0
  5  2  1  0  0  0  0
  5  4  1  0  0  0  0
  7  5  1  0  0  0  0
  7 23  1  0  0  0  0
  8 18  1  0  0  0  0
  8  6  1  0  0  0  0
  9 16  2  0  0  0  0
 10  9  1  0  0  0  0
 10 18  1  0  0  0  0
 11 17  1  0  0  0  0
 12 13  2  0  0  0  0
 13 20  1  0  0  0  0
 14 15  1  0  0  0  0
 15  9  1  0  0  0  0
 16 13  1  0  0  0  0
 17 14  2  0  0  0  0
 17 19  1  0  0  0  0
 18 12  1  0  0  0  0
 19 10  2  0  0  0  0
 20 21  1  0  0  0  0
 21 22  2  0  0  0  0
 25 26  1  0  0  0  0
 26 23  1  0  0  0  0
 26 24  2  0  0  0  0
 27 25  1  0  0  0  0
 28 27  1  0  0  0  0
 29 28  1  0  0  0  0
 29 30  1  0  0  0  0
M  END
>  <MODEL>
4

>  <REMARK>
 VINA RESULT:      -6.0      5.243      8.575
  Name = 
  8 active torsions:
  status: ('A' for Active; 'I' for Inactive)
    1  A    between atoms: C_6  and  C_12
    2  A    between atoms: C_6  and  C_23
    3  A    between atoms: C_8  and  C_27
    4  A    between atoms: N_11  and  C_16
    5  A    between atoms: O_13  and  C_15
    6  A    between atoms: O_13  and  C_24
    7  A    between atoms: C_16  and  C_27
    8  A    between atoms: N_25  and  C_26
                            x       y       z     vdW  Elec       q    Type
                         _______ _______ _______ _____ _____    ______ ____

>  <TORSDO>
F 8

$$$$
=
 OpenBabel10222416393D

 30 34  0  0  1  0  0  0  0  0999 V2000
  181.2860  180.3930  137.7970 O   0  0  0  0  0  1  0  0  0  0  0  0
  182.2220  179.5370  138.3770 C   0  0  2  0  0  0  0  0  0  0  0  0
  182.3240  178.1800  140.2230 C   0  0  1  0  0  3  0  0  0  0  0  0
  182.5140  178.4570  137.5920 O   0  0  0  0  0  0  0  0  0  0  0  0
  181.7440  178.1670  138.7710 C   0  0  2  0  0  0  0  0  0  0  0  0
  183.4030  180.0900  139.1210 C   0  0  0  0  0  2  0  0  0  0  0  0
  182.5670  176.9850  139.3710 C   0  0  1  0  0  3  0  0  0  0  0  0
  183.4170  179.2590  140.3760 C   0  0  2  0  0  3  0  0  0  0  0  0
  186.3840  177.9070  142.4310 C   0  0  0  0  0  0  0  0  0  0  0  0
  184.9310  178.0840  142.0690 C   0  0  2  0  0  3  0  0  0  0  0  0
  183.8260  179.2010  145.5110 N   0  0  0  0  0  1  0  0  0  0  0  0
  185.8280  178.7300  139.8100 C   0  0  0  0  0  3  0  0  0  0  0  0
  187.0500  178.3400  140.1750 C   0  0  0  0  0  0  0  0  0  0  0  0
  185.8550  177.9980  144.7640 N   0  0  0  0  0  0  0  0  0  0  0  0
  186.7110  177.6620  143.8410 C   0  0  0  0  0  3  0  0  0  0  0  0
  187.3220  177.9820  141.5370 N   0  0  0  0  0  0  0  0  0  0  0  0
  184.6030  178.6410  144.4590 C   0  0  0  0  0  0  0  0  0  0  0  0
  184.7430  178.7380  140.7600 N   0  0  0  0  0  0  0  0  0  0  0  0
  184.1780  178.7530  143.1920 C   0  0  0  0  0  3  0  0  0  0  0  0
  188.1670  178.3860  139.1880 C   0  0  0  0  0  2  0  0  0  0  0  0
  188.9750  177.1320  139.2360 C   0  0  0  0  0  3  0  0  0  0  0  0
  190.1940  177.1620  139.6320 N   0  0  0  0  0  2  0  0  0  0  0  0
  183.9150  176.9090  138.9090 O   0  0  0  0  0  0  0  0  0  0  0  0
  185.2320  176.2380  137.1590 O   0  0  0  0  0  0  0  0  0  0  0  0
  183.6860  174.6680  137.9280 N   0  0  0  0  0  2  0  0  0  0  0  0
  184.3130  175.9550  137.9710 C   0  0  0  0  0  0  0  0  0  0  0  0
  184.0540  173.6630  136.9420 C   0  0  0  0  0  2  0  0  0  0  0  0
  184.9600  172.6200  137.5770 C   0  0  0  0  0  2  0  0  0  0  0  0
  186.4140  172.8720  137.2080 C   0  0  0  0  0  2  0  0  0  0  0  0
  186.5080  173.3330  135.8320 N   0  0  0  0  0  1  0  0  0  0  0  0
  2  1  1  6  0  0  0
  2  5  1  0  0  0  0
  2  6  1  0  0  0  0
  3  8  1  0  0  0  0
  4  2  1  0  0  0  0
  4  5  1  0  0  0  0
  5  7  1  0  0  0  0
  5  3  1  0  0  0  0
  6  8  1  0  0  0  0
  7  3  1  0  0  0  0
  8 18  1  0  0  0  0
  9 15  1  0  0  0  0
 10  9  1  0  0  0  0
 10 19  1  0  0  0  0
 12 13  2  0  0  0  0
 12 18  1  0  0  0  0
 13 16  1  0  0  0  0
 15 14  2  0  0  0  0
 16  9  2  0  0  0  0
 17 14  1  0  0  0  0
 17 11  1  0  0  0  0
 18 10  1  0  0  0  0
 19 17  2  0  0  0  0
 20 21  1  0  0  0  0
 20 13  1  0  0  0  0
 21 22  2  0  0  0  0
 23  7  1  0  0  0  0
 24 26  2  0  0  0  0
 25 26  1  0  0  0  0
 26 23  1  0  0  0  0
 27 28  1  0  0  0  0
 27 25  1  0  0  0  0
 29 28  1  0  0  0  0
 30 29  1  0  0  0  0
M  END
>  <MODEL>
5

>  <REMARK>
 VINA RESULT:      -6.0      3.810      8.370
  Name = 
  8 active torsions:
  status: ('A' for Active; 'I' for Inactive)
    1  A    between atoms: C_6  and  C_12
    2  A    between atoms: C_6  and  C_23
    3  A    between atoms: C_8  and  C_27
    4  A    between atoms: N_11  and  C_16
    5  A    between atoms: O_13  and  C_15
    6  A    between atoms: O_13  and  C_24
    7  A    between atoms: C_16  and  C_27
    8  A    between atoms: N_25  and  C_26
                            x       y       z     vdW  Elec       q    Type
                         _______ _______ _______ _____ _____    ______ ____

>  <TORSDO>
F 8

$$$$
=
 OpenBabel10222416393D

 30 34  0  0  1  0  0  0  0  0999 V2000
  187.4460  179.1660  135.8330 O   0  0  0  0  0  1  0  0  0  0  0  0
  188.1340  178.3560  136.7360 C   0  0  2  0  0  0  0  0  0  0  0  0
  187.5890  176.8150  138.3450 C   0  0  1  0  0  3  0  0  0  0  0  0
  188.9070  177.4120  136.1220 O   0  0  0  0  0  0  0  0  0  0  0  0
  187.7390  176.9060  136.7920 C   0  0  2  0  0  0  0  0  0  0  0  0
  188.7510  178.9450  137.9710 C   0  0  0  0  0  2  0  0  0  0  0  0
  188.3680  175.7590  137.6430 C   0  0  1  0  0  3  0  0  0  0  0  0
  188.3190  177.9820  139.0440 C   0  0  2  0  0  3  0  0  0  0  0  0
  190.2140  176.8660  142.2090 C   0  0  0  0  0  0  0  0  0  0  0  0
  189.0460  176.9280  141.2570 C   0  0  2  0  0  3  0  0  0  0  0  0
  186.4970  177.9420  143.8630 N   0  0  0  0  0  1  0  0  0  0  0  0
  190.7720  177.6500  139.5770 C   0  0  0  0  0  3  0  0  0  0  0  0
  191.7460  177.3590  140.4400 C   0  0  0  0  0  0  0  0  0  0  0  0
  188.7340  176.9080  144.0900 N   0  0  0  0  0  0  0  0  0  0  0  0
  189.9240  176.6440  143.6310 C   0  0  0  0  0  3  0  0  0  0  0  0
  191.4360  177.0190  141.7990 N   0  0  0  0  0  0  0  0  0  0  0  0
  187.6890  177.4490  143.2600 C   0  0  0  0  0  0  0  0  0  0  0  0
  189.3880  177.5680  139.9730 N   0  0  0  0  0  0  0  0  0  0  0  0
  187.8390  177.5310  141.9300 C   0  0  0  0  0  3  0  0  0  0  0  0
  193.1710  177.4960  140.0220 C   0  0  0  0  0  2  0  0  0  0  0  0
  193.4380  176.7300  138.7690 C   0  0  0  0  0  3  0  0  0  0  0  0
  194.3180  175.7970  138.7560 N   0  0  0  0  0  2  0  0  0  0  0  0
  189.7730  175.8840  137.8580 O   0  0  0  0  0  0  0  0  0  0  0  0
  190.7000  173.8070  137.5880 O   0  0  0  0  0  0  0  0  0  0  0  0
  191.5930  175.5000  136.2530 N   0  0  0  0  0  2  0  0  0  0  0  0
  190.6840  175.0190  137.2490 C   0  0  0  0  0  0  0  0  0  0  0  0
  192.5770  174.6320  135.6230 C   0  0  0  0  0  2  0  0  0  0  0  0
  193.4840  175.4480  134.7160 C   0  0  0  0  0  2  0  0  0  0  0  0
  194.9000  175.4950  135.2710 C   0  0  0  0  0  2  0  0  0  0  0  0
  195.2830  176.8710  135.5460 N   0  0  0  0  0  1  0  0  0  0  0  0
  2  1  1  6  0  0  0
  2  5  1  0  0  0  0
  2  6  1  0  0  0  0
  3  8  1  0  0  0  0
  4  2  1  0  0  0  0
  4  5  1  0  0  0  0
  5  7  1  0  0  0  0
  5  3  1  0  0  0  0
  6  8  1  0  0  0  0
  7 23  1  0  0  0  0
  7  3  1  0  0  0  0
  8 18  1  0  0  0  0
  9 15  1  0  0  0  0
 10 19  1  0  0  0  0
 10  9  1  0  0  0  0
 12 18  1  0  0  0  0
 12 13  2  0  0  0  0
 13 16  1  0  0  0  0
 15 14  2  0  0  0  0
 16  9  2  0  0  0  0
 17 11  1  0  0  0  0
 17 14  1  0  0  0  0
 18 10  1  0  0  0  0
 19 17  2  0  0  0  0
 20 13  1  0  0  0  0
 21 20  1  0  0  0  0
 22 21  2  0  0  0  0
 25 26  1  0  0  0  0
 26 24  2  0  0  0  0
 26 23  1  0  0  0  0
 27 25  1  0  0  0  0
 28 29  1  0  0  0  0
 28 27  1  0  0  0  0
 29 30  1  0  0  0  0
M  END
>  <MODEL>
6

>  <REMARK>
 VINA RESULT:      -5.9      3.395      8.323
  Name = 
  8 active torsions:
  status: ('A' for Active; 'I' for Inactive)
    1  A    between atoms: C_6  and  C_12
    2  A    between atoms: C_6  and  C_23
    3  A    between atoms: C_8  and  C_27
    4  A    between atoms: N_11  and  C_16
    5  A    between atoms: O_13  and  C_15
    6  A    between atoms: O_13  and  C_24
    7  A    between atoms: C_16  and  C_27
    8  A    between atoms: N_25  and  C_26
                            x       y       z     vdW  Elec       q    Type
                         _______ _______ _______ _____ _____    ______ ____

>  <TORSDO>
F 8

$$$$
=
 OpenBabel10222416393D

 30 34  0  0  1  0  0  0  0  0999 V2000
  179.1770  179.9720  143.6620 O   0  0  0  0  0  1  0  0  0  0  0  0
  179.7810  179.7010  142.4340 C   0  0  2  0  0  0  0  0  0  0  0  0
  179.2110  178.6070  140.5000 C   0  0  1  0  0  3  0  0  0  0  0  0
  180.0250  180.8280  141.7010 O   0  0  0  0  0  0  0  0  0  0  0  0
  178.9730  179.9860  141.1980 C   0  0  2  0  0  0  0  0  0  0  0  0
  180.8520  178.6540  142.3250 C   0  0  0  0  0  2  0  0  0  0  0  0
  179.4020  179.8500  139.7030 C   0  0  1  0  0  3  0  0  0  0  0  0
  180.4290  177.8800  141.1060 C   0  0  2  0  0  3  0  0  0  0  0  0
  182.5220  176.2930  138.2850 C   0  0  0  0  0  0  0  0  0  0  0  0
  181.2560  176.7400  138.9710 C   0  0  0  0  0  0  0  0  0  0  0  0
  179.5120  173.3900  138.7520 N   0  0  0  0  0  1  0  0  0  0  0  0
  182.7870  178.2600  140.2630 C   0  0  0  0  0  3  0  0  0  0  0  0
  183.7980  177.9450  139.4530 C   0  0  0  0  0  0  0  0  0  0  0  0
  181.4420  174.3040  137.5030 N   0  0  0  0  0  0  0  0  0  0  0  0
  182.4370  175.1360  137.3850 C   0  0  0  0  0  2  0  0  0  0  0  0
  183.6550  176.8920  138.4880 N   0  0  0  0  0  0  0  0  0  0  0  0
  180.4290  174.4520  138.5150 C   0  0  0  0  0  0  0  0  0  0  0  0
  181.5130  177.5950  140.1460 N   0  0  0  0  0  0  0  0  0  0  0  0
  180.3620  175.5620  139.2650 C   0  0  0  0  0  3  0  0  0  0  0  0
  185.1200  178.6120  139.6240 C   0  0  0  0  0  2  0  0  0  0  0  0
  185.3020  179.0890  141.0280 C   0  0  0  0  0  3  0  0  0  0  0  0
  186.4420  178.9850  141.6040 N   0  0  0  0  0  2  0  0  0  0  0  0
  180.7790  180.1320  139.4550 O   0  0  0  0  0  0  0  0  0  0  0  0
  182.2470  181.6610  138.5880 O   0  0  0  0  0  0  0  0  0  0  0  0
  180.3660  181.2040  137.2830 N   0  0  0  0  0  2  0  0  0  0  0  0
  181.1720  181.0200  138.4530 C   0  0  0  0  0  0  0  0  0  0  0  0
  180.7310  182.1470  136.2360 C   0  0  0  0  0  2  0  0  0  0  0  0
  179.9580  183.4440  136.4120 C   0  0  0  0  0  2  0  0  0  0  0  0
  180.8700  184.6460  136.2200 C   0  0  0  0  0  2  0  0  0  0  0  0
  181.9300  184.6330  137.2160 N   0  0  0  0  0  1  0  0  0  0  0  0
  2  1  1  1  0  0  0
  3  8  1  0  0  0  0
  3  5  1  0  0  0  0
  4  2  1  0  0  0  0
  5  4  1  0  0  0  0
  5  2  1  0  0  0  0
  6  2  1  0  0  0  0
  7  3  1  0  0  0  0
  7  5  1  0  0  0  0
  8  6  1  0  0  0  0
  9 16  2  0  0  0  0
  9 10  1  0  0  0  0
 10 19  2  0  0  0  0
 10 18  1  0  0  0  0
 13 20  1  0  0  0  0
 13 12  2  0  0  0  0
 14 17  2  0  0  0  0
 15 14  1  0  0  0  0
 15  9  1  0  0  0  0
 16 13  1  0  0  0  0
 17 11  1  0  0  0  0
 17 19  1  0  0  0  0
 18 12  1  0  0  0  0
 18  8  1  0  0  0  0
 20 21  1  0  0  0  0
 21 22  2  0  0  0  0
 23  7  1  0  0  0  0
 25 26  1  0  0  0  0
 26 24  2  0  0  0  0
 26 23  1  0  0  0  0
 27 28  1  0  0  0  0
 27 25  1  0  0  0  0
 29 28  1  0  0  0  0
 29 30  1  0  0  0  0
M  END
>  <MODEL>
7

>  <REMARK>
 VINA RESULT:      -5.9      6.030      9.684
  Name = 
  8 active torsions:
  status: ('A' for Active; 'I' for Inactive)
    1  A    between atoms: C_6  and  C_12
    2  A    between atoms: C_6  and  C_23
    3  A    between atoms: C_8  and  C_27
    4  A    between atoms: N_11  and  C_16
    5  A    between atoms: O_13  and  C_15
    6  A    between atoms: O_13  and  C_24
    7  A    between atoms: C_16  and  C_27
    8  A    between atoms: N_25  and  C_26
                            x       y       z     vdW  Elec       q    Type
                         _______ _______ _______ _____ _____    ______ ____

>  <TORSDO>
F 8

$$$$
=
 OpenBabel10222416393D

 30 34  0  0  1  0  0  0  0  0999 V2000
  190.5830  175.0280  143.2230 O   0  0  0  0  0  1  0  0  0  0  0  0
  189.7200  176.0200  142.7580 C   0  0  2  0  0  0  0  0  0  0  0  0
  189.3650  178.2480  143.1660 C   0  0  1  0  0  3  0  0  0  0  0  0
  189.9080  176.3120  141.4370 O   0  0  0  0  0  0  0  0  0  0  0  0
  190.3380  177.3300  142.3570 C   0  0  2  0  0  0  0  0  0  0  0  0
  188.2830  176.0450  143.1930 C   0  0  0  0  0  2  0  0  0  0  0  0
  189.6420  178.5860  141.7440 C   0  0  1  0  0  3  0  0  0  0  0  0
  188.0740  177.4920  143.5470 C   0  0  2  0  0  3  0  0  0  0  0  0
  184.6070  179.1560  143.2870 C   0  0  0  0  0  0  0  0  0  0  0  0
  185.9670  178.9010  143.8870 C   0  0  2  0  0  3  0  0  0  0  0  0
  184.7000  178.1810  147.3790 N   0  0  0  0  0  1  0  0  0  0  0  0
  186.5330  178.0090  141.6050 C   0  0  0  0  0  3  0  0  0  0  0  0
  185.3760  178.4690  141.1280 C   0  0  0  0  0  0  0  0  0  0  0  0
  183.6340  179.3350  145.4670 N   0  0  0  0  0  0  0  0  0  0  0  0
  183.5300  179.5780  144.1920 C   0  0  0  0  0  3  0  0  0  0  0  0
  184.3820  178.9970  142.0190 N   0  0  0  0  0  0  0  0  0  0  0  0
  184.7570  178.6290  146.0290 C   0  0  0  0  0  0  0  0  0  0  0  0
  186.8340  178.0890  143.0120 N   0  0  0  0  0  0  0  0  0  0  0  0
  185.8390  178.3540  145.2870 C   0  0  0  0  0  3  0  0  0  0  0  0
  185.0660  178.3330  139.6760 C   0  0  0  0  0  2  0  0  0  0  0  0
  183.9510  179.2420  139.2780 C   0  0  0  0  0  3  0  0  0  0  0  0
  184.1830  180.4750  139.0150 N   0  0  0  0  0  2  0  0  0  0  0  0
  188.5380  178.2920  140.8880 O   0  0  0  0  0  0  0  0  0  0  0  0
  189.0590  179.3350  138.9160 O   0  0  0  0  0  0  0  0  0  0  0  0
  188.3750  177.1100  138.7410 N   0  0  0  0  0  2  0  0  0  0  0  0
  188.6730  178.2880  139.4990 C   0  0  0  0  0  0  0  0  0  0  0  0
  188.4730  177.0820  137.2890 C   0  0  0  0  0  2  0  0  0  0  0  0
  189.8380  176.5590  136.8700 C   0  0  0  0  0  2  0  0  0  0  0  0
  189.9800  175.0850  137.2180 C   0  0  0  0  0  2  0  0  0  0  0  0
  191.2270  174.8570  137.9310 N   0  0  0  0  0  1  0  0  0  0  0  0
  2  6  1  0  0  0  0
  2  1  1  1  0  0  0
  3  8  1  0  0  0  0
  4  5  1  0  0  0  0
  4  2  1  0  0  0  0
  5  2  1  0  0  0  0
  5  3  1  0  0  0  0
  6  8  1  0  0  0  0
  7  5  1  0  0  0  0
  7  3  1  0  0  0  0
  9 10  1  0  0  0  0
  9 15  1  0  0  0  0
 10 19  1  0  0  0  0
 12 18  1  0  0  0  0
 13 12  2  0  0  0  0
 13 16  1  0  0  0  0
 14 17  1  0  0  0  0
 15 14  2  0  0  0  0
 16  9  2  0  0  0  0
 17 11  1  0  0  0  0
 18  8  1  0  0  0  0
 18 10  1  0  0  0  0
 19 17  2  0  0  0  0
 20 13  1  0  0  0  0
 21 20  1  0  0  0  0
 22 21  2  0  0  0  0
 23  7  1  0  0  0  0
 24 26  2  0  0  0  0
 25 26  1  0  0  0  0
 26 23  1  0  0  0  0
 27 25  1  0  0  0  0
 28 29  1  0  0  0  0
 28 27  1  0  0  0  0
 29 30  1  0  0  0  0
M  END
>  <MODEL>
8

>  <REMARK>
 VINA RESULT:      -5.9      2.037      6.652
  Name = 
  8 active torsions:
  status: ('A' for Active; 'I' for Inactive)
    1  A    between atoms: C_6  and  C_12
    2  A    between atoms: C_6  and  C_23
    3  A    between atoms: C_8  and  C_27
    4  A    between atoms: N_11  and  C_16
    5  A    between atoms: O_13  and  C_15
    6  A    between atoms: O_13  and  C_24
    7  A    between atoms: C_16  and  C_27
    8  A    between atoms: N_25  and  C_26
                            x       y       z     vdW  Elec       q    Type
                         _______ _______ _______ _____ _____    ______ ____

>  <TORSDO>
F 8

$$$$
=
 OpenBabel10222416393D

 30 34  0  0  1  0  0  0  0  0999 V2000
  189.7720  178.1180  134.5940 O   0  0  0  0  0  1  0  0  0  0  0  0
  188.9200  177.7150  135.6220 C   0  0  2  0  0  0  0  0  0  0  0  0
  188.0100  175.7430  136.3590 C   0  0  1  0  0  3  0  0  0  0  0  0
  189.4570  177.9090  136.8640 O   0  0  0  0  0  0  0  0  0  0  0  0
  189.3550  176.5360  136.4480 C   0  0  2  0  0  0  0  0  0  0  0  0
  187.4460  177.9880  135.5420 C   0  0  0  0  0  2  0  0  0  0  0  0
  188.6530  175.9070  137.6910 C   0  0  1  0  0  3  0  0  0  0  0  0
  186.8470  176.6660  135.9400 C   0  0  2  0  0  3  0  0  0  0  0  0
  183.6530  175.9180  137.9630 C   0  0  0  0  0  0  0  0  0  0  0  0
  184.9040  175.5750  137.1950 C   0  0  2  0  0  3  0  0  0  0  0  0
  183.2180  173.1970  134.7820 N   0  0  0  0  0  1  0  0  0  0  0  0
  185.5810  177.9370  137.7280 C   0  0  0  0  0  3  0  0  0  0  0  0
  184.5430  178.0570  138.5550 C   0  0  0  0  0  0  0  0  0  0  0  0
  182.4970  174.0630  136.9850 N   0  0  0  0  0  0  0  0  0  0  0  0
  182.5510  174.9470  137.9400 C   0  0  0  0  0  3  0  0  0  0  0  0
  183.5370  177.0350  138.6120 N   0  0  0  0  0  0  0  0  0  0  0  0
  183.4630  174.0190  135.9180 C   0  0  0  0  0  0  0  0  0  0  0  0
  185.7490  176.7540  136.9220 N   0  0  0  0  0  0  0  0  0  0  0  0
  184.5720  174.7720  135.9620 C   0  0  0  0  0  3  0  0  0  0  0  0
  184.3650  179.3110  139.3430 C   0  0  0  0  0  2  0  0  0  0  0  0
  184.4020  179.0320  140.8090 C   0  0  0  0  0  3  0  0  0  0  0  0
  185.3470  179.5050  141.5350 N   0  0  0  0  0  2  0  0  0  0  0  0
  187.9630  176.8450  138.5170 O   0  0  0  0  0  0  0  0  0  0  0  0
  187.9170  178.2010  140.3630 O   0  0  0  0  0  0  0  0  0  0  0  0
  189.6900  176.6860  140.2580 N   0  0  0  0  0  2  0  0  0  0  0  0
  188.4970  177.2780  139.7320 C   0  0  0  0  0  0  0  0  0  0  0  0
  190.2900  177.1370  141.5040 C   0  0  0  0  0  2  0  0  0  0  0  0
  190.1140  176.0770  142.5800 C   0  0  0  0  0  2  0  0  0  0  0  0
  188.8580  176.3430  143.3970 C   0  0  0  0  0  2  0  0  0  0  0  0
  189.2110  176.9430  144.6740 N   0  0  0  0  0  1  0  0  0  0  0  0
  2  1  1  6  0  0  0
  2  5  1  0  0  0  0
  2  4  1  0  0  0  0
  3  5  1  0  0  0  0
  3  7  1  0  0  0  0
  5  4  1  0  0  0  0
  5  7  1  0  0  0  0
  6  2  1  0  0  0  0
  6  8  1  0  0  0  0
  7 23  1  0  0  0  0
  8  3  1  0  0  0  0
  8 18  1  0  0  0  0
  9 16  2  0  0  0  0
 10  9  1  0  0  0  0
 11 17  1  0  0  0  0
 12 13  2  0  0  0  0
 13 16  1  0  0  0  0
 13 20  1  0  0  0  0
 14 15  2  0  0  0  0
 15  9  1  0  0  0  0
 17 19  2  0  0  0  0
 17 14  1  0  0  0  0
 18 10  1  0  0  0  0
 18 12  1  0  0  0  0
 19 10  1  0  0  0  0
 20 21  1  0  0  0  0
 21 22  2  0  0  0  0
 23 26  1  0  0  0  0
 25 27  1  0  0  0  0
 26 25  1  0  0  0  0
 26 24  2  0  0  0  0
 27 28  1  0  0  0  0
 28 29  1  0  0  0  0
 29 30  1  0  0  0  0
M  END
>  <MODEL>
9

>  <REMARK>
 VINA RESULT:      -5.8      3.877      6.455
  Name = 
  8 active torsions:
  status: ('A' for Active; 'I' for Inactive)
    1  A    between atoms: C_6  and  C_12
    2  A    between atoms: C_6  and  C_23
    3  A    between atoms: C_8  and  C_27
    4  A    between atoms: N_11  and  C_16
    5  A    between atoms: O_13  and  C_15
    6  A    between atoms: O_13  and  C_24
    7  A    between atoms: C_16  and  C_27
    8  A    between atoms: N_25  and  C_26
                            x       y       z     vdW  Elec       q    Type
                         _______ _______ _______ _____ _____    ______ ____

>  <TORSDO>
F 8

$$$$
