=
 OpenBabel10222418053D

 35 39  0  0  1  0  0  0  0  0999 V2000
  187.9590  178.0340  137.8320 C   0  0  1  0  0  3  0  0  0  0  0  0
  188.5240  179.3800  137.3990 C   0  0  0  0  0  1  0  0  0  0  0  0
  189.4430  175.5970  142.3290 O   0  0  0  0  0  0  0  0  0  0  0  0
  187.1820  178.0080  141.1690 C   0  0  1  0  0  3  0  0  0  0  0  0
  190.2000  177.2380  140.8620 N   0  0  0  0  0  0  0  0  0  0  0  0
  189.2690  176.7450  141.8360 C   0  0  0  0  0  0  0  0  0  0  0  0
  187.8650  178.7040  140.1640 O   0  0  0  0  0  0  0  0  0  0  0  0
  189.8240  177.4750  139.4600 C   0  0  1  0  0  3  0  0  0  0  0  0
  187.3720  176.9810  143.4720 C   0  0  0  0  0  2  0  0  0  0  0  0
  188.1410  177.6300  142.3150 C   0  0  2  0  0  3  0  0  0  0  0  0
  189.3220  175.0170  135.1510 C   0  0  0  0  0  3  0  0  0  0  0  0
  185.2980  178.1990  142.8180 C   0  0  1  0  0  3  0  0  0  0  0  0
  189.5730  176.1580  137.2550 C   0  0  0  0  0  0  0  0  0  0  0  0
  188.4560  176.9480  136.9170 C   0  0  0  0  0  0  0  0  0  0  0  0
  191.2390  175.6200  138.8630 O   0  0  0  0  0  0  0  0  0  0  0  0
  186.0470  178.8910  141.6840 C   0  0  0  0  0  2  0  0  0  0  0  0
  190.2600  176.3510  138.5520 C   0  0  0  0  0  0  0  0  0  0  0  0
  186.2560  177.8970  143.9610 C   0  0  0  0  0  2  0  0  0  0  0  0
  190.0000  175.1790  136.3560 C   0  0  0  0  0  3  0  0  0  0  0  0
  188.2560  175.8100  134.8690 N   0  0  0  0  0  0  0  0  0  0  0  0
  187.8380  176.7460  135.7230 N   0  0  0  0  0  0  0  0  0  0  0  0
  188.3150  177.7120  139.2890 C   0  0  2  0  0  3  0  0  0  0  0  0
  183.3740  179.7590  143.6760 N   0  0  0  0  0  0  0  0  0  0  0  0
  184.2230  179.0700  143.2960 C   0  0  0  0  0  0  0  0  0  0  0  0
  191.5980  177.3980  141.2410 C   0  0  0  0  0  2  0  0  0  0  0  0
  191.7530  177.2330  142.7410 C   0  0  0  0  0  2  0  0  0  0  0  0
  192.0960  178.5120  143.3350 N   0  0  0  0  0  2  0  0  0  0  0  0
  190.9910  178.8770  144.2040 C   0  0  0  0  0  2  0  0  0  0  0  0
  192.5080  176.1270  147.7830 O   0  0  0  0  0  0  0  0  0  0  0  0
  190.1560  176.3180  147.5640 C   0  0  0  0  0  3  0  0  0  0  0  0
  191.7550  177.3740  145.9610 N   0  0  0  0  0  2  0  0  0  0  0  0
  189.3920  178.0360  145.9480 C   0  0  0  0  0  2  0  0  0  0  0  0
  190.6240  177.7050  145.0960 C   0  0  1  0  0  3  0  0  0  0  0  0
  191.5340  176.5850  147.1330 C   0  0  0  0  0  0  0  0  0  0  0  0
  189.1460  176.9680  146.9800 C   0  0  0  0  0  3  0  0  0  0  0  0
  1  2  1  6  0  0  0
  1 22  1  0  0  0  0
  4 16  1  1  0  0  0
  4 10  1  0  0  0  0
  5 25  1  0  0  0  0
  5  6  1  0  0  0  0
  6 10  1  0  0  0  0
  6  3  2  0  0  0  0
  7  4  1  0  0  0  0
  8 17  1  6  0  0  0
  8  5  1  0  0  0  0
  9 18  1  0  0  0  0
 10  9  1  1  0  0  0
 11 19  1  0  0  0  0
 12 24  1  1  0  0  0
 12 18  1  0  0  0  0
 13 17  1  0  0  0  0
 14 13  1  0  0  0  0
 14  1  1  0  0  0  0
 16 12  1  0  0  0  0
 17 15  2  0  0  0  0
 19 13  2  0  0  0  0
 20 11  2  0  0  0  0
 20 21  1  0  0  0  0
 21 14  2  0  0  0  0
 22  8  1  0  0  0  0
 22  7  1  1  0  0  0
 24 23  3  0  0  0  0
 25 26  1  0  0  0  0
 26 27  1  0  0  0  0
 27 28  1  0  0  0  0
 31 34  1  0  0  0  0
 32 35  1  0  0  0  0
 33 28  1  1  0  0  0
 33 32  1  0  0  0  0
 33 31  1  0  0  0  0
 34 30  1  0  0  0  0
 34 29  2  0  0  0  0
 35 30  2  0  0  0  0
M  END
>  <MODEL>
1

>  <REMARK>
 VINA RESULT:      -9.1      0.000      0.000
  Name = 
  6 active torsions:
  status: ('A' for Active; 'I' for Inactive)
    1  A    between atoms: C_8  and  N_31
    2  A    between atoms: C_8  and  C_33
    3  A    between atoms: N_9  and  C_33
    4  A    between atoms: C_17  and  C_32
    5  A    between atoms: C_18  and  C_23
    6  A    between atoms: C_18  and  N_31
                            x       y       z     vdW  Elec       q    Type
                         _______ _______ _______ _____ _____    ______ ____

>  <TORSDO>
F 6

$$$$
=
 OpenBabel10222418053D

 35 39  0  0  1  0  0  0  0  0999 V2000
  188.1640  178.0640  138.0350 C   0  0  1  0  0  3  0  0  0  0  0  0
  188.7340  179.4260  137.6620 C   0  0  0  0  0  1  0  0  0  0  0  0
  188.8060  175.8930  142.8560 O   0  0  0  0  0  0  0  0  0  0  0  0
  186.7120  178.1150  141.1380 C   0  0  1  0  0  3  0  0  0  0  0  0
  189.7640  177.5230  141.4970 N   0  0  0  0  0  0  0  0  0  0  0  0
  188.6780  177.0100  142.2820 C   0  0  0  0  0  0  0  0  0  0  0  0
  187.5510  178.8140  140.2620 O   0  0  0  0  0  0  0  0  0  0  0  0
  189.6760  177.6840  140.0380 C   0  0  1  0  0  3  0  0  0  0  0  0
  186.4710  177.1870  143.4790 C   0  0  0  0  0  2  0  0  0  0  0  0
  187.4300  177.8390  142.4750 C   0  0  2  0  0  3  0  0  0  0  0  0
  190.2150  175.0410  135.8440 C   0  0  0  0  0  3  0  0  0  0  0  0
  184.5170  178.2490  142.3520 C   0  0  1  0  0  3  0  0  0  0  0  0
  189.9600  176.2730  137.8960 C   0  0  0  0  0  0  0  0  0  0  0  0
  188.8980  176.9790  137.2970 C   0  0  0  0  0  0  0  0  0  0  0  0
  191.2810  175.9000  139.8380 O   0  0  0  0  0  0  0  0  0  0  0  0
  185.4490  178.9430  141.3640 C   0  0  0  0  0  2  0  0  0  0  0  0
  190.3510  176.5560  139.2960 C   0  0  0  0  0  0  0  0  0  0  0  0
  185.2310  178.0490  143.6820 C   0  0  0  0  0  2  0  0  0  0  0  0
  190.6170  175.2900  137.1540 C   0  0  0  0  0  3  0  0  0  0  0  0
  189.1900  175.7550  135.3100 N   0  0  0  0  0  0  0  0  0  0  0  0
  188.5540  176.6950  136.0120 N   0  0  0  0  0  0  0  0  0  0  0  0
  188.2250  177.8200  139.5490 C   0  0  2  0  0  3  0  0  0  0  0  0
  182.3770  179.7170  142.7150 N   0  0  0  0  0  0  0  0  0  0  0  0
  183.3220  179.0690  142.5550 C   0  0  0  0  0  0  0  0  0  0  0  0
  191.0410  177.7840  142.1480 C   0  0  0  0  0  2  0  0  0  0  0  0
  190.8200  178.5220  143.4540 C   0  0  0  0  0  2  0  0  0  0  0  0
  191.5780  177.8750  144.5090 N   0  0  0  0  0  2  0  0  0  0  0  0
  190.6520  177.0060  145.2140 C   0  0  0  0  0  2  0  0  0  0  0  0
  186.2630  177.8400  146.8630 O   0  0  0  0  0  0  0  0  0  0  0  0
  188.0270  178.2480  148.3930 C   0  0  0  0  0  3  0  0  0  0  0  0
  188.4220  177.5500  146.0260 N   0  0  0  0  0  2  0  0  0  0  0  0
  190.2580  177.4570  147.6520 C   0  0  0  0  0  2  0  0  0  0  0  0
  189.8470  177.8120  146.2170 C   0  0  1  0  0  3  0  0  0  0  0  0
  187.5030  177.8740  147.0730 C   0  0  0  0  0  0  0  0  0  0  0  0
  189.3280  178.0920  148.6530 C   0  0  0  0  0  3  0  0  0  0  0  0
  1  2  1  1  0  0  0
  1 22  1  0  0  0  0
  4 16  1  1  0  0  0
  4 10  1  0  0  0  0
  5 25  1  0  0  0  0
  5  6  1  0  0  0  0
  6 10  1  0  0  0  0
  6  3  2  0  0  0  0
  7  4  1  0  0  0  0
  8 17  1  6  0  0  0
  8  5  1  0  0  0  0
  9 18  1  0  0  0  0
 10  9  1  1  0  0  0
 11 19  1  0  0  0  0
 12 24  1  1  0  0  0
 12 18  1  0  0  0  0
 13 17  1  0  0  0  0
 14 13  1  0  0  0  0
 14  1  1  0  0  0  0
 16 12  1  0  0  0  0
 17 15  2  0  0  0  0
 19 13  2  0  0  0  0
 20 11  2  0  0  0  0
 20 21  1  0  0  0  0
 21 14  2  0  0  0  0
 22  8  1  0  0  0  0
 22  7  1  1  0  0  0
 24 23  3  0  0  0  0
 25 26  1  0  0  0  0
 26 27  1  0  0  0  0
 27 28  1  0  0  0  0
 29 34  2  0  0  0  0
 30 35  2  0  0  0  0
 31 33  1  0  0  0  0
 31 34  1  0  0  0  0
 32 35  1  0  0  0  0
 33 28  1  6  0  0  0
 33 32  1  0  0  0  0
 34 30  1  0  0  0  0
M  END
>  <MODEL>
2

>  <REMARK>
 VINA RESULT:      -8.5      1.519      1.840
  Name = 
  6 active torsions:
  status: ('A' for Active; 'I' for Inactive)
    1  A    between atoms: C_8  and  N_31
    2  A    between atoms: C_8  and  C_33
    3  A    between atoms: N_9  and  C_33
    4  A    between atoms: C_17  and  C_32
    5  A    between atoms: C_18  and  C_23
    6  A    between atoms: C_18  and  N_31
                            x       y       z     vdW  Elec       q    Type
                         _______ _______ _______ _____ _____    ______ ____

>  <TORSDO>
F 6

$$$$
=
 OpenBabel10222418053D

 35 39  0  0  1  0  0  0  0  0999 V2000
  184.3710  178.1070  141.3080 C   0  0  1  0  0  3  0  0  0  0  0  0
  184.8610  179.3360  140.5540 C   0  0  0  0  0  1  0  0  0  0  0  0
  179.2410  176.6910  141.4880 O   0  0  0  0  0  0  0  0  0  0  0  0
  182.0850  176.3330  139.4740 C   0  0  1  0  0  3  0  0  0  0  0  0
  180.5560  178.5620  141.0510 N   0  0  0  0  0  0  0  0  0  0  0  0
  180.0900  177.2410  140.7340 C   0  0  0  0  0  0  0  0  0  0  0  0
  182.7660  177.5530  139.5730 O   0  0  0  0  0  0  0  0  0  0  0  0
  181.9440  178.8340  141.4510 C   0  0  1  0  0  3  0  0  0  0  0  0
  179.8170  175.2400  139.2340 C   0  0  0  0  0  2  0  0  0  0  0  0
  180.5600  176.5610  139.4700 C   0  0  2  0  0  3  0  0  0  0  0  0
  184.8650  178.7430  145.4910 C   0  0  0  0  0  3  0  0  0  0  0  0
  181.7820  174.3170  138.0080 C   0  0  1  0  0  3  0  0  0  0  0  0
  183.4170  178.7650  143.5690 C   0  0  0  0  0  0  0  0  0  0  0  0
  184.5060  178.3240  142.7910 C   0  0  0  0  0  0  0  0  0  0  0  0
  181.1120  179.3450  143.6520 O   0  0  0  0  0  0  0  0  0  0  0  0
  182.5300  175.6330  138.1910 C   0  0  0  0  0  2  0  0  0  0  0  0
  182.0910  178.9810  142.9460 C   0  0  0  0  0  0  0  0  0  0  0  0
  180.2830  174.5800  137.9420 C   0  0  0  0  0  2  0  0  0  0  0  0
  183.6080  178.9690  144.9370 C   0  0  0  0  0  3  0  0  0  0  0  0
  185.8840  178.3270  144.6960 N   0  0  0  0  0  0  0  0  0  0  0  0
  185.7110  178.1260  143.3880 N   0  0  0  0  0  0  0  0  0  0  0  0
  182.9220  177.7610  140.9450 C   0  0  2  0  0  3  0  0  0  0  0  0
  182.5690  173.1670  135.7880 N   0  0  0  0  0  0  0  0  0  0  0  0
  182.2210  173.6740  136.7690 C   0  0  0  0  0  0  0  0  0  0  0  0
  179.5940  179.6550  141.0950 C   0  0  0  0  0  2  0  0  0  0  0  0
  179.9280  180.6870  140.0350 C   0  0  0  0  0  2  0  0  0  0  0  0
  179.6180  180.1500  138.7230 N   0  0  0  0  0  2  0  0  0  0  0  0
  180.7080  180.5400  137.8450 C   0  0  0  0  0  2  0  0  0  0  0  0
  182.1460  185.0730  137.6120 O   0  0  0  0  0  0  0  0  0  0  0  0
  180.9600  184.2760  135.7220 C   0  0  0  0  0  3  0  0  0  0  0  0
  181.3330  182.8910  137.7670 N   0  0  0  0  0  2  0  0  0  0  0  0
  180.5500  181.8310  135.6980 C   0  0  0  0  0  2  0  0  0  0  0  0
  180.4140  181.8930  137.2240 C   0  0  1  0  0  3  0  0  0  0  0  0
  181.5170  184.1280  137.0720 C   0  0  0  0  0  0  0  0  0  0  0  0
  180.4670  183.2070  135.0910 C   0  0  0  0  0  3  0  0  0  0  0  0
  1  2  1  6  0  0  0
  1 14  1  0  0  0  0
  4 16  1  6  0  0  0
  4  7  1  0  0  0  0
  5 25  1  0  0  0  0
  5  8  1  0  0  0  0
  6  5  1  0  0  0  0
  6  3  2  0  0  0  0
  8 17  1  1  0  0  0
 10  9  1  1  0  0  0
 10  4  1  0  0  0  0
 10  6  1  0  0  0  0
 12 24  1  6  0  0  0
 12 16  1  0  0  0  0
 13 19  2  0  0  0  0
 14 21  2  0  0  0  0
 14 13  1  0  0  0  0
 17 13  1  0  0  0  0
 17 15  2  0  0  0  0
 18 12  1  0  0  0  0
 18  9  1  0  0  0  0
 19 11  1  0  0  0  0
 20 11  2  0  0  0  0
 21 20  1  0  0  0  0
 22  7  1  6  0  0  0
 22  1  1  0  0  0  0
 22  8  1  0  0  0  0
 23 24  3  0  0  0  0
 26 25  1  0  0  0  0
 27 26  1  0  0  0  0
 28 27  1  0  0  0  0
 30 34  1  0  0  0  0
 32 33  1  0  0  0  0
 33 31  1  0  0  0  0
 33 28  1  1  0  0  0
 34 29  2  0  0  0  0
 34 31  1  0  0  0  0
 35 32  1  0  0  0  0
 35 30  2  0  0  0  0
M  END
>  <MODEL>
3

>  <REMARK>
 VINA RESULT:      -7.9      5.981     10.848
  Name = 
  6 active torsions:
  status: ('A' for Active; 'I' for Inactive)
    1  A    between atoms: C_8  and  N_31
    2  A    between atoms: C_8  and  C_33
    3  A    between atoms: N_9  and  C_33
    4  A    between atoms: C_17  and  C_32
    5  A    between atoms: C_18  and  C_23
    6  A    between atoms: C_18  and  N_31
                            x       y       z     vdW  Elec       q    Type
                         _______ _______ _______ _____ _____    ______ ____

>  <TORSDO>
F 6

$$$$
=
 OpenBabel10222418053D

 35 39  0  0  1  0  0  0  0  0999 V2000
  184.2300  178.3940  138.3510 C   0  0  1  0  0  3  0  0  0  0  0  0
  185.1770  178.6410  139.5180 C   0  0  0  0  0  1  0  0  0  0  0  0
  178.9310  178.4980  138.8660 O   0  0  0  0  0  0  0  0  0  0  0  0
  181.6470  180.6440  138.3270 C   0  0  1  0  0  3  0  0  0  0  0  0
  180.8410  178.2500  140.1740 N   0  0  0  0  0  0  0  0  0  0  0  0
  179.9810  179.0250  139.3260 C   0  0  0  0  0  0  0  0  0  0  0  0
  182.6930  180.1200  139.0960 O   0  0  0  0  0  0  0  0  0  0  0  0
  182.1970  177.8510  139.7690 C   0  0  1  0  0  3  0  0  0  0  0  0
  179.1720  181.1640  138.2750 C   0  0  0  0  0  2  0  0  0  0  0  0
  180.2990  180.4780  139.0570 C   0  0  2  0  0  3  0  0  0  0  0  0
  184.5390  174.3220  137.1380 C   0  0  0  0  0  3  0  0  0  0  0  0
  180.8010  182.7550  137.2610 C   0  0  1  0  0  3  0  0  0  0  0  0
  183.3630  176.0070  138.3920 C   0  0  0  0  0  0  0  0  0  0  0  0
  184.2990  176.9520  137.9280 C   0  0  0  0  0  0  0  0  0  0  0  0
  181.3990  175.5820  139.6650 O   0  0  0  0  0  0  0  0  0  0  0  0
  181.9360  182.1190  138.0570 C   0  0  0  0  0  2  0  0  0  0  0  0
  182.2530  176.4250  139.2770 C   0  0  0  0  0  0  0  0  0  0  0  0
  179.4960  182.6330  138.0360 C   0  0  0  0  0  2  0  0  0  0  0  0
  183.4900  174.6780  137.9820 C   0  0  0  0  0  3  0  0  0  0  0  0
  185.4200  175.2700  136.7260 N   0  0  0  0  0  0  0  0  0  0  0  0
  185.3050  176.5430  137.1100 N   0  0  0  0  0  0  0  0  0  0  0  0
  182.7880  178.7830  138.6990 C   0  0  2  0  0  3  0  0  0  0  0  0
  181.3400  185.2850  136.8380 N   0  0  0  0  0  0  0  0  0  0  0  0
  181.1010  184.1680  137.0260 C   0  0  0  0  0  0  0  0  0  0  0  0
  180.3130  177.7370  141.4310 C   0  0  0  0  0  2  0  0  0  0  0  0
  179.9330  178.8850  142.3460 C   0  0  0  0  0  2  0  0  0  0  0  0
  181.1270  179.6200  142.7210 N   0  0  0  0  0  2  0  0  0  0  0  0
  181.6150  179.0200  143.9510 C   0  0  0  0  0  2  0  0  0  0  0  0
  185.3050  178.8290  146.9550 O   0  0  0  0  0  0  0  0  0  0  0  0
  185.8370  178.5650  144.6610 C   0  0  0  0  0  3  0  0  0  0  0  0
  183.5200  179.0410  145.4670 N   0  0  0  0  0  2  0  0  0  0  0  0
  183.8820  178.2920  143.1590 C   0  0  0  0  0  2  0  0  0  0  0  0
  183.1100  179.2450  144.0790 C   0  0  1  0  0  3  0  0  0  0  0  0
  184.9010  178.8140  145.7640 C   0  0  0  0  0  0  0  0  0  0  0  0
  185.3630  178.3600  143.4290 C   0  0  0  0  0  3  0  0  0  0  0  0
  1 22  1  0  0  0  0
  1  2  1  1  0  0  0
  3  6  2  0  0  0  0
  4 16  1  1  0  0  0
  4 10  1  0  0  0  0
  4  7  1  0  0  0  0
  5 25  1  0  0  0  0
  6  5  1  0  0  0  0
  8 17  1  6  0  0  0
  8  5  1  0  0  0  0
 10  9  1  6  0  0  0
 10  6  1  0  0  0  0
 11 19  1  0  0  0  0
 12 24  1  1  0  0  0
 12 18  1  0  0  0  0
 12 16  1  0  0  0  0
 13 17  1  0  0  0  0
 14  1  1  0  0  0  0
 14 13  1  0  0  0  0
 17 15  2  0  0  0  0
 18  9  1  0  0  0  0
 19 13  2  0  0  0  0
 20 21  1  0  0  0  0
 20 11  2  0  0  0  0
 21 14  2  0  0  0  0
 22  7  1  1  0  0  0
 22  8  1  0  0  0  0
 23 24  3  0  0  0  0
 25 26  1  0  0  0  0
 26 27  1  0  0  0  0
 27 28  1  0  0  0  0
 30 34  1  0  0  0  0
 31 34  1  0  0  0  0
 32 35  1  0  0  0  0
 32 33  1  0  0  0  0
 33 28  1  1  0  0  0
 33 31  1  0  0  0  0
 34 29  2  0  0  0  0
 35 30  2  0  0  0  0
M  END
>  <MODEL>
4

>  <REMARK>
 VINA RESULT:      -7.7      5.268      7.950
  Name = 
  6 active torsions:
  status: ('A' for Active; 'I' for Inactive)
    1  A    between atoms: C_8  and  N_31
    2  A    between atoms: C_8  and  C_33
    3  A    between atoms: N_9  and  C_33
    4  A    between atoms: C_17  and  C_32
    5  A    between atoms: C_18  and  C_23
    6  A    between atoms: C_18  and  N_31
                            x       y       z     vdW  Elec       q    Type
                         _______ _______ _______ _____ _____    ______ ____

>  <TORSDO>
F 6

$$$$
=
 OpenBabel10222418053D

 35 39  0  0  1  0  0  0  0  0999 V2000
  180.1160  179.0550  139.0350 C   0  0  1  0  0  3  0  0  0  0  0  0
  179.7110  179.0550  140.5030 C   0  0  0  0  0  1  0  0  0  0  0  0
  184.9680  177.6050  137.3850 O   0  0  0  0  0  0  0  0  0  0  0  0
  181.8570  176.2210  138.2110 C   0  0  1  0  0  3  0  0  0  0  0  0
  183.8880  178.3300  139.3160 N   0  0  0  0  0  0  0  0  0  0  0  0
  184.1130  177.3620  138.2800 C   0  0  0  0  0  0  0  0  0  0  0  0
  181.3780  176.9940  139.2760 O   0  0  0  0  0  0  0  0  0  0  0  0
  182.6200  179.0610  139.4510 C   0  0  1  0  0  3  0  0  0  0  0  0
  183.8930  175.0890  137.2240 C   0  0  0  0  0  2  0  0  0  0  0  0
  183.3850  176.0390  138.3160 C   0  0  2  0  0  3  0  0  0  0  0  0
  180.2850  183.0720  137.6280 C   0  0  0  0  0  3  0  0  0  0  0  0
  181.6690  173.9650  137.1230 C   0  0  1  0  0  3  0  0  0  0  0  0
  181.4500  181.1430  138.4730 C   0  0  0  0  0  0  0  0  0  0  0  0
  180.2140  180.4670  138.5270 C   0  0  0  0  0  0  0  0  0  0  0  0
  183.8040  181.0530  138.7970 O   0  0  0  0  0  0  0  0  0  0  0  0
  181.1490  174.8680  138.2360 C   0  0  0  0  0  2  0  0  0  0  0  0
  182.6970  180.4550  138.8760 C   0  0  0  0  0  0  0  0  0  0  0  0
  183.1670  173.7500  137.2910 C   0  0  0  0  0  2  0  0  0  0  0  0
  181.4760  182.4600  138.0110 C   0  0  0  0  0  3  0  0  0  0  0  0
  179.1190  182.3800  137.7070 N   0  0  0  0  0  0  0  0  0  0  0  0
  179.0840  181.1190  138.1440 N   0  0  0  0  0  0  0  0  0  0  0  0
  181.4400  178.3110  138.8130 C   0  0  2  0  0  3  0  0  0  0  0  0
  180.4340  171.6560  137.2210 N   0  0  0  0  0  0  0  0  0  0  0  0
  180.9800  172.6760  137.1780 C   0  0  0  0  0  0  0  0  0  0  0  0
  184.9940  178.6910  140.1930 C   0  0  0  0  0  2  0  0  0  0  0  0
  184.5500  178.6370  141.6420 C   0  0  0  0  0  2  0  0  0  0  0  0
  185.7160  178.6190  142.5050 N   0  0  0  0  0  2  0  0  0  0  0  0
  185.2430  178.2830  143.8370 C   0  0  0  0  0  2  0  0  0  0  0  0
  189.8350  177.0240  143.7670 O   0  0  0  0  0  0  0  0  0  0  0  0
  188.8610  177.2270  145.9180 C   0  0  0  0  0  3  0  0  0  0  0  0
  187.5560  177.5220  143.8080 N   0  0  0  0  0  2  0  0  0  0  0  0
  186.5970  178.2390  145.9500 C   0  0  0  0  0  2  0  0  0  0  0  0
  186.3310  177.5540  144.6040 C   0  0  1  0  0  3  0  0  0  0  0  0
  188.8030  177.2470  144.4510 C   0  0  0  0  0  0  0  0  0  0  0  0
  187.8110  177.6530  146.6240 C   0  0  0  0  0  3  0  0  0  0  0  0
  1  2  1  1  0  0  0
  3  6  2  0  0  0  0
  4 16  1  1  0  0  0
  4 10  1  0  0  0  0
  4  7  1  0  0  0  0
  5  8  1  0  0  0  0
  5 25  1  0  0  0  0
  6 10  1  0  0  0  0
  6  5  1  0  0  0  0
  8 17  1  6  0  0  0
  9 18  1  0  0  0  0
 10  9  1  6  0  0  0
 11 20  2  0  0  0  0
 11 19  1  0  0  0  0
 12 24  1  1  0  0  0
 12 18  1  0  0  0  0
 12 16  1  0  0  0  0
 13 14  1  0  0  0  0
 13 17  1  0  0  0  0
 14  1  1  0  0  0  0
 15 17  2  0  0  0  0
 19 13  2  0  0  0  0
 20 21  1  0  0  0  0
 21 14  2  0  0  0  0
 22  1  1  0  0  0  0
 22  7  1  1  0  0  0
 22  8  1  0  0  0  0
 24 23  3  0  0  0  0
 25 26  1  0  0  0  0
 26 27  1  0  0  0  0
 27 28  1  0  0  0  0
 29 34  2  0  0  0  0
 30 35  2  0  0  0  0
 31 34  1  0  0  0  0
 31 33  1  0  0  0  0
 32 35  1  0  0  0  0
 33 28  1  6  0  0  0
 33 32  1  0  0  0  0
 34 30  1  0  0  0  0
M  END
>  <MODEL>
5

>  <REMARK>
 VINA RESULT:      -7.1      5.301      7.713
  Name = 
  6 active torsions:
  status: ('A' for Active; 'I' for Inactive)
    1  A    between atoms: C_8  and  N_31
    2  A    between atoms: C_8  and  C_33
    3  A    between atoms: N_9  and  C_33
    4  A    between atoms: C_17  and  C_32
    5  A    between atoms: C_18  and  C_23
    6  A    between atoms: C_18  and  N_31
                            x       y       z     vdW  Elec       q    Type
                         _______ _______ _______ _____ _____    ______ ____

>  <TORSDO>
F 6

$$$$
=
 OpenBabel10222418053D

 35 39  0  0  1  0  0  0  0  0999 V2000
  182.1310  176.9660  137.9290 C   0  0  1  0  0  3  0  0  0  0  0  0
  181.6720  176.2740  139.2050 C   0  0  0  0  0  1  0  0  0  0  0  0
  187.0790  178.8200  137.2710 O   0  0  0  0  0  0  0  0  0  0  0  0
  185.2220  175.8680  136.9410 C   0  0  1  0  0  3  0  0  0  0  0  0
  185.6210  178.2080  138.9800 N   0  0  0  0  0  0  0  0  0  0  0  0
  186.4360  177.8960  137.8410 C   0  0  0  0  0  0  0  0  0  0  0  0
  184.3040  175.8860  137.9990 O   0  0  0  0  0  0  0  0  0  0  0  0
  184.1550  178.1020  138.9550 C   0  0  1  0  0  3  0  0  0  0  0  0
  187.6170  176.3260  136.2680 C   0  0  0  0  0  2  0  0  0  0  0  0
  186.5740  176.4620  137.3850 C   0  0  2  0  0  3  0  0  0  0  0  0
  180.1380  180.7140  137.5760 C   0  0  0  0  0  3  0  0  0  0  0  0
  186.4230  174.3380  135.3520 C   0  0  1  0  0  3  0  0  0  0  0  0
  182.1070  179.4900  138.2200 C   0  0  0  0  0  0  0  0  0  0  0  0
  181.4630  178.3080  137.8010 C   0  0  0  0  0  0  0  0  0  0  0  0
  184.0700  180.5040  139.0990 O   0  0  0  0  0  0  0  0  0  0  0  0
  185.3940  174.4240  136.4740 C   0  0  0  0  0  2  0  0  0  0  0  0
  183.4860  179.4410  138.7550 C   0  0  0  0  0  0  0  0  0  0  0  0
  187.7630  174.8710  135.8390 C   0  0  0  0  0  2  0  0  0  0  0  0
  181.4290  180.7040  138.0960 C   0  0  0  0  0  3  0  0  0  0  0  0
  179.5580  179.5460  137.1950 N   0  0  0  0  0  0  0  0  0  0  0  0
  180.1990  178.3810  137.3060 N   0  0  0  0  0  0  0  0  0  0  0  0
  183.6560  177.1190  137.8840 C   0  0  2  0  0  3  0  0  0  0  0  0
  186.6900  171.8420  134.6010 N   0  0  0  0  0  0  0  0  0  0  0  0
  186.5730  172.9440  134.9320 C   0  0  0  0  0  0  0  0  0  0  0  0
  186.2550  178.7650  140.1680 C   0  0  0  0  0  2  0  0  0  0  0  0
  187.5880  178.0850  140.4150 C   0  0  0  0  0  2  0  0  0  0  0  0
  188.0030  178.3190  141.7850 N   0  0  0  0  0  2  0  0  0  0  0  0
  188.4990  177.0510  142.2930 C   0  0  0  0  0  2  0  0  0  0  0  0
  189.9840  177.4790  146.7970 O   0  0  0  0  0  0  0  0  0  0  0  0
  187.6450  177.6690  146.4670 C   0  0  0  0  0  3  0  0  0  0  0  0
  189.2360  177.1510  144.6110 N   0  0  0  0  0  2  0  0  0  0  0  0
  186.9320  177.8190  144.0970 C   0  0  0  0  0  2  0  0  0  0  0  0
  188.0910  176.8790  143.7440 C   0  0  1  0  0  3  0  0  0  0  0  0
  189.0160  177.4340  145.9960 C   0  0  0  0  0  0  0  0  0  0  0  0
  186.6580  177.8080  145.5780 C   0  0  0  0  0  3  0  0  0  0  0  0
  1  2  1  1  0  0  0
  3  6  2  0  0  0  0
  4 16  1  1  0  0  0
  4 10  1  0  0  0  0
  4  7  1  0  0  0  0
  5 25  1  0  0  0  0
  6  5  1  0  0  0  0
  8 17  1  6  0  0  0
  8  5  1  0  0  0  0
 10  9  1  6  0  0  0
 10  6  1  0  0  0  0
 11 19  1  0  0  0  0
 12 24  1  1  0  0  0
 12 18  1  0  0  0  0
 12 16  1  0  0  0  0
 13 17  1  0  0  0  0
 14  1  1  0  0  0  0
 14 13  1  0  0  0  0
 17 15  2  0  0  0  0
 18  9  1  0  0  0  0
 19 13  2  0  0  0  0
 20 21  1  0  0  0  0
 20 11  2  0  0  0  0
 21 14  2  0  0  0  0
 22  1  1  0  0  0  0
 22  7  1  1  0  0  0
 22  8  1  0  0  0  0
 23 24  3  0  0  0  0
 25 26  1  0  0  0  0
 26 27  1  0  0  0  0
 27 28  1  0  0  0  0
 31 34  1  0  0  0  0
 32 35  1  0  0  0  0
 33 28  1  6  0  0  0
 33 32  1  0  0  0  0
 33 31  1  0  0  0  0
 34 30  1  0  0  0  0
 34 29  2  0  0  0  0
 35 30  2  0  0  0  0
M  END
>  <MODEL>
6

>  <REMARK>
 VINA RESULT:      -7.0      3.985      6.825
  Name = 
  6 active torsions:
  status: ('A' for Active; 'I' for Inactive)
    1  A    between atoms: C_8  and  N_31
    2  A    between atoms: C_8  and  C_33
    3  A    between atoms: N_9  and  C_33
    4  A    between atoms: C_17  and  C_32
    5  A    between atoms: C_18  and  C_23
    6  A    between atoms: C_18  and  N_31
                            x       y       z     vdW  Elec       q    Type
                         _______ _______ _______ _____ _____    ______ ____

>  <TORSDO>
F 6

$$$$
=
 OpenBabel10222418053D

 35 39  0  0  1  0  0  0  0  0999 V2000
  184.1310  178.6660  139.4980 C   0  0  1  0  0  3  0  0  0  0  0  0
  184.0510  180.1320  139.0910 C   0  0  0  0  0  1  0  0  0  0  0  0
  188.6560  176.3590  141.0990 O   0  0  0  0  0  0  0  0  0  0  0  0
  185.9840  178.2500  142.3490 C   0  0  1  0  0  3  0  0  0  0  0  0
  187.9350  178.2220  139.9020 N   0  0  0  0  0  0  0  0  0  0  0  0
  188.0480  177.4650  141.1160 C   0  0  0  0  0  0  0  0  0  0  0  0
  185.6540  179.1470  141.3270 O   0  0  0  0  0  0  0  0  0  0  0  0
  186.6450  178.4530  139.2340 C   0  0  1  0  0  3  0  0  0  0  0  0
  187.8830  177.1490  143.6070 C   0  0  0  0  0  2  0  0  0  0  0  0
  187.5100  178.0320  142.4100 C   0  0  2  0  0  3  0  0  0  0  0  0
  183.5080  176.2250  136.0630 C   0  0  0  0  0  3  0  0  0  0  0  0
  185.8420  177.8930  144.8310 C   0  0  1  0  0  3  0  0  0  0  0  0
  185.0510  177.2570  137.5950 C   0  0  0  0  0  0  0  0  0  0  0  0
  183.9460  177.7860  138.2930 C   0  0  0  0  0  0  0  0  0  0  0  0
  187.4130  177.0190  137.4580 O   0  0  0  0  0  0  0  0  0  0  0  0
  185.4670  178.8100  143.6720 C   0  0  0  0  0  2  0  0  0  0  0  0
  186.4290  177.5210  138.0670 C   0  0  0  0  0  0  0  0  0  0  0  0
  187.3560  177.7490  144.9050 C   0  0  0  0  0  2  0  0  0  0  0  0
  184.8180  176.4630  136.4710 C   0  0  0  0  0  3  0  0  0  0  0  0
  182.4780  176.7660  136.7650 N   0  0  0  0  0  0  0  0  0  0  0  0
  182.6900  177.5230  137.8430 N   0  0  0  0  0  0  0  0  0  0  0  0
  185.4560  178.3440  140.2010 C   0  0  2  0  0  3  0  0  0  0  0  0
  184.9470  178.9060  147.0760 N   0  0  0  0  0  0  0  0  0  0  0  0
  185.3410  178.4590  146.0840 C   0  0  0  0  0  0  0  0  0  0  0  0
  189.1500  178.6770  139.2410 C   0  0  0  0  0  2  0  0  0  0  0  0
  190.1750  177.5590  139.2040 C   0  0  0  0  0  2  0  0  0  0  0  0
  191.2840  177.8910  140.0770 N   0  0  0  0  0  2  0  0  0  0  0  0
  191.5960  176.6880  140.8300 C   0  0  0  0  0  2  0  0  0  0  0  0
  190.9520  179.9620  144.2280 O   0  0  0  0  0  0  0  0  0  0  0  0
  191.3590  177.7570  144.9940 C   0  0  0  0  0  3  0  0  0  0  0  0
  191.3880  178.3750  142.5730 N   0  0  0  0  0  2  0  0  0  0  0  0
  191.3170  176.0130  143.2310 C   0  0  0  0  0  2  0  0  0  0  0  0
  191.9150  177.0470  142.2700 C   0  0  1  0  0  3  0  0  0  0  0  0
  191.2180  178.7680  143.9380 C   0  0  0  0  0  0  0  0  0  0  0  0
  191.4480  176.4660  144.6620 C   0  0  0  0  0  3  0  0  0  0  0  0
  1  2  1  6  0  0  0
  1 22  1  0  0  0  0
  3  6  2  0  0  0  0
  4 10  1  0  0  0  0
  4 16  1  1  0  0  0
  5  6  1  0  0  0  0
  6 10  1  0  0  0  0
  7  4  1  0  0  0  0
  8 17  1  6  0  0  0
  8  5  1  0  0  0  0
  8 22  1  0  0  0  0
  9 18  1  0  0  0  0
 10  9  1  1  0  0  0
 11 19  2  0  0  0  0
 11 20  1  0  0  0  0
 12 18  1  0  0  0  0
 12 24  1  1  0  0  0
 13 17  1  0  0  0  0
 13 14  2  0  0  0  0
 14  1  1  0  0  0  0
 15 17  2  0  0  0  0
 16 12  1  0  0  0  0
 19 13  1  0  0  0  0
 20 21  2  0  0  0  0
 21 14  1  0  0  0  0
 22  7  1  1  0  0  0
 24 23  3  0  0  0  0
 25  5  1  0  0  0  0
 26 25  1  0  0  0  0
 26 27  1  0  0  0  0
 27 28  1  0  0  0  0
 31 34  1  0  0  0  0
 32 35  1  0  0  0  0
 33 28  1  6  0  0  0
 33 31  1  0  0  0  0
 33 32  1  0  0  0  0
 34 29  2  0  0  0  0
 34 30  1  0  0  0  0
 35 30  2  0  0  0  0
M  END
>  <MODEL>
7

>  <REMARK>
 VINA RESULT:      -7.0      2.650      3.748
  Name = 
  6 active torsions:
  status: ('A' for Active; 'I' for Inactive)
    1  A    between atoms: C_8  and  N_31
    2  A    between atoms: C_8  and  C_33
    3  A    between atoms: N_9  and  C_33
    4  A    between atoms: C_17  and  C_32
    5  A    between atoms: C_18  and  C_23
    6  A    between atoms: C_18  and  N_31
                            x       y       z     vdW  Elec       q    Type
                         _______ _______ _______ _____ _____    ______ ____

>  <TORSDO>
F 6

$$$$
=
 OpenBabel10222418053D

 35 39  0  0  1  0  0  0  0  0999 V2000
  191.6720  177.8770  143.9270 C   0  0  1  0  0  3  0  0  0  0  0  0
  192.1370  179.3070  144.1660 C   0  0  0  0  0  1  0  0  0  0  0  0
  187.7840  176.6460  140.5020 O   0  0  0  0  0  0  0  0  0  0  0  0
  191.2360  177.2360  140.5890 C   0  0  1  0  0  3  0  0  0  0  0  0
  188.5850  178.4730  141.7020 N   0  0  0  0  0  0  0  0  0  0  0  0
  188.7200  177.4730  140.6810 C   0  0  0  0  0  0  0  0  0  0  0  0
  191.4160  178.2480  141.5410 O   0  0  0  0  0  0  0  0  0  0  0  0
  189.4340  178.4950  142.9030 C   0  0  1  0  0  3  0  0  0  0  0  0
  189.8060  176.4330  138.6630 C   0  0  0  0  0  2  0  0  0  0  0  0
  189.9390  177.4670  139.7880 C   0  0  2  0  0  3  0  0  0  0  0  0
  189.7300  176.4330  147.4330 C   0  0  0  0  0  3  0  0  0  0  0  0
  192.2830  176.1680  138.5720 C   0  0  1  0  0  3  0  0  0  0  0  0
  189.5470  177.3960  145.2350 C   0  0  0  0  0  0  0  0  0  0  0  0
  190.9530  177.3590  145.1420 C   0  0  0  0  0  0  0  0  0  0  0  0
  187.4790  177.9110  144.1820 O   0  0  0  0  0  0  0  0  0  0  0  0
  192.4490  177.2230  139.6610 C   0  0  0  0  0  2  0  0  0  0  0  0
  188.7370  177.9090  144.1070 C   0  0  0  0  0  0  0  0  0  0  0  0
  191.0310  176.4600  137.7570 C   0  0  0  0  0  2  0  0  0  0  0  0
  188.9370  176.9200  146.3970 C   0  0  0  0  0  3  0  0  0  0  0  0
  191.0820  176.4270  147.2970 N   0  0  0  0  0  0  0  0  0  0  0  0
  191.6740  176.8770  146.1900 N   0  0  0  0  0  0  0  0  0  0  0  0
  190.7740  177.7740  142.6870 C   0  0  2  0  0  3  0  0  0  0  0  0
  194.3810  176.1980  137.0010 N   0  0  0  0  0  0  0  0  0  0  0  0
  193.4540  176.1850  137.6940 C   0  0  0  0  0  0  0  0  0  0  0  0
  187.4930  179.4320  141.6070 C   0  0  0  0  0  2  0  0  0  0  0  0
  186.1750  178.7050  141.4210 C   0  0  0  0  0  2  0  0  0  0  0  0
  185.4100  179.3510  140.3710 N   0  0  0  0  0  2  0  0  0  0  0  0
  184.7950  178.2910  139.5910 C   0  0  0  0  0  2  0  0  0  0  0  0
  188.5470  179.0520  136.7590 O   0  0  0  0  0  0  0  0  0  0  0  0
  186.8080  177.7380  135.8260 C   0  0  0  0  0  3  0  0  0  0  0  0
  186.6540  178.7740  138.0940 N   0  0  0  0  0  2  0  0  0  0  0  0
  185.0480  177.0420  137.4280 C   0  0  0  0  0  2  0  0  0  0  0  0
  185.2460  178.3840  138.1450 C   0  0  1  0  0  3  0  0  0  0  0  0
  187.4000  178.5530  136.8950 C   0  0  0  0  0  0  0  0  0  0  0  0
  185.6810  177.0610  136.0620 C   0  0  0  0  0  3  0  0  0  0  0  0
  1  2  1  1  0  0  0
  1 14  1  0  0  0  0
  3  6  2  0  0  0  0
  4 16  1  6  0  0  0
  4  7  1  0  0  0  0
  5  8  1  0  0  0  0
  6  5  1  0  0  0  0
  8 17  1  1  0  0  0
 10  9  1  6  0  0  0
 10  4  1  0  0  0  0
 10  6  1  0  0  0  0
 12 24  1  6  0  0  0
 12 16  1  0  0  0  0
 13 19  1  0  0  0  0
 14 13  2  0  0  0  0
 14 21  1  0  0  0  0
 17 15  2  0  0  0  0
 17 13  1  0  0  0  0
 18 12  1  0  0  0  0
 18  9  1  0  0  0  0
 19 11  2  0  0  0  0
 20 11  1  0  0  0  0
 21 20  2  0  0  0  0
 22  7  1  6  0  0  0
 22  8  1  0  0  0  0
 22  1  1  0  0  0  0
 23 24  3  0  0  0  0
 25  5  1  0  0  0  0
 26 25  1  0  0  0  0
 27 26  1  0  0  0  0
 28 27  1  0  0  0  0
 29 34  2  0  0  0  0
 30 35  2  0  0  0  0
 30 34  1  0  0  0  0
 31 33  1  0  0  0  0
 32 33  1  0  0  0  0
 33 28  1  1  0  0  0
 34 31  1  0  0  0  0
 35 32  1  0  0  0  0
M  END
>  <MODEL>
8

>  <REMARK>
 VINA RESULT:      -6.9      2.358      8.389
  Name = 
  6 active torsions:
  status: ('A' for Active; 'I' for Inactive)
    1  A    between atoms: C_8  and  N_31
    2  A    between atoms: C_8  and  C_33
    3  A    between atoms: N_9  and  C_33
    4  A    between atoms: C_17  and  C_32
    5  A    between atoms: C_18  and  C_23
    6  A    between atoms: C_18  and  N_31
                            x       y       z     vdW  Elec       q    Type
                         _______ _______ _______ _____ _____    ______ ____

>  <TORSDO>
F 6

$$$$
=
 OpenBabel10222418053D

 35 39  0  0  1  0  0  0  0  0999 V2000
  191.6810  177.8030  143.8340 C   0  0  1  0  0  3  0  0  0  0  0  0
  192.1520  179.2300  144.0800 C   0  0  0  0  0  1  0  0  0  0  0  0
  187.9140  176.5810  140.2740 O   0  0  0  0  0  0  0  0  0  0  0  0
  191.3660  177.1380  140.4880 C   0  0  1  0  0  3  0  0  0  0  0  0
  188.6880  178.4110  141.4880 N   0  0  0  0  0  0  0  0  0  0  0  0
  188.8510  177.4000  140.4820 C   0  0  0  0  0  0  0  0  0  0  0  0
  191.5200  178.1560  141.4370 O   0  0  0  0  0  0  0  0  0  0  0  0
  189.4900  178.4340  142.7200 C   0  0  1  0  0  3  0  0  0  0  0  0
  190.0030  176.3330  138.5160 C   0  0  0  0  0  2  0  0  0  0  0  0
  190.1030  177.3750  139.6360 C   0  0  2  0  0  3  0  0  0  0  0  0
  189.5930  176.4090  147.2750 C   0  0  0  0  0  3  0  0  0  0  0  0
  192.4790  176.0430  138.5210 C   0  0  1  0  0  3  0  0  0  0  0  0
  189.5040  177.3550  145.0640 C   0  0  0  0  0  0  0  0  0  0  0  0
  190.9120  177.3030  145.0260 C   0  0  0  0  0  0  0  0  0  0  0  0
  187.4820  177.8810  143.9290 O   0  0  0  0  0  0  0  0  0  0  0  0
  192.6130  177.1050  139.6070 C   0  0  0  0  0  2  0  0  0  0  0  0
  188.7430  177.8660  143.9020 C   0  0  0  0  0  0  0  0  0  0  0  0
  191.2610  176.3400  137.6570 C   0  0  0  0  0  2  0  0  0  0  0  0
  188.8450  176.8950  146.2060 C   0  0  0  0  0  3  0  0  0  0  0  0
  190.9490  176.3880  147.1920 N   0  0  0  0  0  0  0  0  0  0  0  0
  191.5870  176.8220  146.1040 N   0  0  0  0  0  0  0  0  0  0  0  0
  190.8300  177.6980  142.5620 C   0  0  2  0  0  3  0  0  0  0  0  0
  194.6340  176.0370  137.0290 N   0  0  0  0  0  0  0  0  0  0  0  0
  193.6820  176.0400  137.6880 C   0  0  0  0  0  0  0  0  0  0  0  0
  187.6100  179.3800  141.3440 C   0  0  0  0  0  2  0  0  0  0  0  0
  186.4350  178.7500  140.6200 C   0  0  0  0  0  2  0  0  0  0  0  0
  185.2000  179.3510  141.0880 N   0  0  0  0  0  2  0  0  0  0  0  0
  184.1210  178.4910  140.6350 C   0  0  0  0  0  2  0  0  0  0  0  0
  183.4450  179.0080  145.3210 O   0  0  0  0  0  0  0  0  0  0  0  0
  181.4750  178.8860  144.0080 C   0  0  0  0  0  3  0  0  0  0  0  0
  183.7640  178.6340  143.0400 N   0  0  0  0  0  2  0  0  0  0  0  0
  181.8420  178.9950  141.5580 C   0  0  0  0  0  2  0  0  0  0  0  0
  183.1530  178.2300  141.7750 C   0  0  1  0  0  3  0  0  0  0  0  0
  182.9330  178.8510  144.1830 C   0  0  0  0  0  0  0  0  0  0  0  0
  180.9600  178.9120  142.7760 C   0  0  0  0  0  3  0  0  0  0  0  0
  1  2  1  1  0  0  0
  1 14  1  0  0  0  0
  3  6  2  0  0  0  0
  4 16  1  6  0  0  0
  4  7  1  0  0  0  0
  5  8  1  0  0  0  0
  6  5  1  0  0  0  0
  8 17  1  1  0  0  0
 10  9  1  6  0  0  0
 10  6  1  0  0  0  0
 10  4  1  0  0  0  0
 12 24  1  6  0  0  0
 12 16  1  0  0  0  0
 13 19  1  0  0  0  0
 14 13  2  0  0  0  0
 14 21  1  0  0  0  0
 17 15  2  0  0  0  0
 17 13  1  0  0  0  0
 18  9  1  0  0  0  0
 18 12  1  0  0  0  0
 19 11  2  0  0  0  0
 20 11  1  0  0  0  0
 21 20  2  0  0  0  0
 22  7  1  6  0  0  0
 22  8  1  0  0  0  0
 22  1  1  0  0  0  0
 23 24  3  0  0  0  0
 25  5  1  0  0  0  0
 26 27  1  0  0  0  0
 26 25  1  0  0  0  0
 28 27  1  0  0  0  0
 30 34  1  0  0  0  0
 31 34  1  0  0  0  0
 32 33  1  0  0  0  0
 32 35  1  0  0  0  0
 33 28  1  6  0  0  0
 33 31  1  0  0  0  0
 34 29  2  0  0  0  0
 35 30  2  0  0  0  0
M  END
>  <MODEL>
9

>  <REMARK>
 VINA RESULT:      -6.7      2.655      7.987
  Name = 
  6 active torsions:
  status: ('A' for Active; 'I' for Inactive)
    1  A    between atoms: C_8  and  N_31
    2  A    between atoms: C_8  and  C_33
    3  A    between atoms: N_9  and  C_33
    4  A    between atoms: C_17  and  C_32
    5  A    between atoms: C_18  and  C_23
    6  A    between atoms: C_18  and  N_31
                            x       y       z     vdW  Elec       q    Type
                         _______ _______ _______ _____ _____    ______ ____

>  <TORSDO>
F 6

$$$$
