=
 OpenBabel10222420573D

 56 60  0  0  1  0  0  0  0  0999 V2000
  188.4320  177.4080  141.4500 C   0  0  0  0  0  3  0  0  0  0  0  0
  189.4870  176.4120  141.7740 C   0  0  0  0  0  2  0  0  0  0  0  0
  191.2370  177.2640  140.2570 C   0  0  0  0  0  3  0  0  0  0  0  0
  188.2490  177.9080  140.2250 C   0  0  0  0  0  0  0  0  0  0  0  0
  190.8510  176.9770  141.5030 C   0  0  0  0  0  0  0  0  0  0  0  0
  189.0610  177.4890  139.0600 C   0  0  0  0  0  3  0  0  0  0  0  0
  190.3700  177.1570  139.0620 C   0  0  0  0  0  0  0  0  0  0  0  0
  190.5550  176.3730  145.9850 C   0  0  0  0  0  0  0  0  0  0  0  0
  190.9180  179.3880  143.6880 C   0  0  0  0  0  2  0  0  0  0  0  0
  191.4820  175.4880  145.7860 N   0  0  0  0  0  0  0  0  0  0  0  0
  192.0090  175.6540  144.5030 N   0  0  0  0  0  0  0  0  0  0  0  0
  192.0320  178.7320  142.8530 C   0  0  0  0  0  2  0  0  0  0  0  0
  190.7280  178.6680  145.0240 C   0  0  0  0  0  2  0  0  0  0  0  0
  191.8080  177.2310  142.6250 C   0  0  1  0  0  3  0  0  0  0  0  0
  191.3620  176.5970  143.9050 C   0  0  0  0  0  0  0  0  0  0  0  0
  190.3320  177.2190  144.7800 C   0  0  1  0  0  3  0  0  0  0  0  0
  189.7540  176.4320  147.2340 C   0  0  0  0  0  2  0  0  0  0  0  0
  190.1030  177.5640  147.9710 O   0  0  0  0  0  0  0  0  0  0  0  0
  188.8900  178.1140  148.3970 C   0  0  0  0  0  2  0  0  0  0  0  0
  187.7330  177.3730  147.7490 C   0  0  0  0  0  2  0  0  0  0  0  0
  187.3320  178.0420  146.5240 N   0  0  0  0  0  2  0  0  0  0  0  0
  185.9290  178.4050  146.6750 C   0  0  1  0  0  3  0  0  0  0  0  0
  185.8130  179.7340  147.3970 C   0  0  0  0  0  1  0  0  0  0  0  0
  181.7810  179.0520  143.9630 C   0  0  0  0  0  1  0  0  0  0  0  0
  183.9600  178.5350  142.8470 C   0  0  0  0  0  3  0  0  0  0  0  0
  185.9790  178.2160  144.1490 C   0  0  0  0  0  3  0  0  0  0  0  0
  185.3300  178.2610  142.9080 C   0  0  0  0  0  3  0  0  0  0  0  0
  183.8880  178.7140  145.2670 C   0  0  0  0  0  3  0  0  0  0  0  0
  183.2390  178.7600  144.0270 C   0  0  0  0  0  0  0  0  0  0  0  0
  185.2570  178.4480  145.3330 C   0  0  0  0  0  0  0  0  0  0  0  0
  191.0210  176.6710  137.7920 C   0  0  2  0  0  3  0  0  0  0  0  0
  190.2070  176.9610  136.6200 N   0  0  0  0  0  1  0  0  0  0  0  0
  193.8310  176.7580  138.2270 O   0  0  0  0  0  0  0  0  0  0  0  0
  192.7220  174.7390  137.7680 N   0  0  0  0  0  2  0  0  0  0  0  0
  191.3620  175.1930  137.8460 C   0  0  0  0  0  0  0  0  0  0  0  0
  190.4460  174.3200  137.9670 O   0  0  0  0  0  0  0  0  0  0  0  0
  193.9040  175.5480  137.8730 C   0  0  0  0  0  0  0  0  0  0  0  0
  195.1640  174.9950  137.6320 O   0  0  0  0  0  0  0  0  0  0  0  0
  195.9220  174.3760  138.6650 C   0  0  0  0  0  2  0  0  0  0  0  0
  197.9620  175.5720  139.0070 O   0  0  0  0  0  1  0  0  0  0  0  0
  197.4150  174.4580  138.3720 C   0  0  2  0  0  3  0  0  0  0  0  0
  199.0060  174.9280  136.6590 O   0  0  0  0  0  1  0  0  0  0  0  0
  197.6880  174.5370  136.8800 C   0  0  0  0  0  2  0  0  0  0  0  0
  187.0550  178.7770  139.9600 C   0  0  0  0  0  2  0  0  0  0  0  0
  184.6860  178.0780  139.2260 C   0  0  0  0  0  3  0  0  0  0  0  0
  186.1420  178.1790  138.9430 C   0  0  0  0  0  0  0  0  0  0  0  0
  186.6500  177.7320  137.7850 C   0  0  0  0  0  3  0  0  0  0  0  0
  186.2710  176.6230  135.7260 O   0  0  0  0  0  0  0  0  0  0  0  0
  185.7730  177.0920  136.7830 C   0  0  0  0  0  0  0  0  0  0  0  0
  184.3260  176.9760  137.0620 C   0  0  0  0  0  0  0  0  0  0  0  0
  183.8310  177.5160  138.3460 C   0  0  0  0  0  3  0  0  0  0  0  0
  183.5370  176.4290  136.1780 N   0  0  0  0  0  0  0  0  0  0  0  0
  181.2690  175.8970  134.9430 O   0  0  0  0  0  0  0  0  0  0  0  0
  181.4720  174.8340  137.4140 C   0  0  0  0  0  1  0  0  0  0  0  0
  181.1360  177.4460  136.8330 O   0  0  0  0  0  0  0  0  0  0  0  0
  181.8160  176.2090  136.3110 S   0  0  0  0  0  0  0  0  0  0  0  0
  1  2  1  0  0  0  0
  3  5  2  0  0  0  0
  4  1  2  0  0  0  0
  5  2  1  0  0  0  0
  6  7  2  0  0  0  0
  6  4  1  0  0  0  0
  7  3  1  0  0  0  0
  8 17  1  0  0  0  0
  9 13  1  0  0  0  0
 10  8  2  0  0  0  0
 11 10  1  0  0  0  0
 12  9  1  0  0  0  0
 14  5  1  6  0  0  0
 14 12  1  0  0  0  0
 14 15  1  0  0  0  0
 15 11  2  0  0  0  0
 15 16  1  0  0  0  0
 16 13  1  1  0  0  0
 16  8  1  0  0  0  0
 17 18  1  0  0  0  0
 18 19  1  0  0  0  0
 20 19  1  0  0  0  0
 21 22  1  0  0  0  0
 21 20  1  0  0  0  0
 22 23  1  6  0  0  0
 24 29  1  0  0  0  0
 25 27  2  0  0  0  0
 25 29  1  0  0  0  0
 26 30  2  0  0  0  0
 27 26  1  0  0  0  0
 28 30  1  0  0  0  0
 29 28  2  0  0  0  0
 30 22  1  0  0  0  0
 31 32  1  6  0  0  0
 31 35  1  0  0  0  0
 31  7  1  0  0  0  0
 34 35  1  0  0  0  0
 34 37  1  0  0  0  0
 35 36  2  0  0  0  0
 37 33  2  0  0  0  0
 38 37  1  0  0  0  0
 38 39  1  0  0  0  0
 41 39  1  0  0  0  0
 41 40  1  1  0  0  0
 42 43  1  0  0  0  0
 43 41  1  0  0  0  0
 44  4  1  0  0  0  0
 46 45  1  0  0  0  0
 46 44  1  0  0  0  0
 47 46  2  0  0  0  0
 48 49  2  0  0  0  0
 49 50  1  0  0  0  0
 49 47  1  0  0  0  0
 50 51  1  0  0  0  0
 51 45  2  0  0  0  0
 52 56  1  0  0  0  0
 52 50  2  0  0  0  0
 53 56  2  0  0  0  0
 56 55  2  0  0  0  0
 56 54  1  0  0  0  0
M  END
>  <MODEL>
1

>  <REMARK>
 VINA RESULT:      -8.4      0.000      0.000
  Name = 
  17 active torsions:
  status: ('A' for Active; 'I' for Inactive)
    1  A    between atoms: C_5  and  C_43
    2  A    between atoms: C_7  and  N_32
    3  A    between atoms: C_7  and  C_52
    4  A    between atoms: C_9  and  C_34
    5  A    between atoms: C_9  and  C_48
    6  A    between atoms: C_17  and  C_33
    7  A    between atoms: C_17  and  C_46
    8  A    between atoms: C_18  and  C_55
    9  A    between atoms: C_25  and  C_44
   10  A    between atoms: C_25  and  O_47
   11  A    between atoms: C_27  and  C_55
   12  A    between atoms: N_32  and  C_44
   13  A    between atoms: C_34  and  O_51
   14  A    between atoms: S_35  and  N_56
   15  A    between atoms: C_38  and  C_39
   16  A    between atoms: C_43  and  O_47
   17  A    between atoms: O_51  and  C_53
                            x       y       z     vdW  Elec       q    Type
                         _______ _______ _______ _____ _____    ______ ____

>  <TORSDO>
F 17

$$$$
=
 OpenBabel10222420573D

 56 60  0  0  1  0  0  0  0  0999 V2000
  187.1940  177.2260  135.9480 C   0  0  0  0  0  3  0  0  0  0  0  0
  187.1890  176.2720  134.8090 C   0  0  0  0  0  2  0  0  0  0  0  0
  188.7060  174.5810  135.7750 C   0  0  0  0  0  3  0  0  0  0  0  0
  188.2720  177.4620  136.7030 C   0  0  0  0  0  0  0  0  0  0  0  0
  187.5010  174.8810  135.2810 C   0  0  0  0  0  0  0  0  0  0  0  0
  189.5810  176.8160  136.4500 C   0  0  0  0  0  3  0  0  0  0  0  0
  189.7920  175.5620  135.9970 C   0  0  0  0  0  0  0  0  0  0  0  0
  183.2150  174.6280  136.7310 C   0  0  0  0  0  0  0  0  0  0  0  0
  186.4610  172.8240  137.5780 C   0  0  0  0  0  2  0  0  0  0  0  0
  182.9380  174.5730  135.4660 N   0  0  0  0  0  0  0  0  0  0  0  0
  184.1100  174.3290  134.7470 N   0  0  0  0  0  0  0  0  0  0  0  0
  186.8320  172.6070  136.1000 C   0  0  0  0  0  2  0  0  0  0  0  0
  184.9810  173.1780  137.7340 C   0  0  0  0  0  2  0  0  0  0  0  0
  186.4690  173.8010  135.2070 C   0  0  1  0  0  3  0  0  0  0  0  0
  185.1040  174.2950  135.5700 C   0  0  0  0  0  0  0  0  0  0  0  0
  184.6740  174.4660  136.9840 C   0  0  1  0  0  3  0  0  0  0  0  0
  182.1950  174.9300  137.7660 C   0  0  0  0  0  2  0  0  0  0  0  0
  182.6390  175.9700  138.5830 O   0  0  0  0  0  0  0  0  0  0  0  0
  182.4670  177.1330  137.8260 C   0  0  0  0  0  2  0  0  0  0  0  0
  182.7390  178.3540  138.6870 C   0  0  0  0  0  2  0  0  0  0  0  0
  182.5610  178.0270  140.0910 N   0  0  0  0  0  2  0  0  0  0  0  0
  183.8720  178.1220  140.7220 C   0  0  1  0  0  3  0  0  0  0  0  0
  184.7080  179.1770  140.0220 C   0  0  0  0  0  1  0  0  0  0  0  0
  185.9420  178.5770  145.2470 C   0  0  0  0  0  1  0  0  0  0  0  0
  183.4910  178.9630  144.9270 C   0  0  0  0  0  3  0  0  0  0  0  0
  182.4720  178.7430  142.7400 C   0  0  0  0  0  3  0  0  0  0  0  0
  182.3580  179.0160  144.1090 C   0  0  0  0  0  3  0  0  0  0  0  0
  184.8500  178.3600  143.0080 C   0  0  0  0  0  3  0  0  0  0  0  0
  184.7360  178.6330  144.3760 C   0  0  0  0  0  0  0  0  0  0  0  0
  183.7230  178.4180  142.1850 C   0  0  0  0  0  0  0  0  0  0  0  0
  191.1980  175.0940  135.7170 C   0  0  2  0  0  3  0  0  0  0  0  0
  191.2170  173.9160  134.8610 N   0  0  0  0  0  1  0  0  0  0  0  0
  193.6580  176.3960  135.1320 O   0  0  0  0  0  0  0  0  0  0  0  0
  193.4000  175.0650  137.0490 N   0  0  0  0  0  2  0  0  0  0  0  0
  191.9840  174.8350  136.9900 C   0  0  0  0  0  0  0  0  0  0  0  0
  191.4020  174.4120  138.0370 O   0  0  0  0  0  0  0  0  0  0  0  0
  194.1990  175.7580  136.0780 C   0  0  0  0  0  0  0  0  0  0  0  0
  195.5920  175.7800  136.1910 O   0  0  0  0  0  0  0  0  0  0  0  0
  196.3700  174.5920  136.1020 C   0  0  0  0  0  2  0  0  0  0  0  0
  197.9080  175.4500  137.7160 O   0  0  0  0  0  1  0  0  0  0  0  0
  197.1290  174.3380  137.3980 C   0  0  2  0  0  3  0  0  0  0  0  0
  197.5700  172.2900  136.2590 O   0  0  0  0  0  1  0  0  0  0  0  0
  198.0130  173.1080  137.2960 C   0  0  0  0  0  2  0  0  0  0  0  0
  188.2270  178.5640  137.7200 C   0  0  0  0  0  2  0  0  0  0  0  0
  188.2320  178.2740  140.2800 C   0  0  0  0  0  3  0  0  0  0  0  0
  188.9420  178.1950  138.9760 C   0  0  0  0  0  0  0  0  0  0  0  0
  190.2230  177.8010  138.9130 C   0  0  0  0  0  3  0  0  0  0  0  0
  192.1840  177.1660  140.0800 O   0  0  0  0  0  0  0  0  0  0  0  0
  190.9660  177.4770  140.1480 C   0  0  0  0  0  0  0  0  0  0  0  0
  190.2710  177.5660  141.4500 C   0  0  0  0  0  0  0  0  0  0  0  0
  188.8520  177.9790  141.4420 C   0  0  0  0  0  3  0  0  0  0  0  0
  190.9100  177.2640  142.5470 N   0  0  0  0  0  0  0  0  0  0  0  0
  190.1690  178.7320  144.6080 O   0  0  0  0  0  0  0  0  0  0  0  0
  188.6390  176.5510  144.1820 C   0  0  0  0  0  1  0  0  0  0  0  0
  191.1650  176.5590  145.1290 O   0  0  0  0  0  0  0  0  0  0  0  0
  190.2730  177.2960  144.1660 S   0  0  0  0  0  0  0  0  0  0  0  0
  1  4  2  0  0  0  0
  2  5  1  0  0  0  0
  2  1  1  0  0  0  0
  3  7  1  0  0  0  0
  4 44  1  0  0  0  0
  5  3  2  0  0  0  0
  6  4  1  0  0  0  0
  7  6  2  0  0  0  0
  8 16  1  0  0  0  0
  8 17  1  0  0  0  0
  9 13  1  0  0  0  0
 10  8  2  0  0  0  0
 11 10  1  0  0  0  0
 11 15  2  0  0  0  0
 12  9  1  0  0  0  0
 14  5  1  1  0  0  0
 14 15  1  0  0  0  0
 14 12  1  0  0  0  0
 15 16  1  0  0  0  0
 16 13  1  1  0  0  0
 17 18  1  0  0  0  0
 19 18  1  0  0  0  0
 19 20  1  0  0  0  0
 20 21  1  0  0  0  0
 21 22  1  0  0  0  0
 22 23  1  6  0  0  0
 22 30  1  0  0  0  0
 26 27  1  0  0  0  0
 27 25  2  0  0  0  0
 28 29  2  0  0  0  0
 29 25  1  0  0  0  0
 29 24  1  0  0  0  0
 30 26  2  0  0  0  0
 30 28  1  0  0  0  0
 31 32  1  1  0  0  0
 31  7  1  0  0  0  0
 31 35  1  0  0  0  0
 33 37  2  0  0  0  0
 35 34  1  0  0  0  0
 35 36  2  0  0  0  0
 37 38  1  0  0  0  0
 37 34  1  0  0  0  0
 39 38  1  0  0  0  0
 39 41  1  0  0  0  0
 41 40  1  6  0  0  0
 42 43  1  0  0  0  0
 43 41  1  0  0  0  0
 44 46  1  0  0  0  0
 45 51  2  0  0  0  0
 46 45  1  0  0  0  0
 47 46  2  0  0  0  0
 47 49  1  0  0  0  0
 48 49  2  0  0  0  0
 49 50  1  0  0  0  0
 50 52  2  0  0  0  0
 51 50  1  0  0  0  0
 52 56  1  0  0  0  0
 56 54  1  0  0  0  0
 56 53  2  0  0  0  0
 56 55  2  0  0  0  0
M  END
>  <MODEL>
2

>  <REMARK>
 VINA RESULT:      -8.2      2.735      7.414
  Name = 
  17 active torsions:
  status: ('A' for Active; 'I' for Inactive)
    1  A    between atoms: C_5  and  C_43
    2  A    between atoms: C_7  and  N_32
    3  A    between atoms: C_7  and  C_52
    4  A    between atoms: C_9  and  C_34
    5  A    between atoms: C_9  and  C_48
    6  A    between atoms: C_17  and  C_33
    7  A    between atoms: C_17  and  C_46
    8  A    between atoms: C_18  and  C_55
    9  A    between atoms: C_25  and  C_44
   10  A    between atoms: C_25  and  O_47
   11  A    between atoms: C_27  and  C_55
   12  A    between atoms: N_32  and  C_44
   13  A    between atoms: C_34  and  O_51
   14  A    between atoms: S_35  and  N_56
   15  A    between atoms: C_38  and  C_39
   16  A    between atoms: C_43  and  O_47
   17  A    between atoms: O_51  and  C_53
                            x       y       z     vdW  Elec       q    Type
                         _______ _______ _______ _____ _____    ______ ____

>  <TORSDO>
F 17

$$$$
=
 OpenBabel10222420573D

 56 60  0  0  1  0  0  0  0  0999 V2000
  188.9260  175.6990  136.0200 C   0  0  0  0  0  3  0  0  0  0  0  0
  187.6500  175.2990  136.6680 C   0  0  0  0  0  2  0  0  0  0  0  0
  187.3310  177.3100  138.0630 C   0  0  0  0  0  3  0  0  0  0  0  0
  189.8810  176.3910  136.6480 C   0  0  0  0  0  0  0  0  0  0  0  0
  186.8720  176.5090  137.0980 C   0  0  0  0  0  0  0  0  0  0  0  0
  189.7720  176.7970  138.0680 C   0  0  0  0  0  3  0  0  0  0  0  0
  188.6490  177.1620  138.7220 C   0  0  0  0  0  0  0  0  0  0  0  0
  182.6340  176.7180  138.6900 C   0  0  0  0  0  0  0  0  0  0  0  0
  184.4550  174.5510  136.1420 C   0  0  0  0  0  2  0  0  0  0  0  0
  182.7480  177.9830  138.4310 N   0  0  0  0  0  0  0  0  0  0  0  0
  183.8750  178.1900  137.6330 N   0  0  0  0  0  0  0  0  0  0  0  0
  185.1260  175.7570  135.4610 C   0  0  0  0  0  2  0  0  0  0  0  0
  183.2740  174.9890  137.0100 C   0  0  0  0  0  2  0  0  0  0  0  0
  185.5630  176.8420  136.4540 C   0  0  1  0  0  3  0  0  0  0  0  0
  184.4760  177.0610  137.4590 C   0  0  0  0  0  0  0  0  0  0  0  0
  183.7540  175.9310  138.1040 C   0  0  1  0  0  3  0  0  0  0  0  0
  181.5680  176.1690  139.5650 C   0  0  0  0  0  2  0  0  0  0  0  0
  180.5700  177.1240  139.7580 O   0  0  0  0  0  0  0  0  0  0  0  0
  179.8530  176.6860  140.8760 C   0  0  0  0  0  2  0  0  0  0  0  0
  179.5730  177.8590  141.8000 C   0  0  0  0  0  2  0  0  0  0  0  0
  180.5710  178.8970  141.6090 N   0  0  0  0  0  2  0  0  0  0  0  0
  181.0450  179.2840  142.9330 C   0  0  1  0  0  3  0  0  0  0  0  0
  180.1940  178.6220  144.0010 C   0  0  0  0  0  1  0  0  0  0  0  0
  185.0400  178.7190  145.8820 C   0  0  0  0  0  1  0  0  0  0  0  0
  185.2040  178.2850  143.4240 C   0  0  0  0  0  3  0  0  0  0  0  0
  183.2770  178.5570  141.9800 C   0  0  0  0  0  3  0  0  0  0  0  0
  184.6290  178.2330  142.1500 C   0  0  0  0  0  3  0  0  0  0  0  0
  183.0760  178.9890  144.3560 C   0  0  0  0  0  3  0  0  0  0  0  0
  184.4270  178.6640  144.5260 C   0  0  0  0  0  0  0  0  0  0  0  0
  182.4950  178.9320  143.0870 C   0  0  0  0  0  0  0  0  0  0  0  0
  188.7070  177.4670  140.1980 C   0  0  2  0  0  3  0  0  0  0  0  0
  188.1210  178.7640  140.5070 N   0  0  0  0  0  1  0  0  0  0  0  0
  188.2280  176.4360  142.8050 O   0  0  0  0  0  0  0  0  0  0  0  0
  190.3580  177.1770  142.1510 N   0  0  0  0  0  2  0  0  0  0  0  0
  190.1180  177.3810  140.7500 C   0  0  0  0  0  0  0  0  0  0  0  0
  191.1230  177.4830  139.9790 O   0  0  0  0  0  0  0  0  0  0  0  0
  189.3900  176.7980  143.1420 C   0  0  0  0  0  0  0  0  0  0  0  0
  189.7330  176.7780  144.4960 O   0  0  0  0  0  0  0  0  0  0  0  0
  189.7420  177.9620  145.2850 C   0  0  0  0  0  2  0  0  0  0  0  0
  190.4260  176.5100  147.0540 O   0  0  0  0  0  1  0  0  0  0  0  0
  189.6470  177.6300  146.7690 C   0  0  2  0  0  3  0  0  0  0  0  0
  188.1510  177.1910  148.5740 O   0  0  0  0  0  1  0  0  0  0  0  0
  188.2120  177.3750  147.1940 C   0  0  0  0  0  2  0  0  0  0  0  0
  191.2020  176.6010  135.9680 C   0  0  0  0  0  2  0  0  0  0  0  0
  192.1540  174.2240  135.6840 C   0  0  0  0  0  3  0  0  0  0  0  0
  192.1970  175.5560  136.3440 C   0  0  0  0  0  0  0  0  0  0  0  0
  193.1180  175.8300  137.2800 C   0  0  0  0  0  3  0  0  0  0  0  0
  194.9040  175.0470  138.6250 O   0  0  0  0  0  0  0  0  0  0  0  0
  194.0840  174.7950  137.7030 C   0  0  0  0  0  0  0  0  0  0  0  0
  194.0390  173.4640  137.0610 C   0  0  0  0  0  0  0  0  0  0  0  0
  193.0180  173.2410  136.0170 C   0  0  0  0  0  3  0  0  0  0  0  0
  194.8990  172.5470  137.4130 N   0  0  0  0  0  0  0  0  0  0  0  0
  195.6060  171.0090  135.3910 O   0  0  0  0  0  0  0  0  0  0  0  0
  196.0970  169.9520  137.8240 C   0  0  0  0  0  1  0  0  0  0  0  0
  193.6700  170.2670  136.6910 O   0  0  0  0  0  0  0  0  0  0  0  0
  195.0170  170.9320  136.7760 S   0  0  0  0  0  0  0  0  0  0  0  0
  1  4  2  0  0  0  0
  1  2  1  0  0  0  0
  2  5  1  0  0  0  0
  3  7  1  0  0  0  0
  4  6  1  0  0  0  0
  5  3  2  0  0  0  0
  6  7  2  0  0  0  0
  7 31  1  0  0  0  0
  8 17  1  0  0  0  0
  9 13  1  0  0  0  0
 10  8  2  0  0  0  0
 11 10  1  0  0  0  0
 12  9  1  0  0  0  0
 12 14  1  0  0  0  0
 14  5  1  1  0  0  0
 14 15  1  0  0  0  0
 15 11  2  0  0  0  0
 15 16  1  0  0  0  0
 16 13  1  6  0  0  0
 16  8  1  0  0  0  0
 17 18  1  0  0  0  0
 18 19  1  0  0  0  0
 19 20  1  0  0  0  0
 21 20  1  0  0  0  0
 21 22  1  0  0  0  0
 22 30  1  0  0  0  0
 22 23  1  1  0  0  0
 25 29  1  0  0  0  0
 26 27  1  0  0  0  0
 26 30  2  0  0  0  0
 27 25  2  0  0  0  0
 28 29  2  0  0  0  0
 29 24  1  0  0  0  0
 30 28  1  0  0  0  0
 31 32  1  6  0  0  0
 31 35  1  0  0  0  0
 33 37  2  0  0  0  0
 34 37  1  0  0  0  0
 35 34  1  0  0  0  0
 36 35  2  0  0  0  0
 37 38  1  0  0  0  0
 38 39  1  0  0  0  0
 39 41  1  0  0  0  0
 41 40  1  6  0  0  0
 41 43  1  0  0  0  0
 43 42  1  0  0  0  0
 44 46  1  0  0  0  0
 44  4  1  0  0  0  0
 45 51  2  0  0  0  0
 45 46  1  0  0  0  0
 46 47  2  0  0  0  0
 47 49  1  0  0  0  0
 49 48  2  0  0  0  0
 50 52  2  0  0  0  0
 50 49  1  0  0  0  0
 51 50  1  0  0  0  0
 53 56  2  0  0  0  0
 55 56  2  0  0  0  0
 56 52  1  0  0  0  0
 56 54  1  0  0  0  0
M  END
>  <MODEL>
3

>  <REMARK>
 VINA RESULT:      -8.1      3.174      9.047
  Name = 
  17 active torsions:
  status: ('A' for Active; 'I' for Inactive)
    1  A    between atoms: C_5  and  C_43
    2  A    between atoms: C_7  and  N_32
    3  A    between atoms: C_7  and  C_52
    4  A    between atoms: C_9  and  C_34
    5  A    between atoms: C_9  and  C_48
    6  A    between atoms: C_17  and  C_33
    7  A    between atoms: C_17  and  C_46
    8  A    between atoms: C_18  and  C_55
    9  A    between atoms: C_25  and  C_44
   10  A    between atoms: C_25  and  O_47
   11  A    between atoms: C_27  and  C_55
   12  A    between atoms: N_32  and  C_44
   13  A    between atoms: C_34  and  O_51
   14  A    between atoms: S_35  and  N_56
   15  A    between atoms: C_38  and  C_39
   16  A    between atoms: C_43  and  O_47
   17  A    between atoms: O_51  and  C_53
                            x       y       z     vdW  Elec       q    Type
                         _______ _______ _______ _____ _____    ______ ____

>  <TORSDO>
F 17

$$$$
=
 OpenBabel10222420573D

 56 60  0  0  1  0  0  0  0  0999 V2000
  183.0030  177.0360  138.7800 C   0  0  0  0  0  3  0  0  0  0  0  0
  182.1100  175.9290  139.2120 C   0  0  0  0  0  2  0  0  0  0  0  0
  180.3070  177.3060  140.1820 C   0  0  0  0  0  3  0  0  0  0  0  0
  183.1520  178.1700  139.4710 C   0  0  0  0  0  0  0  0  0  0  0  0
  180.6850  176.3950  139.2820 C   0  0  0  0  0  0  0  0  0  0  0  0
  182.4640  178.4170  140.7580 C   0  0  0  0  0  3  0  0  0  0  0  0
  181.2260  178.0050  141.1080 C   0  0  0  0  0  0  0  0  0  0  0  0
  180.6500  172.7920  136.5320 C   0  0  0  0  0  0  0  0  0  0  0  0
  180.5130  176.5660  136.0370 C   0  0  0  0  0  2  0  0  0  0  0  0
  179.7220  172.3670  137.3300 N   0  0  0  0  0  0  0  0  0  0  0  0
  179.2900  173.4220  138.1390 N   0  0  0  0  0  0  0  0  0  0  0  0
  179.4480  176.7620  137.1300 C   0  0  0  0  0  2  0  0  0  0  0  0
  180.5940  175.1040  135.5950 C   0  0  0  0  0  2  0  0  0  0  0  0
  179.6560  175.8460  138.3440 C   0  0  1  0  0  3  0  0  0  0  0  0
  179.9970  174.4680  137.8710 C   0  0  0  0  0  0  0  0  0  0  0  0
  180.9750  174.2250  136.7770 C   0  0  1  0  0  3  0  0  0  0  0  0
  181.3610  171.9040  135.5790 C   0  0  0  0  0  2  0  0  0  0  0  0
  182.7080  172.2610  135.5080 O   0  0  0  0  0  0  0  0  0  0  0  0
  183.3800  171.3270  136.3010 C   0  0  0  0  0  2  0  0  0  0  0  0
  184.6310  171.9550  136.8900 C   0  0  0  0  0  2  0  0  0  0  0  0
  184.3330  173.2820  137.4000 N   0  0  0  0  0  2  0  0  0  0  0  0
  185.5790  174.0380  137.3770 C   0  0  1  0  0  3  0  0  0  0  0  0
  186.7350  173.1220  137.0230 C   0  0  0  0  0  1  0  0  0  0  0  0
  187.8110  177.5380  134.5940 C   0  0  0  0  0  1  0  0  0  0  0  0
  185.3180  177.3360  134.6210 C   0  0  0  0  0  3  0  0  0  0  0  0
  184.2210  175.6460  135.9670 C   0  0  0  0  0  3  0  0  0  0  0  0
  184.1460  176.7190  135.0700 C   0  0  0  0  0  3  0  0  0  0  0  0
  186.6390  175.8100  135.9700 C   0  0  0  0  0  3  0  0  0  0  0  0
  186.5630  176.8810  135.0720 C   0  0  0  0  0  0  0  0  0  0  0  0
  185.4710  175.1860  136.4160 C   0  0  0  0  0  0  0  0  0  0  0  0
  180.7120  178.2780  142.4990 C   0  0  2  0  0  3  0  0  0  0  0  0
  179.2940  177.9710  142.6230 N   0  0  0  0  0  1  0  0  0  0  0  0
  183.2520  177.9970  143.7480 O   0  0  0  0  0  0  0  0  0  0  0  0
  182.0350  180.0000  143.8790 N   0  0  0  0  0  2  0  0  0  0  0  0
  180.9850  179.7020  142.9470 C   0  0  0  0  0  0  0  0  0  0  0  0
  180.2890  180.6670  142.5000 O   0  0  0  0  0  0  0  0  0  0  0  0
  183.0770  179.1130  144.3130 C   0  0  0  0  0  0  0  0  0  0  0  0
  183.9480  179.4890  145.3380 O   0  0  0  0  0  0  0  0  0  0  0  0
  184.6530  178.5270  146.1140 C   0  0  0  0  0  2  0  0  0  0  0  0
  186.3410  177.9080  144.5400 O   0  0  0  0  0  1  0  0  0  0  0  0
  186.1380  178.5300  145.7710 C   0  0  2  0  0  3  0  0  0  0  0  0
  187.1810  178.6930  147.9090 O   0  0  0  0  0  1  0  0  0  0  0  0
  186.9600  177.8300  146.8380 C   0  0  0  0  0  2  0  0  0  0  0  0
  184.2010  179.1550  139.0450 C   0  0  0  0  0  2  0  0  0  0  0  0
  185.9470  178.6660  140.8750 C   0  0  0  0  0  3  0  0  0  0  0  0
  185.5720  178.7170  139.4370 C   0  0  0  0  0  0  0  0  0  0  0  0
  186.4520  178.3790  138.4830 C   0  0  0  0  0  3  0  0  0  0  0  0
  188.6640  177.7320  137.9370 O   0  0  0  0  0  0  0  0  0  0  0  0
  187.8300  177.9890  138.8450 C   0  0  0  0  0  0  0  0  0  0  0  0
  188.2160  177.9480  140.2710 C   0  0  0  0  0  0  0  0  0  0  0  0
  187.1870  178.3050  141.2690 C   0  0  0  0  0  3  0  0  0  0  0  0
  189.4250  177.5870  140.6050 N   0  0  0  0  0  0  0  0  0  0  0  0
  189.7750  178.7530  142.9440 O   0  0  0  0  0  0  0  0  0  0  0  0
  189.2750  176.1060  143.0790 C   0  0  0  0  0  1  0  0  0  0  0  0
  191.5580  177.2470  142.2060 O   0  0  0  0  0  0  0  0  0  0  0  0
  190.0690  177.4660  142.2170 S   0  0  0  0  0  0  0  0  0  0  0  0
  1  2  1  0  0  0  0
  1  4  2  0  0  0  0
  2  5  1  0  0  0  0
  3  7  1  0  0  0  0
  4  6  1  0  0  0  0
  5  3  2  0  0  0  0
  6  7  2  0  0  0  0
  7 31  1  0  0  0  0
  8 16  1  0  0  0  0
  8 10  2  0  0  0  0
  9 12  1  0  0  0  0
 10 11  1  0  0  0  0
 12 14  1  0  0  0  0
 13  9  1  0  0  0  0
 14  5  1  1  0  0  0
 15 11  2  0  0  0  0
 15 14  1  0  0  0  0
 16 13  1  6  0  0  0
 16 15  1  0  0  0  0
 17  8  1  0  0  0  0
 18 17  1  0  0  0  0
 18 19  1  0  0  0  0
 19 20  1  0  0  0  0
 20 21  1  0  0  0  0
 22 23  1  6  0  0  0
 22 21  1  0  0  0  0
 24 29  1  0  0  0  0
 25 27  2  0  0  0  0
 25 29  1  0  0  0  0
 26 30  2  0  0  0  0
 27 26  1  0  0  0  0
 28 30  1  0  0  0  0
 29 28  2  0  0  0  0
 30 22  1  0  0  0  0
 31 32  1  6  0  0  0
 31 35  1  0  0  0  0
 33 37  2  0  0  0  0
 34 37  1  0  0  0  0
 35 34  1  0  0  0  0
 36 35  2  0  0  0  0
 37 38  1  0  0  0  0
 38 39  1  0  0  0  0
 41 40  1  6  0  0  0
 41 39  1  0  0  0  0
 41 43  1  0  0  0  0
 43 42  1  0  0  0  0
 44 46  1  0  0  0  0
 44  4  1  0  0  0  0
 45 51  2  0  0  0  0
 46 45  1  0  0  0  0
 47 49  1  0  0  0  0
 47 46  2  0  0  0  0
 48 49  2  0  0  0  0
 49 50  1  0  0  0  0
 50 52  2  0  0  0  0
 50 51  1  0  0  0  0
 52 56  1  0  0  0  0
 55 56  2  0  0  0  0
 56 53  2  0  0  0  0
 56 54  1  0  0  0  0
M  END
>  <MODEL>
4

>  <REMARK>
 VINA RESULT:      -7.8      4.319     11.206
  Name = 
  17 active torsions:
  status: ('A' for Active; 'I' for Inactive)
    1  A    between atoms: C_5  and  C_43
    2  A    between atoms: C_7  and  N_32
    3  A    between atoms: C_7  and  C_52
    4  A    between atoms: C_9  and  C_34
    5  A    between atoms: C_9  and  C_48
    6  A    between atoms: C_17  and  C_33
    7  A    between atoms: C_17  and  C_46
    8  A    between atoms: C_18  and  C_55
    9  A    between atoms: C_25  and  C_44
   10  A    between atoms: C_25  and  O_47
   11  A    between atoms: C_27  and  C_55
   12  A    between atoms: N_32  and  C_44
   13  A    between atoms: C_34  and  O_51
   14  A    between atoms: S_35  and  N_56
   15  A    between atoms: C_38  and  C_39
   16  A    between atoms: C_43  and  O_47
   17  A    between atoms: O_51  and  C_53
                            x       y       z     vdW  Elec       q    Type
                         _______ _______ _______ _____ _____    ______ ____

>  <TORSDO>
F 17

$$$$
=
 OpenBabel10222420573D

 56 60  0  0  1  0  0  0  0  0999 V2000
  184.3360  177.7520  137.1140 C   0  0  0  0  0  3  0  0  0  0  0  0
  184.8200  177.2050  135.8200 C   0  0  0  0  0  2  0  0  0  0  0  0
  186.8940  176.1560  136.6500 C   0  0  0  0  0  3  0  0  0  0  0  0
  185.1500  178.2350  138.0570 C   0  0  0  0  0  0  0  0  0  0  0  0
  185.7100  176.0170  136.0470 C   0  0  0  0  0  0  0  0  0  0  0  0
  186.6200  178.3040  137.8850 C   0  0  0  0  0  3  0  0  0  0  0  0
  187.4010  177.4210  137.2280 C   0  0  0  0  0  0  0  0  0  0  0  0
  181.9640  173.5710  136.7690 C   0  0  0  0  0  0  0  0  0  0  0  0
  185.6420  173.2100  137.6910 C   0  0  0  0  0  2  0  0  0  0  0  0
  181.7890  173.7210  135.4940 N   0  0  0  0  0  0  0  0  0  0  0  0
  182.9690  174.1990  134.9200 N   0  0  0  0  0  0  0  0  0  0  0  0
  186.1250  173.5530  136.2710 C   0  0  0  0  0  2  0  0  0  0  0  0
  184.1590  172.8340  137.6980 C   0  0  0  0  0  2  0  0  0  0  0  0
  185.2900  174.6520  135.6000 C   0  0  1  0  0  3  0  0  0  0  0  0
  183.8380  174.3950  135.8540 C   0  0  0  0  0  0  0  0  0  0  0  0
  183.3250  174.0020  137.1940 C   0  0  1  0  0  3  0  0  0  0  0  0
  180.8810  173.1300  137.6840 C   0  0  0  0  0  2  0  0  0  0  0  0
  179.8010  174.0090  137.6040 O   0  0  0  0  0  0  0  0  0  0  0  0
  179.1480  173.9030  138.8350 C   0  0  0  0  0  2  0  0  0  0  0  0
  179.6550  174.9760  139.7820 C   0  0  0  0  0  2  0  0  0  0  0  0
  179.6570  176.2690  139.1200 N   0  0  0  0  0  2  0  0  0  0  0  0
  180.7460  177.0450  139.7000 C   0  0  1  0  0  3  0  0  0  0  0  0
  182.0240  176.2270  139.6950 C   0  0  0  0  0  1  0  0  0  0  0  0
  180.9590  179.5050  135.3550 C   0  0  0  0  0  1  0  0  0  0  0  0
  181.2310  180.7270  137.5200 C   0  0  0  0  0  3  0  0  0  0  0  0
  181.1330  179.5480  139.6350 C   0  0  0  0  0  3  0  0  0  0  0  0
  181.2880  180.7410  138.9180 C   0  0  0  0  0  3  0  0  0  0  0  0
  180.8660  178.3270  137.5590 C   0  0  0  0  0  3  0  0  0  0  0  0
  181.0210  179.5190  136.8420 C   0  0  0  0  0  0  0  0  0  0  0  0
  180.9160  178.3360  138.9550 C   0  0  0  0  0  0  0  0  0  0  0  0
  188.8770  177.6920  137.0800 C   0  0  2  0  0  3  0  0  0  0  0  0
  189.1780  179.1140  137.1700 N   0  0  0  0  0  1  0  0  0  0  0  0
  190.0330  175.2710  138.0240 O   0  0  0  0  0  0  0  0  0  0  0  0
  190.3750  176.0180  135.8240 N   0  0  0  0  0  2  0  0  0  0  0  0
  189.4450  177.1120  135.7980 C   0  0  0  0  0  0  0  0  0  0  0  0
  189.1040  177.5800  134.6670 O   0  0  0  0  0  0  0  0  0  0  0  0
  190.7010  175.1950  136.9550 C   0  0  0  0  0  0  0  0  0  0  0  0
  191.7350  174.2580  136.8750 O   0  0  0  0  0  0  0  0  0  0  0  0
  192.9730  174.4500  137.5490 C   0  0  0  0  0  2  0  0  0  0  0  0
  194.5510  176.0950  136.8300 O   0  0  0  0  0  1  0  0  0  0  0  0
  193.3710  175.9210  137.5530 C   0  0  2  0  0  3  0  0  0  0  0  0
  192.3950  177.0940  139.3850 O   0  0  0  0  0  1  0  0  0  0  0  0
  193.5550  176.4470  138.9650 C   0  0  0  0  0  2  0  0  0  0  0  0
  184.5600  178.9190  139.2550 C   0  0  0  0  0  2  0  0  0  0  0  0
  186.7670  178.3300  140.4460 C   0  0  0  0  0  3  0  0  0  0  0  0
  185.3060  178.5990  140.5060 C   0  0  0  0  0  0  0  0  0  0  0  0
  184.6450  178.5520  141.6720 C   0  0  0  0  0  3  0  0  0  0  0  0
  184.7090  178.0920  143.9950 O   0  0  0  0  0  0  0  0  0  0  0  0
  185.3530  178.1910  142.9170 C   0  0  0  0  0  0  0  0  0  0  0  0
  186.8030  177.9090  142.8650 C   0  0  0  0  0  0  0  0  0  0  0  0
  187.4730  178.0070  141.5510 C   0  0  0  0  0  3  0  0  0  0  0  0
  187.4440  177.6060  143.9610 N   0  0  0  0  0  0  0  0  0  0  0  0
  189.4570  176.0620  143.2410 O   0  0  0  0  0  0  0  0  0  0  0  0
  190.1000  178.6630  143.5520 C   0  0  0  0  0  1  0  0  0  0  0  0
  189.5180  176.9240  145.5300 O   0  0  0  0  0  0  0  0  0  0  0  0
  189.1410  177.2510  144.1100 S   0  0  0  0  0  0  0  0  0  0  0  0
  1  4  2  0  0  0  0
  2  5  1  0  0  0  0
  2  1  1  0  0  0  0
  3  7  1  0  0  0  0
  4 44  1  0  0  0  0
  5  3  2  0  0  0  0
  6  4  1  0  0  0  0
  7  6  2  0  0  0  0
  8 16  1  0  0  0  0
  8 17  1  0  0  0  0
  9 13  1  0  0  0  0
 10  8  2  0  0  0  0
 11 10  1  0  0  0  0
 11 15  2  0  0  0  0
 12  9  1  0  0  0  0
 14 15  1  0  0  0  0
 14  5  1  1  0  0  0
 14 12  1  0  0  0  0
 15 16  1  0  0  0  0
 16 13  1  6  0  0  0
 18 17  1  0  0  0  0
 18 19  1  0  0  0  0
 19 20  1  0  0  0  0
 21 22  1  0  0  0  0
 21 20  1  0  0  0  0
 22 23  1  6  0  0  0
 24 29  1  0  0  0  0
 25 27  1  0  0  0  0
 27 26  2  0  0  0  0
 28 30  2  0  0  0  0
 29 25  2  0  0  0  0
 29 28  1  0  0  0  0
 30 26  1  0  0  0  0
 30 22  1  0  0  0  0
 31 32  1  6  0  0  0
 31  7  1  0  0  0  0
 34 37  1  0  0  0  0
 35 34  1  0  0  0  0
 35 31  1  0  0  0  0
 36 35  2  0  0  0  0
 37 33  2  0  0  0  0
 38 37  1  0  0  0  0
 38 39  1  0  0  0  0
 39 41  1  0  0  0  0
 41 40  1  6  0  0  0
 41 43  1  0  0  0  0
 43 42  1  0  0  0  0
 44 46  1  0  0  0  0
 45 46  1  0  0  0  0
 45 51  2  0  0  0  0
 46 47  2  0  0  0  0
 47 49  1  0  0  0  0
 49 48  2  0  0  0  0
 50 49  1  0  0  0  0
 50 52  2  0  0  0  0
 51 50  1  0  0  0  0
 52 56  1  0  0  0  0
 53 56  2  0  0  0  0
 54 56  1  0  0  0  0
 56 55  2  0  0  0  0
M  END
>  <MODEL>
5

>  <REMARK>
 VINA RESULT:      -7.5      3.154      8.338
  Name = 
  17 active torsions:
  status: ('A' for Active; 'I' for Inactive)
    1  A    between atoms: C_5  and  C_43
    2  A    between atoms: C_7  and  N_32
    3  A    between atoms: C_7  and  C_52
    4  A    between atoms: C_9  and  C_34
    5  A    between atoms: C_9  and  C_48
    6  A    between atoms: C_17  and  C_33
    7  A    between atoms: C_17  and  C_46
    8  A    between atoms: C_18  and  C_55
    9  A    between atoms: C_25  and  C_44
   10  A    between atoms: C_25  and  O_47
   11  A    between atoms: C_27  and  C_55
   12  A    between atoms: N_32  and  C_44
   13  A    between atoms: C_34  and  O_51
   14  A    between atoms: S_35  and  N_56
   15  A    between atoms: C_38  and  C_39
   16  A    between atoms: C_43  and  O_47
   17  A    between atoms: O_51  and  C_53
                            x       y       z     vdW  Elec       q    Type
                         _______ _______ _______ _____ _____    ______ ____

>  <TORSDO>
F 17

$$$$
=
 OpenBabel10222420573D

 56 60  0  0  1  0  0  0  0  0999 V2000
  184.2910  177.7970  137.3100 C   0  0  0  0  0  3  0  0  0  0  0  0
  184.8590  177.3490  136.0120 C   0  0  0  0  0  2  0  0  0  0  0  0
  186.9360  176.3380  136.8800 C   0  0  0  0  0  3  0  0  0  0  0  0
  185.0390  178.2560  138.3180 C   0  0  0  0  0  0  0  0  0  0  0  0
  185.7880  176.1880  136.2130 C   0  0  0  0  0  0  0  0  0  0  0  0
  186.5100  178.3960  138.2230 C   0  0  0  0  0  3  0  0  0  0  0  0
  187.3590  177.5860  137.5550 C   0  0  0  0  0  0  0  0  0  0  0  0
  182.1050  173.5710  136.5670 C   0  0  0  0  0  0  0  0  0  0  0  0
  185.7320  173.2910  137.6950 C   0  0  0  0  0  2  0  0  0  0  0  0
  182.0010  173.7860  135.2940 N   0  0  0  0  0  0  0  0  0  0  0  0
  183.1940  174.3390  134.8210 N   0  0  0  0  0  0  0  0  0  0  0  0
  186.2860  173.7320  136.3290 C   0  0  0  0  0  2  0  0  0  0  0  0
  184.2670  172.8620  137.5900 C   0  0  0  0  0  2  0  0  0  0  0  0
  185.4490  174.8360  135.6680 C   0  0  1  0  0  3  0  0  0  0  0  0
  183.9960  174.5130  135.8170 C   0  0  0  0  0  0  0  0  0  0  0  0
  183.4200  174.0270  137.0990 C   0  0  1  0  0  3  0  0  0  0  0  0
  180.9870  173.0400  137.3880 C   0  0  0  0  0  2  0  0  0  0  0  0
  180.0100  174.0210  137.5540 O   0  0  0  0  0  0  0  0  0  0  0  0
  179.6730  173.9800  138.9100 C   0  0  0  0  0  2  0  0  0  0  0  0
  180.2690  175.1800  139.6260 C   0  0  0  0  0  2  0  0  0  0  0  0
  179.7170  176.4110  139.0860 N   0  0  0  0  0  2  0  0  0  0  0  0
  180.7750  177.4120  139.1370 C   0  0  1  0  0  3  0  0  0  0  0  0
  180.8850  178.1170  137.7980 C   0  0  0  0  0  1  0  0  0  0  0  0
  181.1940  178.6240  143.9670 C   0  0  0  0  0  1  0  0  0  0  0  0
  180.0520  180.1680  142.3650 C   0  0  0  0  0  3  0  0  0  0  0  0
  179.8380  179.5940  140.0200 C   0  0  0  0  0  3  0  0  0  0  0  0
  179.6090  180.4850  141.0760 C   0  0  0  0  0  3  0  0  0  0  0  0
  180.9500  178.0690  141.5410 C   0  0  0  0  0  3  0  0  0  0  0  0
  180.7220  178.9600  142.5960 C   0  0  0  0  0  0  0  0  0  0  0  0
  180.5160  178.3830  140.2510 C   0  0  0  0  0  0  0  0  0  0  0  0
  188.8270  177.9260  137.4950 C   0  0  2  0  0  3  0  0  0  0  0  0
  189.0530  179.3630  137.5600 N   0  0  0  0  0  1  0  0  0  0  0  0
  190.1830  175.6960  138.6250 O   0  0  0  0  0  0  0  0  0  0  0  0
  190.5420  176.3520  136.3990 N   0  0  0  0  0  2  0  0  0  0  0  0
  189.5060  177.3380  136.2720 C   0  0  0  0  0  0  0  0  0  0  0  0
  189.1690  177.7050  135.1040 O   0  0  0  0  0  0  0  0  0  0  0  0
  190.9010  175.6310  137.5880 C   0  0  0  0  0  0  0  0  0  0  0  0
  192.0280  174.8050  137.6030 O   0  0  0  0  0  0  0  0  0  0  0  0
  193.2710  175.2230  137.0520 C   0  0  0  0  0  2  0  0  0  0  0  0
  194.7880  175.4390  138.8850 O   0  0  0  0  0  1  0  0  0  0  0  0
  194.4400  174.6130  137.8170 C   0  0  2  0  0  3  0  0  0  0  0  0
  196.1250  175.6330  136.4720 O   0  0  0  0  0  1  0  0  0  0  0  0
  195.6460  174.4030  136.9200 C   0  0  0  0  0  2  0  0  0  0  0  0
  184.3640  178.8420  139.5230 C   0  0  0  0  0  2  0  0  0  0  0  0
  186.6030  178.3480  140.6980 C   0  0  0  0  0  3  0  0  0  0  0  0
  185.1390  178.5970  140.7740 C   0  0  0  0  0  0  0  0  0  0  0  0
  184.5020  178.5970  141.9540 C   0  0  0  0  0  3  0  0  0  0  0  0
  184.6190  178.2540  144.2950 O   0  0  0  0  0  0  0  0  0  0  0  0
  185.2400  178.3090  143.2010 C   0  0  0  0  0  0  0  0  0  0  0  0
  186.6940  178.0480  143.1330 C   0  0  0  0  0  0  0  0  0  0  0  0
  187.3350  178.0910  141.8030 C   0  0  0  0  0  3  0  0  0  0  0  0
  187.3610  177.8100  144.2290 N   0  0  0  0  0  0  0  0  0  0  0  0
  189.8150  178.6270  143.7170 O   0  0  0  0  0  0  0  0  0  0  0  0
  189.5230  177.3880  146.0950 C   0  0  0  0  0  1  0  0  0  0  0  0
  189.4470  176.2080  143.6710 O   0  0  0  0  0  0  0  0  0  0  0  0
  189.0660  177.4900  144.3620 S   0  0  0  0  0  0  0  0  0  0  0  0
  1  4  2  0  0  0  0
  2  5  1  0  0  0  0
  2  1  1  0  0  0  0
  3  7  1  0  0  0  0
  4 44  1  0  0  0  0
  5  3  2  0  0  0  0
  6  4  1  0  0  0  0
  7  6  2  0  0  0  0
  8 16  1  0  0  0  0
  8 17  1  0  0  0  0
 10  8  2  0  0  0  0
 11 10  1  0  0  0  0
 11 15  2  0  0  0  0
 12  9  1  0  0  0  0
 13  9  1  0  0  0  0
 14 15  1  0  0  0  0
 14  5  1  1  0  0  0
 14 12  1  0  0  0  0
 15 16  1  0  0  0  0
 16 13  1  6  0  0  0
 17 18  1  0  0  0  0
 18 19  1  0  0  0  0
 19 20  1  0  0  0  0
 21 22  1  0  0  0  0
 21 20  1  0  0  0  0
 22 23  1  6  0  0  0
 22 30  1  0  0  0  0
 25 29  1  0  0  0  0
 26 30  2  0  0  0  0
 26 27  1  0  0  0  0
 27 25  2  0  0  0  0
 28 29  2  0  0  0  0
 29 24  1  0  0  0  0
 30 28  1  0  0  0  0
 31  7  1  0  0  0  0
 31 32  1  6  0  0  0
 34 37  1  0  0  0  0
 35 34  1  0  0  0  0
 35 31  1  0  0  0  0
 36 35  2  0  0  0  0
 37 38  1  0  0  0  0
 37 33  2  0  0  0  0
 39 38  1  0  0  0  0
 39 41  1  0  0  0  0
 41 40  1  1  0  0  0
 42 43  1  0  0  0  0
 43 41  1  0  0  0  0
 44 46  1  0  0  0  0
 45 46  1  0  0  0  0
 45 51  2  0  0  0  0
 46 47  2  0  0  0  0
 47 49  1  0  0  0  0
 49 48  2  0  0  0  0
 50 49  1  0  0  0  0
 50 52  2  0  0  0  0
 51 50  1  0  0  0  0
 52 56  1  0  0  0  0
 53 56  2  0  0  0  0
 55 56  2  0  0  0  0
 56 54  1  0  0  0  0
M  END
>  <MODEL>
6

>  <REMARK>
 VINA RESULT:      -7.4      2.940      8.069
  Name = 
  17 active torsions:
  status: ('A' for Active; 'I' for Inactive)
    1  A    between atoms: C_5  and  C_43
    2  A    between atoms: C_7  and  N_32
    3  A    between atoms: C_7  and  C_52
    4  A    between atoms: C_9  and  C_34
    5  A    between atoms: C_9  and  C_48
    6  A    between atoms: C_17  and  C_33
    7  A    between atoms: C_17  and  C_46
    8  A    between atoms: C_18  and  C_55
    9  A    between atoms: C_25  and  C_44
   10  A    between atoms: C_25  and  O_47
   11  A    between atoms: C_27  and  C_55
   12  A    between atoms: N_32  and  C_44
   13  A    between atoms: C_34  and  O_51
   14  A    between atoms: S_35  and  N_56
   15  A    between atoms: C_38  and  C_39
   16  A    between atoms: C_43  and  O_47
   17  A    between atoms: O_51  and  C_53
                            x       y       z     vdW  Elec       q    Type
                         _______ _______ _______ _____ _____    ______ ____

>  <TORSDO>
F 17

$$$$
=
 OpenBabel10222420573D

 56 60  0  0  1  0  0  0  0  0999 V2000
  188.0020  174.7500  137.1560 C   0  0  0  0  0  3  0  0  0  0  0  0
  188.8870  175.5240  138.0660 C   0  0  0  0  0  2  0  0  0  0  0  0
  190.4610  176.3760  136.3660 C   0  0  0  0  0  3  0  0  0  0  0  0
  188.4510  174.0890  136.0840 C   0  0  0  0  0  0  0  0  0  0  0  0
  189.5670  176.6380  137.3230 C   0  0  0  0  0  0  0  0  0  0  0  0
  189.8850  174.0370  135.7190 C   0  0  0  0  0  3  0  0  0  0  0  0
  190.7980  175.0190  135.8780 C   0  0  0  0  0  0  0  0  0  0  0  0
  186.3940  178.5880  139.9060 C   0  0  0  0  0  0  0  0  0  0  0  0
  187.2060  178.5660  136.1850 C   0  0  0  0  0  2  0  0  0  0  0  0
  187.4060  178.9540  140.6280 N   0  0  0  0  0  0  0  0  0  0  0  0
  188.5850  178.7450  139.9090 N   0  0  0  0  0  0  0  0  0  0  0  0
  188.7060  178.8140  136.4190 C   0  0  0  0  0  2  0  0  0  0  0  0
  186.3860  178.9050  137.4320 C   0  0  0  0  0  2  0  0  0  0  0  0
  189.2570  178.0670  137.6410 C   0  0  1  0  0  3  0  0  0  0  0  0
  188.2920  178.1980  138.7770 C   0  0  0  0  0  0  0  0  0  0  0  0
  186.8250  178.0280  138.5950 C   0  0  1  0  0  3  0  0  0  0  0  0
  184.9950  178.6280  140.4020 C   0  0  0  0  0  2  0  0  0  0  0  0
  184.8770  177.8580  141.5580 O   0  0  0  0  0  0  0  0  0  0  0  0
  184.3560  178.7230  142.5250 C   0  0  0  0  0  2  0  0  0  0  0  0
  184.8190  178.2920  143.9060 C   0  0  0  0  0  2  0  0  0  0  0  0
  186.2220  178.6200  144.0890 N   0  0  0  0  0  2  0  0  0  0  0  0
  186.9120  177.3790  144.4200 C   0  0  1  0  0  3  0  0  0  0  0  0
  187.8350  176.9810  143.2840 C   0  0  0  0  0  1  0  0  0  0  0  0
  191.1140  176.7480  147.0510 C   0  0  0  0  0  1  0  0  0  0  0  0
  189.1000  177.7920  148.1050 C   0  0  0  0  0  3  0  0  0  0  0  0
  187.0540  178.1020  146.8440 C   0  0  0  0  0  3  0  0  0  0  0  0
  187.7740  178.2330  148.0380 C   0  0  0  0  0  3  0  0  0  0  0  0
  188.9830  177.0850  145.7860 C   0  0  0  0  0  3  0  0  0  0  0  0
  189.7020  177.2170  146.9790 C   0  0  0  0  0  0  0  0  0  0  0  0
  187.6610  177.5300  145.7110 C   0  0  0  0  0  0  0  0  0  0  0  0
  192.2420  174.7640  135.5260 C   0  0  2  0  0  3  0  0  0  0  0  0
  192.4030  173.5390  134.7550 N   0  0  0  0  0  1  0  0  0  0  0  0
  194.2570  176.6270  134.7790 O   0  0  0  0  0  0  0  0  0  0  0  0
  194.4530  175.3190  136.7190 N   0  0  0  0  0  2  0  0  0  0  0  0
  193.1390  174.7400  136.7490 C   0  0  0  0  0  0  0  0  0  0  0  0
  192.7440  174.2090  137.8330 O   0  0  0  0  0  0  0  0  0  0  0  0
  194.9940  176.1680  135.6960 C   0  0  0  0  0  0  0  0  0  0  0  0
  196.3410  176.5410  135.7230 O   0  0  0  0  0  0  0  0  0  0  0  0
  197.3110  175.9080  134.8970 C   0  0  0  0  0  2  0  0  0  0  0  0
  197.2460  173.5600  135.3370 O   0  0  0  0  0  1  0  0  0  0  0  0
  197.9540  174.7280  135.6170 C   0  0  2  0  0  3  0  0  0  0  0  0
  199.1800  174.4170  137.6380 O   0  0  0  0  0  1  0  0  0  0  0  0
  198.0020  174.9480  137.1180 C   0  0  0  0  0  2  0  0  0  0  0  0
  187.5100  173.2000  135.3250 C   0  0  0  0  0  2  0  0  0  0  0  0
  185.4970  174.6530  136.0160 C   0  0  0  0  0  3  0  0  0  0  0  0
  186.1090  173.3110  135.8250 C   0  0  0  0  0  0  0  0  0  0  0  0
  185.4200  172.1950  136.1030 C   0  0  0  0  0  3  0  0  0  0  0  0
  183.4340  171.2260  136.9580 O   0  0  0  0  0  0  0  0  0  0  0  0
  184.0490  172.2800  136.6450 C   0  0  0  0  0  0  0  0  0  0  0  0
  183.4370  173.6110  136.8500 C   0  0  0  0  0  0  0  0  0  0  0  0
  184.2440  174.7970  136.4950 C   0  0  0  0  0  3  0  0  0  0  0  0
  182.2190  173.6990  137.3110 N   0  0  0  0  0  0  0  0  0  0  0  0
  182.0670  175.9710  138.6420 O   0  0  0  0  0  0  0  0  0  0  0  0
  181.1970  176.1090  136.0930 C   0  0  0  0  0  1  0  0  0  0  0  0
  179.9420  174.8690  138.1320 O   0  0  0  0  0  0  0  0  0  0  0  0
  181.3240  175.1610  137.6120 S   0  0  0  0  0  0  0  0  0  0  0  0
  1  2  1  0  0  0  0
  3  5  2  0  0  0  0
  4  1  2  0  0  0  0
  5  2  1  0  0  0  0
  6  7  2  0  0  0  0
  6  4  1  0  0  0  0
  7  3  1  0  0  0  0
  8 17  1  0  0  0  0
  8 10  2  0  0  0  0
  9 12  1  0  0  0  0
  9 13  1  0  0  0  0
 11 10  1  0  0  0  0
 12 14  1  0  0  0  0
 14  5  1  6  0  0  0
 14 15  1  0  0  0  0
 15 11  2  0  0  0  0
 16 13  1  6  0  0  0
 16 15  1  0  0  0  0
 16  8  1  0  0  0  0
 17 18  1  0  0  0  0
 18 19  1  0  0  0  0
 19 20  1  0  0  0  0
 20 21  1  0  0  0  0
 21 22  1  0  0  0  0
 22 23  1  6  0  0  0
 22 30  1  0  0  0  0
 26 27  2  0  0  0  0
 27 25  1  0  0  0  0
 28 29  1  0  0  0  0
 29 24  1  0  0  0  0
 29 25  2  0  0  0  0
 30 28  2  0  0  0  0
 30 26  1  0  0  0  0
 31 32  1  1  0  0  0
 31  7  1  0  0  0  0
 31 35  1  0  0  0  0
 33 37  2  0  0  0  0
 34 35  1  0  0  0  0
 35 36  2  0  0  0  0
 37 38  1  0  0  0  0
 37 34  1  0  0  0  0
 39 41  1  0  0  0  0
 39 38  1  0  0  0  0
 41 40  1  1  0  0  0
 41 43  1  0  0  0  0
 43 42  1  0  0  0  0
 44 46  1  0  0  0  0
 44  4  1  0  0  0  0
 45 51  2  0  0  0  0
 46 45  1  0  0  0  0
 46 47  2  0  0  0  0
 47 49  1  0  0  0  0
 49 50  1  0  0  0  0
 49 48  2  0  0  0  0
 50 52  2  0  0  0  0
 51 50  1  0  0  0  0
 52 56  1  0  0  0  0
 54 56  1  0  0  0  0
 56 55  2  0  0  0  0
 56 53  2  0  0  0  0
M  END
>  <MODEL>
7

>  <REMARK>
 VINA RESULT:      -7.2      2.817      5.287
  Name = 
  17 active torsions:
  status: ('A' for Active; 'I' for Inactive)
    1  A    between atoms: C_5  and  C_43
    2  A    between atoms: C_7  and  N_32
    3  A    between atoms: C_7  and  C_52
    4  A    between atoms: C_9  and  C_34
    5  A    between atoms: C_9  and  C_48
    6  A    between atoms: C_17  and  C_33
    7  A    between atoms: C_17  and  C_46
    8  A    between atoms: C_18  and  C_55
    9  A    between atoms: C_25  and  C_44
   10  A    between atoms: C_25  and  O_47
   11  A    between atoms: C_27  and  C_55
   12  A    between atoms: N_32  and  C_44
   13  A    between atoms: C_34  and  O_51
   14  A    between atoms: S_35  and  N_56
   15  A    between atoms: C_38  and  C_39
   16  A    between atoms: C_43  and  O_47
   17  A    between atoms: O_51  and  C_53
                            x       y       z     vdW  Elec       q    Type
                         _______ _______ _______ _____ _____    ______ ____

>  <TORSDO>
F 17

$$$$
=
 OpenBabel10222420573D

 56 60  0  0  1  0  0  0  0  0999 V2000
  183.7700  177.5960  138.9180 C   0  0  0  0  0  3  0  0  0  0  0  0
  183.0550  176.7520  139.9120 C   0  0  0  0  0  2  0  0  0  0  0  0
  182.6640  178.4920  141.6180 C   0  0  0  0  0  3  0  0  0  0  0  0
  184.6090  178.5790  139.2600 C   0  0  0  0  0  0  0  0  0  0  0  0
  182.1560  177.5920  140.7710 C   0  0  0  0  0  0  0  0  0  0  0  0
  184.9340  178.8980  140.6690 C   0  0  0  0  0  3  0  0  0  0  0  0
  184.1030  178.8220  141.7300 C   0  0  0  0  0  0  0  0  0  0  0  0
  179.4590  175.0420  138.1700 C   0  0  0  0  0  0  0  0  0  0  0  0
  180.0350  178.7810  138.6090 C   0  0  0  0  0  2  0  0  0  0  0  0
  179.1700  174.4550  139.2890 N   0  0  0  0  0  0  0  0  0  0  0  0
  179.6380  175.2310  140.3520 N   0  0  0  0  0  0  0  0  0  0  0  0
  179.9940  178.7000  140.1450 C   0  0  0  0  0  2  0  0  0  0  0  0
  179.4330  177.5290  137.9690 C   0  0  0  0  0  2  0  0  0  0  0  0
  180.6690  177.4380  140.6990 C   0  0  1  0  0  3  0  0  0  0  0  0
  180.2620  176.2560  139.8760 C   0  0  0  0  0  0  0  0  0  0  0  0
  180.2260  176.3000  138.3900 C   0  0  1  0  0  3  0  0  0  0  0  0
  179.1480  174.4490  136.8460 C   0  0  0  0  0  2  0  0  0  0  0  0
  180.3180  173.9840  136.2460 O   0  0  0  0  0  0  0  0  0  0  0  0
  179.9930  172.7240  135.7320 C   0  0  0  0  0  2  0  0  0  0  0  0
  181.1290  171.7510  135.9970 C   0  0  0  0  0  2  0  0  0  0  0  0
  181.8260  172.1140  137.2190 N   0  0  0  0  0  2  0  0  0  0  0  0
  183.1580  171.5280  137.1410 C   0  0  1  0  0  3  0  0  0  0  0  0
  183.2590  170.6300  135.9220 C   0  0  0  0  0  1  0  0  0  0  0  0
  187.9660  172.8600  136.8430 C   0  0  0  0  0  1  0  0  0  0  0  0
  186.1790  174.5960  137.0680 C   0  0  0  0  0  3  0  0  0  0  0  0
  183.8430  173.9660  137.2160 C   0  0  0  0  0  3  0  0  0  0  0  0
  184.8330  174.9570  137.1900 C   0  0  0  0  0  3  0  0  0  0  0  0
  185.5450  172.2530  137.0010 C   0  0  0  0  0  3  0  0  0  0  0  0
  186.5340  173.2440  136.9740 C   0  0  0  0  0  0  0  0  0  0  0  0
  184.1990  172.6090  137.1160 C   0  0  0  0  0  0  0  0  0  0  0  0
  184.6280  179.1080  143.1140 C   0  0  2  0  0  3  0  0  0  0  0  0
  185.0730  180.4880  143.2520 N   0  0  0  0  0  1  0  0  0  0  0  0
  184.1610  178.8620  145.9090 O   0  0  0  0  0  0  0  0  0  0  0  0
  186.0760  177.9520  144.9000 N   0  0  0  0  0  2  0  0  0  0  0  0
  185.7350  178.1530  143.5200 C   0  0  0  0  0  0  0  0  0  0  0  0
  186.3850  177.5030  142.6430 O   0  0  0  0  0  0  0  0  0  0  0  0
  185.3250  178.3890  146.0430 C   0  0  0  0  0  0  0  0  0  0  0  0
  185.8490  178.2540  147.3310 O   0  0  0  0  0  0  0  0  0  0  0  0
  187.0750  178.8700  147.7100 C   0  0  0  0  0  2  0  0  0  0  0  0
  189.1320  178.4590  148.8540 O   0  0  0  0  0  1  0  0  0  0  0  0
  188.0870  177.8310  148.1770 C   0  0  2  0  0  3  0  0  0  0  0  0
  189.2870  177.8760  146.1170 O   0  0  0  0  0  1  0  0  0  0  0  0
  188.6410  177.0280  147.0150 C   0  0  0  0  0  2  0  0  0  0  0  0
  185.4100  179.2620  138.1920 C   0  0  0  0  0  2  0  0  0  0  0  0
  187.5150  177.9330  138.8590 C   0  0  0  0  0  3  0  0  0  0  0  0
  186.6150  178.4720  137.8050 C   0  0  0  0  0  0  0  0  0  0  0  0
  186.8740  178.2620  136.5060 C   0  0  0  0  0  3  0  0  0  0  0  0
  188.3500  177.3850  134.8730 O   0  0  0  0  0  0  0  0  0  0  0  0
  188.0870  177.5240  136.0960 C   0  0  0  0  0  0  0  0  0  0  0  0
  188.9940  176.9960  137.1380 C   0  0  0  0  0  0  0  0  0  0  0  0
  188.6310  177.2400  138.5490 C   0  0  0  0  0  3  0  0  0  0  0  0
  190.0590  176.3260  136.7900 N   0  0  0  0  0  0  0  0  0  0  0  0
  191.2410  174.1280  137.6430 O   0  0  0  0  0  0  0  0  0  0  0  0
  192.8650  176.2750  137.4670 C   0  0  0  0  0  1  0  0  0  0  0  0
  190.9220  175.9000  139.3000 O   0  0  0  0  0  0  0  0  0  0  0  0
  191.2390  175.6200  137.8560 S   0  0  0  0  0  0  0  0  0  0  0  0
  1  4  2  0  0  0  0
  1  2  1  0  0  0  0
  2  5  1  0  0  0  0
  3  7  1  0  0  0  0
  4  6  1  0  0  0  0
  5  3  2  0  0  0  0
  6  7  2  0  0  0  0
  7 31  1  0  0  0  0
  8 16  1  0  0  0  0
  8 10  2  0  0  0  0
  9 12  1  0  0  0  0
 10 11  1  0  0  0  0
 12 14  1  0  0  0  0
 13  9  1  0  0  0  0
 14  5  1  6  0  0  0
 15 11  2  0  0  0  0
 15 14  1  0  0  0  0
 16 13  1  1  0  0  0
 16 15  1  0  0  0  0
 17  8  1  0  0  0  0
 18 17  1  0  0  0  0
 19 20  1  0  0  0  0
 19 18  1  0  0  0  0
 20 21  1  0  0  0  0
 22 23  1  6  0  0  0
 22 21  1  0  0  0  0
 24 29  1  0  0  0  0
 25 27  1  0  0  0  0
 27 26  2  0  0  0  0
 28 30  2  0  0  0  0
 29 28  1  0  0  0  0
 29 25  2  0  0  0  0
 30 22  1  0  0  0  0
 30 26  1  0  0  0  0
 31 32  1  6  0  0  0
 31 35  1  0  0  0  0
 33 37  2  0  0  0  0
 34 37  1  0  0  0  0
 35 34  1  0  0  0  0
 36 35  2  0  0  0  0
 37 38  1  0  0  0  0
 38 39  1  0  0  0  0
 39 41  1  0  0  0  0
 41 40  1  6  0  0  0
 42 43  1  0  0  0  0
 43 41  1  0  0  0  0
 44  4  1  0  0  0  0
 46 44  1  0  0  0  0
 46 45  1  0  0  0  0
 47 46  2  0  0  0  0
 48 49  2  0  0  0  0
 49 47  1  0  0  0  0
 49 50  1  0  0  0  0
 50 51  1  0  0  0  0
 51 45  2  0  0  0  0
 52 50  2  0  0  0  0
 52 56  1  0  0  0  0
 53 56  2  0  0  0  0
 54 56  1  0  0  0  0
 56 55  2  0  0  0  0
M  END
>  <MODEL>
8

>  <REMARK>
 VINA RESULT:      -7.1      3.419     10.523
  Name = 
  17 active torsions:
  status: ('A' for Active; 'I' for Inactive)
    1  A    between atoms: C_5  and  C_43
    2  A    between atoms: C_7  and  N_32
    3  A    between atoms: C_7  and  C_52
    4  A    between atoms: C_9  and  C_34
    5  A    between atoms: C_9  and  C_48
    6  A    between atoms: C_17  and  C_33
    7  A    between atoms: C_17  and  C_46
    8  A    between atoms: C_18  and  C_55
    9  A    between atoms: C_25  and  C_44
   10  A    between atoms: C_25  and  O_47
   11  A    between atoms: C_27  and  C_55
   12  A    between atoms: N_32  and  C_44
   13  A    between atoms: C_34  and  O_51
   14  A    between atoms: S_35  and  N_56
   15  A    between atoms: C_38  and  C_39
   16  A    between atoms: C_43  and  O_47
   17  A    between atoms: O_51  and  C_53
                            x       y       z     vdW  Elec       q    Type
                         _______ _______ _______ _____ _____    ______ ____

>  <TORSDO>
F 17

$$$$
=
 OpenBabel10222420573D

 56 60  0  0  1  0  0  0  0  0999 V2000
  191.0730  175.2070  136.3430 C   0  0  0  0  0  3  0  0  0  0  0  0
  189.6750  174.8580  136.7090 C   0  0  0  0  0  2  0  0  0  0  0  0
  189.1390  176.9000  137.9880 C   0  0  0  0  0  3  0  0  0  0  0  0
  191.8970  175.8780  137.1530 C   0  0  0  0  0  0  0  0  0  0  0  0
  188.8670  176.0990  136.9540 C   0  0  0  0  0  0  0  0  0  0  0  0
  191.5040  176.3090  138.5140 C   0  0  0  0  0  3  0  0  0  0  0  0
  190.2820  176.7200  138.9120 C   0  0  0  0  0  0  0  0  0  0  0  0
  184.3640  175.8570  137.4070 C   0  0  0  0  0  0  0  0  0  0  0  0
  186.9410  174.1980  135.1470 C   0  0  0  0  0  2  0  0  0  0  0  0
  184.4300  177.1500  137.3620 N   0  0  0  0  0  0  0  0  0  0  0  0
  185.6980  177.5320  136.9200 N   0  0  0  0  0  0  0  0  0  0  0  0
  187.6540  175.5250  134.8340 C   0  0  0  0  0  2  0  0  0  0  0  0
  185.5480  174.4400  135.7300 C   0  0  0  0  0  2  0  0  0  0  0  0
  187.7350  176.4650  136.0450 C   0  0  1  0  0  3  0  0  0  0  0  0
  186.4180  176.4730  136.7540 C   0  0  0  0  0  0  0  0  0  0  0  0
  185.6580  175.2240  137.0290 C   0  0  1  0  0  3  0  0  0  0  0  0
  183.1640  175.1280  137.8930 C   0  0  0  0  0  2  0  0  0  0  0  0
  182.1810  176.0370  138.2840 O   0  0  0  0  0  0  0  0  0  0  0  0
  182.1390  175.9560  139.6790 C   0  0  0  0  0  2  0  0  0  0  0  0
  181.6040  177.2560  140.2550 C   0  0  0  0  0  2  0  0  0  0  0  0
  182.6970  178.1810  140.5030 N   0  0  0  0  0  2  0  0  0  0  0  0
  182.3000  179.0180  141.6280 C   0  0  1  0  0  3  0  0  0  0  0  0
  180.8780  178.6900  142.0420 C   0  0  0  0  0  1  0  0  0  0  0  0
  186.8370  177.7040  143.2630 C   0  0  0  0  0  1  0  0  0  0  0  0
  185.0880  178.4940  144.8680 C   0  0  0  0  0  3  0  0  0  0  0  0
  182.8830  179.1320  144.0910 C   0  0  0  0  0  3  0  0  0  0  0  0
  183.7970  178.9590  145.1390 C   0  0  0  0  0  3  0  0  0  0  0  0
  184.5490  178.3700  142.5040 C   0  0  0  0  0  3  0  0  0  0  0  0
  185.4620  178.1990  143.5510 C   0  0  0  0  0  0  0  0  0  0  0  0
  183.2600  178.8410  142.7680 C   0  0  0  0  0  0  0  0  0  0  0  0
  190.0380  177.0450  140.3650 C   0  0  2  0  0  3  0  0  0  0  0  0
  189.0670  178.1190  140.5240 N   0  0  0  0  0  1  0  0  0  0  0  0
  189.6420  175.6680  142.8220 O   0  0  0  0  0  0  0  0  0  0  0  0
  191.4520  177.1320  142.5130 N   0  0  0  0  0  2  0  0  0  0  0  0
  191.3200  177.3790  141.1050 C   0  0  0  0  0  0  0  0  0  0  0  0
  192.3110  177.8820  140.4900 O   0  0  0  0  0  0  0  0  0  0  0  0
  190.5640  176.3610  143.3370 C   0  0  0  0  0  0  0  0  0  0  0  0
  190.7340  176.3260  144.7230 O   0  0  0  0  0  0  0  0  0  0  0  0
  190.1970  177.3340  145.5710 C   0  0  0  0  0  2  0  0  0  0  0  0
  189.5200  177.8230  147.8100 O   0  0  0  0  0  1  0  0  0  0  0  0
  189.9450  176.7920  146.9720 C   0  0  2  0  0  3  0  0  0  0  0  0
  192.0590  177.1240  148.0240 O   0  0  0  0  0  1  0  0  0  0  0  0
  191.1890  176.1440  147.5530 C   0  0  0  0  0  2  0  0  0  0  0  0
  193.3380  176.0340  136.7650 C   0  0  0  0  0  2  0  0  0  0  0  0
  195.5080  174.6460  136.7120 C   0  0  0  0  0  3  0  0  0  0  0  0
  194.0250  174.7180  136.6230 C   0  0  0  0  0  0  0  0  0  0  0  0
  193.2940  173.6140  136.4090 C   0  0  0  0  0  3  0  0  0  0  0  0
  193.2610  171.2890  135.9570 O   0  0  0  0  0  0  0  0  0  0  0  0
  193.9550  172.3070  136.2160 C   0  0  0  0  0  0  0  0  0  0  0  0
  195.4300  172.2280  136.2910 C   0  0  0  0  0  0  0  0  0  0  0  0
  196.1700  173.4790  136.5570 C   0  0  0  0  0  3  0  0  0  0  0  0
  196.0250  171.0770  136.1410 N   0  0  0  0  0  0  0  0  0  0  0  0
  198.0650  170.1560  137.5360 O   0  0  0  0  0  0  0  0  0  0  0  0
  198.1910  169.6290  134.8940 C   0  0  0  0  0  1  0  0  0  0  0  0
  198.5330  172.0430  136.0490 O   0  0  0  0  0  0  0  0  0  0  0  0
  197.7380  170.7740  136.2010 S   0  0  0  0  0  0  0  0  0  0  0  0
  1  2  1  0  0  0  0
  1  4  2  0  0  0  0
  2  5  1  0  0  0  0
  3  7  1  0  0  0  0
  4  6  1  0  0  0  0
  5  3  2  0  0  0  0
  6  7  2  0  0  0  0
  7 31  1  0  0  0  0
  8 17  1  0  0  0  0
  9 13  1  0  0  0  0
 10  8  2  0  0  0  0
 11 10  1  0  0  0  0
 12  9  1  0  0  0  0
 12 14  1  0  0  0  0
 14 15  1  0  0  0  0
 14  5  1  1  0  0  0
 15 11  2  0  0  0  0
 15 16  1  0  0  0  0
 16 13  1  6  0  0  0
 16  8  1  0  0  0  0
 17 18  1  0  0  0  0
 18 19  1  0  0  0  0
 19 20  1  0  0  0  0
 20 21  1  0  0  0  0
 21 22  1  0  0  0  0
 22 23  1  1  0  0  0
 22 30  1  0  0  0  0
 24 29  1  0  0  0  0
 25 27  1  0  0  0  0
 26 27  2  0  0  0  0
 28 30  2  0  0  0  0
 28 29  1  0  0  0  0
 29 25  2  0  0  0  0
 30 26  1  0  0  0  0
 31 32  1  6  0  0  0
 31 35  1  0  0  0  0
 33 37  2  0  0  0  0
 34 37  1  0  0  0  0
 35 34  1  0  0  0  0
 36 35  2  0  0  0  0
 37 38  1  0  0  0  0
 38 39  1  0  0  0  0
 39 41  1  0  0  0  0
 41 43  1  0  0  0  0
 41 40  1  1  0  0  0
 43 42  1  0  0  0  0
 44  4  1  0  0  0  0
 46 45  1  0  0  0  0
 46 44  1  0  0  0  0
 47 46  2  0  0  0  0
 48 49  2  0  0  0  0
 49 50  1  0  0  0  0
 49 47  1  0  0  0  0
 50 51  1  0  0  0  0
 51 45  2  0  0  0  0
 52 56  1  0  0  0  0
 52 50  2  0  0  0  0
 54 56  1  0  0  0  0
 55 56  2  0  0  0  0
 56 53  2  0  0  0  0
M  END
>  <MODEL>
9

>  <REMARK>
 VINA RESULT:      -7.1      3.384      9.444
  Name = 
  17 active torsions:
  status: ('A' for Active; 'I' for Inactive)
    1  A    between atoms: C_5  and  C_43
    2  A    between atoms: C_7  and  N_32
    3  A    between atoms: C_7  and  C_52
    4  A    between atoms: C_9  and  C_34
    5  A    between atoms: C_9  and  C_48
    6  A    between atoms: C_17  and  C_33
    7  A    between atoms: C_17  and  C_46
    8  A    between atoms: C_18  and  C_55
    9  A    between atoms: C_25  and  C_44
   10  A    between atoms: C_25  and  O_47
   11  A    between atoms: C_27  and  C_55
   12  A    between atoms: N_32  and  C_44
   13  A    between atoms: C_34  and  O_51
   14  A    between atoms: S_35  and  N_56
   15  A    between atoms: C_38  and  C_39
   16  A    between atoms: C_43  and  O_47
   17  A    between atoms: O_51  and  C_53
                            x       y       z     vdW  Elec       q    Type
                         _______ _______ _______ _____ _____    ______ ____

>  <TORSDO>
F 17

$$$$
