=
 OpenBabel10222419033D

 50 55  0  0  1  0  0  0  0  0999 V2000
  190.3660  176.0570  138.5180 C   0  0  2  0  0  3  0  0  0  0  0  0
  189.7910  173.2600  136.1000 N   0  0  0  0  0  0  0  0  0  0  0  0
  187.7870  176.2050  138.3320 C   0  0  0  0  0  2  0  0  0  0  0  0
  188.8240  175.5710  136.1940 N   0  0  0  0  0  0  0  0  0  0  0  0
  189.1160  176.9310  138.2690 C   0  0  2  0  0  0  0  0  0  0  0  0
  189.6610  174.5370  136.7480 C   0  0  0  0  0  0  0  0  0  0  0  0
  191.6370  176.7920  138.1010 C   0  0  0  0  0  1  0  0  0  0  0  0
  188.5670  175.6030  134.7610 C   0  0  0  0  0  1  0  0  0  0  0  0
  190.3210  174.7650  137.8430 N   0  0  0  0  0  0  0  0  0  0  0  0
  188.3250  176.7010  136.9860 C   0  0  2  0  0  3  0  0  0  0  0  0
  187.3400  173.0140  135.8600 C   0  0  0  0  0  3  0  0  0  0  0  0
  187.6720  170.5440  134.5950 C   0  0  0  0  0  3  0  0  0  0  0  0
  186.2250  172.3090  135.3930 C   0  0  0  0  0  3  0  0  0  0  0  0
  186.3910  171.0750  134.7590 C   0  0  0  0  0  3  0  0  0  0  0  0
  188.7860  171.2480  135.0660 C   0  0  0  0  0  3  0  0  0  0  0  0
  188.6360  172.4890  135.7070 C   0  0  0  0  0  0  0  0  0  0  0  0
  189.0990  179.3120  138.1620 O   0  0  0  0  0  0  0  0  0  0  0  0
  189.0780  178.2980  138.9120 C   0  0  0  0  0  0  0  0  0  0  0  0
  188.9880  178.5110  140.3280 N   0  0  0  0  0  2  0  0  0  0  0  0
  188.8830  178.1130  146.4180 O   0  0  0  0  0  0  0  0  0  0  0  0
  186.6780  177.4500  145.8000 C   0  0  0  0  0  2  0  0  0  0  0  0
  188.1000  177.7970  145.4800 C   0  0  0  0  0  0  0  0  0  0  0  0
  186.0170  178.5630  146.5520 C   0  0  0  0  0  3  0  0  0  0  0  0
  183.8690  178.2510  145.3170 C   0  0  0  0  0  2  0  0  0  0  0  0
  190.1780  178.5810  142.4590 C   0  0  0  0  0  2  0  0  0  0  0  0
  183.7050  179.1410  144.0890 C   0  0  0  0  0  2  0  0  0  0  0  0
  185.4920  178.1630  142.8220 O   0  0  0  0  0  0  0  0  0  0  0  0
  186.8340  178.4200  142.5540 C   0  0  0  0  0  2  0  0  0  0  0  0
  184.7400  178.9100  146.3510 C   0  0  0  0  0  3  0  0  0  0  0  0
  188.5860  177.7350  144.1290 N   0  0  0  0  0  0  0  0  0  0  0  0
  187.7090  177.2700  143.0430 C   0  0  2  0  0  3  0  0  0  0  0  0
  188.5400  176.6910  141.8880 C   0  0  0  0  0  2  0  0  0  0  0  0
  190.0020  178.0040  143.8650 C   0  0  0  0  0  2  0  0  0  0  0  0
  185.0220  179.3630  143.3560 C   0  0  0  0  0  2  0  0  0  0  0  0
  189.5930  177.6790  141.3610 C   0  0  1  0  0  3  0  0  0  0  0  0
  191.1040  172.6200  136.1110 C   0  0  0  0  0  2  0  0  0  0  0  0
  191.8450  172.9210  134.8160 C   0  0  0  0  0  2  0  0  0  0  0  0
  192.5780  174.2430  134.9480 C   0  0  0  0  0  2  0  0  0  0  0  0
  195.4010  174.7270  137.4450 C   0  0  0  0  0  0  0  0  0  0  0  0
  196.5650  174.1490  136.6670 C   0  0  0  0  0  2  0  0  0  0  0  0
  196.1080  173.1610  135.6870 N   0  0  0  0  0  0  0  0  0  0  0  0
  194.1710  174.7250  136.9200 C   0  0  0  0  0  3  0  0  0  0  0  0
  194.8240  173.2890  135.0690 C   0  0  0  0  0  3  0  0  0  0  0  0
  193.9000  174.0800  135.6200 C   0  0  0  0  0  0  0  0  0  0  0  0
  197.0530  172.1950  135.1640 C   0  0  0  0  0  1  0  0  0  0  0  0
  195.5850  175.2420  138.7270 O   0  0  0  0  0  0  0  0  0  0  0  0
  196.3370  174.5490  139.7260 C   0  0  0  0  0  2  0  0  0  0  0  0
  197.5880  175.2960  140.0840 C   0  0  0  0  0  0  0  0  0  0  0  0
  198.0190  175.3590  141.5100 C   0  0  0  0  0  1  0  0  0  0  0  0
  198.2370  175.8850  139.2360 O   0  0  0  0  0  0  0  0  0  0  0  0
  1  7  1  6  0  0  0
  2 36  1  0  0  0  0
  2  6  1  0  0  0  0
  4  6  1  0  0  0  0
  4 10  1  0  0  0  0
  5  3  1  0  0  0  0
  5  1  1  0  0  0  0
  5 18  1  1  0  0  0
  6  9  2  0  0  0  0
  8  4  1  0  0  0  0
  9  1  1  0  0  0  0
 10  5  1  0  0  0  0
 10  3  1  1  0  0  0
 12 14  2  0  0  0  0
 12 15  1  0  0  0  0
 13 11  2  0  0  0  0
 14 13  1  0  0  0  0
 15 16  2  0  0  0  0
 16 11  1  0  0  0  0
 16  2  1  0  0  0  0
 17 18  2  0  0  0  0
 18 19  1  0  0  0  0
 21 23  1  0  0  0  0
 22 21  1  0  0  0  0
 22 20  2  0  0  0  0
 24 29  1  0  0  0  0
 25 33  1  0  0  0  0
 26 24  1  0  0  0  0
 27 34  1  0  0  0  0
 28 27  1  0  0  0  0
 28 31  1  0  0  0  0
 29 23  2  0  0  0  0
 30 22  1  0  0  0  0
 31 32  1  6  0  0  0
 31 30  1  0  0  0  0
 33 30  1  0  0  0  0
 34 26  1  0  0  0  0
 35 19  1  6  0  0  0
 35 32  1  0  0  0  0
 35 25  1  0  0  0  0
 37 38  1  0  0  0  0
 37 36  1  0  0  0  0
 38 44  1  0  0  0  0
 39 46  1  0  0  0  0
 40 39  1  0  0  0  0
 41 40  1  0  0  0  0
 42 39  2  0  0  0  0
 43 44  2  0  0  0  0
 43 41  1  0  0  0  0
 44 42  1  0  0  0  0
 45 41  1  0  0  0  0
 46 47  1  0  0  0  0
 47 48  1  0  0  0  0
 48 49  1  0  0  0  0
 50 48  2  0  0  0  0
M  END
>  <MODEL>
1

>  <REMARK>
 VINA RESULT:      -8.2      0.000      0.000
  Name = 
  10 active torsions:
  status: ('A' for Active; 'I' for Inactive)
    1  A    between atoms: C_2  and  C_7
    2  A    between atoms: C_2  and  O_42
    3  A    between atoms: C_5  and  O_42
    4  A    between atoms: C_9  and  C_44
    5  A    between atoms: C_9  and  C_50
    6  A    between atoms: N_10  and  C_26
    7  A    between atoms: N_10  and  C_38
    8  A    between atoms: C_22  and  C_30
    9  A    between atoms: C_26  and  C_50
   10  A    between atoms: C_47  and  N_49
                            x       y       z     vdW  Elec       q    Type
                         _______ _______ _______ _____ _____    ______ ____

>  <TORSDO>
F 10

$$$$
=
 OpenBabel10222419033D

 50 55  0  0  1  0  0  0  0  0999 V2000
  188.1000  178.7520  137.1860 C   0  0  2  0  0  3  0  0  0  0  0  0
  184.6240  177.8840  138.2660 N   0  0  0  0  0  0  0  0  0  0  0  0
  187.2940  177.5510  135.0370 C   0  0  0  0  0  2  0  0  0  0  0  0
  186.3550  176.5260  137.0650 N   0  0  0  0  0  0  0  0  0  0  0  0
  188.3580  177.6730  136.1100 C   0  0  2  0  0  0  0  0  0  0  0  0
  185.9220  177.7650  137.6590 C   0  0  0  0  0  0  0  0  0  0  0  0
  189.0300  178.5640  138.3810 C   0  0  0  0  0  1  0  0  0  0  0  0
  185.8040  175.2650  137.5410 C   0  0  0  0  0  1  0  0  0  0  0  0
  186.7200  178.7890  137.6590 N   0  0  0  0  0  0  0  0  0  0  0  0
  187.4490  176.4490  136.0900 C   0  0  2  0  0  3  0  0  0  0  0  0
  183.2780  177.7280  136.1950 C   0  0  0  0  0  3  0  0  0  0  0  0
  181.3050  176.2760  137.5400 C   0  0  0  0  0  3  0  0  0  0  0  0
  182.1580  177.2570  135.5020 C   0  0  0  0  0  3  0  0  0  0  0  0
  181.1720  176.5300  136.1730 C   0  0  0  0  0  3  0  0  0  0  0  0
  182.4230  176.7500  138.2340 C   0  0  0  0  0  3  0  0  0  0  0  0
  183.4230  177.4840  137.5730 C   0  0  0  0  0  0  0  0  0  0  0  0
  190.0980  178.2670  134.5940 O   0  0  0  0  0  0  0  0  0  0  0  0
  189.7640  177.5430  135.5700 C   0  0  0  0  0  0  0  0  0  0  0  0
  190.7510  176.6640  136.1250 N   0  0  0  0  0  2  0  0  0  0  0  0
  193.1780  171.0690  135.8380 O   0  0  0  0  0  0  0  0  0  0  0  0
  194.8680  172.3300  136.9510 C   0  0  0  0  0  2  0  0  0  0  0  0
  193.4880  172.1590  136.3930 C   0  0  0  0  0  0  0  0  0  0  0  0
  195.9000  172.0790  135.8950 C   0  0  0  0  0  3  0  0  0  0  0  0
  197.3400  173.9440  136.7250 C   0  0  0  0  0  2  0  0  0  0  0  0
  190.5060  174.2920  135.6010 C   0  0  0  0  0  2  0  0  0  0  0  0
  197.1180  175.2800  136.0240 C   0  0  0  0  0  2  0  0  0  0  0  0
  194.8740  175.6100  136.8050 O   0  0  0  0  0  0  0  0  0  0  0  0
  193.5760  175.4070  136.3450 C   0  0  0  0  0  2  0  0  0  0  0  0
  197.0290  172.7930  135.8080 C   0  0  0  0  0  3  0  0  0  0  0  0
  192.5090  173.2040  136.5220 N   0  0  0  0  0  0  0  0  0  0  0  0
  192.8290  174.4380  137.2560 C   0  0  2  0  0  3  0  0  0  0  0  0
  191.5500  175.0860  137.8060 C   0  0  0  0  0  2  0  0  0  0  0  0
  191.1460  172.9710  136.0350 C   0  0  0  0  0  2  0  0  0  0  0  0
  195.6570  175.5050  135.6560 C   0  0  0  0  0  2  0  0  0  0  0  0
  190.5020  175.3520  136.7120 C   0  0  1  0  0  3  0  0  0  0  0  0
  184.5110  178.6890  139.4800 C   0  0  0  0  0  2  0  0  0  0  0  0
  184.8780  177.8540  140.6980 C   0  0  0  0  0  2  0  0  0  0  0  0
  184.4920  178.6040  141.9610 C   0  0  0  0  0  2  0  0  0  0  0  0
  187.6270  177.4760  143.7890 C   0  0  0  0  0  0  0  0  0  0  0  0
  187.1140  177.4180  145.2140 C   0  0  0  0  0  2  0  0  0  0  0  0
  185.9840  178.3300  145.4070 N   0  0  0  0  0  0  0  0  0  0  0  0
  186.8200  177.8710  142.7980 C   0  0  0  0  0  3  0  0  0  0  0  0
  185.0840  178.6120  144.3300 C   0  0  0  0  0  3  0  0  0  0  0  0
  185.4510  178.3460  143.0750 C   0  0  0  0  0  0  0  0  0  0  0  0
  185.6370  178.7510  146.7490 C   0  0  0  0  0  1  0  0  0  0  0  0
  188.9490  177.1490  143.4940 O   0  0  0  0  0  0  0  0  0  0  0  0
  189.4500  177.1360  142.1560 C   0  0  0  0  0  2  0  0  0  0  0  0
  190.9500  177.0970  142.1350 C   0  0  0  0  0  0  0  0  0  0  0  0
  191.6730  177.4190  140.8710 C   0  0  0  0  0  1  0  0  0  0  0  0
  191.5870  176.7700  143.1220 O   0  0  0  0  0  0  0  0  0  0  0  0
  1  9  1  0  0  0  0
  1  7  1  1  0  0  0
  2 36  1  0  0  0  0
  3  5  1  0  0  0  0
  4  8  1  0  0  0  0
  4  6  1  0  0  0  0
  5 18  1  6  0  0  0
  5  1  1  0  0  0  0
  6  9  2  0  0  0  0
  6  2  1  0  0  0  0
 10  3  1  6  0  0  0
 10  5  1  0  0  0  0
 10  4  1  0  0  0  0
 11 16  1  0  0  0  0
 12 15  1  0  0  0  0
 13 14  1  0  0  0  0
 13 11  2  0  0  0  0
 14 12  2  0  0  0  0
 16 15  2  0  0  0  0
 16  2  1  0  0  0  0
 17 18  2  0  0  0  0
 18 19  1  0  0  0  0
 20 22  2  0  0  0  0
 22 30  1  0  0  0  0
 22 21  1  0  0  0  0
 23 21  1  0  0  0  0
 25 33  1  0  0  0  0
 25 35  1  0  0  0  0
 26 24  1  0  0  0  0
 28 27  1  0  0  0  0
 29 23  2  0  0  0  0
 29 24  1  0  0  0  0
 30 31  1  0  0  0  0
 31 28  1  6  0  0  0
 31 32  1  0  0  0  0
 33 30  1  0  0  0  0
 34 26  1  0  0  0  0
 34 27  1  0  0  0  0
 35 19  1  6  0  0  0
 35 32  1  0  0  0  0
 36 37  1  0  0  0  0
 37 38  1  0  0  0  0
 38 44  1  0  0  0  0
 39 40  1  0  0  0  0
 40 41  1  0  0  0  0
 41 45  1  0  0  0  0
 42 44  1  0  0  0  0
 42 39  2  0  0  0  0
 43 41  1  0  0  0  0
 44 43  2  0  0  0  0
 46 39  1  0  0  0  0
 47 46  1  0  0  0  0
 48 47  1  0  0  0  0
 48 50  2  0  0  0  0
 49 48  1  0  0  0  0
M  END
>  <MODEL>
2

>  <REMARK>
 VINA RESULT:      -7.7      2.985      9.831
  Name = 
  10 active torsions:
  status: ('A' for Active; 'I' for Inactive)
    1  A    between atoms: C_2  and  C_7
    2  A    between atoms: C_2  and  O_42
    3  A    between atoms: C_5  and  O_42
    4  A    between atoms: C_9  and  C_44
    5  A    between atoms: C_9  and  C_50
    6  A    between atoms: N_10  and  C_26
    7  A    between atoms: N_10  and  C_38
    8  A    between atoms: C_22  and  C_30
    9  A    between atoms: C_26  and  C_50
   10  A    between atoms: C_47  and  N_49
                            x       y       z     vdW  Elec       q    Type
                         _______ _______ _______ _____ _____    ______ ____

>  <TORSDO>
F 10

$$$$
=
 OpenBabel10222419033D

 50 55  0  0  1  0  0  0  0  0999 V2000
  190.5590  176.1150  138.5730 C   0  0  2  0  0  3  0  0  0  0  0  0
  190.2590  173.4240  135.9910 N   0  0  0  0  0  0  0  0  0  0  0  0
  187.9780  176.0390  138.3640 C   0  0  0  0  0  2  0  0  0  0  0  0
  189.0840  175.6280  136.2060 N   0  0  0  0  0  0  0  0  0  0  0  0
  189.2360  176.8850  138.3600 C   0  0  2  0  0  0  0  0  0  0  0  0
  190.0080  174.6440  136.7100 C   0  0  0  0  0  0  0  0  0  0  0  0
  191.7610  176.9850  138.2150 C   0  0  0  0  0  1  0  0  0  0  0  0
  188.8350  175.7190  134.7740 C   0  0  0  0  0  1  0  0  0  0  0  0
  190.6370  174.8660  137.8240 N   0  0  0  0  0  0  0  0  0  0  0  0
  188.4790  176.6600  137.0560 C   0  0  2  0  0  3  0  0  0  0  0  0
  189.4540  171.3300  134.9450 C   0  0  0  0  0  3  0  0  0  0  0  0
  186.8010  172.0590  135.4340 C   0  0  0  0  0  3  0  0  0  0  0  0
  188.4120  170.4650  134.5940 C   0  0  0  0  0  3  0  0  0  0  0  0
  187.0860  170.8280  134.8400 C   0  0  0  0  0  3  0  0  0  0  0  0
  187.8430  172.9250  135.7820 C   0  0  0  0  0  3  0  0  0  0  0  0
  189.1820  172.5750  135.5400 C   0  0  0  0  0  0  0  0  0  0  0  0
  189.0250  179.2580  138.3910 O   0  0  0  0  0  0  0  0  0  0  0  0
  189.0680  178.2030  139.0790 C   0  0  0  0  0  0  0  0  0  0  0  0
  188.9250  178.3210  140.5020 N   0  0  0  0  0  2  0  0  0  0  0  0
  189.2380  178.0090  146.5900 O   0  0  0  0  0  0  0  0  0  0  0  0
  186.9710  177.4250  146.1400 C   0  0  0  0  0  2  0  0  0  0  0  0
  188.3790  177.7110  145.7150 C   0  0  0  0  0  0  0  0  0  0  0  0
  186.4090  178.5730  146.9190 C   0  0  0  0  0  3  0  0  0  0  0  0
  184.1680  178.3310  145.8440 C   0  0  0  0  0  2  0  0  0  0  0  0
  190.2650  178.3730  142.5420 C   0  0  0  0  0  2  0  0  0  0  0  0
  183.9510  179.2100  144.6160 C   0  0  0  0  0  2  0  0  0  0  0  0
  185.6040  178.1450  143.2430 O   0  0  0  0  0  0  0  0  0  0  0  0
  186.9330  178.3450  142.8760 C   0  0  0  0  0  2  0  0  0  0  0  0
  185.1350  178.9670  146.8030 C   0  0  0  0  0  3  0  0  0  0  0  0
  188.7650  177.6120  144.3340 N   0  0  0  0  0  0  0  0  0  0  0  0
  187.7950  177.1680  143.3210 C   0  0  2  0  0  3  0  0  0  0  0  0
  188.5190  176.5410  142.1190 C   0  0  0  0  0  2  0  0  0  0  0  0
  190.1680  177.8220  143.9660 C   0  0  0  0  0  2  0  0  0  0  0  0
  185.2200  179.3700  143.7880 C   0  0  0  0  0  2  0  0  0  0  0  0
  189.5700  177.4800  141.5040 C   0  0  1  0  0  3  0  0  0  0  0  0
  191.6250  172.9060  135.9820 C   0  0  0  0  0  2  0  0  0  0  0  0
  192.4270  173.5650  134.8700 C   0  0  0  0  0  2  0  0  0  0  0  0
  193.2890  174.6690  135.4540 C   0  0  0  0  0  2  0  0  0  0  0  0
  196.1470  172.4700  136.6510 C   0  0  0  0  0  0  0  0  0  0  0  0
  196.1320  172.7740  138.1360 C   0  0  0  0  0  2  0  0  0  0  0  0
  195.5670  174.1010  138.3970 N   0  0  0  0  0  0  0  0  0  0  0  0
  195.2870  173.0810  135.8280 C   0  0  0  0  0  3  0  0  0  0  0  0
  194.5560  174.6430  137.5420 C   0  0  0  0  0  3  0  0  0  0  0  0
  194.3730  174.1270  136.3240 C   0  0  0  0  0  0  0  0  0  0  0  0
  195.8540  174.7550  139.6580 C   0  0  0  0  0  1  0  0  0  0  0  0
  197.0720  171.5750  136.1170 O   0  0  0  0  0  0  0  0  0  0  0  0
  196.8410  170.1650  136.0920 C   0  0  0  0  0  2  0  0  0  0  0  0
  195.3820  169.8480  136.2460 C   0  0  0  0  0  0  0  0  0  0  0  0
  194.8210  169.6280  137.6100 C   0  0  0  0  0  1  0  0  0  0  0  0
  194.6550  169.7290  135.2740 O   0  0  0  0  0  0  0  0  0  0  0  0
  1  7  1  6  0  0  0
  2  6  1  0  0  0  0
  4  6  1  0  0  0  0
  4 10  1  0  0  0  0
  5  3  1  0  0  0  0
  5  1  1  0  0  0  0
  5 18  1  1  0  0  0
  6  9  2  0  0  0  0
  8  4  1  0  0  0  0
  9  1  1  0  0  0  0
 10  5  1  0  0  0  0
 10  3  1  1  0  0  0
 11 16  1  0  0  0  0
 12 15  1  0  0  0  0
 13 14  1  0  0  0  0
 13 11  2  0  0  0  0
 14 12  2  0  0  0  0
 16 15  2  0  0  0  0
 16  2  1  0  0  0  0
 17 18  2  0  0  0  0
 18 19  1  0  0  0  0
 21 23  1  0  0  0  0
 22 21  1  0  0  0  0
 22 20  2  0  0  0  0
 24 29  1  0  0  0  0
 25 33  1  0  0  0  0
 26 24  1  0  0  0  0
 27 34  1  0  0  0  0
 28 27  1  0  0  0  0
 28 31  1  0  0  0  0
 29 23  2  0  0  0  0
 30 22  1  0  0  0  0
 31 32  1  6  0  0  0
 31 30  1  0  0  0  0
 33 30  1  0  0  0  0
 34 26  1  0  0  0  0
 35 19  1  6  0  0  0
 35 32  1  0  0  0  0
 35 25  1  0  0  0  0
 36  2  1  0  0  0  0
 37 38  1  0  0  0  0
 37 36  1  0  0  0  0
 38 44  1  0  0  0  0
 39 40  1  0  0  0  0
 40 41  1  0  0  0  0
 41 45  1  0  0  0  0
 42 44  1  0  0  0  0
 42 39  2  0  0  0  0
 43 41  1  0  0  0  0
 44 43  2  0  0  0  0
 46 39  1  0  0  0  0
 47 46  1  0  0  0  0
 47 48  1  0  0  0  0
 48 49  1  0  0  0  0
 50 48  2  0  0  0  0
M  END
>  <MODEL>
3

>  <REMARK>
 VINA RESULT:      -7.5      1.574      2.538
  Name = 
  10 active torsions:
  status: ('A' for Active; 'I' for Inactive)
    1  A    between atoms: C_2  and  C_7
    2  A    between atoms: C_2  and  O_42
    3  A    between atoms: C_5  and  O_42
    4  A    between atoms: C_9  and  C_44
    5  A    between atoms: C_9  and  C_50
    6  A    between atoms: N_10  and  C_26
    7  A    between atoms: N_10  and  C_38
    8  A    between atoms: C_22  and  C_30
    9  A    between atoms: C_26  and  C_50
   10  A    between atoms: C_47  and  N_49
                            x       y       z     vdW  Elec       q    Type
                         _______ _______ _______ _____ _____    ______ ____

>  <TORSDO>
F 10

$$$$
=
 OpenBabel10222419033D

 50 55  0  0  1  0  0  0  0  0999 V2000
  185.1180  177.2030  137.9850 C   0  0  2  0  0  3  0  0  0  0  0  0
  182.7540  174.9120  136.2070 N   0  0  0  0  0  0  0  0  0  0  0  0
  183.0820  177.4110  139.5710 C   0  0  0  0  0  2  0  0  0  0  0  0
  182.3920  177.1760  137.2220 N   0  0  0  0  0  0  0  0  0  0  0  0
  184.1340  178.1220  138.7430 C   0  0  2  0  0  0  0  0  0  0  0  0
  183.2440  176.0480  136.9410 C   0  0  0  0  0  0  0  0  0  0  0  0
  185.8990  177.9880  136.9340 C   0  0  0  0  0  1  0  0  0  0  0  0
  181.2750  177.4760  136.3380 C   0  0  0  0  0  1  0  0  0  0  0  0
  184.4780  176.0600  137.3440 N   0  0  0  0  0  0  0  0  0  0  0  0
  182.6800  178.1440  138.2870 C   0  0  2  0  0  3  0  0  0  0  0  0
  181.2240  174.0100  137.9310 C   0  0  0  0  0  3  0  0  0  0  0  0
  179.3470  173.3400  135.9710 C   0  0  0  0  0  3  0  0  0  0  0  0
  179.9970  173.4450  138.2970 C   0  0  0  0  0  3  0  0  0  0  0  0
  179.0580  173.1120  137.3180 C   0  0  0  0  0  3  0  0  0  0  0  0
  180.5750  173.9010  135.6050 C   0  0  0  0  0  3  0  0  0  0  0  0
  181.5310  174.2410  136.5770 C   0  0  0  0  0  0  0  0  0  0  0  0
  184.2280  180.4730  139.1180 O   0  0  0  0  0  0  0  0  0  0  0  0
  184.7010  179.3450  139.4250 C   0  0  0  0  0  0  0  0  0  0  0  0
  185.7280  179.2960  140.4250 N   0  0  0  0  0  2  0  0  0  0  0  0
  190.2470  177.8490  144.2650 O   0  0  0  0  0  0  0  0  0  0  0  0
  188.2990  177.1260  145.4340 C   0  0  0  0  0  2  0  0  0  0  0  0
  189.0050  177.6370  144.2140 C   0  0  0  0  0  0  0  0  0  0  0  0
  188.5310  178.0360  146.6000 C   0  0  0  0  0  3  0  0  0  0  0  0
  186.1800  177.7690  147.3990 C   0  0  0  0  0  2  0  0  0  0  0  0
  188.1190  179.0940  140.8740 C   0  0  0  0  0  2  0  0  0  0  0  0
  185.2140  178.8410  146.9050 C   0  0  0  0  0  2  0  0  0  0  0  0
  185.3310  178.2430  144.5850 O   0  0  0  0  0  0  0  0  0  0  0  0
  186.0160  178.6500  143.4420 C   0  0  0  0  0  2  0  0  0  0  0  0
  187.5800  178.3080  147.5020 C   0  0  0  0  0  3  0  0  0  0  0  0
  188.2890  177.8480  142.9860 N   0  0  0  0  0  0  0  0  0  0  0  0
  186.8610  177.5070  142.8880 C   0  0  2  0  0  3  0  0  0  0  0  0
  186.4760  177.2040  141.4320 C   0  0  0  0  0  2  0  0  0  0  0  0
  189.0260  178.2720  141.7920 C   0  0  0  0  0  2  0  0  0  0  0  0
  185.5270  179.2910  145.4840 C   0  0  0  0  0  2  0  0  0  0  0  0
  186.8370  178.3500  140.4730 C   0  0  1  0  0  3  0  0  0  0  0  0
  183.6620  174.2670  135.2630 C   0  0  0  0  0  2  0  0  0  0  0  0
  183.8540  172.8050  135.6360 C   0  0  0  0  0  2  0  0  0  0  0  0
  184.7780  172.7050  136.8350 C   0  0  0  0  0  2  0  0  0  0  0  0
  188.3280  173.9920  136.4030 C   0  0  0  0  0  0  0  0  0  0  0  0
  188.8220  173.0840  135.2960 C   0  0  0  0  0  2  0  0  0  0  0  0
  188.0940  171.8120  135.2900 N   0  0  0  0  0  0  0  0  0  0  0  0
  187.0910  173.8490  136.8920 C   0  0  0  0  0  3  0  0  0  0  0  0
  186.7270  171.7540  135.7110 C   0  0  0  0  0  3  0  0  0  0  0  0
  186.2150  172.7520  136.4360 C   0  0  0  0  0  0  0  0  0  0  0  0
  188.6800  170.6650  134.6270 C   0  0  0  0  0  1  0  0  0  0  0  0
  189.1600  174.9680  136.9490 O   0  0  0  0  0  0  0  0  0  0  0  0
  188.6740  175.9680  137.8470 C   0  0  0  0  0  2  0  0  0  0  0  0
  189.7090  177.0270  138.0960 C   0  0  0  0  0  0  0  0  0  0  0  0
  190.9460  176.6770  138.8510 C   0  0  0  0  0  1  0  0  0  0  0  0
  189.5390  178.1760  137.7250 O   0  0  0  0  0  0  0  0  0  0  0  0
  1  7  1  6  0  0  0
  1  5  1  0  0  0  0
  2 16  1  0  0  0  0
  2  6  1  0  0  0  0
  4 10  1  0  0  0  0
  5 18  1  1  0  0  0
  5  3  1  0  0  0  0
  6  4  1  0  0  0  0
  6  9  2  0  0  0  0
  8  4  1  0  0  0  0
  9  1  1  0  0  0  0
 10  5  1  0  0  0  0
 10  3  1  1  0  0  0
 11 13  1  0  0  0  0
 12 14  1  0  0  0  0
 14 13  2  0  0  0  0
 15 12  2  0  0  0  0
 15 16  1  0  0  0  0
 16 11  2  0  0  0  0
 17 18  2  0  0  0  0
 18 19  1  0  0  0  0
 21 23  1  0  0  0  0
 22 20  2  0  0  0  0
 22 21  1  0  0  0  0
 23 29  2  0  0  0  0
 24 29  1  0  0  0  0
 25 33  1  0  0  0  0
 26 24  1  0  0  0  0
 27 34  1  0  0  0  0
 28 27  1  0  0  0  0
 30 22  1  0  0  0  0
 31 32  1  6  0  0  0
 31 30  1  0  0  0  0
 31 28  1  0  0  0  0
 33 30  1  0  0  0  0
 34 26  1  0  0  0  0
 35 19  1  1  0  0  0
 35 25  1  0  0  0  0
 35 32  1  0  0  0  0
 36 37  1  0  0  0  0
 36  2  1  0  0  0  0
 37 38  1  0  0  0  0
 39 42  2  0  0  0  0
 39 46  1  0  0  0  0
 40 39  1  0  0  0  0
 41 40  1  0  0  0  0
 41 43  1  0  0  0  0
 43 44  2  0  0  0  0
 44 38  1  0  0  0  0
 44 42  1  0  0  0  0
 45 41  1  0  0  0  0
 46 47  1  0  0  0  0
 47 48  1  0  0  0  0
 48 49  1  0  0  0  0
 50 48  2  0  0  0  0
M  END
>  <MODEL>
4

>  <REMARK>
 VINA RESULT:      -6.8      3.713      6.066
  Name = 
  10 active torsions:
  status: ('A' for Active; 'I' for Inactive)
    1  A    between atoms: C_2  and  C_7
    2  A    between atoms: C_2  and  O_42
    3  A    between atoms: C_5  and  O_42
    4  A    between atoms: C_9  and  C_44
    5  A    between atoms: C_9  and  C_50
    6  A    between atoms: N_10  and  C_26
    7  A    between atoms: N_10  and  C_38
    8  A    between atoms: C_22  and  C_30
    9  A    between atoms: C_26  and  C_50
   10  A    between atoms: C_47  and  N_49
                            x       y       z     vdW  Elec       q    Type
                         _______ _______ _______ _____ _____    ______ ____

>  <TORSDO>
F 10

$$$$
=
 OpenBabel10222419033D

 50 55  0  0  1  0  0  0  0  0999 V2000
  188.5490  177.5100  137.4090 C   0  0  2  0  0  3  0  0  0  0  0  0
  192.0190  176.1240  137.6000 N   0  0  0  0  0  0  0  0  0  0  0  0
  188.2500  175.4510  135.8660 C   0  0  0  0  0  2  0  0  0  0  0  0
  190.4880  176.4460  135.6410 N   0  0  0  0  0  0  0  0  0  0  0  0
  188.0740  176.9450  136.0510 C   0  0  2  0  0  0  0  0  0  0  0  0
  190.7480  176.5200  137.0570 C   0  0  0  0  0  0  0  0  0  0  0  0
  188.6470  179.0320  137.3630 C   0  0  0  0  0  1  0  0  0  0  0  0
  191.5930  176.5380  134.6970 C   0  0  0  0  0  1  0  0  0  0  0  0
  189.8260  176.9650  137.8560 N   0  0  0  0  0  0  0  0  0  0  0  0
  189.1310  176.4280  135.0810 C   0  0  2  0  0  3  0  0  0  0  0  0
  191.8250  173.7950  136.7830 C   0  0  0  0  0  3  0  0  0  0  0  0
  194.5930  173.4570  136.9680 C   0  0  0  0  0  3  0  0  0  0  0  0
  192.4130  172.5890  136.3870 C   0  0  0  0  0  3  0  0  0  0  0  0
  193.7970  172.4200  136.4780 C   0  0  0  0  0  3  0  0  0  0  0  0
  194.0040  174.6620  137.3680 C   0  0  0  0  0  3  0  0  0  0  0  0
  192.6140  174.8470  137.2840 C   0  0  0  0  0  0  0  0  0  0  0  0
  186.8120  178.3460  134.5940 O   0  0  0  0  0  0  0  0  0  0  0  0
  186.7690  177.4640  135.4940 C   0  0  0  0  0  0  0  0  0  0  0  0
  185.4810  176.9890  135.9100 N   0  0  0  0  0  2  0  0  0  0  0  0
  182.2280  179.1540  140.6000 O   0  0  0  0  0  0  0  0  0  0  0  0
  180.5630  178.7140  138.9510 C   0  0  0  0  0  2  0  0  0  0  0  0
  181.9620  178.6310  139.4830 C   0  0  0  0  0  0  0  0  0  0  0  0
  180.1090  180.1390  138.8760 C   0  0  0  0  0  3  0  0  0  0  0  0
  178.9310  179.7500  136.7090 C   0  0  0  0  0  2  0  0  0  0  0  0
  185.3780  177.7080  138.2410 C   0  0  0  0  0  2  0  0  0  0  0  0
  179.7570  180.0710  135.4670 C   0  0  0  0  0  2  0  0  0  0  0  0
  181.3930  178.3480  135.7950 O   0  0  0  0  0  0  0  0  0  0  0  0
  182.6690  178.2190  136.3390 C   0  0  0  0  0  2  0  0  0  0  0  0
  179.3500  180.6010  137.8740 C   0  0  0  0  0  3  0  0  0  0  0  0
  182.9840  177.9310  138.7550 N   0  0  0  0  0  0  0  0  0  0  0  0
  182.6600  177.2320  137.5010 C   0  0  2  0  0  3  0  0  0  0  0  0
  183.6530  176.0880  137.2490 C   0  0  0  0  0  2  0  0  0  0  0  0
  184.3210  177.8020  139.3430 C   0  0  0  0  0  2  0  0  0  0  0  0
  181.2290  179.7250  135.6470 C   0  0  0  0  0  2  0  0  0  0  0  0
  185.1160  176.5600  137.2540 C   0  0  1  0  0  3  0  0  0  0  0  0
  192.5620  176.9070  138.7070 C   0  0  0  0  0  2  0  0  0  0  0  0
  191.5030  177.0960  139.7830 C   0  0  0  0  0  2  0  0  0  0  0  0
  192.1770  177.2640  141.1330 C   0  0  0  0  0  2  0  0  0  0  0  0
  188.8590  177.5770  142.9580 C   0  0  0  0  0  0  0  0  0  0  0  0
  189.3410  177.8240  144.3740 C   0  0  0  0  0  2  0  0  0  0  0  0
  190.6750  177.2560  144.5850 N   0  0  0  0  0  0  0  0  0  0  0  0
  189.7400  177.3760  141.9720 C   0  0  0  0  0  3  0  0  0  0  0  0
  191.6150  177.1860  143.5080 C   0  0  0  0  0  3  0  0  0  0  0  0
  191.1870  177.2960  142.2480 C   0  0  0  0  0  0  0  0  0  0  0  0
  191.1250  176.9950  145.9370 C   0  0  0  0  0  1  0  0  0  0  0  0
  187.4970  177.5250  142.6680 O   0  0  0  0  0  0  0  0  0  0  0  0
  186.4980  177.8420  143.6390 C   0  0  0  0  0  2  0  0  0  0  0  0
  185.5520  178.8890  143.1280 C   0  0  0  0  0  0  0  0  0  0  0  0
  184.3050  179.1830  143.8900 C   0  0  0  0  0  1  0  0  0  0  0  0
  185.7670  179.4780  142.0810 O   0  0  0  0  0  0  0  0  0  0  0  0
  1  7  1  6  0  0  0
  1  9  1  0  0  0  0
  2 36  1  0  0  0  0
  3  5  1  0  0  0  0
  4  6  1  0  0  0  0
  5 18  1  6  0  0  0
  5  1  1  0  0  0  0
  6  2  1  0  0  0  0
  6  9  2  0  0  0  0
  8  4  1  0  0  0  0
 10  4  1  0  0  0  0
 10  3  1  1  0  0  0
 10  5  1  0  0  0  0
 11 16  1  0  0  0  0
 12 15  1  0  0  0  0
 13 14  1  0  0  0  0
 13 11  2  0  0  0  0
 14 12  2  0  0  0  0
 16 15  2  0  0  0  0
 16  2  1  0  0  0  0
 17 18  2  0  0  0  0
 18 19  1  0  0  0  0
 21 22  1  0  0  0  0
 22 20  2  0  0  0  0
 23 21  1  0  0  0  0
 24 29  1  0  0  0  0
 25 33  1  0  0  0  0
 26 34  1  0  0  0  0
 26 24  1  0  0  0  0
 27 28  1  0  0  0  0
 29 23  2  0  0  0  0
 30 33  1  0  0  0  0
 30 22  1  0  0  0  0
 31 28  1  6  0  0  0
 31 30  1  0  0  0  0
 32 35  1  0  0  0  0
 32 31  1  0  0  0  0
 34 27  1  0  0  0  0
 35 19  1  6  0  0  0
 35 25  1  0  0  0  0
 36 37  1  0  0  0  0
 37 38  1  0  0  0  0
 38 44  1  0  0  0  0
 39 40  1  0  0  0  0
 40 41  1  0  0  0  0
 41 45  1  0  0  0  0
 42 44  1  0  0  0  0
 42 39  2  0  0  0  0
 43 41  1  0  0  0  0
 44 43  2  0  0  0  0
 46 39  1  0  0  0  0
 46 47  1  0  0  0  0
 48 47  1  0  0  0  0
 48 49  1  0  0  0  0
 50 48  2  0  0  0  0
M  END
>  <MODEL>
5

>  <REMARK>
 VINA RESULT:      -6.5      3.851      7.894
  Name = 
  10 active torsions:
  status: ('A' for Active; 'I' for Inactive)
    1  A    between atoms: C_2  and  C_7
    2  A    between atoms: C_2  and  O_42
    3  A    between atoms: C_5  and  O_42
    4  A    between atoms: C_9  and  C_44
    5  A    between atoms: C_9  and  C_50
    6  A    between atoms: N_10  and  C_26
    7  A    between atoms: N_10  and  C_38
    8  A    between atoms: C_22  and  C_30
    9  A    between atoms: C_26  and  C_50
   10  A    between atoms: C_47  and  N_49
                            x       y       z     vdW  Elec       q    Type
                         _______ _______ _______ _____ _____    ______ ____

>  <TORSDO>
F 10

$$$$
=
 OpenBabel10222419033D

 50 55  0  0  1  0  0  0  0  0999 V2000
  183.4010  176.8640  138.5760 C   0  0  2  0  0  3  0  0  0  0  0  0
  180.7550  179.4500  139.1340 N   0  0  0  0  0  0  0  0  0  0  0  0
  183.7420  178.2660  136.4250 C   0  0  0  0  0  2  0  0  0  0  0  0
  181.3740  178.1550  137.0790 N   0  0  0  0  0  0  0  0  0  0  0  0
  183.5310  176.8950  137.0360 C   0  0  2  0  0  0  0  0  0  0  0  0
  181.5970  178.4990  138.4610 C   0  0  0  0  0  0  0  0  0  0  0  0
  182.8580  175.5190  139.0510 C   0  0  0  0  0  1  0  0  0  0  0  0
  180.0390  178.2750  136.5110 C   0  0  0  0  0  1  0  0  0  0  0  0
  182.5640  177.9310  139.1150 N   0  0  0  0  0  0  0  0  0  0  0  0
  182.4060  177.5410  136.2350 C   0  0  2  0  0  3  0  0  0  0  0  0
  181.5350  181.6470  138.3030 C   0  0  0  0  0  3  0  0  0  0  0  0
  178.9310  182.3340  137.5550 C   0  0  0  0  0  3  0  0  0  0  0  0
  181.2850  182.8710  137.6730 C   0  0  0  0  0  3  0  0  0  0  0  0
  179.9840  183.2140  137.2970 C   0  0  0  0  0  3  0  0  0  0  0  0
  179.1810  181.1120  138.1890 C   0  0  0  0  0  3  0  0  0  0  0  0
  180.4840  180.7530  138.5740 C   0  0  0  0  0  0  0  0  0  0  0  0
  184.0050  174.6170  136.5240 O   0  0  0  0  0  0  0  0  0  0  0  0
  184.3630  175.8170  136.3810 C   0  0  0  0  0  0  0  0  0  0  0  0
  185.5220  176.0830  135.5800 N   0  0  0  0  0  2  0  0  0  0  0  0
  191.0750  176.7410  138.0290 O   0  0  0  0  0  0  0  0  0  0  0  0
  191.4980  175.4190  136.0900 C   0  0  0  0  0  2  0  0  0  0  0  0
  190.6140  176.2650  136.9550 C   0  0  0  0  0  0  0  0  0  0  0  0
  192.0500  174.2640  136.8680 C   0  0  0  0  0  3  0  0  0  0  0  0
  191.7990  172.7130  134.9260 C   0  0  0  0  0  2  0  0  0  0  0  0
  186.9750  177.1220  137.2450 C   0  0  0  0  0  2  0  0  0  0  0  0
  190.4940  171.9240  134.9060 C   0  0  0  0  0  2  0  0  0  0  0  0
  189.0530  173.8170  134.5950 O   0  0  0  0  0  0  0  0  0  0  0  0
  188.2700  174.6630  135.3760 C   0  0  0  0  0  2  0  0  0  0  0  0
  192.2090  173.0470  136.3340 C   0  0  0  0  0  3  0  0  0  0  0  0
  189.2680  176.5700  136.5540 N   0  0  0  0  0  0  0  0  0  0  0  0
  188.7550  176.1040  135.2560 C   0  0  2  0  0  3  0  0  0  0  0  0
  187.6220  177.0190  134.7640 C   0  0  0  0  0  2  0  0  0  0  0  0
  188.4590  177.4660  137.3860 C   0  0  0  0  0  2  0  0  0  0  0  0
  189.3190  172.7360  135.4360 C   0  0  0  0  0  2  0  0  0  0  0  0
  186.4850  177.1580  135.7890 C   0  0  1  0  0  3  0  0  0  0  0  0
  180.4170  179.1920  140.5320 C   0  0  0  0  0  2  0  0  0  0  0  0
  181.4970  179.7540  141.4450 C   0  0  0  0  0  2  0  0  0  0  0  0
  181.6150  178.8850  142.6830 C   0  0  0  0  0  2  0  0  0  0  0  0
  185.3670  178.3020  142.5410 C   0  0  0  0  0  0  0  0  0  0  0  0
  185.6620  178.0160  143.9990 C   0  0  0  0  0  2  0  0  0  0  0  0
  184.6690  178.6470  144.8720 N   0  0  0  0  0  0  0  0  0  0  0  0
  184.1230  178.5980  142.1490 C   0  0  0  0  0  3  0  0  0  0  0  0
  183.3180  178.8200  144.4330 C   0  0  0  0  0  3  0  0  0  0  0  0
  183.0310  178.7450  143.1310 C   0  0  0  0  0  0  0  0  0  0  0  0
  184.9940  178.8700  146.2670 C   0  0  0  0  0  1  0  0  0  0  0  0
  186.3880  178.2900  141.5920 O   0  0  0  0  0  0  0  0  0  0  0  0
  187.7350  178.6370  141.9180 C   0  0  0  0  0  2  0  0  0  0  0  0
  188.6350  177.4360  141.8700 C   0  0  0  0  0  0  0  0  0  0  0  0
  188.6460  176.4840  143.0170 C   0  0  0  0  0  1  0  0  0  0  0  0
  189.3850  177.2460  140.9270 O   0  0  0  0  0  0  0  0  0  0  0  0
  1  7  1  6  0  0  0
  1  9  1  0  0  0  0
  2 36  1  0  0  0  0
  3  5  1  0  0  0  0
  4  6  1  0  0  0  0
  5 18  1  6  0  0  0
  5  1  1  0  0  0  0
  6  9  2  0  0  0  0
  6  2  1  0  0  0  0
  8  4  1  0  0  0  0
 10  3  1  6  0  0  0
 10  5  1  0  0  0  0
 10  4  1  0  0  0  0
 11 16  1  0  0  0  0
 12 15  1  0  0  0  0
 13 11  2  0  0  0  0
 14 12  2  0  0  0  0
 14 13  1  0  0  0  0
 15 16  2  0  0  0  0
 16  2  1  0  0  0  0
 18 17  2  0  0  0  0
 19 18  1  0  0  0  0
 21 23  1  0  0  0  0
 21 22  1  0  0  0  0
 22 20  2  0  0  0  0
 24 29  1  0  0  0  0
 25 33  1  0  0  0  0
 26 24  1  0  0  0  0
 26 34  1  0  0  0  0
 27 28  1  0  0  0  0
 27 34  1  0  0  0  0
 29 23  2  0  0  0  0
 30 22  1  0  0  0  0
 30 33  1  0  0  0  0
 31 32  1  1  0  0  0
 31 28  1  0  0  0  0
 31 30  1  0  0  0  0
 32 35  1  0  0  0  0
 35 19  1  1  0  0  0
 35 25  1  0  0  0  0
 36 37  1  0  0  0  0
 37 38  1  0  0  0  0
 38 44  1  0  0  0  0
 39 40  1  0  0  0  0
 40 41  1  0  0  0  0
 41 45  1  0  0  0  0
 42 39  2  0  0  0  0
 42 44  1  0  0  0  0
 43 41  1  0  0  0  0
 44 43  2  0  0  0  0
 46 47  1  0  0  0  0
 46 39  1  0  0  0  0
 48 47  1  0  0  0  0
 48 49  1  0  0  0  0
 50 48  2  0  0  0  0
M  END
>  <MODEL>
6

>  <REMARK>
 VINA RESULT:      -6.4      4.487     10.864
  Name = 
  10 active torsions:
  status: ('A' for Active; 'I' for Inactive)
    1  A    between atoms: C_2  and  C_7
    2  A    between atoms: C_2  and  O_42
    3  A    between atoms: C_5  and  O_42
    4  A    between atoms: C_9  and  C_44
    5  A    between atoms: C_9  and  C_50
    6  A    between atoms: N_10  and  C_26
    7  A    between atoms: N_10  and  C_38
    8  A    between atoms: C_22  and  C_30
    9  A    between atoms: C_26  and  C_50
   10  A    between atoms: C_47  and  N_49
                            x       y       z     vdW  Elec       q    Type
                         _______ _______ _______ _____ _____    ______ ____

>  <TORSDO>
F 10

$$$$
=
 OpenBabel10222419033D

 50 55  0  0  1  0  0  0  0  0999 V2000
  188.7000  177.2960  137.5650 C   0  0  2  0  0  3  0  0  0  0  0  0
  192.1630  175.8850  137.6760 N   0  0  0  0  0  0  0  0  0  0  0  0
  188.4730  175.5160  135.6980 C   0  0  0  0  0  2  0  0  0  0  0  0
  190.7150  176.5250  135.7330 N   0  0  0  0  0  0  0  0  0  0  0  0
  188.2850  176.9610  136.1150 C   0  0  2  0  0  0  0  0  0  0  0  0
  190.9150  176.3680  137.1510 C   0  0  0  0  0  0  0  0  0  0  0  0
  188.7950  178.8050  137.7710 C   0  0  0  0  0  1  0  0  0  0  0  0
  191.8590  176.7660  134.8640 C   0  0  0  0  0  1  0  0  0  0  0  0
  189.9590  176.6810  137.9720 N   0  0  0  0  0  0  0  0  0  0  0  0
  189.3840  176.6040  135.1200 C   0  0  2  0  0  3  0  0  0  0  0  0
  191.9820  173.6290  136.6730 C   0  0  0  0  0  3  0  0  0  0  0  0
  194.7660  173.4250  136.5340 C   0  0  0  0  0  3  0  0  0  0  0  0
  192.5750  172.4950  136.1080 C   0  0  0  0  0  3  0  0  0  0  0  0
  193.9670  172.3930  136.0360 C   0  0  0  0  0  3  0  0  0  0  0  0
  194.1730  174.5560  137.1030 C   0  0  0  0  0  3  0  0  0  0  0  0
  192.7750  174.6740  137.1830 C   0  0  0  0  0  0  0  0  0  0  0  0
  187.0670  178.3320  134.5940 O   0  0  0  0  0  0  0  0  0  0  0  0
  187.0030  177.5680  135.5940 C   0  0  0  0  0  0  0  0  0  0  0  0
  185.7100  177.3020  136.1560 N   0  0  0  0  0  2  0  0  0  0  0  0
  180.7660  176.5800  139.6640 O   0  0  0  0  0  0  0  0  0  0  0  0
  180.7740  174.6010  138.3350 C   0  0  0  0  0  2  0  0  0  0  0  0
  181.4010  175.8630  138.8420 C   0  0  0  0  0  0  0  0  0  0  0  0
  179.4410  174.8840  137.7140 C   0  0  0  0  0  3  0  0  0  0  0  0
  179.8340  173.2320  135.8830 C   0  0  0  0  0  2  0  0  0  0  0  0
  184.3300  178.0580  138.0230 C   0  0  0  0  0  2  0  0  0  0  0  0
  180.4230  173.8230  134.6070 C   0  0  0  0  0  2  0  0  0  0  0  0
  182.5290  174.4560  135.5640 O   0  0  0  0  0  0  0  0  0  0  0  0
  183.1240  175.5950  136.1010 C   0  0  0  0  0  2  0  0  0  0  0  0
  179.0060  174.2480  136.6200 C   0  0  0  0  0  3  0  0  0  0  0  0
  182.7270  176.2410  138.4340 N   0  0  0  0  0  0  0  0  0  0  0  0
  183.5140  175.3610  137.5570 C   0  0  2  0  0  3  0  0  0  0  0  0
  185.0180  175.6000  137.7610 C   0  0  0  0  0  2  0  0  0  0  0  0
  183.3390  177.4410  139.0120 C   0  0  0  0  0  2  0  0  0  0  0  0
  181.4100  174.9470  134.8920 C   0  0  0  0  0  2  0  0  0  0  0  0
  185.4160  177.0730  137.5660 C   0  0  1  0  0  3  0  0  0  0  0  0
  192.6550  176.4760  138.9180 C   0  0  0  0  0  2  0  0  0  0  0  0
  191.5170  176.6210  139.9170 C   0  0  0  0  0  2  0  0  0  0  0  0
  191.9830  177.4520  141.0980 C   0  0  0  0  0  2  0  0  0  0  0  0
  188.8290  177.1640  143.1980 C   0  0  0  0  0  0  0  0  0  0  0  0
  189.3940  177.3910  144.5850 C   0  0  0  0  0  2  0  0  0  0  0  0
  190.8080  177.0110  144.6480 N   0  0  0  0  0  0  0  0  0  0  0  0
  189.6380  177.1550  142.1330 C   0  0  0  0  0  3  0  0  0  0  0  0
  191.6500  177.1460  143.4990 C   0  0  0  0  0  3  0  0  0  0  0  0
  191.1010  177.2700  142.2880 C   0  0  0  0  0  0  0  0  0  0  0  0
  191.4090  176.7350  145.9380 C   0  0  0  0  0  1  0  0  0  0  0  0
  187.4670  176.9340  143.0120 O   0  0  0  0  0  0  0  0  0  0  0  0
  186.5840  177.9410  142.5130 C   0  0  0  0  0  2  0  0  0  0  0  0
  185.5800  178.3500  143.5510 C   0  0  0  0  0  0  0  0  0  0  0  0
  184.1790  178.6440  143.1370 C   0  0  0  0  0  1  0  0  0  0  0  0
  185.9000  178.4840  144.7200 O   0  0  0  0  0  0  0  0  0  0  0  0
  1  7  1  6  0  0  0
  1  9  1  0  0  0  0
  2 36  1  0  0  0  0
  3  5  1  0  0  0  0
  4  6  1  0  0  0  0
  5 18  1  6  0  0  0
  5  1  1  0  0  0  0
  6  2  1  0  0  0  0
  6  9  2  0  0  0  0
  8  4  1  0  0  0  0
 10  3  1  1  0  0  0
 10  4  1  0  0  0  0
 10  5  1  0  0  0  0
 11 16  1  0  0  0  0
 12 15  1  0  0  0  0
 13 11  2  0  0  0  0
 14 13  1  0  0  0  0
 14 12  2  0  0  0  0
 15 16  2  0  0  0  0
 16  2  1  0  0  0  0
 17 18  2  0  0  0  0
 18 19  1  0  0  0  0
 21 22  1  0  0  0  0
 22 20  2  0  0  0  0
 23 21  1  0  0  0  0
 24 29  1  0  0  0  0
 25 33  1  0  0  0  0
 26 34  1  0  0  0  0
 26 24  1  0  0  0  0
 27 28  1  0  0  0  0
 29 23  2  0  0  0  0
 30 22  1  0  0  0  0
 30 33  1  0  0  0  0
 31 28  1  6  0  0  0
 31 32  1  0  0  0  0
 31 30  1  0  0  0  0
 34 27  1  0  0  0  0
 35 19  1  6  0  0  0
 35 32  1  0  0  0  0
 35 25  1  0  0  0  0
 36 37  1  0  0  0  0
 37 38  1  0  0  0  0
 38 44  1  0  0  0  0
 39 40  1  0  0  0  0
 40 41  1  0  0  0  0
 41 45  1  0  0  0  0
 42 44  1  0  0  0  0
 42 39  2  0  0  0  0
 43 41  1  0  0  0  0
 44 43  2  0  0  0  0
 46 39  1  0  0  0  0
 47 46  1  0  0  0  0
 47 48  1  0  0  0  0
 48 50  2  0  0  0  0
 49 48  1  0  0  0  0
M  END
>  <MODEL>
7

>  <REMARK>
 VINA RESULT:      -6.4      3.669      8.218
  Name = 
  10 active torsions:
  status: ('A' for Active; 'I' for Inactive)
    1  A    between atoms: C_2  and  C_7
    2  A    between atoms: C_2  and  O_42
    3  A    between atoms: C_5  and  O_42
    4  A    between atoms: C_9  and  C_44
    5  A    between atoms: C_9  and  C_50
    6  A    between atoms: N_10  and  C_26
    7  A    between atoms: N_10  and  C_38
    8  A    between atoms: C_22  and  C_30
    9  A    between atoms: C_26  and  C_50
   10  A    between atoms: C_47  and  N_49
                            x       y       z     vdW  Elec       q    Type
                         _______ _______ _______ _____ _____    ______ ____

>  <TORSDO>
F 10

$$$$
=
 OpenBabel10222419033D

 50 55  0  0  1  0  0  0  0  0999 V2000
  186.3330  179.3780  142.0380 C   0  0  2  0  0  3  0  0  0  0  0  0
  189.5310  177.8480  143.2350 N   0  0  0  0  0  0  0  0  0  0  0  0
  185.5960  178.7160  144.4310 C   0  0  0  0  0  2  0  0  0  0  0  0
  187.1570  177.0780  143.4680 N   0  0  0  0  0  0  0  0  0  0  0  0
  185.3020  178.6680  142.9450 C   0  0  2  0  0  0  0  0  0  0  0  0
  188.1230  178.0510  143.0260 C   0  0  0  0  0  0  0  0  0  0  0  0
  186.1360  178.9850  140.5770 C   0  0  0  0  0  1  0  0  0  0  0  0
  187.5440  175.6800  143.5920 C   0  0  0  0  0  1  0  0  0  0  0  0
  187.7190  179.1240  142.4160 N   0  0  0  0  0  0  0  0  0  0  0  0
  185.7380  177.3970  143.6650 C   0  0  2  0  0  3  0  0  0  0  0  0
  189.3800  177.8840  145.7050 C   0  0  0  0  0  3  0  0  0  0  0  0
  191.6780  176.3070  145.9090 C   0  0  0  0  0  3  0  0  0  0  0  0
  189.8430  177.4780  146.9610 C   0  0  0  0  0  3  0  0  0  0  0  0
  190.9910  176.6880  147.0640 C   0  0  0  0  0  3  0  0  0  0  0  0
  191.2160  176.7170  144.6530 C   0  0  0  0  0  3  0  0  0  0  0  0
  190.0640  177.5120  144.5340 C   0  0  0  0  0  0  0  0  0  0  0  0
  183.0780  179.2940  143.5260 O   0  0  0  0  0  0  0  0  0  0  0  0
  183.8380  178.8550  142.6220 C   0  0  0  0  0  0  0  0  0  0  0  0
  183.2670  178.5870  141.3330 N   0  0  0  0  0  2  0  0  0  0  0  0
  181.0300  175.8350  136.3650 O   0  0  0  0  0  0  0  0  0  0  0  0
  181.5050  178.0380  135.5880 C   0  0  0  0  0  2  0  0  0  0  0  0
  181.5740  176.9460  136.6120 C   0  0  0  0  0  0  0  0  0  0  0  0
  180.0840  178.3300  135.2200 C   0  0  0  0  0  3  0  0  0  0  0  0
  180.5160  180.7870  135.1070 C   0  0  0  0  0  2  0  0  0  0  0  0
  182.5070  176.5500  140.2230 C   0  0  0  0  0  2  0  0  0  0  0  0
  180.2150  181.5470  136.3950 C   0  0  0  0  0  2  0  0  0  0  0  0
  181.9250  180.5050  137.7150 O   0  0  0  0  0  0  0  0  0  0  0  0
  182.0390  179.4550  138.6230 C   0  0  0  0  0  2  0  0  0  0  0  0
  179.6420  179.5710  134.9780 C   0  0  0  0  0  3  0  0  0  0  0  0
  182.2830  177.1410  137.8470 N   0  0  0  0  0  0  0  0  0  0  0  0
  183.0050  178.3970  138.1010 C   0  0  2  0  0  3  0  0  0  0  0  0
  184.1510  178.1680  139.0990 C   0  0  0  0  0  2  0  0  0  0  0  0
  182.3960  176.0240  138.7900 C   0  0  0  0  0  2  0  0  0  0  0  0
  180.5510  180.7340  137.6390 C   0  0  0  0  0  2  0  0  0  0  0  0
  183.6730  177.5310  140.4150 C   0  0  1  0  0  3  0  0  0  0  0  0
  190.4460  178.2760  142.1790 C   0  0  0  0  0  2  0  0  0  0  0  0
  190.4760  177.2440  141.0620 C   0  0  0  0  0  2  0  0  0  0  0  0
  189.8910  177.8470  139.7990 C   0  0  0  0  0  2  0  0  0  0  0  0
  188.2040  175.7510  137.1160 C   0  0  0  0  0  0  0  0  0  0  0  0
  189.1700  174.5880  137.0200 C   0  0  0  0  0  2  0  0  0  0  0  0
  190.5180  174.9850  137.4340 N   0  0  0  0  0  0  0  0  0  0  0  0
  188.4490  176.7650  137.9530 C   0  0  0  0  0  3  0  0  0  0  0  0
  190.7060  175.9950  138.4300 C   0  0  0  0  0  3  0  0  0  0  0  0
  189.7020  176.8240  138.7290 C   0  0  0  0  0  0  0  0  0  0  0  0
  191.6500  174.1840  137.0150 C   0  0  0  0  0  1  0  0  0  0  0  0
  187.0640  175.7980  136.3150 O   0  0  0  0  0  0  0  0  0  0  0  0
  185.7470  175.8520  136.8680 C   0  0  0  0  0  2  0  0  0  0  0  0
  185.0470  174.5300  136.7400 C   0  0  0  0  0  0  0  0  0  0  0  0
  185.4830  173.3860  137.5920 C   0  0  0  0  0  1  0  0  0  0  0  0
  184.1540  174.3630  135.9260 O   0  0  0  0  0  0  0  0  0  0  0  0
  1  7  1  6  0  0  0
  1  9  1  0  0  0  0
  1  5  1  0  0  0  0
  2 16  1  0  0  0  0
  4  8  1  0  0  0  0
  4 10  1  0  0  0  0
  5 18  1  6  0  0  0
  5 10  1  0  0  0  0
  5  3  1  0  0  0  0
  6  2  1  0  0  0  0
  6  4  1  0  0  0  0
  9  6  2  0  0  0  0
 10  3  1  1  0  0  0
 11 13  1  0  0  0  0
 12 14  1  0  0  0  0
 13 14  2  0  0  0  0
 15 12  2  0  0  0  0
 16 15  1  0  0  0  0
 16 11  2  0  0  0  0
 18 17  2  0  0  0  0
 19 18  1  0  0  0  0
 20 22  2  0  0  0  0
 21 22  1  0  0  0  0
 22 30  1  0  0  0  0
 23 21  1  0  0  0  0
 24 26  1  0  0  0  0
 25 35  1  0  0  0  0
 26 34  1  0  0  0  0
 27 28  1  0  0  0  0
 29 24  1  0  0  0  0
 29 23  2  0  0  0  0
 30 31  1  0  0  0  0
 30 33  1  0  0  0  0
 31 28  1  1  0  0  0
 31 32  1  0  0  0  0
 32 35  1  0  0  0  0
 33 25  1  0  0  0  0
 34 27  1  0  0  0  0
 35 19  1  1  0  0  0
 36  2  1  0  0  0  0
 37 36  1  0  0  0  0
 38 37  1  0  0  0  0
 39 42  2  0  0  0  0
 40 39  1  0  0  0  0
 40 41  1  0  0  0  0
 41 43  1  0  0  0  0
 42 44  1  0  0  0  0
 43 44  2  0  0  0  0
 44 38  1  0  0  0  0
 45 41  1  0  0  0  0
 46 47  1  0  0  0  0
 46 39  1  0  0  0  0
 48 47  1  0  0  0  0
 48 49  1  0  0  0  0
 50 48  2  0  0  0  0
M  END
>  <MODEL>
8

>  <REMARK>
 VINA RESULT:      -6.4      4.415      9.198
  Name = 
  10 active torsions:
  status: ('A' for Active; 'I' for Inactive)
    1  A    between atoms: C_2  and  C_7
    2  A    between atoms: C_2  and  O_42
    3  A    between atoms: C_5  and  O_42
    4  A    between atoms: C_9  and  C_44
    5  A    between atoms: C_9  and  C_50
    6  A    between atoms: N_10  and  C_26
    7  A    between atoms: N_10  and  C_38
    8  A    between atoms: C_22  and  C_30
    9  A    between atoms: C_26  and  C_50
   10  A    between atoms: C_47  and  N_49
                            x       y       z     vdW  Elec       q    Type
                         _______ _______ _______ _____ _____    ______ ____

>  <TORSDO>
F 10

$$$$
=
 OpenBabel10222419033D

 50 55  0  0  1  0  0  0  0  0999 V2000
  184.7480  176.5860  137.1780 C   0  0  2  0  0  3  0  0  0  0  0  0
  182.9240  177.8280  140.1990 N   0  0  0  0  0  0  0  0  0  0  0  0
  186.7380  177.6640  138.4390 C   0  0  0  0  0  2  0  0  0  0  0  0
  184.6550  178.9320  138.7600 N   0  0  0  0  0  0  0  0  0  0  0  0
  185.9600  177.5450  137.1430 C   0  0  2  0  0  0  0  0  0  0  0  0
  183.8470  177.7870  139.0980 C   0  0  0  0  0  0  0  0  0  0  0  0
  183.8510  176.7960  135.9610 C   0  0  0  0  0  1  0  0  0  0  0  0
  184.1870  180.2700  139.0950 C   0  0  0  0  0  1  0  0  0  0  0  0
  183.9430  176.7040  138.3880 N   0  0  0  0  0  0  0  0  0  0  0  0
  185.8760  178.8340  137.9520 C   0  0  2  0  0  3  0  0  0  0  0  0
  182.3760  178.7080  142.4470 C   0  0  0  0  0  3  0  0  0  0  0  0
  185.0510  178.4940  143.2270 C   0  0  0  0  0  3  0  0  0  0  0  0
  182.7560  179.0430  143.7510 C   0  0  0  0  0  3  0  0  0  0  0  0
  184.0930  178.9350  144.1420 C   0  0  0  0  0  3  0  0  0  0  0  0
  184.6710  178.1620  141.9220 C   0  0  0  0  0  3  0  0  0  0  0  0
  183.3310  178.2670  141.5130 C   0  0  0  0  0  0  0  0  0  0  0  0
  186.7190  178.4300  135.0650 O   0  0  0  0  0  0  0  0  0  0  0  0
  186.8450  177.5120  135.9190 C   0  0  0  0  0  0  0  0  0  0  0  0
  187.8440  176.5090  135.6860 N   0  0  0  0  0  2  0  0  0  0  0  0
  190.9580  171.3630  134.6430 O   0  0  0  0  0  0  0  0  0  0  0  0
  192.4680  172.6420  135.9730 C   0  0  0  0  0  2  0  0  0  0  0  0
  191.1240  172.3870  135.3610 C   0  0  0  0  0  0  0  0  0  0  0  0
  193.5300  172.6810  134.9190 C   0  0  0  0  0  3  0  0  0  0  0  0
  194.7180  174.5640  136.0500 C   0  0  0  0  0  2  0  0  0  0  0  0
  187.9040  174.2300  134.8130 C   0  0  0  0  0  2  0  0  0  0  0  0
  194.3350  175.9530  135.5480 C   0  0  0  0  0  2  0  0  0  0  0  0
  192.0620  175.8830  136.3100 O   0  0  0  0  0  0  0  0  0  0  0  0
  190.8030  175.5920  135.7920 C   0  0  0  0  0  2  0  0  0  0  0  0
  194.5610  173.5340  134.9660 C   0  0  0  0  0  3  0  0  0  0  0  0
  190.0210  173.2730  135.6150 N   0  0  0  0  0  0  0  0  0  0  0  0
  190.1770  174.4130  136.5320 C   0  0  2  0  0  3  0  0  0  0  0  0
  188.8220  174.8100  137.1370 C   0  0  0  0  0  2  0  0  0  0  0  0
  188.7010  172.9490  135.0650 C   0  0  0  0  0  2  0  0  0  0  0  0
  192.8610  176.0470  135.1780 C   0  0  0  0  0  2  0  0  0  0  0  0
  187.7580  175.1040  136.0670 C   0  0  1  0  0  3  0  0  0  0  0  0
  181.6450  177.1410  140.0430 C   0  0  0  0  0  2  0  0  0  0  0  0
  180.6960  177.9840  139.2030 C   0  0  0  0  0  2  0  0  0  0  0  0
  180.3430  177.2340  137.9320 C   0  0  0  0  0  2  0  0  0  0  0  0
  180.7080  173.5050  137.3010 C   0  0  0  0  0  0  0  0  0  0  0  0
  179.7530  172.9510  138.3390 C   0  0  0  0  0  2  0  0  0  0  0  0
  179.6000  173.8770  139.4640 N   0  0  0  0  0  0  0  0  0  0  0  0
  180.9060  174.8240  137.2030 C   0  0  0  0  0  3  0  0  0  0  0  0
  179.7010  175.2900  139.2630 C   0  0  0  0  0  3  0  0  0  0  0  0
  180.2780  175.7600  138.1550 C   0  0  0  0  0  0  0  0  0  0  0  0
  179.1020  173.3750  140.7290 C   0  0  0  0  0  1  0  0  0  0  0  0
  181.4150  172.6520  136.4560 O   0  0  0  0  0  0  0  0  0  0  0  0
  182.7420  172.9460  136.0130 C   0  0  0  0  0  2  0  0  0  0  0  0
  183.7650  172.2080  136.8260 C   0  0  0  0  0  0  0  0  0  0  0  0
  184.7840  172.9800  137.5940 C   0  0  0  0  0  1  0  0  0  0  0  0
  183.8030  170.9900  136.8400 O   0  0  0  0  0  0  0  0  0  0  0  0
  1  7  1  6  0  0  0
  1  9  1  0  0  0  0
  2 16  1  0  0  0  0
  4  8  1  0  0  0  0
  4  6  1  0  0  0  0
  5 18  1  6  0  0  0
  5  1  1  0  0  0  0
  5 10  1  0  0  0  0
  5  3  1  0  0  0  0
  6  2  1  0  0  0  0
  9  6  2  0  0  0  0
 10  3  1  1  0  0  0
 10  4  1  0  0  0  0
 11 13  1  0  0  0  0
 12 14  1  0  0  0  0
 13 14  2  0  0  0  0
 15 12  2  0  0  0  0
 16 15  1  0  0  0  0
 16 11  2  0  0  0  0
 17 18  2  0  0  0  0
 19 18  1  0  0  0  0
 20 22  2  0  0  0  0
 22 30  1  0  0  0  0
 22 21  1  0  0  0  0
 23 29  2  0  0  0  0
 23 21  1  0  0  0  0
 25 33  1  0  0  0  0
 25 35  1  0  0  0  0
 26 24  1  0  0  0  0
 28 27  1  0  0  0  0
 29 24  1  0  0  0  0
 30 31  1  0  0  0  0
 31 28  1  6  0  0  0
 31 32  1  0  0  0  0
 33 30  1  0  0  0  0
 34 26  1  0  0  0  0
 34 27  1  0  0  0  0
 35 19  1  6  0  0  0
 35 32  1  0  0  0  0
 36  2  1  0  0  0  0
 37 36  1  0  0  0  0
 38 44  1  0  0  0  0
 38 37  1  0  0  0  0
 39 40  1  0  0  0  0
 40 41  1  0  0  0  0
 41 45  1  0  0  0  0
 42 39  2  0  0  0  0
 42 44  1  0  0  0  0
 43 41  1  0  0  0  0
 44 43  2  0  0  0  0
 46 39  1  0  0  0  0
 47 46  1  0  0  0  0
 47 48  1  0  0  0  0
 48 50  2  0  0  0  0
 48 49  1  0  0  0  0
M  END
>  <MODEL>
9

>  <REMARK>
 VINA RESULT:      -6.3      4.537     11.454
  Name = 
  10 active torsions:
  status: ('A' for Active; 'I' for Inactive)
    1  A    between atoms: C_2  and  C_7
    2  A    between atoms: C_2  and  O_42
    3  A    between atoms: C_5  and  O_42
    4  A    between atoms: C_9  and  C_44
    5  A    between atoms: C_9  and  C_50
    6  A    between atoms: N_10  and  C_26
    7  A    between atoms: N_10  and  C_38
    8  A    between atoms: C_22  and  C_30
    9  A    between atoms: C_26  and  C_50
   10  A    between atoms: C_47  and  N_49
                            x       y       z     vdW  Elec       q    Type
                         _______ _______ _______ _____ _____    ______ ____

>  <TORSDO>
F 10

$$$$
