=
 OpenBabel10222416123D

 44 49  0  0  1  0  0  0  0  0999 V2000
  187.7770  177.3050  138.0790 C   0  0  1  0  0  0  0  0  0  0  0  0
  185.5950  174.0100  134.6960 N   0  0  0  0  0  0  0  0  0  0  0  0
  186.5030  173.6760  135.7900 C   0  0  0  0  0  2  0  0  0  0  0  0
  188.4010  178.3820  137.1080 C   0  0  1  0  0  3  0  0  0  0  0  0
  186.2490  175.9020  135.5680 C   0  0  0  0  0  0  0  0  0  0  0  0
  189.3350  179.3740  137.7920 C   0  0  0  0  0  1  0  0  0  0  0  0
  186.8880  175.0270  136.2820 C   0  0  0  0  0  0  0  0  0  0  0  0
  185.9000  177.1250  136.3190 C   0  0  0  0  0  2  0  0  0  0  0  0
  191.6830  174.4480  136.8710 C   0  0  0  0  0  3  0  0  0  0  0  0
  190.4740  174.6350  137.5500 C   0  0  0  0  0  3  0  0  0  0  0  0
  187.0820  175.4750  137.6890 C   0  0  2  0  0  3  0  0  0  0  0  0
  192.1030  175.3660  135.8920 C   0  0  0  0  0  0  0  0  0  0  0  0
  191.2920  176.4700  135.5910 C   0  0  0  0  0  3  0  0  0  0  0  0
  189.1480  177.7810  135.8950 C   0  0  0  0  0  2  0  0  0  0  0  0
  186.3860  176.8140  137.7510 C   0  0  1  0  0  3  0  0  0  0  0  0
  188.4520  176.0020  137.8960 N   0  0  0  0  0  0  0  0  0  0  0  0
  189.6910  175.7510  137.2500 C   0  0  0  0  0  0  0  0  0  0  0  0
  185.4430  175.2680  134.5940 N   0  0  0  0  0  0  0  0  0  0  0  0
  190.0930  176.6690  136.2790 C   0  0  0  0  0  0  0  0  0  0  0  0
  194.6180  176.8530  136.2360 O   0  0  0  0  0  0  0  0  0  0  0  0
  193.3330  175.2020  135.1760 N   0  0  0  0  0  2  0  0  0  0  0  0
  194.5500  175.9420  135.3700 C   0  0  0  0  0  0  0  0  0  0  0  0
  195.6760  175.6610  134.5950 O   0  0  0  0  0  0  0  0  0  0  0  0
  196.6090  174.6450  134.9420 C   0  0  0  0  0  2  0  0  0  0  0  0
  197.2640  174.9530  136.2770 C   0  0  0  0  0  2  0  0  0  0  0  0
  197.1420  173.8340  137.1430 O   0  0  0  0  0  0  0  0  0  0  0  0
  194.9760  173.3980  137.8180 O   0  0  0  0  0  0  0  0  0  0  0  0
  196.4460  174.0940  139.4300 O   0  0  0  0  0  1  0  0  0  0  0  0
  196.1450  173.7630  138.1160 C   0  0  0  0  0  0  0  0  0  0  0  0
  187.8340  177.7000  139.5370 C   0  0  0  0  0  3  0  0  0  0  0  0
  188.6870  177.1370  140.3860 C   0  0  0  0  0  3  0  0  0  0  0  0
  188.7160  177.8820  142.9180 C   0  0  0  0  0  0  0  0  0  0  0  0
  188.7030  177.5420  141.7610 C   0  0  0  0  0  0  0  0  0  0  0  0
  189.2900  177.2240  145.1490 N   0  0  0  0  0  0  0  0  0  0  0  0
  188.7330  178.2940  144.3250 C   0  0  2  0  0  3  0  0  0  0  0  0
  187.4210  178.6050  144.7450 O   0  0  0  0  0  0  0  0  0  0  0  0
  187.1380  177.7380  145.8100 C   0  0  1  0  0  3  0  0  0  0  0  0
  190.6890  177.5330  145.4360 C   0  0  0  0  0  1  0  0  0  0  0  0
  188.4580  177.2370  146.3430 C   0  0  2  0  0  3  0  0  0  0  0  0
  185.8570  179.7120  146.6730 O   0  0  0  0  0  0  0  0  0  0  0  0
  185.9270  177.7570  147.8650 O   0  0  0  0  0  1  0  0  0  0  0  0
  186.2650  178.3940  146.8340 C   0  0  0  0  0  0  0  0  0  0  0  0
  188.9600  178.1150  147.3210 O   0  0  0  0  0  0  0  0  0  0  0  0
  189.2260  177.3440  148.3550 O   0  0  0  0  0  1  0  0  0  0  0  0
  1 30  1  1  0  0  0
  2  3  1  0  0  0  0
  3  7  1  0  0  0  0
  4  6  1  1  0  0  0
  4  1  1  0  0  0  0
  5  7  2  0  0  0  0
  5  8  1  0  0  0  0
  9 10  1  0  0  0  0
 11  7  1  6  0  0  0
 11 15  1  0  0  0  0
 11 16  1  0  0  0  0
 12  9  2  0  0  0  0
 13 12  1  0  0  0  0
 13 19  2  0  0  0  0
 14 19  1  0  0  0  0
 14  4  1  0  0  0  0
 15  8  1  6  0  0  0
 15  1  1  0  0  0  0
 16  1  1  0  0  0  0
 17 10  2  0  0  0  0
 17 16  1  0  0  0  0
 18  2  2  0  0  0  0
 18  5  1  0  0  0  0
 19 17  1  0  0  0  0
 21 22  1  0  0  0  0
 21 12  1  0  0  0  0
 22 20  2  0  0  0  0
 23 24  1  0  0  0  0
 23 22  1  0  0  0  0
 24 25  1  0  0  0  0
 25 26  1  0  0  0  0
 26 29  1  0  0  0  0
 27 29  2  0  0  0  0
 29 28  1  0  0  0  0
 30 31  2  0  0  0  0
 31 33  1  0  0  0  0
 33 32  3  0  0  0  0
 34 38  1  0  0  0  0
 34 39  1  0  0  0  0
 35 32  1  6  0  0  0
 35 36  1  0  0  0  0
 35 34  1  0  0  0  0
 36 37  1  0  0  0  0
 37 39  1  0  0  0  0
 37 42  1  1  0  0  0
 39 43  1  1  0  0  0
 40 42  2  0  0  0  0
 42 41  1  0  0  0  0
 43 44  1  0  0  0  0
M  END
>  <MODEL>
1

>  <REMARK>
 VINA RESULT:      -5.5      0.000      0.000
  Name = 
  11 active torsions:
  status: ('A' for Active; 'I' for Inactive)
    1  A    between atoms: C_2  and  C_12
    2  A    between atoms: O_5  and  C_38
    3  A    between atoms: C_8  and  O_24
    4  A    between atoms: C_8  and  C_36
    5  A    between atoms: C_10  and  C_39
    6  A    between atoms: O_16  and  C_36
    7  A    between atoms: O_16  and  C_42
    8  A    between atoms: C_18  and  C_29
    9  A    between atoms: O_24  and  C_44
   10  A    between atoms: N_25  and  C_26
   11  A    between atoms: C_35  and  C_40
                            x       y       z     vdW  Elec       q    Type
                         _______ _______ _______ _____ _____    ______ ____

>  <TORSDO>
F 11

$$$$
=
 OpenBabel10222416123D

 44 49  0  0  1  0  0  0  0  0999 V2000
  188.6380  176.4450  135.7980 C   0  0  1  0  0  0  0  0  0  0  0  0
  193.6860  175.2600  136.2270 N   0  0  0  0  0  0  0  0  0  0  0  0
  192.5790  174.6910  136.9920 C   0  0  0  0  0  2  0  0  0  0  0  0
  188.6770  178.0200  135.9050 C   0  0  1  0  0  3  0  0  0  0  0  0
  191.8910  176.3590  135.6460 C   0  0  0  0  0  0  0  0  0  0  0  0
  187.3060  178.6700  136.0600 C   0  0  0  0  0  1  0  0  0  0  0  0
  191.4350  175.5240  136.5290 C   0  0  0  0  0  0  0  0  0  0  0  0
  190.9060  176.6900  134.5950 C   0  0  0  0  0  2  0  0  0  0  0  0
  189.2000  176.4320  140.7540 C   0  0  0  0  0  3  0  0  0  0  0  0
  189.0880  175.7480  139.5380 C   0  0  0  0  0  3  0  0  0  0  0  0
  190.0400  175.0940  136.2380 C   0  0  2  0  0  3  0  0  0  0  0  0
  189.4000  177.8240  140.7750 C   0  0  0  0  0  0  0  0  0  0  0  0
  189.4990  178.5240  139.5640 C   0  0  0  0  0  3  0  0  0  0  0  0
  189.5890  178.5530  137.0350 C   0  0  0  0  0  2  0  0  0  0  0  0
  189.7000  175.7930  134.9430 C   0  0  1  0  0  3  0  0  0  0  0  0
  189.0680  175.8370  137.0750 N   0  0  0  0  0  0  0  0  0  0  0  0
  189.1700  176.4660  138.3450 C   0  0  0  0  0  0  0  0  0  0  0  0
  193.2820  176.1860  135.4550 N   0  0  0  0  0  0  0  0  0  0  0  0
  189.3710  177.8460  138.3490 C   0  0  0  0  0  0  0  0  0  0  0  0
  191.4990  177.5950  142.8240 O   0  0  0  0  0  0  0  0  0  0  0  0
  189.5230  178.5550  142.0020 N   0  0  0  0  0  2  0  0  0  0  0  0
  190.5650  178.4240  142.9830 C   0  0  0  0  0  0  0  0  0  0  0  0
  190.5530  179.2160  144.1320 O   0  0  0  0  0  0  0  0  0  0  0  0
  190.3530  178.6730  145.4320 C   0  0  0  0  0  2  0  0  0  0  0  0
  189.1550  177.7390  145.4440 C   0  0  0  0  0  2  0  0  0  0  0  0
  189.0350  177.1270  146.7210 O   0  0  0  0  0  0  0  0  0  0  0  0
  189.2920  178.2950  148.6980 O   0  0  0  0  0  1  0  0  0  0  0  0
  187.1510  177.9820  147.9460 O   0  0  0  0  0  0  0  0  0  0  0  0
  188.5240  177.8170  147.8200 C   0  0  0  0  0  0  0  0  0  0  0  0
  187.2830  175.8990  135.4130 C   0  0  0  0  0  3  0  0  0  0  0  0
  186.6800  174.9480  136.1180 C   0  0  0  0  0  3  0  0  0  0  0  0
  184.3140  174.0460  135.3710 C   0  0  0  0  0  0  0  0  0  0  0  0
  185.3950  174.4590  135.7120 C   0  0  0  0  0  0  0  0  0  0  0  0
  181.9650  174.0840  135.8360 N   0  0  0  0  0  0  0  0  0  0  0  0
  182.9990  173.5460  134.9570 C   0  0  2  0  0  3  0  0  0  0  0  0
  182.9940  172.1340  135.0000 O   0  0  0  0  0  0  0  0  0  0  0  0
  181.9830  171.7760  135.9020 C   0  0  1  0  0  3  0  0  0  0  0  0
  181.3230  175.2140  135.1680 C   0  0  0  0  0  1  0  0  0  0  0  0
  181.0590  172.9630  136.0340 C   0  0  2  0  0  3  0  0  0  0  0  0
  180.1370  170.0950  136.1210 O   0  0  0  0  0  1  0  0  0  0  0  0
  181.8160  169.7880  134.5940 O   0  0  0  0  0  0  0  0  0  0  0  0
  181.3050  170.5060  135.4920 C   0  0  0  0  0  0  0  0  0  0  0  0
  180.0580  172.9190  135.0480 O   0  0  0  0  0  0  0  0  0  0  0  0
  178.9370  172.7450  135.7170 O   0  0  0  0  0  1  0  0  0  0  0  0
  1 30  1  6  0  0  0
  1  4  1  0  0  0  0
  1 16  1  0  0  0  0
  2  3  1  0  0  0  0
  4  6  1  1  0  0  0
  4 14  1  0  0  0  0
  5  7  2  0  0  0  0
  7  3  1  0  0  0  0
  8  5  1  0  0  0  0
  9 12  1  0  0  0  0
 10  9  2  0  0  0  0
 11  7  1  1  0  0  0
 11 16  1  0  0  0  0
 12 21  1  0  0  0  0
 13 12  2  0  0  0  0
 14 19  1  0  0  0  0
 15  8  1  1  0  0  0
 15  1  1  0  0  0  0
 15 11  1  0  0  0  0
 16 17  1  0  0  0  0
 17 19  2  0  0  0  0
 17 10  1  0  0  0  0
 18  5  1  0  0  0  0
 18  2  2  0  0  0  0
 19 13  1  0  0  0  0
 20 22  2  0  0  0  0
 21 22  1  0  0  0  0
 22 23  1  0  0  0  0
 23 24  1  0  0  0  0
 24 25  1  0  0  0  0
 25 26  1  0  0  0  0
 26 29  1  0  0  0  0
 29 28  2  0  0  0  0
 29 27  1  0  0  0  0
 30 31  2  0  0  0  0
 32 33  3  0  0  0  0
 33 31  1  0  0  0  0
 34 39  1  0  0  0  0
 35 36  1  0  0  0  0
 35 32  1  1  0  0  0
 35 34  1  0  0  0  0
 36 37  1  0  0  0  0
 37 42  1  6  0  0  0
 37 39  1  0  0  0  0
 38 34  1  0  0  0  0
 39 43  1  6  0  0  0
 41 42  2  0  0  0  0
 42 40  1  0  0  0  0
 43 44  1  0  0  0  0
M  END
>  <MODEL>
2

>  <REMARK>
 VINA RESULT:      -3.0      5.126      9.752
  Name = 
  11 active torsions:
  status: ('A' for Active; 'I' for Inactive)
    1  A    between atoms: C_2  and  C_12
    2  A    between atoms: O_5  and  C_38
    3  A    between atoms: C_8  and  O_24
    4  A    between atoms: C_8  and  C_36
    5  A    between atoms: C_10  and  C_39
    6  A    between atoms: O_16  and  C_36
    7  A    between atoms: O_16  and  C_42
    8  A    between atoms: C_18  and  C_29
    9  A    between atoms: O_24  and  C_44
   10  A    between atoms: N_25  and  C_26
   11  A    between atoms: C_35  and  C_40
                            x       y       z     vdW  Elec       q    Type
                         _______ _______ _______ _____ _____    ______ ____

>  <TORSDO>
F 11

$$$$
=
 OpenBabel10222416123D

 44 49  0  0  1  0  0  0  0  0999 V2000
  188.2650  175.8710  136.2700 C   0  0  1  0  0  0  0  0  0  0  0  0
  193.4250  175.9720  135.6130 N   0  0  0  0  0  0  0  0  0  0  0  0
  192.6790  175.2160  136.6160 C   0  0  0  0  0  2  0  0  0  0  0  0
  187.9270  177.4120  136.3270 C   0  0  1  0  0  3  0  0  0  0  0  0
  191.3310  176.5580  135.4120 C   0  0  0  0  0  0  0  0  0  0  0  0
  186.4990  177.7240  136.7620 C   0  0  0  0  0  1  0  0  0  0  0  0
  191.2930  175.7100  136.3930 C   0  0  0  0  0  0  0  0  0  0  0  0
  190.1000  176.5590  134.5940 C   0  0  0  0  0  2  0  0  0  0  0  0
  189.8200  176.3840  140.9820 C   0  0  0  0  0  3  0  0  0  0  0  0
  189.6360  175.6000  139.8370 C   0  0  0  0  0  3  0  0  0  0  0  0
  190.0210  174.9360  136.4260 C   0  0  2  0  0  3  0  0  0  0  0  0
  189.6630  177.7800  140.9240 C   0  0  0  0  0  0  0  0  0  0  0  0
  189.3310  178.3850  139.7030 C   0  0  0  0  0  3  0  0  0  0  0  0
  188.8870  178.2370  137.2160 C   0  0  0  0  0  2  0  0  0  0  0  0
  189.2570  175.4280  135.2200 C   0  0  1  0  0  3  0  0  0  0  0  0
  189.0870  175.4870  137.4370 N   0  0  0  0  0  0  0  0  0  0  0  0
  189.2870  176.2190  138.6370 C   0  0  0  0  0  0  0  0  0  0  0  0
  192.6510  176.7100  134.9250 N   0  0  0  0  0  0  0  0  0  0  0  0
  189.1310  177.6030  138.5630 C   0  0  0  0  0  0  0  0  0  0  0  0
  191.7980  177.6410  142.9430 O   0  0  0  0  0  0  0  0  0  0  0  0
  189.8480  178.6130  142.0750 N   0  0  0  0  0  2  0  0  0  0  0  0
  190.9060  178.5240  143.0430 C   0  0  0  0  0  0  0  0  0  0  0  0
  190.9570  179.4170  144.1150 O   0  0  0  0  0  0  0  0  0  0  0  0
  190.6480  179.0290  145.4480 C   0  0  0  0  0  2  0  0  0  0  0  0
  189.8570  177.7320  145.4590 C   0  0  0  0  0  2  0  0  0  0  0  0
  188.6820  177.8920  146.2430 O   0  0  0  0  0  0  0  0  0  0  0  0
  187.1790  177.2250  144.6200 O   0  0  0  0  0  0  0  0  0  0  0  0
  186.3860  178.6040  146.2670 O   0  0  0  0  0  1  0  0  0  0  0  0
  187.4100  177.8830  145.6700 C   0  0  0  0  0  0  0  0  0  0  0  0
  187.0420  174.9860  136.2050 C   0  0  0  0  0  3  0  0  0  0  0  0
  186.8250  174.0180  137.0890 C   0  0  0  0  0  3  0  0  0  0  0  0
  184.6640  172.5130  136.8960 C   0  0  0  0  0  0  0  0  0  0  0  0
  185.6510  173.2010  136.9840 C   0  0  0  0  0  0  0  0  0  0  0  0
  183.3300  171.1740  135.4250 N   0  0  0  0  0  0  0  0  0  0  0  0
  183.4650  171.6760  136.7890 C   0  0  2  0  0  3  0  0  0  0  0  0
  182.3260  172.4300  137.1500 O   0  0  0  0  0  0  0  0  0  0  0  0
  181.4840  172.4220  136.0300 C   0  0  1  0  0  3  0  0  0  0  0  0
  183.8290  169.8020  135.3780 C   0  0  0  0  0  1  0  0  0  0  0  0
  181.9000  171.2580  135.1640 C   0  0  2  0  0  3  0  0  0  0  0  0
  179.0690  172.9160  135.5720 O   0  0  0  0  0  0  0  0  0  0  0  0
  179.7100  171.9760  137.5610 O   0  0  0  0  0  1  0  0  0  0  0  0
  180.0410  172.4120  136.4290 C   0  0  0  0  0  0  0  0  0  0  0  0
  181.2270  170.0870  135.5550 O   0  0  0  0  0  0  0  0  0  0  0  0
  180.3520  169.8700  134.5950 O   0  0  0  0  0  1  0  0  0  0  0  0
  1 30  1  6  0  0  0
  1  4  1  0  0  0  0
  1 16  1  0  0  0  0
  2  3  1  0  0  0  0
  4  6  1  1  0  0  0
  4 14  1  0  0  0  0
  5  7  2  0  0  0  0
  7  3  1  0  0  0  0
  8  5  1  0  0  0  0
 10  9  2  0  0  0  0
 11  7  1  1  0  0  0
 11 16  1  0  0  0  0
 12  9  1  0  0  0  0
 12 21  1  0  0  0  0
 13 12  2  0  0  0  0
 14 19  1  0  0  0  0
 15  8  1  1  0  0  0
 15  1  1  0  0  0  0
 15 11  1  0  0  0  0
 16 17  1  0  0  0  0
 17 10  1  0  0  0  0
 18  5  1  0  0  0  0
 18  2  2  0  0  0  0
 19 17  2  0  0  0  0
 19 13  1  0  0  0  0
 20 22  2  0  0  0  0
 21 22  1  0  0  0  0
 22 23  1  0  0  0  0
 23 24  1  0  0  0  0
 24 25  1  0  0  0  0
 25 26  1  0  0  0  0
 27 29  2  0  0  0  0
 29 26  1  0  0  0  0
 29 28  1  0  0  0  0
 30 31  2  0  0  0  0
 32 33  3  0  0  0  0
 33 31  1  0  0  0  0
 34 35  1  0  0  0  0
 35 32  1  6  0  0  0
 35 36  1  0  0  0  0
 37 42  1  1  0  0  0
 37 36  1  0  0  0  0
 38 34  1  0  0  0  0
 39 34  1  0  0  0  0
 39 43  1  1  0  0  0
 39 37  1  0  0  0  0
 40 42  2  0  0  0  0
 42 41  1  0  0  0  0
 44 43  1  0  0  0  0
M  END
>  <MODEL>
3

>  <REMARK>
 VINA RESULT:      -3.0      5.093      9.483
  Name = 
  11 active torsions:
  status: ('A' for Active; 'I' for Inactive)
    1  A    between atoms: C_2  and  C_12
    2  A    between atoms: O_5  and  C_38
    3  A    between atoms: C_8  and  O_24
    4  A    between atoms: C_8  and  C_36
    5  A    between atoms: C_10  and  C_39
    6  A    between atoms: O_16  and  C_36
    7  A    between atoms: O_16  and  C_42
    8  A    between atoms: C_18  and  C_29
    9  A    between atoms: O_24  and  C_44
   10  A    between atoms: N_25  and  C_26
   11  A    between atoms: C_35  and  C_40
                            x       y       z     vdW  Elec       q    Type
                         _______ _______ _______ _____ _____    ______ ____

>  <TORSDO>
F 11

$$$$
