=
 OpenBabel10222420223D

 47 52  0  0  1  0  0  0  0  0999 V2000
  188.7310  177.8650  141.2270 C   0  0  2  0  0  3  0  0  0  0  0  0
  187.9160  176.3550  138.0280 C   0  0  0  0  0  2  0  0  0  0  0  0
  188.2860  177.7070  138.6320 C   0  0  2  0  0  0  0  0  0  0  0  0
  180.6360  180.2160  139.5090 C   0  0  0  0  0  3  0  0  0  0  0  0
  186.7880  176.4530  136.9970 C   0  0  1  0  0  3  0  0  0  0  0  0
  186.6550  178.6370  143.0220 O   0  0  0  0  0  0  0  0  0  0  0  0
  181.3370  180.0720  138.3870 C   0  0  0  0  0  0  0  0  0  0  0  0
  182.9020  178.3120  140.4130 C   0  0  0  0  0  0  0  0  0  0  0  0
  186.8430  175.3890  135.9000 C   0  0  2  0  0  3  0  0  0  0  0  0
  184.4800  175.4490  136.5990 C   0  0  0  0  0  2  0  0  0  0  0  0
  180.7460  179.3820  140.6570 N   0  0  0  0  0  2  0  0  0  0  0  0
  184.1390  177.8750  141.1270 C   0  0  0  0  0  2  0  0  0  0  0  0
  183.7100  177.6530  136.1570 O   0  0  0  0  0  0  0  0  0  0  0  0
  181.9400  178.8130  141.1280 N   0  0  0  0  0  0  0  0  0  0  0  0
  186.3930  178.6440  141.7900 C   0  0  0  0  0  0  0  0  0  0  0  0
  185.0390  179.0790  141.3450 C   0  0  0  0  0  2  0  0  0  0  0  0
  187.3780  178.2250  140.8330 N   0  0  0  0  0  0  0  0  0  0  0  0
  187.1050  178.2710  139.4080 C   0  0  0  0  0  2  0  0  0  0  0  0
  185.9110  175.2100  137.0880 C   0  0  2  0  0  3  0  0  0  0  0  0
  182.1910  178.9120  138.1080 C   0  0  0  0  0  3  0  0  0  0  0  0
  182.8430  178.1050  138.9490 C   0  0  0  0  0  0  0  0  0  0  0  0
  183.8980  176.7610  137.0260 C   0  0  0  0  0  0  0  0  0  0  0  0
  188.6880  178.6860  137.5410 C   0  0  0  0  0  1  0  0  0  0  0  0
  183.6000  177.0040  138.4120 N   0  0  0  0  0  2  0  0  0  0  0  0
  189.7090  177.4690  139.7450 S   0  0  0  0  0  0  0  0  0  0  0  0
  180.9070  180.6270  136.1150 O   0  0  0  0  0  0  0  0  0  0  0  0
  181.1270  181.0350  137.2890 C   0  0  0  0  0  0  0  0  0  0  0  0
  181.1520  182.4070  137.5600 O   0  0  0  0  0  0  0  0  0  0  0  0
  180.7370  183.3720  136.6040 C   0  0  0  0  0  1  0  0  0  0  0  0
  188.7520  176.7630  142.1960 N   0  0  0  0  0  2  0  0  0  0  0  0
  190.0070  176.7510  142.9440 C   0  0  0  0  0  2  0  0  0  0  0  0
  189.9230  177.7370  144.0970 C   0  0  0  0  0  2  0  0  0  0  0  0
  189.0360  177.2240  145.1340 N   0  0  0  0  0  2  0  0  0  0  0  0
  189.6860  177.4430  146.4150 C   0  0  2  0  0  3  0  0  0  0  0  0
  190.8510  176.6790  146.4770 O   0  0  0  0  0  1  0  0  0  0  0  0
  188.5640  178.2000  148.4940 C   0  0  0  0  0  2  0  0  0  0  0  0
  188.7460  177.0340  147.5350 C   0  0  0  0  0  3  0  0  0  0  0  0
  187.4980  177.8880  147.4700 C   0  0  0  0  0  2  0  0  0  0  0  0
  187.9920  174.5010  136.0270 N   0  0  0  0  0  2  0  0  0  0  0  0
  189.0140  175.0210  135.1270 C   0  0  0  0  0  2  0  0  0  0  0  0
  192.1690  173.6260  136.6050 N   0  0  0  0  0  0  0  0  0  0  0  0
  190.3560  174.9330  135.7680 C   0  0  0  0  0  0  0  0  0  0  0  0
  190.9460  173.6930  136.0130 C   0  0  0  0  0  3  0  0  0  0  0  0
  192.8450  174.7460  136.9670 C   0  0  0  0  0  0  0  0  0  0  0  0
  191.0390  176.0960  136.1240 C   0  0  0  0  0  3  0  0  0  0  0  0
  194.1750  174.6320  137.6190 C   0  0  0  0  0  1  0  0  0  0  0  0
  192.2920  176.0050  136.7300 C   0  0  0  0  0  3  0  0  0  0  0  0
  1 30  1  1  0  0  0
  2  3  1  0  0  0  0
  3 23  1  6  0  0  0
  3 18  1  0  0  0  0
  3 25  1  0  0  0  0
  4 11  1  0  0  0  0
  5 19  1  0  0  0  0
  5  2  1  1  0  0  0
  7  4  2  0  0  0  0
  8 12  1  0  0  0  0
  8 14  2  0  0  0  0
  9 39  1  1  0  0  0
  9  5  1  0  0  0  0
  9 19  1  0  0  0  0
 10 22  1  0  0  0  0
 11 14  1  0  0  0  0
 12 16  1  0  0  0  0
 13 22  2  0  0  0  0
 15  6  2  0  0  0  0
 16 15  1  0  0  0  0
 17  1  1  0  0  0  0
 17 15  1  0  0  0  0
 18 17  1  0  0  0  0
 19 10  1  6  0  0  0
 20  7  1  0  0  0  0
 20 21  2  0  0  0  0
 21  8  1  0  0  0  0
 22 24  1  0  0  0  0
 24 21  1  0  0  0  0
 25  1  1  0  0  0  0
 26 27  2  0  0  0  0
 27 28  1  0  0  0  0
 27  7  1  0  0  0  0
 29 28  1  0  0  0  0
 30 31  1  0  0  0  0
 31 32  1  0  0  0  0
 32 33  1  0  0  0  0
 33 34  1  0  0  0  0
 34 35  1  6  0  0  0
 34 37  1  0  0  0  0
 37 36  1  0  0  0  0
 38 37  1  0  0  0  0
 38 36  1  0  0  0  0
 40 42  1  0  0  0  0
 40 39  1  0  0  0  0
 41 44  1  0  0  0  0
 42 43  1  0  0  0  0
 42 45  2  0  0  0  0
 43 41  2  0  0  0  0
 44 46  1  0  0  0  0
 45 47  1  0  0  0  0
 47 44  2  0  0  0  0
M  END
>  <MODEL>
1

>  <REMARK>
 VINA RESULT:      -8.0      0.000      0.000
  Name = 
  11 active torsions:
  status: ('A' for Active; 'I' for Inactive)
    1  A    between atoms: C_2  and  N_24
    2  A    between atoms: C_5  and  N_21
    3  A    between atoms: C_5  and  C_40
    4  A    between atoms: C_7  and  C_42
    5  A    between atoms: C_10  and  C_36
    6  A    between atoms: C_12  and  N_21
    7  A    between atoms: C_12  and  C_43
    8  A    between atoms: C_16  and  N_31
    9  A    between atoms: N_24  and  C_43
   10  A    between atoms: O_25  and  C_36
   11  A    between atoms: N_31  and  C_42
                            x       y       z     vdW  Elec       q    Type
                         _______ _______ _______ _____ _____    ______ ____

>  <TORSDO>
F 11

$$$$
=
 OpenBabel10222420223D

 47 52  0  0  1  0  0  0  0  0999 V2000
  186.0330  175.8930  135.5900 C   0  0  2  0  0  3  0  0  0  0  0  0
  187.4390  177.6630  138.4300 C   0  0  0  0  0  2  0  0  0  0  0  0
  187.4120  177.7170  136.9050 C   0  0  2  0  0  0  0  0  0  0  0  0
  194.3200  173.6070  135.9210 C   0  0  0  0  0  3  0  0  0  0  0  0
  188.8320  177.9270  139.0090 C   0  0  1  0  0  3  0  0  0  0  0  0
  187.2980  173.5410  134.5940 O   0  0  0  0  0  0  0  0  0  0  0  0
  194.1510  174.8480  136.3700 C   0  0  1  0  0  3  0  0  0  0  0  0
  191.3390  173.5850  136.7540 C   0  0  0  0  0  0  0  0  0  0  0  0
  188.8260  178.5710  140.3960 C   0  0  2  0  0  3  0  0  0  0  0  0
  190.5050  176.7720  140.5460 C   0  0  0  0  0  2  0  0  0  0  0  0
  193.4290  172.5220  136.1580 N   0  0  0  0  0  0  0  0  0  0  0  0
  189.8560  173.5490  136.5840 C   0  0  0  0  0  2  0  0  0  0  0  0
  192.1790  177.2870  138.9430 O   0  0  0  0  0  0  0  0  0  0  0  0
  192.0300  172.6260  136.2140 N   0  0  0  0  0  0  0  0  0  0  0  0
  188.0270  174.4010  135.1550 C   0  0  0  0  0  0  0  0  0  0  0  0
  189.4940  174.1570  135.2400 C   0  0  0  0  0  2  0  0  0  0  0  0
  187.4500  175.5880  135.7190 N   0  0  0  0  0  0  0  0  0  0  0  0
  188.2820  176.6100  136.3300 C   0  0  0  0  0  2  0  0  0  0  0  0
  189.0310  177.0710  140.2540 C   0  0  2  0  0  3  0  0  0  0  0  0
  193.1130  175.2280  137.3330 C   0  0  0  0  0  3  0  0  0  0  0  0
  191.9130  174.6860  137.5600 C   0  0  0  0  0  0  0  0  0  0  0  0
  191.3180  176.4550  139.3290 C   0  0  0  0  0  0  0  0  0  0  0  0
  187.9140  179.0640  136.4100 C   0  0  0  0  0  1  0  0  0  0  0  0
  191.0840  175.2380  138.6000 N   0  0  0  0  0  2  0  0  0  0  0  0
  185.6880  177.5080  136.3540 S   0  0  0  0  0  0  0  0  0  0  0  0
  194.7940  177.0500  135.7420 O   0  0  0  0  0  0  0  0  0  0  0  0
  195.1540  175.8720  136.0190 C   0  0  0  0  0  0  0  0  0  0  0  0
  196.5120  175.5360  136.0160 O   0  0  0  0  0  0  0  0  0  0  0  0
  197.1190  174.8440  137.0970 C   0  0  0  0  0  1  0  0  0  0  0  0
  185.1850  174.8380  136.1560 N   0  0  0  0  0  2  0  0  0  0  0  0
  184.7710  175.1740  137.5150 C   0  0  0  0  0  2  0  0  0  0  0  0
  183.2720  174.9720  137.6580 C   0  0  0  0  0  2  0  0  0  0  0  0
  182.5900  176.2610  137.6740 N   0  0  0  0  0  2  0  0  0  0  0  0
  182.7390  176.8180  139.0070 C   0  0  2  0  0  3  0  0  0  0  0  0
  182.2010  175.9310  139.9390 O   0  0  0  0  0  1  0  0  0  0  0  0
  182.9350  179.2640  138.6390 C   0  0  0  0  0  2  0  0  0  0  0  0
  182.0060  178.1460  139.0840 C   0  0  0  0  0  3  0  0  0  0  0  0
  181.8890  178.7270  137.6920 C   0  0  0  0  0  2  0  0  0  0  0  0
  187.4830  178.8480  140.8880 N   0  0  0  0  0  2  0  0  0  0  0  0
  187.3490  178.1260  142.1480 C   0  0  0  0  0  2  0  0  0  0  0  0
  184.5150  178.5000  144.5790 N   0  0  0  0  0  0  0  0  0  0  0  0
  185.9800  178.3100  142.7040 C   0  0  0  0  0  0  0  0  0  0  0  0
  185.7720  178.3380  144.0840 C   0  0  0  0  0  3  0  0  0  0  0  0
  183.4410  178.6400  143.7600 C   0  0  0  0  0  0  0  0  0  0  0  0
  184.8910  178.4620  141.8460 C   0  0  0  0  0  3  0  0  0  0  0  0
  182.0840  178.8060  144.3400 C   0  0  0  0  0  1  0  0  0  0  0  0
  183.6110  178.6260  142.3750 C   0  0  0  0  0  3  0  0  0  0  0  0
  1 17  1  0  0  0  0
  1 30  1  1  0  0  0
  1 25  1  0  0  0  0
  3 23  1  6  0  0  0
  3  2  1  0  0  0  0
  4 11  2  0  0  0  0
  4  7  1  0  0  0  0
  5  2  1  1  0  0  0
  5 19  1  0  0  0  0
  5  9  1  0  0  0  0
  6 15  2  0  0  0  0
  7 27  1  1  0  0  0
  7 20  1  0  0  0  0
  8 21  1  0  0  0  0
  9 39  1  1  0  0  0
 11 14  1  0  0  0  0
 12  8  1  0  0  0  0
 13 22  2  0  0  0  0
 14  8  2  0  0  0  0
 15 16  1  0  0  0  0
 15 17  1  0  0  0  0
 16 12  1  0  0  0  0
 17 18  1  0  0  0  0
 18  3  1  0  0  0  0
 19  9  1  0  0  0  0
 19 10  1  6  0  0  0
 20 21  2  0  0  0  0
 21 24  1  0  0  0  0
 22 10  1  0  0  0  0
 24 22  1  0  0  0  0
 25  3  1  0  0  0  0
 26 27  2  0  0  0  0
 28 27  1  0  0  0  0
 28 29  1  0  0  0  0
 30 31  1  0  0  0  0
 31 32  1  0  0  0  0
 32 33  1  0  0  0  0
 33 34  1  0  0  0  0
 34 37  1  0  0  0  0
 34 35  1  1  0  0  0
 36 37  1  0  0  0  0
 38 36  1  0  0  0  0
 38 37  1  0  0  0  0
 39 40  1  0  0  0  0
 40 42  1  0  0  0  0
 42 43  2  0  0  0  0
 43 41  1  0  0  0  0
 44 46  1  0  0  0  0
 44 41  2  0  0  0  0
 45 47  2  0  0  0  0
 45 42  1  0  0  0  0
 47 44  1  0  0  0  0
M  END
>  <MODEL>
2

>  <REMARK>
 VINA RESULT:      -7.3      3.352     10.189
  Name = 
  11 active torsions:
  status: ('A' for Active; 'I' for Inactive)
    1  A    between atoms: C_2  and  N_24
    2  A    between atoms: C_5  and  N_21
    3  A    between atoms: C_5  and  C_40
    4  A    between atoms: C_7  and  C_42
    5  A    between atoms: C_10  and  C_36
    6  A    between atoms: C_12  and  N_21
    7  A    between atoms: C_12  and  C_43
    8  A    between atoms: C_16  and  N_31
    9  A    between atoms: N_24  and  C_43
   10  A    between atoms: O_25  and  C_36
   11  A    between atoms: N_31  and  C_42
                            x       y       z     vdW  Elec       q    Type
                         _______ _______ _______ _____ _____    ______ ____

>  <TORSDO>
F 11

$$$$
=
 OpenBabel10222420223D

 47 52  0  0  1  0  0  0  0  0999 V2000
  188.5150  178.1030  139.4980 C   0  0  2  0  0  3  0  0  0  0  0  0
  186.3450  176.2090  137.2890 C   0  0  0  0  0  2  0  0  0  0  0  0
  186.8520  177.6320  137.5050 C   0  0  2  0  0  0  0  0  0  0  0  0
  180.4740  180.0040  141.8950 C   0  0  0  0  0  3  0  0  0  0  0  0
  184.8500  176.1540  136.9610 C   0  0  1  0  0  3  0  0  0  0  0  0
  187.5510  179.0180  142.0200 O   0  0  0  0  0  0  0  0  0  0  0  0
  180.5330  179.7510  140.5900 C   0  0  0  0  0  0  0  0  0  0  0  0
  183.0390  178.2840  141.6950 C   0  0  0  0  0  0  0  0  0  0  0  0
  184.4410  174.9720  136.0820 C   0  0  2  0  0  3  0  0  0  0  0  0
  182.7420  175.0450  137.8670 C   0  0  0  0  0  2  0  0  0  0  0  0
  181.2090  179.3120  142.8990 N   0  0  0  0  0  2  0  0  0  0  0  0
  184.4990  177.9690  141.7230 C   0  0  0  0  0  2  0  0  0  0  0  0
  181.6750  177.1590  137.6860 O   0  0  0  0  0  0  0  0  0  0  0  0
  182.5220  178.8370  142.7510 N   0  0  0  0  0  0  0  0  0  0  0  0
  186.7110  178.8750  141.0920 C   0  0  0  0  0  0  0  0  0  0  0  0
  185.2840  179.2150  141.3540 C   0  0  0  0  0  2  0  0  0  0  0  0
  187.1200  178.3760  139.8100 N   0  0  0  0  0  0  0  0  0  0  0  0
  186.1720  178.2480  138.7180 C   0  0  0  0  0  2  0  0  0  0  0  0
  184.2420  174.9060  137.5880 C   0  0  2  0  0  3  0  0  0  0  0  0
  181.2280  178.5910  140.0200 C   0  0  0  0  0  3  0  0  0  0  0  0
  182.2770  177.9070  140.4830 C   0  0  0  0  0  0  0  0  0  0  0  0
  182.3440  176.3800  138.4150 C   0  0  0  0  0  0  0  0  0  0  0  0
  186.5760  178.4890  136.2800 C   0  0  0  0  0  1  0  0  0  0  0  0
  182.7550  176.7730  139.7360 N   0  0  0  0  0  2  0  0  0  0  0  0
  188.6540  177.5660  137.7650 S   0  0  0  0  0  0  0  0  0  0  0  0
  179.2300  181.6680  140.0580 O   0  0  0  0  0  0  0  0  0  0  0  0
  179.7250  180.5740  139.6690 C   0  0  0  0  0  0  0  0  0  0  0  0
  179.5280  180.1450  138.3520 O   0  0  0  0  0  0  0  0  0  0  0  0
  180.1390  180.7960  137.2480 C   0  0  0  0  0  1  0  0  0  0  0  0
  189.1070  177.1230  140.4150 N   0  0  0  0  0  2  0  0  0  0  0  0
  190.5640  177.1360  140.3230 C   0  0  0  0  0  2  0  0  0  0  0  0
  191.1640  177.2130  141.7170 C   0  0  0  0  0  2  0  0  0  0  0  0
  190.2610  176.6030  142.6860 N   0  0  0  0  0  2  0  0  0  0  0  0
  190.1670  177.5020  143.8230 C   0  0  2  0  0  3  0  0  0  0  0  0
  191.4430  177.7250  144.3410 O   0  0  0  0  0  1  0  0  0  0  0  0
  188.2260  177.8790  145.3220 C   0  0  0  0  0  2  0  0  0  0  0  0
  189.2850  176.8770  144.8900 C   0  0  0  0  0  3  0  0  0  0  0  0
  187.8710  176.7690  144.3610 C   0  0  0  0  0  2  0  0  0  0  0  0
  185.5700  174.1380  135.6890 N   0  0  0  0  0  2  0  0  0  0  0  0
  185.0620  173.2010  134.6940 C   0  0  0  0  0  2  0  0  0  0  0  0
  182.5830  171.0590  136.5240 N   0  0  0  0  0  0  0  0  0  0  0  0
  183.7760  172.6080  135.1550 C   0  0  0  0  0  0  0  0  0  0  0  0
  183.7640  171.5970  136.1170 C   0  0  0  0  0  3  0  0  0  0  0  0
  181.3970  171.4830  136.0170 C   0  0  0  0  0  0  0  0  0  0  0  0
  182.5670  173.0640  134.6290 C   0  0  0  0  0  3  0  0  0  0  0  0
  180.1290  170.8640  136.4810 C   0  0  0  0  0  1  0  0  0  0  0  0
  181.3680  172.4980  135.0600 C   0  0  0  0  0  3  0  0  0  0  0  0
  1 17  1  0  0  0  0
  1 30  1  1  0  0  0
  2  3  1  0  0  0  0
  3 23  1  6  0  0  0
  3 25  1  0  0  0  0
  3 18  1  0  0  0  0
  4 11  1  0  0  0  0
  5  2  1  1  0  0  0
  5 19  1  0  0  0  0
  7  4  2  0  0  0  0
  8 12  1  0  0  0  0
  8 14  2  0  0  0  0
  9 39  1  1  0  0  0
  9  5  1  0  0  0  0
  9 19  1  0  0  0  0
 10 22  1  0  0  0  0
 13 22  2  0  0  0  0
 14 11  1  0  0  0  0
 15 16  1  0  0  0  0
 15  6  2  0  0  0  0
 16 12  1  0  0  0  0
 17 15  1  0  0  0  0
 18 17  1  0  0  0  0
 19 10  1  6  0  0  0
 20 21  2  0  0  0  0
 20  7  1  0  0  0  0
 21  8  1  0  0  0  0
 22 24  1  0  0  0  0
 24 21  1  0  0  0  0
 25  1  1  0  0  0  0
 27 26  2  0  0  0  0
 27  7  1  0  0  0  0
 28 27  1  0  0  0  0
 29 28  1  0  0  0  0
 31 30  1  0  0  0  0
 31 32  1  0  0  0  0
 32 33  1  0  0  0  0
 33 34  1  0  0  0  0
 34 35  1  1  0  0  0
 34 37  1  0  0  0  0
 37 36  1  0  0  0  0
 38 37  1  0  0  0  0
 38 36  1  0  0  0  0
 40 42  1  0  0  0  0
 40 39  1  0  0  0  0
 42 43  2  0  0  0  0
 43 41  1  0  0  0  0
 44 46  1  0  0  0  0
 44 41  2  0  0  0  0
 45 47  2  0  0  0  0
 45 42  1  0  0  0  0
 47 44  1  0  0  0  0
M  END
>  <MODEL>
3

>  <REMARK>
 VINA RESULT:      -6.8      2.582      4.610
  Name = 
  11 active torsions:
  status: ('A' for Active; 'I' for Inactive)
    1  A    between atoms: C_2  and  N_24
    2  A    between atoms: C_5  and  N_21
    3  A    between atoms: C_5  and  C_40
    4  A    between atoms: C_7  and  C_42
    5  A    between atoms: C_10  and  C_36
    6  A    between atoms: C_12  and  N_21
    7  A    between atoms: C_12  and  C_43
    8  A    between atoms: C_16  and  N_31
    9  A    between atoms: N_24  and  C_43
   10  A    between atoms: O_25  and  C_36
   11  A    between atoms: N_31  and  C_42
                            x       y       z     vdW  Elec       q    Type
                         _______ _______ _______ _____ _____    ______ ____

>  <TORSDO>
F 11

$$$$
=
 OpenBabel10222420223D

 47 52  0  0  1  0  0  0  0  0999 V2000
  188.5600  178.0100  139.7330 C   0  0  2  0  0  3  0  0  0  0  0  0
  186.7160  176.4490  137.0240 C   0  0  0  0  0  2  0  0  0  0  0  0
  187.2310  177.8170  137.4620 C   0  0  2  0  0  0  0  0  0  0  0  0
  180.3080  180.0860  140.9990 C   0  0  0  0  0  3  0  0  0  0  0  0
  185.2930  176.5030  136.4590 C   0  0  1  0  0  3  0  0  0  0  0  0
  187.2290  178.7300  142.1490 O   0  0  0  0  0  0  0  0  0  0  0  0
  180.5710  179.9550  139.7010 C   0  0  0  0  0  0  0  0  0  0  0  0
  182.8080  178.2630  141.0360 C   0  0  0  0  0  0  0  0  0  0  0  0
  184.9920  175.4310  135.4090 C   0  0  2  0  0  3  0  0  0  0  0  0
  183.0280  175.4220  136.8990 C   0  0  0  0  0  2  0  0  0  0  0  0
  180.8440  179.2640  142.0310 N   0  0  0  0  0  2  0  0  0  0  0  0
  184.2320  177.8720  141.2640 C   0  0  0  0  0  2  0  0  0  0  0  0
  182.0800  177.5950  136.7670 O   0  0  0  0  0  0  0  0  0  0  0  0
  182.1460  178.7380  142.0470 N   0  0  0  0  0  0  0  0  0  0  0  0
  186.5480  178.7190  141.0890 C   0  0  0  0  0  0  0  0  0  0  0  0
  185.1110  179.1060  141.1540 C   0  0  0  0  0  2  0  0  0  0  0  0
  187.1440  178.3240  139.8450 N   0  0  0  0  0  0  0  0  0  0  0  0
  186.3830  178.3490  138.6080 C   0  0  0  0  0  2  0  0  0  0  0  0
  184.5470  175.2330  136.8490 C   0  0  2  0  0  3  0  0  0  0  0  0
  181.3080  178.8210  139.1340 C   0  0  0  0  0  3  0  0  0  0  0  0
  182.2420  178.0430  139.6860 C   0  0  0  0  0  0  0  0  0  0  0  0
  182.5920  176.7180  137.5100 C   0  0  0  0  0  0  0  0  0  0  0  0
  187.1890  178.7990  136.3030 C   0  0  0  0  0  1  0  0  0  0  0  0
  182.7960  176.9610  138.9120 N   0  0  0  0  0  2  0  0  0  0  0  0
  188.9620  177.6340  137.9980 S   0  0  0  0  0  0  0  0  0  0  0  0
  179.1830  180.4850  137.8440 O   0  0  0  0  0  0  0  0  0  0  0  0
  179.9540  180.9020  138.7530 C   0  0  0  0  0  0  0  0  0  0  0  0
  180.2120  182.2710  138.8780 O   0  0  0  0  0  0  0  0  0  0  0  0
  180.0770  183.1660  137.7840 C   0  0  0  0  0  1  0  0  0  0  0  0
  188.9590  176.9180  140.6270 N   0  0  0  0  0  2  0  0  0  0  0  0
  190.4140  176.8120  140.7030 C   0  0  0  0  0  2  0  0  0  0  0  0
  190.8710  177.0780  142.1280 C   0  0  0  0  0  2  0  0  0  0  0  0
  190.1260  178.1960  142.6940 N   0  0  0  0  0  2  0  0  0  0  0  0
  190.4650  178.2780  144.1040 C   0  0  2  0  0  3  0  0  0  0  0  0
  191.8520  178.3230  144.2430 O   0  0  0  0  0  1  0  0  0  0  0  0
  189.1030  177.5080  146.0300 C   0  0  0  0  0  2  0  0  0  0  0  0
  189.9180  177.0600  144.8270 C   0  0  0  0  0  3  0  0  0  0  0  0
  188.4070  177.0810  144.7590 C   0  0  0  0  0  2  0  0  0  0  0  0
  186.1400  174.5820  135.1180 N   0  0  0  0  0  2  0  0  0  0  0  0
  185.9020  173.3200  135.8070 C   0  0  0  0  0  2  0  0  0  0  0  0
  189.3130  171.8560  135.2520 N   0  0  0  0  0  0  0  0  0  0  0  0
  186.9910  172.3510  135.4970 C   0  0  0  0  0  0  0  0  0  0  0  0
  188.3280  172.7480  135.5440 C   0  0  0  0  0  3  0  0  0  0  0  0
  189.0300  170.5710  134.9140 C   0  0  0  0  0  0  0  0  0  0  0  0
  186.6800  171.0330  135.1620 C   0  0  0  0  0  3  0  0  0  0  0  0
  190.1330  169.6290  134.5940 C   0  0  0  0  0  1  0  0  0  0  0  0
  187.7050  170.1350  134.8660 C   0  0  0  0  0  3  0  0  0  0  0  0
  1 17  1  0  0  0  0
  1 30  1  1  0  0  0
  2  3  1  0  0  0  0
  3 23  1  6  0  0  0
  3 25  1  0  0  0  0
  3 18  1  0  0  0  0
  4 11  1  0  0  0  0
  5 19  1  0  0  0  0
  5  2  1  1  0  0  0
  7  4  2  0  0  0  0
  8 12  1  0  0  0  0
  8 14  2  0  0  0  0
  9 39  1  1  0  0  0
  9  5  1  0  0  0  0
  9 19  1  0  0  0  0
 10 22  1  0  0  0  0
 11 14  1  0  0  0  0
 13 22  2  0  0  0  0
 15 16  1  0  0  0  0
 15  6  2  0  0  0  0
 16 12  1  0  0  0  0
 17 15  1  0  0  0  0
 18 17  1  0  0  0  0
 19 10  1  6  0  0  0
 20 21  2  0  0  0  0
 20  7  1  0  0  0  0
 21  8  1  0  0  0  0
 22 24  1  0  0  0  0
 24 21  1  0  0  0  0
 25  1  1  0  0  0  0
 26 27  2  0  0  0  0
 27 28  1  0  0  0  0
 27  7  1  0  0  0  0
 29 28  1  0  0  0  0
 30 31  1  0  0  0  0
 31 32  1  0  0  0  0
 32 33  1  0  0  0  0
 33 34  1  0  0  0  0
 34 35  1  6  0  0  0
 34 37  1  0  0  0  0
 37 36  1  0  0  0  0
 38 37  1  0  0  0  0
 38 36  1  0  0  0  0
 39 40  1  0  0  0  0
 41 43  1  0  0  0  0
 42 43  2  0  0  0  0
 42 40  1  0  0  0  0
 44 41  2  0  0  0  0
 45 42  1  0  0  0  0
 46 44  1  0  0  0  0
 47 44  1  0  0  0  0
 47 45  2  0  0  0  0
M  END
>  <MODEL>
4

>  <REMARK>
 VINA RESULT:      -6.6      2.148      2.798
  Name = 
  11 active torsions:
  status: ('A' for Active; 'I' for Inactive)
    1  A    between atoms: C_2  and  N_24
    2  A    between atoms: C_5  and  N_21
    3  A    between atoms: C_5  and  C_40
    4  A    between atoms: C_7  and  C_42
    5  A    between atoms: C_10  and  C_36
    6  A    between atoms: C_12  and  N_21
    7  A    between atoms: C_12  and  C_43
    8  A    between atoms: C_16  and  N_31
    9  A    between atoms: N_24  and  C_43
   10  A    between atoms: O_25  and  C_36
   11  A    between atoms: N_31  and  C_42
                            x       y       z     vdW  Elec       q    Type
                         _______ _______ _______ _____ _____    ______ ____

>  <TORSDO>
F 11

$$$$
=
 OpenBabel10222420223D

 47 52  0  0  1  0  0  0  0  0999 V2000
  185.8320  176.0410  135.7630 C   0  0  2  0  0  3  0  0  0  0  0  0
  187.4310  177.7660  138.5290 C   0  0  0  0  0  2  0  0  0  0  0  0
  187.3250  177.8250  137.0070 C   0  0  2  0  0  0  0  0  0  0  0  0
  194.0630  173.5400  135.6550 C   0  0  0  0  0  3  0  0  0  0  0  0
  188.8590  177.9910  139.0340 C   0  0  1  0  0  3  0  0  0  0  0  0
  186.9820  173.6600  134.6980 O   0  0  0  0  0  0  0  0  0  0  0  0
  193.9500  174.7840  136.1140 C   0  0  1  0  0  3  0  0  0  0  0  0
  191.1300  173.5930  136.6430 C   0  0  0  0  0  0  0  0  0  0  0  0
  188.9420  178.6310  140.4210 C   0  0  2  0  0  3  0  0  0  0  0  0
  190.5790  176.7880  140.4800 C   0  0  0  0  0  2  0  0  0  0  0  0
  193.1580  172.4770  135.9360 N   0  0  0  0  0  0  0  0  0  0  0  0
  189.6400  173.5960  136.5510 C   0  0  0  0  0  2  0  0  0  0  0  0
  192.1800  177.2650  138.7910 O   0  0  0  0  0  0  0  0  0  0  0  0
  191.7670  172.6180  136.0670 N   0  0  0  0  0  0  0  0  0  0  0  0
  187.7610  174.5000  135.2220 C   0  0  0  0  0  0  0  0  0  0  0  0
  189.2240  174.2170  135.2290 C   0  0  0  0  0  2  0  0  0  0  0  0
  187.2450  175.7000  135.8170 N   0  0  0  0  0  0  0  0  0  0  0  0
  188.1350  176.6970  136.3860 C   0  0  0  0  0  2  0  0  0  0  0  0
  189.1010  177.1270  140.2650 C   0  0  2  0  0  3  0  0  0  0  0  0
  192.9740  175.1870  137.1320 C   0  0  0  0  0  3  0  0  0  0  0  0
  191.7740  174.6760  137.4200 C   0  0  0  0  0  0  0  0  0  0  0  0
  191.3180  176.4540  139.2210 C   0  0  0  0  0  0  0  0  0  0  0  0
  187.8350  179.1590  136.4890 C   0  0  0  0  0  1  0  0  0  0  0  0
  191.0150  175.2460  138.5030 N   0  0  0  0  0  2  0  0  0  0  0  0
  185.5700  177.6620  136.5470 S   0  0  0  0  0  0  0  0  0  0  0  0
  194.6350  176.7620  134.9850 O   0  0  0  0  0  0  0  0  0  0  0  0
  194.9600  175.7830  135.7130 C   0  0  0  0  0  0  0  0  0  0  0  0
  196.2780  175.6510  136.1630 O   0  0  0  0  0  0  0  0  0  0  0  0
  197.2570  174.9340  135.4250 C   0  0  0  0  0  1  0  0  0  0  0  0
  184.9880  175.0060  136.3710 N   0  0  0  0  0  2  0  0  0  0  0  0
  183.6470  175.5200  136.6410 C   0  0  0  0  0  2  0  0  0  0  0  0
  182.6120  174.5850  136.0380 C   0  0  0  0  0  2  0  0  0  0  0  0
  181.8190  173.9650  137.0940 N   0  0  0  0  0  2  0  0  0  0  0  0
  181.2620  172.7350  136.5580 C   0  0  2  0  0  3  0  0  0  0  0  0
  180.1520  172.3640  137.3160 O   0  0  0  0  0  1  0  0  0  0  0  0
  181.8700  170.4690  135.7520 C   0  0  0  0  0  2  0  0  0  0  0  0
  182.3110  171.6380  136.6180 C   0  0  0  0  0  3  0  0  0  0  0  0
  182.9030  171.4450  135.2390 C   0  0  0  0  0  2  0  0  0  0  0  0
  187.6340  178.9410  140.9830 N   0  0  0  0  0  2  0  0  0  0  0  0
  187.4720  178.0790  142.1480 C   0  0  0  0  0  2  0  0  0  0  0  0
  184.7330  178.4990  144.6780 N   0  0  0  0  0  0  0  0  0  0  0  0
  186.1250  178.2780  142.7520 C   0  0  0  0  0  0  0  0  0  0  0  0
  185.9690  178.3240  144.1380 C   0  0  0  0  0  3  0  0  0  0  0  0
  183.6300  178.6350  143.8980 C   0  0  0  0  0  0  0  0  0  0  0  0
  185.0060  178.4250  141.9340 C   0  0  0  0  0  3  0  0  0  0  0  0
  182.2960  178.8160  144.5260 C   0  0  0  0  0  1  0  0  0  0  0  0
  183.7480  178.6030  142.5080 C   0  0  0  0  0  3  0  0  0  0  0  0
  1 17  1  0  0  0  0
  1 30  1  1  0  0  0
  1 25  1  0  0  0  0
  3 23  1  6  0  0  0
  3  2  1  0  0  0  0
  4 11  2  0  0  0  0
  4  7  1  0  0  0  0
  5  2  1  1  0  0  0
  5 19  1  0  0  0  0
  5  9  1  0  0  0  0
  6 15  2  0  0  0  0
  7 27  1  1  0  0  0
  7 20  1  0  0  0  0
  8 21  1  0  0  0  0
  9 39  1  1  0  0  0
 11 14  1  0  0  0  0
 12  8  1  0  0  0  0
 13 22  2  0  0  0  0
 14  8  2  0  0  0  0
 15 16  1  0  0  0  0
 15 17  1  0  0  0  0
 16 12  1  0  0  0  0
 17 18  1  0  0  0  0
 18  3  1  0  0  0  0
 19  9  1  0  0  0  0
 19 10  1  6  0  0  0
 20 21  2  0  0  0  0
 21 24  1  0  0  0  0
 22 10  1  0  0  0  0
 24 22  1  0  0  0  0
 25  3  1  0  0  0  0
 26 27  2  0  0  0  0
 27 28  1  0  0  0  0
 29 28  1  0  0  0  0
 30 31  1  0  0  0  0
 32 31  1  0  0  0  0
 32 33  1  0  0  0  0
 34 37  1  0  0  0  0
 34 33  1  0  0  0  0
 34 35  1  1  0  0  0
 36 37  1  0  0  0  0
 38 36  1  0  0  0  0
 38 37  1  0  0  0  0
 39 40  1  0  0  0  0
 40 42  1  0  0  0  0
 42 43  2  0  0  0  0
 43 41  1  0  0  0  0
 44 46  1  0  0  0  0
 44 41  2  0  0  0  0
 45 47  2  0  0  0  0
 45 42  1  0  0  0  0
 47 44  1  0  0  0  0
M  END
>  <MODEL>
5

>  <REMARK>
 VINA RESULT:      -6.3      3.984     10.707
  Name = 
  11 active torsions:
  status: ('A' for Active; 'I' for Inactive)
    1  A    between atoms: C_2  and  N_24
    2  A    between atoms: C_5  and  N_21
    3  A    between atoms: C_5  and  C_40
    4  A    between atoms: C_7  and  C_42
    5  A    between atoms: C_10  and  C_36
    6  A    between atoms: C_12  and  N_21
    7  A    between atoms: C_12  and  C_43
    8  A    between atoms: C_16  and  N_31
    9  A    between atoms: N_24  and  C_43
   10  A    between atoms: O_25  and  C_36
   11  A    between atoms: N_31  and  C_42
                            x       y       z     vdW  Elec       q    Type
                         _______ _______ _______ _____ _____    ______ ____

>  <TORSDO>
F 11

$$$$
=
 OpenBabel10222420223D

 47 52  0  0  1  0  0  0  0  0999 V2000
  188.1320  178.3200  141.3660 C   0  0  2  0  0  3  0  0  0  0  0  0
  188.1280  176.4090  138.2790 C   0  0  0  0  0  2  0  0  0  0  0  0
  188.2160  177.8510  138.7710 C   0  0  2  0  0  0  0  0  0  0  0  0
  180.3020  179.3660  137.9580 C   0  0  0  0  0  3  0  0  0  0  0  0
  187.2160  176.2520  137.0590 C   0  0  1  0  0  3  0  0  0  0  0  0
  185.6740  178.9720  142.6540 O   0  0  0  0  0  0  0  0  0  0  0  0
  181.2180  179.2110  137.0050 C   0  0  0  0  0  0  0  0  0  0  0  0
  182.5560  177.8860  139.4760 C   0  0  0  0  0  0  0  0  0  0  0  0
  187.6040  175.1030  136.1270 C   0  0  2  0  0  3  0  0  0  0  0  0
  185.1600  174.9080  136.3790 C   0  0  0  0  0  2  0  0  0  0  0  0
  180.2840  178.6700  139.1990 N   0  0  0  0  0  2  0  0  0  0  0  0
  183.6750  177.6940  140.4470 C   0  0  0  0  0  2  0  0  0  0  0  0
  184.2400  176.9330  135.5440 O   0  0  0  0  0  0  0  0  0  0  0  0
  181.4230  178.3180  139.9410 N   0  0  0  0  0  0  0  0  0  0  0  0
  185.6540  178.8240  141.4030 C   0  0  0  0  0  0  0  0  0  0  0  0
  184.3710  179.0250  140.6750 C   0  0  0  0  0  2  0  0  0  0  0  0
  186.8470  178.4520  140.6960 N   0  0  0  0  0  0  0  0  0  0  0  0
  186.8500  178.3210  139.2490 C   0  0  0  0  0  2  0  0  0  0  0  0
  186.4880  174.9160  137.1420 C   0  0  2  0  0  3  0  0  0  0  0  0
  182.2380  178.1560  137.0250 C   0  0  0  0  0  3  0  0  0  0  0  0
  182.8050  177.5320  138.0600 C   0  0  0  0  0  0  0  0  0  0  0  0
  184.3590  176.1640  136.5340 C   0  0  0  0  0  0  0  0  0  0  0  0
  188.7040  178.7650  137.6590 C   0  0  0  0  0  1  0  0  0  0  0  0
  183.7730  176.4970  137.8040 N   0  0  0  0  0  2  0  0  0  0  0  0
  189.4150  177.9190  140.1400 S   0  0  0  0  0  0  0  0  0  0  0  0
  181.2670  179.4940  134.6440 O   0  0  0  0  0  0  0  0  0  0  0  0
  181.1130  180.0250  135.7790 C   0  0  0  0  0  0  0  0  0  0  0  0
  180.8190  181.3890  135.8790 O   0  0  0  0  0  0  0  0  0  0  0  0
  180.3210  182.1350  134.7780 C   0  0  0  0  0  1  0  0  0  0  0  0
  188.0930  177.3310  142.4490 N   0  0  0  0  0  2  0  0  0  0  0  0
  188.1780  177.9840  143.7530 C   0  0  0  0  0  2  0  0  0  0  0  0
  189.0830  177.1770  144.6690 C   0  0  0  0  0  2  0  0  0  0  0  0
  188.5200  177.1270  146.0140 N   0  0  0  0  0  2  0  0  0  0  0  0
  189.5940  176.7690  146.9250 C   0  0  2  0  0  3  0  0  0  0  0  0
  189.4300  177.4610  148.1240 O   0  0  0  0  0  1  0  0  0  0  0  0
  192.0420  176.3710  146.9980 C   0  0  0  0  0  2  0  0  0  0  0  0
  190.9290  177.1370  146.3010 C   0  0  0  0  0  3  0  0  0  0  0  0
  191.5280  175.9060  145.6560 C   0  0  0  0  0  2  0  0  0  0  0  0
  188.8020  174.3970  136.5630 N   0  0  0  0  0  2  0  0  0  0  0  0
  189.8700  174.8010  135.6570 C   0  0  0  0  0  2  0  0  0  0  0  0
  192.8600  175.6700  137.7510 N   0  0  0  0  0  0  0  0  0  0  0  0
  191.1890  174.7100  136.3430 C   0  0  0  0  0  0  0  0  0  0  0  0
  191.6510  175.7620  137.1350 C   0  0  0  0  0  3  0  0  0  0  0  0
  193.6420  174.5680  137.6190 C   0  0  0  0  0  0  0  0  0  0  0  0
  191.9740  173.5650  136.2030 C   0  0  0  0  0  3  0  0  0  0  0  0
  194.9610  174.5090  138.3010 C   0  0  0  0  0  1  0  0  0  0  0  0
  193.2110  173.4920  136.8430 C   0  0  0  0  0  3  0  0  0  0  0  0
  1 30  1  1  0  0  0
  2  3  1  0  0  0  0
  3 23  1  6  0  0  0
  3 18  1  0  0  0  0
  3 25  1  0  0  0  0
  4 11  1  0  0  0  0
  5 19  1  0  0  0  0
  5  2  1  1  0  0  0
  7 20  1  0  0  0  0
  7  4  2  0  0  0  0
  8 14  2  0  0  0  0
  8 12  1  0  0  0  0
  9 39  1  1  0  0  0
  9  5  1  0  0  0  0
  9 19  1  0  0  0  0
 10 22  1  0  0  0  0
 11 14  1  0  0  0  0
 12 16  1  0  0  0  0
 13 22  2  0  0  0  0
 15  6  2  0  0  0  0
 16 15  1  0  0  0  0
 17  1  1  0  0  0  0
 17 15  1  0  0  0  0
 18 17  1  0  0  0  0
 19 10  1  6  0  0  0
 20 21  2  0  0  0  0
 21  8  1  0  0  0  0
 22 24  1  0  0  0  0
 24 21  1  0  0  0  0
 25  1  1  0  0  0  0
 26 27  2  0  0  0  0
 27 28  1  0  0  0  0
 27  7  1  0  0  0  0
 29 28  1  0  0  0  0
 30 31  1  0  0  0  0
 31 32  1  0  0  0  0
 32 33  1  0  0  0  0
 33 34  1  0  0  0  0
 34 35  1  1  0  0  0
 37 34  1  0  0  0  0
 37 36  1  0  0  0  0
 38 37  1  0  0  0  0
 38 36  1  0  0  0  0
 40 42  1  0  0  0  0
 40 39  1  0  0  0  0
 42 43  1  0  0  0  0
 43 41  2  0  0  0  0
 44 41  1  0  0  0  0
 44 46  1  0  0  0  0
 45 42  2  0  0  0  0
 45 47  1  0  0  0  0
 47 44  2  0  0  0  0
M  END
>  <MODEL>
6

>  <REMARK>
 VINA RESULT:      -6.1      1.261      1.692
  Name = 
  11 active torsions:
  status: ('A' for Active; 'I' for Inactive)
    1  A    between atoms: C_2  and  N_24
    2  A    between atoms: C_5  and  N_21
    3  A    between atoms: C_5  and  C_40
    4  A    between atoms: C_7  and  C_42
    5  A    between atoms: C_10  and  C_36
    6  A    between atoms: C_12  and  N_21
    7  A    between atoms: C_12  and  C_43
    8  A    between atoms: C_16  and  N_31
    9  A    between atoms: N_24  and  C_43
   10  A    between atoms: O_25  and  C_36
   11  A    between atoms: N_31  and  C_42
                            x       y       z     vdW  Elec       q    Type
                         _______ _______ _______ _____ _____    ______ ____

>  <TORSDO>
F 11

$$$$
=
 OpenBabel10222420223D

 47 52  0  0  1  0  0  0  0  0999 V2000
  190.3210  177.7790  142.7440 C   0  0  2  0  0  3  0  0  0  0  0  0
  186.7640  178.4590  142.9920 C   0  0  0  0  0  2  0  0  0  0  0  0
  187.7380  177.2840  142.9450 C   0  0  2  0  0  0  0  0  0  0  0  0
  187.0560  176.1090  134.9620 C   0  0  0  0  0  3  0  0  0  0  0  0
  185.5170  178.2310  142.1340 C   0  0  1  0  0  3  0  0  0  0  0  0
  191.6130  177.7940  140.2030 O   0  0  0  0  0  0  0  0  0  0  0  0
  186.1640  175.8530  135.9160 C   0  0  1  0  0  3  0  0  0  0  0  0
  188.0810  177.8790  137.2840 C   0  0  0  0  0  0  0  0  0  0  0  0
  184.2630  178.9430  142.6440 C   0  0  2  0  0  3  0  0  0  0  0  0
  184.2890  179.3770  140.2170 C   0  0  0  0  0  2  0  0  0  0  0  0
  187.9690  177.2010  134.9640 N   0  0  0  0  0  0  0  0  0  0  0  0
  188.9850  178.3310  138.3840 C   0  0  0  0  0  2  0  0  0  0  0  0
  184.1700  177.2540  139.1590 O   0  0  0  0  0  0  0  0  0  0  0  0
  188.6030  177.7180  136.1050 N   0  0  0  0  0  0  0  0  0  0  0  0
  190.3910  177.4870  140.2340 C   0  0  0  0  0  0  0  0  0  0  0  0
  189.7080  177.1260  138.9600 C   0  0  0  0  0  2  0  0  0  0  0  0
  189.6680  177.5020  141.4730 N   0  0  0  0  0  0  0  0  0  0  0  0
  188.2720  177.1080  141.5320 C   0  0  0  0  0  2  0  0  0  0  0  0
  185.0800  179.5540  141.5170 C   0  0  2  0  0  3  0  0  0  0  0  0
  185.8700  176.7750  137.0180 C   0  0  0  0  0  3  0  0  0  0  0  0
  186.6490  177.6880  137.6040 C   0  0  0  0  0  0  0  0  0  0  0  0
  184.8300  178.3150  139.3110 C   0  0  0  0  0  0  0  0  0  0  0  0
  187.0510  176.0040  143.3900 C   0  0  0  0  0  1  0  0  0  0  0  0
  186.1000  178.4970  138.6610 N   0  0  0  0  0  2  0  0  0  0  0  0
  189.1100  177.6300  144.0930 S   0  0  0  0  0  0  0  0  0  0  0  0
  184.1980  174.7410  135.1720 O   0  0  0  0  0  0  0  0  0  0  0  0
  185.3010  174.6640  135.7810 C   0  0  0  0  0  0  0  0  0  0  0  0
  185.7220  173.4410  136.3150 O   0  0  0  0  0  0  0  0  0  0  0  0
  185.3210  173.0050  137.6050 C   0  0  0  0  0  1  0  0  0  0  0  0
  190.9820  179.0890  142.7550 N   0  0  0  0  0  2  0  0  0  0  0  0
  191.5450  179.3780  144.0710 C   0  0  0  0  0  2  0  0  0  0  0  0
  192.3030  178.1630  144.5790 C   0  0  0  0  0  2  0  0  0  0  0  0
  191.6360  177.6090  145.7520 N   0  0  0  0  0  2  0  0  0  0  0  0
  192.1380  176.2600  145.9440 C   0  0  2  0  0  3  0  0  0  0  0  0
  191.6800  175.4460  144.9080 O   0  0  0  0  0  1  0  0  0  0  0  0
  192.8040  175.6280  148.2490 C   0  0  0  0  0  2  0  0  0  0  0  0
  191.6410  175.7210  147.2740 C   0  0  0  0  0  3  0  0  0  0  0  0
  191.8310  176.7790  148.3380 C   0  0  0  0  0  2  0  0  0  0  0  0
  184.4900  179.6770  143.8820 N   0  0  0  0  0  2  0  0  0  0  0  0
  184.0720  178.7950  144.9650 C   0  0  0  0  0  2  0  0  0  0  0  0
  186.7010  179.4790  147.5550 N   0  0  0  0  0  0  0  0  0  0  0  0
  185.1900  178.5990  145.9300 C   0  0  0  0  0  0  0  0  0  0  0  0
  185.6740  179.6700  146.6830 C   0  0  0  0  0  3  0  0  0  0  0  0
  187.2750  178.2600  147.7210 C   0  0  0  0  0  0  0  0  0  0  0  0
  185.7600  177.3370  146.0930 C   0  0  0  0  0  3  0  0  0  0  0  0
  188.3990  178.0940  148.6780 C   0  0  0  0  0  1  0  0  0  0  0  0
  186.8120  177.1640  146.9930 C   0  0  0  0  0  3  0  0  0  0  0  0
  1 30  1  6  0  0  0
  1 25  1  0  0  0  0
  3  2  1  0  0  0  0
  3 23  1  1  0  0  0
  3 25  1  0  0  0  0
  4 11  2  0  0  0  0
  4  7  1  0  0  0  0
  5  9  1  0  0  0  0
  5  2  1  1  0  0  0
  6 15  2  0  0  0  0
  7 27  1  6  0  0  0
  7 20  1  0  0  0  0
  8 21  1  0  0  0  0
  8 12  1  0  0  0  0
  9 39  1  1  0  0  0
 11 14  1  0  0  0  0
 12 16  1  0  0  0  0
 13 22  2  0  0  0  0
 14  8  2  0  0  0  0
 15 17  1  0  0  0  0
 16 15  1  0  0  0  0
 17 18  1  0  0  0  0
 17  1  1  0  0  0  0
 18  3  1  0  0  0  0
 19 10  1  6  0  0  0
 19  5  1  0  0  0  0
 19  9  1  0  0  0  0
 20 21  2  0  0  0  0
 21 24  1  0  0  0  0
 22 10  1  0  0  0  0
 24 22  1  0  0  0  0
 26 27  2  0  0  0  0
 27 28  1  0  0  0  0
 28 29  1  0  0  0  0
 30 31  1  0  0  0  0
 31 32  1  0  0  0  0
 32 33  1  0  0  0  0
 33 34  1  0  0  0  0
 34 35  1  6  0  0  0
 34 37  1  0  0  0  0
 36 38  1  0  0  0  0
 37 36  1  0  0  0  0
 37 38  1  0  0  0  0
 39 40  1  0  0  0  0
 40 42  1  0  0  0  0
 41 44  1  0  0  0  0
 42 45  2  0  0  0  0
 42 43  1  0  0  0  0
 43 41  2  0  0  0  0
 44 46  1  0  0  0  0
 45 47  1  0  0  0  0
 47 44  2  0  0  0  0
M  END
>  <MODEL>
7

>  <REMARK>
 VINA RESULT:      -5.5      3.199      7.395
  Name = 
  11 active torsions:
  status: ('A' for Active; 'I' for Inactive)
    1  A    between atoms: C_2  and  N_24
    2  A    between atoms: C_5  and  N_21
    3  A    between atoms: C_5  and  C_40
    4  A    between atoms: C_7  and  C_42
    5  A    between atoms: C_10  and  C_36
    6  A    between atoms: C_12  and  N_21
    7  A    between atoms: C_12  and  C_43
    8  A    between atoms: C_16  and  N_31
    9  A    between atoms: N_24  and  C_43
   10  A    between atoms: O_25  and  C_36
   11  A    between atoms: N_31  and  C_42
                            x       y       z     vdW  Elec       q    Type
                         _______ _______ _______ _____ _____    ______ ____

>  <TORSDO>
F 11

$$$$
=
 OpenBabel10222420223D

 47 52  0  0  1  0  0  0  0  0999 V2000
  183.4230  175.7230  136.2100 C   0  0  2  0  0  3  0  0  0  0  0  0
  187.0110  176.2780  136.1760 C   0  0  0  0  0  2  0  0  0  0  0  0
  185.9760  175.2940  136.7170 C   0  0  2  0  0  0  0  0  0  0  0  0
  185.4070  178.7890  144.0000 C   0  0  0  0  0  3  0  0  0  0  0  0
  188.1030  176.6110  137.1960 C   0  0  1  0  0  3  0  0  0  0  0  0
  181.7740  177.1040  138.0810 O   0  0  0  0  0  0  0  0  0  0  0  0
  186.4140  178.0780  143.4990 C   0  0  1  0  0  3  0  0  0  0  0  0
  184.8360  178.9280  140.9610 C   0  0  0  0  0  0  0  0  0  0  0  0
  189.4560  176.9630  136.5760 C   0  0  2  0  0  3  0  0  0  0  0  0
  189.0980  178.6740  138.3140 C   0  0  0  0  0  2  0  0  0  0  0  0
  184.5670  179.6610  143.2510 N   0  0  0  0  0  0  0  0  0  0  0  0
  184.1320  178.6570  139.6730 C   0  0  0  0  0  2  0  0  0  0  0  0
  188.9390  177.5060  140.3760 O   0  0  0  0  0  0  0  0  0  0  0  0
  184.1380  179.4320  141.9340 N   0  0  0  0  0  0  0  0  0  0  0  0
  182.9680  176.8760  138.4140 C   0  0  0  0  0  0  0  0  0  0  0  0
  183.4350  177.3100  139.7600 C   0  0  0  0  0  2  0  0  0  0  0  0
  183.8650  176.2240  137.5030 N   0  0  0  0  0  0  0  0  0  0  0  0
  185.2310  175.9150  137.8880 C   0  0  0  0  0  2  0  0  0  0  0  0
  188.5180  178.0680  137.0320 C   0  0  2  0  0  3  0  0  0  0  0  0
  186.9190  178.2390  142.1310 C   0  0  0  0  0  3  0  0  0  0  0  0
  186.2870  178.6430  141.0260 C   0  0  0  0  0  0  0  0  0  0  0  0
  188.3700  178.2780  139.5610 C   0  0  0  0  0  0  0  0  0  0  0  0
  186.6490  174.0080  137.1690 C   0  0  0  0  0  1  0  0  0  0  0  0
  187.0300  178.7450  139.7960 N   0  0  0  0  0  2  0  0  0  0  0  0
  184.8100  174.8920  135.3760 S   0  0  0  0  0  0  0  0  0  0  0  0
  186.6390  176.7180  145.4370 O   0  0  0  0  0  0  0  0  0  0  0  0
  187.1800  177.1970  144.4020 C   0  0  0  0  0  0  0  0  0  0  0  0
  188.5060  176.8770  144.0930 O   0  0  0  0  0  0  0  0  0  0  0  0
  188.8390  175.8180  143.2090 C   0  0  0  0  0  1  0  0  0  0  0  0
  182.8460  176.7800  135.3730 N   0  0  0  0  0  2  0  0  0  0  0  0
  181.5360  176.3850  134.8630 C   0  0  0  0  0  2  0  0  0  0  0  0
  181.1640  175.0190  135.4160 C   0  0  0  0  0  2  0  0  0  0  0  0
  179.8700  175.0830  136.0850 N   0  0  0  0  0  2  0  0  0  0  0  0
  179.7640  173.9170  136.9450 C   0  0  2  0  0  3  0  0  0  0  0  0
  180.3940  174.1820  138.1600 O   0  0  0  0  0  1  0  0  0  0  0  0
  180.2000  171.4790  137.1050 C   0  0  0  0  0  2  0  0  0  0  0  0
  180.4320  172.7310  136.2720 C   0  0  0  0  0  3  0  0  0  0  0  0
  179.3710  171.7310  135.8670 C   0  0  0  0  0  2  0  0  0  0  0  0
  189.4550  176.8750  135.1210 N   0  0  0  0  0  2  0  0  0  0  0  0
  190.0350  175.5790  134.7880 C   0  0  0  0  0  2  0  0  0  0  0  0
  192.2620  174.2410  137.4960 N   0  0  0  0  0  0  0  0  0  0  0  0
  191.2360  175.3200  135.6300 C   0  0  0  0  0  0  0  0  0  0  0  0
  191.1600  174.4640  136.7300 C   0  0  0  0  0  3  0  0  0  0  0  0
  193.4520  174.8320  137.2160 C   0  0  0  0  0  0  0  0  0  0  0  0
  192.4520  175.9280  135.3210 C   0  0  0  0  0  3  0  0  0  0  0  0
  194.6310  174.5690  138.0810 C   0  0  0  0  0  1  0  0  0  0  0  0
  193.5690  175.6860  136.1190 C   0  0  0  0  0  3  0  0  0  0  0  0
  1 30  1  6  0  0  0
  1 17  1  0  0  0  0
  2  3  1  0  0  0  0
  3 23  1  1  0  0  0
  3 18  1  0  0  0  0
  5  2  1  6  0  0  0
  6 15  2  0  0  0  0
  7  4  1  0  0  0  0
  7 27  1  1  0  0  0
  8 21  1  0  0  0  0
  8 14  2  0  0  0  0
  9 39  1  6  0  0  0
  9 19  1  0  0  0  0
  9  5  1  0  0  0  0
 10 22  1  0  0  0  0
 11  4  2  0  0  0  0
 12 16  1  0  0  0  0
 12  8  1  0  0  0  0
 14 11  1  0  0  0  0
 15 16  1  0  0  0  0
 17 18  1  0  0  0  0
 17 15  1  0  0  0  0
 19  5  1  0  0  0  0
 19 10  1  1  0  0  0
 20  7  1  0  0  0  0
 21 20  2  0  0  0  0
 22 24  1  0  0  0  0
 22 13  2  0  0  0  0
 24 21  1  0  0  0  0
 25  1  1  0  0  0  0
 25  3  1  0  0  0  0
 27 26  2  0  0  0  0
 28 27  1  0  0  0  0
 29 28  1  0  0  0  0
 31 30  1  0  0  0  0
 31 32  1  0  0  0  0
 32 33  1  0  0  0  0
 33 34  1  0  0  0  0
 34 35  1  1  0  0  0
 37 34  1  0  0  0  0
 37 36  1  0  0  0  0
 38 37  1  0  0  0  0
 38 36  1  0  0  0  0
 40 39  1  0  0  0  0
 40 42  1  0  0  0  0
 42 43  1  0  0  0  0
 43 41  2  0  0  0  0
 44 41  1  0  0  0  0
 44 46  1  0  0  0  0
 45 42  2  0  0  0  0
 45 47  1  0  0  0  0
 47 44  2  0  0  0  0
M  END
>  <MODEL>
8

>  <REMARK>
 VINA RESULT:      -5.3      2.830      7.720
  Name = 
  11 active torsions:
  status: ('A' for Active; 'I' for Inactive)
    1  A    between atoms: C_2  and  N_24
    2  A    between atoms: C_5  and  N_21
    3  A    between atoms: C_5  and  C_40
    4  A    between atoms: C_7  and  C_42
    5  A    between atoms: C_10  and  C_36
    6  A    between atoms: C_12  and  N_21
    7  A    between atoms: C_12  and  C_43
    8  A    between atoms: C_16  and  N_31
    9  A    between atoms: N_24  and  C_43
   10  A    between atoms: O_25  and  C_36
   11  A    between atoms: N_31  and  C_42
                            x       y       z     vdW  Elec       q    Type
                         _______ _______ _______ _____ _____    ______ ____

>  <TORSDO>
F 11

$$$$
=
 OpenBabel10222420223D

 47 52  0  0  1  0  0  0  0  0999 V2000
  189.0310  178.3440  139.4750 C   0  0  2  0  0  3  0  0  0  0  0  0
  186.7320  176.4910  137.3620 C   0  0  0  0  0  2  0  0  0  0  0  0
  187.2110  177.9180  137.6120 C   0  0  2  0  0  0  0  0  0  0  0  0
  181.1820  179.8150  142.6750 C   0  0  0  0  0  3  0  0  0  0  0  0
  185.2170  176.3980  137.1650 C   0  0  1  0  0  3  0  0  0  0  0  0
  188.2690  179.0870  142.1190 O   0  0  0  0  0  0  0  0  0  0  0  0
  181.1310  179.6340  141.3580 C   0  0  0  0  0  0  0  0  0  0  0  0
  183.7720  178.2040  142.1530 C   0  0  0  0  0  0  0  0  0  0  0  0
  184.7680  175.2500  136.2610 C   0  0  2  0  0  3  0  0  0  0  0  0
  183.2360  175.1640  138.1900 C   0  0  0  0  0  2  0  0  0  0  0  0
  182.0260  179.0980  143.5690 N   0  0  0  0  0  2  0  0  0  0  0  0
  185.2380  177.9430  142.0350 C   0  0  0  0  0  2  0  0  0  0  0  0
  182.0890  177.2440  138.2230 O   0  0  0  0  0  0  0  0  0  0  0  0
  183.3350  178.6810  143.2800 N   0  0  0  0  0  0  0  0  0  0  0  0
  187.3540  178.9620  141.2630 C   0  0  0  0  0  0  0  0  0  0  0  0
  185.9470  179.2350  141.6680 C   0  0  0  0  0  2  0  0  0  0  0  0
  187.6620  178.5480  139.9230 N   0  0  0  0  0  0  0  0  0  0  0  0
  186.6230  178.4430  138.9140 C   0  0  0  0  0  2  0  0  0  0  0  0
  184.7080  175.0960  137.7720 C   0  0  2  0  0  3  0  0  0  0  0  0
  181.8090  178.5330  140.6640 C   0  0  0  0  0  3  0  0  0  0  0  0
  182.9170  177.8650  140.9940 C   0  0  0  0  0  0  0  0  0  0  0  0
  182.8460  176.4530  138.8450 C   0  0  0  0  0  0  0  0  0  0  0  0
  186.7980  178.8280  136.4670 C   0  0  0  0  0  1  0  0  0  0  0  0
  183.3610  176.7900  140.1440 N   0  0  0  0  0  2  0  0  0  0  0  0
  189.0300  177.9050  137.7090 S   0  0  0  0  0  0  0  0  0  0  0  0
  179.5760  181.4150  141.1040 O   0  0  0  0  0  0  0  0  0  0  0  0
  180.2170  180.4740  140.5590 C   0  0  0  0  0  0  0  0  0  0  0  0
  180.0810  180.2360  139.1880 O   0  0  0  0  0  0  0  0  0  0  0  0
  180.8810  180.9050  138.2240 C   0  0  0  0  0  1  0  0  0  0  0  0
  189.7340  177.3390  140.2790 N   0  0  0  0  0  2  0  0  0  0  0  0
  190.4210  176.3750  139.4240 C   0  0  0  0  0  2  0  0  0  0  0  0
  191.8590  176.8160  139.2100 C   0  0  0  0  0  2  0  0  0  0  0  0
  192.2960  176.4700  137.8620 N   0  0  0  0  0  2  0  0  0  0  0  0
  192.2540  175.0230  137.7470 C   0  0  2  0  0  3  0  0  0  0  0  0
  193.5470  174.5140  137.8680 O   0  0  0  0  0  1  0  0  0  0  0  0
  190.7870  173.4190  136.5500 C   0  0  0  0  0  2  0  0  0  0  0  0
  191.6800  174.6400  136.3940 C   0  0  0  0  0  3  0  0  0  0  0  0
  190.1750  174.7950  136.4350 C   0  0  0  0  0  2  0  0  0  0  0  0
  185.8830  174.4810  135.7230 N   0  0  0  0  0  2  0  0  0  0  0  0
  185.3550  173.7250  134.5940 C   0  0  0  0  0  2  0  0  0  0  0  0
  181.8350  172.5500  135.1510 N   0  0  0  0  0  0  0  0  0  0  0  0
  184.1930  172.8990  135.0240 C   0  0  0  0  0  0  0  0  0  0  0  0
  182.8890  173.3090  134.7460 C   0  0  0  0  0  3  0  0  0  0  0  0
  182.0180  171.3850  135.8250 C   0  0  0  0  0  0  0  0  0  0  0  0
  184.4010  171.7010  135.7070 C   0  0  0  0  0  3  0  0  0  0  0  0
  180.8420  170.5870  136.2570 C   0  0  0  0  0  1  0  0  0  0  0  0
  183.3070  170.9370  136.1130 C   0  0  0  0  0  3  0  0  0  0  0  0
  1 17  1  0  0  0  0
  1 30  1  1  0  0  0
  2  3  1  0  0  0  0
  3 23  1  6  0  0  0
  3 25  1  0  0  0  0
  3 18  1  0  0  0  0
  4 11  1  0  0  0  0
  5  2  1  6  0  0  0
  5 19  1  0  0  0  0
  7  4  2  0  0  0  0
  8 14  2  0  0  0  0
  9 39  1  6  0  0  0
  9  5  1  0  0  0  0
  9 19  1  0  0  0  0
 10 22  1  0  0  0  0
 12  8  1  0  0  0  0
 13 22  2  0  0  0  0
 14 11  1  0  0  0  0
 15 16  1  0  0  0  0
 15  6  2  0  0  0  0
 16 12  1  0  0  0  0
 17 15  1  0  0  0  0
 18 17  1  0  0  0  0
 19 10  1  1  0  0  0
 20 21  2  0  0  0  0
 20  7  1  0  0  0  0
 21  8  1  0  0  0  0
 22 24  1  0  0  0  0
 24 21  1  0  0  0  0
 25  1  1  0  0  0  0
 27 26  2  0  0  0  0
 27  7  1  0  0  0  0
 28 27  1  0  0  0  0
 29 28  1  0  0  0  0
 31 30  1  0  0  0  0
 32 31  1  0  0  0  0
 33 32  1  0  0  0  0
 34 33  1  0  0  0  0
 34 35  1  6  0  0  0
 37 38  1  0  0  0  0
 37 36  1  0  0  0  0
 37 34  1  0  0  0  0
 38 36  1  0  0  0  0
 40 42  1  0  0  0  0
 40 39  1  0  0  0  0
 41 44  1  0  0  0  0
 42 45  2  0  0  0  0
 43 42  1  0  0  0  0
 43 41  2  0  0  0  0
 44 47  2  0  0  0  0
 44 46  1  0  0  0  0
 45 47  1  0  0  0  0
M  END
>  <MODEL>
9

>  <REMARK>
 VINA RESULT:      -5.1      2.842      5.886
  Name = 
  11 active torsions:
  status: ('A' for Active; 'I' for Inactive)
    1  A    between atoms: C_2  and  N_24
    2  A    between atoms: C_5  and  N_21
    3  A    between atoms: C_5  and  C_40
    4  A    between atoms: C_7  and  C_42
    5  A    between atoms: C_10  and  C_36
    6  A    between atoms: C_12  and  N_21
    7  A    between atoms: C_12  and  C_43
    8  A    between atoms: C_16  and  N_31
    9  A    between atoms: N_24  and  C_43
   10  A    between atoms: O_25  and  C_36
   11  A    between atoms: N_31  and  C_42
                            x       y       z     vdW  Elec       q    Type
                         _______ _______ _______ _____ _____    ______ ____

>  <TORSDO>
F 11

$$$$
