=
 OpenBabel10222416353D

 32 38  0  0  1  0  0  0  0  0999 V2000
  187.3870  178.0520  143.3170 C   0  0  0  0  0  0  0  0  0  0  0  0
  187.9180  178.3330  140.5280 C   0  0  0  0  0  0  0  0  0  0  0  0
  182.9920  179.1210  139.9530 C   0  0  0  0  0  2  0  0  0  0  0  0
  181.8310  178.7940  143.3970 N   0  0  0  0  0  2  0  0  0  0  0  0
  179.1890  179.2720  142.8400 N   0  0  0  0  0  0  0  0  0  0  0  0
  184.2470  178.8250  140.6970 C   0  0  0  0  0  0  0  0  0  0  0  0
  188.6910  177.9890  142.8040 O   0  0  0  0  0  0  0  0  0  0  0  0
  188.1780  178.6280  139.2930 N   0  0  0  0  0  0  0  0  0  0  0  0
  181.9860  179.1160  141.0210 N   0  0  0  0  0  0  0  0  0  0  0  0
  186.3140  178.2880  142.4370 C   0  0  0  0  0  0  0  0  0  0  0  0
  179.2700  179.0650  144.1840 C   0  0  0  0  0  2  0  0  0  0  0  0
  180.4210  178.9960  143.4670 C   0  0  0  0  0  0  0  0  0  0  0  0
  185.8220  178.0450  145.1770 C   0  0  0  0  0  3  0  0  0  0  0  0
  188.9780  177.7530  141.4230 C   0  0  0  0  0  2  0  0  0  0  0  0
  184.9970  178.4060  142.9390 C   0  0  0  0  0  0  0  0  0  0  0  0
  187.1440  177.9280  144.7080 C   0  0  0  0  0  0  0  0  0  0  0  0
  185.5070  178.7260  140.2030 N   0  0  0  0  0  0  0  0  0  0  0  0
  184.7580  178.2810  144.3060 C   0  0  0  0  0  3  0  0  0  0  0  0
  186.5470  178.4550  141.0480 C   0  0  0  0  0  0  0  0  0  0  0  0
  183.9760  178.6700  142.0250 C   0  0  0  0  0  0  0  0  0  0  0  0
  182.5490  178.8650  142.1640 C   0  0  0  0  0  0  0  0  0  0  0  0
  188.2290  177.6720  145.6970 C   0  0  0  0  0  0  0  0  0  0  0  0
  189.4840  177.1790  145.3010 C   0  0  0  0  0  3  0  0  0  0  0  0
  190.2440  177.1620  147.5980 C   0  0  0  0  0  3  0  0  0  0  0  0
  188.0000  177.8950  147.0670 C   0  0  0  0  0  3  0  0  0  0  0  0
  190.4860  176.9290  146.2430 C   0  0  0  0  0  3  0  0  0  0  0  0
  189.0010  177.6450  148.0110 C   0  0  0  0  0  3  0  0  0  0  0  0
  189.4400  178.4780  138.7640 O   0  0  0  0  0  0  0  0  0  0  0  0
  189.4540  175.3150  137.1310 C   0  0  0  0  0  1  0  0  0  0  0  0
  189.7650  176.2120  138.2280 N   0  0  0  0  0  0  0  0  0  0  0  0
  189.6580  177.5770  137.6940 C   0  0  2  0  0  3  0  0  0  0  0  0
  190.9690  176.9570  137.8340 C   0  0  0  0  0  2  0  0  0  0  0  0
  1 16  1  0  0  0  0
  2 19  1  0  0  0  0
  2 14  1  0  0  0  0
  3  6  1  0  0  0  0
  3  9  1  0  0  0  0
  4 12  1  0  0  0  0
  5 12  2  0  0  0  0
  5 11  1  0  0  0  0
  6 20  2  0  0  0  0
  7  1  1  0  0  0  0
  8  2  2  0  0  0  0
  9 21  2  0  0  0  0
 10 15  1  0  0  0  0
 10  1  2  0  0  0  0
 12 11  1  0  0  0  0
 14  7  1  0  0  0  0
 15 18  2  0  0  0  0
 16 13  2  0  0  0  0
 16 22  1  0  0  0  0
 17  6  1  0  0  0  0
 17 19  2  0  0  0  0
 18 13  1  0  0  0  0
 19 10  1  0  0  0  0
 20 21  1  0  0  0  0
 20 15  1  0  0  0  0
 21  4  1  0  0  0  0
 22 25  1  0  0  0  0
 23 22  2  0  0  0  0
 23 26  1  0  0  0  0
 24 27  1  0  0  0  0
 25 27  2  0  0  0  0
 26 24  2  0  0  0  0
 28  8  1  0  0  0  0
 29 30  1  0  0  0  0
 31 32  1  0  0  0  0
 31 30  1  0  0  0  0
 31 28  1  1  0  0  0
 32 30  1  0  0  0  0
M  END
>  <MODEL>
1

>  <REMARK>
 VINA RESULT:     -11.1      0.000      0.000
  Name = 
  3 active torsions:
  status: ('A' for Active; 'I' for Inactive)
    1  A    between atoms: C_3  and  C_21
    2  A    between atoms: O_8  and  N_11
    3  A    between atoms: O_8  and  C_28
                            x       y       z     vdW  Elec       q    Type
                         _______ _______ _______ _____ _____    ______ ____

>  <TORSDO>
F 3

$$$$
=
 OpenBabel10222416353D

 32 38  0  0  1  0  0  0  0  0999 V2000
  187.8870  177.8930  142.3030 C   0  0  0  0  0  0  0  0  0  0  0  0
  185.9410  178.9040  140.4780 C   0  0  0  0  0  0  0  0  0  0  0  0
  189.1120  177.5990  136.8090 C   0  0  0  0  0  2  0  0  0  0  0  0
  191.8940  176.2470  138.7450 N   0  0  0  0  0  2  0  0  0  0  0  0
  193.4460  175.6020  136.5780 N   0  0  0  0  0  0  0  0  0  0  0  0
  188.6470  177.7650  138.2130 C   0  0  0  0  0  0  0  0  0  0  0  0
  186.6500  178.3880  142.7420 O   0  0  0  0  0  0  0  0  0  0  0  0
  184.9950  179.2030  139.6450 N   0  0  0  0  0  0  0  0  0  0  0  0
  190.4320  176.9830  136.9860 N   0  0  0  0  0  0  0  0  0  0  0  0
  188.1660  177.8690  140.9240 C   0  0  0  0  0  0  0  0  0  0  0  0
  194.1530  175.2370  137.6830 C   0  0  0  0  0  2  0  0  0  0  0  0
  192.9310  175.7960  137.8760 C   0  0  0  0  0  0  0  0  0  0  0  0
  190.0420  176.8520  142.7270 C   0  0  0  0  0  3  0  0  0  0  0  0
  185.8140  179.2270  141.9400 C   0  0  0  0  0  2  0  0  0  0  0  0
  189.3860  177.3270  140.4550 C   0  0  0  0  0  0  0  0  0  0  0  0
  188.8350  177.3790  143.2240 C   0  0  0  0  0  0  0  0  0  0  0  0
  187.4680  178.2760  138.6470 N   0  0  0  0  0  0  0  0  0  0  0  0
  190.3190  176.8240  141.3610 C   0  0  0  0  0  3  0  0  0  0  0  0
  187.2100  178.3410  139.9890 C   0  0  0  0  0  0  0  0  0  0  0  0
  189.5960  177.3000  139.0760 C   0  0  0  0  0  0  0  0  0  0  0  0
  190.6850  176.8240  138.2500 C   0  0  0  0  0  0  0  0  0  0  0  0
  188.6110  177.3790  144.6970 C   0  0  0  0  0  0  0  0  0  0  0  0
  187.3320  177.5690  145.2460 C   0  0  0  0  0  3  0  0  0  0  0  0
  188.2300  177.4110  147.4880 C   0  0  0  0  0  3  0  0  0  0  0  0
  189.6990  177.2150  145.5740 C   0  0  0  0  0  3  0  0  0  0  0  0
  187.1410  177.5810  146.6310 C   0  0  0  0  0  3  0  0  0  0  0  0
  189.5100  177.2280  146.9600 C   0  0  0  0  0  3  0  0  0  0  0  0
  183.8150  179.7740  140.0660 O   0  0  0  0  0  0  0  0  0  0  0  0
  180.5250  178.6150  140.7750 C   0  0  0  0  0  1  0  0  0  0  0  0
  181.9430  178.7510  141.0520 N   0  0  0  0  0  0  0  0  0  0  0  0
  182.5800  179.1410  139.7870 C   0  0  2  0  0  3  0  0  0  0  0  0
  182.6320  177.7520  140.2240 C   0  0  0  0  0  2  0  0  0  0  0  0
  1  7  1  0  0  0  0
  1 16  1  0  0  0  0
  2 14  1  0  0  0  0
  3  9  1  0  0  0  0
  3  6  1  0  0  0  0
  5 11  1  0  0  0  0
  5 12  2  0  0  0  0
  6 17  1  0  0  0  0
  6 20  2  0  0  0  0
  8 28  1  0  0  0  0
  8  2  2  0  0  0  0
  9 21  2  0  0  0  0
 10  1  2  0  0  0  0
 11 12  1  0  0  0  0
 12  4  1  0  0  0  0
 13 16  2  0  0  0  0
 14  7  1  0  0  0  0
 15 10  1  0  0  0  0
 15 18  2  0  0  0  0
 16 22  1  0  0  0  0
 17 19  2  0  0  0  0
 18 13  1  0  0  0  0
 19  2  1  0  0  0  0
 19 10  1  0  0  0  0
 20 15  1  0  0  0  0
 21  4  1  0  0  0  0
 21 20  1  0  0  0  0
 22 23  2  0  0  0  0
 22 25  1  0  0  0  0
 23 26  1  0  0  0  0
 25 27  2  0  0  0  0
 26 24  2  0  0  0  0
 27 24  1  0  0  0  0
 29 30  1  0  0  0  0
 31 28  1  1  0  0  0
 31 32  1  0  0  0  0
 31 30  1  0  0  0  0
 32 30  1  0  0  0  0
M  END
>  <MODEL>
2

>  <REMARK>
 VINA RESULT:     -10.3      1.898      7.246
  Name = 
  3 active torsions:
  status: ('A' for Active; 'I' for Inactive)
    1  A    between atoms: C_3  and  C_21
    2  A    between atoms: O_8  and  N_11
    3  A    between atoms: O_8  and  C_28
                            x       y       z     vdW  Elec       q    Type
                         _______ _______ _______ _____ _____    ______ ____

>  <TORSDO>
F 3

$$$$
=
 OpenBabel10222416353D

 32 38  0  0  1  0  0  0  0  0999 V2000
  186.7130  178.3650  141.5210 C   0  0  0  0  0  0  0  0  0  0  0  0
  184.4010  178.9630  143.0810 C   0  0  0  0  0  0  0  0  0  0  0  0
  187.1180  177.6620  147.0990 C   0  0  0  0  0  2  0  0  0  0  0  0
  190.2780  176.7320  145.5280 N   0  0  0  0  0  2  0  0  0  0  0  0
  191.5670  176.0960  147.8630 N   0  0  0  0  0  0  0  0  0  0  0  0
  186.8440  177.8810  145.6520 C   0  0  0  0  0  0  0  0  0  0  0  0
  185.5410  178.8710  140.9390 O   0  0  0  0  0  0  0  0  0  0  0  0
  183.4150  179.3930  143.8040 N   0  0  0  0  0  0  0  0  0  0  0  0
  188.5090  177.1930  147.0870 N   0  0  0  0  0  0  0  0  0  0  0  0
  186.7610  178.1730  142.9140 C   0  0  0  0  0  0  0  0  0  0  0  0
  192.4600  175.8820  146.8570 C   0  0  0  0  0  2  0  0  0  0  0  0
  191.2230  176.3280  146.5150 C   0  0  0  0  0  0  0  0  0  0  0  0
  189.0250  177.6280  141.3700 C   0  0  0  0  0  3  0  0  0  0  0  0
  184.2680  178.8360  141.5890 C   0  0  0  0  0  2  0  0  0  0  0  0
  187.9490  177.7120  143.5280 C   0  0  0  0  0  0  0  0  0  0  0  0
  187.8590  178.0900  140.7320 C   0  0  0  0  0  0  0  0  0  0  0  0
  185.7010  178.3350  145.0790 N   0  0  0  0  0  0  0  0  0  0  0  0
  189.0740  177.4400  142.7510 C   0  0  0  0  0  3  0  0  0  0  0  0
  185.6360  178.4830  143.7210 C   0  0  0  0  0  0  0  0  0  0  0  0
  187.9490  177.5700  144.9150 C   0  0  0  0  0  0  0  0  0  0  0  0
  188.9540  177.1490  145.8680 C   0  0  0  0  0  0  0  0  0  0  0  0
  187.8800  178.2640  139.2510 C   0  0  0  0  0  0  0  0  0  0  0  0
  186.7710  177.9280  138.4560 C   0  0  0  0  0  3  0  0  0  0  0  0
  187.9680  178.5680  136.4520 C   0  0  0  0  0  3  0  0  0  0  0  0
  189.0380  178.7450  138.6160 C   0  0  0  0  0  3  0  0  0  0  0  0
  186.8120  178.0820  137.0680 C   0  0  0  0  0  3  0  0  0  0  0  0
  189.0820  178.9000  137.2260 C   0  0  0  0  0  3  0  0  0  0  0  0
  182.2290  179.8030  143.2370 O   0  0  0  0  0  0  0  0  0  0  0  0
  179.6950  177.7670  141.7870 C   0  0  0  0  0  1  0  0  0  0  0  0
  180.4570  178.9940  141.9210 N   0  0  0  0  0  0  0  0  0  0  0  0
  181.1070  178.9410  143.2380 C   0  0  2  0  0  3  0  0  0  0  0  0
  179.8890  179.7210  143.0650 C   0  0  0  0  0  2  0  0  0  0  0  0
  1 10  1  0  0  0  0
  2 19  1  0  0  0  0
  2  8  2  0  0  0  0
  4 21  1  0  0  0  0
  4 12  1  0  0  0  0
  6  3  1  0  0  0  0
  7  1  1  0  0  0  0
  7 14  1  0  0  0  0
  9  3  1  0  0  0  0
 10 15  2  0  0  0  0
 10 19  1  0  0  0  0
 11  5  1  0  0  0  0
 12 11  1  0  0  0  0
 12  5  2  0  0  0  0
 13 18  2  0  0  0  0
 14  2  1  0  0  0  0
 15 20  1  0  0  0  0
 16 13  1  0  0  0  0
 16  1  2  0  0  0  0
 17  6  1  0  0  0  0
 18 15  1  0  0  0  0
 19 17  2  0  0  0  0
 20  6  2  0  0  0  0
 20 21  1  0  0  0  0
 21  9  2  0  0  0  0
 22 16  1  0  0  0  0
 23 22  2  0  0  0  0
 24 26  2  0  0  0  0
 24 27  1  0  0  0  0
 25 22  1  0  0  0  0
 26 23  1  0  0  0  0
 27 25  2  0  0  0  0
 28  8  1  0  0  0  0
 29 30  1  0  0  0  0
 30 32  1  0  0  0  0
 30 31  1  0  0  0  0
 31 28  1  6  0  0  0
 32 31  1  0  0  0  0
M  END
>  <MODEL>
3

>  <REMARK>
 VINA RESULT:     -10.1      3.199      8.211
  Name = 
  3 active torsions:
  status: ('A' for Active; 'I' for Inactive)
    1  A    between atoms: C_3  and  C_21
    2  A    between atoms: O_8  and  N_11
    3  A    between atoms: O_8  and  C_28
                            x       y       z     vdW  Elec       q    Type
                         _______ _______ _______ _____ _____    ______ ____

>  <TORSDO>
F 3

$$$$
=
 OpenBabel10222416353D

 32 38  0  0  1  0  0  0  0  0999 V2000
  186.1830  178.2780  141.9850 C   0  0  0  0  0  0  0  0  0  0  0  0
  187.7190  178.2530  139.5810 C   0  0  0  0  0  0  0  0  0  0  0  0
  191.6720  177.0780  142.4480 C   0  0  0  0  0  2  0  0  0  0  0  0
  190.1400  177.0450  145.7600 N   0  0  0  0  0  2  0  0  0  0  0  0
  192.4300  176.3780  147.1130 N   0  0  0  0  0  0  0  0  0  0  0  0
  190.2540  177.4270  142.1590 C   0  0  0  0  0  0  0  0  0  0  0  0
  185.5940  178.4940  140.7300 O   0  0  0  0  0  0  0  0  0  0  0  0
  188.3800  178.0740  138.4810 N   0  0  0  0  0  0  0  0  0  0  0  0
  191.6630  176.9150  143.9070 N   0  0  0  0  0  0  0  0  0  0  0  0
  187.5640  178.0150  142.0590 C   0  0  0  0  0  0  0  0  0  0  0  0
  191.4470  176.4910  148.0490 C   0  0  0  0  0  2  0  0  0  0  0  0
  191.1090  176.7150  146.7520 C   0  0  0  0  0  0  0  0  0  0  0  0
  186.0330  178.0100  144.3960 C   0  0  0  0  0  3  0  0  0  0  0  0
  186.3430  178.8560  139.5670 C   0  0  0  0  0  2  0  0  0  0  0  0
  188.1700  177.7440  143.3080 C   0  0  0  0  0  0  0  0  0  0  0  0
  185.4010  178.2770  143.1680 C   0  0  0  0  0  0  0  0  0  0  0  0
  189.6840  177.6730  140.9520 N   0  0  0  0  0  0  0  0  0  0  0  0
  187.4000  177.7460  144.4700 C   0  0  0  0  0  3  0  0  0  0  0  0
  188.3510  177.9720  140.8800 C   0  0  0  0  0  0  0  0  0  0  0  0
  189.5350  177.4590  143.3190 C   0  0  0  0  0  0  0  0  0  0  0  0
  190.4700  177.1290  144.3730 C   0  0  0  0  0  0  0  0  0  0  0  0
  183.9360  178.5550  143.1660 C   0  0  0  0  0  0  0  0  0  0  0  0
  183.2260  178.7590  144.3610 C   0  0  0  0  0  3  0  0  0  0  0  0
  181.1620  179.0380  143.1290 C   0  0  0  0  0  3  0  0  0  0  0  0
  183.2280  178.5870  141.9520 C   0  0  0  0  0  3  0  0  0  0  0  0
  181.8500  179.0030  144.3440 C   0  0  0  0  0  3  0  0  0  0  0  0
  181.8510  178.8310  141.9320 C   0  0  0  0  0  3  0  0  0  0  0  0
  187.8330  178.3730  137.2530 O   0  0  0  0  0  0  0  0  0  0  0  0
  186.3520  176.4440  134.6540 C   0  0  0  0  0  1  0  0  0  0  0  0
  186.3980  177.0040  135.9920 N   0  0  0  0  0  0  0  0  0  0  0  0
  187.7950  177.3910  136.2340 C   0  0  2  0  0  3  0  0  0  0  0  0
  187.2870  176.1390  136.7800 C   0  0  0  0  0  2  0  0  0  0  0  0
  1 10  2  0  0  0  0
  1 16  1  0  0  0  0
  2 19  1  0  0  0  0
  3  9  1  0  0  0  0
  4 12  1  0  0  0  0
  5 11  1  0  0  0  0
  6  3  1  0  0  0  0
  6 20  2  0  0  0  0
  7  1  1  0  0  0  0
  8  2  2  0  0  0  0
  9 21  2  0  0  0  0
 10 15  1  0  0  0  0
 12  5  2  0  0  0  0
 12 11  1  0  0  0  0
 13 18  1  0  0  0  0
 14  2  1  0  0  0  0
 14  7  1  0  0  0  0
 15 20  1  0  0  0  0
 15 18  2  0  0  0  0
 16 13  2  0  0  0  0
 17  6  1  0  0  0  0
 19 17  2  0  0  0  0
 19 10  1  0  0  0  0
 20 21  1  0  0  0  0
 21  4  1  0  0  0  0
 22 16  1  0  0  0  0
 22 23  1  0  0  0  0
 24 26  1  0  0  0  0
 25 22  2  0  0  0  0
 26 23  2  0  0  0  0
 27 25  1  0  0  0  0
 27 24  2  0  0  0  0
 28  8  1  0  0  0  0
 29 30  1  0  0  0  0
 30 31  1  0  0  0  0
 30 32  1  0  0  0  0
 31 32  1  0  0  0  0
 31 28  1  1  0  0  0
M  END
>  <MODEL>
4

>  <REMARK>
 VINA RESULT:      -9.4      3.167      6.736
  Name = 
  3 active torsions:
  status: ('A' for Active; 'I' for Inactive)
    1  A    between atoms: C_3  and  C_21
    2  A    between atoms: O_8  and  N_11
    3  A    between atoms: O_8  and  C_28
                            x       y       z     vdW  Elec       q    Type
                         _______ _______ _______ _____ _____    ______ ____

>  <TORSDO>
F 3

$$$$
=
 OpenBabel10222416353D

 32 38  0  0  1  0  0  0  0  0999 V2000
  184.0940  178.7220  142.0490 C   0  0  0  0  0  0  0  0  0  0  0  0
  185.9310  178.6280  139.8700 C   0  0  0  0  0  0  0  0  0  0  0  0
  189.5240  177.8600  143.2940 C   0  0  0  0  0  2  0  0  0  0  0  0
  187.5740  177.9540  146.3770 N   0  0  0  0  0  2  0  0  0  0  0  0
  189.6960  177.5030  148.0550 N   0  0  0  0  0  0  0  0  0  0  0  0
  188.1410  178.1100  142.8020 C   0  0  0  0  0  0  0  0  0  0  0  0
  183.6650  178.8240  140.7180 O   0  0  0  0  0  0  0  0  0  0  0  0
  186.7380  178.4160  138.8780 N   0  0  0  0  0  0  0  0  0  0  0  0
  189.3310  177.7900  144.7470 N   0  0  0  0  0  0  0  0  0  0  0  0
  185.4640  178.5410  142.3180 C   0  0  0  0  0  0  0  0  0  0  0  0
  188.5940  177.6210  148.8470 C   0  0  0  0  0  2  0  0  0  0  0  0
  188.4190  177.7420  147.5050 C   0  0  0  0  0  0  0  0  0  0  0  0
  183.6410  178.6010  144.4350 C   0  0  0  0  0  3  0  0  0  0  0  0
  184.5420  179.1520  139.6370 C   0  0  0  0  0  2  0  0  0  0  0  0
  185.9120  178.3840  143.6500 C   0  0  0  0  0  0  0  0  0  0  0  0
  183.1640  178.7530  143.1200 C   0  0  0  0  0  0  0  0  0  0  0  0
  187.7240  178.2470  141.5180 N   0  0  0  0  0  0  0  0  0  0  0  0
  184.9980  178.4180  144.7020 C   0  0  0  0  0  3  0  0  0  0  0  0
  186.3990  178.4660  141.2550 C   0  0  0  0  0  0  0  0  0  0  0  0
  187.2760  178.1760  143.8550 C   0  0  0  0  0  0  0  0  0  0  0  0
  188.0790  177.9670  145.0410 C   0  0  0  0  0  0  0  0  0  0  0  0
  181.7010  178.9480  142.9120 C   0  0  0  0  0  0  0  0  0  0  0  0
  181.1860  179.3930  141.6830 C   0  0  0  0  0  3  0  0  0  0  0  0
  178.9330  179.3430  142.5670 C   0  0  0  0  0  3  0  0  0  0  0  0
  180.8030  178.7150  143.9700 C   0  0  0  0  0  3  0  0  0  0  0  0
  179.8120  179.5860  141.5090 C   0  0  0  0  0  3  0  0  0  0  0  0
  179.4280  178.9080  143.7980 C   0  0  0  0  0  3  0  0  0  0  0  0
  186.3440  178.6050  137.5730 O   0  0  0  0  0  0  0  0  0  0  0  0
  186.1780  176.2800  134.8820 C   0  0  0  0  0  1  0  0  0  0  0  0
  185.8700  176.7390  136.2240 N   0  0  0  0  0  0  0  0  0  0  0  0
  186.8600  177.7760  136.5480 C   0  0  2  0  0  3  0  0  0  0  0  0
  187.0390  176.4230  137.0560 C   0  0  0  0  0  2  0  0  0  0  0  0
  1 10  2  0  0  0  0
  1 16  1  0  0  0  0
  2 19  1  0  0  0  0
  3  9  1  0  0  0  0
  4 12  1  0  0  0  0
  5 11  1  0  0  0  0
  6  3  1  0  0  0  0
  6 20  2  0  0  0  0
  7  1  1  0  0  0  0
  8  2  2  0  0  0  0
  9 21  2  0  0  0  0
 10 15  1  0  0  0  0
 12  5  2  0  0  0  0
 12 11  1  0  0  0  0
 13 18  1  0  0  0  0
 14  2  1  0  0  0  0
 14  7  1  0  0  0  0
 15 20  1  0  0  0  0
 15 18  2  0  0  0  0
 16 13  2  0  0  0  0
 17  6  1  0  0  0  0
 19 17  2  0  0  0  0
 19 10  1  0  0  0  0
 20 21  1  0  0  0  0
 21  4  1  0  0  0  0
 22 16  1  0  0  0  0
 22 25  1  0  0  0  0
 23 22  2  0  0  0  0
 24 27  1  0  0  0  0
 26 23  1  0  0  0  0
 26 24  2  0  0  0  0
 27 25  2  0  0  0  0
 28  8  1  0  0  0  0
 29 30  1  0  0  0  0
 30 31  1  0  0  0  0
 30 32  1  0  0  0  0
 31 32  1  0  0  0  0
 31 28  1  1  0  0  0
M  END
>  <MODEL>
5

>  <REMARK>
 VINA RESULT:      -9.4      2.965      6.543
  Name = 
  3 active torsions:
  status: ('A' for Active; 'I' for Inactive)
    1  A    between atoms: C_3  and  C_21
    2  A    between atoms: O_8  and  N_11
    3  A    between atoms: O_8  and  C_28
                            x       y       z     vdW  Elec       q    Type
                         _______ _______ _______ _____ _____    ______ ____

>  <TORSDO>
F 3

$$$$
=
 OpenBabel10222416353D

 32 38  0  0  1  0  0  0  0  0999 V2000
  187.7780  177.9340  141.2040 C   0  0  0  0  0  0  0  0  0  0  0  0
  188.9890  177.5410  143.7570 C   0  0  0  0  0  0  0  0  0  0  0  0
  184.4710  178.4860  145.7350 C   0  0  0  0  0  2  0  0  0  0  0  0
  182.5140  179.1250  142.7220 N   0  0  0  0  0  2  0  0  0  0  0  0
  180.1460  179.5830  144.0270 N   0  0  0  0  0  0  0  0  0  0  0  0
  185.4750  178.3230  144.6490 C   0  0  0  0  0  0  0  0  0  0  0  0
  189.1230  177.5600  141.3330 O   0  0  0  0  0  0  0  0  0  0  0  0
  189.4920  177.1980  144.9010 N   0  0  0  0  0  0  0  0  0  0  0  0
  183.2510  178.8130  144.9870 N   0  0  0  0  0  0  0  0  0  0  0  0
  186.9960  178.0940  142.3630 C   0  0  0  0  0  0  0  0  0  0  0  0
  179.8890  179.7260  142.6970 C   0  0  0  0  0  2  0  0  0  0  0  0
  181.1600  179.4130  143.0620 C   0  0  0  0  0  0  0  0  0  0  0  0
  185.8220  178.4400  139.8510 C   0  0  0  0  0  3  0  0  0  0  0  0
  189.8640  177.7100  142.5470 C   0  0  0  0  0  2  0  0  0  0  0  0
  185.6240  178.4220  142.2550 C   0  0  0  0  0  0  0  0  0  0  0  0
  187.1880  178.1090  139.9260 C   0  0  0  0  0  0  0  0  0  0  0  0
  186.7870  177.9970  144.7680 N   0  0  0  0  0  0  0  0  0  0  0  0
  185.0460  178.5950  140.9990 C   0  0  0  0  0  3  0  0  0  0  0  0
  187.5620  177.8830  143.6460 C   0  0  0  0  0  0  0  0  0  0  0  0
  184.8900  178.5370  143.4360 C   0  0  0  0  0  0  0  0  0  0  0  0
  183.5010  178.8360  143.7130 C   0  0  0  0  0  0  0  0  0  0  0  0
  187.9560  177.9630  138.6570 C   0  0  0  0  0  0  0  0  0  0  0  0
  188.6110  179.0550  138.0640 C   0  0  0  0  0  3  0  0  0  0  0  0
  189.3650  177.6580  136.2370 C   0  0  0  0  0  3  0  0  0  0  0  0
  188.0110  176.7160  138.0080 C   0  0  0  0  0  3  0  0  0  0  0  0
  189.3140  178.9040  136.8650 C   0  0  0  0  0  3  0  0  0  0  0  0
  188.7130  176.5630  136.8080 C   0  0  0  0  0  3  0  0  0  0  0  0
  190.8320  176.9200  145.0460 O   0  0  0  0  0  0  0  0  0  0  0  0
  192.5560  175.8270  147.9620 C   0  0  0  0  0  1  0  0  0  0  0  0
  191.4910  175.7560  146.9800 N   0  0  0  0  0  0  0  0  0  0  0  0
  191.4540  177.0640  146.3100 C   0  0  2  0  0  3  0  0  0  0  0  0
  190.4950  176.7650  147.3650 C   0  0  0  0  0  2  0  0  0  0  0  0
  1  7  1  0  0  0  0
  1 10  1  0  0  0  0
  2  8  2  0  0  0  0
  4 12  1  0  0  0  0
  4 21  1  0  0  0  0
  6 17  1  0  0  0  0
  6  3  1  0  0  0  0
  7 14  1  0  0  0  0
  8 28  1  0  0  0  0
  9  3  1  0  0  0  0
 10 19  1  0  0  0  0
 11 12  1  0  0  0  0
 11  5  1  0  0  0  0
 12  5  2  0  0  0  0
 13 16  1  0  0  0  0
 13 18  2  0  0  0  0
 14  2  1  0  0  0  0
 15 10  2  0  0  0  0
 15 20  1  0  0  0  0
 16  1  2  0  0  0  0
 18 15  1  0  0  0  0
 19  2  1  0  0  0  0
 19 17  2  0  0  0  0
 20 21  1  0  0  0  0
 20  6  2  0  0  0  0
 21  9  2  0  0  0  0
 22 16  1  0  0  0  0
 23 22  1  0  0  0  0
 24 27  2  0  0  0  0
 24 26  1  0  0  0  0
 25 22  2  0  0  0  0
 26 23  2  0  0  0  0
 27 25  1  0  0  0  0
 30 32  1  0  0  0  0
 30 29  1  0  0  0  0
 31 28  1  6  0  0  0
 31 30  1  0  0  0  0
 31 32  1  0  0  0  0
M  END
>  <MODEL>
6

>  <REMARK>
 VINA RESULT:      -9.2      2.511      6.112
  Name = 
  3 active torsions:
  status: ('A' for Active; 'I' for Inactive)
    1  A    between atoms: C_3  and  C_21
    2  A    between atoms: O_8  and  N_11
    3  A    between atoms: O_8  and  C_28
                            x       y       z     vdW  Elec       q    Type
                         _______ _______ _______ _____ _____    ______ ____

>  <TORSDO>
F 3

$$$$
=
 OpenBabel10222416353D

 32 38  0  0  1  0  0  0  0  0999 V2000
  186.3420  178.3310  140.2830 C   0  0  0  0  0  0  0  0  0  0  0  0
  183.5610  178.9390  140.4520 C   0  0  0  0  0  0  0  0  0  0  0  0
  184.1110  178.7650  145.4410 C   0  0  0  0  0  2  0  0  0  0  0  0
  187.6530  177.9320  145.7190 N   0  0  0  0  0  2  0  0  0  0  0  0
  187.7140  177.9130  148.4610 N   0  0  0  0  0  0  0  0  0  0  0  0
  184.5390  178.6680  144.0190 C   0  0  0  0  0  0  0  0  0  0  0  0
  185.5690  178.5730  139.1380 O   0  0  0  0  0  0  0  0  0  0  0  0
  182.3450  179.3800  140.5350 N   0  0  0  0  0  0  0  0  0  0  0  0
  185.3540  178.4710  146.1640 N   0  0  0  0  0  0  0  0  0  0  0  0
  185.7370  178.4170  141.5510 C   0  0  0  0  0  0  0  0  0  0  0  0
  188.9760  177.6170  148.0430 C   0  0  0  0  0  2  0  0  0  0  0  0
  188.0350  177.8400  147.0890 C   0  0  0  0  0  0  0  0  0  0  0  0
  188.4690  177.8570  141.3620 C   0  0  0  0  0  3  0  0  0  0  0  0
  184.1400  178.5130  139.1320 C   0  0  0  0  0  2  0  0  0  0  0  0
  186.5100  178.2260  142.7210 C   0  0  0  0  0  0  0  0  0  0  0  0
  187.7280  178.0470  140.1800 C   0  0  0  0  0  0  0  0  0  0  0  0
  183.7880  178.8650  142.9060 N   0  0  0  0  0  0  0  0  0  0  0  0
  187.8710  177.9450  142.6190 C   0  0  0  0  0  3  0  0  0  0  0  0
  184.3620  178.7410  141.6700 C   0  0  0  0  0  0  0  0  0  0  0  0
  185.8650  178.3540  143.9510 C   0  0  0  0  0  0  0  0  0  0  0  0
  186.3170  178.2460  145.3220 C   0  0  0  0  0  0  0  0  0  0  0  0
  188.4340  177.9340  138.8720 C   0  0  0  0  0  0  0  0  0  0  0  0
  188.5900  179.0420  138.0230 C   0  0  0  0  0  3  0  0  0  0  0  0
  189.7390  177.6750  136.3900 C   0  0  0  0  0  3  0  0  0  0  0  0
  188.9360  176.6890  138.4490 C   0  0  0  0  0  3  0  0  0  0  0  0
  189.2410  178.9160  136.7920 C   0  0  0  0  0  3  0  0  0  0  0  0
  189.5870  176.5610  137.2180 C   0  0  0  0  0  3  0  0  0  0  0  0
  181.5530  179.5300  139.4180 O   0  0  0  0  0  0  0  0  0  0  0  0
  179.2510  181.6990  137.7850 C   0  0  0  0  0  1  0  0  0  0  0  0
  180.4040  180.8200  137.8230 N   0  0  0  0  0  0  0  0  0  0  0  0
  180.8060  180.7180  139.2330 C   0  0  2  0  0  3  0  0  0  0  0  0
  181.5250  181.6160  138.3410 C   0  0  0  0  0  2  0  0  0  0  0  0
  1 10  1  0  0  0  0
  2  8  2  0  0  0  0
  2 19  1  0  0  0  0
  3  9  1  0  0  0  0
  4 12  1  0  0  0  0
  6  3  1  0  0  0  0
  7  1  1  0  0  0  0
 10 19  2  0  0  0  0
 10 15  1  0  0  0  0
 11  5  1  0  0  0  0
 12 11  1  0  0  0  0
 12  5  2  0  0  0  0
 13 18  2  0  0  0  0
 14  7  1  0  0  0  0
 14  2  1  0  0  0  0
 15 20  2  0  0  0  0
 16  1  2  0  0  0  0
 16 13  1  0  0  0  0
 17  6  2  0  0  0  0
 18 15  1  0  0  0  0
 19 17  1  0  0  0  0
 20  6  1  0  0  0  0
 20 21  1  0  0  0  0
 21  4  1  0  0  0  0
 21  9  2  0  0  0  0
 22 16  1  0  0  0  0
 23 22  2  0  0  0  0
 24 26  2  0  0  0  0
 24 27  1  0  0  0  0
 25 22  1  0  0  0  0
 26 23  1  0  0  0  0
 27 25  2  0  0  0  0
 28  8  1  0  0  0  0
 29 30  1  0  0  0  0
 30 32  1  0  0  0  0
 30 31  1  0  0  0  0
 31 28  1  6  0  0  0
 32 31  1  0  0  0  0
M  END
>  <MODEL>
7

>  <REMARK>
 VINA RESULT:      -9.0      2.980      7.234
  Name = 
  3 active torsions:
  status: ('A' for Active; 'I' for Inactive)
    1  A    between atoms: C_3  and  C_21
    2  A    between atoms: O_8  and  N_11
    3  A    between atoms: O_8  and  C_28
                            x       y       z     vdW  Elec       q    Type
                         _______ _______ _______ _____ _____    ______ ____

>  <TORSDO>
F 3

$$$$
=
 OpenBabel10222416353D

 32 38  0  0  1  0  0  0  0  0999 V2000
  186.2100  178.3210  141.8170 C   0  0  0  0  0  0  0  0  0  0  0  0
  184.4320  178.9430  139.6750 C   0  0  0  0  0  0  0  0  0  0  0  0
  188.2280  177.8490  136.5740 C   0  0  0  0  0  2  0  0  0  0  0  0
  190.8550  177.0080  138.9640 N   0  0  0  0  0  2  0  0  0  0  0  0
  192.7660  176.4420  137.0810 N   0  0  0  0  0  0  0  0  0  0  0  0
  187.5530  178.0390  137.8870 C   0  0  0  0  0  0  0  0  0  0  0  0
  184.8720  178.6710  142.0470 O   0  0  0  0  0  0  0  0  0  0  0  0
  183.5840  179.0590  138.7020 N   0  0  0  0  0  0  0  0  0  0  0  0
  189.5770  177.4290  136.9740 N   0  0  0  0  0  0  0  0  0  0  0  0
  186.6830  178.2470  140.4930 C   0  0  0  0  0  0  0  0  0  0  0  0
  193.3500  176.2460  138.2960 C   0  0  0  0  0  2  0  0  0  0  0  0
  192.0520  176.6470  138.2790 C   0  0  0  0  0  0  0  0  0  0  0  0
  188.3970  177.6080  142.6050 C   0  0  0  0  0  3  0  0  0  0  0  0
  184.0600  179.3380  141.0760 C   0  0  0  0  0  2  0  0  0  0  0  0
  188.0150  177.8460  140.2350 C   0  0  0  0  0  0  0  0  0  0  0  0
  187.0760  177.9980  142.8930 C   0  0  0  0  0  0  0  0  0  0  0  0
  186.2690  178.4130  138.1180 N   0  0  0  0  0  0  0  0  0  0  0  0
  188.8650  177.5320  141.2940 C   0  0  0  0  0  3  0  0  0  0  0  0
  185.8180  178.5270  139.4050 C   0  0  0  0  0  0  0  0  0  0  0  0
  188.4200  177.7610  138.9030 C   0  0  0  0  0  0  0  0  0  0  0  0
  189.6650  177.3840  138.2690 C   0  0  0  0  0  0  0  0  0  0  0  0
  186.6470  178.0600  144.3190 C   0  0  0  0  0  0  0  0  0  0  0  0
  185.3900  178.5690  144.6870 C   0  0  0  0  0  3  0  0  0  0  0  0
  185.8850  178.1990  147.0270 C   0  0  0  0  0  3  0  0  0  0  0  0
  187.5200  177.6310  145.3350 C   0  0  0  0  0  3  0  0  0  0  0  0
  185.0100  178.6350  146.0310 C   0  0  0  0  0  3  0  0  0  0  0  0
  187.1410  177.6960  146.6800 C   0  0  0  0  0  3  0  0  0  0  0  0
  182.2950  179.4920  138.9160 O   0  0  0  0  0  0  0  0  0  0  0  0
  181.0450  182.6290  137.7870 C   0  0  0  0  0  1  0  0  0  0  0  0
  181.1600  181.5440  138.7440 N   0  0  0  0  0  0  0  0  0  0  0  0
  181.6860  180.3890  138.0040 C   0  0  2  0  0  3  0  0  0  0  0  0
  180.2600  180.4790  138.2830 C   0  0  0  0  0  2  0  0  0  0  0  0
  1  7  1  0  0  0  0
  1 16  1  0  0  0  0
  2 14  1  0  0  0  0
  3  9  1  0  0  0  0
  3  6  1  0  0  0  0
  5 12  2  0  0  0  0
  5 11  1  0  0  0  0
  6 17  1  0  0  0  0
  6 20  2  0  0  0  0
  8 28  1  0  0  0  0
  8  2  2  0  0  0  0
  9 21  2  0  0  0  0
 10  1  2  0  0  0  0
 12 11  1  0  0  0  0
 12  4  1  0  0  0  0
 13 16  2  0  0  0  0
 14  7  1  0  0  0  0
 15 10  1  0  0  0  0
 15 18  2  0  0  0  0
 16 22  1  0  0  0  0
 17 19  2  0  0  0  0
 18 13  1  0  0  0  0
 19  2  1  0  0  0  0
 19 10  1  0  0  0  0
 20 15  1  0  0  0  0
 21 20  1  0  0  0  0
 21  4  1  0  0  0  0
 22 23  2  0  0  0  0
 22 25  1  0  0  0  0
 23 26  1  0  0  0  0
 25 27  2  0  0  0  0
 26 24  2  0  0  0  0
 27 24  1  0  0  0  0
 29 30  1  0  0  0  0
 31 32  1  0  0  0  0
 31 30  1  0  0  0  0
 31 28  1  1  0  0  0
 32 30  1  0  0  0  0
M  END
>  <MODEL>
8

>  <REMARK>
 VINA RESULT:      -9.0      2.641      7.268
  Name = 
  3 active torsions:
  status: ('A' for Active; 'I' for Inactive)
    1  A    between atoms: C_3  and  C_21
    2  A    between atoms: O_8  and  N_11
    3  A    between atoms: O_8  and  C_28
                            x       y       z     vdW  Elec       q    Type
                         _______ _______ _______ _____ _____    ______ ____

>  <TORSDO>
F 3

$$$$
=
 OpenBabel10222416353D

 32 38  0  0  1  0  0  0  0  0999 V2000
  187.2700  177.9750  143.3450 C   0  0  0  0  0  0  0  0  0  0  0  0
  184.5620  178.7850  142.9610 C   0  0  0  0  0  0  0  0  0  0  0  0
  185.4810  178.5440  138.0290 C   0  0  0  0  0  2  0  0  0  0  0  0
  188.9930  177.5520  138.0260 N   0  0  0  0  0  2  0  0  0  0  0  0
  189.2500  177.4690  135.2970 N   0  0  0  0  0  0  0  0  0  0  0  0
  185.8000  178.4580  139.4810 C   0  0  0  0  0  0  0  0  0  0  0  0
  186.3970  178.1660  144.4250 O   0  0  0  0  0  0  0  0  0  0  0  0
  183.2940  178.9850  142.7820 N   0  0  0  0  0  0  0  0  0  0  0  0
  186.7590  178.1820  137.4050 N   0  0  0  0  0  0  0  0  0  0  0  0
  186.7920  178.1600  142.0340 C   0  0  0  0  0  0  0  0  0  0  0  0
  190.4650  177.1280  135.8110 C   0  0  0  0  0  2  0  0  0  0  0  0
  189.4680  177.4130  136.6890 C   0  0  0  0  0  0  0  0  0  0  0  0
  189.4310  177.3330  142.4330 C   0  0  0  0  0  3  0  0  0  0  0  0
  185.1800  178.9100  144.3250 C   0  0  0  0  0  2  0  0  0  0  0  0
  187.6410  177.9230  140.9270 C   0  0  0  0  0  0  0  0  0  0  0  0
  188.6090  177.5550  143.5530 C   0  0  0  0  0  0  0  0  0  0  0  0
  184.9710  178.6770  140.5320 N   0  0  0  0  0  0  0  0  0  0  0  0
  188.9570  177.5130  141.1340 C   0  0  0  0  0  3  0  0  0  0  0  0
  185.4440  178.5390  141.8080 C   0  0  0  0  0  0  0  0  0  0  0  0
  187.1040  178.0930  139.6510 C   0  0  0  0  0  0  0  0  0  0  0  0
  187.6480  177.9340  138.3190 C   0  0  0  0  0  0  0  0  0  0  0  0
  189.1860  177.3450  144.9120 C   0  0  0  0  0  0  0  0  0  0  0  0
  190.5260  176.9620  145.0900 C   0  0  0  0  0  3  0  0  0  0  0  0
  190.2320  176.9210  147.4920 C   0  0  0  0  0  3  0  0  0  0  0  0
  188.3760  177.5020  146.0510 C   0  0  0  0  0  3  0  0  0  0  0  0
  191.0470  176.7540  146.3700 C   0  0  0  0  0  3  0  0  0  0  0  0
  188.8960  177.2950  147.3330 C   0  0  0  0  0  3  0  0  0  0  0  0
  182.4520  179.2650  143.8350 O   0  0  0  0  0  0  0  0  0  0  0  0
  178.9310  179.1540  144.3420 C   0  0  0  0  0  1  0  0  0  0  0  0
  180.2320  178.5500  144.1300 N   0  0  0  0  0  0  0  0  0  0  0  0
  181.1000  179.6060  143.5900 C   0  0  2  0  0  3  0  0  0  0  0  0
  180.5040  178.6300  142.6880 C   0  0  0  0  0  2  0  0  0  0  0  0
  1 16  1  0  0  0  0
  1  7  1  0  0  0  0
  2 14  1  0  0  0  0
  3  6  1  0  0  0  0
  4 21  1  0  0  0  0
  5 11  1  0  0  0  0
  5 12  2  0  0  0  0
  6 20  2  0  0  0  0
  6 17  1  0  0  0  0
  8  2  2  0  0  0  0
  8 28  1  0  0  0  0
  9  3  1  0  0  0  0
  9 21  2  0  0  0  0
 10  1  2  0  0  0  0
 11 12  1  0  0  0  0
 12  4  1  0  0  0  0
 13 16  2  0  0  0  0
 14  7  1  0  0  0  0
 15 18  2  0  0  0  0
 15 10  1  0  0  0  0
 16 22  1  0  0  0  0
 17 19  2  0  0  0  0
 18 13  1  0  0  0  0
 19 10  1  0  0  0  0
 19  2  1  0  0  0  0
 20 15  1  0  0  0  0
 21 20  1  0  0  0  0
 22 23  2  0  0  0  0
 22 25  1  0  0  0  0
 23 26  1  0  0  0  0
 25 27  2  0  0  0  0
 26 24  2  0  0  0  0
 27 24  1  0  0  0  0
 30 29  1  0  0  0  0
 31 28  1  1  0  0  0
 31 30  1  0  0  0  0
 32 31  1  0  0  0  0
 32 30  1  0  0  0  0
M  END
>  <MODEL>
9

>  <REMARK>
 VINA RESULT:      -9.0      1.839      6.779
  Name = 
  3 active torsions:
  status: ('A' for Active; 'I' for Inactive)
    1  A    between atoms: C_3  and  C_21
    2  A    between atoms: O_8  and  N_11
    3  A    between atoms: O_8  and  C_28
                            x       y       z     vdW  Elec       q    Type
                         _______ _______ _______ _____ _____    ______ ____

>  <TORSDO>
F 3

$$$$
