=
 OpenBabel10222415313D

 31 33  0  0  1  0  0  0  0  0999 V2000
  187.1220  178.1580  146.9710 C   0  0  0  0  0  0  0  0  0  0  0  0
  187.7740  177.5860  145.8520 C   0  0  0  0  0  0  0  0  0  0  0  0
  189.0860  177.1200  146.0240 C   0  0  0  0  0  3  0  0  0  0  0  0
  189.0500  177.7600  148.3240 N   0  0  0  0  0  0  0  0  0  0  0  0
  185.8230  178.6400  146.8560 C   0  0  0  0  0  3  0  0  0  0  0  0
  185.1630  178.5820  145.6330 C   0  0  0  0  0  3  0  0  0  0  0  0
  187.7820  178.2290  148.1980 C   0  0  0  0  0  3  0  0  0  0  0  0
  187.0910  177.5140  144.6080 C   0  0  0  0  0  0  0  0  0  0  0  0
  189.7110  177.2130  147.2710 C   0  0  0  0  0  3  0  0  0  0  0  0
  185.7840  178.0280  144.5100 C   0  0  0  0  0  0  0  0  0  0  0  0
  185.1150  177.9770  143.2820 O   0  0  0  0  0  0  0  0  0  0  0  0
  184.6100  179.1370  142.6290 C   0  0  0  0  0  2  0  0  0  0  0  0
  185.5750  179.6110  141.6500 N   0  0  0  0  0  2  0  0  0  0  0  0
  184.9780  179.0400  139.3380 C   0  0  0  0  0  0  0  0  0  0  0  0
  184.4030  180.1480  139.1910 O   0  0  0  0  0  1  0  0  0  0  0  0
  185.5710  178.6970  140.5870 N   0  0  0  0  0  2  0  0  0  0  0  0
  185.0210  178.1410  138.2820 O   0  0  0  0  0  0  0  0  0  0  0  0
  187.6560  176.9110  143.4260 N   0  0  0  0  0  2  0  0  0  0  0  0
  188.4760  177.5650  142.4170 C   0  0  0  0  0  2  0  0  0  0  0  0
  190.5210  176.4020  142.8780 O   0  0  0  0  0  1  0  0  0  0  0  0
  189.5330  176.6020  141.8990 C   0  0  2  0  0  3  0  0  0  0  0  0
  189.6930  175.2930  137.7840 F   0  0  0  0  0  0  0  0  0  0  0  0
  190.1550  177.1530  140.6170 C   0  0  2  0  0  3  0  0  0  0  0  0
  188.8990  177.3690  138.6240 C   0  0  2  0  0  3  0  0  0  0  0  0
  189.1860  178.0850  139.9120 C   0  0  0  0  0  2  0  0  0  0  0  0
  190.5370  176.0980  139.7500 O   0  0  0  0  0  0  0  0  0  0  0  0
  190.0900  176.4370  138.4600 C   0  0  0  0  0  0  0  0  0  0  0  0
  191.1390  177.0320  137.7730 F   0  0  0  0  0  0  0  0  0  0  0  0
  188.9640  179.6680  137.5840 O   0  0  0  0  0  1  0  0  0  0  0  0
  188.6360  178.3190  137.4920 C   0  0  0  0  0  0  0  0  0  0  0  0
  188.0380  177.9010  136.4700 O   0  0  0  0  0  0  0  0  0  0  0  0
  1  7  2  0  0  0  0
  2  3  2  0  0  0  0
  2  1  1  0  0  0  0
  3  9  1  0  0  0  0
  5  1  1  0  0  0  0
  6  5  2  0  0  0  0
  7  4  1  0  0  0  0
  8  2  1  0  0  0  0
  9  4  2  0  0  0  0
 10  8  2  0  0  0  0
 10  6  1  0  0  0  0
 11 10  1  0  0  0  0
 12 11  1  0  0  0  0
 13 12  1  0  0  0  0
 14 16  1  0  0  0  0
 15 14  1  0  0  0  0
 16 13  1  0  0  0  0
 17 14  2  0  0  0  0
 18  8  1  0  0  0  0
 19 18  1  0  0  0  0
 21 19  1  0  0  0  0
 21 20  1  1  0  0  0
 22 27  1  0  0  0  0
 23 21  1  1  0  0  0
 24 30  1  6  0  0  0
 24 25  1  0  0  0  0
 25 23  1  0  0  0  0
 26 23  1  0  0  0  0
 27 24  1  0  0  0  0
 27 26  1  0  0  0  0
 28 27  1  0  0  0  0
 30 29  1  0  0  0  0
 31 30  2  0  0  0  0
M  END
>  <MODEL>
1

>  <REMARK>
 VINA RESULT:      -9.1      0.000      0.000
  Name = 
  9 active torsions:
  status: ('A' for Active; 'I' for Inactive)
    1  A    between atoms: C_4  and  N_10
    2  A    between atoms: C_4  and  C_29
    3  A    between atoms: O_8  and  C_12
    4  A    between atoms: O_8  and  C_28
    5  A    between atoms: N_10  and  C_18
    6  A    between atoms: C_11  and  C_29
    7  A    between atoms: C_12  and  N_27
    8  A    between atoms: C_15  and  C_20
    9  A    between atoms: N_23  and  N_27
                            x       y       z     vdW  Elec       q    Type
                         _______ _______ _______ _____ _____    ______ ____

>  <TORSDO>
F 9

$$$$
=
 OpenBabel10222415313D

 31 33  0  0  1  0  0  0  0  0999 V2000
  184.7940  178.7450  145.0240 C   0  0  0  0  0  0  0  0  0  0  0  0
  185.6920  178.0640  144.1680 C   0  0  0  0  0  0  0  0  0  0  0  0
  185.3460  177.9450  142.8140 C   0  0  0  0  0  3  0  0  0  0  0  0
  183.3210  179.1520  143.1880 N   0  0  0  0  0  0  0  0  0  0  0  0
  185.0840  178.8890  146.3760 C   0  0  0  0  0  3  0  0  0  0  0  0
  186.2520  178.3440  146.9010 C   0  0  0  0  0  3  0  0  0  0  0  0
  183.6160  179.2840  144.5070 C   0  0  0  0  0  3  0  0  0  0  0  0
  186.8920  177.5230  144.7040 C   0  0  0  0  0  0  0  0  0  0  0  0
  184.1530  178.4980  142.3390 C   0  0  0  0  0  3  0  0  0  0  0  0
  187.1550  177.6620  146.0810 C   0  0  0  0  0  0  0  0  0  0  0  0
  188.3250  177.1130  146.6160 O   0  0  0  0  0  0  0  0  0  0  0  0
  188.7860  177.4100  147.9300 C   0  0  0  0  0  2  0  0  0  0  0  0
  190.2330  177.5530  147.9230 N   0  0  0  0  0  2  0  0  0  0  0  0
  191.9690  175.9910  147.1620 C   0  0  0  0  0  0  0  0  0  0  0  0
  192.6540  176.2190  148.1910 O   0  0  0  0  0  1  0  0  0  0  0  0
  190.7330  176.6690  146.9550 N   0  0  0  0  0  2  0  0  0  0  0  0
  192.4280  175.0870  146.2150 O   0  0  0  0  0  0  0  0  0  0  0  0
  187.8870  176.8510  143.9050 N   0  0  0  0  0  2  0  0  0  0  0  0
  188.9300  177.4740  143.1030 C   0  0  0  0  0  2  0  0  0  0  0  0
  190.6230  175.7850  142.9360 O   0  0  0  0  0  1  0  0  0  0  0  0
  189.6020  176.4320  142.2210 C   0  0  2  0  0  3  0  0  0  0  0  0
  189.8650  175.3460  138.0470 F   0  0  0  0  0  0  0  0  0  0  0  0
  190.1680  177.0990  140.9680 C   0  0  2  0  0  3  0  0  0  0  0  0
  188.8910  177.2990  138.9860 C   0  0  2  0  0  3  0  0  0  0  0  0
  189.1170  177.9740  140.3080 C   0  0  0  0  0  2  0  0  0  0  0  0
  190.6390  176.1260  140.0510 O   0  0  0  0  0  0  0  0  0  0  0  0
  190.1600  176.4860  138.7780 C   0  0  0  0  0  0  0  0  0  0  0  0
  191.1500  177.2060  138.1220 F   0  0  0  0  0  0  0  0  0  0  0  0
  187.8770  177.8710  136.7470 O   0  0  0  0  0  0  0  0  0  0  0  0
  188.5410  178.2750  137.9010 C   0  0  0  0  0  0  0  0  0  0  0  0
  188.9230  179.4660  138.0040 O   0  0  0  0  0  1  0  0  0  0  0  0
  1  5  1  0  0  0  0
  2  8  1  0  0  0  0
  2  1  2  0  0  0  0
  3  2  1  0  0  0  0
  4  7  2  0  0  0  0
  5  6  2  0  0  0  0
  7  1  1  0  0  0  0
  8 10  2  0  0  0  0
  9  3  2  0  0  0  0
  9  4  1  0  0  0  0
 10 11  1  0  0  0  0
 10  6  1  0  0  0  0
 11 12  1  0  0  0  0
 13 12  1  0  0  0  0
 14 15  1  0  0  0  0
 16 14  1  0  0  0  0
 16 13  1  0  0  0  0
 17 14  2  0  0  0  0
 18  8  1  0  0  0  0
 19 18  1  0  0  0  0
 21 20  1  1  0  0  0
 21 19  1  0  0  0  0
 22 27  1  0  0  0  0
 23 21  1  1  0  0  0
 24 30  1  6  0  0  0
 24 25  1  0  0  0  0
 25 23  1  0  0  0  0
 26 23  1  0  0  0  0
 27 24  1  0  0  0  0
 27 26  1  0  0  0  0
 28 27  1  0  0  0  0
 29 30  2  0  0  0  0
 30 31  1  0  0  0  0
M  END
>  <MODEL>
2

>  <REMARK>
 VINA RESULT:      -8.6      1.828      5.180
  Name = 
  9 active torsions:
  status: ('A' for Active; 'I' for Inactive)
    1  A    between atoms: C_4  and  N_10
    2  A    between atoms: C_4  and  C_29
    3  A    between atoms: O_8  and  C_12
    4  A    between atoms: O_8  and  C_28
    5  A    between atoms: N_10  and  C_18
    6  A    between atoms: C_11  and  C_29
    7  A    between atoms: C_12  and  N_27
    8  A    between atoms: C_15  and  C_20
    9  A    between atoms: N_23  and  N_27
                            x       y       z     vdW  Elec       q    Type
                         _______ _______ _______ _____ _____    ______ ____

>  <TORSDO>
F 9

$$$$
=
 OpenBabel10222415313D

 31 33  0  0  1  0  0  0  0  0999 V2000
  189.1060  177.3950  146.6300 C   0  0  0  0  0  0  0  0  0  0  0  0
  189.4120  177.1270  145.2740 C   0  0  0  0  0  0  0  0  0  0  0  0
  190.7250  176.7480  144.9590 C   0  0  0  0  0  3  0  0  0  0  0  0
  191.3540  176.8870  147.2590 N   0  0  0  0  0  0  0  0  0  0  0  0
  187.8210  177.7800  146.9980 C   0  0  0  0  0  3  0  0  0  0  0  0
  186.8320  177.9240  146.0300 C   0  0  0  0  0  3  0  0  0  0  0  0
  190.0950  177.2630  147.6040 C   0  0  0  0  0  3  0  0  0  0  0  0
  188.3950  177.2600  144.2900 C   0  0  0  0  0  0  0  0  0  0  0  0
  191.6860  176.6300  145.9680 C   0  0  0  0  0  3  0  0  0  0  0  0
  187.1060  177.6720  144.6830 C   0  0  0  0  0  0  0  0  0  0  0  0
  186.1080  177.8230  143.7140 O   0  0  0  0  0  0  0  0  0  0  0  0
  184.8120  178.3320  144.0140 C   0  0  0  0  0  2  0  0  0  0  0  0
  184.4580  179.3690  143.0590 N   0  0  0  0  0  2  0  0  0  0  0  0
  184.5000  178.7530  140.6820 C   0  0  0  0  0  0  0  0  0  0  0  0
  185.5730  179.3850  140.5160 O   0  0  0  0  0  1  0  0  0  0  0  0
  183.8650  178.7340  141.9580 N   0  0  0  0  0  2  0  0  0  0  0  0
  183.9230  178.0820  139.6130 O   0  0  0  0  0  0  0  0  0  0  0  0
  188.5990  176.9680  142.8920 N   0  0  0  0  0  2  0  0  0  0  0  0
  189.1290  177.8690  141.8790 C   0  0  0  0  0  2  0  0  0  0  0  0
  191.4760  177.4830  141.5860 O   0  0  0  0  0  1  0  0  0  0  0  0
  190.2090  177.1660  141.0700 C   0  0  2  0  0  3  0  0  0  0  0  0
  188.6630  175.3240  137.4800 F   0  0  0  0  0  0  0  0  0  0  0  0
  190.1110  177.5820  139.6030 C   0  0  2  0  0  3  0  0  0  0  0  0
  188.0760  177.4320  138.4060 C   0  0  2  0  0  3  0  0  0  0  0  0
  188.8190  178.3350  139.3460 C   0  0  0  0  0  2  0  0  0  0  0  0
  190.1920  176.4480  138.7540 O   0  0  0  0  0  0  0  0  0  0  0  0
  189.1730  176.5740  137.7920 C   0  0  0  0  0  0  0  0  0  0  0  0
  189.7150  177.1450  136.6490 F   0  0  0  0  0  0  0  0  0  0  0  0
  187.5800  179.4580  136.9840 O   0  0  0  0  0  0  0  0  0  0  0  0
  187.2130  178.1960  137.4440 C   0  0  0  0  0  0  0  0  0  0  0  0
  186.1020  177.7200  137.1080 O   0  0  0  0  0  1  0  0  0  0  0  0
  1  5  1  0  0  0  0
  1  7  2  0  0  0  0
  2  1  1  0  0  0  0
  3  2  2  0  0  0  0
  3  9  1  0  0  0  0
  4  7  1  0  0  0  0
  6  5  2  0  0  0  0
  8 10  2  0  0  0  0
  8  2  1  0  0  0  0
  9  4  2  0  0  0  0
 10  6  1  0  0  0  0
 11 12  1  0  0  0  0
 11 10  1  0  0  0  0
 13 12  1  0  0  0  0
 14 16  1  0  0  0  0
 15 14  1  0  0  0  0
 16 13  1  0  0  0  0
 17 14  2  0  0  0  0
 18  8  1  0  0  0  0
 19 18  1  0  0  0  0
 21 20  1  1  0  0  0
 21 19  1  0  0  0  0
 22 27  1  0  0  0  0
 23 21  1  1  0  0  0
 24 30  1  6  0  0  0
 24 25  1  0  0  0  0
 25 23  1  0  0  0  0
 26 23  1  0  0  0  0
 27 24  1  0  0  0  0
 27 26  1  0  0  0  0
 28 27  1  0  0  0  0
 29 30  2  0  0  0  0
 31 30  1  0  0  0  0
M  END
>  <MODEL>
3

>  <REMARK>
 VINA RESULT:      -8.3      1.424      1.698
  Name = 
  9 active torsions:
  status: ('A' for Active; 'I' for Inactive)
    1  A    between atoms: C_4  and  N_10
    2  A    between atoms: C_4  and  C_29
    3  A    between atoms: O_8  and  C_12
    4  A    between atoms: O_8  and  C_28
    5  A    between atoms: N_10  and  C_18
    6  A    between atoms: C_11  and  C_29
    7  A    between atoms: C_12  and  N_27
    8  A    between atoms: C_15  and  C_20
    9  A    between atoms: N_23  and  N_27
                            x       y       z     vdW  Elec       q    Type
                         _______ _______ _______ _____ _____    ______ ____

>  <TORSDO>
F 9

$$$$
=
 OpenBabel10222415313D

 31 33  0  0  1  0  0  0  0  0999 V2000
  185.4670  178.6030  145.6450 C   0  0  0  0  0  0  0  0  0  0  0  0
  186.4870  177.9750  144.8910 C   0  0  0  0  0  0  0  0  0  0  0  0
  187.6430  177.5590  145.5690 C   0  0  0  0  0  3  0  0  0  0  0  0
  186.7580  178.3520  147.6390 N   0  0  0  0  0  0  0  0  0  0  0  0
  184.3020  179.0400  145.0240 C   0  0  0  0  0  3  0  0  0  0  0  0
  184.1410  178.8800  143.6510 C   0  0  0  0  0  3  0  0  0  0  0  0
  185.6260  178.7760  147.0200 C   0  0  0  0  0  3  0  0  0  0  0  0
  186.3130  177.8000  143.4920 C   0  0  0  0  0  0  0  0  0  0  0  0
  187.7610  177.7540  146.9480 C   0  0  0  0  0  3  0  0  0  0  0  0
  185.1340  178.2690  142.8810 C   0  0  0  0  0  0  0  0  0  0  0  0
  184.9680  178.1160  141.5000 O   0  0  0  0  0  0  0  0  0  0  0  0
  184.8560  179.2210  140.6090 C   0  0  0  0  0  2  0  0  0  0  0  0
  185.3110  178.8330  139.2830 N   0  0  0  0  0  2  0  0  0  0  0  0
  187.3750  177.9100  138.3240 C   0  0  0  0  0  0  0  0  0  0  0  0
  186.7420  177.4710  137.3320 O   0  0  0  0  0  0  0  0  0  0  0  0
  186.6890  178.5900  139.3720 N   0  0  0  0  0  2  0  0  0  0  0  0
  188.7460  177.7170  138.4070 O   0  0  0  0  0  1  0  0  0  0  0  0
  187.2760  177.1340  142.6490 N   0  0  0  0  0  2  0  0  0  0  0  0
  188.5170  177.6910  142.1310 C   0  0  0  0  0  2  0  0  0  0  0  0
  189.0460  175.3770  142.4640 O   0  0  0  0  0  1  0  0  0  0  0  0
  189.5640  176.5950  141.9960 C   0  0  2  0  0  3  0  0  0  0  0  0
  190.3880  179.1750  145.3630 F   0  0  0  0  0  0  0  0  0  0  0  0
  190.8200  176.9770  142.7780 C   0  0  2  0  0  3  0  0  0  0  0  0
  190.8910  176.8640  145.1400 C   0  0  2  0  0  3  0  0  0  0  0  0
  191.0540  176.0050  143.9200 C   0  0  0  0  0  2  0  0  0  0  0  0
  190.7170  178.3010  143.2770 O   0  0  0  0  0  0  0  0  0  0  0  0
  191.1340  178.2730  144.6200 C   0  0  0  0  0  0  0  0  0  0  0  0
  192.4730  178.6350  144.6730 F   0  0  0  0  0  0  0  0  0  0  0  0
  191.8960  177.1690  147.4350 O   0  0  0  0  0  1  0  0  0  0  0  0
  191.7650  176.4130  146.2740 C   0  0  0  0  0  0  0  0  0  0  0  0
  192.4520  175.3710  146.1400 O   0  0  0  0  0  0  0  0  0  0  0  0
  1  7  2  0  0  0  0
  2  3  2  0  0  0  0
  2  1  1  0  0  0  0
  3  9  1  0  0  0  0
  5  1  1  0  0  0  0
  6  5  2  0  0  0  0
  7  4  1  0  0  0  0
  8  2  1  0  0  0  0
  9  4  2  0  0  0  0
 10  8  2  0  0  0  0
 10  6  1  0  0  0  0
 11 10  1  0  0  0  0
 12 11  1  0  0  0  0
 13 16  1  0  0  0  0
 13 12  1  0  0  0  0
 14 17  1  0  0  0  0
 14 16  1  0  0  0  0
 15 14  2  0  0  0  0
 18  8  1  0  0  0  0
 19 18  1  0  0  0  0
 21 19  1  0  0  0  0
 21 20  1  1  0  0  0
 23 21  1  1  0  0  0
 23 26  1  0  0  0  0
 23 25  1  0  0  0  0
 24 30  1  1  0  0  0
 25 24  1  0  0  0  0
 26 27  1  0  0  0  0
 27 28  1  0  0  0  0
 27 24  1  0  0  0  0
 27 22  1  0  0  0  0
 30 29  1  0  0  0  0
 31 30  2  0  0  0  0
M  END
>  <MODEL>
4

>  <REMARK>
 VINA RESULT:      -8.3      2.662      4.696
  Name = 
  9 active torsions:
  status: ('A' for Active; 'I' for Inactive)
    1  A    between atoms: C_4  and  N_10
    2  A    between atoms: C_4  and  C_29
    3  A    between atoms: O_8  and  C_12
    4  A    between atoms: O_8  and  C_28
    5  A    between atoms: N_10  and  C_18
    6  A    between atoms: C_11  and  C_29
    7  A    between atoms: C_12  and  N_27
    8  A    between atoms: C_15  and  C_20
    9  A    between atoms: N_23  and  N_27
                            x       y       z     vdW  Elec       q    Type
                         _______ _______ _______ _____ _____    ______ ____

>  <TORSDO>
F 9

$$$$
=
 OpenBabel10222415313D

 31 33  0  0  1  0  0  0  0  0999 V2000
  185.9890  178.1180  145.8910 C   0  0  0  0  0  0  0  0  0  0  0  0
  186.0610  178.0630  144.4780 C   0  0  0  0  0  0  0  0  0  0  0  0
  184.9460  178.4980  143.7470 C   0  0  0  0  0  3  0  0  0  0  0  0
  183.7830  179.0260  145.7640 N   0  0  0  0  0  0  0  0  0  0  0  0
  187.0630  177.6950  146.6670 C   0  0  0  0  0  3  0  0  0  0  0  0
  188.2100  177.1950  146.0570 C   0  0  0  0  0  3  0  0  0  0  0  0
  184.8390  178.6080  146.5090 C   0  0  0  0  0  3  0  0  0  0  0  0
  187.2400  177.5660  143.8590 C   0  0  0  0  0  0  0  0  0  0  0  0
  183.8130  178.9800  144.4080 C   0  0  0  0  0  3  0  0  0  0  0  0
  188.3070  177.1230  144.6650 C   0  0  0  0  0  0  0  0  0  0  0  0
  189.4610  176.6150  144.0580 O   0  0  0  0  0  0  0  0  0  0  0  0
  190.7410  177.2200  144.2070 C   0  0  0  0  0  2  0  0  0  0  0  0
  191.6010  176.3610  145.0040 N   0  0  0  0  0  2  0  0  0  0  0  0
  191.9980  176.3260  147.4280 C   0  0  0  0  0  0  0  0  0  0  0  0
  191.8150  175.0830  147.4600 O   0  0  0  0  0  0  0  0  0  0  0  0
  191.8720  177.0400  146.2010 N   0  0  0  0  0  2  0  0  0  0  0  0
  192.3090  177.0070  148.5950 O   0  0  0  0  0  1  0  0  0  0  0  0
  187.4230  177.5120  142.4290 N   0  0  0  0  0  2  0  0  0  0  0  0
  188.3470  178.3090  141.6360 C   0  0  0  0  0  2  0  0  0  0  0  0
  190.3000  177.2540  140.7300 O   0  0  0  0  0  1  0  0  0  0  0  0
  188.9290  177.4650  140.5110 C   0  0  2  0  0  3  0  0  0  0  0  0
  190.4190  176.8960  136.4950 F   0  0  0  0  0  0  0  0  0  0  0  0
  188.7040  178.1620  139.1700 C   0  0  2  0  0  3  0  0  0  0  0  0
  188.1560  176.9430  137.2170 C   0  0  2  0  0  3  0  0  0  0  0  0
  187.5250  177.5450  138.4390 C   0  0  0  0  0  2  0  0  0  0  0  0
  189.8690  178.0900  138.3650 O   0  0  0  0  0  0  0  0  0  0  0  0
  189.4600  177.7140  137.0720 C   0  0  0  0  0  0  0  0  0  0  0  0
  189.3160  178.8610  136.3050 F   0  0  0  0  0  0  0  0  0  0  0  0
  187.4310  176.1190  134.9440 O   0  0  0  0  0  0  0  0  0  0  0  0
  187.2350  176.9650  136.0320 C   0  0  0  0  0  0  0  0  0  0  0  0
  186.3150  177.8180  135.9880 O   0  0  0  0  0  1  0  0  0  0  0  0
  1  7  1  0  0  0  0
  1  5  1  0  0  0  0
  2  1  2  0  0  0  0
  3  9  2  0  0  0  0
  3  2  1  0  0  0  0
  4  7  2  0  0  0  0
  6  5  2  0  0  0  0
  8  2  1  0  0  0  0
  8 10  2  0  0  0  0
  9  4  1  0  0  0  0
 10  6  1  0  0  0  0
 11 12  1  0  0  0  0
 11 10  1  0  0  0  0
 12 13  1  0  0  0  0
 13 16  1  0  0  0  0
 14 15  2  0  0  0  0
 14 17  1  0  0  0  0
 16 14  1  0  0  0  0
 18  8  1  0  0  0  0
 19 18  1  0  0  0  0
 21 20  1  1  0  0  0
 21 19  1  0  0  0  0
 22 27  1  0  0  0  0
 23 21  1  1  0  0  0
 24 30  1  6  0  0  0
 24 25  1  0  0  0  0
 25 23  1  0  0  0  0
 26 23  1  0  0  0  0
 27 24  1  0  0  0  0
 27 26  1  0  0  0  0
 28 27  1  0  0  0  0
 29 30  2  0  0  0  0
 31 30  1  0  0  0  0
M  END
>  <MODEL>
5

>  <REMARK>
 VINA RESULT:      -8.0      2.402      5.252
  Name = 
  9 active torsions:
  status: ('A' for Active; 'I' for Inactive)
    1  A    between atoms: C_4  and  N_10
    2  A    between atoms: C_4  and  C_29
    3  A    between atoms: O_8  and  C_12
    4  A    between atoms: O_8  and  C_28
    5  A    between atoms: N_10  and  C_18
    6  A    between atoms: C_11  and  C_29
    7  A    between atoms: C_12  and  N_27
    8  A    between atoms: C_15  and  C_20
    9  A    between atoms: N_23  and  N_27
                            x       y       z     vdW  Elec       q    Type
                         _______ _______ _______ _____ _____    ______ ____

>  <TORSDO>
F 9

$$$$
=
 OpenBabel10222415313D

 31 33  0  0  1  0  0  0  0  0999 V2000
  189.2690  177.2000  146.7040 C   0  0  0  0  0  0  0  0  0  0  0  0
  189.2690  177.1860  145.2890 C   0  0  0  0  0  0  0  0  0  0  0  0
  190.4900  176.9620  144.6350 C   0  0  0  0  0  3  0  0  0  0  0  0
  191.6170  176.7600  146.7300 N   0  0  0  0  0  0  0  0  0  0  0  0
  188.0890  177.4230  147.4050 C   0  0  0  0  0  3  0  0  0  0  0  0
  186.9010  177.6530  146.7160 C   0  0  0  0  0  3  0  0  0  0  0  0
  190.4570  176.9810  147.4010 C   0  0  0  0  0  3  0  0  0  0  0  0
  188.0520  177.4070  144.5890 C   0  0  0  0  0  0  0  0  0  0  0  0
  191.6580  176.7490  145.3730 C   0  0  0  0  0  3  0  0  0  0  0  0
  186.8730  177.6510  145.3190 C   0  0  0  0  0  0  0  0  0  0  0  0
  185.6770  177.8880  144.6330 O   0  0  0  0  0  0  0  0  0  0  0  0
  184.9090  179.0750  144.8080 C   0  0  0  0  0  2  0  0  0  0  0  0
  184.7520  179.7520  143.5310 N   0  0  0  0  0  2  0  0  0  0  0  0
  184.4860  178.8400  141.2670 C   0  0  0  0  0  0  0  0  0  0  0  0
  185.2930  179.6870  140.8080 O   0  0  0  0  0  1  0  0  0  0  0  0
  184.1460  178.8440  142.6510 N   0  0  0  0  0  2  0  0  0  0  0  0
  183.9110  177.9060  140.4170 O   0  0  0  0  0  0  0  0  0  0  0  0
  187.9450  177.3680  143.1510 N   0  0  0  0  0  2  0  0  0  0  0  0
  188.7590  178.1040  142.1940 C   0  0  0  0  0  2  0  0  0  0  0  0
  190.1680  176.7130  140.8430 O   0  0  0  0  0  1  0  0  0  0  0  0
  188.8970  177.3060  140.9060 C   0  0  2  0  0  3  0  0  0  0  0  0
  190.3420  177.3910  136.8340 F   0  0  0  0  0  0  0  0  0  0  0  0
  188.6730  178.2210  139.7020 C   0  0  2  0  0  3  0  0  0  0  0  0
  188.0860  177.3560  137.5800 C   0  0  2  0  0  3  0  0  0  0  0  0
  187.4770  177.7560  138.8920 C   0  0  0  0  0  2  0  0  0  0  0  0
  189.8300  178.2640  138.8840 O   0  0  0  0  0  0  0  0  0  0  0  0
  189.4040  178.1170  137.5510 C   0  0  0  0  0  0  0  0  0  0  0  0
  189.2750  179.3790  136.9880 F   0  0  0  0  0  0  0  0  0  0  0  0
  185.8020  177.8460  136.6230 O   0  0  0  0  0  1  0  0  0  0  0  0
  187.1560  177.5920  136.4260 C   0  0  0  0  0  0  0  0  0  0  0  0
  187.5950  177.4820  135.2550 O   0  0  0  0  0  0  0  0  0  0  0  0
  1  7  2  0  0  0  0
  1  5  1  0  0  0  0
  2  1  1  0  0  0  0
  3  2  2  0  0  0  0
  3  9  1  0  0  0  0
  4  7  1  0  0  0  0
  6  5  2  0  0  0  0
  8  2  1  0  0  0  0
  8 10  2  0  0  0  0
  9  4  2  0  0  0  0
 10  6  1  0  0  0  0
 11 12  1  0  0  0  0
 11 10  1  0  0  0  0
 13 12  1  0  0  0  0
 14 16  1  0  0  0  0
 15 14  1  0  0  0  0
 16 13  1  0  0  0  0
 17 14  2  0  0  0  0
 18  8  1  0  0  0  0
 19 18  1  0  0  0  0
 21 20  1  6  0  0  0
 21 19  1  0  0  0  0
 22 27  1  0  0  0  0
 23 21  1  1  0  0  0
 24 30  1  6  0  0  0
 24 25  1  0  0  0  0
 25 23  1  0  0  0  0
 26 23  1  0  0  0  0
 27 24  1  0  0  0  0
 27 26  1  0  0  0  0
 28 27  1  0  0  0  0
 30 29  1  0  0  0  0
 31 30  2  0  0  0  0
M  END
>  <MODEL>
6

>  <REMARK>
 VINA RESULT:      -8.0      1.627      2.182
  Name = 
  9 active torsions:
  status: ('A' for Active; 'I' for Inactive)
    1  A    between atoms: C_4  and  N_10
    2  A    between atoms: C_4  and  C_29
    3  A    between atoms: O_8  and  C_12
    4  A    between atoms: O_8  and  C_28
    5  A    between atoms: N_10  and  C_18
    6  A    between atoms: C_11  and  C_29
    7  A    between atoms: C_12  and  N_27
    8  A    between atoms: C_15  and  C_20
    9  A    between atoms: N_23  and  N_27
                            x       y       z     vdW  Elec       q    Type
                         _______ _______ _______ _____ _____    ______ ____

>  <TORSDO>
F 9

$$$$
=
 OpenBabel10222415313D

 31 33  0  0  1  0  0  0  0  0999 V2000
  188.9220  177.4600  146.2040 C   0  0  0  0  0  0  0  0  0  0  0  0
  188.1650  177.5310  145.0090 C   0  0  0  0  0  0  0  0  0  0  0  0
  186.7980  177.8270  145.1150 C   0  0  0  0  0  3  0  0  0  0  0  0
  186.9790  177.9860  147.4900 N   0  0  0  0  0  0  0  0  0  0  0  0
  190.2800  177.1650  146.1590 C   0  0  0  0  0  3  0  0  0  0  0  0
  190.9000  176.9180  144.9380 C   0  0  0  0  0  3  0  0  0  0  0  0
  188.3040  177.6960  147.4320 C   0  0  0  0  0  3  0  0  0  0  0  0
  188.8050  177.2930  143.7630 C   0  0  0  0  0  0  0  0  0  0  0  0
  186.2190  178.0540  146.3670 C   0  0  0  0  0  3  0  0  0  0  0  0
  190.1770  176.9750  143.7430 C   0  0  0  0  0  0  0  0  0  0  0  0
  190.8060  176.7210  142.5200 O   0  0  0  0  0  0  0  0  0  0  0  0
  191.7300  177.6260  141.9240 C   0  0  0  0  0  2  0  0  0  0  0  0
  191.9480  177.2610  140.5330 N   0  0  0  0  0  2  0  0  0  0  0  0
  190.5670  176.5380  138.6360 C   0  0  0  0  0  0  0  0  0  0  0  0
  191.5100  176.7640  137.8370 O   0  0  0  0  0  0  0  0  0  0  0  0
  190.7230  176.8020  140.0280 N   0  0  0  0  0  2  0  0  0  0  0  0
  189.3630  176.0420  138.1580 O   0  0  0  0  0  1  0  0  0  0  0  0
  188.1290  177.3850  142.4930 N   0  0  0  0  0  2  0  0  0  0  0  0
  187.9610  178.5790  141.6760 C   0  0  0  0  0  2  0  0  0  0  0  0
  187.7390  178.6470  139.2900 O   0  0  0  0  0  1  0  0  0  0  0  0
  187.0830  178.2680  140.4730 C   0  0  2  0  0  3  0  0  0  0  0  0
  182.9440  177.0420  140.6730 F   0  0  0  0  0  0  0  0  0  0  0  0
  185.7480  179.0000  140.6020 C   0  0  2  0  0  3  0  0  0  0  0  0
  184.1460  178.3780  142.2270 C   0  0  2  0  0  3  0  0  0  0  0  0
  185.3890  179.2030  142.0620 C   0  0  0  0  0  2  0  0  0  0  0  0
  184.7180  178.2850  139.9400 O   0  0  0  0  0  0  0  0  0  0  0  0
  183.6110  178.2500  140.8090 C   0  0  0  0  0  0  0  0  0  0  0  0
  182.7520  179.2860  140.4690 F   0  0  0  0  0  0  0  0  0  0  0  0
  181.8300  178.7740  143.1500 O   0  0  0  0  0  0  0  0  0  0  0  0
  183.2060  178.9620  143.2420 C   0  0  0  0  0  0  0  0  0  0  0  0
  183.6650  179.6990  144.1480 O   0  0  0  0  0  1  0  0  0  0  0  0
  1  7  2  0  0  0  0
  2  3  2  0  0  0  0
  2  1  1  0  0  0  0
  3  9  1  0  0  0  0
  5  1  1  0  0  0  0
  6  5  2  0  0  0  0
  7  4  1  0  0  0  0
  8  2  1  0  0  0  0
  9  4  2  0  0  0  0
 10  8  2  0  0  0  0
 10  6  1  0  0  0  0
 11 10  1  0  0  0  0
 12 11  1  0  0  0  0
 13 12  1  0  0  0  0
 14 16  1  0  0  0  0
 15 14  2  0  0  0  0
 16 13  1  0  0  0  0
 17 14  1  0  0  0  0
 18  8  1  0  0  0  0
 19 18  1  0  0  0  0
 21 20  1  6  0  0  0
 21 19  1  0  0  0  0
 22 27  1  0  0  0  0
 23 21  1  1  0  0  0
 23 25  1  0  0  0  0
 24 30  1  1  0  0  0
 25 24  1  0  0  0  0
 26 23  1  0  0  0  0
 26 27  1  0  0  0  0
 27 24  1  0  0  0  0
 28 27  1  0  0  0  0
 29 30  2  0  0  0  0
 30 31  1  0  0  0  0
M  END
>  <MODEL>
7

>  <REMARK>
 VINA RESULT:      -7.9      2.868      5.627
  Name = 
  9 active torsions:
  status: ('A' for Active; 'I' for Inactive)
    1  A    between atoms: C_4  and  N_10
    2  A    between atoms: C_4  and  C_29
    3  A    between atoms: O_8  and  C_12
    4  A    between atoms: O_8  and  C_28
    5  A    between atoms: N_10  and  C_18
    6  A    between atoms: C_11  and  C_29
    7  A    between atoms: C_12  and  N_27
    8  A    between atoms: C_15  and  C_20
    9  A    between atoms: N_23  and  N_27
                            x       y       z     vdW  Elec       q    Type
                         _______ _______ _______ _____ _____    ______ ____

>  <TORSDO>
F 9

$$$$
=
 OpenBabel10222415313D

 31 33  0  0  1  0  0  0  0  0999 V2000
  183.9920  178.8210  143.1640 C   0  0  0  0  0  0  0  0  0  0  0  0
  185.3950  178.6360  143.1830 C   0  0  0  0  0  0  0  0  0  0  0  0
  186.0200  178.4760  144.4290 C   0  0  0  0  0  3  0  0  0  0  0  0
  183.9180  178.6600  145.5460 N   0  0  0  0  0  0  0  0  0  0  0  0
  183.3210  178.9900  141.9580 C   0  0  0  0  0  3  0  0  0  0  0  0
  184.0310  178.9980  140.7600 C   0  0  0  0  0  3  0  0  0  0  0  0
  183.2760  178.8250  144.3610 C   0  0  0  0  0  3  0  0  0  0  0  0
  186.1150  178.6300  141.9570 C   0  0  0  0  0  0  0  0  0  0  0  0
  185.2630  178.4890  145.6050 C   0  0  0  0  0  3  0  0  0  0  0  0
  185.4170  178.8240  140.7490 C   0  0  0  0  0  0  0  0  0  0  0  0
  186.1250  178.8380  139.5420 O   0  0  0  0  0  0  0  0  0  0  0  0
  185.6360  178.2250  138.3530 C   0  0  0  0  0  2  0  0  0  0  0  0
  186.4460  178.6380  137.2180 N   0  0  0  0  0  2  0  0  0  0  0  0
  188.8820  178.4240  137.4460 C   0  0  0  0  0  0  0  0  0  0  0  0
  188.9980  179.6660  137.5900 O   0  0  0  0  0  1  0  0  0  0  0  0
  187.6000  177.8420  137.2210 N   0  0  0  0  0  2  0  0  0  0  0  0
  190.0090  177.6160  137.4900 O   0  0  0  0  0  0  0  0  0  0  0  0
  187.5370  178.4060  141.8730 N   0  0  0  0  0  2  0  0  0  0  0  0
  188.2140  177.1230  141.7540 C   0  0  0  0  0  2  0  0  0  0  0  0
  190.1460  176.4440  140.5080 O   0  0  0  0  0  1  0  0  0  0  0  0
  189.6970  177.3390  141.4940 C   0  0  2  0  0  3  0  0  0  0  0  0
  190.9340  179.9340  144.7200 F   0  0  0  0  0  0  0  0  0  0  0  0
  190.4850  177.1460  142.7890 C   0  0  2  0  0  3  0  0  0  0  0  0
  189.6660  177.9290  144.8650 C   0  0  2  0  0  3  0  0  0  0  0  0
  189.5570  176.7630  143.9270 C   0  0  0  0  0  2  0  0  0  0  0  0
  191.2030  178.3240  143.1190 O   0  0  0  0  0  0  0  0  0  0  0  0
  190.9950  178.5680  144.4890 C   0  0  0  0  0  0  0  0  0  0  0  0
  192.0610  178.0320  145.1980 F   0  0  0  0  0  0  0  0  0  0  0  0
  188.5910  178.1510  147.1390 O   0  0  0  0  0  1  0  0  0  0  0  0
  189.5070  177.5210  146.3010 C   0  0  0  0  0  0  0  0  0  0  0  0
  190.2710  176.6450  146.7760 O   0  0  0  0  0  0  0  0  0  0  0  0
  1  2  1  0  0  0  0
  1  7  2  0  0  0  0
  2  3  2  0  0  0  0
  3  9  1  0  0  0  0
  4  9  2  0  0  0  0
  5  1  1  0  0  0  0
  6  5  2  0  0  0  0
  7  4  1  0  0  0  0
  8  2  1  0  0  0  0
 10  6  1  0  0  0  0
 10  8  2  0  0  0  0
 11 10  1  0  0  0  0
 12 11  1  0  0  0  0
 13 16  1  0  0  0  0
 13 12  1  0  0  0  0
 14 17  2  0  0  0  0
 14 15  1  0  0  0  0
 16 14  1  0  0  0  0
 18  8  1  0  0  0  0
 19 18  1  0  0  0  0
 21 20  1  6  0  0  0
 21 19  1  0  0  0  0
 23 21  1  6  0  0  0
 23 26  1  0  0  0  0
 23 25  1  0  0  0  0
 24 30  1  1  0  0  0
 25 24  1  0  0  0  0
 26 27  1  0  0  0  0
 27 22  1  0  0  0  0
 27 24  1  0  0  0  0
 27 28  1  0  0  0  0
 30 31  2  0  0  0  0
 30 29  1  0  0  0  0
M  END
>  <MODEL>
8

>  <REMARK>
 VINA RESULT:      -7.9      2.879      5.435
  Name = 
  9 active torsions:
  status: ('A' for Active; 'I' for Inactive)
    1  A    between atoms: C_4  and  N_10
    2  A    between atoms: C_4  and  C_29
    3  A    between atoms: O_8  and  C_12
    4  A    between atoms: O_8  and  C_28
    5  A    between atoms: N_10  and  C_18
    6  A    between atoms: C_11  and  C_29
    7  A    between atoms: C_12  and  N_27
    8  A    between atoms: C_15  and  C_20
    9  A    between atoms: N_23  and  N_27
                            x       y       z     vdW  Elec       q    Type
                         _______ _______ _______ _____ _____    ______ ____

>  <TORSDO>
F 9

$$$$
=
 OpenBabel10222415313D

 31 33  0  0  1  0  0  0  0  0999 V2000
  188.6780  177.6240  147.0010 C   0  0  0  0  0  0  0  0  0  0  0  0
  188.7760  177.4580  145.5990 C   0  0  0  0  0  0  0  0  0  0  0  0
  190.0210  177.0940  145.0660 C   0  0  0  0  0  3  0  0  0  0  0  0
  190.9840  177.0540  147.2500 N   0  0  0  0  0  0  0  0  0  0  0  0
  187.4690  177.9890  147.5840 C   0  0  0  0  0  3  0  0  0  0  0  0
  186.3500  178.2130  146.7870 C   0  0  0  0  0  3  0  0  0  0  0  0
  189.7980  177.4120  147.8050 C   0  0  0  0  0  3  0  0  0  0  0  0
  187.6270  177.6730  144.7900 C   0  0  0  0  0  0  0  0  0  0  0  0
  191.1180  176.8940  145.9090 C   0  0  0  0  0  3  0  0  0  0  0  0
  186.4190  178.0620  145.3990 C   0  0  0  0  0  0  0  0  0  0  0  0
  185.2910  178.2930  144.6030 O   0  0  0  0  0  0  0  0  0  0  0  0
  184.1620  179.0300  145.0600 C   0  0  0  0  0  2  0  0  0  0  0  0
  183.2720  179.3100  143.9440 N   0  0  0  0  0  2  0  0  0  0  0  0
  180.8640  178.9970  143.5770 C   0  0  0  0  0  0  0  0  0  0  0  0
  180.8080  180.0600  142.9090 O   0  0  0  0  0  0  0  0  0  0  0  0
  182.0960  178.5770  144.1580 N   0  0  0  0  0  2  0  0  0  0  0  0
  179.7180  178.2380  143.7610 O   0  0  0  0  0  1  0  0  0  0  0  0
  187.6180  177.4860  143.3600 N   0  0  0  0  0  2  0  0  0  0  0  0
  188.6320  177.9290  142.4140 C   0  0  0  0  0  2  0  0  0  0  0  0
  186.6560  179.0130  141.5970 O   0  0  0  0  0  1  0  0  0  0  0  0
  187.9780  178.6770  141.2610 C   0  0  2  0  0  3  0  0  0  0  0  0
  189.4200  179.2290  137.2250 F   0  0  0  0  0  0  0  0  0  0  0  0
  188.0060  177.8140  140.0000 C   0  0  2  0  0  3  0  0  0  0  0  0
  189.9940  177.5050  138.7550 C   0  0  2  0  0  3  0  0  0  0  0  0
  189.2690  176.9730  139.9570 C   0  0  0  0  0  2  0  0  0  0  0  0
  187.9180  178.6220  138.8380 O   0  0  0  0  0  0  0  0  0  0  0  0
  188.8930  178.1610  137.9350 C   0  0  0  0  0  0  0  0  0  0  0  0
  188.2920  177.2770  137.0500 F   0  0  0  0  0  0  0  0  0  0  0  0
  191.6570  176.7550  137.0100 O   0  0  0  0  0  0  0  0  0  0  0  0
  190.7980  176.4440  138.0610 C   0  0  0  0  0  0  0  0  0  0  0  0
  190.6350  175.2430  138.3840 O   0  0  0  0  0  1  0  0  0  0  0  0
  1  5  1  0  0  0  0
  1  7  2  0  0  0  0
  2  1  1  0  0  0  0
  3  2  2  0  0  0  0
  3  9  1  0  0  0  0
  4  7  1  0  0  0  0
  6  5  2  0  0  0  0
  8 10  2  0  0  0  0
  8  2  1  0  0  0  0
  9  4  2  0  0  0  0
 10  6  1  0  0  0  0
 11 12  1  0  0  0  0
 11 10  1  0  0  0  0
 13 16  1  0  0  0  0
 13 12  1  0  0  0  0
 14 17  1  0  0  0  0
 14 16  1  0  0  0  0
 15 14  2  0  0  0  0
 18  8  1  0  0  0  0
 19 18  1  0  0  0  0
 21 20  1  1  0  0  0
 21 19  1  0  0  0  0
 22 27  1  0  0  0  0
 23 21  1  1  0  0  0
 24 30  1  6  0  0  0
 24 25  1  0  0  0  0
 25 23  1  0  0  0  0
 26 23  1  0  0  0  0
 27 24  1  0  0  0  0
 27 26  1  0  0  0  0
 28 27  1  0  0  0  0
 29 30  2  0  0  0  0
 30 31  1  0  0  0  0
M  END
>  <MODEL>
9

>  <REMARK>
 VINA RESULT:      -7.9      2.280      3.190
  Name = 
  9 active torsions:
  status: ('A' for Active; 'I' for Inactive)
    1  A    between atoms: C_4  and  N_10
    2  A    between atoms: C_4  and  C_29
    3  A    between atoms: O_8  and  C_12
    4  A    between atoms: O_8  and  C_28
    5  A    between atoms: N_10  and  C_18
    6  A    between atoms: C_11  and  C_29
    7  A    between atoms: C_12  and  N_27
    8  A    between atoms: C_15  and  C_20
    9  A    between atoms: N_23  and  N_27
                            x       y       z     vdW  Elec       q    Type
                         _______ _______ _______ _____ _____    ______ ____

>  <TORSDO>
F 9

$$$$
