=
 OpenBabel10222418273D

 26 28  0  0  0  0  0  0  0  0999 V2000
  190.8310  176.9930  143.3820 C   0  0  0  0  0  3  0  0  0  0  0  0
  188.6360  177.2800  142.3190 C   0  0  0  0  0  0  0  0  0  0  0  0
  186.9810  177.5490  146.4400 C   0  0  0  0  0  3  0  0  0  0  0  0
  187.3500  177.6880  142.4080 N   0  0  0  0  0  0  0  0  0  0  0  0
  188.9560  177.3640  144.7890 C   0  0  0  0  0  0  0  0  0  0  0  0
  186.6730  177.7840  143.6910 C   0  0  0  0  0  0  0  0  0  0  0  0
  184.5150  178.7130  144.8220 C   0  0  0  0  0  0  0  0  0  0  0  0
  184.7890  178.8030  146.1370 C   0  0  0  0  0  3  0  0  0  0  0  0
  185.8670  178.1180  146.9360 C   0  0  0  0  0  2  0  0  0  0  0  0
  185.4590  178.3600  143.6740 C   0  0  0  0  0  3  0  0  0  0  0  0
  189.4720  177.3190  143.5160 C   0  0  0  0  0  0  0  0  0  0  0  0
  189.7310  177.0520  145.8530 N   0  0  0  0  0  0  0  0  0  0  0  0
  191.6660  176.7340  144.4980 C   0  0  0  0  0  3  0  0  0  0  0  0
  187.4990  177.7590  144.9910 C   0  0  0  0  0  0  0  0  0  0  0  0
  191.0640  176.7710  145.7640 C   0  0  0  0  0  0  0  0  0  0  0  0
  192.3200  176.2620  148.0230 N   0  0  0  0  0  0  0  0  0  0  0  0
  191.7420  176.4950  146.9920 C   0  0  0  0  0  0  0  0  0  0  0  0
  183.3160  179.4110  144.1740 C   0  0  0  0  0  2  0  0  0  0  0  0
  182.7190  178.8150  142.9090 C   0  0  0  0  0  2  0  0  0  0  0  0
  181.3150  179.2830  142.8640 N   0  0  0  0  0  2  0  0  0  0  0  0
  180.5520  178.5970  143.9190 C   0  0  0  0  0  1  0  0  0  0  0  0
  189.3450  177.3780  141.0100 C   0  0  0  0  0  2  0  0  0  0  0  0
  188.6020  178.3490  140.1000 C   0  0  0  0  0  2  0  0  0  0  0  0
  190.0930  177.6060  138.1390 O   0  0  0  0  0  1  0  0  0  0  0  0
  188.8470  179.5520  137.9010 O   0  0  0  0  0  0  0  0  0  0  0  0
  189.1260  178.5510  138.6470 C   0  0  0  0  0  0  0  0  0  0  0  0
  1 11  2  0  0  0  0
  1 13  1  0  0  0  0
  2  4  2  0  0  0  0
  2 11  1  0  0  0  0
  3  9  1  0  0  0  0
  4  6  1  0  0  0  0
  5 14  1  0  0  0  0
  5 12  2  0  0  0  0
  6 14  1  0  0  0  0
  7  8  2  0  0  0  0
  8  9  1  0  0  0  0
 10  6  2  0  0  0  0
 10  7  1  0  0  0  0
 11  5  1  0  0  0  0
 13 15  2  0  0  0  0
 14  3  2  0  0  0  0
 15 12  1  0  0  0  0
 15 17  1  0  0  0  0
 17 16  3  0  0  0  0
 18  7  1  0  0  0  0
 19 18  1  0  0  0  0
 20 19  1  0  0  0  0
 20 21  1  0  0  0  0
 22  2  1  0  0  0  0
 23 22  1  0  0  0  0
 24 26  1  0  0  0  0
 25 26  2  0  0  0  0
 26 23  1  0  0  0  0
M  END
>  <MODEL>
1

>  <REMARK>
 VINA RESULT:      -8.9      0.000      0.000
  Name = 
  7 active torsions:
  status: ('A' for Active; 'I' for Inactive)
    1  A    between atoms: C_1  and  C_11
    2  A    between atoms: C_1  and  C_13
    3  A    between atoms: C_3  and  C_17
    4  A    between atoms: C_3  and  C_24
    5  A    between atoms: C_5  and  C_26
    6  A    between atoms: C_6  and  C_17
    7  A    between atoms: N_9  and  C_11
                            x       y       z     vdW  Elec       q    Type
                         _______ _______ _______ _____ _____    ______ ____

>  <TORSDO>
F 7

$$$$
=
 OpenBabel10222418273D

 26 28  0  0  1  0  0  0  0  0999 V2000
  188.1860  177.1320  146.3630 C   0  0  0  0  0  3  0  0  0  0  0  0
  187.3210  177.9000  144.1970 C   0  0  0  0  0  0  0  0  0  0  0  0
  191.4800  177.4510  142.6850 C   0  0  0  0  0  3  0  0  0  0  0  0
  187.4690  177.9910  142.8560 N   0  0  0  0  0  0  0  0  0  0  0  0
  189.6930  177.2120  144.5310 C   0  0  0  0  0  0  0  0  0  0  0  0
  188.7790  177.9000  142.2310 C   0  0  0  0  0  0  0  0  0  0  0  0
  189.9470  177.6350  139.9160 C   0  0  0  0  0  0  0  0  0  0  0  0
  191.1920  177.1900  140.1720 C   0  0  0  0  0  3  0  0  0  0  0  0
  191.9820  177.2510  141.4530 C   0  0  0  0  0  3  0  0  0  0  0  0
  188.7870  177.8330  140.8900 C   0  0  0  0  0  3  0  0  0  0  0  0
  188.4010  177.3150  144.9880 C   0  0  0  0  0  0  0  0  0  0  0  0
  190.7090  176.9950  145.3960 N   0  0  0  0  0  0  0  0  0  0  0  0
  189.2390  176.8330  147.2650 C   0  0  0  0  0  3  0  0  0  0  0  0
  189.9720  177.3560  143.0400 C   0  0  1  0  0  3  0  0  0  0  0  0
  190.5340  176.7710  146.7320 C   0  0  0  0  0  0  0  0  0  0  0  0
  192.7080  176.3220  148.1500 N   0  0  0  0  0  0  0  0  0  0  0  0
  191.7160  176.5250  147.4980 C   0  0  0  0  0  0  0  0  0  0  0  0
  189.3140  177.5790  138.5230 C   0  0  0  0  0  2  0  0  0  0  0  0
  189.0450  178.8820  137.7880 C   0  0  0  0  0  2  0  0  0  0  0  0
  187.5930  178.8880  137.4940 N   0  0  0  0  0  2  0  0  0  0  0  0
  187.1040  177.5000  137.4910 C   0  0  0  0  0  1  0  0  0  0  0  0
  185.9480  177.8080  144.7770 C   0  0  0  0  0  2  0  0  0  0  0  0
  184.9360  178.3500  143.7750 C   0  0  0  0  0  2  0  0  0  0  0  0
  183.4830  179.1380  145.7470 O   0  0  0  0  0  1  0  0  0  0  0  0
  182.5780  179.2200  143.6080 O   0  0  0  0  0  0  0  0  0  0  0  0
  183.6100  178.9600  144.3180 C   0  0  0  0  0  0  0  0  0  0  0  0
  1 13  1  0  0  0  0
  2 22  1  0  0  0  0
  2 11  1  0  0  0  0
  4  2  2  0  0  0  0
  5 11  1  0  0  0  0
  5 12  2  0  0  0  0
  6  4  1  0  0  0  0
  6 14  1  0  0  0  0
  7  8  2  0  0  0  0
  7 10  1  0  0  0  0
  8  9  1  0  0  0  0
  9  3  2  0  0  0  0
 10  6  2  0  0  0  0
 11  1  2  0  0  0  0
 12 15  1  0  0  0  0
 14  3  1  1  0  0  0
 14  5  1  0  0  0  0
 15 13  2  0  0  0  0
 15 17  1  0  0  0  0
 17 16  3  0  0  0  0
 18  7  1  0  0  0  0
 19 18  1  0  0  0  0
 20 19  1  0  0  0  0
 21 20  1  0  0  0  0
 23 26  1  0  0  0  0
 23 22  1  0  0  0  0
 25 26  2  0  0  0  0
 26 24  1  0  0  0  0
M  END
>  <MODEL>
2

>  <REMARK>
 VINA RESULT:      -8.5      3.026      5.875
  Name = 
  7 active torsions:
  status: ('A' for Active; 'I' for Inactive)
    1  A    between atoms: C_1  and  C_11
    2  A    between atoms: C_1  and  C_13
    3  A    between atoms: C_3  and  C_17
    4  A    between atoms: C_3  and  C_24
    5  A    between atoms: C_5  and  C_26
    6  A    between atoms: C_6  and  C_17
    7  A    between atoms: N_9  and  C_11
                            x       y       z     vdW  Elec       q    Type
                         _______ _______ _______ _____ _____    ______ ____

>  <TORSDO>
F 7

$$$$
=
 OpenBabel10222418273D

 26 28  0  0  0  0  0  0  0  0999 V2000
  185.3410  178.3660  141.3390 C   0  0  0  0  0  3  0  0  0  0  0  0
  187.6820  178.2410  142.0690 C   0  0  0  0  0  0  0  0  0  0  0  0
  186.1080  178.4030  146.2270 C   0  0  0  0  0  3  0  0  0  0  0  0
  188.5780  177.9740  143.0450 N   0  0  0  0  0  2  0  0  0  0  0  0
  185.7730  178.2790  143.6710 C   0  0  0  0  0  0  0  0  0  0  0  0
  188.2080  178.0290  144.4500 C   0  0  0  0  0  0  0  0  0  0  0  0
  189.0540  177.4010  146.8350 C   0  0  0  0  0  0  0  0  0  0  0  0
  187.9640  177.3660  147.6230 C   0  0  0  0  0  3  0  0  0  0  0  0
  186.6080  177.9850  147.4040 C   0  0  0  0  0  3  0  0  0  0  0  0
  189.1290  177.5820  145.3190 C   0  0  0  0  0  3  0  0  0  0  0  0
  186.2570  178.1900  142.3880 C   0  0  0  0  0  0  0  0  0  0  0  0
  184.4720  178.5750  143.8930 N   0  0  0  0  0  0  0  0  0  0  0  0
  183.9620  178.6050  141.5650 C   0  0  0  0  0  3  0  0  0  0  0  0
  186.7180  178.0500  144.8440 C   0  0  0  0  0  0  0  0  0  0  0  0
  183.5450  178.7110  142.8990 C   0  0  0  0  0  0  0  0  0  0  0  0
  181.0730  179.2270  143.6500 N   0  0  0  0  0  0  0  0  0  0  0  0
  182.2050  178.9910  143.3110 C   0  0  0  0  0  0  0  0  0  0  0  0
  190.3970  176.7920  147.2460 C   0  0  0  0  0  2  0  0  0  0  0  0
  191.4900  176.6540  146.1980 C   0  0  0  0  0  2  0  0  0  0  0  0
  192.3480  175.5360  146.6530 N   0  0  0  0  0  2  0  0  0  0  0  0
  192.6720  175.7350  148.0750 C   0  0  0  0  0  1  0  0  0  0  0  0
  188.0530  177.9880  140.6460 C   0  0  0  0  0  2  0  0  0  0  0  0
  189.4370  177.3530  140.5860 C   0  0  0  0  0  2  0  0  0  0  0  0
  190.7730  175.7520  139.0780 O   0  0  0  0  0  1  0  0  0  0  0  0
  189.9840  177.7340  138.1570 O   0  0  0  0  0  0  0  0  0  0  0  0
  190.0230  176.9820  139.1910 C   0  0  0  0  0  0  0  0  0  0  0  0
  1 13  2  0  0  0  0
  1 11  1  0  0  0  0
  2 11  2  0  0  0  0
  2  4  1  0  0  0  0
  3  9  2  0  0  0  0
  4  6  1  0  0  0  0
  5 12  1  0  0  0  0
  5 14  2  0  0  0  0
  6 14  1  0  0  0  0
  6 10  2  0  0  0  0
  7 18  1  0  0  0  0
  7  8  2  0  0  0  0
  9  8  1  0  0  0  0
 10  7  1  0  0  0  0
 11  5  1  0  0  0  0
 13 15  1  0  0  0  0
 14  3  1  0  0  0  0
 15 17  1  0  0  0  0
 15 12  2  0  0  0  0
 17 16  3  0  0  0  0
 19 20  1  0  0  0  0
 19 18  1  0  0  0  0
 20 21  1  0  0  0  0
 22  2  1  0  0  0  0
 23 22  1  0  0  0  0
 24 26  1  0  0  0  0
 25 26  2  0  0  0  0
 26 23  1  0  0  0  0
M  END
>  <MODEL>
3

>  <REMARK>
 VINA RESULT:      -8.2      1.454      6.402
  Name = 
  7 active torsions:
  status: ('A' for Active; 'I' for Inactive)
    1  A    between atoms: C_1  and  C_11
    2  A    between atoms: C_1  and  C_13
    3  A    between atoms: C_3  and  C_17
    4  A    between atoms: C_3  and  C_24
    5  A    between atoms: C_5  and  C_26
    6  A    between atoms: C_6  and  C_17
    7  A    between atoms: N_9  and  C_11
                            x       y       z     vdW  Elec       q    Type
                         _______ _______ _______ _____ _____    ______ ____

>  <TORSDO>
F 7

$$$$
=
 OpenBabel10222418273D

 26 28  0  0  1  0  0  0  0  0999 V2000
  186.9840  177.8130  146.3300 C   0  0  0  0  0  3  0  0  0  0  0  0
  189.0610  176.8870  145.4040 C   0  0  0  0  0  0  0  0  0  0  0  0
  187.3760  177.8410  141.3980 C   0  0  0  0  0  3  0  0  0  0  0  0
  189.9220  176.7840  144.3660 N   0  0  0  0  0  0  0  0  0  0  0  0
  187.2790  177.8870  143.9770 C   0  0  0  0  0  0  0  0  0  0  0  0
  189.4950  177.0310  142.9990 C   0  0  0  0  0  0  0  0  0  0  0  0
  190.4070  177.3910  140.5830 C   0  0  0  0  0  0  0  0  0  0  0  0
  189.4230  178.0020  139.8970 C   0  0  0  0  0  3  0  0  0  0  0  0
  187.9500  178.0760  140.2040 C   0  0  0  0  0  3  0  0  0  0  0  0
  190.4690  177.0660  142.0750 C   0  0  0  0  0  3  0  0  0  0  0  0
  187.8160  177.6280  145.2150 C   0  0  0  0  0  0  0  0  0  0  0  0
  185.9840  178.2570  143.8560 N   0  0  0  0  0  0  0  0  0  0  0  0
  185.6460  178.2690  146.2150 C   0  0  0  0  0  3  0  0  0  0  0  0
  188.1550  177.7460  142.7380 C   0  0  1  0  0  3  0  0  0  0  0  0
  185.1580  178.4870  144.9190 C   0  0  0  0  0  0  0  0  0  0  0  0
  182.7040  179.2540  144.3480 N   0  0  0  0  0  0  0  0  0  0  0  0
  183.8250  178.9050  144.6140 C   0  0  0  0  0  0  0  0  0  0  0  0
  191.8540  177.3310  140.0860 C   0  0  0  0  0  2  0  0  0  0  0  0
  192.1300  176.7480  138.7090 C   0  0  0  0  0  2  0  0  0  0  0  0
  193.5940  176.5370  138.6450 N   0  0  0  0  0  2  0  0  0  0  0  0
  193.8650  175.3290  137.8490 C   0  0  0  0  0  1  0  0  0  0  0  0
  189.5840  176.8120  146.7990 C   0  0  0  0  0  2  0  0  0  0  0  0
  191.0740  177.1310  146.8010 C   0  0  0  0  0  2  0  0  0  0  0  0
  192.8280  176.0910  148.3720 O   0  0  0  0  0  1  0  0  0  0  0  0
  192.3650  175.0120  146.3670 O   0  0  0  0  0  0  0  0  0  0  0  0
  192.0750  175.9870  147.1420 C   0  0  0  0  0  0  0  0  0  0  0  0
  2 22  1  0  0  0  0
  4  2  2  0  0  0  0
  5 11  1  0  0  0  0
  6  4  1  0  0  0  0
  7 10  1  0  0  0  0
  8  9  1  0  0  0  0
  8  7  2  0  0  0  0
  9  3  2  0  0  0  0
 10  6  2  0  0  0  0
 11  2  1  0  0  0  0
 11  1  2  0  0  0  0
 12  5  2  0  0  0  0
 12 15  1  0  0  0  0
 13  1  1  0  0  0  0
 14  3  1  6  0  0  0
 14  6  1  0  0  0  0
 14  5  1  0  0  0  0
 15 13  2  0  0  0  0
 16 17  3  0  0  0  0
 17 15  1  0  0  0  0
 18  7  1  0  0  0  0
 19 18  1  0  0  0  0
 20 19  1  0  0  0  0
 21 20  1  0  0  0  0
 22 23  1  0  0  0  0
 23 26  1  0  0  0  0
 25 26  2  0  0  0  0
 26 24  1  0  0  0  0
M  END
>  <MODEL>
4

>  <REMARK>
 VINA RESULT:      -7.8      3.551      7.786
  Name = 
  7 active torsions:
  status: ('A' for Active; 'I' for Inactive)
    1  A    between atoms: C_1  and  C_11
    2  A    between atoms: C_1  and  C_13
    3  A    between atoms: C_3  and  C_17
    4  A    between atoms: C_3  and  C_24
    5  A    between atoms: C_5  and  C_26
    6  A    between atoms: C_6  and  C_17
    7  A    between atoms: N_9  and  C_11
                            x       y       z     vdW  Elec       q    Type
                         _______ _______ _______ _____ _____    ______ ____

>  <TORSDO>
F 7

$$$$
=
 OpenBabel10222418273D

 26 28  0  0  0  0  0  0  0  0999 V2000
  182.4330  178.8420  140.9730 C   0  0  0  0  0  3  0  0  0  0  0  0
  184.8870  178.7880  141.0400 C   0  0  0  0  0  0  0  0  0  0  0  0
  184.4910  178.6890  145.4700 C   0  0  0  0  0  3  0  0  0  0  0  0
  186.0220  178.5170  141.7230 N   0  0  0  0  0  0  0  0  0  0  0  0
  183.4810  178.6680  143.0950 C   0  0  0  0  0  0  0  0  0  0  0  0
  186.0430  178.4910  143.1770 C   0  0  0  0  0  0  0  0  0  0  0  0
  187.5210  177.7920  145.2080 C   0  0  0  0  0  0  0  0  0  0  0  0
  186.6850  177.6730  146.2570 C   0  0  0  0  0  3  0  0  0  0  0  0
  185.3020  178.2400  146.4440 C   0  0  0  0  0  2  0  0  0  0  0  0
  187.1780  178.0460  143.7410 C   0  0  0  0  0  3  0  0  0  0  0  0
  183.6030  178.6590  141.7260 C   0  0  0  0  0  0  0  0  0  0  0  0
  182.2810  178.8950  143.6740 N   0  0  0  0  0  0  0  0  0  0  0  0
  181.1590  179.0090  141.5740 C   0  0  0  0  0  3  0  0  0  0  0  0
  184.7150  178.4270  143.9560 C   0  0  0  0  0  0  0  0  0  0  0  0
  181.1160  179.0340  142.9750 C   0  0  0  0  0  0  0  0  0  0  0  0
  178.9310  179.4150  144.3960 N   0  0  0  0  0  0  0  0  0  0  0  0
  179.9290  179.2360  143.7460 C   0  0  0  0  0  0  0  0  0  0  0  0
  188.9430  177.2260  145.2100 C   0  0  0  0  0  2  0  0  0  0  0  0
  190.1070  178.1710  144.9600 C   0  0  0  0  0  2  0  0  0  0  0  0
  191.3050  177.3110  144.8260 N   0  0  0  0  0  2  0  0  0  0  0  0
  191.5670  176.6580  146.1190 C   0  0  0  0  0  1  0  0  0  0  0  0
  184.8670  178.6170  139.5570 C   0  0  0  0  0  2  0  0  0  0  0  0
  186.2850  178.3750  139.0550 C   0  0  0  0  0  2  0  0  0  0  0  0
  185.9980  177.0590  136.8610 O   0  0  0  0  0  1  0  0  0  0  0  0
  187.2170  179.0370  136.8100 O   0  0  0  0  0  0  0  0  0  0  0  0
  186.5140  178.2380  137.5200 C   0  0  0  0  0  0  0  0  0  0  0  0
  1 13  2  0  0  0  0
  1 11  1  0  0  0  0
  2  4  2  0  0  0  0
  2 11  1  0  0  0  0
  3  9  1  0  0  0  0
  4  6  1  0  0  0  0
  5 12  1  0  0  0  0
  5 14  1  0  0  0  0
  6 10  2  0  0  0  0
  6 14  1  0  0  0  0
  7 18  1  0  0  0  0
  7  8  2  0  0  0  0
  8  9  1  0  0  0  0
 10  7  1  0  0  0  0
 11  5  2  0  0  0  0
 13 15  1  0  0  0  0
 14  3  2  0  0  0  0
 15 12  2  0  0  0  0
 15 17  1  0  0  0  0
 17 16  3  0  0  0  0
 19 18  1  0  0  0  0
 20 19  1  0  0  0  0
 20 21  1  0  0  0  0
 22  2  1  0  0  0  0
 23 22  1  0  0  0  0
 24 26  1  0  0  0  0
 25 26  2  0  0  0  0
 26 23  1  0  0  0  0
M  END
>  <MODEL>
5

>  <REMARK>
 VINA RESULT:      -7.6      1.868      6.981
  Name = 
  7 active torsions:
  status: ('A' for Active; 'I' for Inactive)
    1  A    between atoms: C_1  and  C_11
    2  A    between atoms: C_1  and  C_13
    3  A    between atoms: C_3  and  C_17
    4  A    between atoms: C_3  and  C_24
    5  A    between atoms: C_5  and  C_26
    6  A    between atoms: C_6  and  C_17
    7  A    between atoms: N_9  and  C_11
                            x       y       z     vdW  Elec       q    Type
                         _______ _______ _______ _____ _____    ______ ____

>  <TORSDO>
F 7

$$$$
=
 OpenBabel10222418273D

 26 28  0  0  0  0  0  0  0  0999 V2000
  189.7250  176.6170  144.1220 C   0  0  0  0  0  3  0  0  0  0  0  0
  187.8310  177.5110  145.4040 C   0  0  0  0  0  0  0  0  0  0  0  0
  186.0700  178.6550  141.4820 C   0  0  0  0  0  3  0  0  0  0  0  0
  186.5400  177.9120  145.4360 N   0  0  0  0  0  2  0  0  0  0  0  0
  187.8930  177.5180  142.9120 C   0  0  0  0  0  0  0  0  0  0  0  0
  185.8520  178.3500  144.2330 C   0  0  0  0  0  0  0  0  0  0  0  0
  183.4870  178.9250  143.3000 C   0  0  0  0  0  0  0  0  0  0  0  0
  183.5780  178.8340  141.9600 C   0  0  0  0  0  3  0  0  0  0  0  0
  184.8030  178.8690  141.0830 C   0  0  0  0  0  3  0  0  0  0  0  0
  184.5310  178.5620  144.3540 C   0  0  0  0  0  3  0  0  0  0  0  0
  188.4190  177.1310  144.1210 C   0  0  0  0  0  0  0  0  0  0  0  0
  188.6400  177.4470  141.7870 N   0  0  0  0  0  0  0  0  0  0  0  0
  190.4870  176.4730  142.9350 C   0  0  0  0  0  3  0  0  0  0  0  0
  186.4620  178.0390  142.8520 C   0  0  0  0  0  0  0  0  0  0  0  0
  189.8960  176.9150  141.7430 C   0  0  0  0  0  0  0  0  0  0  0  0
  191.0700  176.8530  139.3850 N   0  0  0  0  0  0  0  0  0  0  0  0
  190.5330  176.8860  140.4630 C   0  0  0  0  0  0  0  0  0  0  0  0
  182.1470  178.9640  144.0400 C   0  0  0  0  0  2  0  0  0  0  0  0
  180.8700  179.1430  143.2340 C   0  0  0  0  0  2  0  0  0  0  0  0
  179.8760  178.2300  143.8430 N   0  0  0  0  0  2  0  0  0  0  0  0
  178.9780  179.0150  144.7060 C   0  0  0  0  0  1  0  0  0  0  0  0
  188.4360  176.8930  146.6210 C   0  0  0  0  0  2  0  0  0  0  0  0
  189.5940  177.7550  147.1060 C   0  0  0  0  0  2  0  0  0  0  0  0
  191.7390  177.7010  148.5280 O   0  0  0  0  0  1  0  0  0  0  0  0
  191.3830  175.9850  147.0030 O   0  0  0  0  0  0  0  0  0  0  0  0
  190.9140  177.0490  147.5360 C   0  0  0  0  0  0  0  0  0  0  0  0
  2  4  1  0  0  0  0
  2 22  1  0  0  0  0
  3 14  1  0  0  0  0
  5 11  1  0  0  0  0
  6 10  2  0  0  0  0
  6  4  1  0  0  0  0
  7 18  1  0  0  0  0
  7 10  1  0  0  0  0
  8  7  2  0  0  0  0
  9  3  2  0  0  0  0
  9  8  1  0  0  0  0
 11  1  1  0  0  0  0
 11  2  2  0  0  0  0
 12  5  1  0  0  0  0
 13  1  2  0  0  0  0
 14  5  2  0  0  0  0
 14  6  1  0  0  0  0
 15 12  2  0  0  0  0
 15 13  1  0  0  0  0
 16 17  3  0  0  0  0
 17 15  1  0  0  0  0
 19 20  1  0  0  0  0
 19 18  1  0  0  0  0
 20 21  1  0  0  0  0
 22 23  1  0  0  0  0
 23 26  1  0  0  0  0
 25 26  2  0  0  0  0
 26 24  1  0  0  0  0
M  END
>  <MODEL>
6

>  <REMARK>
 VINA RESULT:      -7.5      3.328      5.093
  Name = 
  7 active torsions:
  status: ('A' for Active; 'I' for Inactive)
    1  A    between atoms: C_1  and  C_11
    2  A    between atoms: C_1  and  C_13
    3  A    between atoms: C_3  and  C_17
    4  A    between atoms: C_3  and  C_24
    5  A    between atoms: C_5  and  C_26
    6  A    between atoms: C_6  and  C_17
    7  A    between atoms: N_9  and  C_11
                            x       y       z     vdW  Elec       q    Type
                         _______ _______ _______ _____ _____    ______ ____

>  <TORSDO>
F 7

$$$$
=
 OpenBabel10222418273D

 26 28  0  0  1  0  0  0  0  0999 V2000
  185.3110  178.3600  144.5380 C   0  0  0  0  0  3  0  0  0  0  0  0
  185.7670  178.8010  142.1660 C   0  0  0  0  0  0  0  0  0  0  0  0
  189.9860  177.7050  143.0560 C   0  0  0  0  0  3  0  0  0  0  0  0
  186.5690  178.6340  141.0900 N   0  0  0  0  0  0  0  0  0  0  0  0
  187.5110  177.9690  143.7400 C   0  0  0  0  0  0  0  0  0  0  0  0
  187.9780  178.3120  141.2370 C   0  0  0  0  0  0  0  0  0  0  0  0
  190.0690  177.5270  139.8920 C   0  0  0  0  0  0  0  0  0  0  0  0
  190.9300  177.0220  140.7960 C   0  0  0  0  0  3  0  0  0  0  0  0
  190.9850  177.2400  142.2860 C   0  0  0  0  0  3  0  0  0  0  0  0
  188.6330  178.0030  140.1060 C   0  0  0  0  0  3  0  0  0  0  0  0
  186.2010  178.2710  143.4560 C   0  0  0  0  0  0  0  0  0  0  0  0
  187.9170  177.8190  145.0210 N   0  0  0  0  0  0  0  0  0  0  0  0
  185.7150  178.1330  145.8780 C   0  0  0  0  0  3  0  0  0  0  0  0
  188.5070  177.8150  142.5970 C   0  0  1  0  0  3  0  0  0  0  0  0
  187.0720  177.8570  146.0940 C   0  0  0  0  0  0  0  0  0  0  0  0
  188.1550  177.4730  148.4640 N   0  0  0  0  0  0  0  0  0  0  0  0
  187.6630  177.6450  147.3790 C   0  0  0  0  0  0  0  0  0  0  0  0
  190.2040  177.2780  138.3870 C   0  0  0  0  0  2  0  0  0  0  0  0
  189.4310  178.1680  137.4270 C   0  0  0  0  0  2  0  0  0  0  0  0
  188.8720  177.2630  136.3970 N   0  0  0  0  0  2  0  0  0  0  0  0
  189.9430  176.3800  135.9090 C   0  0  0  0  0  1  0  0  0  0  0  0
  184.2950  178.9420  141.9670 C   0  0  0  0  0  2  0  0  0  0  0  0
  183.8720  178.1600  140.7290 C   0  0  0  0  0  2  0  0  0  0  0  0
  183.6240  178.1030  138.1680 O   0  0  0  0  0  0  0  0  0  0  0  0
  184.1870  180.1190  139.1780 O   0  0  0  0  0  1  0  0  0  0  0  0
  183.8740  178.8910  139.3540 C   0  0  0  0  0  0  0  0  0  0  0  0
  1 13  1  0  0  0  0
  2 11  1  0  0  0  0
  4  6  1  0  0  0  0
  4  2  2  0  0  0  0
  5 12  2  0  0  0  0
  6 14  1  0  0  0  0
  7 10  1  0  0  0  0
  7  8  2  0  0  0  0
  8  9  1  0  0  0  0
  9  3  2  0  0  0  0
 10  6  2  0  0  0  0
 11  5  1  0  0  0  0
 11  1  2  0  0  0  0
 12 15  1  0  0  0  0
 13 15  2  0  0  0  0
 14  3  1  1  0  0  0
 14  5  1  0  0  0  0
 15 17  1  0  0  0  0
 17 16  3  0  0  0  0
 18  7  1  0  0  0  0
 19 18  1  0  0  0  0
 20 19  1  0  0  0  0
 21 20  1  0  0  0  0
 22  2  1  0  0  0  0
 23 22  1  0  0  0  0
 24 26  2  0  0  0  0
 25 26  1  0  0  0  0
 26 23  1  0  0  0  0
M  END
>  <MODEL>
7

>  <REMARK>
 VINA RESULT:      -7.4      2.766      6.078
  Name = 
  7 active torsions:
  status: ('A' for Active; 'I' for Inactive)
    1  A    between atoms: C_1  and  C_11
    2  A    between atoms: C_1  and  C_13
    3  A    between atoms: C_3  and  C_17
    4  A    between atoms: C_3  and  C_24
    5  A    between atoms: C_5  and  C_26
    6  A    between atoms: C_6  and  C_17
    7  A    between atoms: N_9  and  C_11
                            x       y       z     vdW  Elec       q    Type
                         _______ _______ _______ _____ _____    ______ ____

>  <TORSDO>
F 7

$$$$
=
 OpenBabel10222418273D

 26 28  0  0  1  0  0  0  0  0999 V2000
  184.8530  178.6530  145.2620 C   0  0  0  0  0  3  0  0  0  0  0  0
  186.9970  177.7880  144.4340 C   0  0  0  0  0  0  0  0  0  0  0  0
  185.2900  178.2430  140.3510 C   0  0  0  0  0  3  0  0  0  0  0  0
  187.8730  177.6480  143.4140 N   0  0  0  0  0  0  0  0  0  0  0  0
  185.1650  178.5250  142.9130 C   0  0  0  0  0  0  0  0  0  0  0  0
  187.4430  177.7350  142.0280 C   0  0  0  0  0  0  0  0  0  0  0  0
  188.3520  177.9280  139.5920 C   0  0  0  0  0  0  0  0  0  0  0  0
  187.3350  178.4020  138.8480 C   0  0  0  0  0  3  0  0  0  0  0  0
  185.8570  178.4030  139.1420 C   0  0  0  0  0  3  0  0  0  0  0  0
  188.4220  177.7500  141.1070 C   0  0  0  0  0  3  0  0  0  0  0  0
  185.7060  178.4210  144.1720 C   0  0  0  0  0  0  0  0  0  0  0  0
  183.8490  178.7920  142.7540 N   0  0  0  0  0  0  0  0  0  0  0  0
  183.4890  179.0030  145.1010 C   0  0  0  0  0  3  0  0  0  0  0  0
  186.0600  178.3280  141.6960 C   0  0  1  0  0  3  0  0  0  0  0  0
  183.0000  179.0640  143.7880 C   0  0  0  0  0  0  0  0  0  0  0  0
  180.5010  179.6080  143.1570 N   0  0  0  0  0  0  0  0  0  0  0  0
  181.6440  179.3580  143.4410 C   0  0  0  0  0  0  0  0  0  0  0  0
  189.8040  177.9210  139.1060 C   0  0  0  0  0  2  0  0  0  0  0  0
  190.7790  176.9370  139.7310 C   0  0  0  0  0  2  0  0  0  0  0  0
  190.9870  175.8750  138.7200 N   0  0  0  0  0  2  0  0  0  0  0  0
  192.2050  176.1830  137.9530 C   0  0  0  0  0  1  0  0  0  0  0  0
  187.5110  177.8820  145.8320 C   0  0  0  0  0  2  0  0  0  0  0  0
  188.9430  177.3650  145.8830 C   0  0  0  0  0  2  0  0  0  0  0  0
  189.0130  177.8970  148.4000 O   0  0  0  0  0  1  0  0  0  0  0  0
  190.7800  176.7050  147.4750 O   0  0  0  0  0  0  0  0  0  0  0  0
  189.6390  177.2460  147.2720 C   0  0  0  0  0  0  0  0  0  0  0  0
  2 22  1  0  0  0  0
  4  2  2  0  0  0  0
  5 11  1  0  0  0  0
  6  4  1  0  0  0  0
  7 10  1  0  0  0  0
  8  9  1  0  0  0  0
  8  7  2  0  0  0  0
  9  3  2  0  0  0  0
 10  6  2  0  0  0  0
 11  2  1  0  0  0  0
 11  1  2  0  0  0  0
 12  5  2  0  0  0  0
 12 15  1  0  0  0  0
 13  1  1  0  0  0  0
 14  3  1  6  0  0  0
 14  6  1  0  0  0  0
 14  5  1  0  0  0  0
 15 13  2  0  0  0  0
 16 17  3  0  0  0  0
 17 15  1  0  0  0  0
 18  7  1  0  0  0  0
 18 19  1  0  0  0  0
 20 19  1  0  0  0  0
 21 20  1  0  0  0  0
 22 23  1  0  0  0  0
 23 26  1  0  0  0  0
 26 25  2  0  0  0  0
 26 24  1  0  0  0  0
M  END
>  <MODEL>
8

>  <REMARK>
 VINA RESULT:      -7.2      3.386      7.867
  Name = 
  7 active torsions:
  status: ('A' for Active; 'I' for Inactive)
    1  A    between atoms: C_1  and  C_11
    2  A    between atoms: C_1  and  C_13
    3  A    between atoms: C_3  and  C_17
    4  A    between atoms: C_3  and  C_24
    5  A    between atoms: C_5  and  C_26
    6  A    between atoms: C_6  and  C_17
    7  A    between atoms: N_9  and  C_11
                            x       y       z     vdW  Elec       q    Type
                         _______ _______ _______ _____ _____    ______ ____

>  <TORSDO>
F 7

$$$$
=
 OpenBabel10222418273D

 26 28  0  0  0  0  0  0  0  0999 V2000
  186.7100  178.3370  138.8310 C   0  0  0  0  0  3  0  0  0  0  0  0
  188.5170  178.2060  140.4880 C   0  0  0  0  0  0  0  0  0  0  0  0
  185.3600  178.7700  143.5710 C   0  0  0  0  0  3  0  0  0  0  0  0
  188.9040  177.9980  141.7670 N   0  0  0  0  0  2  0  0  0  0  0  0
  186.1190  178.4380  141.1270 C   0  0  0  0  0  0  0  0  0  0  0  0
  187.9830  178.1840  142.8760 C   0  0  0  0  0  0  0  0  0  0  0  0
  187.7110  177.7380  145.4310 C   0  0  0  0  0  0  0  0  0  0  0  0
  186.3910  177.8030  145.6850 C   0  0  0  0  0  3  0  0  0  0  0  0
  185.2930  178.4400  144.8730 C   0  0  0  0  0  3  0  0  0  0  0  0
  188.4260  177.7870  144.0810 C   0  0  0  0  0  3  0  0  0  0  0  0
  187.0900  178.2250  140.1770 C   0  0  0  0  0  0  0  0  0  0  0  0
  184.8670  178.7900  140.7590 N   0  0  0  0  0  0  0  0  0  0  0  0
  185.3810  178.6350  138.4370 C   0  0  0  0  0  3  0  0  0  0  0  0
  186.4700  178.2820  142.6010 C   0  0  0  0  0  0  0  0  0  0  0  0
  184.4510  178.8670  139.4600 C   0  0  0  0  0  0  0  0  0  0  0  0
  181.9310  179.5270  139.0740 N   0  0  0  0  0  0  0  0  0  0  0  0
  183.0830  179.2210  139.2480 C   0  0  0  0  0  0  0  0  0  0  0  0
  188.7180  177.1280  146.4100 C   0  0  0  0  0  2  0  0  0  0  0  0
  190.1920  177.1340  146.0430 C   0  0  0  0  0  2  0  0  0  0  0  0
  190.9200  176.7700  147.2800 N   0  0  0  0  0  2  0  0  0  0  0  0
  192.0560  175.9040  146.9260 C   0  0  0  0  0  1  0  0  0  0  0  0
  189.4340  177.8210  139.3750 C   0  0  0  0  0  2  0  0  0  0  0  0
  190.4020  176.7500  139.8610 C   0  0  0  0  0  2  0  0  0  0  0  0
  192.8030  176.8000  138.9360 O   0  0  0  0  0  0  0  0  0  0  0  0
  192.4310  177.6100  141.0810 O   0  0  0  0  0  1  0  0  0  0  0  0
  191.9050  177.1280  140.0200 C   0  0  0  0  0  0  0  0  0  0  0  0
  1 11  1  0  0  0  0
  2  4  1  0  0  0  0
  3  9  2  0  0  0  0
  4  6  1  0  0  0  0
  5 14  2  0  0  0  0
  6 10  2  0  0  0  0
  7  8  2  0  0  0  0
  7 18  1  0  0  0  0
  9  8  1  0  0  0  0
 10  7  1  0  0  0  0
 11  2  2  0  0  0  0
 11  5  1  0  0  0  0
 12  5  1  0  0  0  0
 13  1  2  0  0  0  0
 13 15  1  0  0  0  0
 14  6  1  0  0  0  0
 14  3  1  0  0  0  0
 15 12  2  0  0  0  0
 16 17  3  0  0  0  0
 17 15  1  0  0  0  0
 19 18  1  0  0  0  0
 19 20  1  0  0  0  0
 21 20  1  0  0  0  0
 22 23  1  0  0  0  0
 22  2  1  0  0  0  0
 23 26  1  0  0  0  0
 24 26  2  0  0  0  0
 26 25  1  0  0  0  0
M  END
>  <MODEL>
9

>  <REMARK>
 VINA RESULT:      -7.1      2.250      6.592
  Name = 
  7 active torsions:
  status: ('A' for Active; 'I' for Inactive)
    1  A    between atoms: C_1  and  C_11
    2  A    between atoms: C_1  and  C_13
    3  A    between atoms: C_3  and  C_17
    4  A    between atoms: C_3  and  C_24
    5  A    between atoms: C_5  and  C_26
    6  A    between atoms: C_6  and  C_17
    7  A    between atoms: N_9  and  C_11
                            x       y       z     vdW  Elec       q    Type
                         _______ _______ _______ _____ _____    ______ ____

>  <TORSDO>
F 7

$$$$
