=
 OpenBabel10222416253D

 38 42  0  0  1  0  0  0  0  0999 V2000
  182.5790  176.1500  136.9380 C   0  0  0  0  0  3  0  0  0  0  0  0
  183.4620  178.5260  138.5430 C   0  0  0  0  0  0  0  0  0  0  0  0
  187.6360  177.4650  139.8420 C   0  0  2  0  0  3  0  0  0  0  0  0
  187.8630  177.3000  138.3050 C   0  0  1  0  0  3  0  0  0  0  0  0
  185.6840  178.8250  139.1700 C   0  0  1  0  0  3  0  0  0  0  0  0
  179.7170  177.9210  138.3070 N   0  0  0  0  0  1  0  0  0  0  0  0
  184.3190  179.0990  139.4830 O   0  0  0  0  0  0  0  0  0  0  0  0
  186.3310  178.0740  140.2530 N   0  0  0  0  0  0  0  0  0  0  0  0
  181.9930  178.6940  138.5860 C   0  0  0  0  0  0  0  0  0  0  0  0
  181.1210  177.7360  138.1470 C   0  0  0  0  0  0  0  0  0  0  0  0
  183.5440  177.1730  136.4550 C   0  0  0  0  0  2  0  0  0  0  0  0
  186.5560  177.1740  137.5700 C   0  0  0  0  0  0  0  0  0  0  0  0
  185.5500  177.9440  137.9800 C   0  0  0  0  0  0  0  0  0  0  0  0
  184.1430  177.8620  137.6250 C   0  0  0  0  0  0  0  0  0  0  0  0
  181.5350  176.4440  137.6570 N   0  0  0  0  0  0  0  0  0  0  0  0
  188.7480  178.0350  140.4840 O   0  0  0  0  0  1  0  0  0  0  0  0
  188.6630  178.4310  137.7180 C   0  0  0  0  0  3  0  0  0  0  0  0
  189.6380  178.2700  136.8720 N   0  0  0  0  0  0  0  0  0  0  0  0
  190.0950  177.0310  136.3090 C   0  0  0  0  0  0  0  0  0  0  0  0
  189.4920  176.4890  135.3420 O   0  0  0  0  0  0  0  0  0  0  0  0
  191.0230  175.2940  137.8090 C   0  0  0  0  0  2  0  0  0  0  0  0
  191.4450  176.6490  138.3310 C   0  0  0  0  0  2  0  0  0  0  0  0
  191.3510  176.4120  136.8340 C   0  0  0  0  0  3  0  0  0  0  0  0
  186.3880  176.2760  136.5120 O   0  0  0  0  0  0  0  0  0  0  0  0
  186.5770  174.8770  136.6730 C   0  0  0  0  0  1  0  0  0  0  0  0
  181.6170  181.1760  138.6550 C   0  0  0  0  0  2  0  0  0  0  0  0
  181.5620  179.9710  139.2130 C   0  0  0  0  0  3  0  0  0  0  0  0
  186.4790  178.9770  141.3950 C   0  0  0  0  0  2  0  0  0  0  0  0
  185.8880  178.2620  145.6730 C   0  0  0  0  0  2  0  0  0  0  0  0
  186.8990  177.4670  144.8560 C   0  0  1  0  0  3  0  0  0  0  0  0
  186.0730  178.2770  142.6830 C   0  0  1  0  0  3  0  0  0  0  0  0
  187.2810  178.2280  143.6030 C   0  0  0  0  0  2  0  0  0  0  0  0
  184.8690  178.9870  143.3290 C   0  0  1  0  0  3  0  0  0  0  0  0
  183.5820  178.4440  142.7290 C   0  0  0  0  0  1  0  0  0  0  0  0
  183.8760  179.4300  145.4220 O   0  0  0  0  0  0  0  0  0  0  0  0
  184.8080  178.9010  144.8400 C   0  0  0  0  0  0  0  0  0  0  0  0
  188.0930  177.2230  145.6670 C   0  0  0  0  0  0  0  0  0  0  0  0
  189.0380  177.0300  146.3080 N   0  0  0  0  0  0  0  0  0  0  0  0
  1 15  2  0  0  0  0
  2  9  1  0  0  0  0
  2  7  1  0  0  0  0
  3  8  1  0  0  0  0
  3 16  1  6  0  0  0
  4 17  1  6  0  0  0
  4  3  1  0  0  0  0
  5 13  1  6  0  0  0
  5  7  1  0  0  0  0
  5  8  1  0  0  0  0
  8 28  1  0  0  0  0
  9 27  1  0  0  0  0
 10  6  1  0  0  0  0
 10  9  2  0  0  0  0
 11  1  1  0  0  0  0
 11 14  1  0  0  0  0
 12 13  2  0  0  0  0
 12  4  1  0  0  0  0
 14 13  1  0  0  0  0
 14  2  2  0  0  0  0
 15 10  1  0  0  0  0
 18 17  2  0  0  0  0
 19 23  1  0  0  0  0
 19 18  1  0  0  0  0
 20 19  2  0  0  0  0
 21 22  1  0  0  0  0
 23 21  1  0  0  0  0
 23 22  1  0  0  0  0
 24 25  1  0  0  0  0
 24 12  1  0  0  0  0
 26 27  2  0  0  0  0
 30 37  1  1  0  0  0
 30 29  1  0  0  0  0
 31 28  1  6  0  0  0
 31 33  1  0  0  0  0
 31 32  1  0  0  0  0
 32 30  1  0  0  0  0
 33 34  1  6  0  0  0
 33 36  1  0  0  0  0
 36 35  2  0  0  0  0
 36 29  1  0  0  0  0
 37 38  3  0  0  0  0
M  END
>  <MODEL>
1

>  <REMARK>
 VINA RESULT:      -6.8      0.000      0.000
  Name = 
  8 active torsions:
  status: ('A' for Active; 'I' for Inactive)
    1  A    between atoms: C_1  and  C_13
    2  A    between atoms: C_3  and  N_20
    3  A    between atoms: C_3  and  C_37
    4  A    between atoms: O_6  and  C_33
    5  A    between atoms: C_7  and  C_12
    6  A    between atoms: C_16  and  C_32
    7  A    between atoms: C_22  and  C_27
    8  A    between atoms: N_23  and  C_32
                            x       y       z     vdW  Elec       q    Type
                         _______ _______ _______ _____ _____    ______ ____

>  <TORSDO>
F 8

$$$$
=
 OpenBabel10222416253D

 38 42  0  0  1  0  0  0  0  0999 V2000
  183.4150  175.3080  137.8750 C   0  0  0  0  0  3  0  0  0  0  0  0
  184.9180  177.8620  138.3440 C   0  0  0  0  0  0  0  0  0  0  0  0
  189.2360  176.6040  138.2890 C   0  0  2  0  0  3  0  0  0  0  0  0
  188.8540  176.0480  136.8800 C   0  0  1  0  0  3  0  0  0  0  0  0
  187.2190  178.0080  138.0220 C   0  0  1  0  0  3  0  0  0  0  0  0
  181.3500  177.7150  139.6450 N   0  0  0  0  0  1  0  0  0  0  0  0
  186.0860  178.5260  138.7180 O   0  0  0  0  0  0  0  0  0  0  0  0
  188.2060  177.4610  138.9600 N   0  0  0  0  0  0  0  0  0  0  0  0
  183.5820  178.2270  138.8650 C   0  0  0  0  0  0  0  0  0  0  0  0
  182.5790  177.3140  139.0470 C   0  0  0  0  0  0  0  0  0  0  0  0
  184.1540  176.0490  136.8180 C   0  0  0  0  0  2  0  0  0  0  0  0
  187.3620  175.9210  136.7280 C   0  0  0  0  0  0  0  0  0  0  0  0
  186.6130  176.8930  137.2470 C   0  0  0  0  0  0  0  0  0  0  0  0
  185.1750  176.9130  137.4600 C   0  0  0  0  0  0  0  0  0  0  0  0
  182.7350  175.8990  138.8120 N   0  0  0  0  0  0  0  0  0  0  0  0
  190.5260  177.1600  138.3070 O   0  0  0  0  0  1  0  0  0  0  0  0
  189.4030  176.8890  135.7610 C   0  0  0  0  0  3  0  0  0  0  0  0
  190.2900  176.4730  134.9050 N   0  0  0  0  0  0  0  0  0  0  0  0
  190.8620  175.1580  134.8280 C   0  0  0  0  0  0  0  0  0  0  0  0
  190.1460  174.1450  134.5940 O   0  0  0  0  0  0  0  0  0  0  0  0
  192.6960  174.3740  136.2930 C   0  0  0  0  0  2  0  0  0  0  0  0
  192.8490  175.8660  136.0950 C   0  0  0  0  0  2  0  0  0  0  0  0
  192.3430  174.9990  134.9540 C   0  0  0  0  0  3  0  0  0  0  0  0
  186.7750  174.8260  136.0890 O   0  0  0  0  0  0  0  0  0  0  0  0
  187.0510  173.4880  136.4790 C   0  0  0  0  0  1  0  0  0  0  0  0
  182.6440  180.5500  138.6770 C   0  0  0  0  0  2  0  0  0  0  0  0
  183.4630  179.6620  139.2330 C   0  0  0  0  0  3  0  0  0  0  0  0
  188.8070  178.5830  139.6810 C   0  0  0  0  0  2  0  0  0  0  0  0
  187.7740  176.7280  143.5090 C   0  0  0  0  0  2  0  0  0  0  0  0
  187.2140  178.0830  143.0940 C   0  0  1  0  0  3  0  0  0  0  0  0
  188.7420  178.3480  141.1820 C   0  0  1  0  0  3  0  0  0  0  0  0
  187.2820  178.2440  141.5880 C   0  0  0  0  0  2  0  0  0  0  0  0
  189.5520  177.0970  141.5690 C   0  0  1  0  0  3  0  0  0  0  0  0
  191.0070  177.4820  141.7780 C   0  0  0  0  0  1  0  0  0  0  0  0
  189.6360  175.3550  143.1570 O   0  0  0  0  0  0  0  0  0  0  0  0
  189.0380  176.3500  142.7830 C   0  0  0  0  0  0  0  0  0  0  0  0
  185.8230  178.1890  143.5380 C   0  0  0  0  0  0  0  0  0  0  0  0
  184.7230  178.2740  143.8890 N   0  0  0  0  0  0  0  0  0  0  0  0
  1 15  2  0  0  0  0
  2  7  1  0  0  0  0
  2  9  1  0  0  0  0
  3 16  1  6  0  0  0
  3  8  1  0  0  0  0
  4 17  1  6  0  0  0
  4  3  1  0  0  0  0
  5 13  1  6  0  0  0
  5  7  1  0  0  0  0
  5  8  1  0  0  0  0
  8 28  1  0  0  0  0
  9 10  2  0  0  0  0
  9 27  1  0  0  0  0
 10  6  1  0  0  0  0
 11 14  1  0  0  0  0
 11  1  1  0  0  0  0
 12  4  1  0  0  0  0
 12 13  2  0  0  0  0
 13 14  1  0  0  0  0
 14  2  2  0  0  0  0
 15 10  1  0  0  0  0
 18 17  2  0  0  0  0
 19 18  1  0  0  0  0
 19 23  1  0  0  0  0
 20 19  2  0  0  0  0
 22 21  1  0  0  0  0
 23 22  1  0  0  0  0
 23 21  1  0  0  0  0
 24 25  1  0  0  0  0
 24 12  1  0  0  0  0
 26 27  2  0  0  0  0
 30 29  1  0  0  0  0
 30 37  1  6  0  0  0
 31 28  1  6  0  0  0
 31 33  1  0  0  0  0
 31 32  1  0  0  0  0
 32 30  1  0  0  0  0
 33 34  1  1  0  0  0
 33 36  1  0  0  0  0
 36 35  2  0  0  0  0
 36 29  1  0  0  0  0
 37 38  3  0  0  0  0
M  END
>  <MODEL>
2

>  <REMARK>
 VINA RESULT:      -6.7      2.193      3.076
  Name = 
  8 active torsions:
  status: ('A' for Active; 'I' for Inactive)
    1  A    between atoms: C_1  and  C_13
    2  A    between atoms: C_3  and  N_20
    3  A    between atoms: C_3  and  C_37
    4  A    between atoms: O_6  and  C_33
    5  A    between atoms: C_7  and  C_12
    6  A    between atoms: C_16  and  C_32
    7  A    between atoms: C_22  and  C_27
    8  A    between atoms: N_23  and  C_32
                            x       y       z     vdW  Elec       q    Type
                         _______ _______ _______ _____ _____    ______ ____

>  <TORSDO>
F 8

$$$$
=
 OpenBabel10222416253D

 38 42  0  0  1  0  0  0  0  0999 V2000
  185.8150  175.2490  136.7810 C   0  0  0  0  0  3  0  0  0  0  0  0
  186.6030  177.6870  138.3440 C   0  0  0  0  0  0  0  0  0  0  0  0
  190.4060  176.4660  140.4120 C   0  0  2  0  0  3  0  0  0  0  0  0
  190.8720  176.1610  138.9530 C   0  0  1  0  0  3  0  0  0  0  0  0
  188.7050  177.8910  139.3210 C   0  0  1  0  0  3  0  0  0  0  0  0
  182.9140  177.3100  137.5090 N   0  0  0  0  0  1  0  0  0  0  0  0
  187.3330  178.2780  139.3740 O   0  0  0  0  0  0  0  0  0  0  0  0
  189.1010  177.1910  140.5490 N   0  0  0  0  0  0  0  0  0  0  0  0
  185.1640  177.9530  138.1210 C   0  0  0  0  0  0  0  0  0  0  0  0
  184.3050  177.0210  137.6060 C   0  0  0  0  0  0  0  0  0  0  0  0
  186.9250  176.1640  136.4010 C   0  0  0  0  0  2  0  0  0  0  0  0
  189.7000  176.0600  138.0140 C   0  0  0  0  0  0  0  0  0  0  0  0
  188.7030  176.9260  138.1900 C   0  0  0  0  0  0  0  0  0  0  0  0
  187.3720  176.9060  137.6050 C   0  0  0  0  0  0  0  0  0  0  0  0
  184.6930  175.6690  137.2870 N   0  0  0  0  0  0  0  0  0  0  0  0
  191.4360  177.0130  141.1950 O   0  0  0  0  0  1  0  0  0  0  0  0
  191.8440  177.1850  138.4350 C   0  0  0  0  0  3  0  0  0  0  0  0
  192.8980  176.8950  137.7290 N   0  0  0  0  0  0  0  0  0  0  0  0
  193.3020  175.5940  137.2760 C   0  0  0  0  0  0  0  0  0  0  0  0
  192.9120  175.1370  136.1660 O   0  0  0  0  0  0  0  0  0  0  0  0
  195.5510  174.5640  137.3380 C   0  0  0  0  0  2  0  0  0  0  0  0
  194.5200  173.4620  137.4320 C   0  0  0  0  0  2  0  0  0  0  0  0
  194.2600  174.7990  138.1040 C   0  0  0  0  0  3  0  0  0  0  0  0
  189.6410  175.0910  137.0090 O   0  0  0  0  0  0  0  0  0  0  0  0
  189.9260  173.7220  137.2630 C   0  0  0  0  0  1  0  0  0  0  0  0
  184.1070  179.5870  139.7090 C   0  0  0  0  0  2  0  0  0  0  0  0
  184.7370  179.3030  138.5730 C   0  0  0  0  0  3  0  0  0  0  0  0
  189.1270  178.1740  141.6330 C   0  0  0  0  0  2  0  0  0  0  0  0
  188.5510  177.6580  145.9420 C   0  0  0  0  0  2  0  0  0  0  0  0
  189.6510  176.9250  145.1840 C   0  0  1  0  0  3  0  0  0  0  0  0
  188.7780  177.5130  142.9580 C   0  0  1  0  0  3  0  0  0  0  0  0
  189.9700  177.6460  143.8890 C   0  0  0  0  0  2  0  0  0  0  0  0
  187.4970  178.1310  143.5490 C   0  0  1  0  0  3  0  0  0  0  0  0
  186.2820  177.4220  142.9730 C   0  0  0  0  0  1  0  0  0  0  0  0
  186.4320  178.5930  145.6020 O   0  0  0  0  0  0  0  0  0  0  0  0
  187.4230  178.1300  145.0620 C   0  0  0  0  0  0  0  0  0  0  0  0
  190.8520  176.8560  146.0180 C   0  0  0  0  0  0  0  0  0  0  0  0
  191.8020  176.8010  146.6770 N   0  0  0  0  0  0  0  0  0  0  0  0
  1 15  2  0  0  0  0
  2  7  1  0  0  0  0
  3  8  1  0  0  0  0
  3 16  1  6  0  0  0
  4 17  1  6  0  0  0
  4  3  1  0  0  0  0
  5 13  1  6  0  0  0
  5  7  1  0  0  0  0
  5  8  1  0  0  0  0
  6 10  1  0  0  0  0
  8 28  1  0  0  0  0
  9  2  1  0  0  0  0
  9 27  1  0  0  0  0
 10  9  2  0  0  0  0
 11  1  1  0  0  0  0
 11 14  1  0  0  0  0
 12 13  2  0  0  0  0
 12  4  1  0  0  0  0
 14 13  1  0  0  0  0
 14  2  2  0  0  0  0
 15 10  1  0  0  0  0
 18 17  2  0  0  0  0
 19 18  1  0  0  0  0
 19 23  1  0  0  0  0
 20 19  2  0  0  0  0
 21 22  1  0  0  0  0
 21 23  1  0  0  0  0
 22 23  1  0  0  0  0
 24 25  1  0  0  0  0
 24 12  1  0  0  0  0
 27 26  2  0  0  0  0
 30 29  1  0  0  0  0
 30 37  1  1  0  0  0
 31 28  1  6  0  0  0
 31 33  1  0  0  0  0
 31 32  1  0  0  0  0
 32 30  1  0  0  0  0
 33 34  1  6  0  0  0
 33 36  1  0  0  0  0
 36 35  2  0  0  0  0
 36 29  1  0  0  0  0
 37 38  3  0  0  0  0
M  END
>  <MODEL>
3

>  <REMARK>
 VINA RESULT:      -6.7      2.222      3.273
  Name = 
  8 active torsions:
  status: ('A' for Active; 'I' for Inactive)
    1  A    between atoms: C_1  and  C_13
    2  A    between atoms: C_3  and  N_20
    3  A    between atoms: C_3  and  C_37
    4  A    between atoms: O_6  and  C_33
    5  A    between atoms: C_7  and  C_12
    6  A    between atoms: C_16  and  C_32
    7  A    between atoms: C_22  and  C_27
    8  A    between atoms: N_23  and  C_32
                            x       y       z     vdW  Elec       q    Type
                         _______ _______ _______ _____ _____    ______ ____

>  <TORSDO>
F 8

$$$$
=
 OpenBabel10222416253D

 38 42  0  0  1  0  0  0  0  0999 V2000
  187.7490  177.3800  142.4870 C   0  0  0  0  0  3  0  0  0  0  0  0
  187.0750  178.3590  139.7320 C   0  0  0  0  0  0  0  0  0  0  0  0
  182.7290  177.3070  139.2410 C   0  0  2  0  0  3  0  0  0  0  0  0
  182.5780  178.1550  140.5440 C   0  0  1  0  0  3  0  0  0  0  0  0
  184.8750  178.5100  138.9880 C   0  0  1  0  0  3  0  0  0  0  0  0
  190.7220  177.5220  140.4030 N   0  0  0  0  0  1  0  0  0  0  0  0
  186.2410  178.3430  138.6140 O   0  0  0  0  0  0  0  0  0  0  0  0
  184.0740  177.3490  138.5800 N   0  0  0  0  0  0  0  0  0  0  0  0
  188.5490  178.2620  139.6390 C   0  0  0  0  0  0  0  0  0  0  0  0
  189.3190  177.6690  140.6020 C   0  0  0  0  0  0  0  0  0  0  0  0
  186.9510  178.6030  142.2060 C   0  0  0  0  0  2  0  0  0  0  0  0
  183.9010  178.3310  141.2390 C   0  0  0  0  0  0  0  0  0  0  0  0
  184.9690  178.5390  140.4710 C   0  0  0  0  0  0  0  0  0  0  0  0
  186.3740  178.5010  140.8440 C   0  0  0  0  0  0  0  0  0  0  0  0
  188.7750  177.0230  141.7720 N   0  0  0  0  0  0  0  0  0  0  0  0
  181.6610  177.5070  138.3510 O   0  0  0  0  0  1  0  0  0  0  0  0
  181.9640  179.5040  140.2840 C   0  0  0  0  0  3  0  0  0  0  0  0
  180.8520  179.9130  140.8200 N   0  0  0  0  0  0  0  0  0  0  0  0
  180.0440  179.2060  141.7730 C   0  0  0  0  0  0  0  0  0  0  0  0
  179.2680  178.2780  141.4130 O   0  0  0  0  0  0  0  0  0  0  0  0
  180.2480  178.2530  144.0480 C   0  0  0  0  0  2  0  0  0  0  0  0
  178.9530  179.0300  143.9720 C   0  0  0  0  0  2  0  0  0  0  0  0
  180.1790  179.5290  143.2270 C   0  0  0  0  0  3  0  0  0  0  0  0
  184.0190  178.2600  142.6300 O   0  0  0  0  0  0  0  0  0  0  0  0
  183.7570  179.3780  143.4670 C   0  0  0  0  0  1  0  0  0  0  0  0
  189.2580  178.1420  137.2320 C   0  0  0  0  0  2  0  0  0  0  0  0
  189.0970  178.8090  138.3700 C   0  0  0  0  0  3  0  0  0  0  0  0
  183.9710  177.3680  137.1210 C   0  0  0  0  0  2  0  0  0  0  0  0
  186.6530  173.9570  136.5420 C   0  0  0  0  0  2  0  0  0  0  0  0
  186.5720  175.0970  135.5340 C   0  0  1  0  0  3  0  0  0  0  0  0
  184.5520  176.0930  136.5300 C   0  0  1  0  0  3  0  0  0  0  0  0
  186.0110  176.3430  136.1910 C   0  0  0  0  0  2  0  0  0  0  0  0
  184.3670  174.9130  137.5020 C   0  0  1  0  0  3  0  0  0  0  0  0
  182.9980  174.2890  137.2840 C   0  0  0  0  0  1  0  0  0  0  0  0
  185.3510  172.8710  138.1560 O   0  0  0  0  0  0  0  0  0  0  0  0
  185.4370  173.8430  137.4240 C   0  0  0  0  0  0  0  0  0  0  0  0
  187.9090  175.3760  135.0090 C   0  0  0  0  0  0  0  0  0  0  0  0
  188.9670  175.5970  134.5940 N   0  0  0  0  0  0  0  0  0  0  0  0
  2 14  2  0  0  0  0
  3 16  1  6  0  0  0
  3  4  1  0  0  0  0
  4 17  1  6  0  0  0
  4 12  1  0  0  0  0
  5  7  1  6  0  0  0
  5 13  1  0  0  0  0
  6 10  1  0  0  0  0
  7  2  1  0  0  0  0
  8  5  1  0  0  0  0
  8  3  1  0  0  0  0
  9  2  1  0  0  0  0
  9 10  2  0  0  0  0
 10 15  1  0  0  0  0
 11  1  1  0  0  0  0
 12 24  1  0  0  0  0
 13 14  1  0  0  0  0
 13 12  2  0  0  0  0
 14 11  1  0  0  0  0
 15  1  2  0  0  0  0
 17 18  2  0  0  0  0
 18 19  1  0  0  0  0
 19 23  1  0  0  0  0
 20 19  2  0  0  0  0
 22 21  1  0  0  0  0
 23 22  1  0  0  0  0
 23 21  1  0  0  0  0
 24 25  1  0  0  0  0
 26 27  2  0  0  0  0
 27  9  1  0  0  0  0
 28  8  1  0  0  0  0
 29 36  1  0  0  0  0
 30 37  1  1  0  0  0
 30 32  1  0  0  0  0
 30 29  1  0  0  0  0
 31 28  1  1  0  0  0
 31 33  1  0  0  0  0
 32 31  1  0  0  0  0
 33 34  1  6  0  0  0
 36 33  1  0  0  0  0
 36 35  2  0  0  0  0
 38 37  3  0  0  0  0
M  END
>  <MODEL>
4

>  <REMARK>
 VINA RESULT:      -6.5      2.491      8.392
  Name = 
  8 active torsions:
  status: ('A' for Active; 'I' for Inactive)
    1  A    between atoms: C_1  and  C_13
    2  A    between atoms: C_3  and  N_20
    3  A    between atoms: C_3  and  C_37
    4  A    between atoms: O_6  and  C_33
    5  A    between atoms: C_7  and  C_12
    6  A    between atoms: C_16  and  C_32
    7  A    between atoms: C_22  and  C_27
    8  A    between atoms: N_23  and  C_32
                            x       y       z     vdW  Elec       q    Type
                         _______ _______ _______ _____ _____    ______ ____

>  <TORSDO>
F 8

$$$$
=
 OpenBabel10222416253D

 38 42  0  0  1  0  0  0  0  0999 V2000
  187.1310  177.5080  142.8450 C   0  0  0  0  0  3  0  0  0  0  0  0
  187.5220  178.1590  139.9430 C   0  0  0  0  0  0  0  0  0  0  0  0
  183.4000  177.7790  138.1820 C   0  0  2  0  0  3  0  0  0  0  0  0
  183.0450  178.8280  139.2840 C   0  0  1  0  0  3  0  0  0  0  0  0
  185.7220  178.5580  138.5210 C   0  0  1  0  0  3  0  0  0  0  0  0
  190.5510  176.8400  141.8220 N   0  0  0  0  0  1  0  0  0  0  0  0
  187.0740  178.1130  138.6230 O   0  0  0  0  0  0  0  0  0  0  0  0
  184.8590  177.4980  137.9860 N   0  0  0  0  0  0  0  0  0  0  0  0
  188.9040  177.8060  140.3370 C   0  0  0  0  0  0  0  0  0  0  0  0
  189.2140  177.2450  141.5450 C   0  0  0  0  0  0  0  0  0  0  0  0
  186.7200  178.7900  142.2130 C   0  0  0  0  0  2  0  0  0  0  0  0
  184.1080  178.8840  140.3480 C   0  0  0  0  0  0  0  0  0  0  0  0
  185.3750  178.7950  139.9480 C   0  0  0  0  0  0  0  0  0  0  0  0
  186.5660  178.5810  140.7530 C   0  0  0  0  0  0  0  0  0  0  0  0
  188.2270  176.8830  142.5330 N   0  0  0  0  0  0  0  0  0  0  0  0
  182.7100  178.0170  136.9820 O   0  0  0  0  0  1  0  0  0  0  0  0
  182.8260  180.2040  138.7190 C   0  0  0  0  0  3  0  0  0  0  0  0
  181.6940  180.8420  138.7750 N   0  0  0  0  0  0  0  0  0  0  0  0
  180.4850  180.3990  139.4100 C   0  0  0  0  0  0  0  0  0  0  0  0
  180.3810  180.3660  140.6680 O   0  0  0  0  0  0  0  0  0  0  0  0
  179.4230  178.6070  138.0740 C   0  0  0  0  0  2  0  0  0  0  0  0
  179.7700  179.7500  137.1470 C   0  0  0  0  0  2  0  0  0  0  0  0
  179.3060  180.0400  138.5640 C   0  0  0  0  0  3  0  0  0  0  0  0
  183.7890  179.0060  141.7030 O   0  0  0  0  0  0  0  0  0  0  0  0
  182.5330  178.5950  142.2230 C   0  0  0  0  0  1  0  0  0  0  0  0
  190.2220  177.2280  138.2770 C   0  0  0  0  0  2  0  0  0  0  0  0
  189.9050  178.0580  139.2670 C   0  0  0  0  0  3  0  0  0  0  0  0
  185.2020  177.3140  136.5760 C   0  0  0  0  0  2  0  0  0  0  0  0
  186.4350  173.1770  137.3020 C   0  0  0  0  0  2  0  0  0  0  0  0
  187.3240  174.1620  136.5530 C   0  0  1  0  0  3  0  0  0  0  0  0
  185.5610  175.8620  136.3010 C   0  0  1  0  0  3  0  0  0  0  0  0
  186.9340  175.5870  136.8900 C   0  0  0  0  0  2  0  0  0  0  0  0
  184.4790  174.9210  136.8640 C   0  0  1  0  0  3  0  0  0  0  0  0
  183.3720  174.7530  135.8360 C   0  0  0  0  0  1  0  0  0  0  0  0
  184.1780  172.7580  137.7530 O   0  0  0  0  0  0  0  0  0  0  0  0
  184.9790  173.5610  137.3080 C   0  0  0  0  0  0  0  0  0  0  0  0
  188.7210  173.9340  136.9240 C   0  0  0  0  0  0  0  0  0  0  0  0
  189.8270  173.7530  137.2170 N   0  0  0  0  0  0  0  0  0  0  0  0
  2  9  1  0  0  0  0
  2 14  2  0  0  0  0
  3 16  1  6  0  0  0
  3  4  1  0  0  0  0
  4 17  1  6  0  0  0
  4 12  1  0  0  0  0
  5  7  1  1  0  0  0
  5 13  1  0  0  0  0
  7  2  1  0  0  0  0
  8  3  1  0  0  0  0
  8  5  1  0  0  0  0
  9 10  2  0  0  0  0
 10  6  1  0  0  0  0
 10 15  1  0  0  0  0
 11  1  1  0  0  0  0
 12 24  1  0  0  0  0
 13 12  2  0  0  0  0
 13 14  1  0  0  0  0
 14 11  1  0  0  0  0
 15  1  2  0  0  0  0
 17 18  2  0  0  0  0
 18 19  1  0  0  0  0
 19 20  2  0  0  0  0
 21 23  1  0  0  0  0
 22 21  1  0  0  0  0
 22 23  1  0  0  0  0
 23 19  1  0  0  0  0
 24 25  1  0  0  0  0
 26 27  2  0  0  0  0
 27  9  1  0  0  0  0
 28  8  1  0  0  0  0
 29 36  1  0  0  0  0
 30 32  1  0  0  0  0
 30 37  1  1  0  0  0
 30 29  1  0  0  0  0
 31 28  1  1  0  0  0
 31 33  1  0  0  0  0
 31 32  1  0  0  0  0
 33 34  1  6  0  0  0
 33 36  1  0  0  0  0
 36 35  2  0  0  0  0
 37 38  3  0  0  0  0
M  END
>  <MODEL>
5

>  <REMARK>
 VINA RESULT:      -6.1      2.339      8.054
  Name = 
  8 active torsions:
  status: ('A' for Active; 'I' for Inactive)
    1  A    between atoms: C_1  and  C_13
    2  A    between atoms: C_3  and  N_20
    3  A    between atoms: C_3  and  C_37
    4  A    between atoms: O_6  and  C_33
    5  A    between atoms: C_7  and  C_12
    6  A    between atoms: C_16  and  C_32
    7  A    between atoms: C_22  and  C_27
    8  A    between atoms: N_23  and  C_32
                            x       y       z     vdW  Elec       q    Type
                         _______ _______ _______ _____ _____    ______ ____

>  <TORSDO>
F 8

$$$$
=
 OpenBabel10222416253D

 38 42  0  0  1  0  0  0  0  0999 V2000
  183.1130  177.4750  140.4060 C   0  0  0  0  0  3  0  0  0  0  0  0
  185.3040  178.9840  141.7940 C   0  0  0  0  0  0  0  0  0  0  0  0
  189.0780  177.1180  140.2090 C   0  0  2  0  0  3  0  0  0  0  0  0
  188.4650  177.5170  138.8300 C   0  0  1  0  0  3  0  0  0  0  0  0
  187.5270  178.8120  141.1250 C   0  0  1  0  0  3  0  0  0  0  0  0
  181.9310  178.8740  143.5420 N   0  0  0  0  0  1  0  0  0  0  0  0
  186.6340  179.0790  142.2040 O   0  0  0  0  0  0  0  0  0  0  0  0
  188.3770  177.6530  141.4210 N   0  0  0  0  0  0  0  0  0  0  0  0
  184.1620  179.2640  142.6920 C   0  0  0  0  0  0  0  0  0  0  0  0
  182.9560  178.6280  142.5840 C   0  0  0  0  0  0  0  0  0  0  0  0
  183.9630  178.5060  139.7520 C   0  0  0  0  0  2  0  0  0  0  0  0
  186.9910  177.8010  138.9470 C   0  0  0  0  0  0  0  0  0  0  0  0
  186.5820  178.4560  140.0330 C   0  0  0  0  0  0  0  0  0  0  0  0
  185.2250  178.6480  140.5180 C   0  0  0  0  0  0  0  0  0  0  0  0
  182.6900  177.5790  141.6310 N   0  0  0  0  0  0  0  0  0  0  0  0
  190.4700  177.2970  140.2420 O   0  0  0  0  0  1  0  0  0  0  0  0
  189.1570  178.7020  138.2150 C   0  0  0  0  0  3  0  0  0  0  0  0
  189.4300  178.8080  136.9470 N   0  0  0  0  0  0  0  0  0  0  0  0
  189.0930  177.8730  135.9110 C   0  0  0  0  0  0  0  0  0  0  0  0
  187.9630  177.8970  135.3500 O   0  0  0  0  0  0  0  0  0  0  0  0
  189.8440  175.5160  135.9990 C   0  0  0  0  0  2  0  0  0  0  0  0
  190.9110  176.3800  136.6340 C   0  0  0  0  0  2  0  0  0  0  0  0
  190.1270  176.9010  135.4420 C   0  0  0  0  0  3  0  0  0  0  0  0
  186.0790  177.3820  137.9750 O   0  0  0  0  0  0  0  0  0  0  0  0
  186.1300  176.0840  137.4010 C   0  0  0  0  0  1  0  0  0  0  0  0
  184.9190  179.9710  144.9810 C   0  0  0  0  0  2  0  0  0  0  0  0
  184.4780  180.2500  143.7580 C   0  0  0  0  0  3  0  0  0  0  0  0
  189.3150  178.0460  142.4730 C   0  0  0  0  0  2  0  0  0  0  0  0
  189.0610  176.8870  146.6860 C   0  0  0  0  0  2  0  0  0  0  0  0
  190.1980  176.4140  145.7890 C   0  0  1  0  0  3  0  0  0  0  0  0
  189.1290  177.1740  143.7050 C   0  0  1  0  0  3  0  0  0  0  0  0
  190.3480  177.3380  144.5960 C   0  0  0  0  0  2  0  0  0  0  0  0
  187.8180  177.5330  144.4280 C   0  0  1  0  0  3  0  0  0  0  0  0
  186.6700  176.7530  143.8090 C   0  0  0  0  0  1  0  0  0  0  0  0
  186.8260  177.5710  146.5680 O   0  0  0  0  0  0  0  0  0  0  0  0
  187.8330  177.3200  145.9290 C   0  0  0  0  0  0  0  0  0  0  0  0
  191.4440  176.3940  146.5560 C   0  0  0  0  0  0  0  0  0  0  0  0
  192.4310  176.3770  147.1620 N   0  0  0  0  0  0  0  0  0  0  0  0
  1 15  2  0  0  0  0
  2  7  1  0  0  0  0
  2  9  1  0  0  0  0
  3 16  1  6  0  0  0
  3  8  1  0  0  0  0
  4 17  1  1  0  0  0
  4 12  1  0  0  0  0
  4  3  1  0  0  0  0
  5 13  1  6  0  0  0
  5  8  1  0  0  0  0
  5  7  1  0  0  0  0
  8 28  1  0  0  0  0
  9 27  1  0  0  0  0
 10  9  2  0  0  0  0
 10  6  1  0  0  0  0
 11  1  1  0  0  0  0
 11 14  1  0  0  0  0
 12 13  2  0  0  0  0
 13 14  1  0  0  0  0
 14  2  2  0  0  0  0
 15 10  1  0  0  0  0
 18 17  2  0  0  0  0
 19 18  1  0  0  0  0
 20 19  2  0  0  0  0
 21 22  1  0  0  0  0
 23 19  1  0  0  0  0
 23 21  1  0  0  0  0
 23 22  1  0  0  0  0
 24 12  1  0  0  0  0
 25 24  1  0  0  0  0
 27 26  2  0  0  0  0
 30 37  1  1  0  0  0
 30 29  1  0  0  0  0
 31 28  1  6  0  0  0
 31 33  1  0  0  0  0
 31 32  1  0  0  0  0
 32 30  1  0  0  0  0
 33 34  1  6  0  0  0
 33 36  1  0  0  0  0
 36 35  2  0  0  0  0
 36 29  1  0  0  0  0
 37 38  3  0  0  0  0
M  END
>  <MODEL>
6

>  <REMARK>
 VINA RESULT:      -6.0      2.209      3.367
  Name = 
  8 active torsions:
  status: ('A' for Active; 'I' for Inactive)
    1  A    between atoms: C_1  and  C_13
    2  A    between atoms: C_3  and  N_20
    3  A    between atoms: C_3  and  C_37
    4  A    between atoms: O_6  and  C_33
    5  A    between atoms: C_7  and  C_12
    6  A    between atoms: C_16  and  C_32
    7  A    between atoms: C_22  and  C_27
    8  A    between atoms: N_23  and  C_32
                            x       y       z     vdW  Elec       q    Type
                         _______ _______ _______ _____ _____    ______ ____

>  <TORSDO>
F 8

$$$$
=
 OpenBabel10222416253D

 38 42  0  0  1  0  0  0  0  0999 V2000
  191.6320  176.4610  143.9350 C   0  0  0  0  0  3  0  0  0  0  0  0
  188.7490  177.1430  143.4620 C   0  0  0  0  0  0  0  0  0  0  0  0
  188.6850  178.7260  139.2520 C   0  0  2  0  0  3  0  0  0  0  0  0
  189.3320  177.3420  138.9290 C   0  0  1  0  0  3  0  0  0  0  0  0
  187.9350  177.6260  141.3360 C   0  0  1  0  0  3  0  0  0  0  0  0
  189.9330  177.1340  147.0740 N   0  0  0  0  0  1  0  0  0  0  0  0
  187.7710  177.8250  142.7390 O   0  0  0  0  0  0  0  0  0  0  0  0
  188.1670  178.9020  140.6480 N   0  0  0  0  0  0  0  0  0  0  0  0
  188.7910  177.1260  144.9420 C   0  0  0  0  0  0  0  0  0  0  0  0
  189.9570  177.0460  145.6530 C   0  0  0  0  0  0  0  0  0  0  0  0
  190.7090  175.6530  143.0940 C   0  0  0  0  0  2  0  0  0  0  0  0
  189.8900  176.6960  140.1690 C   0  0  0  0  0  0  0  0  0  0  0  0
  189.1800  176.8140  141.2900 C   0  0  0  0  0  0  0  0  0  0  0  0
  189.5820  176.5110  142.6530 C   0  0  0  0  0  0  0  0  0  0  0  0
  191.2640  177.0340  145.0430 N   0  0  0  0  0  0  0  0  0  0  0  0
  187.7750  179.1300  138.2620 O   0  0  0  0  0  1  0  0  0  0  0  0
  188.3680  176.3990  138.2630 C   0  0  0  0  0  3  0  0  0  0  0  0
  188.5570  175.8770  137.0860 N   0  0  0  0  0  0  0  0  0  0  0  0
  189.7050  176.0490  136.2410 C   0  0  0  0  0  0  0  0  0  0  0  0
  189.7880  177.0200  135.4380 O   0  0  0  0  0  0  0  0  0  0  0  0
  190.7010  173.9500  135.3870 C   0  0  0  0  0  2  0  0  0  0  0  0
  190.3440  173.7500  136.8430 C   0  0  0  0  0  2  0  0  0  0  0  0
  190.8540  175.1000  136.3680 C   0  0  0  0  0  3  0  0  0  0  0  0
  191.1110  176.0160  140.1610 O   0  0  0  0  0  0  0  0  0  0  0  0
  192.2500  176.5180  139.4760 C   0  0  0  0  0  1  0  0  0  0  0  0
  186.9890  178.3540  146.1890 C   0  0  0  0  0  2  0  0  0  0  0  0
  187.4530  177.2710  145.5720 C   0  0  0  0  0  3  0  0  0  0  0  0
  186.9160  179.6590  140.6800 C   0  0  0  0  0  2  0  0  0  0  0  0
  182.9500  178.4910  142.1210 C   0  0  0  0  0  2  0  0  0  0  0  0
  184.1920  178.3730  142.9970 C   0  0  1  0  0  3  0  0  0  0  0  0
  185.7700  178.7750  141.1510 C   0  0  1  0  0  3  0  0  0  0  0  0
  185.2840  179.2950  142.4920 C   0  0  0  0  0  2  0  0  0  0  0  0
  184.6510  178.7330  140.0940 C   0  0  1  0  0  3  0  0  0  0  0  0
  184.9590  177.6460  139.0770 C   0  0  0  0  0  1  0  0  0  0  0  0
  182.3160  178.4820  139.8690 O   0  0  0  0  0  0  0  0  0  0  0  0
  183.2540  178.5390  140.6470 C   0  0  0  0  0  0  0  0  0  0  0  0
  183.8490  178.7240  144.3760 C   0  0  0  0  0  0  0  0  0  0  0  0
  183.5770  179.0020  145.4660 N   0  0  0  0  0  0  0  0  0  0  0  0
  1 15  2  0  0  0  0
  2  9  1  0  0  0  0
  3 16  1  6  0  0  0
  3  8  1  0  0  0  0
  4 17  1  1  0  0  0
  4  3  1  0  0  0  0
  4 12  1  0  0  0  0
  5 13  1  1  0  0  0
  5  7  1  0  0  0  0
  7  2  1  0  0  0  0
  8 28  1  0  0  0  0
  8  5  1  0  0  0  0
  9 27  1  0  0  0  0
  9 10  2  0  0  0  0
 10  6  1  0  0  0  0
 11  1  1  0  0  0  0
 12 13  2  0  0  0  0
 13 14  1  0  0  0  0
 14 11  1  0  0  0  0
 14  2  2  0  0  0  0
 15 10  1  0  0  0  0
 18 17  2  0  0  0  0
 19 23  1  0  0  0  0
 19 18  1  0  0  0  0
 20 19  2  0  0  0  0
 21 23  1  0  0  0  0
 21 22  1  0  0  0  0
 23 22  1  0  0  0  0
 24 12  1  0  0  0  0
 25 24  1  0  0  0  0
 27 26  2  0  0  0  0
 29 30  1  0  0  0  0
 30 37  1  1  0  0  0
 31 28  1  6  0  0  0
 31 32  1  0  0  0  0
 32 30  1  0  0  0  0
 33 34  1  6  0  0  0
 33 36  1  0  0  0  0
 33 31  1  0  0  0  0
 35 36  2  0  0  0  0
 36 29  1  0  0  0  0
 37 38  3  0  0  0  0
M  END
>  <MODEL>
7

>  <REMARK>
 VINA RESULT:      -5.9      2.737      6.198
  Name = 
  8 active torsions:
  status: ('A' for Active; 'I' for Inactive)
    1  A    between atoms: C_1  and  C_13
    2  A    between atoms: C_3  and  N_20
    3  A    between atoms: C_3  and  C_37
    4  A    between atoms: O_6  and  C_33
    5  A    between atoms: C_7  and  C_12
    6  A    between atoms: C_16  and  C_32
    7  A    between atoms: C_22  and  C_27
    8  A    between atoms: N_23  and  C_32
                            x       y       z     vdW  Elec       q    Type
                         _______ _______ _______ _____ _____    ______ ____

>  <TORSDO>
F 8

$$$$
=
 OpenBabel10222416253D

 38 42  0  0  1  0  0  0  0  0999 V2000
  184.4620  178.8160  145.6390 C   0  0  0  0  0  3  0  0  0  0  0  0
  185.4720  178.1700  142.8890 C   0  0  0  0  0  0  0  0  0  0  0  0
  189.9180  178.7750  143.1970 C   0  0  2  0  0  3  0  0  0  0  0  0
  189.7830  177.7380  144.3570 C   0  0  1  0  0  3  0  0  0  0  0  0
  187.7390  177.8750  142.4520 C   0  0  1  0  0  3  0  0  0  0  0  0
  181.8570  179.3150  143.1560 N   0  0  0  0  0  1  0  0  0  0  0  0
  186.4700  178.2490  141.9180 O   0  0  0  0  0  0  0  0  0  0  0  0
  188.6970  178.9830  142.3530 N   0  0  0  0  0  0  0  0  0  0  0  0
  184.0460  178.4480  142.6020 C   0  0  0  0  0  0  0  0  0  0  0  0
  183.1910  178.9810  143.5270 C   0  0  0  0  0  0  0  0  0  0  0  0
  185.1780  177.5620  145.2850 C   0  0  0  0  0  2  0  0  0  0  0  0
  188.3550  177.6180  144.8190 C   0  0  0  0  0  0  0  0  0  0  0  0
  187.4080  177.6450  143.8840 C   0  0  0  0  0  0  0  0  0  0  0  0
  185.9710  177.7910  144.0520 C   0  0  0  0  0  0  0  0  0  0  0  0
  183.5990  179.3860  144.8510 N   0  0  0  0  0  0  0  0  0  0  0  0
  191.0910  178.5830  142.4490 O   0  0  0  0  0  1  0  0  0  0  0  0
  190.3030  176.3790  143.9760 C   0  0  0  0  0  3  0  0  0  0  0  0
  191.2510  175.7580  144.6150 N   0  0  0  0  0  0  0  0  0  0  0  0
  191.9300  176.2050  145.7990 C   0  0  0  0  0  0  0  0  0  0  0  0
  192.0580  177.4350  146.0550 O   0  0  0  0  0  0  0  0  0  0  0  0
  191.5010  175.1170  147.9800 C   0  0  0  0  0  2  0  0  0  0  0  0
  192.7980  175.8890  148.0790 C   0  0  0  0  0  2  0  0  0  0  0  0
  192.4290  175.1940  146.7800 C   0  0  0  0  0  3  0  0  0  0  0  0
  188.0250  177.5020  146.1720 O   0  0  0  0  0  0  0  0  0  0  0  0
  188.9260  177.8800  147.2040 C   0  0  0  0  0  1  0  0  0  0  0  0
  183.8900  178.9260  140.1410 C   0  0  0  0  0  2  0  0  0  0  0  0
  183.6590  178.1530  141.1980 C   0  0  0  0  0  3  0  0  0  0  0  0
  189.0280  179.1600  140.9390 C   0  0  0  0  0  2  0  0  0  0  0  0
  188.3990  176.4970  137.5220 C   0  0  0  0  0  2  0  0  0  0  0  0
  187.2410  176.9990  138.3750 C   0  0  1  0  0  3  0  0  0  0  0  0
  188.6850  177.9050  140.1510 C   0  0  1  0  0  3  0  0  0  0  0  0
  187.6370  178.2630  139.1120 C   0  0  0  0  0  2  0  0  0  0  0  0
  189.9540  177.2980  139.5220 C   0  0  1  0  0  3  0  0  0  0  0  0
  190.6260  176.3790  140.5290 C   0  0  0  0  0  1  0  0  0  0  0  0
  190.6900  176.0400  137.6680 O   0  0  0  0  0  0  0  0  0  0  0  0
  189.7330  176.5580  138.2180 C   0  0  0  0  0  0  0  0  0  0  0  0
  186.0870  177.2710  137.5160 C   0  0  0  0  0  0  0  0  0  0  0  0
  185.1750  177.4860  136.8370 N   0  0  0  0  0  0  0  0  0  0  0  0
  2 14  2  0  0  0  0
  3 16  1  6  0  0  0
  3  4  1  0  0  0  0
  4 17  1  6  0  0  0
  4 12  1  0  0  0  0
  5  7  1  6  0  0  0
  5 13  1  0  0  0  0
  6 10  1  0  0  0  0
  7  2  1  0  0  0  0
  8  5  1  0  0  0  0
  8  3  1  0  0  0  0
  9  2  1  0  0  0  0
  9 10  2  0  0  0  0
 10 15  1  0  0  0  0
 11  1  1  0  0  0  0
 12 24  1  0  0  0  0
 13 14  1  0  0  0  0
 13 12  2  0  0  0  0
 14 11  1  0  0  0  0
 15  1  2  0  0  0  0
 17 18  2  0  0  0  0
 18 19  1  0  0  0  0
 19 20  2  0  0  0  0
 19 23  1  0  0  0  0
 21 22  1  0  0  0  0
 23 21  1  0  0  0  0
 23 22  1  0  0  0  0
 24 25  1  0  0  0  0
 26 27  2  0  0  0  0
 27  9  1  0  0  0  0
 28  8  1  0  0  0  0
 29 36  1  0  0  0  0
 29 30  1  0  0  0  0
 30 37  1  6  0  0  0
 30 32  1  0  0  0  0
 31 28  1  6  0  0  0
 32 31  1  0  0  0  0
 33 31  1  0  0  0  0
 33 34  1  1  0  0  0
 35 36  2  0  0  0  0
 36 33  1  0  0  0  0
 38 37  3  0  0  0  0
M  END
>  <MODEL>
8

>  <REMARK>
 VINA RESULT:      -5.9      2.965      7.423
  Name = 
  8 active torsions:
  status: ('A' for Active; 'I' for Inactive)
    1  A    between atoms: C_1  and  C_13
    2  A    between atoms: C_3  and  N_20
    3  A    between atoms: C_3  and  C_37
    4  A    between atoms: O_6  and  C_33
    5  A    between atoms: C_7  and  C_12
    6  A    between atoms: C_16  and  C_32
    7  A    between atoms: C_22  and  C_27
    8  A    between atoms: N_23  and  C_32
                            x       y       z     vdW  Elec       q    Type
                         _______ _______ _______ _____ _____    ______ ____

>  <TORSDO>
F 8

$$$$
=
 OpenBabel10222416253D

 38 42  0  0  1  0  0  0  0  0999 V2000
  185.6460  177.9450  143.7960 C   0  0  0  0  0  3  0  0  0  0  0  0
  186.6940  178.4830  141.0370 C   0  0  0  0  0  0  0  0  0  0  0  0
  183.0800  178.0260  138.3970 C   0  0  2  0  0  3  0  0  0  0  0  0
  182.4900  179.1160  139.3480 C   0  0  1  0  0  3  0  0  0  0  0  0
  185.2690  178.8230  139.2280 C   0  0  1  0  0  3  0  0  0  0  0  0
  189.2050  177.2460  143.6070 N   0  0  0  0  0  1  0  0  0  0  0  0
  186.5590  178.3850  139.6520 O   0  0  0  0  0  0  0  0  0  0  0  0
  184.5430  177.7410  138.5510 N   0  0  0  0  0  0  0  0  0  0  0  0
  187.9470  178.1490  141.7490 C   0  0  0  0  0  0  0  0  0  0  0  0
  187.9690  177.6370  143.0170 C   0  0  0  0  0  0  0  0  0  0  0  0
  185.3990  179.2010  143.0380 C   0  0  0  0  0  2  0  0  0  0  0  0
  183.2820  179.2160  140.6240 C   0  0  0  0  0  0  0  0  0  0  0  0
  184.6070  179.1140  140.5270 C   0  0  0  0  0  0  0  0  0  0  0  0
  185.5810  178.9340  141.5910 C   0  0  0  0  0  0  0  0  0  0  0  0
  186.7810  177.3110  143.7670 N   0  0  0  0  0  0  0  0  0  0  0  0
  182.6840  178.2150  137.0630 O   0  0  0  0  0  1  0  0  0  0  0  0
  182.4150  180.4690  138.6950 C   0  0  0  0  0  3  0  0  0  0  0  0
  181.3570  181.2260  138.7090 N   0  0  0  0  0  0  0  0  0  0  0  0
  180.1120  180.9550  139.3700 C   0  0  0  0  0  0  0  0  0  0  0  0
  179.9620  181.1810  140.6030 O   0  0  0  0  0  0  0  0  0  0  0  0
  179.1160  178.9900  138.2420 C   0  0  0  0  0  2  0  0  0  0  0  0
  179.4340  180.0310  137.1930 C   0  0  0  0  0  2  0  0  0  0  0  0
  178.9510  180.4650  138.5660 C   0  0  0  0  0  3  0  0  0  0  0  0
  182.6640  179.3900  141.8650 O   0  0  0  0  0  0  0  0  0  0  0  0
  181.5330  178.6250  142.2580 C   0  0  0  0  0  1  0  0  0  0  0  0
  189.7690  177.4520  140.1660 C   0  0  0  0  0  2  0  0  0  0  0  0
  189.1670  178.3610  140.9270 C   0  0  0  0  0  3  0  0  0  0  0  0
  185.1970  177.5030  137.2640 C   0  0  0  0  0  2  0  0  0  0  0  0
  186.4880  173.5290  135.9570 C   0  0  0  0  0  2  0  0  0  0  0  0
  185.5740  173.7230  137.1600 C   0  0  1  0  0  3  0  0  0  0  0  0
  185.9110  176.1590  137.2700 C   0  0  1  0  0  3  0  0  0  0  0  0
  184.8740  175.0650  137.0820 C   0  0  0  0  0  2  0  0  0  0  0  0
  187.0080  176.1250  136.1900 C   0  0  1  0  0  3  0  0  0  0  0  0
  188.2910  176.7120  136.7550 C   0  0  0  0  0  1  0  0  0  0  0  0
  188.1500  174.6490  134.7470 O   0  0  0  0  0  0  0  0  0  0  0  0
  187.2850  174.7570  135.6000 C   0  0  0  0  0  0  0  0  0  0  0  0
  184.5790  172.6500  137.1910 C   0  0  0  0  0  0  0  0  0  0  0  0
  183.7910  171.8020  137.2150 N   0  0  0  0  0  0  0  0  0  0  0  0
  2 14  2  0  0  0  0
  2  9  1  0  0  0  0
  3 16  1  6  0  0  0
  3  8  1  0  0  0  0
  3  4  1  0  0  0  0
  4 17  1  6  0  0  0
  4 12  1  0  0  0  0
  5  7  1  1  0  0  0
  5 13  1  0  0  0  0
  7  2  1  0  0  0  0
  8  5  1  0  0  0  0
  9 10  2  0  0  0  0
 10  6  1  0  0  0  0
 10 15  1  0  0  0  0
 11  1  1  0  0  0  0
 12 24  1  0  0  0  0
 13 12  2  0  0  0  0
 13 14  1  0  0  0  0
 14 11  1  0  0  0  0
 15  1  2  0  0  0  0
 17 18  2  0  0  0  0
 18 19  1  0  0  0  0
 19 20  2  0  0  0  0
 21 23  1  0  0  0  0
 22 21  1  0  0  0  0
 22 23  1  0  0  0  0
 23 19  1  0  0  0  0
 24 25  1  0  0  0  0
 26 27  2  0  0  0  0
 27  9  1  0  0  0  0
 28  8  1  0  0  0  0
 29 30  1  0  0  0  0
 30 37  1  6  0  0  0
 31 28  1  6  0  0  0
 32 30  1  0  0  0  0
 32 31  1  0  0  0  0
 33 34  1  1  0  0  0
 33 31  1  0  0  0  0
 35 36  2  0  0  0  0
 36 29  1  0  0  0  0
 36 33  1  0  0  0  0
 37 38  3  0  0  0  0
M  END
>  <MODEL>
9

>  <REMARK>
 VINA RESULT:      -5.8      2.300      8.394
  Name = 
  8 active torsions:
  status: ('A' for Active; 'I' for Inactive)
    1  A    between atoms: C_1  and  C_13
    2  A    between atoms: C_3  and  N_20
    3  A    between atoms: C_3  and  C_37
    4  A    between atoms: O_6  and  C_33
    5  A    between atoms: C_7  and  C_12
    6  A    between atoms: C_16  and  C_32
    7  A    between atoms: C_22  and  C_27
    8  A    between atoms: N_23  and  C_32
                            x       y       z     vdW  Elec       q    Type
                         _______ _______ _______ _____ _____    ______ ____

>  <TORSDO>
F 8

$$$$
