=
 OpenBabel10222421103D

 29 31  0  0  1  0  0  0  0  0999 V2000
  184.1370  178.7120  142.9240 C   0  0  0  0  0  0  0  0  0  0  0  0
  188.7860  179.1590  139.9360 O   0  0  0  0  0  1  0  0  0  0  0  0
  186.8060  178.2820  142.4620 C   0  0  0  0  0  0  0  0  0  0  0  0
  186.4050  178.3280  143.7670 N   0  0  0  0  0  2  0  0  0  0  0  0
  184.5530  178.6620  141.5950 C   0  0  0  0  0  3  0  0  0  0  0  0
  184.3950  178.6380  145.1780 C   0  0  0  0  0  0  0  0  0  0  0  0
  183.0540  178.8580  144.8660 C   0  0  0  0  0  3  0  0  0  0  0  0
  186.6060  178.3470  140.1690 N   0  0  0  0  0  0  0  0  0  0  0  0
  188.0270  178.0970  140.4290 C   0  0  2  0  0  3  0  0  0  0  0  0
  185.9280  178.4450  141.4060 C   0  0  0  0  0  0  0  0  0  0  0  0
  182.8890  178.9040  143.4740 C   0  0  0  0  0  3  0  0  0  0  0  0
  185.0830  178.5450  143.9950 C   0  0  0  0  0  0  0  0  0  0  0  0
  188.1870  178.0230  141.9700 C   0  0  2  0  0  3  0  0  0  0  0  0
  185.4160  179.3290  138.4170 O   0  0  0  0  0  1  0  0  0  0  0  0
  185.9460  178.1240  138.8860 C   0  0  1  0  0  3  0  0  0  0  0  0
  186.9230  177.5430  137.8630 C   0  0  1  0  0  3  0  0  0  0  0  0
  187.3990  175.4780  137.2090 C   0  0  0  0  0  1  0  0  0  0  0  0
  186.3630  176.4140  137.2560 O   0  0  0  0  0  0  0  0  0  0  0  0
  188.6750  178.7180  136.6460 N   0  0  0  0  0  1  0  0  0  0  0  0
  187.2370  178.5840  136.7990 C   0  0  0  0  0  2  0  0  0  0  0  0
  188.6090  176.6400  142.3720 C   0  0  0  0  0  3  0  0  0  0  0  0
  189.4710  176.3830  143.3640 C   0  0  0  0  0  3  0  0  0  0  0  0
  190.1250  177.4490  144.1880 C   0  0  0  0  0  2  0  0  0  0  0  0
  190.0320  177.1020  145.6610 C   0  0  0  0  0  2  0  0  0  0  0  0
  188.6980  177.5660  146.2040 C   0  0  0  0  0  2  0  0  0  0  0  0
  188.5620  177.1280  147.6480 C   0  0  0  0  0  2  0  0  0  0  0  0
  188.9450  178.1740  148.4870 O   0  0  0  0  0  1  0  0  0  0  0  0
  185.6660  179.4630  147.0480 N   0  0  0  0  0  2  0  0  0  0  0  0
  184.9300  178.5300  146.5400 C   0  0  0  0  0  3  0  0  0  0  0  0
  1 11  1  0  0  0  0
  1 12  1  0  0  0  0
  3  4  1  0  0  0  0
  4 12  1  0  0  0  0
  5  1  2  0  0  0  0
  6 29  1  0  0  0  0
  7  6  1  0  0  0  0
  8  9  1  0  0  0  0
  8 10  1  0  0  0  0
  9  2  1  1  0  0  0
  9 13  1  0  0  0  0
 10  5  1  0  0  0  0
 10  3  2  0  0  0  0
 11  7  2  0  0  0  0
 12  6  2  0  0  0  0
 13 21  1  6  0  0  0
 13  3  1  0  0  0  0
 15 14  1  6  0  0  0
 15  8  1  0  0  0  0
 16 20  1  6  0  0  0
 16 15  1  0  0  0  0
 17 18  1  0  0  0  0
 18 16  1  0  0  0  0
 19 20  1  0  0  0  0
 21 22  2  0  0  0  0
 22 23  1  0  0  0  0
 23 24  1  0  0  0  0
 24 25  1  0  0  0  0
 25 26  1  0  0  0  0
 26 27  1  0  0  0  0
 29 28  2  0  0  0  0
M  END
>  <MODEL>
1

>  <REMARK>
 VINA RESULT:      -7.5      0.000      0.000
  Name = 
  10 active torsions:
  status: ('A' for Active; 'I' for Inactive)
    1  A    between atoms: C_1  and  C_26
    2  A    between atoms: C_8  and  C_27
    3  A    between atoms: C_9  and  C_10
    4  A    between atoms: C_9  and  N_14
    5  A    between atoms: C_10  and  O_25
    6  A    between atoms: C_10  and  C_28
    7  A    between atoms: C_11  and  C_16
    8  A    between atoms: C_21  and  C_24
    9  A    between atoms: C_21  and  C_29
   10  A    between atoms: C_26  and  C_29
                            x       y       z     vdW  Elec       q    Type
                         _______ _______ _______ _____ _____    ______ ____

>  <TORSDO>
F 10

$$$$
=
 OpenBabel10222421103D

 29 31  0  0  1  0  0  0  0  0999 V2000
  185.3210  178.3640  144.9700 C   0  0  0  0  0  0  0  0  0  0  0  0
  189.6690  175.6850  142.8130 O   0  0  0  0  0  1  0  0  0  0  0  0
  187.0060  177.6770  142.9190 C   0  0  0  0  0  0  0  0  0  0  0  0
  185.7280  178.0190  142.5790 N   0  0  0  0  0  0  0  0  0  0  0  0
  186.6270  178.0150  145.3090 C   0  0  0  0  0  3  0  0  0  0  0  0
  183.5760  178.7420  143.5670 C   0  0  0  0  0  0  0  0  0  0  0  0
  183.1820  178.9850  144.8820 C   0  0  0  0  0  3  0  0  0  0  0  0
  188.8110  177.2790  144.2920 N   0  0  0  0  0  0  0  0  0  0  0  0
  189.2930  177.0230  142.9320 C   0  0  2  0  0  3  0  0  0  0  0  0
  187.4530  177.6650  144.2280 C   0  0  0  0  0  0  0  0  0  0  0  0
  184.2570  178.7540  145.7530 C   0  0  0  0  0  2  0  0  0  0  0  0
  184.8930  178.3560  143.5960 C   0  0  0  0  0  0  0  0  0  0  0  0
  188.1020  177.3080  141.9800 C   0  0  2  0  0  3  0  0  0  0  0  0
  189.2660  176.6670  146.4990 O   0  0  0  0  0  1  0  0  0  0  0  0
  189.6720  177.4960  145.4500 C   0  0  1  0  0  3  0  0  0  0  0  0
  191.1360  177.2260  145.1000 C   0  0  1  0  0  3  0  0  0  0  0  0
  191.7600  179.0770  144.0500 C   0  0  0  0  0  1  0  0  0  0  0  0
  191.8900  178.3940  145.2610 O   0  0  0  0  0  0  0  0  0  0  0  0
  192.1750  176.7250  147.2460 N   0  0  0  0  0  1  0  0  0  0  0  0
  191.6930  176.1390  146.0080 C   0  0  0  0  0  2  0  0  0  0  0  0
  188.4220  178.4820  141.1020 C   0  0  0  0  0  3  0  0  0  0  0  0
  188.7550  178.3760  139.8090 C   0  0  0  0  0  3  0  0  0  0  0  0
  188.8560  177.0690  139.0850 C   0  0  0  0  0  2  0  0  0  0  0  0
  190.0690  177.0660  138.1760 C   0  0  0  0  0  2  0  0  0  0  0  0
  191.3020  176.7210  138.9830 C   0  0  0  0  0  2  0  0  0  0  0  0
  192.3910  176.2280  138.0530 C   0  0  0  0  0  2  0  0  0  0  0  0
  193.6010  176.8280  138.3980 O   0  0  0  0  0  1  0  0  0  0  0  0
  181.4470  179.1350  142.5170 N   0  0  0  0  0  2  0  0  0  0  0  0
  182.7080  178.8850  142.3930 C   0  0  0  0  0  3  0  0  0  0  0  0
  1  5  1  0  0  0  0
  1 11  1  0  0  0  0
  3 10  1  0  0  0  0
  4  3  2  0  0  0  0
  4 12  1  0  0  0  0
  6 12  1  0  0  0  0
  6  7  2  0  0  0  0
  7 11  1  0  0  0  0
  8 15  1  0  0  0  0
  9  2  1  1  0  0  0
  9  8  1  0  0  0  0
 10  8  1  0  0  0  0
 10  5  2  0  0  0  0
 12  1  2  0  0  0  0
 13 21  1  6  0  0  0
 13  3  1  0  0  0  0
 13  9  1  0  0  0  0
 15 14  1  1  0  0  0
 16 18  1  0  0  0  0
 16 15  1  0  0  0  0
 16 20  1  1  0  0  0
 17 18  1  0  0  0  0
 20 19  1  0  0  0  0
 22 21  2  0  0  0  0
 23 22  1  0  0  0  0
 24 25  1  0  0  0  0
 24 23  1  0  0  0  0
 26 27  1  0  0  0  0
 26 25  1  0  0  0  0
 29 28  2  0  0  0  0
 29  6  1  0  0  0  0
M  END
>  <MODEL>
2

>  <REMARK>
 VINA RESULT:      -7.3      2.951      6.412
  Name = 
  10 active torsions:
  status: ('A' for Active; 'I' for Inactive)
    1  A    between atoms: C_1  and  C_26
    2  A    between atoms: C_8  and  C_27
    3  A    between atoms: C_9  and  C_10
    4  A    between atoms: C_9  and  N_14
    5  A    between atoms: C_10  and  O_25
    6  A    between atoms: C_10  and  C_28
    7  A    between atoms: C_11  and  C_16
    8  A    between atoms: C_21  and  C_24
    9  A    between atoms: C_21  and  C_29
   10  A    between atoms: C_26  and  C_29
                            x       y       z     vdW  Elec       q    Type
                         _______ _______ _______ _____ _____    ______ ____

>  <TORSDO>
F 10

$$$$
=
 OpenBabel10222421103D

 29 31  0  0  1  0  0  0  0  0999 V2000
  185.3680  178.3330  145.0080 C   0  0  0  0  0  0  0  0  0  0  0  0
  189.7140  175.5660  142.9600 O   0  0  0  0  0  1  0  0  0  0  0  0
  187.0820  177.6020  142.9960 C   0  0  0  0  0  0  0  0  0  0  0  0
  185.8170  177.9620  142.6290 N   0  0  0  0  0  0  0  0  0  0  0  0
  186.6610  177.9660  145.3760 C   0  0  0  0  0  3  0  0  0  0  0  0
  183.6580  178.7280  143.5670 C   0  0  0  0  0  0  0  0  0  0  0  0
  183.2420  178.9880  144.8720 C   0  0  0  0  0  3  0  0  0  0  0  0
  188.8530  177.1860  144.4090 N   0  0  0  0  0  0  0  0  0  0  0  0
  189.3580  176.9110  143.0600 C   0  0  2  0  0  3  0  0  0  0  0  0
  187.5030  177.5930  144.3140 C   0  0  0  0  0  0  0  0  0  0  0  0
  184.2950  178.7470  145.7670 C   0  0  0  0  0  2  0  0  0  0  0  0
  184.9670  178.3210  143.6260 C   0  0  0  0  0  0  0  0  0  0  0  0
  188.1910  177.2080  142.0830 C   0  0  2  0  0  3  0  0  0  0  0  0
  189.2940  176.5390  146.6080 O   0  0  0  0  0  1  0  0  0  0  0  0
  189.6940  177.3990  145.5820 C   0  0  1  0  0  3  0  0  0  0  0  0
  191.1680  177.1700  145.2460 C   0  0  1  0  0  3  0  0  0  0  0  0
  191.8360  178.9390  144.0870 C   0  0  0  0  0  1  0  0  0  0  0  0
  191.8780  178.3700  145.3620 O   0  0  0  0  0  0  0  0  0  0  0  0
  192.1330  176.7760  147.4470 N   0  0  0  0  0  1  0  0  0  0  0  0
  191.7620  176.1400  146.1960 C   0  0  0  0  0  2  0  0  0  0  0  0
  188.5470  178.3690  141.2020 C   0  0  0  0  0  3  0  0  0  0  0  0
  189.0960  178.2420  139.9870 C   0  0  0  0  0  3  0  0  0  0  0  0
  189.4260  176.9220  139.3630 C   0  0  0  0  0  2  0  0  0  0  0  0
  189.1540  176.9640  137.8720 C   0  0  0  0  0  2  0  0  0  0  0  0
  188.8850  178.3920  137.4500 C   0  0  0  0  0  2  0  0  0  0  0  0
  187.5630  178.4590  136.7130 C   0  0  0  0  0  2  0  0  0  0  0  0
  186.5610  178.8620  137.5940 O   0  0  0  0  0  1  0  0  0  0  0  0
  181.5300  178.9600  142.4680 N   0  0  0  0  0  2  0  0  0  0  0  0
  182.8160  178.8750  142.3750 C   0  0  0  0  0  3  0  0  0  0  0  0
  1  5  1  0  0  0  0
  1 11  1  0  0  0  0
  3 10  1  0  0  0  0
  4  3  2  0  0  0  0
  4 12  1  0  0  0  0
  6 12  1  0  0  0  0
  6  7  2  0  0  0  0
  7 11  1  0  0  0  0
  8 15  1  0  0  0  0
  9  2  1  1  0  0  0
  9  8  1  0  0  0  0
 10  8  1  0  0  0  0
 10  5  2  0  0  0  0
 12  1  2  0  0  0  0
 13 21  1  6  0  0  0
 13  3  1  0  0  0  0
 13  9  1  0  0  0  0
 15 14  1  1  0  0  0
 16 18  1  0  0  0  0
 16 15  1  0  0  0  0
 16 20  1  1  0  0  0
 17 18  1  0  0  0  0
 20 19  1  0  0  0  0
 22 21  2  0  0  0  0
 23 22  1  0  0  0  0
 24 23  1  0  0  0  0
 25 24  1  0  0  0  0
 26 25  1  0  0  0  0
 26 27  1  0  0  0  0
 29 28  2  0  0  0  0
 29  6  1  0  0  0  0
M  END
>  <MODEL>
3

>  <REMARK>
 VINA RESULT:      -7.3      2.454      6.555
  Name = 
  10 active torsions:
  status: ('A' for Active; 'I' for Inactive)
    1  A    between atoms: C_1  and  C_26
    2  A    between atoms: C_8  and  C_27
    3  A    between atoms: C_9  and  C_10
    4  A    between atoms: C_9  and  N_14
    5  A    between atoms: C_10  and  O_25
    6  A    between atoms: C_10  and  C_28
    7  A    between atoms: C_11  and  C_16
    8  A    between atoms: C_21  and  C_24
    9  A    between atoms: C_21  and  C_29
   10  A    between atoms: C_26  and  C_29
                            x       y       z     vdW  Elec       q    Type
                         _______ _______ _______ _____ _____    ______ ____

>  <TORSDO>
F 10

$$$$
=
 OpenBabel10222421103D

 29 31  0  0  1  0  0  0  0  0999 V2000
  186.2370  178.2830  145.1800 C   0  0  0  0  0  0  0  0  0  0  0  0
  190.1500  175.7240  142.2000 O   0  0  0  0  0  1  0  0  0  0  0  0
  187.5000  177.6340  142.8340 C   0  0  0  0  0  0  0  0  0  0  0  0
  186.1710  177.9360  142.7560 N   0  0  0  0  0  0  0  0  0  0  0  0
  187.5940  177.9750  145.2520 C   0  0  0  0  0  3  0  0  0  0  0  0
  184.2370  178.5980  144.1530 C   0  0  0  0  0  0  0  0  0  0  0  0
  184.1050  178.8370  145.5200 C   0  0  0  0  0  3  0  0  0  0  0  0
  189.5550  177.3000  143.8200 N   0  0  0  0  0  0  0  0  0  0  0  0
  189.7640  177.0510  142.3910 C   0  0  2  0  0  3  0  0  0  0  0  0
  188.1990  177.6440  144.0280 C   0  0  0  0  0  0  0  0  0  0  0  0
  185.3390  178.6440  146.1600 C   0  0  0  0  0  2  0  0  0  0  0  0
  185.5440  178.2530  143.9190 C   0  0  0  0  0  0  0  0  0  0  0  0
  188.3990  177.2940  141.6960 C   0  0  2  0  0  3  0  0  0  0  0  0
  190.4080  178.7820  145.4100 O   0  0  0  0  0  1  0  0  0  0  0  0
  190.6220  177.5510  144.7840 C   0  0  1  0  0  3  0  0  0  0  0  0
  190.6910  176.4330  145.8250 C   0  0  1  0  0  3  0  0  0  0  0  0
  192.3030  175.6820  147.1500 C   0  0  0  0  0  1  0  0  0  0  0  0
  191.9580  175.8400  145.8060 O   0  0  0  0  0  0  0  0  0  0  0  0
  189.1170  176.5670  147.6790 N   0  0  0  0  0  1  0  0  0  0  0  0
  190.4210  177.0010  147.2120 C   0  0  0  0  0  2  0  0  0  0  0  0
  188.5000  178.4720  140.7720 C   0  0  0  0  0  3  0  0  0  0  0  0
  188.7560  178.3700  139.4610 C   0  0  0  0  0  3  0  0  0  0  0  0
  188.9770  177.0660  138.7600 C   0  0  0  0  0  2  0  0  0  0  0  0
  190.3260  177.0660  138.0680 C   0  0  0  0  0  2  0  0  0  0  0  0
  191.4130  176.7950  139.0840 C   0  0  0  0  0  2  0  0  0  0  0  0
  192.7200  176.5290  138.3660 C   0  0  0  0  0  2  0  0  0  0  0  0
  193.7850  176.8520  139.2050 O   0  0  0  0  0  1  0  0  0  0  0  0
  181.9200  178.8440  143.5510 N   0  0  0  0  0  2  0  0  0  0  0  0
  183.1480  178.7080  143.1750 C   0  0  0  0  0  3  0  0  0  0  0  0
  1  5  1  0  0  0  0
  1 11  1  0  0  0  0
  3 10  1  0  0  0  0
  4  3  2  0  0  0  0
  4 12  1  0  0  0  0
  6  7  2  0  0  0  0
  7 11  1  0  0  0  0
  8 10  1  0  0  0  0
  8 15  1  0  0  0  0
  9  2  1  1  0  0  0
  9  8  1  0  0  0  0
 10  5  2  0  0  0  0
 12  6  1  0  0  0  0
 12  1  2  0  0  0  0
 13 21  1  6  0  0  0
 13  9  1  0  0  0  0
 13  3  1  0  0  0  0
 15 14  1  1  0  0  0
 15 16  1  0  0  0  0
 16 20  1  1  0  0  0
 18 16  1  0  0  0  0
 18 17  1  0  0  0  0
 20 19  1  0  0  0  0
 22 21  2  0  0  0  0
 23 22  1  0  0  0  0
 24 23  1  0  0  0  0
 24 25  1  0  0  0  0
 26 25  1  0  0  0  0
 26 27  1  0  0  0  0
 29 28  2  0  0  0  0
 29  6  1  0  0  0  0
M  END
>  <MODEL>
4

>  <REMARK>
 VINA RESULT:      -7.2      2.927      6.510
  Name = 
  10 active torsions:
  status: ('A' for Active; 'I' for Inactive)
    1  A    between atoms: C_1  and  C_26
    2  A    between atoms: C_8  and  C_27
    3  A    between atoms: C_9  and  C_10
    4  A    between atoms: C_9  and  N_14
    5  A    between atoms: C_10  and  O_25
    6  A    between atoms: C_10  and  C_28
    7  A    between atoms: C_11  and  C_16
    8  A    between atoms: C_21  and  C_24
    9  A    between atoms: C_21  and  C_29
   10  A    between atoms: C_26  and  C_29
                            x       y       z     vdW  Elec       q    Type
                         _______ _______ _______ _____ _____    ______ ____

>  <TORSDO>
F 10

$$$$
=
 OpenBabel10222421103D

 29 31  0  0  1  0  0  0  0  0999 V2000
  188.5490  177.8090  139.1340 C   0  0  0  0  0  0  0  0  0  0  0  0
  186.9770  176.8680  144.3660 O   0  0  0  0  0  1  0  0  0  0  0  0
  189.0240  177.4660  141.8120 C   0  0  0  0  0  0  0  0  0  0  0  0
  190.0350  177.1290  140.9580 N   0  0  0  0  0  0  0  0  0  0  0  0
  187.5220  178.1520  140.0110 C   0  0  0  0  0  3  0  0  0  0  0  0
  190.6090  177.0510  138.5520 C   0  0  0  0  0  0  0  0  0  0  0  0
  189.8950  177.3980  137.4050 C   0  0  0  0  0  3  0  0  0  0  0  0
  186.9500  178.2250  142.4640 N   0  0  0  0  0  0  0  0  0  0  0  0
  187.6520  177.8960  143.7070 C   0  0  2  0  0  3  0  0  0  0  0  0
  187.8070  177.9550  141.3730 C   0  0  0  0  0  0  0  0  0  0  0  0
  188.6210  177.8670  137.7590 C   0  0  0  0  0  3  0  0  0  0  0  0
  189.7980  177.2950  139.6310 C   0  0  2  0  0  3  0  0  0  0  0  0
  189.0650  177.4040  143.3000 C   0  0  2  0  0  3  0  0  0  0  0  0
  185.7110  179.6940  141.1370 O   0  0  0  0  0  1  0  0  0  0  0  0
  185.7550  179.0590  142.3810 C   0  0  1  0  0  3  0  0  0  0  0  0
  184.4910  178.2250  142.5930 C   0  0  1  0  0  3  0  0  0  0  0  0
  184.1080  178.8510  144.6850 C   0  0  0  0  0  1  0  0  0  0  0  0
  183.5830  178.9260  143.3940 O   0  0  0  0  0  0  0  0  0  0  0  0
  182.5400  178.5470  141.1710 N   0  0  0  0  0  1  0  0  0  0  0  0
  183.8440  177.9160  141.2500 C   0  0  0  0  0  2  0  0  0  0  0  0
  190.1030  178.3590  143.8100 C   0  0  0  0  0  3  0  0  0  0  0  0
  190.9530  178.0740  144.8050 C   0  0  0  0  0  3  0  0  0  0  0  0
  190.9650  176.7660  145.5340 C   0  0  0  0  0  2  0  0  0  0  0  0
  190.6060  176.9760  146.9920 C   0  0  0  0  0  2  0  0  0  0  0  0
  189.1310  176.7050  147.1910 C   0  0  0  0  0  2  0  0  0  0  0  0
  188.4620  177.9420  147.7540 C   0  0  0  0  0  2  0  0  0  0  0  0
  189.2290  178.4480  148.8020 O   0  0  0  0  0  1  0  0  0  0  0  0
  192.6450  176.3740  137.4610 N   0  0  0  0  0  2  0  0  0  0  0  0
  191.9780  176.5240  138.5570 C   0  0  0  0  0  3  0  0  0  0  0  0
  1 12  1  0  0  0  0
  1  5  1  0  0  0  0
  3 13  1  0  0  0  0
  4  3  2  0  0  0  0
  5 10  2  0  0  0  0
  6 29  1  0  0  0  0
  7 11  1  0  0  0  0
  7  6  2  0  0  0  0
  8  9  1  0  0  0  0
  9  2  1  6  0  0  0
 10  3  1  0  0  0  0
 10  8  1  0  0  0  0
 11  1  2  0  0  0  0
 12  6  1  1  0  0  0
 12  4  1  0  0  0  0
 13  9  1  0  0  0  0
 13 21  1  1  0  0  0
 15 14  1  6  0  0  0
 15  8  1  0  0  0  0
 15 16  1  0  0  0  0
 16 20  1  6  0  0  0
 16 18  1  0  0  0  0
 18 17  1  0  0  0  0
 19 20  1  0  0  0  0
 21 22  2  0  0  0  0
 22 23  1  0  0  0  0
 23 24  1  0  0  0  0
 24 25  1  0  0  0  0
 25 26  1  0  0  0  0
 26 27  1  0  0  0  0
 28 29  2  0  0  0  0
M  END
>  <MODEL>
5

>  <REMARK>
 VINA RESULT:      -6.6      2.499      5.825
  Name = 
  10 active torsions:
  status: ('A' for Active; 'I' for Inactive)
    1  A    between atoms: C_1  and  C_26
    2  A    between atoms: C_8  and  C_27
    3  A    between atoms: C_9  and  C_10
    4  A    between atoms: C_9  and  N_14
    5  A    between atoms: C_10  and  O_25
    6  A    between atoms: C_10  and  C_28
    7  A    between atoms: C_11  and  C_16
    8  A    between atoms: C_21  and  C_24
    9  A    between atoms: C_21  and  C_29
   10  A    between atoms: C_26  and  C_29
                            x       y       z     vdW  Elec       q    Type
                         _______ _______ _______ _____ _____    ______ ____

>  <TORSDO>
F 10

$$$$
=
 OpenBabel10222421103D

 29 31  0  0  1  0  0  0  0  0999 V2000
  186.1360  178.4810  141.7510 C   0  0  0  0  0  0  0  0  0  0  0  0
  191.5100  178.0840  140.4510 O   0  0  0  0  0  1  0  0  0  0  0  0
  188.7100  177.6500  142.1960 C   0  0  0  0  0  0  0  0  0  0  0  0
  187.9220  177.8310  143.2960 N   0  0  0  0  0  2  0  0  0  0  0  0
  186.9460  178.2930  140.6330 C   0  0  0  0  0  3  0  0  0  0  0  0
  185.6370  178.5070  143.9660 C   0  0  0  0  0  0  0  0  0  0  0  0
  184.5190  178.8960  143.2290 C   0  0  0  0  0  3  0  0  0  0  0  0
  189.2750  177.6050  139.9640 N   0  0  0  0  0  0  0  0  0  0  0  0
  190.4790  177.1720  140.6780 C   0  0  2  0  0  3  0  0  0  0  0  0
  188.2580  177.8730  140.9080 C   0  0  0  0  0  0  0  0  0  0  0  0
  184.8220  178.8810  141.8590 C   0  0  0  0  0  3  0  0  0  0  0  0
  186.6480  178.2460  143.0760 C   0  0  0  0  0  0  0  0  0  0  0  0
  190.1200  177.1680  142.1870 C   0  0  2  0  0  3  0  0  0  0  0  0
  189.4360  178.5390  137.8300 O   0  0  0  0  0  1  0  0  0  0  0  0
  189.0380  177.4010  138.5380 C   0  0  1  0  0  3  0  0  0  0  0  0
  189.7920  176.1720  138.0290 C   0  0  1  0  0  3  0  0  0  0  0  0
  187.6750  175.9590  137.4070 C   0  0  0  0  0  1  0  0  0  0  0  0
  188.9120  175.3130  137.3620 O   0  0  0  0  0  0  0  0  0  0  0  0
  190.8860  175.7600  135.8920 N   0  0  0  0  0  1  0  0  0  0  0  0
  190.8980  176.6020  137.0750 C   0  0  0  0  0  2  0  0  0  0  0  0
  190.1710  175.7670  142.7200 C   0  0  0  0  0  3  0  0  0  0  0  0
  190.8670  175.4070  143.8060 C   0  0  0  0  0  3  0  0  0  0  0  0
  191.6850  176.3630  144.6170 C   0  0  0  0  0  2  0  0  0  0  0  0
  191.6780  175.9510  146.0760 C   0  0  0  0  0  2  0  0  0  0  0  0
  191.1390  177.0870  146.9180 C   0  0  0  0  0  2  0  0  0  0  0  0
  189.7290  176.7590  147.3630 C   0  0  0  0  0  2  0  0  0  0  0  0
  188.8430  177.0080  146.3160 O   0  0  0  0  0  1  0  0  0  0  0  0
  184.8050  179.0010  146.1700 N   0  0  0  0  0  2  0  0  0  0  0  0
  185.6810  178.4070  145.4300 C   0  0  0  0  0  3  0  0  0  0  0  0
  1 11  1  0  0  0  0
  1 12  1  0  0  0  0
  3  4  1  0  0  0  0
  5 10  1  0  0  0  0
  5  1  2  0  0  0  0
  6 29  1  0  0  0  0
  7  6  1  0  0  0  0
  8  9  1  0  0  0  0
  8 10  1  0  0  0  0
  9  2  1  1  0  0  0
  9 13  1  0  0  0  0
 10  3  2  0  0  0  0
 11  7  2  0  0  0  0
 12  4  1  0  0  0  0
 12  6  2  0  0  0  0
 13  3  1  0  0  0  0
 13 21  1  6  0  0  0
 15 14  1  6  0  0  0
 15  8  1  0  0  0  0
 16 20  1  6  0  0  0
 16 15  1  0  0  0  0
 18 17  1  0  0  0  0
 18 16  1  0  0  0  0
 19 20  1  0  0  0  0
 21 22  2  0  0  0  0
 22 23  1  0  0  0  0
 23 24  1  0  0  0  0
 24 25  1  0  0  0  0
 25 26  1  0  0  0  0
 27 26  1  0  0  0  0
 29 28  2  0  0  0  0
M  END
>  <MODEL>
6

>  <REMARK>
 VINA RESULT:      -6.4      1.956      2.492
  Name = 
  10 active torsions:
  status: ('A' for Active; 'I' for Inactive)
    1  A    between atoms: C_1  and  C_26
    2  A    between atoms: C_8  and  C_27
    3  A    between atoms: C_9  and  C_10
    4  A    between atoms: C_9  and  N_14
    5  A    between atoms: C_10  and  O_25
    6  A    between atoms: C_10  and  C_28
    7  A    between atoms: C_11  and  C_16
    8  A    between atoms: C_21  and  C_24
    9  A    between atoms: C_21  and  C_29
   10  A    between atoms: C_26  and  C_29
                            x       y       z     vdW  Elec       q    Type
                         _______ _______ _______ _____ _____    ______ ____

>  <TORSDO>
F 10

$$$$
=
 OpenBabel10222421103D

 29 31  0  0  1  0  0  0  0  0999 V2000
  188.9490  177.6850  141.3280 C   0  0  0  0  0  0  0  0  0  0  0  0
  184.5420  180.0340  143.7340 O   0  0  0  0  0  1  0  0  0  0  0  0
  186.3710  178.6170  141.3430 C   0  0  0  0  0  0  0  0  0  0  0  0
  187.0230  178.6270  140.1430 N   0  0  0  0  0  0  0  0  0  0  0  0
  188.2770  177.6770  142.5480 C   0  0  0  0  0  3  0  0  0  0  0  0
  189.1950  178.0550  139.1010 C   0  0  0  0  0  0  0  0  0  0  0  0
  190.3720  177.5170  139.6200 C   0  0  0  0  0  3  0  0  0  0  0  0
  186.0630  178.2640  143.5970 N   0  0  0  0  0  0  0  0  0  0  0  0
  184.7930  178.8100  143.1120 C   0  0  2  0  0  3  0  0  0  0  0  0
  186.9610  178.1680  142.5100 C   0  0  0  0  0  0  0  0  0  0  0  0
  190.2260  177.2860  140.9960 C   0  0  0  0  0  2  0  0  0  0  0  0
  188.3020  178.1690  140.1370 C   0  0  0  0  0  0  0  0  0  0  0  0
  184.9620  179.0350  141.5880 C   0  0  2  0  0  3  0  0  0  0  0  0
  186.9410  176.3800  144.6590 O   0  0  0  0  0  1  0  0  0  0  0  0
  186.2350  177.5670  144.8680 C   0  0  1  0  0  3  0  0  0  0  0  0
  186.9720  178.4480  145.8790 C   0  0  1  0  0  3  0  0  0  0  0  0
  184.9310  178.2490  146.7240 C   0  0  0  0  0  1  0  0  0  0  0  0
  186.0510  179.0830  146.7190 O   0  0  0  0  0  0  0  0  0  0  0  0
  188.1630  178.2420  147.9930 N   0  0  0  0  0  1  0  0  0  0  0  0
  187.9150  177.5970  146.7160 C   0  0  0  0  0  2  0  0  0  0  0  0
  184.0350  178.1280  140.8320 C   0  0  0  0  0  3  0  0  0  0  0  0
  183.3510  178.5020  139.7440 C   0  0  0  0  0  3  0  0  0  0  0  0
  183.4250  179.8750  139.1510 C   0  0  0  0  0  2  0  0  0  0  0  0
  182.0480  180.3260  138.7030 C   0  0  0  0  0  2  0  0  0  0  0  0
  181.0040  179.7650  139.6420 C   0  0  0  0  0  2  0  0  0  0  0  0
  180.0880  180.8810  140.1020 C   0  0  0  0  0  2  0  0  0  0  0  0
  180.0130  180.8750  141.4940 O   0  0  0  0  0  1  0  0  0  0  0  0
  188.7870  179.6440  137.3400 N   0  0  0  0  0  2  0  0  0  0  0  0
  188.9890  178.4180  137.6940 C   0  0  0  0  0  3  0  0  0  0  0  0
  1  5  1  0  0  0  0
  3 13  1  0  0  0  0
  3 10  1  0  0  0  0
  4  3  2  0  0  0  0
  6  7  2  0  0  0  0
  6 12  1  0  0  0  0
  7 11  1  0  0  0  0
  8 15  1  0  0  0  0
  9  8  1  0  0  0  0
  9  2  1  1  0  0  0
 10  5  2  0  0  0  0
 10  8  1  0  0  0  0
 11  1  1  0  0  0  0
 12  4  1  0  0  0  0
 12  1  2  0  0  0  0
 13 21  1  6  0  0  0
 13  9  1  0  0  0  0
 15 14  1  6  0  0  0
 15 16  1  0  0  0  0
 16 20  1  1  0  0  0
 16 18  1  0  0  0  0
 18 17  1  0  0  0  0
 20 19  1  0  0  0  0
 22 21  2  0  0  0  0
 23 22  1  0  0  0  0
 24 23  1  0  0  0  0
 24 25  1  0  0  0  0
 25 26  1  0  0  0  0
 26 27  1  0  0  0  0
 28 29  2  0  0  0  0
 29  6  1  0  0  0  0
M  END
>  <MODEL>
7

>  <REMARK>
 VINA RESULT:      -6.3      2.737      7.904
  Name = 
  10 active torsions:
  status: ('A' for Active; 'I' for Inactive)
    1  A    between atoms: C_1  and  C_26
    2  A    between atoms: C_8  and  C_27
    3  A    between atoms: C_9  and  C_10
    4  A    between atoms: C_9  and  N_14
    5  A    between atoms: C_10  and  O_25
    6  A    between atoms: C_10  and  C_28
    7  A    between atoms: C_11  and  C_16
    8  A    between atoms: C_21  and  C_24
    9  A    between atoms: C_21  and  C_29
   10  A    between atoms: C_26  and  C_29
                            x       y       z     vdW  Elec       q    Type
                         _______ _______ _______ _____ _____    ______ ____

>  <TORSDO>
F 10

$$$$
=
 OpenBabel10222421103D

 29 31  0  0  1  0  0  0  0  0999 V2000
  188.7410  177.8080  141.3570 C   0  0  0  0  0  0  0  0  0  0  0  0
  184.2140  179.8500  143.8200 O   0  0  0  0  0  1  0  0  0  0  0  0
  186.0970  178.5310  141.4150 C   0  0  0  0  0  0  0  0  0  0  0  0
  186.7200  178.5660  140.2000 N   0  0  0  0  0  0  0  0  0  0  0  0
  188.0990  177.7730  142.5930 C   0  0  0  0  0  3  0  0  0  0  0  0
  188.9060  178.1450  139.1170 C   0  0  0  0  0  0  0  0  0  0  0  0
  190.1340  177.7160  139.6190 C   0  0  0  0  0  3  0  0  0  0  0  0
  185.8700  178.2050  143.6830 N   0  0  0  0  0  0  0  0  0  0  0  0
  184.5490  178.6370  143.2180 C   0  0  2  0  0  3  0  0  0  0  0  0
  186.7480  178.1570  142.5770 C   0  0  0  0  0  0  0  0  0  0  0  0
  190.0380  177.5050  141.0030 C   0  0  0  0  0  2  0  0  0  0  0  0
  188.0310  178.2110  140.1720 C   0  0  0  0  0  0  0  0  0  0  0  0
  184.6650  178.8400  141.6850 C   0  0  2  0  0  3  0  0  0  0  0  0
  186.8900  176.4010  144.7580 O   0  0  0  0  0  1  0  0  0  0  0  0
  186.1260  177.5530  144.9640 C   0  0  1  0  0  3  0  0  0  0  0  0
  186.8470  178.5000  145.9240 C   0  0  1  0  0  3  0  0  0  0  0  0
  184.9000  178.2960  146.9670 C   0  0  0  0  0  1  0  0  0  0  0  0
  185.9130  179.2150  146.6820 O   0  0  0  0  0  0  0  0  0  0  0  0
  189.1400  177.9130  146.4980 N   0  0  0  0  0  1  0  0  0  0  0  0
  187.7490  177.7030  146.8560 C   0  0  0  0  0  2  0  0  0  0  0  0
  183.7980  177.8450  140.9710 C   0  0  0  0  0  3  0  0  0  0  0  0
  182.5770  178.1250  140.4980 C   0  0  0  0  0  3  0  0  0  0  0  0
  181.9270  179.4680  140.6300 C   0  0  0  0  0  2  0  0  0  0  0  0
  180.5980  179.3380  141.3480 C   0  0  0  0  0  2  0  0  0  0  0  0
  180.8420  179.1260  142.8250 C   0  0  0  0  0  2  0  0  0  0  0  0
  179.5240  178.8540  143.5210 C   0  0  0  0  0  2  0  0  0  0  0  0
  179.6570  177.7370  144.3440 O   0  0  0  0  0  1  0  0  0  0  0  0
  188.9400  179.6130  137.2100 N   0  0  0  0  0  2  0  0  0  0  0  0
  188.6410  178.4600  137.7090 C   0  0  0  0  0  3  0  0  0  0  0  0
  1  5  1  0  0  0  0
  3 13  1  0  0  0  0
  3 10  1  0  0  0  0
  4  3  2  0  0  0  0
  6  7  2  0  0  0  0
  6 12  1  0  0  0  0
  7 11  1  0  0  0  0
  8 15  1  0  0  0  0
  9  8  1  0  0  0  0
  9  2  1  1  0  0  0
 10  5  2  0  0  0  0
 10  8  1  0  0  0  0
 11  1  1  0  0  0  0
 12  4  1  0  0  0  0
 12  1  2  0  0  0  0
 13 21  1  6  0  0  0
 13  9  1  0  0  0  0
 15 14  1  6  0  0  0
 15 16  1  0  0  0  0
 16 18  1  0  0  0  0
 16 20  1  1  0  0  0
 18 17  1  0  0  0  0
 19 20  1  0  0  0  0
 22 23  1  0  0  0  0
 22 21  2  0  0  0  0
 23 24  1  0  0  0  0
 24 25  1  0  0  0  0
 25 26  1  0  0  0  0
 26 27  1  0  0  0  0
 28 29  2  0  0  0  0
 29  6  1  0  0  0  0
M  END
>  <MODEL>
8

>  <REMARK>
 VINA RESULT:      -6.3      2.753      7.611
  Name = 
  10 active torsions:
  status: ('A' for Active; 'I' for Inactive)
    1  A    between atoms: C_1  and  C_26
    2  A    between atoms: C_8  and  C_27
    3  A    between atoms: C_9  and  C_10
    4  A    between atoms: C_9  and  N_14
    5  A    between atoms: C_10  and  O_25
    6  A    between atoms: C_10  and  C_28
    7  A    between atoms: C_11  and  C_16
    8  A    between atoms: C_21  and  C_24
    9  A    between atoms: C_21  and  C_29
   10  A    between atoms: C_26  and  C_29
                            x       y       z     vdW  Elec       q    Type
                         _______ _______ _______ _____ _____    ______ ____

>  <TORSDO>
F 10

$$$$
=
 OpenBabel10222421103D

 29 31  0  0  1  0  0  0  0  0999 V2000
  188.3520  177.9550  140.7070 C   0  0  0  0  0  0  0  0  0  0  0  0
  182.8640  177.7440  141.4580 O   0  0  0  0  0  1  0  0  0  0  0  0
  186.0710  178.2270  142.2020 C   0  0  0  0  0  0  0  0  0  0  0  0
  187.2200  177.9340  142.8790 N   0  0  0  0  0  2  0  0  0  0  0  0
  187.1760  178.2550  140.0230 C   0  0  0  0  0  3  0  0  0  0  0  0
  189.6340  177.5110  142.5280 C   0  0  0  0  0  0  0  0  0  0  0  0
  190.4250  177.4890  141.3800 C   0  0  0  0  0  3  0  0  0  0  0  0
  184.7200  178.6830  140.3930 N   0  0  0  0  0  0  0  0  0  0  0  0
  183.8370  178.7380  141.5610 C   0  0  2  0  0  3  0  0  0  0  0  0
  186.0310  178.3800  140.8280 C   0  0  0  0  0  0  0  0  0  0  0  0
  189.6380  177.7640  140.2510 C   0  0  0  0  0  3  0  0  0  0  0  0
  188.3500  177.7960  142.1370 C   0  0  0  0  0  0  0  0  0  0  0  0
  184.7260  178.4590  142.8010 C   0  0  2  0  0  3  0  0  0  0  0  0
  184.4500  178.2300  138.1190 O   0  0  0  0  0  1  0  0  0  0  0  0
  184.3990  179.2410  139.0830 C   0  0  1  0  0  3  0  0  0  0  0  0
  183.0160  179.8930  139.0920 C   0  0  1  0  0  3  0  0  0  0  0  0
  181.8300  181.6110  138.3430 C   0  0  0  0  0  1  0  0  0  0  0  0
  183.1200  181.2400  138.7280 O   0  0  0  0  0  0  0  0  0  0  0  0
  181.1570  178.3400  138.8330 N   0  0  0  0  0  1  0  0  0  0  0  0
  182.0990  179.1750  138.1110 C   0  0  0  0  0  2  0  0  0  0  0  0
  184.7740  179.6760  143.6780 C   0  0  0  0  0  3  0  0  0  0  0  0
  184.9920  179.6340  144.9990 C   0  0  0  0  0  3  0  0  0  0  0  0
  185.2080  178.3640  145.7610 C   0  0  0  0  0  2  0  0  0  0  0  0
  186.1600  178.6020  146.9170 C   0  0  0  0  0  2  0  0  0  0  0  0
  187.4570  177.8670  146.6610 C   0  0  0  0  0  2  0  0  0  0  0  0
  187.9540  177.2550  147.9540 C   0  0  0  0  0  2  0  0  0  0  0  0
  188.4410  178.2620  148.7860 O   0  0  0  0  0  1  0  0  0  0  0  0
  190.4310  178.2460  144.6770 N   0  0  0  0  0  2  0  0  0  0  0  0
  190.1260  177.2690  143.8890 C   0  0  0  0  0  3  0  0  0  0  0  0
  1 12  1  0  0  0  0
  3 13  1  0  0  0  0
  3  4  1  0  0  0  0
  5  1  2  0  0  0  0
  5 10  1  0  0  0  0
  6 29  1  0  0  0  0
  7  6  1  0  0  0  0
  8 10  1  0  0  0  0
  8  9  1  0  0  0  0
  9  2  1  6  0  0  0
  9 13  1  0  0  0  0
 10  3  2  0  0  0  0
 11  1  1  0  0  0  0
 11  7  2  0  0  0  0
 12  6  2  0  0  0  0
 12  4  1  0  0  0  0
 13 21  1  1  0  0  0
 15 14  1  6  0  0  0
 15 16  1  0  0  0  0
 15  8  1  0  0  0  0
 16 20  1  6  0  0  0
 17 18  1  0  0  0  0
 18 16  1  0  0  0  0
 20 19  1  0  0  0  0
 21 22  2  0  0  0  0
 22 23  1  0  0  0  0
 23 24  1  0  0  0  0
 25 24  1  0  0  0  0
 25 26  1  0  0  0  0
 26 27  1  0  0  0  0
 29 28  2  0  0  0  0
M  END
>  <MODEL>
9

>  <REMARK>
 VINA RESULT:      -6.1      2.357      4.856
  Name = 
  10 active torsions:
  status: ('A' for Active; 'I' for Inactive)
    1  A    between atoms: C_1  and  C_26
    2  A    between atoms: C_8  and  C_27
    3  A    between atoms: C_9  and  C_10
    4  A    between atoms: C_9  and  N_14
    5  A    between atoms: C_10  and  O_25
    6  A    between atoms: C_10  and  C_28
    7  A    between atoms: C_11  and  C_16
    8  A    between atoms: C_21  and  C_24
    9  A    between atoms: C_21  and  C_29
   10  A    between atoms: C_26  and  C_29
                            x       y       z     vdW  Elec       q    Type
                         _______ _______ _______ _____ _____    ______ ____

>  <TORSDO>
F 10

$$$$
