=
 OpenBabel10222418363D

 62 71  0  0  1  0  0  0  0  0999 V2000
  195.9540  174.8530  139.2830 C   0  0  0  0  0  3  0  0  0  0  0  0
  190.3760  176.0510  136.4070 C   0  0  0  0  0  0  0  0  0  0  0  0
  194.9690  174.8700  137.1740 C   0  0  0  0  0  0  0  0  0  0  0  0
  191.2660  176.7780  139.9920 C   0  0  0  0  0  2  0  0  0  0  0  0
  191.3910  176.3850  138.5860 N   0  0  0  0  0  0  0  0  0  0  0  0
  190.2420  176.4320  137.6980 C   0  0  0  0  0  0  0  0  0  0  0  0
  196.4100  174.0580  136.9370 S   0  0  0  0  0  0  0  0  0  0  0  0
  189.8850  176.4460  140.5370 C   0  0  0  0  0  2  0  0  0  0  0  0
  194.0230  175.0230  136.2960 N   0  0  0  0  0  2  0  0  0  0  0  0
  196.9300  174.1690  138.5490 C   0  0  0  0  0  3  0  0  0  0  0  0
  192.7350  176.4050  137.9970 C   0  0  0  0  0  0  0  0  0  0  0  0
  193.8060  175.9210  138.9560 C   0  0  0  0  0  3  0  0  0  0  0  0
  188.8510  176.6630  138.2610 C   0  0  0  0  0  2  0  0  0  0  0  0
  192.7840  175.6520  136.6820 C   0  0  0  0  0  0  0  0  0  0  0  0
  191.6960  175.5620  135.8960 C   0  0  0  0  0  0  0  0  0  0  0  0
  188.8180  177.1530  139.7070 C   0  0  2  0  0  3  0  0  0  0  0  0
  194.8640  175.2480  138.5000 C   0  0  0  0  0  0  0  0  0  0  0  0
  190.9910  173.5800  134.6330 C   0  0  0  0  0  2  0  0  0  0  0  0
  191.8310  174.8030  134.5940 C   0  0  2  0  0  3  0  0  0  0  0  0
  192.3930  173.5200  134.7590 O   0  0  0  0  0  0  0  0  0  0  0  0
  188.9010  178.6860  139.7570 C   0  0  0  0  0  2  0  0  0  0  0  0
  188.6300  179.2720  141.1430 C   0  0  0  0  0  2  0  0  0  0  0  0
  187.4310  178.1170  142.9760 C   0  0  0  0  0  0  0  0  0  0  0  0
  188.6270  177.8850  143.7950 C   0  0  0  0  0  2  0  0  0  0  0  0
  187.3960  178.7060  141.7770 C   0  0  0  0  0  3  0  0  0  0  0  0
  188.1710  176.9850  144.8470 N   0  0  0  0  0  0  0  0  0  0  0  0
  186.7750  177.1790  144.9950 N   0  0  0  0  0  2  0  0  0  0  0  0
  186.2660  177.5710  143.6840 C   0  0  0  0  0  2  0  0  0  0  0  0
  188.8640  177.3030  146.1020 C   0  0  1  0  0  3  0  0  0  0  0  0
  187.9280  177.9090  149.7730 F   0  0  0  0  0  0  0  0  0  0  0  0
  189.4210  179.0900  148.3430 F   0  0  0  0  0  0  0  0  0  0  0  0
  187.3300  178.4510  147.6230 O   0  0  0  0  0  0  0  0  0  0  0  0
  188.0200  177.2360  147.4040 C   0  0  2  0  0  3  0  0  0  0  0  0
  188.3980  178.1710  148.4970 C   0  0  0  0  0  0  0  0  0  0  0  0
  191.0890  177.3200  145.1850 O   0  0  0  0  0  0  0  0  0  0  0  0
  190.8240  176.1630  147.1980 N   0  0  0  0  0  2  0  0  0  0  0  0
  192.2180  175.7520  147.2730 C   0  0  0  0  0  1  0  0  0  0  0  0
  190.3130  176.9120  146.0900 C   0  0  0  0  0  0  0  0  0  0  0  0
  189.2650  176.0260  135.5500 O   0  0  0  0  0  0  0  0  0  0  0  0
  186.8210  175.7680  134.8830 C   0  0  2  0  0  0  0  0  0  0  0  0
  187.2000  176.9970  135.6550 C   0  0  0  0  0  2  0  0  0  0  0  0
  187.9450  175.7370  135.9960 C   0  0  2  0  0  0  0  0  0  0  0  0
  187.5820  174.5190  135.1970 C   0  0  0  0  0  2  0  0  0  0  0  0
  185.4200  175.4640  135.2360 N   0  0  0  0  0  2  0  0  0  0  0  0
  184.4160  176.4460  134.8120 C   0  0  0  0  0  2  0  0  0  0  0  0
  183.6280  176.9170  136.0200 C   0  0  0  0  0  2  0  0  0  0  0  0
  184.0700  176.2490  137.1630 O   0  0  0  0  0  0  0  0  0  0  0  0
  182.7060  176.0700  138.1650 P   0  0  1  0  0  0  0  0  0  0  0  0
  180.5180  175.4610  136.9660 O   0  0  0  0  0  0  0  0  0  0  0  0
  181.5640  174.7640  137.6270 C   0  0  1  0  0  3  0  0  0  0  0  0
  183.0490  175.9620  139.6370 O   0  0  0  0  0  0  0  0  0  0  0  0
  180.4610  176.8240  137.1690 N   0  0  0  0  0  0  0  0  0  0  0  0
  181.4720  177.3050  137.8100 C   0  0  0  0  0  0  0  0  0  0  0  0
  181.2550  173.2630  135.8140 O   0  0  0  0  0  1  0  0  0  0  0  0
  182.2140  173.7770  136.6850 C   0  0  0  0  0  2  0  0  0  0  0  0
  181.5100  178.6610  138.1590 O   0  0  0  0  0  0  0  0  0  0  0  0
  182.1830  179.2420  139.2810 C   0  0  2  0  0  3  0  0  0  0  0  0
  184.4160  180.0120  139.0230 O   0  0  0  0  0  0  0  0  0  0  0  0
  183.6760  179.0690  139.2440 C   0  0  0  0  0  3  0  0  0  0  0  0
  181.5350  178.8680  140.6110 C   0  0  0  0  0  2  0  0  0  0  0  0
  179.4250  178.2650  140.4010 C   0  0  0  0  0  1  0  0  0  0  0  0
  180.2320  179.3680  140.6830 O   0  0  0  0  0  0  0  0  0  0  0  0
  2  6  2  0  0  0  0
  3 17  2  0  0  0  0
  4  8  1  0  0  0  0
  5  4  1  0  0  0  0
  6 13  1  0  0  0  0
  6  5  1  0  0  0  0
  7  3  1  0  0  0  0
  7 10  1  0  0  0  0
  9 14  1  0  0  0  0
  9  3  1  0  0  0  0
 10  1  2  0  0  0  0
 11  5  1  0  0  0  0
 11 12  2  0  0  0  0
 13 16  1  0  0  0  0
 14 11  1  0  0  0  0
 15  2  1  0  0  0  0
 15 14  2  0  0  0  0
 16 21  1  6  0  0  0
 16  8  1  0  0  0  0
 17 12  1  0  0  0  0
 17  1  1  0  0  0  0
 18 20  1  0  0  0  0
 19 18  1  0  0  0  0
 19 20  1  0  0  0  0
 19 15  1  1  0  0  0
 21 22  1  0  0  0  0
 22 25  1  0  0  0  0
 23 28  1  0  0  0  0
 23 24  1  0  0  0  0
 24 26  1  0  0  0  0
 25 23  2  0  0  0  0
 26 27  1  0  0  0  0
 26 29  1  0  0  0  0
 28 27  1  0  0  0  0
 29 38  1  1  0  0  0
 31 34  1  0  0  0  0
 32 34  1  0  0  0  0
 33 29  1  6  0  0  0
 33 32  1  0  0  0  0
 33 34  1  0  0  0  0
 34 30  1  0  0  0  0
 35 38  2  0  0  0  0
 36 37  1  0  0  0  0
 38 36  1  0  0  0  0
 39  2  1  0  0  0  0
 40 43  1  0  0  0  0
 40 44  1  1  0  0  0
 40 41  1  0  0  0  0
 40 42  1  0  0  0  0
 41 42  1  0  0  0  0
 42 39  1  6  0  0  0
 43 42  1  0  0  0  0
 45 44  1  0  0  0  0
 45 46  1  0  0  0  0
 46 47  1  0  0  0  0
 47 48  1  0  0  0  0
 48 51  2  1  0  0  0
 49 52  1  0  0  0  0
 49 50  1  0  0  0  0
 50 55  1  6  0  0  0
 50 48  1  0  0  0  0
 52 53  2  0  0  0  0
 53 56  1  0  0  0  0
 53 48  1  0  0  0  0
 54 55  1  0  0  0  0
 56 57  1  0  0  0  0
 57 59  1  1  0  0  0
 57 60  1  0  0  0  0
 58 59  2  0  0  0  0
 60 62  1  0  0  0  0
 61 62  1  0  0  0  0
M  END
>  <MODEL>
1

>  <REMARK>
 VINA RESULT:      -6.4      0.000      0.000
  Name = 
  20 active torsions:
  status: ('A' for Active; 'I' for Inactive)
    1  A    between atoms: C_4  and  C_54
    2  A    between atoms: C_4  and  O_55
    3  A    between atoms: C_4  and  C_57
    4  A    between atoms: P_5  and  O_40
    5  A    between atoms: C_6  and  N_15
    6  A    between atoms: C_8  and  O_31
    7  A    between atoms: N_15  and  C_19
    8  A    between atoms: C_19  and  C_36
    9  A    between atoms: C_24  and  C_35
   10  A    between atoms: C_24  and  C_37
   11  A    between atoms: C_26  and  C_27
   12  A    between atoms: C_26  and  N_41
   13  A    between atoms: C_26  and  C_49
   14  A    between atoms: O_30  and  C_57
   15  A    between atoms: O_31  and  C_39
   16  A    between atoms: C_32  and  C_51
   17  A    between atoms: C_35  and  C_59
   18  A    between atoms: C_36  and  O_40
   19  A    between atoms: C_45  and  C_53
   20  A    between atoms: O_55  and  C_58
                            x       y       z     vdW  Elec       q    Type
                         _______ _______ _______ _____ _____    ______ ____

>  <TORSDO>
F 20

$$$$
=
 OpenBabel10222418363D

 62 71  0  0  1  0  0  0  0  0999 V2000
  191.4070  177.2060  146.8180 C   0  0  0  0  0  3  0  0  0  0  0  0
  187.4110  177.3600  141.8350 C   0  0  0  0  0  0  0  0  0  0  0  0
  189.1360  177.1220  146.3130 C   0  0  0  0  0  0  0  0  0  0  0  0
  191.1620  177.0540  141.7090 C   0  0  0  0  0  2  0  0  0  0  0  0
  189.7940  177.1220  142.2320 N   0  0  0  0  0  0  0  0  0  0  0  0
  188.6650  177.2850  141.3310 C   0  0  0  0  0  0  0  0  0  0  0  0
  189.1700  177.3690  147.9640 S   0  0  0  0  0  0  0  0  0  0  0  0
  191.3190  177.9050  140.4590 C   0  0  0  0  0  2  0  0  0  0  0  0
  188.0770  177.1230  145.5600 N   0  0  0  0  0  0  0  0  0  0  0  0
  190.8620  177.3940  148.0940 C   0  0  0  0  0  3  0  0  0  0  0  0
  189.5530  176.5640  143.5670 C   0  0  1  0  0  3  0  0  0  0  0  0
  190.6850  176.8440  144.5360 C   0  0  0  0  0  3  0  0  0  0  0  0
  188.8960  177.6200  139.8700 C   0  0  0  0  0  2  0  0  0  0  0  0
  188.2160  177.0070  144.1300 C   0  0  0  0  0  0  0  0  0  0  0  0
  187.1860  177.2970  143.3140 C   0  0  0  0  0  0  0  0  0  0  0  0
  190.3340  177.4400  139.3900 C   0  0  2  0  0  3  0  0  0  0  0  0
  190.4300  177.0460  145.8300 C   0  0  0  0  0  0  0  0  0  0  0  0
  185.9300  179.1670  144.2880 C   0  0  0  0  0  2  0  0  0  0  0  0
  185.8820  177.7210  143.9550 C   0  0  2  0  0  3  0  0  0  0  0  0
  186.0400  178.1750  145.2810 O   0  0  0  0  0  0  0  0  0  0  0  0
  190.5650  175.9970  138.9130 C   0  0  0  0  0  2  0  0  0  0  0  0
  189.7090  175.6020  137.7100 C   0  0  0  0  0  2  0  0  0  0  0  0
  191.5060  175.7810  136.0150 C   0  0  0  0  0  0  0  0  0  0  0  0
  192.4810  174.9840  136.7680 C   0  0  0  0  0  2  0  0  0  0  0  0
  190.2700  176.1020  136.4140 C   0  0  0  0  0  3  0  0  0  0  0  0
  193.7280  175.1610  136.0350 N   0  0  0  0  0  0  0  0  0  0  0  0
  193.3920  175.4840  134.6970 N   0  0  0  0  0  2  0  0  0  0  0  0
  192.1170  176.1960  134.7460 C   0  0  0  0  0  2  0  0  0  0  0  0
  194.5060  173.9160  136.0760 C   0  0  1  0  0  3  0  0  0  0  0  0
  193.9300  170.3910  134.6740 F   0  0  0  0  0  0  0  0  0  0  0  0
  193.9920  171.1690  136.9230 F   0  0  0  0  0  0  0  0  0  0  0  0
  192.8330  172.3110  135.2950 O   0  0  0  0  0  0  0  0  0  0  0  0
  194.1270  172.8200  135.0420 C   0  0  2  0  0  3  0  0  0  0  0  0
  193.9100  171.4470  135.5710 C   0  0  0  0  0  0  0  0  0  0  0  0
  196.4190  175.2790  136.5970 O   0  0  0  0  0  0  0  0  0  0  0  0
  196.6780  172.9820  136.9410 N   0  0  0  0  0  2  0  0  0  0  0  0
  198.0590  173.0920  137.3870 C   0  0  0  0  0  1  0  0  0  0  0  0
  195.9270  174.1220  136.5110 C   0  0  0  0  0  0  0  0  0  0  0  0
  186.3140  177.5840  140.9900 O   0  0  0  0  0  0  0  0  0  0  0  0
  184.6050  178.9520  139.6910 C   0  0  2  0  0  0  0  0  0  0  0  0
  185.8980  178.6300  139.0020 C   0  0  0  0  0  2  0  0  0  0  0  0
  185.9700  178.8690  140.4840 C   0  0  2  0  0  0  0  0  0  0  0  0
  184.6680  179.1600  141.1710 C   0  0  0  0  0  2  0  0  0  0  0  0
  184.1460  180.2440  139.1410 N   0  0  0  0  0  2  0  0  0  0  0  0
  182.7450  180.3040  138.7090 C   0  0  0  0  0  2  0  0  0  0  0  0
  182.3910  179.0330  137.9610 C   0  0  0  0  0  2  0  0  0  0  0  0
  181.0050  178.8710  137.9350 O   0  0  0  0  0  0  0  0  0  0  0  0
  180.7200  177.1970  138.0590 P   0  0  1  0  0  0  0  0  0  0  0  0
  181.6490  176.0640  140.1680 O   0  0  0  0  0  0  0  0  0  0  0  0
  180.4120  176.6260  139.7540 C   0  0  1  0  0  3  0  0  0  0  0  0
  179.6780  176.6890  137.0830 O   0  0  0  0  0  0  0  0  0  0  0  0
  182.5730  175.8120  139.1750 N   0  0  0  0  0  0  0  0  0  0  0  0
  182.2440  176.2740  138.0170 C   0  0  0  0  0  0  0  0  0  0  0  0
  181.1520  178.3230  141.2410 O   0  0  0  0  0  1  0  0  0  0  0  0
  180.0110  177.7500  140.6810 C   0  0  0  0  0  2  0  0  0  0  0  0
  183.0490  176.0220  136.8980 O   0  0  0  0  0  0  0  0  0  0  0  0
  183.0520  174.8400  136.0900 C   0  0  2  0  0  3  0  0  0  0  0  0
  181.7870  173.0480  137.0000 O   0  0  0  0  0  0  0  0  0  0  0  0
  181.8150  174.0020  136.2430 C   0  0  0  0  0  3  0  0  0  0  0  0
  184.3610  174.0620  136.1960 C   0  0  0  0  0  2  0  0  0  0  0  0
  186.3550  174.3920  137.0790 C   0  0  0  0  0  1  0  0  0  0  0  0
  185.0000  174.3340  137.4090 O   0  0  0  0  0  0  0  0  0  0  0  0
  1 10  2  0  0  0  0
  2 15  1  0  0  0  0
  3  7  1  0  0  0  0
  4  5  1  0  0  0  0
  5 11  1  0  0  0  0
  6  2  2  0  0  0  0
  6  5  1  0  0  0  0
  7 10  1  0  0  0  0
  8  4  1  0  0  0  0
  9  3  2  0  0  0  0
 11 14  1  0  0  0  0
 11 12  1  1  0  0  0
 12 17  2  0  0  0  0
 13  6  1  0  0  0  0
 14  9  1  0  0  0  0
 15 14  2  0  0  0  0
 16 21  1  1  0  0  0
 16 13  1  0  0  0  0
 16  8  1  0  0  0  0
 17  3  1  0  0  0  0
 17  1  1  0  0  0  0
 18 20  1  0  0  0  0
 19 15  1  6  0  0  0
 19 18  1  0  0  0  0
 19 20  1  0  0  0  0
 22 21  1  0  0  0  0
 23 25  2  0  0  0  0
 23 24  1  0  0  0  0
 25 22  1  0  0  0  0
 26 29  1  0  0  0  0
 26 24  1  0  0  0  0
 27 28  1  0  0  0  0
 27 26  1  0  0  0  0
 28 23  1  0  0  0  0
 29 38  1  6  0  0  0
 30 34  1  0  0  0  0
 32 34  1  0  0  0  0
 33 32  1  0  0  0  0
 33 34  1  0  0  0  0
 33 29  1  1  0  0  0
 34 31  1  0  0  0  0
 36 37  1  0  0  0  0
 38 35  2  0  0  0  0
 38 36  1  0  0  0  0
 39  2  1  0  0  0  0
 40 44  1  6  0  0  0
 40 42  1  0  0  0  0
 40 43  1  0  0  0  0
 41 40  1  0  0  0  0
 41 42  1  0  0  0  0
 42 39  1  1  0  0  0
 42 43  1  0  0  0  0
 45 44  1  0  0  0  0
 46 45  1  0  0  0  0
 47 46  1  0  0  0  0
 47 48  1  0  0  0  0
 48 51  2  6  0  0  0
 48 50  1  0  0  0  0
 50 49  1  0  0  0  0
 50 55  1  1  0  0  0
 52 49  1  0  0  0  0
 53 48  1  0  0  0  0
 53 52  2  0  0  0  0
 55 54  1  0  0  0  0
 56 53  1  0  0  0  0
 57 60  1  1  0  0  0
 57 59  1  0  0  0  0
 57 56  1  0  0  0  0
 59 58  2  0  0  0  0
 60 62  1  0  0  0  0
 61 62  1  0  0  0  0
M  END
>  <MODEL>
2

>  <REMARK>
 VINA RESULT:      -6.3      3.841      8.758
  Name = 
  20 active torsions:
  status: ('A' for Active; 'I' for Inactive)
    1  A    between atoms: C_4  and  C_54
    2  A    between atoms: C_4  and  O_55
    3  A    between atoms: C_4  and  C_57
    4  A    between atoms: P_5  and  O_40
    5  A    between atoms: C_6  and  N_15
    6  A    between atoms: C_8  and  O_31
    7  A    between atoms: N_15  and  C_19
    8  A    between atoms: C_19  and  C_36
    9  A    between atoms: C_24  and  C_35
   10  A    between atoms: C_24  and  C_37
   11  A    between atoms: C_26  and  C_27
   12  A    between atoms: C_26  and  N_41
   13  A    between atoms: C_26  and  C_49
   14  A    between atoms: O_30  and  C_57
   15  A    between atoms: O_31  and  C_39
   16  A    between atoms: C_32  and  C_51
   17  A    between atoms: C_35  and  C_59
   18  A    between atoms: C_36  and  O_40
   19  A    between atoms: C_45  and  C_53
   20  A    between atoms: O_55  and  C_58
                            x       y       z     vdW  Elec       q    Type
                         _______ _______ _______ _____ _____    ______ ____

>  <TORSDO>
F 20

$$$$
=
 OpenBabel10222418363D

 62 71  0  0  1  0  0  0  0  0999 V2000
  190.0600  177.8060  147.4050 C   0  0  0  0  0  3  0  0  0  0  0  0
  186.1070  177.7930  142.3860 C   0  0  0  0  0  0  0  0  0  0  0  0
  187.7950  177.6840  146.8820 C   0  0  0  0  0  0  0  0  0  0  0  0
  189.8610  177.5230  142.3000 C   0  0  0  0  0  2  0  0  0  0  0  0
  188.4890  177.5900  142.8090 N   0  0  0  0  0  0  0  0  0  0  0  0
  187.3660  177.7190  141.8950 C   0  0  0  0  0  0  0  0  0  0  0  0
  187.8120  177.9740  148.5280 S   0  0  0  0  0  0  0  0  0  0  0  0
  190.0200  178.3450  141.0300 C   0  0  0  0  0  2  0  0  0  0  0  0
  186.7420  177.6560  146.1210 N   0  0  0  0  0  0  0  0  0  0  0  0
  189.5020  178.0200  148.6710 C   0  0  0  0  0  3  0  0  0  0  0  0
  188.2420  177.0630  144.1550 C   0  0  1  0  0  3  0  0  0  0  0  0
  189.3620  177.3790  145.1270 C   0  0  0  0  0  3  0  0  0  0  0  0
  187.6060  178.0200  140.4270 C   0  0  0  0  0  2  0  0  0  0  0  0
  186.8950  177.5060  144.6950 C   0  0  0  0  0  0  0  0  0  0  0  0
  185.8700  177.7640  143.8640 C   0  0  0  0  0  0  0  0  0  0  0  0
  189.0500  177.8420  139.9650 C   0  0  2  0  0  3  0  0  0  0  0  0
  189.0940  177.6110  146.4120 C   0  0  0  0  0  0  0  0  0  0  0  0
  184.3370  179.6410  144.2540 C   0  0  0  0  0  2  0  0  0  0  0  0
  184.5550  178.1900  144.4830 C   0  0  2  0  0  3  0  0  0  0  0  0
  184.7130  179.1390  145.5150 O   0  0  0  0  0  0  0  0  0  0  0  0
  189.3010  176.3910  139.5260 C   0  0  0  0  0  2  0  0  0  0  0  0
  190.1000  176.2690  138.2280 C   0  0  0  0  0  2  0  0  0  0  0  0
  192.5440  175.9010  138.0800 C   0  0  0  0  0  0  0  0  0  0  0  0
  192.4430  174.5080  137.6260 C   0  0  0  0  0  2  0  0  0  0  0  0
  191.5230  176.7090  138.3850 C   0  0  0  0  0  3  0  0  0  0  0  0
  193.8110  174.0090  137.7010 N   0  0  0  0  0  0  0  0  0  0  0  0
  194.6760  175.1250  137.5930 N   0  0  0  0  0  2  0  0  0  0  0  0
  193.9640  176.2640  138.1670 C   0  0  0  0  0  2  0  0  0  0  0  0
  194.0530  173.0700  136.5980 C   0  0  1  0  0  3  0  0  0  0  0  0
  197.0800  170.7420  136.2300 F   0  0  0  0  0  0  0  0  0  0  0  0
  196.7800  173.0050  135.5550 F   0  0  0  0  0  0  0  0  0  0  0  0
  196.1220  172.2820  137.6390 O   0  0  0  0  0  0  0  0  0  0  0  0
  194.9920  171.8690  136.8950 C   0  0  2  0  0  3  0  0  0  0  0  0
  196.3530  171.9190  136.2980 C   0  0  0  0  0  0  0  0  0  0  0  0
  192.4700  173.9140  134.9940 O   0  0  0  0  0  0  0  0  0  0  0  0
  192.3120  171.6340  135.4810 N   0  0  0  0  0  2  0  0  0  0  0  0
  191.1810  171.4100  134.5940 C   0  0  0  0  0  1  0  0  0  0  0  0
  192.8810  172.9340  135.6700 C   0  0  0  0  0  0  0  0  0  0  0  0
  185.0150  177.9840  141.5260 O   0  0  0  0  0  0  0  0  0  0  0  0
  183.6200  179.1900  139.7710 C   0  0  2  0  0  0  0  0  0  0  0  0
  185.0710  178.9660  139.4640 C   0  0  0  0  0  2  0  0  0  0  0  0
  184.7230  179.2300  140.9030 C   0  0  2  0  0  0  0  0  0  0  0  0
  183.2660  179.4220  141.2060 C   0  0  0  0  0  2  0  0  0  0  0  0
  183.2290  180.4320  139.0740 N   0  0  0  0  0  2  0  0  0  0  0  0
  181.9130  180.4250  138.4250 C   0  0  0  0  0  2  0  0  0  0  0  0
  181.7600  179.1580  137.6050 C   0  0  0  0  0  2  0  0  0  0  0  0
  180.4060  178.8940  137.3920 O   0  0  0  0  0  0  0  0  0  0  0  0
  180.1360  177.3130  137.9630 P   0  0  1  0  0  0  0  0  0  0  0  0
  180.9130  176.8500  140.3670 O   0  0  0  0  0  0  0  0  0  0  0  0
  179.7040  177.2290  139.7250 C   0  0  1  0  0  3  0  0  0  0  0  0
  179.1800  176.5150  137.1000 O   0  0  0  0  0  0  0  0  0  0  0  0
  181.9150  176.3620  139.5540 N   0  0  0  0  0  0  0  0  0  0  0  0
  181.6700  176.4690  138.2920 C   0  0  0  0  0  0  0  0  0  0  0  0
  179.2910  178.5450  141.6580 O   0  0  0  0  0  1  0  0  0  0  0  0
  179.2170  178.5540  140.2660 C   0  0  0  0  0  2  0  0  0  0  0  0
  182.5630  175.9420  137.3490 O   0  0  0  0  0  0  0  0  0  0  0  0
  182.3150  175.7280  135.9560 C   0  0  2  0  0  3  0  0  0  0  0  0
  181.7950  173.4400  136.3320 O   0  0  0  0  0  0  0  0  0  0  0  0
  181.6000  174.4390  135.6620 C   0  0  0  0  0  3  0  0  0  0  0  0
  183.5510  175.9770  135.0950 C   0  0  0  0  0  2  0  0  0  0  0  0
  185.4840  174.9910  134.7040 C   0  0  0  0  0  1  0  0  0  0  0  0
  184.1070  174.7670  134.6690 O   0  0  0  0  0  0  0  0  0  0  0  0
  1 10  2  0  0  0  0
  2 15  1  0  0  0  0
  3  7  1  0  0  0  0
  4  5  1  0  0  0  0
  5 11  1  0  0  0  0
  6  2  2  0  0  0  0
  6  5  1  0  0  0  0
  7 10  1  0  0  0  0
  8  4  1  0  0  0  0
  9  3  2  0  0  0  0
 11 14  1  0  0  0  0
 11 12  1  1  0  0  0
 12 17  2  0  0  0  0
 13  6  1  0  0  0  0
 14  9  1  0  0  0  0
 15 14  2  0  0  0  0
 16 21  1  1  0  0  0
 16 13  1  0  0  0  0
 16  8  1  0  0  0  0
 17  3  1  0  0  0  0
 17  1  1  0  0  0  0
 18 19  1  0  0  0  0
 18 20  1  0  0  0  0
 19 15  1  6  0  0  0
 19 20  1  0  0  0  0
 22 25  1  0  0  0  0
 22 21  1  0  0  0  0
 23 28  1  0  0  0  0
 23 25  2  0  0  0  0
 24 26  1  0  0  0  0
 24 23  1  0  0  0  0
 27 26  1  0  0  0  0
 27 28  1  0  0  0  0
 29 38  1  1  0  0  0
 29 26  1  0  0  0  0
 30 34  1  0  0  0  0
 31 34  1  0  0  0  0
 33 29  1  6  0  0  0
 33 32  1  0  0  0  0
 34 33  1  0  0  0  0
 34 32  1  0  0  0  0
 35 38  2  0  0  0  0
 36 38  1  0  0  0  0
 37 36  1  0  0  0  0
 39  2  1  0  0  0  0
 40 44  1  6  0  0  0
 40 42  1  0  0  0  0
 40 43  1  0  0  0  0
 41 40  1  0  0  0  0
 41 42  1  0  0  0  0
 42 43  1  0  0  0  0
 42 39  1  1  0  0  0
 45 44  1  0  0  0  0
 46 45  1  0  0  0  0
 47 46  1  0  0  0  0
 47 48  1  0  0  0  0
 48 51  2  6  0  0  0
 48 53  1  0  0  0  0
 48 50  1  0  0  0  0
 50 55  1  1  0  0  0
 50 49  1  0  0  0  0
 52 49  1  0  0  0  0
 53 52  2  0  0  0  0
 55 54  1  0  0  0  0
 56 53  1  0  0  0  0
 57 60  1  6  0  0  0
 57 56  1  0  0  0  0
 59 57  1  0  0  0  0
 59 58  2  0  0  0  0
 62 61  1  0  0  0  0
 62 60  1  0  0  0  0
M  END
>  <MODEL>
3

>  <REMARK>
 VINA RESULT:      -6.3      4.172      9.168
  Name = 
  20 active torsions:
  status: ('A' for Active; 'I' for Inactive)
    1  A    between atoms: C_4  and  C_54
    2  A    between atoms: C_4  and  O_55
    3  A    between atoms: C_4  and  C_57
    4  A    between atoms: P_5  and  O_40
    5  A    between atoms: C_6  and  N_15
    6  A    between atoms: C_8  and  O_31
    7  A    between atoms: N_15  and  C_19
    8  A    between atoms: C_19  and  C_36
    9  A    between atoms: C_24  and  C_35
   10  A    between atoms: C_24  and  C_37
   11  A    between atoms: C_26  and  C_27
   12  A    between atoms: C_26  and  N_41
   13  A    between atoms: C_26  and  C_49
   14  A    between atoms: O_30  and  C_57
   15  A    between atoms: O_31  and  C_39
   16  A    between atoms: C_32  and  C_51
   17  A    between atoms: C_35  and  C_59
   18  A    between atoms: C_36  and  O_40
   19  A    between atoms: C_45  and  C_53
   20  A    between atoms: O_55  and  C_58
                            x       y       z     vdW  Elec       q    Type
                         _______ _______ _______ _____ _____    ______ ____

>  <TORSDO>
F 20

$$$$
=
 OpenBabel10222418363D

 62 71  0  0  1  0  0  0  0  0999 V2000
  191.1550  176.7240  145.3070 C   0  0  0  0  0  3  0  0  0  0  0  0
  185.6040  178.6350  142.7860 C   0  0  0  0  0  0  0  0  0  0  0  0
  188.9660  177.2310  145.9170 C   0  0  0  0  0  0  0  0  0  0  0  0
  188.6770  177.5420  140.9050 C   0  0  0  0  0  2  0  0  0  0  0  0
  187.7530  177.8140  142.0080 N   0  0  0  0  0  0  0  0  0  0  0  0
  186.4380  178.3790  141.7510 C   0  0  0  0  0  0  0  0  0  0  0  0
  189.7840  177.1670  147.3720 S   0  0  0  0  0  0  0  0  0  0  0  0
  188.5030  178.5480  139.7770 C   0  0  0  0  0  2  0  0  0  0  0  0
  187.7320  177.5990  145.7480 N   0  0  0  0  0  0  0  0  0  0  0  0
  191.2970  176.7970  146.6980 C   0  0  0  0  0  3  0  0  0  0  0  0
  187.9730  177.0930  143.2670 C   0  0  1  0  0  3  0  0  0  0  0  0
  189.4430  176.9420  143.6090 C   0  0  0  0  0  3  0  0  0  0  0  0
  186.0910  178.9100  140.3730 C   0  0  0  0  0  2  0  0  0  0  0  0
  187.1960  177.7120  144.4140 C   0  0  0  0  0  0  0  0  0  0  0  0
  186.0380  178.3600  144.1920 C   0  0  0  0  0  0  0  0  0  0  0  0
  187.0650  178.5070  139.2670 C   0  0  2  0  0  3  0  0  0  0  0  0
  189.8440  176.9610  144.8810 C   0  0  0  0  0  0  0  0  0  0  0  0
  184.5260  177.8790  146.0650 C   0  0  0  0  0  2  0  0  0  0  0  0
  185.3180  178.9390  145.3910 C   0  0  2  0  0  3  0  0  0  0  0  0
  183.9130  178.8720  145.2760 O   0  0  0  0  0  0  0  0  0  0  0  0
  186.6560  177.1570  138.6560 C   0  0  0  0  0  2  0  0  0  0  0  0
  185.7250  177.2850  137.4500 C   0  0  0  0  0  2  0  0  0  0  0  0
  187.6030  177.1210  135.8450 C   0  0  0  0  0  0  0  0  0  0  0  0
  188.3400  176.1010  136.6010 C   0  0  0  0  0  2  0  0  0  0  0  0
  186.4490  177.6930  136.2030 C   0  0  0  0  0  3  0  0  0  0  0  0
  189.6320  176.0240  135.9320 N   0  0  0  0  0  0  0  0  0  0  0  0
  189.4450  176.4600  134.5970 N   0  0  0  0  0  2  0  0  0  0  0  0
  188.3570  177.4340  134.6230 C   0  0  0  0  0  2  0  0  0  0  0  0
  190.1140  174.6370  135.9500 C   0  0  1  0  0  3  0  0  0  0  0  0
  193.8030  174.1590  136.8890 F   0  0  0  0  0  0  0  0  0  0  0  0
  192.8090  175.3580  135.0880 F   0  0  0  0  0  0  0  0  0  0  0  0
  191.9940  175.5310  137.2340 O   0  0  0  0  0  0  0  0  0  0  0  0
  191.3450  174.3360  136.8480 C   0  0  2  0  0  3  0  0  0  0  0  0
  192.6770  174.7200  136.3080 C   0  0  0  0  0  0  0  0  0  0  0  0
  188.2290  173.6980  134.7850 O   0  0  0  0  0  0  0  0  0  0  0  0
  188.9600  172.5160  136.6640 N   0  0  0  0  0  2  0  0  0  0  0  0
  187.9370  171.4870  136.5520 C   0  0  0  0  0  1  0  0  0  0  0  0
  189.0170  173.6290  135.7660 C   0  0  0  0  0  0  0  0  0  0  0  0
  184.3580  179.2410  142.5660 O   0  0  0  0  0  0  0  0  0  0  0  0
  182.1930  178.3010  141.6120 C   0  0  2  0  0  0  0  0  0  0  0  0
  183.4520  177.5260  141.3590 C   0  0  0  0  0  2  0  0  0  0  0  0
  183.5830  179.0230  141.3920 C   0  0  2  0  0  0  0  0  0  0  0  0
  182.3250  179.7900  141.6760 C   0  0  0  0  0  2  0  0  0  0  0  0
  181.3020  178.0440  140.4620 N   0  0  0  0  0  2  0  0  0  0  0  0
  180.1880  177.1190  140.6980 C   0  0  0  0  0  2  0  0  0  0  0  0
  179.8670  176.3760  139.4150 C   0  0  0  0  0  2  0  0  0  0  0  0
  181.0280  175.7970  138.9020 O   0  0  0  0  0  0  0  0  0  0  0  0
  180.8080  175.7070  137.2160 P   0  0  1  0  0  0  0  0  0  0  0  0
  182.8970  176.1680  135.7950 O   0  0  0  0  0  0  0  0  0  0  0  0
  182.2340  175.0270  136.3210 C   0  0  1  0  0  3  0  0  0  0  0  0
  179.5070  175.0430  136.8120 O   0  0  0  0  0  0  0  0  0  0  0  0
  182.1870  177.3500  135.8030 N   0  0  0  0  0  0  0  0  0  0  0  0
  181.0680  177.2900  136.4410 C   0  0  0  0  0  0  0  0  0  0  0  0
  184.0380  173.4880  136.4450 O   0  0  0  0  0  1  0  0  0  0  0  0
  183.1660  174.2490  137.2220 C   0  0  0  0  0  2  0  0  0  0  0  0
  180.2040  178.3940  136.4640 O   0  0  0  0  0  0  0  0  0  0  0  0
  180.5700  179.7690  136.6200 C   0  0  2  0  0  3  0  0  0  0  0  0
  180.4000  181.5270  135.0310 O   0  0  0  0  0  0  0  0  0  0  0  0
  180.9020  180.4560  135.3250 C   0  0  0  0  0  3  0  0  0  0  0  0
  181.5970  179.9790  137.7300 C   0  0  0  0  0  2  0  0  0  0  0  0
  180.1080  181.0470  138.9560 C   0  0  0  0  0  1  0  0  0  0  0  0
  181.3740  181.1940  138.3850 O   0  0  0  0  0  0  0  0  0  0  0  0
  1 10  2  0  0  0  0
  2 15  1  0  0  0  0
  3  7  1  0  0  0  0
  4  5  1  0  0  0  0
  5 11  1  0  0  0  0
  6  5  1  0  0  0  0
  6  2  2  0  0  0  0
  8  4  1  0  0  0  0
  9  3  2  0  0  0  0
 10  7  1  0  0  0  0
 11 12  1  1  0  0  0
 11 14  1  0  0  0  0
 12 17  2  0  0  0  0
 13  6  1  0  0  0  0
 14  9  1  0  0  0  0
 15 14  2  0  0  0  0
 16 21  1  1  0  0  0
 16  8  1  0  0  0  0
 16 13  1  0  0  0  0
 17  1  1  0  0  0  0
 17  3  1  0  0  0  0
 19 15  1  6  0  0  0
 19 18  1  0  0  0  0
 20 19  1  0  0  0  0
 20 18  1  0  0  0  0
 22 21  1  0  0  0  0
 23 25  2  0  0  0  0
 23 24  1  0  0  0  0
 25 22  1  0  0  0  0
 26 29  1  0  0  0  0
 26 24  1  0  0  0  0
 27 28  1  0  0  0  0
 27 26  1  0  0  0  0
 28 23  1  0  0  0  0
 29 38  1  1  0  0  0
 31 34  1  0  0  0  0
 33 29  1  6  0  0  0
 33 32  1  0  0  0  0
 34 33  1  0  0  0  0
 34 30  1  0  0  0  0
 34 32  1  0  0  0  0
 35 38  2  0  0  0  0
 37 36  1  0  0  0  0
 38 36  1  0  0  0  0
 39  2  1  0  0  0  0
 40 44  1  6  0  0  0
 40 43  1  0  0  0  0
 41 42  1  0  0  0  0
 41 40  1  0  0  0  0
 42 40  1  0  0  0  0
 42 43  1  0  0  0  0
 42 39  1  1  0  0  0
 44 45  1  0  0  0  0
 46 45  1  0  0  0  0
 47 46  1  0  0  0  0
 48 51  2  6  0  0  0
 48 47  1  0  0  0  0
 49 52  1  0  0  0  0
 49 50  1  0  0  0  0
 50 48  1  0  0  0  0
 50 55  1  1  0  0  0
 52 53  2  0  0  0  0
 53 56  1  0  0  0  0
 53 48  1  0  0  0  0
 54 55  1  0  0  0  0
 56 57  1  0  0  0  0
 57 59  1  6  0  0  0
 57 60  1  0  0  0  0
 58 59  2  0  0  0  0
 60 62  1  0  0  0  0
 62 61  1  0  0  0  0
M  END
>  <MODEL>
4

>  <REMARK>
 VINA RESULT:      -6.1      3.855      8.345
  Name = 
  20 active torsions:
  status: ('A' for Active; 'I' for Inactive)
    1  A    between atoms: C_4  and  C_54
    2  A    between atoms: C_4  and  O_55
    3  A    between atoms: C_4  and  C_57
    4  A    between atoms: P_5  and  O_40
    5  A    between atoms: C_6  and  N_15
    6  A    between atoms: C_8  and  O_31
    7  A    between atoms: N_15  and  C_19
    8  A    between atoms: C_19  and  C_36
    9  A    between atoms: C_24  and  C_35
   10  A    between atoms: C_24  and  C_37
   11  A    between atoms: C_26  and  C_27
   12  A    between atoms: C_26  and  N_41
   13  A    between atoms: C_26  and  C_49
   14  A    between atoms: O_30  and  C_57
   15  A    between atoms: O_31  and  C_39
   16  A    between atoms: C_32  and  C_51
   17  A    between atoms: C_35  and  C_59
   18  A    between atoms: C_36  and  O_40
   19  A    between atoms: C_45  and  C_53
   20  A    between atoms: O_55  and  C_58
                            x       y       z     vdW  Elec       q    Type
                         _______ _______ _______ _____ _____    ______ ____

>  <TORSDO>
F 20

$$$$
=
 OpenBabel10222418363D

 62 71  0  0  1  0  0  0  0  0999 V2000
  191.9840  176.1060  146.0900 C   0  0  0  0  0  3  0  0  0  0  0  0
  187.2170  178.3090  142.4510 C   0  0  0  0  0  0  0  0  0  0  0  0
  189.7810  176.8410  146.2390 C   0  0  0  0  0  0  0  0  0  0  0  0
  190.4650  176.8250  141.2560 C   0  0  0  0  0  2  0  0  0  0  0  0
  189.3820  177.2520  142.1450 N   0  0  0  0  0  0  0  0  0  0  0  0
  188.2010  177.9090  141.6110 C   0  0  0  0  0  0  0  0  0  0  0  0
  190.3010  176.8090  147.8260 S   0  0  0  0  0  0  0  0  0  0  0  0
  190.6040  177.7600  140.0650 C   0  0  0  0  0  2  0  0  0  0  0  0
  188.6410  177.3020  145.8170 N   0  0  0  0  0  0  0  0  0  0  0  0
  191.8700  176.2630  147.4760 C   0  0  0  0  0  3  0  0  0  0  0  0
  189.2910  176.6050  143.4590 C   0  0  1  0  0  3  0  0  0  0  0  0
  190.6490  176.3520  144.0850 C   0  0  0  0  0  3  0  0  0  0  0  0
  188.1710  178.3710  140.1650 C   0  0  0  0  0  2  0  0  0  0  0  0
  188.3780  177.3670  144.4000 C   0  0  0  0  0  0  0  0  0  0  0  0
  187.3520  178.0960  143.9260 C   0  0  0  0  0  0  0  0  0  0  0  0
  189.2900  177.8090  139.2910 C   0  0  2  0  0  3  0  0  0  0  0  0
  190.8050  176.4250  145.4080 C   0  0  0  0  0  0  0  0  0  0  0  0
  185.8470  177.8360  145.8480 C   0  0  0  0  0  2  0  0  0  0  0  0
  186.4800  178.8180  144.9320 C   0  0  2  0  0  3  0  0  0  0  0  0
  185.1160  178.4740  144.8270 O   0  0  0  0  0  0  0  0  0  0  0  0
  188.8720  176.4600  138.6840 C   0  0  0  0  0  2  0  0  0  0  0  0
  187.8040  176.5800  137.5960 C   0  0  0  0  0  2  0  0  0  0  0  0
  189.6250  176.3300  135.9350 C   0  0  0  0  0  0  0  0  0  0  0  0
  190.5740  175.7100  136.8680 C   0  0  0  0  0  2  0  0  0  0  0  0
  188.3910  176.7560  136.2290 C   0  0  0  0  0  3  0  0  0  0  0  0
  191.8330  175.6910  136.1340 N   0  0  0  0  0  0  0  0  0  0  0  0
  191.5200  175.7020  134.7520 N   0  0  0  0  0  2  0  0  0  0  0  0
  190.2600  176.4290  134.6150 C   0  0  0  0  0  2  0  0  0  0  0  0
  192.5830  174.4740  136.4750 C   0  0  1  0  0  3  0  0  0  0  0  0
  195.5690  174.0900  138.8530 F   0  0  0  0  0  0  0  0  0  0  0  0
  195.5030  174.4250  136.4970 F   0  0  0  0  0  0  0  0  0  0  0  0
  194.1700  175.6520  137.9170 O   0  0  0  0  0  0  0  0  0  0  0  0
  193.3710  174.4900  137.8130 C   0  0  2  0  0  3  0  0  0  0  0  0
  194.8540  174.4380  137.7180 C   0  0  0  0  0  0  0  0  0  0  0  0
  190.6870  173.0650  136.0180 O   0  0  0  0  0  0  0  0  0  0  0  0
  192.7580  172.2530  135.3030 N   0  0  0  0  0  2  0  0  0  0  0  0
  192.2130  171.0140  134.7690 C   0  0  0  0  0  1  0  0  0  0  0  0
  191.9360  173.2200  135.9640 C   0  0  0  0  0  0  0  0  0  0  0  0
  186.1000  179.0030  141.9630 O   0  0  0  0  0  0  0  0  0  0  0  0
  183.6090  178.5620  141.6790 C   0  0  2  0  0  0  0  0  0  0  0  0
  184.4690  177.4110  142.1100 C   0  0  0  0  0  2  0  0  0  0  0  0
  185.0940  178.3950  141.1610 C   0  0  2  0  0  0  0  0  0  0  0  0
  184.2380  179.5600  140.7590 C   0  0  0  0  0  2  0  0  0  0  0  0
  182.4880  177.9850  140.9100 N   0  0  0  0  0  2  0  0  0  0  0  0
  181.1400  178.3930  141.3230 C   0  0  0  0  0  2  0  0  0  0  0  0
  180.2550  178.5290  140.0980 C   0  0  0  0  0  2  0  0  0  0  0  0
  180.2150  177.3180  139.4070 O   0  0  0  0  0  0  0  0  0  0  0  0
  180.2020  177.7160  137.7520 P   0  0  1  0  0  0  0  0  0  0  0  0
  182.4700  178.3830  136.7500 O   0  0  0  0  0  0  0  0  0  0  0  0
  181.6940  177.1980  136.8570 C   0  0  1  0  0  3  0  0  0  0  0  0
  178.9310  177.2960  137.0410 O   0  0  0  0  0  0  0  0  0  0  0  0
  181.8210  179.5700  137.0190 N   0  0  0  0  0  0  0  0  0  0  0  0
  180.6300  179.4260  137.4920 C   0  0  0  0  0  0  0  0  0  0  0  0
  183.6460  176.6740  138.1040 O   0  0  0  0  0  1  0  0  0  0  0  0
  182.4690  176.1290  137.5920 C   0  0  0  0  0  2  0  0  0  0  0  0
  179.8230  180.5450  137.7350 O   0  0  0  0  0  0  0  0  0  0  0  0
  179.7380  181.7330  136.9410 C   0  0  2  0  0  3  0  0  0  0  0  0
  179.7740  183.9710  137.7350 O   0  0  0  0  0  0  0  0  0  0  0  0
  179.1720  182.9130  137.6780 C   0  0  0  0  0  3  0  0  0  0  0  0
  179.1090  181.4790  135.5730 C   0  0  0  0  0  2  0  0  0  0  0  0
  180.9480  182.5490  134.9920 C   0  0  0  0  0  1  0  0  0  0  0  0
  179.6120  182.3750  134.6250 O   0  0  0  0  0  0  0  0  0  0  0  0
  1 10  2  0  0  0  0
  2 15  1  0  0  0  0
  3  7  1  0  0  0  0
  4  5  1  0  0  0  0
  5 11  1  0  0  0  0
  6  5  1  0  0  0  0
  6  2  2  0  0  0  0
  8  4  1  0  0  0  0
  9  3  2  0  0  0  0
 10  7  1  0  0  0  0
 11 12  1  1  0  0  0
 11 14  1  0  0  0  0
 12 17  2  0  0  0  0
 13  6  1  0  0  0  0
 14  9  1  0  0  0  0
 15 14  2  0  0  0  0
 16 21  1  1  0  0  0
 16  8  1  0  0  0  0
 16 13  1  0  0  0  0
 17  1  1  0  0  0  0
 17  3  1  0  0  0  0
 19 15  1  6  0  0  0
 19 18  1  0  0  0  0
 20 19  1  0  0  0  0
 20 18  1  0  0  0  0
 22 21  1  0  0  0  0
 23 25  2  0  0  0  0
 23 24  1  0  0  0  0
 25 22  1  0  0  0  0
 26 29  1  0  0  0  0
 26 24  1  0  0  0  0
 27 26  1  0  0  0  0
 28 27  1  0  0  0  0
 28 23  1  0  0  0  0
 29 38  1  1  0  0  0
 31 34  1  0  0  0  0
 33 29  1  6  0  0  0
 33 32  1  0  0  0  0
 34 33  1  0  0  0  0
 34 32  1  0  0  0  0
 34 30  1  0  0  0  0
 36 38  1  0  0  0  0
 37 36  1  0  0  0  0
 38 35  2  0  0  0  0
 39  2  1  0  0  0  0
 40 44  1  6  0  0  0
 40 41  1  0  0  0  0
 42 40  1  0  0  0  0
 42 39  1  1  0  0  0
 42 41  1  0  0  0  0
 43 42  1  0  0  0  0
 43 40  1  0  0  0  0
 44 45  1  0  0  0  0
 46 45  1  0  0  0  0
 47 46  1  0  0  0  0
 48 51  2  6  0  0  0
 48 47  1  0  0  0  0
 49 50  1  0  0  0  0
 49 52  1  0  0  0  0
 50 55  1  1  0  0  0
 50 48  1  0  0  0  0
 52 53  2  0  0  0  0
 53 56  1  0  0  0  0
 53 48  1  0  0  0  0
 55 54  1  0  0  0  0
 57 60  1  6  0  0  0
 57 59  1  0  0  0  0
 57 56  1  0  0  0  0
 59 58  2  0  0  0  0
 62 61  1  0  0  0  0
 62 60  1  0  0  0  0
M  END
>  <MODEL>
5

>  <REMARK>
 VINA RESULT:      -6.0      3.806      8.305
  Name = 
  20 active torsions:
  status: ('A' for Active; 'I' for Inactive)
    1  A    between atoms: C_4  and  C_54
    2  A    between atoms: C_4  and  O_55
    3  A    between atoms: C_4  and  C_57
    4  A    between atoms: P_5  and  O_40
    5  A    between atoms: C_6  and  N_15
    6  A    between atoms: C_8  and  O_31
    7  A    between atoms: N_15  and  C_19
    8  A    between atoms: C_19  and  C_36
    9  A    between atoms: C_24  and  C_35
   10  A    between atoms: C_24  and  C_37
   11  A    between atoms: C_26  and  C_27
   12  A    between atoms: C_26  and  N_41
   13  A    between atoms: C_26  and  C_49
   14  A    between atoms: O_30  and  C_57
   15  A    between atoms: O_31  and  C_39
   16  A    between atoms: C_32  and  C_51
   17  A    between atoms: C_35  and  C_59
   18  A    between atoms: C_36  and  O_40
   19  A    between atoms: C_45  and  C_53
   20  A    between atoms: O_55  and  C_58
                            x       y       z     vdW  Elec       q    Type
                         _______ _______ _______ _____ _____    ______ ____

>  <TORSDO>
F 20

$$$$
=
 OpenBabel10222418363D

 62 71  0  0  1  0  0  0  0  0999 V2000
  190.2370  178.1290  147.4060 C   0  0  0  0  0  3  0  0  0  0  0  0
  185.7330  177.7650  142.8900 C   0  0  0  0  0  0  0  0  0  0  0  0
  187.9540  177.7520  147.1490 C   0  0  0  0  0  0  0  0  0  0  0  0
  189.4550  177.9470  142.3530 C   0  0  0  0  0  2  0  0  0  0  0  0
  188.1560  177.8380  143.0210 N   0  0  0  0  0  0  0  0  0  0  0  0
  186.9230  177.8540  142.2510 C   0  0  0  0  0  0  0  0  0  0  0  0
  188.1370  178.0020  148.7910 S   0  0  0  0  0  0  0  0  0  0  0  0
  189.3630  178.8120  141.1050 C   0  0  0  0  0  2  0  0  0  0  0  0
  186.8270  177.6170  146.5160 N   0  0  0  0  0  0  0  0  0  0  0  0
  189.8160  178.2450  148.7360 C   0  0  0  0  0  3  0  0  0  0  0  0
  188.1360  177.2530  144.3660 C   0  0  1  0  0  3  0  0  0  0  0  0
  189.3220  177.6770  145.2110 C   0  0  0  0  0  3  0  0  0  0  0  0
  186.9470  178.2160  140.7780 C   0  0  0  0  0  2  0  0  0  0  0  0
  186.8230  177.5200  145.0770 C   0  0  0  0  0  0  0  0  0  0  0  0
  185.6810  177.6740  144.3830 C   0  0  0  0  0  0  0  0  0  0  0  0
  188.3350  178.2230  140.1430 C   0  0  2  0  0  3  0  0  0  0  0  0
  189.1860  177.8440  146.5270 C   0  0  0  0  0  0  0  0  0  0  0  0
  183.9010  179.2890  144.8780 C   0  0  0  0  0  2  0  0  0  0  0  0
  184.4110  177.9260  145.1680 C   0  0  2  0  0  3  0  0  0  0  0  0
  184.5360  178.9800  146.0960 O   0  0  0  0  0  0  0  0  0  0  0  0
  188.6970  176.8220  139.6230 C   0  0  0  0  0  2  0  0  0  0  0  0
  189.6650  176.8360  138.4400 C   0  0  0  0  0  2  0  0  0  0  0  0
  192.0980  176.3800  138.5010 C   0  0  0  0  0  0  0  0  0  0  0  0
  192.0180  175.1170  137.7580 C   0  0  0  0  0  2  0  0  0  0  0  0
  191.0690  177.1610  138.8490 C   0  0  0  0  0  3  0  0  0  0  0  0
  193.3520  174.5440  137.8850 N   0  0  0  0  0  0  0  0  0  0  0  0
  194.2540  175.6130  138.1130 N   0  0  0  0  0  2  0  0  0  0  0  0
  193.5060  176.6450  138.8260 C   0  0  0  0  0  2  0  0  0  0  0  0
  193.7050  173.8390  136.6450 C   0  0  1  0  0  3  0  0  0  0  0  0
  190.4690  172.1730  135.4320 F   0  0  0  0  0  0  0  0  0  0  0  0
  191.2000  174.4320  135.2660 F   0  0  0  0  0  0  0  0  0  0  0  0
  192.6140  172.6800  134.7880 O   0  0  0  0  0  0  0  0  0  0  0  0
  192.7530  172.6970  136.1950 C   0  0  2  0  0  3  0  0  0  0  0  0
  191.4900  173.1040  135.5220 C   0  0  0  0  0  0  0  0  0  0  0  0
  193.7460  175.4030  134.8170 O   0  0  0  0  0  0  0  0  0  0  0  0
  195.8230  174.8470  135.7310 N   0  0  0  0  0  2  0  0  0  0  0  0
  196.5770  175.6830  134.8090 C   0  0  0  0  0  1  0  0  0  0  0  0
  194.4010  174.7160  135.6450 C   0  0  0  0  0  0  0  0  0  0  0  0
  184.5300  177.8460  142.1720 O   0  0  0  0  0  0  0  0  0  0  0  0
  183.3190  178.9830  140.2420 C   0  0  2  0  0  0  0  0  0  0  0  0
  184.7870  179.2570  140.3940 C   0  0  0  0  0  2  0  0  0  0  0  0
  184.0060  179.0680  141.6650 C   0  0  2  0  0  0  0  0  0  0  0  0
  182.5450  178.7630  141.5040 C   0  0  0  0  0  2  0  0  0  0  0  0
  182.7260  180.1910  139.6340 N   0  0  0  0  0  2  0  0  0  0  0  0
  181.8680  179.9730  138.4640 C   0  0  0  0  0  2  0  0  0  0  0  0
  182.1570  178.6070  137.8710 C   0  0  0  0  0  2  0  0  0  0  0  0
  180.9620  177.9930  137.4950 O   0  0  0  0  0  0  0  0  0  0  0  0
  181.3600  176.3870  137.0940 P   0  0  1  0  0  0  0  0  0  0  0  0
  181.9440  174.8580  139.0720 O   0  0  0  0  0  0  0  0  0  0  0  0
  180.7880  175.1610  138.3050 C   0  0  1  0  0  3  0  0  0  0  0  0
  180.9860  176.0100  135.6750 O   0  0  0  0  0  0  0  0  0  0  0  0
  183.1540  175.2650  138.5510 N   0  0  0  0  0  0  0  0  0  0  0  0
  183.0530  176.0150  137.5060 C   0  0  0  0  0  0  0  0  0  0  0  0
  179.3570  174.7360  140.1520 O   0  0  0  0  0  1  0  0  0  0  0  0
  179.6920  175.6960  139.1970 C   0  0  0  0  0  2  0  0  0  0  0  0
  184.2020  176.4370  136.8220 O   0  0  0  0  0  0  0  0  0  0  0  0
  184.9070  175.7210  135.8040 C   0  0  2  0  0  3  0  0  0  0  0  0
  186.0660  173.9920  136.9500 O   0  0  0  0  0  0  0  0  0  0  0  0
  185.1880  174.2880  136.1580 C   0  0  0  0  0  3  0  0  0  0  0  0
  186.1150  176.4910  135.2760 C   0  0  0  0  0  2  0  0  0  0  0  0
  187.1360  178.3490  135.8810 C   0  0  0  0  0  1  0  0  0  0  0  0
  186.8350  177.0620  136.3290 O   0  0  0  0  0  0  0  0  0  0  0  0
  1 10  2  0  0  0  0
  2 15  1  0  0  0  0
  3  7  1  0  0  0  0
  4  5  1  0  0  0  0
  5 11  1  0  0  0  0
  6  2  2  0  0  0  0
  6  5  1  0  0  0  0
  8  4  1  0  0  0  0
  9  3  2  0  0  0  0
 10  7  1  0  0  0  0
 11 14  1  0  0  0  0
 11 12  1  1  0  0  0
 12 17  2  0  0  0  0
 13  6  1  0  0  0  0
 14  9  1  0  0  0  0
 15 14  2  0  0  0  0
 16 21  1  1  0  0  0
 16 13  1  0  0  0  0
 16  8  1  0  0  0  0
 17  3  1  0  0  0  0
 17  1  1  0  0  0  0
 18 19  1  0  0  0  0
 18 20  1  0  0  0  0
 19 15  1  6  0  0  0
 19 20  1  0  0  0  0
 22 25  1  0  0  0  0
 22 21  1  0  0  0  0
 23 28  1  0  0  0  0
 23 25  2  0  0  0  0
 24 26  1  0  0  0  0
 24 23  1  0  0  0  0
 26 27  1  0  0  0  0
 27 28  1  0  0  0  0
 29 38  1  6  0  0  0
 29 26  1  0  0  0  0
 30 34  1  0  0  0  0
 31 34  1  0  0  0  0
 32 34  1  0  0  0  0
 32 33  1  0  0  0  0
 33 29  1  6  0  0  0
 34 33  1  0  0  0  0
 35 38  2  0  0  0  0
 37 36  1  0  0  0  0
 38 36  1  0  0  0  0
 39  2  1  0  0  0  0
 40 44  1  1  0  0  0
 40 41  1  0  0  0  0
 40 43  1  0  0  0  0
 40 42  1  0  0  0  0
 41 42  1  0  0  0  0
 42 39  1  6  0  0  0
 43 42  1  0  0  0  0
 45 44  1  0  0  0  0
 46 45  1  0  0  0  0
 47 46  1  0  0  0  0
 48 51  2  6  0  0  0
 48 47  1  0  0  0  0
 48 53  1  0  0  0  0
 48 50  1  0  0  0  0
 50 49  1  0  0  0  0
 50 55  1  1  0  0  0
 52 49  1  0  0  0  0
 53 52  2  0  0  0  0
 55 54  1  0  0  0  0
 56 53  1  0  0  0  0
 57 60  1  1  0  0  0
 57 59  1  0  0  0  0
 57 56  1  0  0  0  0
 59 58  2  0  0  0  0
 60 62  1  0  0  0  0
 61 62  1  0  0  0  0
M  END
>  <MODEL>
6

>  <REMARK>
 VINA RESULT:      -5.4      3.895      8.969
  Name = 
  20 active torsions:
  status: ('A' for Active; 'I' for Inactive)
    1  A    between atoms: C_4  and  C_54
    2  A    between atoms: C_4  and  O_55
    3  A    between atoms: C_4  and  C_57
    4  A    between atoms: P_5  and  O_40
    5  A    between atoms: C_6  and  N_15
    6  A    between atoms: C_8  and  O_31
    7  A    between atoms: N_15  and  C_19
    8  A    between atoms: C_19  and  C_36
    9  A    between atoms: C_24  and  C_35
   10  A    between atoms: C_24  and  C_37
   11  A    between atoms: C_26  and  C_27
   12  A    between atoms: C_26  and  N_41
   13  A    between atoms: C_26  and  C_49
   14  A    between atoms: O_30  and  C_57
   15  A    between atoms: O_31  and  C_39
   16  A    between atoms: C_32  and  C_51
   17  A    between atoms: C_35  and  C_59
   18  A    between atoms: C_36  and  O_40
   19  A    between atoms: C_45  and  C_53
   20  A    between atoms: O_55  and  C_58
                            x       y       z     vdW  Elec       q    Type
                         _______ _______ _______ _____ _____    ______ ____

>  <TORSDO>
F 20

$$$$
=
 OpenBabel10222418363D

 62 71  0  0  1  0  0  0  0  0999 V2000
  190.1210  177.2150  148.4630 C   0  0  0  0  0  3  0  0  0  0  0  0
  187.7930  177.4190  142.5170 C   0  0  0  0  0  0  0  0  0  0  0  0
  190.8010  177.0470  146.2430 C   0  0  0  0  0  0  0  0  0  0  0  0
  185.9670  178.3150  145.6850 C   0  0  0  0  0  2  0  0  0  0  0  0
  187.0450  177.9380  144.7670 N   0  0  0  0  0  0  0  0  0  0  0  0
  186.7860  177.7810  143.3460 C   0  0  0  0  0  0  0  0  0  0  0  0
  192.1180  176.4920  147.1100 S   0  0  0  0  0  0  0  0  0  0  0  0
  184.6290  177.7560  145.2250 C   0  0  0  0  0  2  0  0  0  0  0  0
  190.6740  177.0280  144.9500 N   0  0  0  0  0  2  0  0  0  0  0  0
  191.4110  176.7020  148.6390 C   0  0  0  0  0  3  0  0  0  0  0  0
  188.4230  178.1840  145.2070 C   0  0  0  0  0  0  0  0  0  0  0  0
  188.6290  177.8970  146.6820 C   0  0  0  0  0  3  0  0  0  0  0  0
  185.3610  177.7750  142.8240 C   0  0  0  0  0  2  0  0  0  0  0  0
  189.4290  177.4390  144.3500 C   0  0  0  0  0  0  0  0  0  0  0  0
  189.1630  177.1590  143.0610 C   0  0  0  0  0  0  0  0  0  0  0  0
  184.3120  178.2640  143.8210 C   0  0  2  0  0  3  0  0  0  0  0  0
  189.7930  177.4120  147.1180 C   0  0  0  0  0  0  0  0  0  0  0  0
  191.5450  177.0670  142.4780 C   0  0  0  0  0  2  0  0  0  0  0  0
  190.2240  176.4240  142.2700 C   0  0  2  0  0  3  0  0  0  0  0  0
  190.8270  177.2250  141.2780 O   0  0  0  0  0  0  0  0  0  0  0  0
  184.1520  179.7890  143.7290 C   0  0  0  0  0  2  0  0  0  0  0  0
  182.7630  180.2360  143.2720 C   0  0  0  0  0  2  0  0  0  0  0  0
  180.8680  178.7230  142.7710 C   0  0  0  0  0  0  0  0  0  0  0  0
  180.8490  179.0010  141.3300 C   0  0  0  0  0  2  0  0  0  0  0  0
  181.6870  179.2730  143.6730 C   0  0  0  0  0  3  0  0  0  0  0  0
  179.6220  178.3710  140.8610 N   0  0  0  0  0  0  0  0  0  0  0  0
  179.3050  177.3310  141.7680 N   0  0  0  0  0  2  0  0  0  0  0  0
  179.8150  177.7450  143.0730 C   0  0  0  0  0  2  0  0  0  0  0  0
  179.8330  177.8230  139.5140 C   0  0  1  0  0  3  0  0  0  0  0  0
  179.0120  174.3590  138.0840 F   0  0  0  0  0  0  0  0  0  0  0  0
  181.0720  175.2590  138.8680 F   0  0  0  0  0  0  0  0  0  0  0  0
  179.1160  175.5460  140.0480 O   0  0  0  0  0  0  0  0  0  0  0  0
  178.9670  176.5980  139.1140 C   0  0  2  0  0  3  0  0  0  0  0  0
  179.6940  175.3440  138.7800 C   0  0  0  0  0  0  0  0  0  0  0  0
  181.0710  178.6170  137.6090 O   0  0  0  0  0  0  0  0  0  0  0  0
  179.5220  180.1140  138.5160 N   0  0  0  0  0  2  0  0  0  0  0  0
  179.8280  181.1770  137.5710 C   0  0  0  0  0  1  0  0  0  0  0  0
  180.2230  178.8660  138.5080 C   0  0  0  0  0  0  0  0  0  0  0  0
  187.5500  177.1970  141.1530 O   0  0  0  0  0  0  0  0  0  0  0  0
  187.7960  177.8060  138.6930 C   0  0  2  0  0  0  0  0  0  0  0  0
  188.9100  178.2020  139.6160 C   0  0  0  0  0  2  0  0  0  0  0  0
  187.5200  178.2430  140.1870 C   0  0  2  0  0  0  0  0  0  0  0  0
  186.4140  177.8150  139.2670 C   0  0  0  0  0  2  0  0  0  0  0  0
  187.7680  178.8100  137.6100 N   0  0  0  0  0  2  0  0  0  0  0  0
  188.2310  178.3580  136.2940 C   0  0  0  0  0  2  0  0  0  0  0  0
  188.8240  176.9670  136.4160 C   0  0  0  0  0  2  0  0  0  0  0  0
  189.3580  176.5720  135.1890 O   0  0  0  0  0  0  0  0  0  0  0  0
  190.4410  175.3040  135.5290 P   0  0  1  0  0  0  0  0  0  0  0  0
  189.5540  173.4760  137.1000 O   0  0  0  0  0  0  0  0  0  0  0  0
  189.6450  173.6800  135.6970 C   0  0  1  0  0  3  0  0  0  0  0  0
  191.6350  175.2640  134.5970 O   0  0  0  0  0  0  0  0  0  0  0  0
  190.3140  174.3090  137.8940 N   0  0  0  0  0  0  0  0  0  0  0  0
  190.8840  175.2730  137.2550 C   0  0  0  0  0  0  0  0  0  0  0  0
  187.4440  172.7970  135.8120 O   0  0  0  0  0  1  0  0  0  0  0  0
  188.2700  173.6420  135.0720 C   0  0  0  0  0  2  0  0  0  0  0  0
  191.7520  176.1500  137.9200 O   0  0  0  0  0  0  0  0  0  0  0  0
  193.1600  175.9810  138.1160 C   0  0  2  0  0  3  0  0  0  0  0  0
  193.5960  177.8860  139.4660 O   0  0  0  0  0  0  0  0  0  0  0  0
  193.6860  176.6780  139.3390 C   0  0  0  0  0  3  0  0  0  0  0  0
  193.9640  176.2400  136.8440 C   0  0  0  0  0  2  0  0  0  0  0  0
  195.7420  175.3540  135.8880 C   0  0  0  0  0  1  0  0  0  0  0  0
  195.3210  175.9860  137.0590 O   0  0  0  0  0  0  0  0  0  0  0  0
  1 10  2  0  0  0  0
  2 15  1  0  0  0  0
  2  6  2  0  0  0  0
  3  7  1  0  0  0  0
  3 17  2  0  0  0  0
  5 11  1  0  0  0  0
  5  4  1  0  0  0  0
  6  5  1  0  0  0  0
  7 10  1  0  0  0  0
  8  4  1  0  0  0  0
  9  3  1  0  0  0  0
 11 12  2  0  0  0  0
 12 17  1  0  0  0  0
 13  6  1  0  0  0  0
 13 16  1  0  0  0  0
 14  9  1  0  0  0  0
 14 11  1  0  0  0  0
 15 14  2  0  0  0  0
 16 21  1  1  0  0  0
 16  8  1  0  0  0  0
 17  1  1  0  0  0  0
 19 18  1  0  0  0  0
 19 15  1  1  0  0  0
 20 19  1  0  0  0  0
 20 18  1  0  0  0  0
 22 25  1  0  0  0  0
 22 21  1  0  0  0  0
 23 28  1  0  0  0  0
 23 25  2  0  0  0  0
 24 23  1  0  0  0  0
 26 24  1  0  0  0  0
 26 27  1  0  0  0  0
 27 28  1  0  0  0  0
 29 38  1  6  0  0  0
 29 26  1  0  0  0  0
 30 34  1  0  0  0  0
 33 29  1  1  0  0  0
 33 32  1  0  0  0  0
 34 31  1  0  0  0  0
 34 33  1  0  0  0  0
 34 32  1  0  0  0  0
 35 38  2  0  0  0  0
 37 36  1  0  0  0  0
 38 36  1  0  0  0  0
 39  2  1  0  0  0  0
 40 44  1  6  0  0  0
 40 43  1  0  0  0  0
 40 41  1  0  0  0  0
 40 42  1  0  0  0  0
 41 42  1  0  0  0  0
 42 39  1  1  0  0  0
 43 42  1  0  0  0  0
 45 46  1  0  0  0  0
 45 44  1  0  0  0  0
 47 48  1  0  0  0  0
 47 46  1  0  0  0  0
 48 51  2  6  0  0  0
 48 50  1  0  0  0  0
 48 53  1  0  0  0  0
 49 52  1  0  0  0  0
 50 55  1  1  0  0  0
 50 49  1  0  0  0  0
 53 52  2  0  0  0  0
 53 56  1  0  0  0  0
 55 54  1  0  0  0  0
 56 57  1  0  0  0  0
 57 60  1  6  0  0  0
 57 59  1  0  0  0  0
 59 58  2  0  0  0  0
 60 62  1  0  0  0  0
 61 62  1  0  0  0  0
M  END
>  <MODEL>
7

>  <REMARK>
 VINA RESULT:      -5.2      3.951      9.627
  Name = 
  20 active torsions:
  status: ('A' for Active; 'I' for Inactive)
    1  A    between atoms: C_4  and  C_54
    2  A    between atoms: C_4  and  O_55
    3  A    between atoms: C_4  and  C_57
    4  A    between atoms: P_5  and  O_40
    5  A    between atoms: C_6  and  N_15
    6  A    between atoms: C_8  and  O_31
    7  A    between atoms: N_15  and  C_19
    8  A    between atoms: C_19  and  C_36
    9  A    between atoms: C_24  and  C_35
   10  A    between atoms: C_24  and  C_37
   11  A    between atoms: C_26  and  C_27
   12  A    between atoms: C_26  and  N_41
   13  A    between atoms: C_26  and  C_49
   14  A    between atoms: O_30  and  C_57
   15  A    between atoms: O_31  and  C_39
   16  A    between atoms: C_32  and  C_51
   17  A    between atoms: C_35  and  C_59
   18  A    between atoms: C_36  and  O_40
   19  A    between atoms: C_45  and  C_53
   20  A    between atoms: O_55  and  C_58
                            x       y       z     vdW  Elec       q    Type
                         _______ _______ _______ _____ _____    ______ ____

>  <TORSDO>
F 20

$$$$
=
 OpenBabel10222418363D

 62 71  0  0  1  0  0  0  0  0999 V2000
  189.9840  176.4920  147.4600 C   0  0  0  0  0  3  0  0  0  0  0  0
  187.7950  178.3250  141.7440 C   0  0  0  0  0  0  0  0  0  0  0  0
  190.7350  177.1480  145.3560 C   0  0  0  0  0  0  0  0  0  0  0  0
  185.7820  177.8930  144.8960 C   0  0  0  0  0  2  0  0  0  0  0  0
  186.9250  177.9790  143.9840 N   0  0  0  0  0  0  0  0  0  0  0  0
  186.7260  178.2630  142.5720 C   0  0  0  0  0  0  0  0  0  0  0  0
  192.0970  176.5150  146.0890 S   0  0  0  0  0  0  0  0  0  0  0  0
  184.5510  177.3470  144.1900 C   0  0  0  0  0  2  0  0  0  0  0  0
  190.6420  177.5370  144.1190 N   0  0  0  0  0  2  0  0  0  0  0  0
  191.3310  176.1210  147.5510 C   0  0  0  0  0  3  0  0  0  0  0  0
  188.2420  178.2430  144.5740 C   0  0  0  0  0  0  0  0  0  0  0  0
  188.4530  177.5200  145.8910 C   0  0  0  0  0  3  0  0  0  0  0  0
  185.3300  178.2430  141.9780 C   0  0  0  0  0  2  0  0  0  0  0  0
  189.3660  177.9570  143.5960 C   0  0  0  0  0  0  0  0  0  0  0  0
  189.1750  178.0810  142.2710 C   0  0  0  0  0  0  0  0  0  0  0  0
  184.1980  178.2400  143.0040 C   0  0  2  0  0  3  0  0  0  0  0  0
  189.6640  177.0740  146.2280 C   0  0  0  0  0  0  0  0  0  0  0  0
  190.3310  176.3600  140.9560 C   0  0  0  0  0  2  0  0  0  0  0  0
  190.3500  177.7880  141.3620 C   0  0  2  0  0  3  0  0  0  0  0  0
  191.2480  176.8470  141.9070 O   0  0  0  0  0  0  0  0  0  0  0  0
  183.8210  179.6770  143.3940 C   0  0  0  0  0  2  0  0  0  0  0  0
  182.3190  179.9580  143.3280 C   0  0  0  0  0  2  0  0  0  0  0  0
  181.0070  178.6320  141.6990 C   0  0  0  0  0  0  0  0  0  0  0  0
  181.0780  179.6300  140.6250 C   0  0  0  0  0  2  0  0  0  0  0  0
  181.5240  178.7540  142.9270 C   0  0  0  0  0  3  0  0  0  0  0  0
  180.1450  179.1370  139.6190 N   0  0  0  0  0  0  0  0  0  0  0  0
  180.0350  177.7360  139.7930 N   0  0  0  0  0  2  0  0  0  0  0  0
  180.2500  177.4720  141.2130 C   0  0  0  0  0  2  0  0  0  0  0  0
  180.6590  179.4440  138.2780 C   0  0  1  0  0  3  0  0  0  0  0  0
  180.2850  183.2210  137.7200 F   0  0  0  0  0  0  0  0  0  0  0  0
  181.9960  181.9830  138.8170 F   0  0  0  0  0  0  0  0  0  0  0  0
  181.1550  181.3140  136.7810 O   0  0  0  0  0  0  0  0  0  0  0  0
  180.1620  180.7620  137.6230 C   0  0  2  0  0  3  0  0  0  0  0  0
  180.8950  182.0060  137.9800 C   0  0  0  0  0  0  0  0  0  0  0  0
  183.0420  179.4770  138.6120 O   0  0  0  0  0  0  0  0  0  0  0  0
  182.2220  177.7450  137.2740 N   0  0  0  0  0  2  0  0  0  0  0  0
  183.5360  177.1770  137.0110 C   0  0  0  0  0  1  0  0  0  0  0  0
  182.0530  178.9360  138.0500 C   0  0  0  0  0  0  0  0  0  0  0  0
  187.6200  178.5320  140.3670 O   0  0  0  0  0  0  0  0  0  0  0  0
  188.0610  178.2350  137.8770 C   0  0  2  0  0  0  0  0  0  0  0  0
  187.5500  177.0450  138.6340 C   0  0  0  0  0  2  0  0  0  0  0  0
  188.4750  177.9660  139.3800 C   0  0  2  0  0  0  0  0  0  0  0  0
  188.9560  179.1710  138.6260 C   0  0  0  0  0  2  0  0  0  0  0  0
  188.8920  177.7090  136.7750 N   0  0  0  0  0  2  0  0  0  0  0  0
  189.6020  176.4530  137.0410 C   0  0  0  0  0  2  0  0  0  0  0  0
  191.0940  176.7200  137.1060 C   0  0  0  0  0  2  0  0  0  0  0  0
  191.7390  175.6470  137.7210 O   0  0  0  0  0  0  0  0  0  0  0  0
  193.0740  175.2670  136.7350 P   0  0  1  0  0  0  0  0  0  0  0  0
  193.4810  172.7640  136.3290 O   0  0  0  0  0  0  0  0  0  0  0  0
  192.8110  173.8250  135.6630 C   0  0  1  0  0  3  0  0  0  0  0  0
  193.6170  176.4580  135.9710 O   0  0  0  0  0  0  0  0  0  0  0  0
  194.3540  173.1220  137.3350 N   0  0  0  0  0  0  0  0  0  0  0  0
  194.3200  174.3740  137.6420 C   0  0  0  0  0  0  0  0  0  0  0  0
  190.8050  173.1110  136.7130 O   0  0  0  0  0  1  0  0  0  0  0  0
  191.3470  173.4920  135.4870 C   0  0  0  0  0  2  0  0  0  0  0  0
  195.2100  174.8960  138.5910 O   0  0  0  0  0  0  0  0  0  0  0  0
  196.4650  174.3350  138.9910 C   0  0  2  0  0  3  0  0  0  0  0  0
  196.7390  176.1130  140.5420 O   0  0  0  0  0  0  0  0  0  0  0  0
  197.0530  174.9830  140.2120 C   0  0  0  0  0  3  0  0  0  0  0  0
  197.4380  174.1830  137.8240 C   0  0  0  0  0  2  0  0  0  0  0  0
  197.9340  175.4850  136.1150 C   0  0  0  0  0  1  0  0  0  0  0  0
  198.0220  175.4120  137.5060 O   0  0  0  0  0  0  0  0  0  0  0  0
  1 10  2  0  0  0  0
  2 15  1  0  0  0  0
  2  6  2  0  0  0  0
  3  7  1  0  0  0  0
  3 17  2  0  0  0  0
  5 11  1  0  0  0  0
  5  4  1  0  0  0  0
  6  5  1  0  0  0  0
  7 10  1  0  0  0  0
  8  4  1  0  0  0  0
  9  3  1  0  0  0  0
 11 12  2  0  0  0  0
 12 17  1  0  0  0  0
 13  6  1  0  0  0  0
 13 16  1  0  0  0  0
 14  9  1  0  0  0  0
 14 11  1  0  0  0  0
 15 14  2  0  0  0  0
 16 21  1  1  0  0  0
 16  8  1  0  0  0  0
 17  1  1  0  0  0  0
 18 19  1  0  0  0  0
 18 20  1  0  0  0  0
 19 20  1  0  0  0  0
 19 15  1  1  0  0  0
 22 21  1  0  0  0  0
 23 25  2  0  0  0  0
 24 23  1  0  0  0  0
 25 22  1  0  0  0  0
 26 27  1  0  0  0  0
 26 24  1  0  0  0  0
 27 28  1  0  0  0  0
 28 23  1  0  0  0  0
 29 38  1  1  0  0  0
 29 26  1  0  0  0  0
 30 34  1  0  0  0  0
 32 33  1  0  0  0  0
 32 34  1  0  0  0  0
 33 34  1  0  0  0  0
 33 29  1  1  0  0  0
 34 31  1  0  0  0  0
 36 38  1  0  0  0  0
 37 36  1  0  0  0  0
 38 35  2  0  0  0  0
 39  2  1  0  0  0  0
 40 44  1  6  0  0  0
 40 43  1  0  0  0  0
 40 41  1  0  0  0  0
 40 42  1  0  0  0  0
 41 42  1  0  0  0  0
 42 39  1  1  0  0  0
 43 42  1  0  0  0  0
 44 45  1  0  0  0  0
 45 46  1  0  0  0  0
 46 47  1  0  0  0  0
 48 51  2  6  0  0  0
 48 53  1  0  0  0  0
 48 47  1  0  0  0  0
 49 52  1  0  0  0  0
 50 55  1  1  0  0  0
 50 49  1  0  0  0  0
 50 48  1  0  0  0  0
 52 53  2  0  0  0  0
 53 56  1  0  0  0  0
 55 54  1  0  0  0  0
 56 57  1  0  0  0  0
 57 60  1  6  0  0  0
 57 59  1  0  0  0  0
 59 58  2  0  0  0  0
 61 62  1  0  0  0  0
 62 60  1  0  0  0  0
M  END
>  <MODEL>
8

>  <REMARK>
 VINA RESULT:      -5.1      3.885     10.292
  Name = 
  20 active torsions:
  status: ('A' for Active; 'I' for Inactive)
    1  A    between atoms: C_4  and  C_54
    2  A    between atoms: C_4  and  O_55
    3  A    between atoms: C_4  and  C_57
    4  A    between atoms: P_5  and  O_40
    5  A    between atoms: C_6  and  N_15
    6  A    between atoms: C_8  and  O_31
    7  A    between atoms: N_15  and  C_19
    8  A    between atoms: C_19  and  C_36
    9  A    between atoms: C_24  and  C_35
   10  A    between atoms: C_24  and  C_37
   11  A    between atoms: C_26  and  C_27
   12  A    between atoms: C_26  and  N_41
   13  A    between atoms: C_26  and  C_49
   14  A    between atoms: O_30  and  C_57
   15  A    between atoms: O_31  and  C_39
   16  A    between atoms: C_32  and  C_51
   17  A    between atoms: C_35  and  C_59
   18  A    between atoms: C_36  and  O_40
   19  A    between atoms: C_45  and  C_53
   20  A    between atoms: O_55  and  C_58
                            x       y       z     vdW  Elec       q    Type
                         _______ _______ _______ _____ _____    ______ ____

>  <TORSDO>
F 20

$$$$
=
 OpenBabel10222418363D

 62 71  0  0  1  0  0  0  0  0999 V2000
  192.6470  175.6440  146.4450 C   0  0  0  0  0  3  0  0  0  0  0  0
  187.7930  178.1180  143.1090 C   0  0  0  0  0  0  0  0  0  0  0  0
  190.4750  176.4350  146.7210 C   0  0  0  0  0  0  0  0  0  0  0  0
  190.9390  176.5900  141.7150 C   0  0  0  0  0  2  0  0  0  0  0  0
  189.9090  177.0140  142.6670 N   0  0  0  0  0  0  0  0  0  0  0  0
  188.7260  177.7240  142.2110 C   0  0  0  0  0  0  0  0  0  0  0  0
  191.0640  176.3280  148.2810 S   0  0  0  0  0  0  0  0  0  0  0  0
  191.0530  177.5670  140.5540 C   0  0  0  0  0  2  0  0  0  0  0  0
  189.3330  176.9440  146.3680 N   0  0  0  0  0  0  0  0  0  0  0  0
  192.5990  175.7510  147.8400 C   0  0  0  0  0  3  0  0  0  0  0  0
  189.8570  176.3200  143.9590 C   0  0  1  0  0  3  0  0  0  0  0  0
  191.2330  176.0040  144.5130 C   0  0  0  0  0  3  0  0  0  0  0  0
  188.6470  178.2410  140.7870 C   0  0  0  0  0  2  0  0  0  0  0  0
  189.0090  177.0710  144.9680 C   0  0  0  0  0  0  0  0  0  0  0  0
  187.9860  177.8460  144.5680 C   0  0  0  0  0  0  0  0  0  0  0  0
  189.7080  177.6810  139.8420 C   0  0  2  0  0  3  0  0  0  0  0  0
  191.4490  176.0220  145.8290 C   0  0  0  0  0  0  0  0  0  0  0  0
  186.3400  177.5710  146.3680 C   0  0  0  0  0  2  0  0  0  0  0  0
  187.1810  178.5530  145.6380 C   0  0  2  0  0  3  0  0  0  0  0  0
  185.7890  178.4650  145.4300 O   0  0  0  0  0  0  0  0  0  0  0  0
  189.2240  176.3690  139.2050 C   0  0  0  0  0  2  0  0  0  0  0  0
  188.1580  176.5660  138.1270 C   0  0  0  0  0  2  0  0  0  0  0  0
  189.9580  176.6430  136.4280 C   0  0  0  0  0  0  0  0  0  0  0  0
  190.9040  175.8250  137.1960 C   0  0  0  0  0  2  0  0  0  0  0  0
  188.7360  177.0180  136.8200 C   0  0  0  0  0  3  0  0  0  0  0  0
  192.1560  175.9410  136.4590 N   0  0  0  0  0  0  0  0  0  0  0  0
  191.8310  176.2490  135.1150 N   0  0  0  0  0  2  0  0  0  0  0  0
  190.5840  177.0090  135.1500 C   0  0  0  0  0  2  0  0  0  0  0  0
  192.8860  174.6680  136.5250 C   0  0  1  0  0  3  0  0  0  0  0  0
  195.4980  173.3400  139.0030 F   0  0  0  0  0  0  0  0  0  0  0  0
  195.7470  174.1380  136.7740 F   0  0  0  0  0  0  0  0  0  0  0  0
  194.4520  175.2630  138.3080 O   0  0  0  0  0  0  0  0  0  0  0  0
  193.5110  174.2910  137.8960 C   0  0  2  0  0  3  0  0  0  0  0  0
  194.9730  174.0160  137.9130 C   0  0  0  0  0  0  0  0  0  0  0  0
  193.0220  173.1460  134.6660 O   0  0  0  0  0  0  0  0  0  0  0  0
  191.0350  173.0830  135.8940 N   0  0  0  0  0  2  0  0  0  0  0  0
  190.4230  172.0580  135.0620 C   0  0  0  0  0  1  0  0  0  0  0  0
  192.3300  173.6200  135.6060 C   0  0  0  0  0  0  0  0  0  0  0  0
  186.6760  178.8630  142.6980 O   0  0  0  0  0  0  0  0  0  0  0  0
  184.1900  178.7960  142.1540 C   0  0  2  0  0  0  0  0  0  0  0  0
  184.7940  177.5710  142.7750 C   0  0  0  0  0  2  0  0  0  0  0  0
  185.6720  178.3460  141.8320 C   0  0  2  0  0  0  0  0  0  0  0  0
  185.0710  179.5870  141.2400 C   0  0  0  0  0  2  0  0  0  0  0  0
  183.0740  178.3310  141.3060 N   0  0  0  0  0  2  0  0  0  0  0  0
  181.7350  178.7960  141.6830 C   0  0  0  0  0  2  0  0  0  0  0  0
  181.0970  179.5100  140.5060 C   0  0  0  0  0  2  0  0  0  0  0  0
  181.1720  178.7050  139.3680 O   0  0  0  0  0  0  0  0  0  0  0  0
  181.7550  179.7040  138.1190 P   0  0  1  0  0  0  0  0  0  0  0  0
  179.9720  180.6670  136.5410 O   0  0  0  0  0  0  0  0  0  0  0  0
  180.6560  181.0910  137.7120 C   0  0  1  0  0  3  0  0  0  0  0  0
  183.1890  180.1480  138.3220 O   0  0  0  0  0  0  0  0  0  0  0  0
  180.4970  179.5740  135.8830 N   0  0  0  0  0  0  0  0  0  0  0  0
  181.4530  178.9850  136.5170 C   0  0  0  0  0  0  0  0  0  0  0  0
  179.3500  182.7500  138.7990 O   0  0  0  0  0  1  0  0  0  0  0  0
  179.6690  181.3920  138.8160 C   0  0  0  0  0  2  0  0  0  0  0  0
  182.1350  177.9090  135.9320 O   0  0  0  0  0  0  0  0  0  0  0  0
  181.8720  176.5160  136.1290 C   0  0  2  0  0  3  0  0  0  0  0  0
  184.0610  175.9570  136.8630 O   0  0  0  0  0  0  0  0  0  0  0  0
  183.1110  175.6660  136.1570 C   0  0  0  0  0  3  0  0  0  0  0  0
  180.7670  175.9930  135.2150 C   0  0  0  0  0  2  0  0  0  0  0  0
  179.8820  175.6850  137.2110 C   0  0  0  0  0  1  0  0  0  0  0  0
  179.5420  175.9680  135.8870 O   0  0  0  0  0  0  0  0  0  0  0  0
  1 10  2  0  0  0  0
  2 15  1  0  0  0  0
  3  7  1  0  0  0  0
  4  5  1  0  0  0  0
  5 11  1  0  0  0  0
  6  5  1  0  0  0  0
  6  2  2  0  0  0  0
  8  4  1  0  0  0  0
  9  3  2  0  0  0  0
 10  7  1  0  0  0  0
 11 12  1  1  0  0  0
 11 14  1  0  0  0  0
 12 17  2  0  0  0  0
 13  6  1  0  0  0  0
 14  9  1  0  0  0  0
 15 14  2  0  0  0  0
 16 21  1  1  0  0  0
 16  8  1  0  0  0  0
 16 13  1  0  0  0  0
 17  1  1  0  0  0  0
 17  3  1  0  0  0  0
 19 15  1  6  0  0  0
 19 18  1  0  0  0  0
 20 19  1  0  0  0  0
 20 18  1  0  0  0  0
 22 21  1  0  0  0  0
 23 25  2  0  0  0  0
 23 24  1  0  0  0  0
 25 22  1  0  0  0  0
 26 29  1  0  0  0  0
 26 24  1  0  0  0  0
 27 28  1  0  0  0  0
 27 26  1  0  0  0  0
 28 23  1  0  0  0  0
 29 38  1  1  0  0  0
 31 34  1  0  0  0  0
 33 29  1  6  0  0  0
 33 34  1  0  0  0  0
 33 32  1  0  0  0  0
 34 32  1  0  0  0  0
 34 30  1  0  0  0  0
 35 38  2  0  0  0  0
 37 36  1  0  0  0  0
 38 36  1  0  0  0  0
 39  2  1  0  0  0  0
 40 44  1  6  0  0  0
 40 41  1  0  0  0  0
 42 40  1  0  0  0  0
 42 39  1  1  0  0  0
 42 41  1  0  0  0  0
 43 42  1  0  0  0  0
 43 40  1  0  0  0  0
 44 45  1  0  0  0  0
 46 45  1  0  0  0  0
 47 46  1  0  0  0  0
 48 51  2  1  0  0  0
 48 47  1  0  0  0  0
 49 50  1  0  0  0  0
 50 48  1  0  0  0  0
 50 55  1  1  0  0  0
 52 53  2  0  0  0  0
 52 49  1  0  0  0  0
 53 48  1  0  0  0  0
 54 55  1  0  0  0  0
 56 57  1  0  0  0  0
 56 53  1  0  0  0  0
 57 60  1  6  0  0  0
 57 59  1  0  0  0  0
 59 58  2  0  0  0  0
 60 62  1  0  0  0  0
 62 61  1  0  0  0  0
M  END
>  <MODEL>
9

>  <REMARK>
 VINA RESULT:      -5.0      3.600      8.442
  Name = 
  20 active torsions:
  status: ('A' for Active; 'I' for Inactive)
    1  A    between atoms: C_4  and  C_54
    2  A    between atoms: C_4  and  O_55
    3  A    between atoms: C_4  and  C_57
    4  A    between atoms: P_5  and  O_40
    5  A    between atoms: C_6  and  N_15
    6  A    between atoms: C_8  and  O_31
    7  A    between atoms: N_15  and  C_19
    8  A    between atoms: C_19  and  C_36
    9  A    between atoms: C_24  and  C_35
   10  A    between atoms: C_24  and  C_37
   11  A    between atoms: C_26  and  C_27
   12  A    between atoms: C_26  and  N_41
   13  A    between atoms: C_26  and  C_49
   14  A    between atoms: O_30  and  C_57
   15  A    between atoms: O_31  and  C_39
   16  A    between atoms: C_32  and  C_51
   17  A    between atoms: C_35  and  C_59
   18  A    between atoms: C_36  and  O_40
   19  A    between atoms: C_45  and  C_53
   20  A    between atoms: O_55  and  C_58
                            x       y       z     vdW  Elec       q    Type
                         _______ _______ _______ _____ _____    ______ ____

>  <TORSDO>
F 20

$$$$
