=
 OpenBabel10222417363D

 67 75  0  0  1  0  0  0  0  0999 V2000
  189.6930  177.2640  138.6680 C   0  0  1  0  0  3  0  0  0  0  0  0
  182.8660  176.7360  136.9890 N   0  0  0  0  0  0  0  0  0  0  0  0
  183.5940  178.7020  138.1360 C   0  0  0  0  0  3  0  0  0  0  0  0
  186.8330  176.1310  136.5190 C   0  0  1  0  0  3  0  0  0  0  0  0
  186.3270  177.0280  137.3350 C   0  0  1  0  0  3  0  0  0  0  0  0
  182.3120  179.2420  137.9470 C   0  0  0  0  0  3  0  0  0  0  0  0
  188.2920  175.9920  136.8000 C   0  0  1  0  0  3  0  0  0  0  0  0
  184.9660  176.6640  137.6470 C   0  0  1  0  0  3  0  0  0  0  0  0
  185.8300  175.0730  136.1230 C   0  0  0  0  0  2  0  0  0  0  0  0
  188.4230  177.0230  137.8960 C   0  0  0  0  0  0  0  0  0  0  0  0
  183.3680  175.6280  136.4610 N   0  0  0  0  0  2  0  0  0  0  0  0
  181.3160  178.5090  137.2730 C   0  0  0  0  0  0  0  0  0  0  0  0
  187.2880  177.5590  138.2280 N   0  0  0  0  0  0  0  0  0  0  0  0
  183.8160  177.4140  137.6600 C   0  0  2  0  0  3  0  0  0  0  0  0
  181.6250  177.2320  136.7670 C   0  0  0  0  0  3  0  0  0  0  0  0
  184.6470  175.5670  136.8930 C   0  0  2  0  0  3  0  0  0  0  0  0
  188.5630  174.7220  137.3160 O   0  0  0  0  0  0  0  0  0  0  0  0
  188.9690  173.9660  136.2140 C   0  0  0  0  0  1  0  0  0  0  0  0
  180.0150  179.0790  137.1050 N   0  0  0  0  0  2  0  0  0  0  0  0
  180.8280  180.2320  135.2560 O   0  0  0  0  0  1  0  0  0  0  0  0
  179.7030  180.0460  136.0610 C   0  0  2  0  0  3  0  0  0  0  0  0
  180.5440  182.5360  138.2140 C   0  0  0  0  0  2  0  0  0  0  0  0
  179.6830  181.4180  138.0390 O   0  0  0  0  0  0  0  0  0  0  0  0
  180.7590  183.1670  136.9310 N   0  0  0  0  0  0  0  0  0  0  0  0
  179.2760  181.3740  136.6800 C   0  0  1  0  0  3  0  0  0  0  0  0
  179.9520  182.4970  136.0040 C   0  0  0  0  0  0  0  0  0  0  0  0
  179.3890  183.1940  134.6330 S   0  0  0  0  0  0  0  0  0  0  0  0
  180.2200  185.5470  136.9570 C   0  0  0  0  0  1  0  0  0  0  0  0
  181.3080  184.5060  136.7640 C   0  0  0  0  0  2  0  0  0  0  0  0
  188.8670  178.2740  140.8250 N   0  0  0  0  0  2  0  0  0  0  0  0
  189.4530  177.1670  140.1430 C   0  0  0  0  0  0  0  0  0  0  0  0
  189.7510  176.1140  140.7710 O   0  0  0  0  0  0  0  0  0  0  0  0
  186.7920  177.3760  143.6880 C   0  0  0  0  0  2  0  0  0  0  0  0
  187.1480  178.3820  142.6140 C   0  0  2  0  0  0  0  0  0  0  0  0
  187.8390  177.0310  142.6490 C   0  0  1  0  0  3  0  0  0  0  0  0
  188.6310  178.2650  142.2640 C   0  0  1  0  0  3  0  0  0  0  0  0
  186.1720  178.3460  141.4400 C   0  0  0  0  0  2  0  0  0  0  0  0
  184.9030  177.9660  141.8790 O   0  0  0  0  0  0  0  0  0  0  0  0
  184.0740  179.0410  141.5550 C   0  0  0  0  0  2  0  0  0  0  0  0
  182.9150  179.1420  142.5480 C   0  0  1  0  0  3  0  0  0  0  0  0
  181.5510  178.7020  141.9470 C   0  0  0  0  0  0  0  0  0  0  0  0
  180.9840  179.8060  141.0680 C   0  0  0  0  0  1  0  0  0  0  0  0
  180.5130  178.4140  143.0370 C   0  0  0  0  0  2  0  0  0  0  0  0
  179.2110  178.4500  142.5300 O   0  0  0  0  0  1  0  0  0  0  0  0
  180.5210  177.1460  140.3980 O   0  0  0  0  0  1  0  0  0  0  0  0
  181.7090  177.4590  141.0640 C   0  0  0  0  0  2  0  0  0  0  0  0
  183.2650  178.3550  143.8120 C   0  0  0  0  0  2  0  0  0  0  0  0
  183.3940  179.1030  146.0810 O   0  0  0  0  0  1  0  0  0  0  0  0
  183.9860  179.2300  144.8230 C   0  0  0  0  0  2  0  0  0  0  0  0
  190.8130  176.3170  138.2410 C   0  0  0  0  0  2  0  0  0  0  0  0
  192.1780  176.9790  138.3720 C   0  0  1  0  0  3  0  0  0  0  0  0
  192.5710  177.0490  139.7120 O   0  0  0  0  0  1  0  0  0  0  0  0
  193.2200  176.2280  137.5520 C   0  0  0  0  0  2  0  0  0  0  0  0
  192.4590  175.0990  136.3370 S   0  0  0  0  0  0  0  0  0  0  0  0
  193.5770  175.6460  135.0210 C   0  0  0  0  0  2  0  0  0  0  0  0
  194.8980  174.9000  135.1340 C   0  0  0  0  0  2  0  0  0  0  0  0
  195.4430  170.1720  135.9540 C   0  0  2  0  0  3  0  0  0  0  0  0
  195.2830  169.6640  137.2490 O   0  0  0  0  0  1  0  0  0  0  0  0
  196.1700  173.9090  137.3890 S   0  0  0  0  0  0  0  0  0  0  0  0
  194.8330  173.7680  136.1590 C   0  0  2  0  0  3  0  0  0  0  0  0
  196.4710  172.1100  137.3280 C   0  0  0  0  0  2  0  0  0  0  0  0
  193.0630  169.6440  135.9330 O   0  0  0  0  0  1  0  0  0  0  0  0
  196.0200  171.6080  135.9650 C   0  0  2  0  0  3  0  0  0  0  0  0
  192.7800  172.2070  134.6790 O   0  0  0  0  0  0  0  0  0  0  0  0
  194.9590  172.4740  135.5140 N   0  0  0  0  0  0  0  0  0  0  0  0
  193.8560  171.6990  135.0940 C   0  0  0  0  0  0  0  0  0  0  0  0
  194.0940  170.2460  135.2060 C   0  0  1  0  0  3  0  0  0  0  0  0
  1 50  1  6  0  0  0
  1 31  1  0  0  0  0
  2 14  1  0  0  0  0
  4  9  1  1  0  0  0
  4  7  1  0  0  0  0
  4  5  1  0  0  0  0
  5  8  1  0  0  0  0
  5 13  1  1  0  0  0
  6  3  2  0  0  0  0
  7 17  1  1  0  0  0
  7 10  1  0  0  0  0
  8 14  1  0  0  0  0
  9 16  1  0  0  0  0
 10 13  2  0  0  0  0
 10  1  1  0  0  0  0
 11 16  1  0  0  0  0
 11  2  1  0  0  0  0
 12  6  1  0  0  0  0
 14  3  1  0  0  0  0
 15  2  1  0  0  0  0
 15 12  2  0  0  0  0
 16  8  1  0  0  0  0
 18 17  1  0  0  0  0
 19 12  1  0  0  0  0
 20 21  1  0  0  0  0
 21 25  1  0  0  0  0
 21 19  1  0  0  0  0
 23 22  1  0  0  0  0
 24 22  1  0  0  0  0
 25 23  1  0  0  0  0
 26 25  1  0  0  0  0
 26 24  1  0  0  0  0
 27 26  2  0  0  0  0
 29 24  1  0  0  0  0
 29 28  1  0  0  0  0
 30 36  1  0  0  0  0
 31 32  2  0  0  0  0
 31 30  1  0  0  0  0
 34 35  1  0  0  0  0
 34 33  1  0  0  0  0
 35 33  1  0  0  0  0
 36 34  1  0  0  0  0
 36 35  1  0  0  0  0
 37 38  1  0  0  0  0
 37 34  1  0  0  0  0
 39 38  1  0  0  0  0
 39 40  1  0  0  0  0
 40 47  1  0  0  0  0
 41 40  1  0  0  0  0
 41 43  1  0  0  0  0
 42 41  1  0  0  0  0
 44 43  1  0  0  0  0
 45 46  1  0  0  0  0
 46 41  1  0  0  0  0
 47 49  1  0  0  0  0
 49 48  1  0  0  0  0
 50 51  1  0  0  0  0
 51 52  1  0  0  0  0
 53 51  1  0  0  0  0
 54 53  1  0  0  0  0
 55 56  1  0  0  0  0
 55 54  1  0  0  0  0
 56 60  1  0  0  0  0
 57 63  1  0  0  0  0
 57 58  1  0  0  0  0
 60 59  1  0  0  0  0
 61 59  1  0  0  0  0
 63 61  1  0  0  0  0
 64 66  2  0  0  0  0
 65 63  1  0  0  0  0
 65 60  1  0  0  0  0
 66 67  1  0  0  0  0
 66 65  1  0  0  0  0
 67 62  1  0  0  0  0
 67 57  1  0  0  0  0
M  END
>  <MODEL>
1

>  <REMARK>
 VINA RESULT:      -5.3      0.000      0.000
  Name = 
  24 active torsions:
  status: ('A' for Active; 'I' for Inactive)
    1  A    between atoms: C_3  and  C_15
    2  A    between atoms: C_3  and  C_17
    3  A    between atoms: C_3  and  C_27
    4  A    between atoms: O_7  and  C_20
    5  A    between atoms: O_7  and  C_45
    6  A    between atoms: C_8  and  C_31
    7  A    between atoms: N_11  and  C_61
    8  A    between atoms: C_12  and  C_37
    9  A    between atoms: C_12  and  C_49
   10  A    between atoms: O_18  and  C_29
   11  A    between atoms: C_19  and  C_60
   12  A    between atoms: C_20  and  C_27
   13  A    between atoms: C_23  and  C_45
   14  A    between atoms: C_25  and  C_59
   15  A    between atoms: C_27  and  C_59
   16  A    between atoms: C_30  and  C_31
   17  A    between atoms: C_30  and  S_51
   18  A    between atoms: N_34  and  C_42
   19  A    between atoms: N_34  and  C_54
   20  A    between atoms: C_36  and  C_60
   21  A    between atoms: C_37  and  S_51
   22  A    between atoms: N_43  and  C_55
   23  A    between atoms: C_47  and  C_54
   24  A    between atoms: C_49  and  C_60
                            x       y       z     vdW  Elec       q    Type
                         _______ _______ _______ _____ _____    ______ ____

>  <TORSDO>
F 24

$$$$
=
 OpenBabel10222417363D

 67 75  0  0  1  0  0  0  0  0999 V2000
  189.9730  177.6650  138.6840 C   0  0  1  0  0  3  0  0  0  0  0  0
  182.9460  177.3440  138.2240 N   0  0  0  0  0  0  0  0  0  0  0  0
  183.9170  179.2280  139.3270 C   0  0  0  0  0  3  0  0  0  0  0  0
  186.7500  176.7040  137.0220 C   0  0  1  0  0  3  0  0  0  0  0  0
  186.4200  177.5600  137.9630 C   0  0  1  0  0  3  0  0  0  0  0  0
  182.6350  179.7980  139.3990 C   0  0  0  0  0  3  0  0  0  0  0  0
  188.2320  176.5260  137.0300 C   0  0  1  0  0  3  0  0  0  0  0  0
  185.1260  177.2010  138.4920 C   0  0  1  0  0  3  0  0  0  0  0  0
  185.6660  175.6860  136.7550 C   0  0  0  0  0  2  0  0  0  0  0  0
  188.5810  177.4900  138.1400 C   0  0  0  0  0  0  0  0  0  0  0  0
  183.3180  176.2610  137.5560 N   0  0  0  0  0  2  0  0  0  0  0  0
  181.5170  179.1220  138.8750 C   0  0  0  0  0  0  0  0  0  0  0  0
  187.5370  178.0240  138.6970 N   0  0  0  0  0  0  0  0  0  0  0  0
  184.0170  177.9670  138.7510 C   0  0  2  0  0  3  0  0  0  0  0  0
  181.6990  177.8720  138.2540 C   0  0  0  0  0  3  0  0  0  0  0  0
  184.6510  176.1540  137.7490 C   0  0  2  0  0  3  0  0  0  0  0  0
  188.5560  175.2240  137.4210 O   0  0  0  0  0  0  0  0  0  0  0  0
  188.6330  174.5010  136.2280 C   0  0  0  0  0  1  0  0  0  0  0  0
  180.2220  179.7210  138.9730 N   0  0  0  0  0  2  0  0  0  0  0  0
  178.9550  178.7060  137.3060 O   0  0  0  0  0  1  0  0  0  0  0  0
  179.3620  179.9400  137.8170 C   0  0  2  0  0  3  0  0  0  0  0  0
  179.0690  181.7450  134.9550 C   0  0  0  0  0  2  0  0  0  0  0  0
  179.5080  180.5000  135.4810 O   0  0  0  0  0  0  0  0  0  0  0  0
  179.3140  182.7800  135.9360 N   0  0  0  0  0  0  0  0  0  0  0  0
  180.1050  180.7320  136.7460 C   0  0  1  0  0  3  0  0  0  0  0  0
  179.9890  182.1800  137.0050 C   0  0  0  0  0  0  0  0  0  0  0  0
  180.9890  182.9990  138.0100 S   0  0  0  0  0  0  0  0  0  0  0  0
  180.5470  184.5920  134.8630 C   0  0  0  0  0  1  0  0  0  0  0  0
  179.3000  184.2050  135.6360 C   0  0  0  0  0  2  0  0  0  0  0  0
  190.9370  177.6520  141.0140 N   0  0  0  0  0  2  0  0  0  0  0  0
  189.9410  178.1250  140.1090 C   0  0  0  0  0  0  0  0  0  0  0  0
  189.0550  178.9340  140.5000 O   0  0  0  0  0  0  0  0  0  0  0  0
  190.5050  176.7880  144.5310 C   0  0  0  0  0  2  0  0  0  0  0  0
  189.8960  177.2890  143.2390 C   0  0  2  0  0  0  0  0  0  0  0  0
  191.3460  176.8410  143.2730 C   0  0  1  0  0  3  0  0  0  0  0  0
  190.9520  178.0320  142.4220 C   0  0  1  0  0  3  0  0  0  0  0  0
  189.1160  176.2010  142.5050 C   0  0  0  0  0  2  0  0  0  0  0  0
  187.7860  176.1920  142.9290 O   0  0  0  0  0  0  0  0  0  0  0  0
  187.4610  177.5360  143.1170 C   0  0  0  0  0  2  0  0  0  0  0  0
  186.1650  177.6660  143.9190 C   0  0  1  0  0  3  0  0  0  0  0  0
  186.3970  177.7150  145.4560 C   0  0  0  0  0  0  0  0  0  0  0  0
  185.6780  176.5580  146.1330 C   0  0  0  0  0  1  0  0  0  0  0  0
  185.8550  179.0080  146.0730 C   0  0  0  0  0  2  0  0  0  0  0  0
  184.6620  178.7860  146.7670 O   0  0  0  0  0  1  0  0  0  0  0  0
  188.2370  178.3840  146.8860 O   0  0  0  0  0  1  0  0  0  0  0  0
  187.8860  177.5820  145.7960 C   0  0  0  0  0  2  0  0  0  0  0  0
  185.3810  178.8790  143.4180 C   0  0  0  0  0  2  0  0  0  0  0  0
  183.0450  179.3950  143.4810 O   0  0  0  0  0  1  0  0  0  0  0  0
  183.9800  178.4870  142.9800 C   0  0  0  0  0  2  0  0  0  0  0  0
  190.8090  176.3940  138.5470 C   0  0  0  0  0  2  0  0  0  0  0  0
  192.0820  176.6500  137.7520 C   0  0  1  0  0  3  0  0  0  0  0  0
  193.2140  176.4630  138.5500 O   0  0  0  0  0  1  0  0  0  0  0  0
  192.1410  175.7470  136.5260 C   0  0  0  0  0  2  0  0  0  0  0  0
  192.3790  173.9940  136.9720 S   0  0  0  0  0  0  0  0  0  0  0  0
  192.5350  173.4990  135.2360 C   0  0  0  0  0  2  0  0  0  0  0  0
  193.6870  174.2550  134.5940 C   0  0  0  0  0  2  0  0  0  0  0  0
  197.3870  173.4530  137.5930 C   0  0  2  0  0  3  0  0  0  0  0  0
  198.4140  172.5790  137.2180 O   0  0  0  0  0  1  0  0  0  0  0  0
  194.8150  171.7460  134.9430 S   0  0  0  0  0  0  0  0  0  0  0  0
  195.0270  173.5510  134.8060 C   0  0  2  0  0  3  0  0  0  0  0  0
  196.0150  171.6680  136.3150 C   0  0  0  0  0  2  0  0  0  0  0  0
  198.9200  175.0100  136.5110 O   0  0  0  0  0  1  0  0  0  0  0  0
  196.0210  173.0230  137.0070 C   0  0  2  0  0  3  0  0  0  0  0  0
  196.5560  176.0580  135.2720 O   0  0  0  0  0  0  0  0  0  0  0  0
  195.6720  174.0140  136.0200 N   0  0  0  0  0  0  0  0  0  0  0  0
  196.6090  175.0710  136.0540 C   0  0  0  0  0  0  0  0  0  0  0  0
  197.6510  174.8870  137.0840 C   0  0  1  0  0  3  0  0  0  0  0  0
  1 50  1  1  0  0  0
  1 31  1  0  0  0  0
  2 15  1  0  0  0  0
  2 14  1  0  0  0  0
  3  6  2  0  0  0  0
  4  9  1  1  0  0  0
  4  7  1  0  0  0  0
  4  5  1  0  0  0  0
  5  8  1  0  0  0  0
  5 13  1  1  0  0  0
  7 17  1  1  0  0  0
  7 10  1  0  0  0  0
  8 14  1  0  0  0  0
  9 16  1  0  0  0  0
 10  1  1  0  0  0  0
 10 13  2  0  0  0  0
 11 16  1  0  0  0  0
 11  2  1  0  0  0  0
 12 19  1  0  0  0  0
 12  6  1  0  0  0  0
 14  3  1  0  0  0  0
 15 12  2  0  0  0  0
 16  8  1  0  0  0  0
 18 17  1  0  0  0  0
 20 21  1  0  0  0  0
 21 19  1  0  0  0  0
 22 23  1  0  0  0  0
 22 24  1  0  0  0  0
 23 25  1  0  0  0  0
 24 26  1  0  0  0  0
 25 26  1  0  0  0  0
 25 21  1  0  0  0  0
 26 27  2  0  0  0  0
 28 29  1  0  0  0  0
 29 24  1  0  0  0  0
 30 36  1  0  0  0  0
 31 32  2  0  0  0  0
 31 30  1  0  0  0  0
 34 35  1  0  0  0  0
 34 33  1  0  0  0  0
 35 33  1  0  0  0  0
 36 34  1  0  0  0  0
 36 35  1  0  0  0  0
 37 38  1  0  0  0  0
 37 34  1  0  0  0  0
 38 39  1  0  0  0  0
 39 40  1  0  0  0  0
 40 41  1  0  0  0  0
 41 46  1  0  0  0  0
 41 43  1  0  0  0  0
 41 42  1  0  0  0  0
 43 44  1  0  0  0  0
 46 45  1  0  0  0  0
 47 40  1  0  0  0  0
 49 47  1  0  0  0  0
 49 48  1  0  0  0  0
 51 50  1  0  0  0  0
 51 52  1  0  0  0  0
 53 54  1  0  0  0  0
 53 51  1  0  0  0  0
 55 54  1  0  0  0  0
 56 60  1  0  0  0  0
 56 55  1  0  0  0  0
 58 57  1  0  0  0  0
 59 61  1  0  0  0  0
 60 59  1  0  0  0  0
 60 65  1  0  0  0  0
 61 63  1  0  0  0  0
 62 67  1  0  0  0  0
 63 57  1  0  0  0  0
 64 66  2  0  0  0  0
 65 66  1  0  0  0  0
 65 63  1  0  0  0  0
 66 67  1  0  0  0  0
 67 57  1  0  0  0  0
M  END
>  <MODEL>
2

>  <REMARK>
 VINA RESULT:      -5.2      2.184      3.427
  Name = 
  24 active torsions:
  status: ('A' for Active; 'I' for Inactive)
    1  A    between atoms: C_3  and  C_15
    2  A    between atoms: C_3  and  C_17
    3  A    between atoms: C_3  and  C_27
    4  A    between atoms: O_7  and  C_20
    5  A    between atoms: O_7  and  C_45
    6  A    between atoms: C_8  and  C_31
    7  A    between atoms: N_11  and  C_61
    8  A    between atoms: C_12  and  C_37
    9  A    between atoms: C_12  and  C_49
   10  A    between atoms: O_18  and  C_29
   11  A    between atoms: C_19  and  C_60
   12  A    between atoms: C_20  and  C_27
   13  A    between atoms: C_23  and  C_45
   14  A    between atoms: C_25  and  C_59
   15  A    between atoms: C_27  and  C_59
   16  A    between atoms: C_30  and  C_31
   17  A    between atoms: C_30  and  S_51
   18  A    between atoms: N_34  and  C_42
   19  A    between atoms: N_34  and  C_54
   20  A    between atoms: C_36  and  C_60
   21  A    between atoms: C_37  and  S_51
   22  A    between atoms: N_43  and  C_55
   23  A    between atoms: C_47  and  C_54
   24  A    between atoms: C_49  and  C_60
                            x       y       z     vdW  Elec       q    Type
                         _______ _______ _______ _____ _____    ______ ____

>  <TORSDO>
F 24

$$$$
=
 OpenBabel10222417363D

 67 75  0  0  1  0  0  0  0  0999 V2000
  184.0460  179.1470  140.1210 C   0  0  1  0  0  3  0  0  0  0  0  0
  188.8480  176.9090  135.4710 N   0  0  0  0  0  0  0  0  0  0  0  0
  189.5570  177.3050  137.7180 C   0  0  0  0  0  3  0  0  0  0  0  0
  185.1620  177.2350  137.0930 C   0  0  1  0  0  3  0  0  0  0  0  0
  186.2650  177.5730  137.7220 C   0  0  1  0  0  3  0  0  0  0  0  0
  190.8050  176.7570  137.3810 C   0  0  0  0  0  3  0  0  0  0  0  0
  183.9900  177.7380  137.8680 C   0  0  1  0  0  3  0  0  0  0  0  0
  187.3040  177.8160  136.7510 C   0  0  1  0  0  3  0  0  0  0  0  0
  185.3500  177.1430  135.5970 C   0  0  0  0  0  2  0  0  0  0  0  0
  184.7250  178.3650  139.0300 C   0  0  0  0  0  0  0  0  0  0  0  0
  187.7390  176.9140  134.7440 N   0  0  0  0  0  2  0  0  0  0  0  0
  191.0550  176.2870  136.0770 C   0  0  0  0  0  0  0  0  0  0  0  0
  186.0160  178.3140  138.9020 N   0  0  0  0  0  0  0  0  0  0  0  0
  188.6080  177.3900  136.7050 C   0  0  2  0  0  3  0  0  0  0  0  0
  190.0310  176.3520  135.1150 C   0  0  0  0  0  3  0  0  0  0  0  0
  186.8000  177.5030  135.5180 C   0  0  2  0  0  3  0  0  0  0  0  0
  183.3250  178.7300  137.1430 O   0  0  0  0  0  0  0  0  0  0  0  0
  182.5130  178.0330  136.2450 C   0  0  0  0  0  1  0  0  0  0  0  0
  192.3400  175.7440  135.7590 N   0  0  0  0  0  2  0  0  0  0  0  0
  193.9430  176.8060  137.0700 O   0  0  0  0  0  1  0  0  0  0  0  0
  193.3910  175.5630  136.7520 C   0  0  2  0  0  3  0  0  0  0  0  0
  196.6040  175.3190  135.6790 C   0  0  0  0  0  2  0  0  0  0  0  0
  195.2510  175.3130  135.2450 O   0  0  0  0  0  0  0  0  0  0  0  0
  196.6800  174.7050  136.9870 N   0  0  0  0  0  0  0  0  0  0  0  0
  194.4720  174.6300  136.2150 C   0  0  1  0  0  3  0  0  0  0  0  0
  195.3970  174.2400  137.2950 C   0  0  0  0  0  0  0  0  0  0  0  0
  195.1160  172.9880  138.3140 S   0  0  0  0  0  0  0  0  0  0  0  0
  198.1570  174.9700  138.9110 C   0  0  0  0  0  1  0  0  0  0  0  0
  197.9180  174.2450  137.5990 C   0  0  0  0  0  2  0  0  0  0  0  0
  181.6420  178.3990  139.9830 N   0  0  0  0  0  2  0  0  0  0  0  0
  182.8840  178.3880  140.6850 C   0  0  0  0  0  0  0  0  0  0  0  0
  183.0070  177.7350  141.7570 O   0  0  0  0  0  0  0  0  0  0  0  0
  179.5880  175.3930  140.2070 C   0  0  0  0  0  2  0  0  0  0  0  0
  179.9150  176.6850  139.4880 C   0  0  2  0  0  0  0  0  0  0  0  0
  180.7610  176.2340  140.6650 C   0  0  1  0  0  3  0  0  0  0  0  0
  180.4590  177.7090  140.4840 C   0  0  1  0  0  3  0  0  0  0  0  0
  180.7500  176.4540  138.2310 C   0  0  0  0  0  2  0  0  0  0  0  0
  181.2540  175.1530  138.2190 O   0  0  0  0  0  0  0  0  0  0  0  0
  181.5490  174.8950  136.8790 C   0  0  0  0  0  2  0  0  0  0  0  0
  181.7750  173.3980  136.6600 C   0  0  1  0  0  3  0  0  0  0  0  0
  180.6340  172.7160  135.8550 C   0  0  0  0  0  0  0  0  0  0  0  0
  181.2070  171.9550  134.6710 C   0  0  0  0  0  1  0  0  0  0  0  0
  179.6400  173.7400  135.2960 C   0  0  0  0  0  2  0  0  0  0  0  0
  180.2910  174.7590  134.5950 O   0  0  0  0  0  1  0  0  0  0  0  0
  179.6780  172.1800  138.0190 O   0  0  0  0  0  1  0  0  0  0  0  0
  179.8750  171.7020  136.7190 C   0  0  0  0  0  2  0  0  0  0  0  0
  183.1420  173.1860  136.0090 C   0  0  0  0  0  2  0  0  0  0  0  0
  183.7830  171.0490  136.8760 O   0  0  0  0  0  1  0  0  0  0  0  0
  184.0750  172.4130  136.9280 C   0  0  0  0  0  2  0  0  0  0  0  0
  185.0170  179.5480  141.2310 C   0  0  0  0  0  2  0  0  0  0  0  0
  185.8350  178.3560  141.7100 C   0  0  1  0  0  3  0  0  0  0  0  0
  187.2030  178.6270  141.6300 O   0  0  0  0  0  1  0  0  0  0  0  0
  185.4490  177.9780  143.1350 C   0  0  0  0  0  2  0  0  0  0  0  0
  185.0640  179.4400  144.1560 S   0  0  0  0  0  0  0  0  0  0  0  0
  186.0010  178.7930  145.5650 C   0  0  0  0  0  2  0  0  0  0  0  0
  186.2050  177.2950  145.3950 C   0  0  0  0  0  2  0  0  0  0  0  0
  190.9800  177.7400  144.8220 C   0  0  2  0  0  3  0  0  0  0  0  0
  191.8530  177.0380  145.6630 O   0  0  0  0  0  1  0  0  0  0  0  0
  187.9610  177.4540  147.5350 S   0  0  0  0  0  0  0  0  0  0  0  0
  187.5910  176.8470  145.8560 C   0  0  2  0  0  3  0  0  0  0  0  0
  189.6680  177.8770  147.0500 C   0  0  0  0  0  2  0  0  0  0  0  0
  191.2650  175.6810  143.5470 O   0  0  0  0  0  1  0  0  0  0  0  0
  189.6760  178.1410  145.5520 C   0  0  2  0  0  3  0  0  0  0  0  0
  188.4240  175.8240  143.1910 O   0  0  0  0  0  0  0  0  0  0  0  0
  188.6230  177.3480  144.9680 N   0  0  0  0  0  0  0  0  0  0  0  0
  189.1280  176.6220  143.8670 C   0  0  0  0  0  0  0  0  0  0  0  0
  190.5570  176.8850  143.6070 C   0  0  1  0  0  3  0  0  0  0  0  0
  1 31  1  0  0  0  0
  1 50  1  1  0  0  0
  2 14  1  0  0  0  0
  4  9  1  6  0  0  0
  4  5  1  0  0  0  0
  4  7  1  0  0  0  0
  5 13  1  6  0  0  0
  6  3  2  0  0  0  0
  7 17  1  6  0  0  0
  7 10  1  0  0  0  0
  8  5  1  0  0  0  0
 10  1  1  0  0  0  0
 11  2  1  0  0  0  0
 11 16  1  0  0  0  0
 12  6  1  0  0  0  0
 13 10  2  0  0  0  0
 14  8  1  0  0  0  0
 14  3  1  0  0  0  0
 15  2  1  0  0  0  0
 15 12  2  0  0  0  0
 16  9  1  0  0  0  0
 16  8  1  0  0  0  0
 18 17  1  0  0  0  0
 19 12  1  0  0  0  0
 19 21  1  0  0  0  0
 21 20  1  0  0  0  0
 22 24  1  0  0  0  0
 23 22  1  0  0  0  0
 23 25  1  0  0  0  0
 24 26  1  0  0  0  0
 24 29  1  0  0  0  0
 25 21  1  0  0  0  0
 25 26  1  0  0  0  0
 26 27  2  0  0  0  0
 29 28  1  0  0  0  0
 30 36  1  0  0  0  0
 30 31  1  0  0  0  0
 31 32  2  0  0  0  0
 33 35  1  0  0  0  0
 34 33  1  0  0  0  0
 34 36  1  0  0  0  0
 34 35  1  0  0  0  0
 36 35  1  0  0  0  0
 37 34  1  0  0  0  0
 38 37  1  0  0  0  0
 39 38  1  0  0  0  0
 40 39  1  0  0  0  0
 41 40  1  0  0  0  0
 41 46  1  0  0  0  0
 42 41  1  0  0  0  0
 43 41  1  0  0  0  0
 44 43  1  0  0  0  0
 46 45  1  0  0  0  0
 47 40  1  0  0  0  0
 47 49  1  0  0  0  0
 48 49  1  0  0  0  0
 50 51  1  0  0  0  0
 51 53  1  0  0  0  0
 52 51  1  0  0  0  0
 53 54  1  0  0  0  0
 54 55  1  0  0  0  0
 56 55  1  0  0  0  0
 56 60  1  0  0  0  0
 57 63  1  0  0  0  0
 57 58  1  0  0  0  0
 60 59  1  0  0  0  0
 61 59  1  0  0  0  0
 62 67  1  0  0  0  0
 63 61  1  0  0  0  0
 64 66  2  0  0  0  0
 65 63  1  0  0  0  0
 65 60  1  0  0  0  0
 66 65  1  0  0  0  0
 67 66  1  0  0  0  0
 67 57  1  0  0  0  0
M  END
>  <MODEL>
3

>  <REMARK>
 VINA RESULT:      -5.0      3.605     10.603
  Name = 
  24 active torsions:
  status: ('A' for Active; 'I' for Inactive)
    1  A    between atoms: C_3  and  C_15
    2  A    between atoms: C_3  and  C_17
    3  A    between atoms: C_3  and  C_27
    4  A    between atoms: O_7  and  C_20
    5  A    between atoms: O_7  and  C_45
    6  A    between atoms: C_8  and  C_31
    7  A    between atoms: N_11  and  C_61
    8  A    between atoms: C_12  and  C_37
    9  A    between atoms: C_12  and  C_49
   10  A    between atoms: O_18  and  C_29
   11  A    between atoms: C_19  and  C_60
   12  A    between atoms: C_20  and  C_27
   13  A    between atoms: C_23  and  C_45
   14  A    between atoms: C_25  and  C_59
   15  A    between atoms: C_27  and  C_59
   16  A    between atoms: C_30  and  C_31
   17  A    between atoms: C_30  and  S_51
   18  A    between atoms: N_34  and  C_42
   19  A    between atoms: N_34  and  C_54
   20  A    between atoms: C_36  and  C_60
   21  A    between atoms: C_37  and  S_51
   22  A    between atoms: N_43  and  C_55
   23  A    between atoms: C_47  and  C_54
   24  A    between atoms: C_49  and  C_60
                            x       y       z     vdW  Elec       q    Type
                         _______ _______ _______ _____ _____    ______ ____

>  <TORSDO>
F 24

$$$$
=
 OpenBabel10222417363D

 67 75  0  0  1  0  0  0  0  0999 V2000
  185.1400  178.3920  141.2100 C   0  0  1  0  0  3  0  0  0  0  0  0
  191.2770  176.4060  138.3670 N   0  0  0  0  0  0  0  0  0  0  0  0
  189.3520  176.4700  136.9550 C   0  0  0  0  0  3  0  0  0  0  0  0
  188.8790  178.4350  140.9090 C   0  0  1  0  0  3  0  0  0  0  0  0
  188.4450  177.8340  139.8230 C   0  0  1  0  0  3  0  0  0  0  0  0
  190.1920  176.2100  135.8610 C   0  0  0  0  0  3  0  0  0  0  0  0
  187.7060  178.8380  141.7390 C   0  0  1  0  0  3  0  0  0  0  0  0
  189.3970  176.8220  139.4340 C   0  0  1  0  0  3  0  0  0  0  0  0
  190.2350  177.9340  141.3480 C   0  0  0  0  0  2  0  0  0  0  0  0
  186.5970  178.3500  140.8370 C   0  0  0  0  0  0  0  0  0  0  0  0
  191.6300  176.6980  139.6120 N   0  0  0  0  0  2  0  0  0  0  0  0
  191.5800  176.0490  136.0420 C   0  0  0  0  0  0  0  0  0  0  0  0
  187.0340  177.7310  139.7830 N   0  0  0  0  0  0  0  0  0  0  0  0
  189.9460  176.5280  138.2110 C   0  0  2  0  0  3  0  0  0  0  0  0
  192.1230  176.1770  137.3340 C   0  0  0  0  0  3  0  0  0  0  0  0
  190.4730  176.9200  140.2750 C   0  0  2  0  0  3  0  0  0  0  0  0
  187.6930  178.1130  142.9330 O   0  0  0  0  0  0  0  0  0  0  0  0
  187.7820  176.7760  142.5410 C   0  0  0  0  0  1  0  0  0  0  0  0
  192.4100  175.7720  134.9110 N   0  0  0  0  0  2  0  0  0  0  0  0
  192.3010  173.5140  135.4570 O   0  0  0  0  0  1  0  0  0  0  0  0
  192.8950  174.4360  134.5930 C   0  0  2  0  0  3  0  0  0  0  0  0
  195.5910  175.4390  136.4000 C   0  0  0  0  0  2  0  0  0  0  0  0
  194.9010  175.6340  135.1730 O   0  0  0  0  0  0  0  0  0  0  0  0
  195.4720  174.0510  136.7890 N   0  0  0  0  0  0  0  0  0  0  0  0
  194.4140  174.3780  134.7280 C   0  0  1  0  0  3  0  0  0  0  0  0
  194.8020  173.3910  135.7530 C   0  0  0  0  0  0  0  0  0  0  0  0
  194.9770  171.7920  135.4440 S   0  0  0  0  0  0  0  0  0  0  0  0
  195.9720  173.9580  139.1760 C   0  0  0  0  0  1  0  0  0  0  0  0
  196.3070  173.4140  137.7990 C   0  0  0  0  0  2  0  0  0  0  0  0
  184.4410  178.2900  143.6310 N   0  0  0  0  0  2  0  0  0  0  0  0
  184.9430  179.0570  142.5380 C   0  0  0  0  0  0  0  0  0  0  0  0
  185.2340  180.2750  142.6920 O   0  0  0  0  0  0  0  0  0  0  0  0
  185.6430  179.2870  146.9270 C   0  0  0  0  0  2  0  0  0  0  0  0
  185.0350  178.2200  146.0400 C   0  0  2  0  0  0  0  0  0  0  0  0
  185.4530  179.5540  145.4490 C   0  0  1  0  0  3  0  0  0  0  0  0
  184.1950  178.8740  144.9440 C   0  0  1  0  0  3  0  0  0  0  0  0
  186.0660  177.1920  145.5800 C   0  0  0  0  0  2  0  0  0  0  0  0
  187.0770  177.0630  146.5340 O   0  0  0  0  0  0  0  0  0  0  0  0
  188.2540  177.3770  145.8530 C   0  0  0  0  0  2  0  0  0  0  0  0
  189.4630  177.2270  146.7780 C   0  0  1  0  0  3  0  0  0  0  0  0
  190.7790  176.8990  146.0190 C   0  0  0  0  0  0  0  0  0  0  0  0
  190.5150  175.8790  144.9230 C   0  0  0  0  0  1  0  0  0  0  0  0
  191.8400  176.2990  146.9490 C   0  0  0  0  0  2  0  0  0  0  0  0
  192.4490  175.1790  146.3780 O   0  0  0  0  0  1  0  0  0  0  0  0
  191.3670  178.0220  143.9510 O   0  0  0  0  0  1  0  0  0  0  0  0
  191.3550  178.1490  145.3430 C   0  0  0  0  0  2  0  0  0  0  0  0
  189.5960  178.4820  147.6410 C   0  0  0  0  0  2  0  0  0  0  0  0
  187.9360  177.3520  148.9430 O   0  0  0  0  0  1  0  0  0  0  0  0
  188.9840  178.2720  149.0160 C   0  0  0  0  0  2  0  0  0  0  0  0
  184.2900  179.0710  140.1370 C   0  0  0  0  0  2  0  0  0  0  0  0
  183.7720  178.0630  139.1200 C   0  0  1  0  0  3  0  0  0  0  0  0
  183.0140  177.0690  139.7460 O   0  0  0  0  0  1  0  0  0  0  0  0
  182.9500  178.7610  138.0430 C   0  0  0  0  0  2  0  0  0  0  0  0
  181.4240  177.8460  137.6390 S   0  0  0  0  0  0  0  0  0  0  0  0
  181.9960  177.4910  135.9570 C   0  0  0  0  0  2  0  0  0  0  0  0
  183.4140  176.9430  136.0070 C   0  0  0  0  0  2  0  0  0  0  0  0
  184.0570  172.3350  137.3000 C   0  0  2  0  0  3  0  0  0  0  0  0
  183.9460  171.3190  136.3430 O   0  0  0  0  0  1  0  0  0  0  0  0
  181.8500  174.8790  135.0160 S   0  0  0  0  0  0  0  0  0  0  0  0
  183.4850  175.4880  135.5460 C   0  0  2  0  0  3  0  0  0  0  0  0
  182.1290  173.2830  135.8570 C   0  0  0  0  0  2  0  0  0  0  0  0
  186.3690  172.1880  136.5370 O   0  0  0  0  0  1  0  0  0  0  0  0
  183.1110  173.5200  136.9940 C   0  0  2  0  0  3  0  0  0  0  0  0
  186.2620  175.0530  136.5160 O   0  0  0  0  0  0  0  0  0  0  0  0
  183.9540  174.6260  136.6140 N   0  0  0  0  0  0  0  0  0  0  0  0
  185.3100  174.2770  136.8000 C   0  0  0  0  0  0  0  0  0  0  0  0
  185.4880  172.9160  137.3430 C   0  0  1  0  0  3  0  0  0  0  0  0
  1 50  1  6  0  0  0
  1 31  1  0  0  0  0
  2 11  1  0  0  0  0
  3 14  1  0  0  0  0
  4  9  1  1  0  0  0
  4  7  1  0  0  0  0
  5 13  1  1  0  0  0
  5  4  1  0  0  0  0
  6 12  1  0  0  0  0
  6  3  2  0  0  0  0
  7 17  1  1  0  0  0
  8  5  1  0  0  0  0
  8 16  1  0  0  0  0
 10  1  1  0  0  0  0
 10  7  1  0  0  0  0
 11 16  1  0  0  0  0
 12 15  2  0  0  0  0
 13 10  2  0  0  0  0
 14  2  1  0  0  0  0
 14  8  1  0  0  0  0
 15  2  1  0  0  0  0
 16  9  1  0  0  0  0
 18 17  1  0  0  0  0
 19 12  1  0  0  0  0
 21 25  1  0  0  0  0
 21 19  1  0  0  0  0
 21 20  1  0  0  0  0
 22 24  1  0  0  0  0
 23 22  1  0  0  0  0
 24 29  1  0  0  0  0
 25 23  1  0  0  0  0
 25 26  1  0  0  0  0
 26 24  1  0  0  0  0
 27 26  2  0  0  0  0
 29 28  1  0  0  0  0
 30 36  1  0  0  0  0
 31 32  2  0  0  0  0
 31 30  1  0  0  0  0
 34 33  1  0  0  0  0
 35 34  1  0  0  0  0
 35 33  1  0  0  0  0
 36 35  1  0  0  0  0
 36 34  1  0  0  0  0
 37 34  1  0  0  0  0
 37 38  1  0  0  0  0
 39 38  1  0  0  0  0
 39 40  1  0  0  0  0
 40 47  1  0  0  0  0
 41 40  1  0  0  0  0
 41 43  1  0  0  0  0
 42 41  1  0  0  0  0
 44 43  1  0  0  0  0
 45 46  1  0  0  0  0
 46 41  1  0  0  0  0
 47 49  1  0  0  0  0
 48 49  1  0  0  0  0
 51 52  1  0  0  0  0
 51 50  1  0  0  0  0
 53 51  1  0  0  0  0
 54 53  1  0  0  0  0
 55 56  1  0  0  0  0
 55 54  1  0  0  0  0
 57 67  1  0  0  0  0
 58 57  1  0  0  0  0
 59 60  1  0  0  0  0
 59 61  1  0  0  0  0
 60 56  1  0  0  0  0
 60 65  1  0  0  0  0
 61 63  1  0  0  0  0
 62 67  1  0  0  0  0
 63 57  1  0  0  0  0
 64 66  2  0  0  0  0
 65 66  1  0  0  0  0
 65 63  1  0  0  0  0
 66 67  1  0  0  0  0
M  END
>  <MODEL>
4

>  <REMARK>
 VINA RESULT:      -4.7      3.289     10.489
  Name = 
  24 active torsions:
  status: ('A' for Active; 'I' for Inactive)
    1  A    between atoms: C_3  and  C_15
    2  A    between atoms: C_3  and  C_17
    3  A    between atoms: C_3  and  C_27
    4  A    between atoms: O_7  and  C_20
    5  A    between atoms: O_7  and  C_45
    6  A    between atoms: C_8  and  C_31
    7  A    between atoms: N_11  and  C_61
    8  A    between atoms: C_12  and  C_37
    9  A    between atoms: C_12  and  C_49
   10  A    between atoms: O_18  and  C_29
   11  A    between atoms: C_19  and  C_60
   12  A    between atoms: C_20  and  C_27
   13  A    between atoms: C_23  and  C_45
   14  A    between atoms: C_25  and  C_59
   15  A    between atoms: C_27  and  C_59
   16  A    between atoms: C_30  and  C_31
   17  A    between atoms: C_30  and  S_51
   18  A    between atoms: N_34  and  C_42
   19  A    between atoms: N_34  and  C_54
   20  A    between atoms: C_36  and  C_60
   21  A    between atoms: C_37  and  S_51
   22  A    between atoms: N_43  and  C_55
   23  A    between atoms: C_47  and  C_54
   24  A    between atoms: C_49  and  C_60
                            x       y       z     vdW  Elec       q    Type
                         _______ _______ _______ _____ _____    ______ ____

>  <TORSDO>
F 24

$$$$
=
 OpenBabel10222417363D

 67 75  0  0  1  0  0  0  0  0999 V2000
  188.8070  178.2530  139.7900 C   0  0  1  0  0  3  0  0  0  0  0  0
  190.6850  173.3670  135.0690 N   0  0  0  0  0  0  0  0  0  0  0  0
  192.1150  173.7230  136.9490 C   0  0  0  0  0  3  0  0  0  0  0  0
  188.1050  175.6090  137.2230 C   0  0  1  0  0  3  0  0  0  0  0  0
  189.3800  175.4860  137.5160 C   0  0  1  0  0  3  0  0  0  0  0  0
  192.8710  172.6140  136.5360 C   0  0  0  0  0  3  0  0  0  0  0  0
  187.5240  176.7090  138.0480 C   0  0  1  0  0  3  0  0  0  0  0  0
  190.0950  175.0690  136.3330 C   0  0  1  0  0  3  0  0  0  0  0  0
  187.7940  175.2150  135.7980 C   0  0  0  0  0  2  0  0  0  0  0  0
  188.7550  177.0900  138.8360 C   0  0  0  0  0  0  0  0  0  0  0  0
  189.5160  173.7770  134.5940 N   0  0  0  0  0  2  0  0  0  0  0  0
  192.5150  171.8910  135.3810 C   0  0  0  0  0  0  0  0  0  0  0  0
  189.8130  176.4270  138.4810 N   0  0  0  0  0  0  0  0  0  0  0  0
  191.0340  174.0850  136.1520 C   0  0  2  0  0  3  0  0  0  0  0  0
  191.3750  172.2780  134.6520 C   0  0  0  0  0  3  0  0  0  0  0  0
  189.1720  174.8440  135.3490 C   0  0  2  0  0  3  0  0  0  0  0  0
  187.1450  177.7740  137.2270 O   0  0  0  0  0  0  0  0  0  0  0  0
  185.9010  177.4020  136.7100 C   0  0  0  0  0  1  0  0  0  0  0  0
  193.3100  170.7720  134.9780 N   0  0  0  0  0  2  0  0  0  0  0  0
  194.7070  171.0050  136.8230 O   0  0  0  0  0  1  0  0  0  0  0  0
  194.6360  170.5070  135.5220 C   0  0  2  0  0  3  0  0  0  0  0  0
  196.6400  173.2160  135.0990 C   0  0  0  0  0  2  0  0  0  0  0  0
  195.4850  172.5590  134.5940 O   0  0  0  0  0  0  0  0  0  0  0  0
  197.5810  172.2200  135.5630 N   0  0  0  0  0  0  0  0  0  0  0  0
  195.7050  171.1580  134.6500 C   0  0  1  0  0  3  0  0  0  0  0  0
  197.0400  170.9680  135.2470 C   0  0  0  0  0  0  0  0  0  0  0  0
  197.9540  169.6300  135.0050 S   0  0  0  0  0  0  0  0  0  0  0  0
  199.1420  173.8680  136.4570 C   0  0  0  0  0  1  0  0  0  0  0  0
  198.9850  172.4910  135.8380 C   0  0  0  0  0  2  0  0  0  0  0  0
  186.7520  179.2760  140.8350 N   0  0  0  0  0  2  0  0  0  0  0  0
  187.6790  178.1930  140.7740 C   0  0  0  0  0  0  0  0  0  0  0  0
  187.5410  177.1900  141.5270 O   0  0  0  0  0  0  0  0  0  0  0  0
  183.4920  178.0640  141.9350 C   0  0  0  0  0  2  0  0  0  0  0  0
  184.2950  179.0550  141.1180 C   0  0  2  0  0  0  0  0  0  0  0  0
  184.9990  177.9340  141.8610 C   0  0  1  0  0  3  0  0  0  0  0  0
  185.6470  179.3020  141.7860 C   0  0  1  0  0  3  0  0  0  0  0  0
  184.3300  178.6910  139.6350 C   0  0  0  0  0  2  0  0  0  0  0  0
  183.2260  179.2360  138.9780 O   0  0  0  0  0  0  0  0  0  0  0  0
  182.6250  178.1550  138.3310 C   0  0  0  0  0  2  0  0  0  0  0  0
  181.1060  178.2060  138.5050 C   0  0  1  0  0  3  0  0  0  0  0  0
  180.4950  176.8520  138.9610 C   0  0  0  0  0  0  0  0  0  0  0  0
  179.6290  177.0540  140.1950 C   0  0  0  0  0  1  0  0  0  0  0  0
  181.5780  175.8330  139.3310 C   0  0  0  0  0  2  0  0  0  0  0  0
  181.8940  175.0040  138.2510 O   0  0  0  0  0  1  0  0  0  0  0  0
  179.1760  177.2280  136.9610 O   0  0  0  0  0  1  0  0  0  0  0  0
  179.5960  176.2540  137.8720 C   0  0  0  0  0  2  0  0  0  0  0  0
  180.7450  179.3480  139.4560 C   0  0  0  0  0  2  0  0  0  0  0  0
  180.3650  181.6920  139.1610 O   0  0  0  0  0  1  0  0  0  0  0  0
  179.9480  180.4270  138.7430 C   0  0  0  0  0  2  0  0  0  0  0  0
  190.1490  178.3440  140.5140 C   0  0  0  0  0  2  0  0  0  0  0  0
  190.1800  177.4410  141.7400 C   0  0  1  0  0  3  0  0  0  0  0  0
  190.7070  176.1870  141.4210 O   0  0  0  0  0  1  0  0  0  0  0  0
  190.9860  178.0870  142.8620 C   0  0  0  0  0  2  0  0  0  0  0  0
  191.7240  176.8500  143.9800 S   0  0  0  0  0  0  0  0  0  0  0  0
  190.1410  176.5500  144.8100 C   0  0  0  0  0  2  0  0  0  0  0  0
  190.2830  176.8460  146.2960 C   0  0  0  0  0  2  0  0  0  0  0  0
  185.6920  178.1530  147.0320 C   0  0  2  0  0  3  0  0  0  0  0  0
  185.4030  179.4080  147.5800 O   0  0  0  0  0  1  0  0  0  0  0  0
  189.4660  178.2370  148.5510 S   0  0  0  0  0  0  0  0  0  0  0  0
  189.3300  177.9480  146.7560 C   0  0  2  0  0  3  0  0  0  0  0  0
  187.6540  178.3770  148.7070 C   0  0  0  0  0  2  0  0  0  0  0  0
  185.4910  179.4890  145.0010 O   0  0  0  0  0  1  0  0  0  0  0  0
  187.0250  177.5820  147.5720 C   0  0  2  0  0  3  0  0  0  0  0  0
  187.8610  178.1030  144.1750 O   0  0  0  0  0  0  0  0  0  0  0  0
  187.9520  177.5980  146.4680 N   0  0  0  0  0  0  0  0  0  0  0  0
  187.2780  177.9790  145.2860 C   0  0  0  0  0  0  0  0  0  0  0  0
  185.8380  178.2280  145.4960 C   0  0  1  0  0  3  0  0  0  0  0  0
  1 50  1  1  0  0  0
  1 31  1  0  0  0  0
  2 14  1  0  0  0  0
  4  9  1  6  0  0  0
  4  5  1  0  0  0  0
  4  7  1  0  0  0  0
  5 13  1  6  0  0  0
  6  3  2  0  0  0  0
  7 17  1  6  0  0  0
  7 10  1  0  0  0  0
  8  5  1  0  0  0  0
 10  1  1  0  0  0  0
 11  2  1  0  0  0  0
 11 16  1  0  0  0  0
 12  6  1  0  0  0  0
 13 10  2  0  0  0  0
 14  8  1  0  0  0  0
 14  3  1  0  0  0  0
 15  2  1  0  0  0  0
 15 12  2  0  0  0  0
 16  9  1  0  0  0  0
 16  8  1  0  0  0  0
 18 17  1  0  0  0  0
 19 12  1  0  0  0  0
 19 21  1  0  0  0  0
 21 20  1  0  0  0  0
 22 24  1  0  0  0  0
 23 25  1  0  0  0  0
 23 22  1  0  0  0  0
 24 29  1  0  0  0  0
 25 26  1  0  0  0  0
 25 21  1  0  0  0  0
 26 24  1  0  0  0  0
 27 26  2  0  0  0  0
 29 28  1  0  0  0  0
 30 36  1  0  0  0  0
 31 30  1  0  0  0  0
 31 32  2  0  0  0  0
 34 36  1  0  0  0  0
 34 35  1  0  0  0  0
 34 33  1  0  0  0  0
 35 33  1  0  0  0  0
 36 35  1  0  0  0  0
 37 34  1  0  0  0  0
 38 37  1  0  0  0  0
 39 40  1  0  0  0  0
 39 38  1  0  0  0  0
 40 41  1  0  0  0  0
 40 47  1  0  0  0  0
 41 43  1  0  0  0  0
 41 42  1  0  0  0  0
 44 43  1  0  0  0  0
 45 46  1  0  0  0  0
 46 41  1  0  0  0  0
 49 48  1  0  0  0  0
 49 47  1  0  0  0  0
 50 51  1  0  0  0  0
 51 53  1  0  0  0  0
 52 51  1  0  0  0  0
 53 54  1  0  0  0  0
 54 55  1  0  0  0  0
 55 56  1  0  0  0  0
 56 60  1  0  0  0  0
 57 63  1  0  0  0  0
 57 58  1  0  0  0  0
 59 61  1  0  0  0  0
 60 59  1  0  0  0  0
 62 67  1  0  0  0  0
 63 61  1  0  0  0  0
 64 66  2  0  0  0  0
 65 60  1  0  0  0  0
 65 63  1  0  0  0  0
 66 67  1  0  0  0  0
 66 65  1  0  0  0  0
 67 57  1  0  0  0  0
M  END
>  <MODEL>
5

>  <REMARK>
 VINA RESULT:      -4.3      3.679     11.118
  Name = 
  24 active torsions:
  status: ('A' for Active; 'I' for Inactive)
    1  A    between atoms: C_3  and  C_15
    2  A    between atoms: C_3  and  C_17
    3  A    between atoms: C_3  and  C_27
    4  A    between atoms: O_7  and  C_20
    5  A    between atoms: O_7  and  C_45
    6  A    between atoms: C_8  and  C_31
    7  A    between atoms: N_11  and  C_61
    8  A    between atoms: C_12  and  C_37
    9  A    between atoms: C_12  and  C_49
   10  A    between atoms: O_18  and  C_29
   11  A    between atoms: C_19  and  C_60
   12  A    between atoms: C_20  and  C_27
   13  A    between atoms: C_23  and  C_45
   14  A    between atoms: C_25  and  C_59
   15  A    between atoms: C_27  and  C_59
   16  A    between atoms: C_30  and  C_31
   17  A    between atoms: C_30  and  S_51
   18  A    between atoms: N_34  and  C_42
   19  A    between atoms: N_34  and  C_54
   20  A    between atoms: C_36  and  C_60
   21  A    between atoms: C_37  and  S_51
   22  A    between atoms: N_43  and  C_55
   23  A    between atoms: C_47  and  C_54
   24  A    between atoms: C_49  and  C_60
                            x       y       z     vdW  Elec       q    Type
                         _______ _______ _______ _____ _____    ______ ____

>  <TORSDO>
F 24

$$$$
=
 OpenBabel10222417363D

 67 75  0  0  1  0  0  0  0  0999 V2000
  185.4200  177.8100  136.8430 C   0  0  1  0  0  3  0  0  0  0  0  0
  183.9420  178.6260  143.6870 N   0  0  0  0  0  0  0  0  0  0  0  0
  186.2010  178.1480  143.0730 C   0  0  0  0  0  3  0  0  0  0  0  0
  183.5150  179.2770  139.7230 C   0  0  1  0  0  3  0  0  0  0  0  0
  184.5700  178.7010  140.2550 C   0  0  1  0  0  3  0  0  0  0  0  0
  186.5700  178.3600  144.4110 C   0  0  0  0  0  3  0  0  0  0  0  0
  183.5680  179.1070  138.2410 C   0  0  1  0  0  3  0  0  0  0  0  0
  184.2130  178.1740  141.5500 C   0  0  1  0  0  3  0  0  0  0  0  0
  182.3180  179.2650  140.6450 C   0  0  0  0  0  2  0  0  0  0  0  0
  184.8780  178.3600  138.1340 C   0  0  0  0  0  0  0  0  0  0  0  0
  182.7690  178.8670  143.1200 N   0  0  0  0  0  2  0  0  0  0  0  0
  185.6050  178.7050  145.3770 C   0  0  0  0  0  0  0  0  0  0  0  0
  185.4030  178.0880  139.2890 N   0  0  0  0  0  0  0  0  0  0  0  0
  184.8510  178.2630  142.7620 C   0  0  2  0  0  3  0  0  0  0  0  0
  184.2630  178.8600  144.9820 C   0  0  0  0  0  3  0  0  0  0  0  0
  182.9260  178.5570  141.8130 C   0  0  2  0  0  3  0  0  0  0  0  0
  182.5230  178.2830  137.8150 O   0  0  0  0  0  0  0  0  0  0  0  0
  181.6120  179.1490  137.2050 C   0  0  0  0  0  1  0  0  0  0  0  0
  186.0080  178.9030  146.7350 N   0  0  0  0  0  2  0  0  0  0  0  0
  186.6930  178.0860  148.8030 O   0  0  0  0  0  1  0  0  0  0  0  0
  186.9230  178.0050  147.4280 C   0  0  2  0  0  3  0  0  0  0  0  0
  190.1550  177.8090  148.4530 C   0  0  0  0  0  2  0  0  0  0  0  0
  189.0510  178.6940  148.3180 O   0  0  0  0  0  0  0  0  0  0  0  0
  190.1300  176.8580  147.3640 N   0  0  0  0  0  0  0  0  0  0  0  0
  188.3690  178.3780  147.1140 C   0  0  1  0  0  3  0  0  0  0  0  0
  189.0780  177.2300  146.5200 C   0  0  0  0  0  0  0  0  0  0  0  0
  189.0410  176.8770  144.9210 S   0  0  0  0  0  0  0  0  0  0  0  0
  192.3240  176.0580  148.0710 C   0  0  0  0  0  1  0  0  0  0  0  0
  191.2610  176.0190  146.9890 C   0  0  0  0  0  2  0  0  0  0  0  0
  187.6710  177.4780  135.7560 N   0  0  0  0  0  2  0  0  0  0  0  0
  186.8390  178.2410  136.6270 C   0  0  0  0  0  0  0  0  0  0  0  0
  187.2850  179.2760  137.1940 O   0  0  0  0  0  0  0  0  0  0  0  0
  191.1470  176.4610  135.3170 C   0  0  0  0  0  2  0  0  0  0  0  0
  190.0300  176.8800  136.2500 C   0  0  2  0  0  0  0  0  0  0  0  0
  189.7540  176.6940  134.7690 C   0  0  1  0  0  3  0  0  0  0  0  0
  189.0700  177.8180  135.5200 C   0  0  1  0  0  3  0  0  0  0  0  0
  189.3980  175.6900  136.9690 C   0  0  0  0  0  2  0  0  0  0  0  0
  190.0270  175.4780  138.1970 O   0  0  0  0  0  0  0  0  0  0  0  0
  189.6880  176.5900  138.9700 C   0  0  0  0  0  2  0  0  0  0  0  0
  190.8920  177.0590  139.7880 C   0  0  1  0  0  3  0  0  0  0  0  0
  190.5750  177.2350  141.3000 C   0  0  0  0  0  0  0  0  0  0  0  0
  191.5370  178.2330  141.9260 C   0  0  0  0  0  1  0  0  0  0  0  0
  190.7230  175.9190  142.0700 C   0  0  0  0  0  2  0  0  0  0  0  0
  191.6790  176.0220  143.0850 O   0  0  0  0  0  1  0  0  0  0  0  0
  189.1790  179.0950  141.9870 O   0  0  0  0  0  1  0  0  0  0  0  0
  189.1580  177.7820  141.5090 C   0  0  0  0  0  2  0  0  0  0  0  0
  192.0630  176.1050  139.5540 C   0  0  0  0  0  2  0  0  0  0  0  0
  193.5610  175.7140  137.7290 O   0  0  0  0  0  1  0  0  0  0  0  0
  193.0750  176.7000  138.5890 C   0  0  0  0  0  2  0  0  0  0  0  0
  185.3030  176.2880  136.7710 C   0  0  0  0  0  2  0  0  0  0  0  0
  186.1120  175.7240  135.6110 C   0  0  1  0  0  3  0  0  0  0  0  0
  187.0770  174.8230  136.0690 O   0  0  0  0  0  1  0  0  0  0  0  0
  185.1960  175.0510  134.5950 C   0  0  0  0  0  2  0  0  0  0  0  0
  183.4560  175.0320  135.1420 S   0  0  0  0  0  0  0  0  0  0  0  0
  183.5450  173.2810  135.6010 C   0  0  0  0  0  2  0  0  0  0  0  0
  182.1710  172.6460  135.4500 C   0  0  0  0  0  2  0  0  0  0  0  0
  179.4510  175.0390  138.6450 C   0  0  2  0  0  3  0  0  0  0  0  0
  178.9510  174.3750  139.7720 O   0  0  0  0  0  1  0  0  0  0  0  0
  179.9410  171.5220  136.6560 S   0  0  0  0  0  0  0  0  0  0  0  0
  181.4150  172.5880  136.7770 C   0  0  2  0  0  3  0  0  0  0  0  0
  178.9500  172.7160  137.6160 C   0  0  0  0  0  2  0  0  0  0  0  0
  181.2520  175.4500  140.2380 O   0  0  0  0  0  1  0  0  0  0  0  0
  179.5650  174.0940  137.4240 C   0  0  2  0  0  3  0  0  0  0  0  0
  182.9790  174.7730  138.0520 O   0  0  0  0  0  0  0  0  0  0  0  0
  180.9740  173.9090  137.1830 N   0  0  0  0  0  0  0  0  0  0  0  0
  181.7190  174.7560  138.0340 C   0  0  0  0  0  0  0  0  0  0  0  0
  180.8690  175.5960  138.9010 C   0  0  1  0  0  3  0  0  0  0  0  0
  1 50  1  1  0  0  0
  1 10  1  0  0  0  0
  2 15  1  0  0  0  0
  3  6  2  0  0  0  0
  4  5  1  0  0  0  0
  4  9  1  1  0  0  0
  5 13  1  6  0  0  0
  5  8  1  0  0  0  0
  6 12  1  0  0  0  0
  7 17  1  1  0  0  0
  7  4  1  0  0  0  0
  8 16  1  0  0  0  0
  8 14  1  0  0  0  0
  9 16  1  0  0  0  0
 10  7  1  0  0  0  0
 10 13  2  0  0  0  0
 11  2  1  0  0  0  0
 12 19  1  0  0  0  0
 14  3  1  0  0  0  0
 14  2  1  0  0  0  0
 15 12  2  0  0  0  0
 16 11  1  0  0  0  0
 18 17  1  0  0  0  0
 19 21  1  0  0  0  0
 21 20  1  0  0  0  0
 23 22  1  0  0  0  0
 24 22  1  0  0  0  0
 25 21  1  0  0  0  0
 25 23  1  0  0  0  0
 26 25  1  0  0  0  0
 26 24  1  0  0  0  0
 27 26  2  0  0  0  0
 29 24  1  0  0  0  0
 29 28  1  0  0  0  0
 30 31  1  0  0  0  0
 31  1  1  0  0  0  0
 31 32  2  0  0  0  0
 33 34  1  0  0  0  0
 34 37  1  0  0  0  0
 35 33  1  0  0  0  0
 35 36  1  0  0  0  0
 35 34  1  0  0  0  0
 36 30  1  0  0  0  0
 36 34  1  0  0  0  0
 37 38  1  0  0  0  0
 38 39  1  0  0  0  0
 39 40  1  0  0  0  0
 40 41  1  0  0  0  0
 41 46  1  0  0  0  0
 41 42  1  0  0  0  0
 41 43  1  0  0  0  0
 43 44  1  0  0  0  0
 46 45  1  0  0  0  0
 47 40  1  0  0  0  0
 48 49  1  0  0  0  0
 49 47  1  0  0  0  0
 51 52  1  0  0  0  0
 51 50  1  0  0  0  0
 53 54  1  0  0  0  0
 53 51  1  0  0  0  0
 54 55  1  0  0  0  0
 56 55  1  0  0  0  0
 56 60  1  0  0  0  0
 57 67  1  0  0  0  0
 57 58  1  0  0  0  0
 59 60  1  0  0  0  0
 59 61  1  0  0  0  0
 60 65  1  0  0  0  0
 63 61  1  0  0  0  0
 63 57  1  0  0  0  0
 65 63  1  0  0  0  0
 65 66  1  0  0  0  0
 66 64  2  0  0  0  0
 66 67  1  0  0  0  0
 67 62  1  0  0  0  0
M  END
>  <MODEL>
6

>  <REMARK>
 VINA RESULT:      -4.3      4.082     10.827
  Name = 
  24 active torsions:
  status: ('A' for Active; 'I' for Inactive)
    1  A    between atoms: C_3  and  C_15
    2  A    between atoms: C_3  and  C_17
    3  A    between atoms: C_3  and  C_27
    4  A    between atoms: O_7  and  C_20
    5  A    between atoms: O_7  and  C_45
    6  A    between atoms: C_8  and  C_31
    7  A    between atoms: N_11  and  C_61
    8  A    between atoms: C_12  and  C_37
    9  A    between atoms: C_12  and  C_49
   10  A    between atoms: O_18  and  C_29
   11  A    between atoms: C_19  and  C_60
   12  A    between atoms: C_20  and  C_27
   13  A    between atoms: C_23  and  C_45
   14  A    between atoms: C_25  and  C_59
   15  A    between atoms: C_27  and  C_59
   16  A    between atoms: C_30  and  C_31
   17  A    between atoms: C_30  and  S_51
   18  A    between atoms: N_34  and  C_42
   19  A    between atoms: N_34  and  C_54
   20  A    between atoms: C_36  and  C_60
   21  A    between atoms: C_37  and  S_51
   22  A    between atoms: N_43  and  C_55
   23  A    between atoms: C_47  and  C_54
   24  A    between atoms: C_49  and  C_60
                            x       y       z     vdW  Elec       q    Type
                         _______ _______ _______ _____ _____    ______ ____

>  <TORSDO>
F 24

$$$$
=
 OpenBabel10222417363D

 67 75  0  0  1  0  0  0  0  0999 V2000
  189.8910  176.7030  144.3810 C   0  0  1  0  0  3  0  0  0  0  0  0
  183.2910  179.1690  144.1460 N   0  0  0  0  0  0  0  0  0  0  0  0
  184.1920  178.1780  142.1680 C   0  0  0  0  0  3  0  0  0  0  0  0
  186.5460  177.5120  145.8740 C   0  0  1  0  0  3  0  0  0  0  0  0
  186.3830  177.6090  144.5730 C   0  0  1  0  0  3  0  0  0  0  0  0
  182.9210  178.2820  141.5820 C   0  0  0  0  0  3  0  0  0  0  0  0
  187.9550  177.1100  146.1560 C   0  0  1  0  0  3  0  0  0  0  0  0
  185.4250  178.6520  144.2970 C   0  0  1  0  0  3  0  0  0  0  0  0
  185.6470  178.4510  146.6440 C   0  0  0  0  0  2  0  0  0  0  0  0
  188.4570  176.9910  144.7360 C   0  0  0  0  0  0  0  0  0  0  0  0
  183.6220  179.3840  145.4120 N   0  0  0  0  0  2  0  0  0  0  0  0
  181.8420  178.8360  142.2980 C   0  0  0  0  0  0  0  0  0  0  0  0
  187.5700  177.3340  143.8530 N   0  0  0  0  0  0  0  0  0  0  0  0
  184.3370  178.6720  143.4600 C   0  0  2  0  0  3  0  0  0  0  0  0
  182.0450  179.2650  143.6230 C   0  0  0  0  0  3  0  0  0  0  0  0
  184.9410  179.1000  145.4960 C   0  0  2  0  0  3  0  0  0  0  0  0
  188.6290  178.1470  146.8070 O   0  0  0  0  0  0  0  0  0  0  0  0
  188.9330  177.6390  148.0720 C   0  0  0  0  0  1  0  0  0  0  0  0
  180.5610  178.9410  141.6710 N   0  0  0  0  0  2  0  0  0  0  0  0
  179.7210  181.0180  141.0420 O   0  0  0  0  0  1  0  0  0  0  0  0
  180.2960  179.8420  140.5570 C   0  0  2  0  0  3  0  0  0  0  0  0
  179.3270  179.6950  137.3050 C   0  0  0  0  0  2  0  0  0  0  0  0
  178.9310  180.1360  138.5960 O   0  0  0  0  0  0  0  0  0  0  0  0
  180.0970  178.4780  137.4410 N   0  0  0  0  0  0  0  0  0  0  0  0
  179.3620  179.1770  139.5500 C   0  0  1  0  0  3  0  0  0  0  0  0
  180.0790  178.1310  138.7970 C   0  0  0  0  0  0  0  0  0  0  0  0
  180.2540  176.5940  139.3340 S   0  0  0  0  0  0  0  0  0  0  0  0
  181.3020  178.2460  135.3320 C   0  0  0  0  0  1  0  0  0  0  0  0
  180.3890  177.5710  136.3390 C   0  0  0  0  0  2  0  0  0  0  0  0
  189.4230  176.7230  141.9030 N   0  0  0  0  0  2  0  0  0  0  0  0
  189.9930  176.0610  143.0310 C   0  0  0  0  0  0  0  0  0  0  0  0
  190.5900  174.9590  142.8910 O   0  0  0  0  0  0  0  0  0  0  0  0
  189.7010  177.1280  138.2880 C   0  0  0  0  0  2  0  0  0  0  0  0
  188.8200  177.0620  139.5180 C   0  0  2  0  0  0  0  0  0  0  0  0
  190.3300  176.9950  139.6590 C   0  0  1  0  0  3  0  0  0  0  0  0
  189.4570  176.1470  140.5630 C   0  0  1  0  0  3  0  0  0  0  0  0
  188.3930  178.4460  140.0010 C   0  0  0  0  0  2  0  0  0  0  0  0
  187.1260  178.7600  139.5070 O   0  0  0  0  0  0  0  0  0  0  0  0
  186.9340  177.8880  138.4340 C   0  0  0  0  0  2  0  0  0  0  0  0
  185.5590  178.1130  137.8030 C   0  0  1  0  0  3  0  0  0  0  0  0
  184.9780  176.8380  137.1290 C   0  0  0  0  0  0  0  0  0  0  0  0
  184.8260  177.0560  135.6320 C   0  0  0  0  0  1  0  0  0  0  0  0
  183.5910  176.4850  137.6780 C   0  0  0  0  0  2  0  0  0  0  0  0
  183.4000  175.1020  137.7420 O   0  0  0  0  0  1  0  0  0  0  0  0
  186.6630  175.3830  136.1670 O   0  0  0  0  0  1  0  0  0  0  0  0
  185.9110  175.6370  137.3180 C   0  0  0  0  0  2  0  0  0  0  0  0
  184.6100  178.6900  138.8540 C   0  0  0  0  0  2  0  0  0  0  0  0
  182.8750  180.3370  138.8920 O   0  0  0  0  0  1  0  0  0  0  0  0
  184.1950  180.1090  138.5010 C   0  0  0  0  0  2  0  0  0  0  0  0
  190.7640  177.9550  144.4490 C   0  0  0  0  0  2  0  0  0  0  0  0
  190.9400  178.5840  143.0740 C   0  0  1  0  0  3  0  0  0  0  0  0
  190.6440  179.9490  143.1090 O   0  0  0  0  0  1  0  0  0  0  0  0
  192.3580  178.3600  142.5590 C   0  0  0  0  0  2  0  0  0  0  0  0
  192.3770  177.5890  140.9060 S   0  0  0  0  0  0  0  0  0  0  0  0
  194.0060  176.8500  141.1910 C   0  0  0  0  0  2  0  0  0  0  0  0
  194.7660  176.7710  139.8760 C   0  0  0  0  0  2  0  0  0  0  0  0
  195.0390  173.6470  136.2020 C   0  0  2  0  0  3  0  0  0  0  0  0
  195.4100  172.3190  136.4410 O   0  0  0  0  0  1  0  0  0  0  0  0
  196.7760  174.8720  139.6730 S   0  0  0  0  0  0  0  0  0  0  0  0
  195.0250  175.3280  139.4470 C   0  0  2  0  0  3  0  0  0  0  0  0
  196.7960  173.9980  138.0710 C   0  0  0  0  0  2  0  0  0  0  0  0
  192.8520  172.6380  136.5780 O   0  0  0  0  0  1  0  0  0  0  0  0
  195.7300  174.6240  137.1840 C   0  0  2  0  0  3  0  0  0  0  0  0
  192.3560  174.9560  138.1900 O   0  0  0  0  0  0  0  0  0  0  0  0
  194.6940  175.1330  138.0480 N   0  0  0  0  0  0  0  0  0  0  0  0
  193.4340  174.6810  137.5980 C   0  0  0  0  0  0  0  0  0  0  0  0
  193.5180  173.8500  136.3800 C   0  0  1  0  0  3  0  0  0  0  0  0
  1 50  1  6  0  0  0
  1 10  1  0  0  0  0
  2 11  1  0  0  0  0
  3 14  1  0  0  0  0
  4  7  1  0  0  0  0
  4  9  1  1  0  0  0
  5 13  1  6  0  0  0
  5  4  1  0  0  0  0
  6  3  2  0  0  0  0
  6 12  1  0  0  0  0
  7 17  1  1  0  0  0
  8  5  1  0  0  0  0
  8 16  1  0  0  0  0
 10  7  1  0  0  0  0
 11 16  1  0  0  0  0
 12 15  2  0  0  0  0
 13 10  2  0  0  0  0
 14  2  1  0  0  0  0
 14  8  1  0  0  0  0
 15  2  1  0  0  0  0
 16  9  1  0  0  0  0
 17 18  1  0  0  0  0
 19 12  1  0  0  0  0
 21 20  1  0  0  0  0
 21 19  1  0  0  0  0
 22 24  1  0  0  0  0
 22 23  1  0  0  0  0
 23 25  1  0  0  0  0
 24 26  1  0  0  0  0
 25 21  1  0  0  0  0
 26 27  2  0  0  0  0
 26 25  1  0  0  0  0
 28 29  1  0  0  0  0
 29 24  1  0  0  0  0
 30 31  1  0  0  0  0
 31  1  1  0  0  0  0
 32 31  2  0  0  0  0
 33 34  1  0  0  0  0
 33 35  1  0  0  0  0
 34 35  1  0  0  0  0
 34 37  1  0  0  0  0
 34 36  1  0  0  0  0
 35 36  1  0  0  0  0
 36 30  1  0  0  0  0
 38 37  1  0  0  0  0
 39 38  1  0  0  0  0
 40 39  1  0  0  0  0
 40 47  1  0  0  0  0
 41 46  1  0  0  0  0
 41 43  1  0  0  0  0
 41 40  1  0  0  0  0
 42 41  1  0  0  0  0
 43 44  1  0  0  0  0
 45 46  1  0  0  0  0
 49 47  1  0  0  0  0
 49 48  1  0  0  0  0
 51 52  1  0  0  0  0
 51 50  1  0  0  0  0
 53 51  1  0  0  0  0
 54 55  1  0  0  0  0
 54 53  1  0  0  0  0
 56 55  1  0  0  0  0
 57 67  1  0  0  0  0
 57 58  1  0  0  0  0
 57 63  1  0  0  0  0
 60 59  1  0  0  0  0
 60 56  1  0  0  0  0
 61 59  1  0  0  0  0
 63 65  1  0  0  0  0
 63 61  1  0  0  0  0
 65 60  1  0  0  0  0
 66 65  1  0  0  0  0
 66 64  2  0  0  0  0
 67 62  1  0  0  0  0
 67 66  1  0  0  0  0
M  END
>  <MODEL>
7

>  <REMARK>
 VINA RESULT:      -3.9      2.878      5.960
  Name = 
  24 active torsions:
  status: ('A' for Active; 'I' for Inactive)
    1  A    between atoms: C_3  and  C_15
    2  A    between atoms: C_3  and  C_17
    3  A    between atoms: C_3  and  C_27
    4  A    between atoms: O_7  and  C_20
    5  A    between atoms: O_7  and  C_45
    6  A    between atoms: C_8  and  C_31
    7  A    between atoms: N_11  and  C_61
    8  A    between atoms: C_12  and  C_37
    9  A    between atoms: C_12  and  C_49
   10  A    between atoms: O_18  and  C_29
   11  A    between atoms: C_19  and  C_60
   12  A    between atoms: C_20  and  C_27
   13  A    between atoms: C_23  and  C_45
   14  A    between atoms: C_25  and  C_59
   15  A    between atoms: C_27  and  C_59
   16  A    between atoms: C_30  and  C_31
   17  A    between atoms: C_30  and  S_51
   18  A    between atoms: N_34  and  C_42
   19  A    between atoms: N_34  and  C_54
   20  A    between atoms: C_36  and  C_60
   21  A    between atoms: C_37  and  S_51
   22  A    between atoms: N_43  and  C_55
   23  A    between atoms: C_47  and  C_54
   24  A    between atoms: C_49  and  C_60
                            x       y       z     vdW  Elec       q    Type
                         _______ _______ _______ _____ _____    ______ ____

>  <TORSDO>
F 24

$$$$
=
 OpenBabel10222417363D

 67 75  0  0  1  0  0  0  0  0999 V2000
  188.5480  175.2650  136.0930 C   0  0  1  0  0  3  0  0  0  0  0  0
  191.3900  177.3160  142.2090 N   0  0  0  0  0  0  0  0  0  0  0  0
  189.4280  175.9550  142.2800 C   0  0  0  0  0  3  0  0  0  0  0  0
  191.4100  176.2320  138.3170 C   0  0  1  0  0  3  0  0  0  0  0  0
  190.3900  176.0310  139.1220 C   0  0  1  0  0  3  0  0  0  0  0  0
  189.5840  175.8690  143.6730 C   0  0  0  0  0  3  0  0  0  0  0  0
  190.9770  175.9660  136.9140 C   0  0  1  0  0  3  0  0  0  0  0  0
  190.4870  176.9420  140.2370 C   0  0  1  0  0  3  0  0  0  0  0  0
  192.3690  177.2750  138.8410 C   0  0  0  0  0  2  0  0  0  0  0  0
  189.5460  175.5600  137.1790 C   0  0  0  0  0  0  0  0  0  0  0  0
  192.2400  177.8210  141.3250 N   0  0  0  0  0  2  0  0  0  0  0  0
  190.6550  176.5180  144.3180 C   0  0  0  0  0  0  0  0  0  0  0  0
  189.2140  175.6580  138.4300 N   0  0  0  0  0  0  0  0  0  0  0  0
  190.3520  176.7280  141.5860 C   0  0  2  0  0  3  0  0  0  0  0  0
  191.5870  177.2380  143.5470 C   0  0  0  0  0  3  0  0  0  0  0  0
  191.6690  177.6220  140.1160 C   0  0  2  0  0  3  0  0  0  0  0  0
  190.9980  177.1510  136.1730 O   0  0  0  0  0  0  0  0  0  0  0  0
  191.7910  176.8630  135.0600 C   0  0  0  0  0  1  0  0  0  0  0  0
  190.7820  176.4240  145.7390 N   0  0  0  0  0  2  0  0  0  0  0  0
  191.3180  177.6280  147.6560 O   0  0  0  0  0  1  0  0  0  0  0  0
  190.3670  177.4890  146.6440 C   0  0  2  0  0  3  0  0  0  0  0  0
  187.7030  178.7150  148.3560 C   0  0  0  0  0  2  0  0  0  0  0  0
  188.8430  177.8750  148.4670 O   0  0  0  0  0  0  0  0  0  0  0  0
  187.1710  178.6100  147.0150 N   0  0  0  0  0  0  0  0  0  0  0  0
  189.0010  177.1700  147.2450 C   0  0  1  0  0  3  0  0  0  0  0  0
  187.9250  177.6360  146.3510 C   0  0  0  0  0  0  0  0  0  0  0  0
  187.3480  176.7520  145.0990 S   0  0  0  0  0  0  0  0  0  0  0  0
  184.8070  178.0080  146.9790 C   0  0  0  0  0  1  0  0  0  0  0  0
  185.8410  179.0610  146.6280 C   0  0  0  0  0  2  0  0  0  0  0  0
  190.2890  173.6040  135.3400 N   0  0  0  0  0  2  0  0  0  0  0  0
  188.9300  174.0350  135.3280 C   0  0  0  0  0  0  0  0  0  0  0  0
  188.0570  173.3780  134.6970 O   0  0  0  0  0  0  0  0  0  0  0  0
  192.0640  170.4200  135.2230 C   0  0  0  0  0  2  0  0  0  0  0  0
  192.1010  171.9270  135.0770 C   0  0  2  0  0  0  0  0  0  0  0  0
  190.8250  171.2360  135.5230 C   0  0  1  0  0  3  0  0  0  0  0  0
  190.7420  172.4340  134.5970 C   0  0  1  0  0  3  0  0  0  0  0  0
  192.6820  172.6150  136.3100 C   0  0  0  0  0  2  0  0  0  0  0  0
  193.5150  173.6670  135.9280 O   0  0  0  0  0  0  0  0  0  0  0  0
  194.2010  173.1930  134.8080 C   0  0  0  0  0  2  0  0  0  0  0  0
  195.6560  173.6630  134.8340 C   0  0  1  0  0  3  0  0  0  0  0  0
  195.9050  174.8340  135.8250 C   0  0  0  0  0  0  0  0  0  0  0  0
  196.0910  174.2990  137.2360 C   0  0  0  0  0  1  0  0  0  0  0  0
  194.7230  175.8100  135.8640 C   0  0  0  0  0  2  0  0  0  0  0  0
  195.1550  177.1380  135.9080 O   0  0  0  0  0  1  0  0  0  0  0  0
  197.9870  175.8210  136.5840 O   0  0  0  0  0  1  0  0  0  0  0  0
  197.1790  175.6050  135.4630 C   0  0  0  0  0  2  0  0  0  0  0  0
  196.5670  172.4680  135.1160 C   0  0  0  0  0  2  0  0  0  0  0  0
  196.1710  170.8630  136.8470 O   0  0  0  0  0  1  0  0  0  0  0  0
  195.7650  171.2600  135.5710 C   0  0  0  0  0  2  0  0  0  0  0  0
  187.1250  175.1420  136.6360 C   0  0  0  0  0  2  0  0  0  0  0  0
  186.3540  176.4450  136.4710 C   0  0  1  0  0  3  0  0  0  0  0  0
  186.2880  176.8180  135.1260 O   0  0  0  0  0  1  0  0  0  0  0  0
  184.9530  176.3170  137.0580 C   0  0  0  0  0  2  0  0  0  0  0  0
  183.7220  175.8280  135.8030 S   0  0  0  0  0  0  0  0  0  0  0  0
  182.3800  175.8150  137.0200 C   0  0  0  0  0  2  0  0  0  0  0  0
  182.5290  177.0070  137.9520 C   0  0  0  0  0  2  0  0  0  0  0  0
  179.7430  178.3370  141.6670 C   0  0  2  0  0  3  0  0  0  0  0  0
  179.6750  177.5340  142.8120 O   0  0  0  0  0  1  0  0  0  0  0  0
  181.0090  175.2000  139.4060 S   0  0  0  0  0  0  0  0  0  0  0  0
  182.0590  176.6890  139.3710 C   0  0  2  0  0  3  0  0  0  0  0  0
  179.8560  175.9910  140.5790 C   0  0  0  0  0  2  0  0  0  0  0  0
  181.5490  179.3000  142.9930 O   0  0  0  0  0  1  0  0  0  0  0  0
  179.9540  177.4970  140.3850 C   0  0  2  0  0  3  0  0  0  0  0  0
  183.0210  179.2520  140.5330 O   0  0  0  0  0  0  0  0  0  0  0  0
  181.2880  177.7880  139.9230 N   0  0  0  0  0  0  0  0  0  0  0  0
  181.8490  178.8220  140.7050 C   0  0  0  0  0  0  0  0  0  0  0  0
  180.9270  179.3270  141.7420 C   0  0  1  0  0  3  0  0  0  0  0  0
  1 50  1  1  0  0  0
  1 10  1  0  0  0  0
  2 15  1  0  0  0  0
  3  6  2  0  0  0  0
  4  9  1  6  0  0  0
  4  5  1  0  0  0  0
  5 13  1  6  0  0  0
  5  8  1  0  0  0  0
  6 12  1  0  0  0  0
  7 17  1  6  0  0  0
  7 10  1  0  0  0  0
  7  4  1  0  0  0  0
  8 14  1  0  0  0  0
  9 16  1  0  0  0  0
 10 13  2  0  0  0  0
 11  2  1  0  0  0  0
 12 19  1  0  0  0  0
 14  2  1  0  0  0  0
 14  3  1  0  0  0  0
 15 12  2  0  0  0  0
 16  8  1  0  0  0  0
 16 11  1  0  0  0  0
 18 17  1  0  0  0  0
 19 21  1  0  0  0  0
 21 25  1  0  0  0  0
 21 20  1  0  0  0  0
 22 23  1  0  0  0  0
 24 22  1  0  0  0  0
 25 23  1  0  0  0  0
 26 24  1  0  0  0  0
 26 25  1  0  0  0  0
 27 26  2  0  0  0  0
 29 28  1  0  0  0  0
 29 24  1  0  0  0  0
 31 30  1  0  0  0  0
 31  1  1  0  0  0  0
 32 31  2  0  0  0  0
 33 35  1  0  0  0  0
 34 33  1  0  0  0  0
 34 35  1  0  0  0  0
 34 37  1  0  0  0  0
 36 34  1  0  0  0  0
 36 30  1  0  0  0  0
 36 35  1  0  0  0  0
 38 37  1  0  0  0  0
 39 40  1  0  0  0  0
 39 38  1  0  0  0  0
 40 47  1  0  0  0  0
 40 41  1  0  0  0  0
 41 43  1  0  0  0  0
 41 42  1  0  0  0  0
 43 44  1  0  0  0  0
 46 41  1  0  0  0  0
 46 45  1  0  0  0  0
 47 49  1  0  0  0  0
 49 48  1  0  0  0  0
 51 50  1  0  0  0  0
 51 53  1  0  0  0  0
 52 51  1  0  0  0  0
 54 55  1  0  0  0  0
 54 53  1  0  0  0  0
 55 56  1  0  0  0  0
 56 60  1  0  0  0  0
 57 67  1  0  0  0  0
 57 58  1  0  0  0  0
 59 61  1  0  0  0  0
 60 59  1  0  0  0  0
 60 65  1  0  0  0  0
 63 61  1  0  0  0  0
 63 57  1  0  0  0  0
 64 66  2  0  0  0  0
 65 63  1  0  0  0  0
 65 66  1  0  0  0  0
 66 67  1  0  0  0  0
 67 62  1  0  0  0  0
M  END
>  <MODEL>
8

>  <REMARK>
 VINA RESULT:      -3.9      3.713     12.512
  Name = 
  24 active torsions:
  status: ('A' for Active; 'I' for Inactive)
    1  A    between atoms: C_3  and  C_15
    2  A    between atoms: C_3  and  C_17
    3  A    between atoms: C_3  and  C_27
    4  A    between atoms: O_7  and  C_20
    5  A    between atoms: O_7  and  C_45
    6  A    between atoms: C_8  and  C_31
    7  A    between atoms: N_11  and  C_61
    8  A    between atoms: C_12  and  C_37
    9  A    between atoms: C_12  and  C_49
   10  A    between atoms: O_18  and  C_29
   11  A    between atoms: C_19  and  C_60
   12  A    between atoms: C_20  and  C_27
   13  A    between atoms: C_23  and  C_45
   14  A    between atoms: C_25  and  C_59
   15  A    between atoms: C_27  and  C_59
   16  A    between atoms: C_30  and  C_31
   17  A    between atoms: C_30  and  S_51
   18  A    between atoms: N_34  and  C_42
   19  A    between atoms: N_34  and  C_54
   20  A    between atoms: C_36  and  C_60
   21  A    between atoms: C_37  and  S_51
   22  A    between atoms: N_43  and  C_55
   23  A    between atoms: C_47  and  C_54
   24  A    between atoms: C_49  and  C_60
                            x       y       z     vdW  Elec       q    Type
                         _______ _______ _______ _____ _____    ______ ____

>  <TORSDO>
F 24

$$$$
=
 OpenBabel10222417363D

 67 75  0  0  1  0  0  0  0  0999 V2000
  189.4580  176.7590  144.2250 C   0  0  1  0  0  3  0  0  0  0  0  0
  182.8640  179.2080  143.7660 N   0  0  0  0  0  0  0  0  0  0  0  0
  183.8880  178.3550  141.7830 C   0  0  0  0  0  3  0  0  0  0  0  0
  186.0250  177.4530  145.5690 C   0  0  1  0  0  3  0  0  0  0  0  0
  185.9390  177.6360  144.2700 C   0  0  1  0  0  3  0  0  0  0  0  0
  182.6520  178.4930  141.1310 C   0  0  0  0  0  3  0  0  0  0  0  0
  187.4190  177.0390  145.9060 C   0  0  1  0  0  3  0  0  0  0  0  0
  184.9900  178.6910  144.0070 C   0  0  1  0  0  3  0  0  0  0  0  0
  185.0750  178.3340  146.3450 C   0  0  0  0  0  2  0  0  0  0  0  0
  188.0040  177.0170  144.5140 C   0  0  0  0  0  0  0  0  0  0  0  0
  183.1190  179.3400  145.0610 N   0  0  0  0  0  2  0  0  0  0  0  0
  181.5290  178.9940  141.8170 C   0  0  0  0  0  0  0  0  0  0  0  0
  187.1680  177.4140  143.6040 N   0  0  0  0  0  0  0  0  0  0  0  0
  183.9520  178.7620  143.1110 C   0  0  2  0  0  3  0  0  0  0  0  0
  181.6500  179.3340  143.1770 C   0  0  0  0  0  3  0  0  0  0  0  0
  184.4330  179.0550  145.2030 C   0  0  2  0  0  3  0  0  0  0  0  0
  188.0450  178.0330  146.6630 O   0  0  0  0  0  0  0  0  0  0  0  0
  187.6070  177.8150  147.9710 C   0  0  0  0  0  1  0  0  0  0  0  0
  180.2860  179.1350  141.1240 N   0  0  0  0  0  2  0  0  0  0  0  0
  179.8610  180.6250  139.3890 O   0  0  0  0  0  1  0  0  0  0  0  0
  180.2000  179.3030  139.6790 C   0  0  2  0  0  3  0  0  0  0  0  0
  179.2380  177.5280  136.9480 C   0  0  0  0  0  2  0  0  0  0  0  0
  178.9310  178.6720  137.7330 O   0  0  0  0  0  0  0  0  0  0  0  0
  179.7470  176.4870  137.8140 N   0  0  0  0  0  0  0  0  0  0  0  0
  179.1570  178.3530  139.0970 C   0  0  1  0  0  3  0  0  0  0  0  0
  179.6530  176.9650  139.1260 C   0  0  0  0  0  0  0  0  0  0  0  0
  179.5140  175.9840  140.4310 S   0  0  0  0  0  0  0  0  0  0  0  0
  178.9480  174.7960  136.2480 C   0  0  0  0  0  1  0  0  0  0  0  0
  179.8570  175.0870  137.4270 C   0  0  0  0  0  2  0  0  0  0  0  0
  189.1730  177.2410  141.7660 N   0  0  0  0  0  2  0  0  0  0  0  0
  189.6640  176.3780  142.7910 C   0  0  0  0  0  0  0  0  0  0  0  0
  190.2790  175.3180  142.4930 O   0  0  0  0  0  0  0  0  0  0  0  0
  188.6840  178.1250  138.2620 C   0  0  0  0  0  2  0  0  0  0  0  0
  188.1490  177.4650  139.5150 C   0  0  2  0  0  0  0  0  0  0  0  0
  189.4780  178.1980  139.5490 C   0  0  1  0  0  3  0  0  0  0  0  0
  189.3090  176.9220  140.3500 C   0  0  1  0  0  3  0  0  0  0  0  0
  187.1420  178.3460  140.2500 C   0  0  0  0  0  2  0  0  0  0  0  0
  186.1650  178.8040  139.3640 O   0  0  0  0  0  0  0  0  0  0  0  0
  185.2510  177.7550  139.2650 C   0  0  0  0  0  2  0  0  0  0  0  0
  185.2080  177.2150  137.8350 C   0  0  1  0  0  3  0  0  0  0  0  0
  183.9430  176.3630  137.5370 C   0  0  0  0  0  0  0  0  0  0  0  0
  183.1590  176.1210  138.8180 C   0  0  0  0  0  1  0  0  0  0  0  0
  184.3030  174.9890  136.9610 C   0  0  0  0  0  2  0  0  0  0  0  0
  184.4360  174.0280  137.9670 O   0  0  0  0  0  1  0  0  0  0  0  0
  182.4960  176.2120  135.5970 O   0  0  0  0  0  1  0  0  0  0  0  0
  183.0050  177.0840  136.5630 C   0  0  0  0  0  2  0  0  0  0  0  0
  185.3610  178.3770  136.8530 C   0  0  0  0  0  2  0  0  0  0  0  0
  186.7160  176.9210  135.5220 O   0  0  0  0  0  1  0  0  0  0  0  0
  186.6170  178.2250  136.0110 C   0  0  0  0  0  2  0  0  0  0  0  0
  190.3390  177.9510  144.5970 C   0  0  0  0  0  2  0  0  0  0  0  0
  191.0380  178.5270  143.3740 C   0  0  1  0  0  3  0  0  0  0  0  0
  191.6740  179.7330  143.6850 O   0  0  0  0  0  1  0  0  0  0  0  0
  192.0410  177.5280  142.8080 C   0  0  0  0  0  2  0  0  0  0  0  0
  193.1560  178.2890  141.5820 S   0  0  0  0  0  0  0  0  0  0  0  0
  192.6690  177.1070  140.2980 C   0  0  0  0  0  2  0  0  0  0  0  0
  193.8970  176.3590  139.8040 C   0  0  0  0  0  2  0  0  0  0  0  0
  194.2470  172.9840  136.3670 C   0  0  2  0  0  3  0  0  0  0  0  0
  193.9920  173.3180  135.0310 O   0  0  0  0  0  1  0  0  0  0  0  0
  192.1100  176.1840  137.6910 S   0  0  0  0  0  0  0  0  0  0  0  0
  193.8190  176.0490  138.3100 C   0  0  2  0  0  3  0  0  0  0  0  0
  192.3120  174.6740  136.6870 C   0  0  0  0  0  2  0  0  0  0  0  0
  196.4850  173.6170  135.6310 O   0  0  0  0  0  1  0  0  0  0  0  0
  193.3820  173.8160  137.3440 C   0  0  2  0  0  3  0  0  0  0  0  0
  196.6090  175.0380  138.1190 O   0  0  0  0  0  0  0  0  0  0  0  0
  194.2850  174.7030  138.0330 N   0  0  0  0  0  0  0  0  0  0  0  0
  195.6180  174.3940  137.6810 C   0  0  0  0  0  0  0  0  0  0  0  0
  195.7200  173.2570  136.7450 C   0  0  1  0  0  3  0  0  0  0  0  0
  1 10  1  0  0  0  0
  1 50  1  6  0  0  0
  2 11  1  0  0  0  0
  3 14  1  0  0  0  0
  4  7  1  0  0  0  0
  4  9  1  1  0  0  0
  5 13  1  1  0  0  0
  5  4  1  0  0  0  0
  6  3  2  0  0  0  0
  6 12  1  0  0  0  0
  7 17  1  1  0  0  0
  8  5  1  0  0  0  0
  8 16  1  0  0  0  0
 10  7  1  0  0  0  0
 11 16  1  0  0  0  0
 12 15  2  0  0  0  0
 13 10  2  0  0  0  0
 14  2  1  0  0  0  0
 14  8  1  0  0  0  0
 15  2  1  0  0  0  0
 16  9  1  0  0  0  0
 17 18  1  0  0  0  0
 19 12  1  0  0  0  0
 20 21  1  0  0  0  0
 21 19  1  0  0  0  0
 22 23  1  0  0  0  0
 22 24  1  0  0  0  0
 23 25  1  0  0  0  0
 24 26  1  0  0  0  0
 25 26  1  0  0  0  0
 25 21  1  0  0  0  0
 26 27  2  0  0  0  0
 28 29  1  0  0  0  0
 29 24  1  0  0  0  0
 30 31  1  0  0  0  0
 31  1  1  0  0  0  0
 32 31  2  0  0  0  0
 33 34  1  0  0  0  0
 33 35  1  0  0  0  0
 34 35  1  0  0  0  0
 34 37  1  0  0  0  0
 34 36  1  0  0  0  0
 35 36  1  0  0  0  0
 36 30  1  0  0  0  0
 38 37  1  0  0  0  0
 39 38  1  0  0  0  0
 40 39  1  0  0  0  0
 41 40  1  0  0  0  0
 41 42  1  0  0  0  0
 43 41  1  0  0  0  0
 43 44  1  0  0  0  0
 45 46  1  0  0  0  0
 46 41  1  0  0  0  0
 47 40  1  0  0  0  0
 48 49  1  0  0  0  0
 49 47  1  0  0  0  0
 51 52  1  0  0  0  0
 51 50  1  0  0  0  0
 53 51  1  0  0  0  0
 54 53  1  0  0  0  0
 55 54  1  0  0  0  0
 56 55  1  0  0  0  0
 57 67  1  0  0  0  0
 57 63  1  0  0  0  0
 58 57  1  0  0  0  0
 59 60  1  0  0  0  0
 60 56  1  0  0  0  0
 61 63  1  0  0  0  0
 61 59  1  0  0  0  0
 62 67  1  0  0  0  0
 63 65  1  0  0  0  0
 65 60  1  0  0  0  0
 66 65  1  0  0  0  0
 66 64  2  0  0  0  0
 67 66  1  0  0  0  0
M  END
>  <MODEL>
9

>  <REMARK>
 VINA RESULT:      -3.9      3.044      6.247
  Name = 
  24 active torsions:
  status: ('A' for Active; 'I' for Inactive)
    1  A    between atoms: C_3  and  C_15
    2  A    between atoms: C_3  and  C_17
    3  A    between atoms: C_3  and  C_27
    4  A    between atoms: O_7  and  C_20
    5  A    between atoms: O_7  and  C_45
    6  A    between atoms: C_8  and  C_31
    7  A    between atoms: N_11  and  C_61
    8  A    between atoms: C_12  and  C_37
    9  A    between atoms: C_12  and  C_49
   10  A    between atoms: O_18  and  C_29
   11  A    between atoms: C_19  and  C_60
   12  A    between atoms: C_20  and  C_27
   13  A    between atoms: C_23  and  C_45
   14  A    between atoms: C_25  and  C_59
   15  A    between atoms: C_27  and  C_59
   16  A    between atoms: C_30  and  C_31
   17  A    between atoms: C_30  and  S_51
   18  A    between atoms: N_34  and  C_42
   19  A    between atoms: N_34  and  C_54
   20  A    between atoms: C_36  and  C_60
   21  A    between atoms: C_37  and  S_51
   22  A    between atoms: N_43  and  C_55
   23  A    between atoms: C_47  and  C_54
   24  A    between atoms: C_49  and  C_60
                            x       y       z     vdW  Elec       q    Type
                         _______ _______ _______ _____ _____    ______ ____

>  <TORSDO>
F 24

$$$$
