=
 OpenBabel10222419433D

 54 59  0  0  1  0  0  0  0  0999 V2000
  185.3460  175.3310  135.8150 C   0  0  0  0  0  2  0  0  0  0  0  0
  184.4930  172.6700  136.4960 C   0  0  0  0  0  2  0  0  0  0  0  0
  185.8980  174.7590  137.1260 C   0  0  2  0  0  3  0  0  0  0  0  0
  182.1800  173.3290  135.9490 C   0  0  2  0  0  3  0  0  0  0  0  0
  180.9930  174.8000  137.6210 N   0  0  0  0  0  0  0  0  0  0  0  0
  183.8510  177.1150  137.8260 C   0  0  0  0  0  0  0  0  0  0  0  0
  181.8670  175.8260  138.0990 C   0  0  0  0  0  0  0  0  0  0  0  0
  186.9680  172.6070  136.8340 C   0  0  0  0  0  2  0  0  0  0  0  0
  181.6810  176.3430  139.3800 C   0  0  0  0  0  3  0  0  0  0  0  0
  183.6870  177.6720  139.1100 C   0  0  2  0  0  3  0  0  0  0  0  0
  182.9280  176.2310  137.3540 N   0  0  0  0  0  0  0  0  0  0  0  0
  187.4070  174.9660  137.1920 C   0  0  0  0  0  2  0  0  0  0  0  0
  185.2750  176.8610  135.7870 C   0  0  0  0  0  2  0  0  0  0  0  0
  188.0300  173.5800  137.2970 C   0  0  2  0  0  3  0  0  0  0  0  0
  185.6740  173.2470  137.2710 C   0  0  2  0  0  3  0  0  0  0  0  0
  183.1710  173.1230  137.0880 C   0  0  0  0  0  2  0  0  0  0  0  0
  182.5860  177.2790  139.8770 C   0  0  0  0  0  3  0  0  0  0  0  0
  181.0160  174.2830  136.2550 C   0  0  2  0  0  3  0  0  0  0  0  0
  184.9780  177.4340  137.0610 O   0  0  0  0  0  0  0  0  0  0  0  0
  180.8160  172.7780  136.3140 C   0  0  1  0  0  3  0  0  0  0  0  0
  189.2880  173.4600  136.4900 C   0  0  0  0  0  0  0  0  0  0  0  0
  190.6160  172.9920  134.8340 N   0  0  0  0  0  0  0  0  0  0  0  0
  190.5070  174.0320  136.7870 C   0  0  1  0  0  3  0  0  0  0  0  0
  189.3850  172.8260  135.3010 N   0  0  0  0  0  0  0  0  0  0  0  0
  191.3130  173.7380  135.7150 C   0  0  0  0  0  0  0  0  0  0  0  0
  190.8430  174.8410  137.9160 N   0  0  0  0  0  2  0  0  0  0  0  0
  190.7550  176.2700  137.8850 C   0  0  0  0  0  0  0  0  0  0  0  0
  190.2190  176.8510  136.8990 O   0  0  0  0  0  0  0  0  0  0  0  0
  191.2580  177.0650  139.0470 C   0  0  0  0  0  3  0  0  0  0  0  0
  192.7470  176.8390  139.2400 C   0  0  0  0  0  1  0  0  0  0  0  0
  190.5070  176.6920  140.3130 C   0  0  0  0  0  1  0  0  0  0  0  0
  192.7390  174.1280  135.5390 C   0  0  0  0  0  2  0  0  0  0  0  0
  193.6120  173.3960  136.5420 C   0  0  0  0  0  2  0  0  0  0  0  0
  194.8270  171.9700  135.0640 O   0  0  0  0  0  1  0  0  0  0  0  0
  193.8730  171.9750  136.0820 C   0  0  0  0  0  2  0  0  0  0  0  0
  184.6050  179.8950  138.9540 O   0  0  0  0  0  1  0  0  0  0  0  0
  184.6230  178.7020  139.6830 C   0  0  1  0  0  3  0  0  0  0  0  0
  184.3810  178.9670  141.1700 C   0  0  0  0  0  2  0  0  0  0  0  0
  185.6770  179.0370  141.9630 C   0  0  0  0  0  2  0  0  0  0  0  0
  185.3930  178.6670  143.6840 S   0  0  0  0  0  0  0  0  0  0  0  0
  185.4550  179.9390  144.4840 O   0  0  0  0  0  0  0  0  0  0  0  0
  184.0170  178.0750  143.8120 O   0  0  0  0  0  0  0  0  0  0  0  0
  189.4720  177.8810  145.7710 C   0  0  0  0  0  2  0  0  0  0  0  0
  186.5990  177.4940  144.2970 C   0  0  2  0  0  3  0  0  0  0  0  0
  188.9250  178.0840  143.3060 C   0  0  0  0  0  2  0  0  0  0  0  0
  188.2550  177.1450  146.0850 N   0  0  0  0  0  2  0  0  0  0  0  0
  187.1480  177.9770  145.6410 C   0  0  0  0  0  2  0  0  0  0  0  0
  187.9930  175.8490  143.2080 O   0  0  0  0  0  1  0  0  0  0  0  0
  187.6660  177.2080  143.2260 C   0  0  1  0  0  3  0  0  0  0  0  0
  189.9290  177.5850  144.3460 C   0  0  0  0  0  2  0  0  0  0  0  0
  180.1650  172.3050  135.1010 N   0  0  0  0  0  2  0  0  0  0  0  0
  179.4370  170.8640  136.6180 O   0  0  0  0  0  1  0  0  0  0  0  0
  179.7730  170.9730  135.3090 N   0  0  0  0  0  0  0  0  0  0  0  0
  181.2050  170.0030  135.0890 Cl  0  0  0  0  0  0  0  0  0  0  0  0
  2 16  1  0  0  0  0
  3  1  1  6  0  0  0
  3 12  1  0  0  0  0
  3 15  1  0  0  0  0
  4 18  1  0  0  0  0
  4 20  1  0  0  0  0
  4 16  1  1  0  0  0
  5  7  2  0  0  0  0
  6 10  1  0  0  0  0
  7  9  1  0  0  0  0
  8 15  1  0  0  0  0
  8 14  1  0  0  0  0
  9 17  2  0  0  0  0
 10 37  1  6  0  0  0
 10 17  1  0  0  0  0
 11  6  2  0  0  0  0
 11  7  1  0  0  0  0
 12 14  1  0  0  0  0
 13  1  1  0  0  0  0
 13 19  1  0  0  0  0
 14 21  1  6  0  0  0
 15  2  1  6  0  0  0
 18 20  1  0  0  0  0
 18  5  1  1  0  0  0
 19  6  1  0  0  0  0
 20 51  1  6  0  0  0
 21 23  1  0  0  0  0
 22 24  1  0  0  0  0
 22 25  2  0  0  0  0
 23 26  1  6  0  0  0
 24 21  2  0  0  0  0
 25 23  1  0  0  0  0
 27 26  1  0  0  0  0
 27 29  1  0  0  0  0
 28 27  2  0  0  0  0
 29 30  1  0  0  0  0
 29 31  1  0  0  0  0
 32 25  1  0  0  0  0
 32 33  1  0  0  0  0
 34 35  1  0  0  0  0
 35 33  1  0  0  0  0
 37 36  1  6  0  0  0
 37 38  1  0  0  0  0
 38 39  1  0  0  0  0
 39 40  1  0  0  0  0
 40 42  2  0  0  0  0
 40 41  2  0  0  0  0
 43 46  1  0  0  0  0
 44 40  1  6  0  0  0
 44 47  1  0  0  0  0
 45 50  1  0  0  0  0
 47 46  1  0  0  0  0
 49 48  1  1  0  0  0
 49 45  1  0  0  0  0
 49 44  1  0  0  0  0
 50 43  1  0  0  0  0
 51 53  1  0  0  0  0
 53 52  1  0  0  0  0
 54 53  1  0  0  0  0
M  END
>  <MODEL>
1

>  <REMARK>
 VINA RESULT:      -7.4      0.000      0.000
  Name = 
  13 active torsions:
  status: ('A' for Active; 'I' for Inactive)
    1  A    between atoms: C_1  and  C_39
    2  A    between atoms: S_4  and  C_20
    3  A    between atoms: S_4  and  C_27
    4  A    between atoms: C_6  and  C_27
    5  A    between atoms: C_6  and  C_37
    6  A    between atoms: C_10  and  C_47
    7  A    between atoms: C_13  and  N_46
    8  A    between atoms: C_15  and  C_43
    9  A    between atoms: N_18  and  N_30
   10  A    between atoms: N_18  and  C_51
   11  A    between atoms: C_26  and  C_43
   12  A    between atoms: C_26  and  C_54
   13  A    between atoms: C_33  and  C_37
                            x       y       z     vdW  Elec       q    Type
                         _______ _______ _______ _____ _____    ______ ____

>  <TORSDO>
F 13

$$$$
=
 OpenBabel10222419433D

 54 59  0  0  1  0  0  0  0  0999 V2000
  189.7440  175.8930  143.1350 C   0  0  0  0  0  2  0  0  0  0  0  0
  191.7250  177.5650  144.3790 C   0  0  0  0  0  2  0  0  0  0  0  0
  189.8700  177.3170  142.5810 C   0  0  2  0  0  3  0  0  0  0  0  0
  190.8870  176.8300  146.5790 C   0  0  2  0  0  3  0  0  0  0  0  0
  188.6910  177.8090  147.3420 N   0  0  0  0  0  2  0  0  0  0  0  0
  187.0750  177.0660  144.1170 C   0  0  0  0  0  0  0  0  0  0  0  0
  187.7510  177.8410  146.2650 C   0  0  0  0  0  0  0  0  0  0  0  0
  192.1350  177.8750  141.9330 C   0  0  0  0  0  2  0  0  0  0  0  0
  186.7600  178.8210  146.2470 C   0  0  0  0  0  3  0  0  0  0  0  0
  186.0510  178.0330  144.0700 C   0  0  0  0  0  0  0  0  0  0  0  0
  187.8740  176.9850  145.2160 N   0  0  0  0  0  0  0  0  0  0  0  0
  189.9520  177.2820  141.0590 C   0  0  0  0  0  2  0  0  0  0  0  0
  188.3570  175.2720  142.9390 C   0  0  0  0  0  2  0  0  0  0  0  0
  191.2860  177.9120  140.6820 C   0  0  2  0  0  3  0  0  0  0  0  0
  191.1380  178.0420  143.0530 C   0  0  2  0  0  3  0  0  0  0  0  0
  190.8330  177.9490  145.5460 C   0  0  0  0  0  2  0  0  0  0  0  0
  185.9010  178.9040  145.1530 C   0  0  0  0  0  3  0  0  0  0  0  0
  189.6820  176.7530  147.5270 C   0  0  2  0  0  3  0  0  0  0  0  0
  187.2970  176.2250  143.0200 O   0  0  0  0  0  0  0  0  0  0  0  0
  190.9820  177.3950  147.9820 C   0  0  1  0  0  3  0  0  0  0  0  0
  191.9460  177.2020  139.5380 C   0  0  0  0  0  0  0  0  0  0  0  0
  193.4980  176.2750  138.3310 N   0  0  0  0  0  0  0  0  0  0  0  0
  191.3080  176.5720  138.4900 C   0  0  0  0  0  0  0  0  0  0  0  0
  193.2780  177.0130  139.4120 N   0  0  0  0  0  2  0  0  0  0  0  0
  192.3120  175.9800  137.7630 C   0  0  0  0  0  0  0  0  0  0  0  0
  189.9030  176.4680  138.2560 N   0  0  0  0  0  2  0  0  0  0  0  0
  189.2130  177.3380  137.3520 C   0  0  0  0  0  0  0  0  0  0  0  0
  189.8640  178.1250  136.6070 O   0  0  0  0  0  0  0  0  0  0  0  0
  187.7220  177.2750  137.2610 C   0  0  0  0  0  3  0  0  0  0  0  0
  187.2500  175.8320  137.2790 C   0  0  0  0  0  1  0  0  0  0  0  0
  187.2350  177.9650  135.9990 C   0  0  0  0  0  1  0  0  0  0  0  0
  192.1550  175.1720  136.5210 C   0  0  0  0  0  2  0  0  0  0  0  0
  191.7210  173.7590  136.8650 C   0  0  0  0  0  2  0  0  0  0  0  0
  189.9820  174.4880  135.4020 O   0  0  0  0  0  1  0  0  0  0  0  0
  190.3560  173.4640  136.2730 C   0  0  0  0  0  2  0  0  0  0  0  0
  183.7710  178.3500  143.3580 O   0  0  0  0  0  1  0  0  0  0  0  0
  185.0840  178.1500  142.9230 C   0  0  1  0  0  3  0  0  0  0  0  0
  185.4920  179.2170  141.9060 C   0  0  0  0  0  2  0  0  0  0  0  0
  185.7450  178.6330  140.5250 C   0  0  0  0  0  2  0  0  0  0  0  0
  184.3630  178.9340  139.4400 S   0  0  0  0  0  0  0  0  0  0  0  0
  184.2590  180.4100  139.1630 O   0  0  0  0  0  0  0  0  0  0  0  0
  184.6200  178.2120  138.1470 O   0  0  0  0  0  0  0  0  0  0  0  0
  180.2770  176.7880  138.8790 C   0  0  0  0  0  2  0  0  0  0  0  0
  182.8380  178.3340  140.1580 C   0  0  2  0  0  3  0  0  0  0  0  0
  180.8390  179.2570  138.7820 C   0  0  0  0  0  2  0  0  0  0  0  0
  181.1770  176.5230  139.9930 N   0  0  0  0  0  2  0  0  0  0  0  0
  182.4960  176.9630  139.5680 C   0  0  0  0  0  2  0  0  0  0  0  0
  180.9600  179.4450  141.1940 O   0  0  0  0  0  1  0  0  0  0  0  0
  181.7270  179.3910  140.0280 C   0  0  1  0  0  3  0  0  0  0  0  0
  179.7350  178.2120  138.9500 C   0  0  0  0  0  2  0  0  0  0  0  0
  191.7440  176.4700  148.8070 N   0  0  0  0  0  2  0  0  0  0  0  0
  193.5590  175.4290  148.0800 O   0  0  0  0  0  1  0  0  0  0  0  0
  193.1040  176.6340  148.5030 N   0  0  0  0  0  0  0  0  0  0  0  0
  193.9080  176.9570  150.0160 Cl  0  0  0  0  0  0  0  0  0  0  0  0
  2 16  1  0  0  0  0
  3 12  1  6  0  0  0
  3 15  1  0  0  0  0
  3  1  1  0  0  0  0
  4 16  1  6  0  0  0
  4 18  1  0  0  0  0
  4 20  1  0  0  0  0
  6 11  2  0  0  0  0
  7  5  1  0  0  0  0
  9  7  2  0  0  0  0
 10  6  1  0  0  0  0
 10 17  2  0  0  0  0
 11  7  1  0  0  0  0
 13 19  1  0  0  0  0
 13  1  1  0  0  0  0
 14 21  1  6  0  0  0
 14 12  1  0  0  0  0
 14  8  1  0  0  0  0
 15  8  1  6  0  0  0
 15  2  1  0  0  0  0
 17  9  1  0  0  0  0
 18  5  1  6  0  0  0
 18 20  1  0  0  0  0
 19  6  1  0  0  0  0
 20 51  1  1  0  0  0
 22 24  1  0  0  0  0
 23 21  2  0  0  0  0
 24 21  1  0  0  0  0
 25 22  2  0  0  0  0
 25 23  1  0  0  0  0
 26 23  1  0  0  0  0
 27 26  1  0  0  0  0
 28 27  2  0  0  0  0
 29 30  1  0  0  0  0
 29 27  1  0  0  0  0
 31 29  1  0  0  0  0
 32 33  1  0  0  0  0
 32 25  1  0  0  0  0
 34 35  1  0  0  0  0
 35 33  1  0  0  0  0
 37 36  1  1  0  0  0
 37 10  1  0  0  0  0
 38 37  1  0  0  0  0
 39 38  1  0  0  0  0
 40 39  1  0  0  0  0
 41 40  2  0  0  0  0
 42 40  2  0  0  0  0
 43 50  1  0  0  0  0
 43 46  1  0  0  0  0
 44 40  1  6  0  0  0
 45 50  1  0  0  0  0
 45 49  1  0  0  0  0
 47 46  1  0  0  0  0
 47 44  1  0  0  0  0
 49 44  1  0  0  0  0
 49 48  1  1  0  0  0
 52 53  1  0  0  0  0
 53 51  1  0  0  0  0
 53 54  1  0  0  0  0
M  END
>  <MODEL>
2

>  <REMARK>
 VINA RESULT:      -7.1      4.151      9.162
  Name = 
  13 active torsions:
  status: ('A' for Active; 'I' for Inactive)
    1  A    between atoms: C_1  and  C_39
    2  A    between atoms: S_4  and  C_20
    3  A    between atoms: S_4  and  C_27
    4  A    between atoms: C_6  and  C_27
    5  A    between atoms: C_6  and  C_37
    6  A    between atoms: C_10  and  C_47
    7  A    between atoms: C_13  and  N_46
    8  A    between atoms: C_15  and  C_43
    9  A    between atoms: N_18  and  N_30
   10  A    between atoms: N_18  and  C_51
   11  A    between atoms: C_26  and  C_43
   12  A    between atoms: C_26  and  C_54
   13  A    between atoms: C_33  and  C_37
                            x       y       z     vdW  Elec       q    Type
                         _______ _______ _______ _____ _____    ______ ____

>  <TORSDO>
F 13

$$$$
=
 OpenBabel10222419433D

 54 59  0  0  1  0  0  0  0  0999 V2000
  185.1380  175.3720  135.9880 C   0  0  0  0  0  2  0  0  0  0  0  0
  184.0120  172.8160  136.6750 C   0  0  0  0  0  2  0  0  0  0  0  0
  185.7020  174.7010  137.2460 C   0  0  2  0  0  3  0  0  0  0  0  0
  181.7660  173.7650  136.3030 C   0  0  2  0  0  3  0  0  0  0  0  0
  180.8830  175.3220  138.0810 N   0  0  0  0  0  0  0  0  0  0  0  0
  184.0110  177.2680  138.1310 C   0  0  0  0  0  0  0  0  0  0  0  0
  181.9070  176.2220  138.5170 C   0  0  0  0  0  0  0  0  0  0  0  0
  186.4780  172.4440  136.8390 C   0  0  0  0  0  2  0  0  0  0  0  0
  181.8710  176.7220  139.8180 C   0  0  0  0  0  3  0  0  0  0  0  0
  184.0030  177.8050  139.4340 C   0  0  2  0  0  3  0  0  0  0  0  0
  182.9580  176.5160  137.7080 N   0  0  0  0  0  0  0  0  0  0  0  0
  187.2260  174.7220  137.2110 C   0  0  0  0  0  2  0  0  0  0  0  0
  185.2540  176.8990  135.9940 C   0  0  0  0  0  2  0  0  0  0  0  0
  187.6800  173.2680  137.2460 C   0  0  2  0  0  3  0  0  0  0  0  0
  185.3040  173.2240  137.3770 C   0  0  2  0  0  3  0  0  0  0  0  0
  182.7980  173.4090  137.3660 C   0  0  0  0  0  2  0  0  0  0  0  0
  182.9150  177.5270  140.2680 C   0  0  0  0  0  3  0  0  0  0  0  0
  180.7520  174.8440  136.7080 C   0  0  2  0  0  3  0  0  0  0  0  0
  185.1160  177.4690  137.2960 O   0  0  0  0  0  0  0  0  0  0  0  0
  180.3730  173.3730  136.7510 C   0  0  1  0  0  3  0  0  0  0  0  0
  188.8570  173.0190  136.3510 C   0  0  0  0  0  0  0  0  0  0  0  0
  190.0030  172.4480  134.5950 N   0  0  0  0  0  0  0  0  0  0  0  0
  190.1570  173.4170  136.5810 C   0  0  1  0  0  3  0  0  0  0  0  0
  188.7930  172.4240  135.1390 N   0  0  0  0  0  0  0  0  0  0  0  0
  190.8470  173.0640  135.4480 C   0  0  0  0  0  0  0  0  0  0  0  0
  190.6670  174.1320  137.7080 N   0  0  0  0  0  2  0  0  0  0  0  0
  190.8460  175.5530  137.6940 C   0  0  0  0  0  0  0  0  0  0  0  0
  190.4010  176.2390  136.7310 O   0  0  0  0  0  0  0  0  0  0  0  0
  191.5190  176.2220  138.8490 C   0  0  0  0  0  3  0  0  0  0  0  0
  190.6930  177.4000  139.3350 C   0  0  0  0  0  1  0  0  0  0  0  0
  192.9100  176.6890  138.4580 C   0  0  0  0  0  1  0  0  0  0  0  0
  192.2980  173.2730  135.1860 C   0  0  0  0  0  2  0  0  0  0  0  0
  193.1210  172.2310  135.9200 C   0  0  0  0  0  2  0  0  0  0  0  0
  195.3980  172.7490  136.4090 O   0  0  0  0  0  1  0  0  0  0  0  0
  194.0920  172.8970  136.8750 C   0  0  0  0  0  2  0  0  0  0  0  0
  184.7120  180.0420  139.9800 O   0  0  0  0  0  1  0  0  0  0  0  0
  185.0940  178.6980  139.9610 C   0  0  1  0  0  3  0  0  0  0  0  0
  185.6160  178.2580  141.3290 C   0  0  0  0  0  2  0  0  0  0  0  0
  187.1290  178.1020  141.3480 C   0  0  0  0  0  2  0  0  0  0  0  0
  187.6920  177.5210  142.9370 S   0  0  0  0  0  0  0  0  0  0  0  0
  186.9600  178.2590  144.0250 O   0  0  0  0  0  0  0  0  0  0  0  0
  187.3680  176.0560  143.0380 O   0  0  0  0  0  0  0  0  0  0  0  0
  191.7590  175.9550  144.5540 C   0  0  0  0  0  2  0  0  0  0  0  0
  189.4580  177.7490  143.1180 C   0  0  2  0  0  3  0  0  0  0  0  0
  190.0820  177.5210  145.6270 C   0  0  0  0  0  2  0  0  0  0  0  0
  191.5890  176.5210  143.2230 N   0  0  0  0  0  2  0  0  0  0  0  0
  190.1730  176.4120  142.9100 C   0  0  0  0  0  2  0  0  0  0  0  0
  190.7910  179.4000  144.2720 O   0  0  0  0  0  1  0  0  0  0  0  0
  189.7770  178.4550  144.4470 C   0  0  1  0  0  3  0  0  0  0  0  0
  191.5260  177.0150  145.6250 C   0  0  0  0  0  2  0  0  0  0  0  0
  179.5890  173.0160  135.5780 N   0  0  0  0  0  2  0  0  0  0  0  0
  179.2350  171.3550  137.0000 O   0  0  0  0  0  1  0  0  0  0  0  0
  179.2500  171.6580  135.6780 N   0  0  0  0  0  0  0  0  0  0  0  0
  180.5830  170.7700  134.9890 Cl  0  0  0  0  0  0  0  0  0  0  0  0
  1 13  1  0  0  0  0
  2 16  1  0  0  0  0
  3  1  1  6  0  0  0
  3 15  1  0  0  0  0
  4 18  1  0  0  0  0
  4 20  1  0  0  0  0
  4 16  1  1  0  0  0
  5  7  2  0  0  0  0
  6 10  1  0  0  0  0
  7  9  1  0  0  0  0
  8 14  1  0  0  0  0
  8 15  1  0  0  0  0
  9 17  2  0  0  0  0
 10 37  1  6  0  0  0
 10 17  1  0  0  0  0
 11  6  2  0  0  0  0
 11  7  1  0  0  0  0
 12  3  1  0  0  0  0
 12 14  1  0  0  0  0
 13 19  1  0  0  0  0
 14 21  1  6  0  0  0
 15  2  1  6  0  0  0
 18 20  1  0  0  0  0
 18  5  1  1  0  0  0
 19  6  1  0  0  0  0
 20 51  1  6  0  0  0
 21 23  1  0  0  0  0
 22 24  1  0  0  0  0
 22 25  2  0  0  0  0
 23 26  1  6  0  0  0
 24 21  2  0  0  0  0
 25 23  1  0  0  0  0
 27 26  1  0  0  0  0
 27 29  1  0  0  0  0
 28 27  2  0  0  0  0
 29 30  1  0  0  0  0
 31 29  1  0  0  0  0
 32 25  1  0  0  0  0
 32 33  1  0  0  0  0
 33 35  1  0  0  0  0
 34 35  1  0  0  0  0
 37 36  1  1  0  0  0
 37 38  1  0  0  0  0
 38 39  1  0  0  0  0
 39 40  1  0  0  0  0
 40 42  2  0  0  0  0
 40 41  2  0  0  0  0
 43 50  1  0  0  0  0
 44 40  1  1  0  0  0
 44 49  1  0  0  0  0
 46 43  1  0  0  0  0
 47 44  1  0  0  0  0
 47 46  1  0  0  0  0
 49 48  1  6  0  0  0
 49 45  1  0  0  0  0
 50 45  1  0  0  0  0
 51 53  1  0  0  0  0
 53 52  1  0  0  0  0
 54 53  1  0  0  0  0
M  END
>  <MODEL>
3

>  <REMARK>
 VINA RESULT:      -6.9      1.334      1.773
  Name = 
  13 active torsions:
  status: ('A' for Active; 'I' for Inactive)
    1  A    between atoms: C_1  and  C_39
    2  A    between atoms: S_4  and  C_20
    3  A    between atoms: S_4  and  C_27
    4  A    between atoms: C_6  and  C_27
    5  A    between atoms: C_6  and  C_37
    6  A    between atoms: C_10  and  C_47
    7  A    between atoms: C_13  and  N_46
    8  A    between atoms: C_15  and  C_43
    9  A    between atoms: N_18  and  N_30
   10  A    between atoms: N_18  and  C_51
   11  A    between atoms: C_26  and  C_43
   12  A    between atoms: C_26  and  C_54
   13  A    between atoms: C_33  and  C_37
                            x       y       z     vdW  Elec       q    Type
                         _______ _______ _______ _____ _____    ______ ____

>  <TORSDO>
F 13

$$$$
=
 OpenBabel10222419433D

 54 59  0  0  1  0  0  0  0  0999 V2000
  189.9190  176.6740  136.0860 C   0  0  0  0  0  2  0  0  0  0  0  0
  192.1460  176.5780  137.9030 C   0  0  0  0  0  2  0  0  0  0  0  0
  189.7580  175.7580  137.3060 C   0  0  2  0  0  3  0  0  0  0  0  0
  193.6480  176.3190  135.9630 C   0  0  2  0  0  3  0  0  0  0  0  0
  193.6750  174.0600  134.8410 N   0  0  0  0  0  2  0  0  0  0  0  0
  189.9970  173.9340  134.6890 C   0  0  0  0  0  0  0  0  0  0  0  0
  192.3460  173.5470  134.7090 C   0  0  0  0  0  0  0  0  0  0  0  0
  190.1710  176.9020  139.3990 C   0  0  0  0  0  2  0  0  0  0  0  0
  192.1410  172.1680  134.6970 C   0  0  0  0  0  3  0  0  0  0  0  0
  189.7500  172.5470  134.6590 C   0  0  0  0  0  0  0  0  0  0  0  0
  191.2800  174.3890  134.6890 N   0  0  0  0  0  0  0  0  0  0  0  0
  188.4150  176.0170  137.9790 C   0  0  0  0  0  2  0  0  0  0  0  0
  189.0770  176.2510  134.8780 C   0  0  0  0  0  2  0  0  0  0  0  0
  188.7220  176.4650  139.4020 C   0  0  2  0  0  3  0  0  0  0  0  0
  190.8220  175.9930  138.3860 C   0  0  2  0  0  3  0  0  0  0  0  0
  192.9240  175.5710  137.0750 C   0  0  0  0  0  2  0  0  0  0  0  0
  190.8400  171.6720  134.6570 C   0  0  0  0  0  3  0  0  0  0  0  0
  194.0140  175.4760  134.7330 C   0  0  2  0  0  3  0  0  0  0  0  0
  188.9280  174.8350  134.7620 O   0  0  0  0  0  0  0  0  0  0  0  0
  195.0600  175.7950  135.7900 C   0  0  1  0  0  3  0  0  0  0  0  0
  187.8100  177.5610  139.8620 C   0  0  0  0  0  0  0  0  0  0  0  0
  186.2890  179.1140  139.8030 N   0  0  0  0  0  0  0  0  0  0  0  0
  187.5710  177.9310  141.1690 C   0  0  1  0  0  3  0  0  0  0  0  0
  187.0230  178.3030  139.0510 N   0  0  0  0  0  0  0  0  0  0  0  0
  186.5940  178.8930  141.0980 C   0  0  0  0  0  0  0  0  0  0  0  0
  188.1390  177.3720  142.3550 N   0  0  0  0  0  2  0  0  0  0  0  0
  189.3220  177.9060  142.9600 C   0  0  0  0  0  0  0  0  0  0  0  0
  189.8070  178.9980  142.5480 O   0  0  0  0  0  0  0  0  0  0  0  0
  189.9490  177.1890  144.1120 C   0  0  0  0  0  3  0  0  0  0  0  0
  190.4840  175.8390  143.6700 C   0  0  0  0  0  1  0  0  0  0  0  0
  188.9450  177.0070  145.2370 C   0  0  0  0  0  1  0  0  0  0  0  0
  185.9770  179.6230  142.2400 C   0  0  0  0  0  2  0  0  0  0  0  0
  184.6940  178.9360  142.6720 C   0  0  0  0  0  2  0  0  0  0  0  0
  185.8090  178.5790  144.7510 O   0  0  0  0  0  1  0  0  0  0  0  0
  184.5830  178.9250  144.1850 C   0  0  0  0  0  2  0  0  0  0  0  0
  188.3840  170.5630  134.6100 O   0  0  0  0  0  1  0  0  0  0  0  0
  188.3650  171.9610  134.5940 C   0  0  1  0  0  3  0  0  0  0  0  0
  187.4340  172.5080  135.6770 C   0  0  0  0  0  2  0  0  0  0  0  0
  186.0170  172.7180  135.1670 C   0  0  0  0  0  2  0  0  0  0  0  0
  185.2510  174.1150  135.9680 S   0  0  0  0  0  0  0  0  0  0  0  0
  185.5660  174.0790  137.4390 O   0  0  0  0  0  0  0  0  0  0  0  0
  185.8310  175.3680  135.3750 O   0  0  0  0  0  0  0  0  0  0  0  0
  181.2130  176.4170  136.0640 C   0  0  0  0  0  2  0  0  0  0  0  0
  183.4790  174.1090  135.7180 C   0  0  2  0  0  3  0  0  0  0  0  0
  182.3240  175.0160  137.8590 C   0  0  0  0  0  2  0  0  0  0  0  0
  181.6020  175.5230  134.9820 N   0  0  0  0  0  2  0  0  0  0  0  0
  183.0500  175.4140  135.0420 C   0  0  0  0  0  2  0  0  0  0  0  0
  181.6700  172.9340  136.8050 O   0  0  0  0  0  1  0  0  0  0  0  0
  182.7490  173.7910  137.0350 C   0  0  1  0  0  3  0  0  0  0  0  0
  181.0190  175.6400  137.3620 C   0  0  0  0  0  2  0  0  0  0  0  0
  195.9120  176.8880  135.3460 N   0  0  0  0  0  2  0  0  0  0  0  0
  198.0240  176.5690  134.7590 O   0  0  0  0  0  1  0  0  0  0  0  0
  197.2060  176.6570  135.8380 N   0  0  0  0  0  0  0  0  0  0  0  0
  197.1790  175.0710  136.5620 Cl  0  0  0  0  0  0  0  0  0  0  0  0
  3  1  1  6  0  0  0
  3 12  1  0  0  0  0
  3 15  1  0  0  0  0
  4 16  1  1  0  0  0
  6 19  1  0  0  0  0
  7  5  1  0  0  0  0
  8 14  1  0  0  0  0
  9  7  2  0  0  0  0
 10  6  1  0  0  0  0
 11  6  2  0  0  0  0
 11  7  1  0  0  0  0
 12 14  1  0  0  0  0
 13  1  1  0  0  0  0
 14 21  1  6  0  0  0
 15  2  1  6  0  0  0
 15  8  1  0  0  0  0
 16  2  1  0  0  0  0
 17 10  2  0  0  0  0
 17  9  1  0  0  0  0
 18  5  1  1  0  0  0
 18 20  1  0  0  0  0
 18  4  1  0  0  0  0
 19 13  1  0  0  0  0
 20 51  1  6  0  0  0
 20  4  1  0  0  0  0
 21 23  1  0  0  0  0
 22 25  2  0  0  0  0
 23 26  1  1  0  0  0
 24 22  1  0  0  0  0
 24 21  2  0  0  0  0
 25 23  1  0  0  0  0
 25 32  1  0  0  0  0
 26 27  1  0  0  0  0
 27 29  1  0  0  0  0
 28 27  2  0  0  0  0
 29 31  1  0  0  0  0
 30 29  1  0  0  0  0
 32 33  1  0  0  0  0
 33 35  1  0  0  0  0
 35 34  1  0  0  0  0
 37 36  1  1  0  0  0
 37 10  1  0  0  0  0
 37 38  1  0  0  0  0
 39 38  1  0  0  0  0
 39 40  1  0  0  0  0
 40 41  2  0  0  0  0
 42 40  2  0  0  0  0
 43 50  1  0  0  0  0
 44 40  1  1  0  0  0
 44 49  1  0  0  0  0
 46 47  1  0  0  0  0
 46 43  1  0  0  0  0
 47 44  1  0  0  0  0
 49 48  1  6  0  0  0
 49 45  1  0  0  0  0
 50 45  1  0  0  0  0
 51 53  1  0  0  0  0
 52 53  1  0  0  0  0
 53 54  1  0  0  0  0
M  END
>  <MODEL>
4

>  <REMARK>
 VINA RESULT:      -5.5      3.812     10.225
  Name = 
  13 active torsions:
  status: ('A' for Active; 'I' for Inactive)
    1  A    between atoms: C_1  and  C_39
    2  A    between atoms: S_4  and  C_20
    3  A    between atoms: S_4  and  C_27
    4  A    between atoms: C_6  and  C_27
    5  A    between atoms: C_6  and  C_37
    6  A    between atoms: C_10  and  C_47
    7  A    between atoms: C_13  and  N_46
    8  A    between atoms: C_15  and  C_43
    9  A    between atoms: N_18  and  N_30
   10  A    between atoms: N_18  and  C_51
   11  A    between atoms: C_26  and  C_43
   12  A    between atoms: C_26  and  C_54
   13  A    between atoms: C_33  and  C_37
                            x       y       z     vdW  Elec       q    Type
                         _______ _______ _______ _____ _____    ______ ____

>  <TORSDO>
F 13

$$$$
=
 OpenBabel10222419433D

 54 59  0  0  1  0  0  0  0  0999 V2000
  190.0220  178.2750  138.6960 C   0  0  0  0  0  2  0  0  0  0  0  0
  191.7360  175.9670  138.6250 C   0  0  0  0  0  2  0  0  0  0  0  0
  189.4540  176.9910  139.3140 C   0  0  2  0  0  3  0  0  0  0  0  0
  192.2160  176.4630  136.2570 C   0  0  2  0  0  3  0  0  0  0  0  0
  190.3970  175.9260  134.5940 N   0  0  0  0  0  0  0  0  0  0  0  0
  187.8400  177.6290  136.6260 C   0  0  0  0  0  0  0  0  0  0  0  0
  189.1190  176.3260  135.0970 C   0  0  0  0  0  0  0  0  0  0  0  0
  190.9150  176.0270  140.9850 C   0  0  0  0  0  2  0  0  0  0  0  0
  187.9770  175.6390  134.6910 C   0  0  0  0  0  3  0  0  0  0  0  0
  186.6600  176.9670  136.2300 C   0  0  2  0  0  3  0  0  0  0  0  0
  189.0230  177.3050  136.0340 N   0  0  0  0  0  0  0  0  0  0  0  0
  188.8650  177.2880  140.6880 C   0  0  0  0  0  2  0  0  0  0  0  0
  188.9510  179.2410  138.1800 C   0  0  0  0  0  2  0  0  0  0  0  0
  189.6370  176.4330  141.6840 C   0  0  2  0  0  3  0  0  0  0  0  0
  190.5140  175.9040  139.5360 C   0  0  2  0  0  3  0  0  0  0  0  0
  191.3780  175.6040  137.1960 C   0  0  0  0  0  2  0  0  0  0  0  0
  186.7450  175.9730  135.2500 C   0  0  0  0  0  3  0  0  0  0  0  0
  191.6370  176.6550  134.8490 C   0  0  2  0  0  3  0  0  0  0  0  0
  187.8010  178.5780  137.6530 O   0  0  0  0  0  0  0  0  0  0  0  0
  192.7410  175.6410  135.0970 C   0  0  1  0  0  3  0  0  0  0  0  0
  189.9080  177.1590  142.9670 C   0  0  0  0  0  0  0  0  0  0  0  0
  190.9690  178.2970  144.4860 N   0  0  0  0  0  0  0  0  0  0  0  0
  188.9750  177.5170  143.9170 C   0  0  1  0  0  3  0  0  0  0  0  0
  191.1140  177.6400  143.3420 N   0  0  0  0  0  0  0  0  0  0  0  0
  189.6710  178.2500  144.8460 C   0  0  0  0  0  0  0  0  0  0  0  0
  187.5680  177.2670  143.8990 N   0  0  0  0  0  2  0  0  0  0  0  0
  186.6470  178.1380  143.2320 C   0  0  0  0  0  0  0  0  0  0  0  0
  187.0760  179.0730  142.4980 O   0  0  0  0  0  0  0  0  0  0  0  0
  185.1770  177.9030  143.3730 C   0  0  0  0  0  3  0  0  0  0  0  0
  184.4540  178.2890  142.0950 C   0  0  0  0  0  1  0  0  0  0  0  0
  184.6210  178.6920  144.5450 C   0  0  0  0  0  1  0  0  0  0  0  0
  189.1210  178.8720  146.0830 C   0  0  0  0  0  2  0  0  0  0  0  0
  188.9380  177.8220  147.1640 C   0  0  0  0  0  2  0  0  0  0  0  0
  186.6010  178.2850  147.2930 O   0  0  0  0  0  1  0  0  0  0  0  0
  187.7640  178.1770  148.0550 C   0  0  0  0  0  2  0  0  0  0  0  0
  184.3870  177.6280  135.7810 O   0  0  0  0  0  1  0  0  0  0  0  0
  185.3030  177.3060  136.7860 C   0  0  1  0  0  3  0  0  0  0  0  0
  184.7460  176.2160  137.7040 C   0  0  0  0  0  2  0  0  0  0  0  0
  183.5950  175.4550  137.0650 C   0  0  0  0  0  2  0  0  0  0  0  0
  182.0260  176.0300  137.6860 S   0  0  0  0  0  0  0  0  0  0  0  0
  181.2280  176.6200  136.5540 O   0  0  0  0  0  0  0  0  0  0  0  0
  181.2840  174.8470  138.2420 O   0  0  0  0  0  0  0  0  0  0  0  0
  180.1420  179.0100  140.7160 C   0  0  0  0  0  2  0  0  0  0  0  0
  182.2520  177.2470  138.9790 C   0  0  2  0  0  3  0  0  0  0  0  0
  180.9470  179.4000  138.3460 C   0  0  0  0  0  2  0  0  0  0  0  0
  181.2390  178.1130  141.0500 N   0  0  0  0  0  2  0  0  0  0  0  0
  181.2000  177.0380  140.0710 C   0  0  0  0  0  2  0  0  0  0  0  0
  183.2750  179.4350  139.0160 O   0  0  0  0  0  1  0  0  0  0  0  0
  182.2950  178.6650  138.3840 C   0  0  1  0  0  3  0  0  0  0  0  0
  180.5840  180.0430  139.6850 C   0  0  0  0  0  2  0  0  0  0  0  0
  194.0280  176.1820  134.6860 N   0  0  0  0  0  2  0  0  0  0  0  0
  195.5410  177.4700  135.6670 O   0  0  0  0  0  1  0  0  0  0  0  0
  194.8230  176.3310  135.8340 N   0  0  0  0  0  0  0  0  0  0  0  0
  195.9720  175.0210  135.8070 Cl  0  0  0  0  0  0  0  0  0  0  0  0
  3  1  1  1  0  0  0
  3 15  1  0  0  0  0
  3 12  1  0  0  0  0
  4 16  1  1  0  0  0
  5  7  2  0  0  0  0
  6 19  1  0  0  0  0
  7 11  1  0  0  0  0
  8 14  1  0  0  0  0
  9  7  1  0  0  0  0
  9 17  2  0  0  0  0
 10  6  1  0  0  0  0
 10 37  1  6  0  0  0
 11  6  2  0  0  0  0
 12 14  1  0  0  0  0
 13  1  1  0  0  0  0
 14 21  1  1  0  0  0
 15  2  1  6  0  0  0
 15  8  1  0  0  0  0
 16  2  1  0  0  0  0
 17 10  1  0  0  0  0
 18  5  1  1  0  0  0
 18 20  1  0  0  0  0
 18  4  1  0  0  0  0
 19 13  1  0  0  0  0
 20 51  1  6  0  0  0
 20  4  1  0  0  0  0
 21 24  2  0  0  0  0
 21 23  1  0  0  0  0
 22 25  2  0  0  0  0
 23 26  1  6  0  0  0
 23 25  1  0  0  0  0
 24 22  1  0  0  0  0
 25 32  1  0  0  0  0
 27 29  1  0  0  0  0
 27 26  1  0  0  0  0
 28 27  2  0  0  0  0
 29 31  1  0  0  0  0
 30 29  1  0  0  0  0
 32 33  1  0  0  0  0
 33 35  1  0  0  0  0
 34 35  1  0  0  0  0
 37 36  1  6  0  0  0
 37 38  1  0  0  0  0
 39 40  1  0  0  0  0
 39 38  1  0  0  0  0
 40 42  2  0  0  0  0
 41 40  2  0  0  0  0
 43 46  1  0  0  0  0
 44 40  1  6  0  0  0
 44 47  1  0  0  0  0
 45 49  1  0  0  0  0
 45 50  1  0  0  0  0
 47 46  1  0  0  0  0
 49 44  1  0  0  0  0
 49 48  1  1  0  0  0
 50 43  1  0  0  0  0
 51 53  1  0  0  0  0
 52 53  1  0  0  0  0
 54 53  1  0  0  0  0
M  END
>  <MODEL>
5

>  <REMARK>
 VINA RESULT:      -5.4      3.863      9.183
  Name = 
  13 active torsions:
  status: ('A' for Active; 'I' for Inactive)
    1  A    between atoms: C_1  and  C_39
    2  A    between atoms: S_4  and  C_20
    3  A    between atoms: S_4  and  C_27
    4  A    between atoms: C_6  and  C_27
    5  A    between atoms: C_6  and  C_37
    6  A    between atoms: C_10  and  C_47
    7  A    between atoms: C_13  and  N_46
    8  A    between atoms: C_15  and  C_43
    9  A    between atoms: N_18  and  N_30
   10  A    between atoms: N_18  and  C_51
   11  A    between atoms: C_26  and  C_43
   12  A    between atoms: C_26  and  C_54
   13  A    between atoms: C_33  and  C_37
                            x       y       z     vdW  Elec       q    Type
                         _______ _______ _______ _____ _____    ______ ____

>  <TORSDO>
F 13

$$$$
=
 OpenBabel10222419433D

 54 59  0  0  1  0  0  0  0  0999 V2000
  186.2230  176.3340  136.0370 C   0  0  0  0  0  2  0  0  0  0  0  0
  185.5650  173.5490  136.3210 C   0  0  0  0  0  2  0  0  0  0  0  0
  186.8710  175.6030  137.2190 C   0  0  2  0  0  3  0  0  0  0  0  0
  183.1930  174.1290  135.9740 C   0  0  2  0  0  3  0  0  0  0  0  0
  182.0020  175.2390  137.9010 N   0  0  0  0  0  0  0  0  0  0  0  0
  184.7220  177.6800  138.3610 C   0  0  0  0  0  0  0  0  0  0  0  0
  182.8350  176.2350  138.5030 C   0  0  0  0  0  0  0  0  0  0  0  0
  188.0530  173.5990  136.5500 C   0  0  0  0  0  2  0  0  0  0  0  0
  182.6800  176.5330  139.8550 C   0  0  0  0  0  3  0  0  0  0  0  0
  184.5870  178.0180  139.7220 C   0  0  2  0  0  3  0  0  0  0  0  0
  183.8330  176.8210  137.7910 N   0  0  0  0  0  0  0  0  0  0  0  0
  188.3660  175.8970  137.2600 C   0  0  0  0  0  2  0  0  0  0  0  0
  186.0590  177.8410  136.2550 C   0  0  0  0  0  2  0  0  0  0  0  0
  189.0760  174.5570  137.1200 C   0  0  2  0  0  3  0  0  0  0  0  0
  186.7450  174.0760  137.1320 C   0  0  2  0  0  3  0  0  0  0  0  0
  184.2480  173.8140  137.0270 C   0  0  0  0  0  2  0  0  0  0  0  0
  183.5500  177.4380  140.4590 C   0  0  0  0  0  3  0  0  0  0  0  0
  181.9900  174.9440  136.4710 C   0  0  2  0  0  3  0  0  0  0  0  0
  185.7910  178.1890  137.6140 O   0  0  0  0  0  0  0  0  0  0  0  0
  181.8830  173.4380  136.2990 C   0  0  1  0  0  3  0  0  0  0  0  0
  190.2980  174.6470  136.2570 C   0  0  0  0  0  0  0  0  0  0  0  0
  191.6550  174.3030  134.5940 N   0  0  0  0  0  0  0  0  0  0  0  0
  191.3330  175.5480  136.3990 C   0  0  1  0  0  3  0  0  0  0  0  0
  190.5230  173.8970  135.1560 N   0  0  0  0  0  0  0  0  0  0  0  0
  192.1570  175.3190  135.3240 C   0  0  0  0  0  0  0  0  0  0  0  0
  191.4770  176.5670  137.3890 N   0  0  0  0  0  2  0  0  0  0  0  0
  192.4590  176.4890  138.4280 C   0  0  0  0  0  0  0  0  0  0  0  0
  193.3410  175.5840  138.4010 O   0  0  0  0  0  0  0  0  0  0  0  0
  192.4630  177.5130  139.5180 C   0  0  0  0  0  3  0  0  0  0  0  0
  193.6060  177.2550  140.4840 C   0  0  0  0  0  1  0  0  0  0  0  0
  191.1400  177.5030  140.2630 C   0  0  0  0  0  1  0  0  0  0  0  0
  193.4270  176.0300  135.0080 C   0  0  0  0  0  2  0  0  0  0  0  0
  194.5400  175.0310  134.7530 C   0  0  0  0  0  2  0  0  0  0  0  0
  196.1530  176.5110  135.7020 O   0  0  0  0  0  1  0  0  0  0  0  0
  195.6560  175.2090  135.7650 C   0  0  0  0  0  2  0  0  0  0  0  0
  184.8910  179.5530  141.5550 O   0  0  0  0  0  1  0  0  0  0  0  0
  185.4870  179.0070  140.4150 C   0  0  1  0  0  3  0  0  0  0  0  0
  186.8660  178.4310  140.7430 C   0  0  0  0  0  2  0  0  0  0  0  0
  187.4940  179.0920  141.9590 C   0  0  0  0  0  2  0  0  0  0  0  0
  187.3760  178.0380  143.3920 S   0  0  0  0  0  0  0  0  0  0  0  0
  186.1510  178.4090  144.1830 O   0  0  0  0  0  0  0  0  0  0  0  0
  187.2390  176.6190  142.9160 O   0  0  0  0  0  0  0  0  0  0  0  0
  192.0130  178.1130  143.7190 C   0  0  0  0  0  2  0  0  0  0  0  0
  188.8370  178.1790  144.4170 C   0  0  2  0  0  3  0  0  0  0  0  0
  190.4040  176.1670  143.9270 C   0  0  0  0  0  2  0  0  0  0  0  0
  191.1430  179.0400  144.4290 N   0  0  0  0  0  2  0  0  0  0  0  0
  189.8790  179.0480  143.7100 C   0  0  0  0  0  2  0  0  0  0  0  0
  189.7500  176.7960  146.1740 O   0  0  0  0  0  1  0  0  0  0  0  0
  189.3340  176.7850  144.8400 C   0  0  1  0  0  3  0  0  0  0  0  0
  191.8100  176.6890  144.2250 C   0  0  0  0  0  2  0  0  0  0  0  0
  181.2040  173.1170  135.0520 N   0  0  0  0  0  2  0  0  0  0  0  0
  179.6990  171.5890  135.6080 O   0  0  0  0  0  1  0  0  0  0  0  0
  180.9260  171.7410  135.0510 N   0  0  0  0  0  0  0  0  0  0  0  0
  182.0590  171.0110  136.1570 Cl  0  0  0  0  0  0  0  0  0  0  0  0
  1 13  1  0  0  0  0
  2 16  1  0  0  0  0
  3  1  1  6  0  0  0
  3 12  1  0  0  0  0
  4 20  1  0  0  0  0
  4 18  1  0  0  0  0
  4 16  1  1  0  0  0
  5  7  2  0  0  0  0
  6 10  1  0  0  0  0
  7  9  1  0  0  0  0
  8 14  1  0  0  0  0
  8 15  1  0  0  0  0
  9 17  2  0  0  0  0
 10 37  1  6  0  0  0
 10 17  1  0  0  0  0
 11  6  2  0  0  0  0
 11  7  1  0  0  0  0
 13 19  1  0  0  0  0
 14 21  1  6  0  0  0
 14 12  1  0  0  0  0
 15  2  1  6  0  0  0
 15  3  1  0  0  0  0
 18  5  1  1  0  0  0
 19  6  1  0  0  0  0
 20 51  1  6  0  0  0
 20 18  1  0  0  0  0
 21 23  1  0  0  0  0
 22 24  1  0  0  0  0
 22 25  2  0  0  0  0
 23 26  1  6  0  0  0
 24 21  2  0  0  0  0
 25 23  1  0  0  0  0
 26 27  1  0  0  0  0
 27 29  1  0  0  0  0
 28 27  2  0  0  0  0
 29 31  1  0  0  0  0
 29 30  1  0  0  0  0
 32 25  1  0  0  0  0
 33 32  1  0  0  0  0
 33 35  1  0  0  0  0
 34 35  1  0  0  0  0
 37 38  1  0  0  0  0
 37 36  1  1  0  0  0
 38 39  1  0  0  0  0
 39 40  1  0  0  0  0
 40 41  2  0  0  0  0
 42 40  2  0  0  0  0
 43 50  1  0  0  0  0
 43 46  1  0  0  0  0
 44 40  1  6  0  0  0
 44 49  1  0  0  0  0
 45 50  1  0  0  0  0
 45 49  1  0  0  0  0
 47 44  1  0  0  0  0
 47 46  1  0  0  0  0
 49 48  1  1  0  0  0
 53 51  1  0  0  0  0
 53 52  1  0  0  0  0
 53 54  1  0  0  0  0
M  END
>  <MODEL>
6

>  <REMARK>
 VINA RESULT:      -5.3      1.774      2.105
  Name = 
  13 active torsions:
  status: ('A' for Active; 'I' for Inactive)
    1  A    between atoms: C_1  and  C_39
    2  A    between atoms: S_4  and  C_20
    3  A    between atoms: S_4  and  C_27
    4  A    between atoms: C_6  and  C_27
    5  A    between atoms: C_6  and  C_37
    6  A    between atoms: C_10  and  C_47
    7  A    between atoms: C_13  and  N_46
    8  A    between atoms: C_15  and  C_43
    9  A    between atoms: N_18  and  N_30
   10  A    between atoms: N_18  and  C_51
   11  A    between atoms: C_26  and  C_43
   12  A    between atoms: C_26  and  C_54
   13  A    between atoms: C_33  and  C_37
                            x       y       z     vdW  Elec       q    Type
                         _______ _______ _______ _____ _____    ______ ____

>  <TORSDO>
F 13

$$$$
=
 OpenBabel10222419433D

 54 59  0  0  1  0  0  0  0  0999 V2000
  186.3190  179.6250  141.9960 C   0  0  0  0  0  2  0  0  0  0  0  0
  184.9300  178.0030  143.9210 C   0  0  0  0  0  2  0  0  0  0  0  0
  185.7330  178.3080  141.4730 C   0  0  2  0  0  3  0  0  0  0  0  0
  186.8060  178.3470  145.4850 C   0  0  2  0  0  3  0  0  0  0  0  0
  188.9250  177.0610  145.0160 N   0  0  0  0  0  2  0  0  0  0  0  0
  188.9230  178.0720  141.4740 C   0  0  0  0  0  0  0  0  0  0  0  0
  189.2300  177.0830  143.6190 C   0  0  0  0  0  0  0  0  0  0  0  0
  183.3750  178.0700  141.9660 C   0  0  0  0  0  2  0  0  0  0  0  0
  189.9340  176.0220  143.0530 C   0  0  0  0  0  3  0  0  0  0  0  0
  189.6440  177.0240  140.8680 C   0  0  0  0  0  0  0  0  0  0  0  0
  188.7590  178.0810  142.8260 N   0  0  0  0  0  0  0  0  0  0  0  0
  184.9510  178.5580  140.1880 C   0  0  0  0  0  2  0  0  0  0  0  0
  187.5270  180.1270  141.1970 C   0  0  0  0  0  2  0  0  0  0  0  0
  183.5180  178.1200  140.4610 C   0  0  2  0  0  3  0  0  0  0  0  0
  184.7430  177.6550  142.4470 C   0  0  2  0  0  3  0  0  0  0  0  0
  186.1960  177.3790  144.4790 C   0  0  0  0  0  2  0  0  0  0  0  0
  190.1520  176.0030  141.6770 C   0  0  0  0  0  3  0  0  0  0  0  0
  188.3110  178.1760  145.7330 C   0  0  2  0  0  3  0  0  0  0  0  0
  188.3420  179.0710  140.6850 O   0  0  0  0  0  0  0  0  0  0  0  0
  187.2980  177.6090  146.7140 C   0  0  1  0  0  3  0  0  0  0  0  0
  182.5140  179.0400  139.8350 C   0  0  0  0  0  0  0  0  0  0  0  0
  181.1190  180.6920  139.6070 N   0  0  0  0  0  0  0  0  0  0  0  0
  182.1590  179.0780  138.5020 C   0  0  0  0  0  0  0  0  0  0  0  0
  181.8600  180.0270  140.4850 N   0  0  0  0  0  2  0  0  0  0  0  0
  181.2990  180.1420  138.3900 C   0  0  0  0  0  0  0  0  0  0  0  0
  182.6500  178.2550  137.4420 N   0  0  0  0  0  2  0  0  0  0  0  0
  182.1120  176.9560  137.1720 C   0  0  0  0  0  0  0  0  0  0  0  0
  181.0680  176.5650  137.7680 O   0  0  0  0  0  0  0  0  0  0  0  0
  182.7640  176.0870  136.1460 C   0  0  0  0  0  3  0  0  0  0  0  0
  183.6890  175.0830  136.8110 C   0  0  0  0  0  1  0  0  0  0  0  0
  183.5410  176.9290  135.1490 C   0  0  0  0  0  1  0  0  0  0  0  0
  180.6240  180.6150  137.1490 C   0  0  0  0  0  2  0  0  0  0  0  0
  180.0060  181.9830  137.3750 C   0  0  0  0  0  2  0  0  0  0  0  0
  181.5440  183.7950  137.5860 O   0  0  0  0  0  1  0  0  0  0  0  0
  180.8100  183.0520  136.6610 C   0  0  0  0  0  2  0  0  0  0  0  0
  189.9960  178.2430  138.8200 O   0  0  0  0  0  1  0  0  0  0  0  0
  189.9260  176.9690  139.3910 C   0  0  1  0  0  3  0  0  0  0  0  0
  191.1720  176.1490  139.0510 C   0  0  0  0  0  2  0  0  0  0  0  0
  191.5340  176.2320  137.5760 C   0  0  0  0  0  2  0  0  0  0  0  0
  190.6870  174.9750  136.6380 S   0  0  0  0  0  0  0  0  0  0  0  0
  191.6370  174.3750  135.6380 O   0  0  0  0  0  0  0  0  0  0  0  0
  190.2420  173.9030  137.5940 O   0  0  0  0  0  0  0  0  0  0  0  0
  187.5150  178.3540  136.2830 C   0  0  0  0  0  2  0  0  0  0  0  0
  189.2560  175.6500  135.8010 C   0  0  2  0  0  3  0  0  0  0  0  0
  187.4190  176.1690  137.5610 C   0  0  0  0  0  2  0  0  0  0  0  0
  188.1990  177.7720  135.1370 N   0  0  0  0  0  2  0  0  0  0  0  0
  189.4160  177.1650  135.6520 C   0  0  0  0  0  2  0  0  0  0  0  0
  186.9800  174.8800  135.5560 O   0  0  0  0  0  1  0  0  0  0  0  0
  187.9610  175.2000  136.4990 C   0  0  1  0  0  3  0  0  0  0  0  0
  186.6170  177.3220  136.9570 C   0  0  0  0  0  2  0  0  0  0  0  0
  187.1650  178.4840  147.8690 N   0  0  0  0  0  2  0  0  0  0  0  0
  189.1440  178.6260  148.8550 O   0  0  0  0  0  1  0  0  0  0  0  0
  187.9610  177.9650  148.9020 N   0  0  0  0  0  0  0  0  0  0  0  0
  188.3070  176.3120  148.4690 Cl  0  0  0  0  0  0  0  0  0  0  0  0
  2 16  1  0  0  0  0
  3 12  1  6  0  0  0
  3  1  1  0  0  0  0
  3 15  1  0  0  0  0
  4 16  1  6  0  0  0
  4 18  1  0  0  0  0
  4 20  1  0  0  0  0
  6 11  2  0  0  0  0
  7  5  1  0  0  0  0
  9  7  2  0  0  0  0
 10  6  1  0  0  0  0
 10 17  2  0  0  0  0
 11  7  1  0  0  0  0
 12 14  1  0  0  0  0
 13  1  1  0  0  0  0
 14 21  1  1  0  0  0
 14  8  1  0  0  0  0
 15  8  1  6  0  0  0
 15  2  1  0  0  0  0
 17  9  1  0  0  0  0
 18  5  1  6  0  0  0
 18 20  1  0  0  0  0
 19 13  1  0  0  0  0
 19  6  1  0  0  0  0
 20 51  1  1  0  0  0
 21 24  1  0  0  0  0
 22 24  1  0  0  0  0
 23 21  2  0  0  0  0
 25 23  1  0  0  0  0
 25 22  2  0  0  0  0
 26 23  1  0  0  0  0
 27 26  1  0  0  0  0
 27 28  2  0  0  0  0
 29 30  1  0  0  0  0
 29 27  1  0  0  0  0
 31 29  1  0  0  0  0
 32 33  1  0  0  0  0
 32 25  1  0  0  0  0
 35 33  1  0  0  0  0
 35 34  1  0  0  0  0
 37 36  1  1  0  0  0
 37 10  1  0  0  0  0
 38 37  1  0  0  0  0
 39 38  1  0  0  0  0
 40 39  1  0  0  0  0
 40 42  2  0  0  0  0
 41 40  2  0  0  0  0
 43 50  1  0  0  0  0
 44 49  1  0  0  0  0
 44 40  1  1  0  0  0
 46 47  1  0  0  0  0
 46 43  1  0  0  0  0
 47 44  1  0  0  0  0
 49 48  1  6  0  0  0
 49 45  1  0  0  0  0
 50 45  1  0  0  0  0
 51 53  1  0  0  0  0
 52 53  1  0  0  0  0
 54 53  1  0  0  0  0
M  END
>  <MODEL>
7

>  <REMARK>
 VINA RESULT:      -5.2      4.074     10.493
  Name = 
  13 active torsions:
  status: ('A' for Active; 'I' for Inactive)
    1  A    between atoms: C_1  and  C_39
    2  A    between atoms: S_4  and  C_20
    3  A    between atoms: S_4  and  C_27
    4  A    between atoms: C_6  and  C_27
    5  A    between atoms: C_6  and  C_37
    6  A    between atoms: C_10  and  C_47
    7  A    between atoms: C_13  and  N_46
    8  A    between atoms: C_15  and  C_43
    9  A    between atoms: N_18  and  N_30
   10  A    between atoms: N_18  and  C_51
   11  A    between atoms: C_26  and  C_43
   12  A    between atoms: C_26  and  C_54
   13  A    between atoms: C_33  and  C_37
                            x       y       z     vdW  Elec       q    Type
                         _______ _______ _______ _____ _____    ______ ____

>  <TORSDO>
F 13

$$$$
=
 OpenBabel10222419433D

 54 59  0  0  1  0  0  0  0  0999 V2000
  186.6340  179.6670  142.0340 C   0  0  0  0  0  2  0  0  0  0  0  0
  185.0890  178.1140  143.8980 C   0  0  0  0  0  2  0  0  0  0  0  0
  185.9840  178.3930  141.4780 C   0  0  2  0  0  3  0  0  0  0  0  0
  186.9330  178.3270  145.5220 C   0  0  2  0  0  3  0  0  0  0  0  0
  188.9840  176.9190  145.1020 N   0  0  0  0  0  2  0  0  0  0  0  0
  189.1530  177.9620  141.5730 C   0  0  0  0  0  0  0  0  0  0  0  0
  189.3320  176.9360  143.7150 C   0  0  0  0  0  0  0  0  0  0  0  0
  183.6020  178.2950  141.8970 C   0  0  0  0  0  2  0  0  0  0  0  0
  189.9870  175.8380  143.1580 C   0  0  0  0  0  3  0  0  0  0  0  0
  189.8270  176.8780  140.9780 C   0  0  0  0  0  0  0  0  0  0  0  0
  188.9470  177.9680  142.9200 N   0  0  0  0  0  0  0  0  0  0  0  0
  185.2590  178.7030  140.1730 C   0  0  0  0  0  2  0  0  0  0  0  0
  187.8930  180.1010  141.2780 C   0  0  0  0  0  2  0  0  0  0  0  0
  183.7940  178.3510  140.3970 C   0  0  2  0  0  3  0  0  0  0  0  0
  184.9270  177.7930  142.4150 C   0  0  2  0  0  3  0  0  0  0  0  0
  186.2970  177.4080  144.4860 C   0  0  0  0  0  2  0  0  0  0  0  0
  190.2470  175.8200  141.7900 C   0  0  0  0  0  3  0  0  0  0  0  0
  188.4170  178.0620  145.8130 C   0  0  2  0  0  3  0  0  0  0  0  0
  188.6580  179.0030  140.7790 O   0  0  0  0  0  0  0  0  0  0  0  0
  187.3410  177.5480  146.7560 C   0  0  1  0  0  3  0  0  0  0  0  0
  182.8680  179.3370  139.7520 C   0  0  0  0  0  0  0  0  0  0  0  0
  182.1880  181.0850  138.6530 N   0  0  0  0  0  0  0  0  0  0  0  0
  181.5150  179.1710  139.5440 C   0  0  1  0  0  3  0  0  0  0  0  0
  183.2490  180.5130  139.2080 N   0  0  0  0  0  0  0  0  0  0  0  0
  181.1230  180.2770  138.8300 C   0  0  0  0  0  0  0  0  0  0  0  0
  180.7050  178.0500  139.9010 N   0  0  0  0  0  2  0  0  0  0  0  0
  180.4530  176.9700  138.9950 C   0  0  0  0  0  0  0  0  0  0  0  0
  181.0790  176.9020  137.9000 O   0  0  0  0  0  0  0  0  0  0  0  0
  179.4820  175.8990  139.3760 C   0  0  0  0  0  3  0  0  0  0  0  0
  180.0480  175.0420  140.4940 C   0  0  0  0  0  1  0  0  0  0  0  0
  179.1460  175.0320  138.1750 C   0  0  0  0  0  1  0  0  0  0  0  0
  179.7470  180.5870  138.3500 C   0  0  0  0  0  2  0  0  0  0  0  0
  179.8060  181.3000  137.0110 C   0  0  0  0  0  2  0  0  0  0  0  0
  178.9310  182.9790  138.4630 O   0  0  0  0  0  1  0  0  0  0  0  0
  179.3740  182.7460  137.1610 C   0  0  0  0  0  2  0  0  0  0  0  0
  190.7810  175.6230  139.1550 O   0  0  0  0  0  1  0  0  0  0  0  0
  190.1510  176.8200  139.5090 C   0  0  1  0  0  3  0  0  0  0  0  0
  188.9340  177.0800  138.6190 C   0  0  0  0  0  2  0  0  0  0  0  0
  188.6860  175.9480  137.6340 C   0  0  0  0  0  2  0  0  0  0  0  0
  187.6150  176.4760  136.3100 S   0  0  0  0  0  0  0  0  0  0  0  0
  186.7070  177.5670  136.8090 O   0  0  0  0  0  0  0  0  0  0  0  0
  188.4750  177.0230  135.2060 O   0  0  0  0  0  0  0  0  0  0  0  0
  183.9150  173.6930  136.7400 C   0  0  0  0  0  2  0  0  0  0  0  0
  186.6460  175.1080  135.6810 C   0  0  2  0  0  3  0  0  0  0  0  0
  186.2820  173.3880  137.5910 C   0  0  0  0  0  2  0  0  0  0  0  0
  184.3370  174.2780  135.4750 N   0  0  0  0  0  2  0  0  0  0  0  0
  185.1550  175.4320  135.8100 C   0  0  0  0  0  2  0  0  0  0  0  0
  187.1120  172.7540  135.4050 O   0  0  0  0  0  1  0  0  0  0  0  0
  187.0820  173.7890  136.3430 C   0  0  1  0  0  3  0  0  0  0  0  0
  184.9570  172.7030  137.2510 C   0  0  0  0  0  2  0  0  0  0  0  0
  187.2270  178.4190  147.9160 N   0  0  0  0  0  2  0  0  0  0  0  0
  189.0490  178.4480  149.1760 O   0  0  0  0  0  1  0  0  0  0  0  0
  187.8740  177.7950  148.9940 N   0  0  0  0  0  0  0  0  0  0  0  0
  188.2850  176.1890  148.4540 Cl  0  0  0  0  0  0  0  0  0  0  0  0
  2 16  1  0  0  0  0
  3 12  1  6  0  0  0
  3  1  1  0  0  0  0
  3 15  1  0  0  0  0
  4 16  1  6  0  0  0
  4 18  1  0  0  0  0
  4 20  1  0  0  0  0
  6 11  2  0  0  0  0
  7  5  1  0  0  0  0
  9  7  2  0  0  0  0
 10  6  1  0  0  0  0
 10 17  2  0  0  0  0
 11  7  1  0  0  0  0
 12 14  1  0  0  0  0
 13  1  1  0  0  0  0
 14 21  1  1  0  0  0
 14  8  1  0  0  0  0
 15  8  1  6  0  0  0
 15  2  1  0  0  0  0
 17  9  1  0  0  0  0
 18  5  1  6  0  0  0
 18 20  1  0  0  0  0
 19 13  1  0  0  0  0
 19  6  1  0  0  0  0
 20 51  1  1  0  0  0
 22 25  2  0  0  0  0
 22 24  1  0  0  0  0
 23 21  1  0  0  0  0
 23 26  1  6  0  0  0
 24 21  2  0  0  0  0
 25 23  1  0  0  0  0
 27 29  1  0  0  0  0
 27 26  1  0  0  0  0
 28 27  2  0  0  0  0
 29 30  1  0  0  0  0
 31 29  1  0  0  0  0
 32 25  1  0  0  0  0
 33 35  1  0  0  0  0
 33 32  1  0  0  0  0
 35 34  1  0  0  0  0
 37 36  1  6  0  0  0
 37 10  1  0  0  0  0
 38 37  1  0  0  0  0
 39 38  1  0  0  0  0
 40 41  2  0  0  0  0
 40 39  1  0  0  0  0
 42 40  2  0  0  0  0
 43 50  1  0  0  0  0
 44 47  1  0  0  0  0
 44 40  1  1  0  0  0
 44 49  1  0  0  0  0
 46 47  1  0  0  0  0
 46 43  1  0  0  0  0
 49 48  1  6  0  0  0
 49 45  1  0  0  0  0
 50 45  1  0  0  0  0
 51 53  1  0  0  0  0
 53 52  1  0  0  0  0
 54 53  1  0  0  0  0
M  END
>  <MODEL>
8

>  <REMARK>
 VINA RESULT:      -5.1      4.100     10.828
  Name = 
  13 active torsions:
  status: ('A' for Active; 'I' for Inactive)
    1  A    between atoms: C_1  and  C_39
    2  A    between atoms: S_4  and  C_20
    3  A    between atoms: S_4  and  C_27
    4  A    between atoms: C_6  and  C_27
    5  A    between atoms: C_6  and  C_37
    6  A    between atoms: C_10  and  C_47
    7  A    between atoms: C_13  and  N_46
    8  A    between atoms: C_15  and  C_43
    9  A    between atoms: N_18  and  N_30
   10  A    between atoms: N_18  and  C_51
   11  A    between atoms: C_26  and  C_43
   12  A    between atoms: C_26  and  C_54
   13  A    between atoms: C_33  and  C_37
                            x       y       z     vdW  Elec       q    Type
                         _______ _______ _______ _____ _____    ______ ____

>  <TORSDO>
F 13

$$$$
=
 OpenBabel10222419433D

 54 59  0  0  1  0  0  0  0  0999 V2000
  183.9390  175.7030  134.9890 C   0  0  0  0  0  2  0  0  0  0  0  0
  183.8260  173.1060  136.2200 C   0  0  0  0  0  2  0  0  0  0  0  0
  184.4940  175.6060  136.4160 C   0  0  2  0  0  3  0  0  0  0  0  0
  181.4910  172.9020  135.4530 C   0  0  2  0  0  3  0  0  0  0  0  0
  179.7630  174.2490  136.7040 N   0  0  0  0  0  0  0  0  0  0  0  0
  181.7920  177.3160  136.4890 C   0  0  0  0  0  0  0  0  0  0  0  0
  180.2490  175.5680  136.9710 C   0  0  0  0  0  0  0  0  0  0  0  0
  186.1650  173.8710  136.6570 C   0  0  0  0  0  2  0  0  0  0  0  0
  179.7890  176.2530  138.0940 C   0  0  0  0  0  3  0  0  0  0  0  0
  181.3410  178.0460  137.6070 C   0  0  2  0  0  3  0  0  0  0  0  0
  181.2190  176.1170  136.1940 N   0  0  0  0  0  0  0  0  0  0  0  0
  185.8630  176.2720  136.4900 C   0  0  0  0  0  2  0  0  0  0  0  0
  183.4320  177.0990  134.6150 C   0  0  0  0  0  2  0  0  0  0  0  0
  186.8460  175.1940  136.9280 C   0  0  2  0  0  3  0  0  0  0  0  0
  184.7030  174.1610  136.8890 C   0  0  2  0  0  3  0  0  0  0  0  0
  182.3760  173.2440  136.6450 C   0  0  0  0  0  2  0  0  0  0  0  0
  180.3280  177.5010  138.4010 C   0  0  0  0  0  3  0  0  0  0  0  0
  180.0760  173.4970  135.4910 C   0  0  2  0  0  3  0  0  0  0  0  0
  182.8520  177.8010  135.7150 O   0  0  0  0  0  0  0  0  0  0  0  0
  180.3150  172.0470  135.8800 C   0  0  1  0  0  3  0  0  0  0  0  0
  188.1610  175.3020  136.2170 C   0  0  0  0  0  0  0  0  0  0  0  0
  189.6100  175.3560  134.5970 N   0  0  0  0  0  0  0  0  0  0  0  0
  189.3600  175.7020  136.7710 C   0  0  1  0  0  3  0  0  0  0  0  0
  188.3440  175.0900  134.8950 N   0  0  0  0  0  0  0  0  0  0  0  0
  190.2430  175.7480  135.7200 C   0  0  0  0  0  0  0  0  0  0  0  0
  189.6140  176.0840  138.1240 N   0  0  0  0  0  2  0  0  0  0  0  0
  189.5710  177.4500  138.5520 C   0  0  0  0  0  0  0  0  0  0  0  0
  189.1440  178.3470  137.7710 O   0  0  0  0  0  0  0  0  0  0  0  0
  189.9890  177.7990  139.9440 C   0  0  0  0  0  3  0  0  0  0  0  0
  191.4600  177.4890  140.1510 C   0  0  0  0  0  1  0  0  0  0  0  0
  189.1500  177.0410  140.9590 C   0  0  0  0  0  1  0  0  0  0  0  0
  191.6830  176.1240  135.7830 C   0  0  0  0  0  2  0  0  0  0  0  0
  192.4890  175.0120  136.4290 C   0  0  0  0  0  2  0  0  0  0  0  0
  194.5320  174.7830  137.6400 O   0  0  0  0  0  1  0  0  0  0  0  0
  193.9480  175.4110  136.5400 C   0  0  0  0  0  2  0  0  0  0  0  0
  181.1250  180.4360  137.3930 O   0  0  0  0  0  1  0  0  0  0  0  0
  181.8750  179.4060  137.9680 C   0  0  1  0  0  3  0  0  0  0  0  0
  182.0160  179.6100  139.4780 C   0  0  0  0  0  2  0  0  0  0  0  0
  183.4370  179.3660  139.9630 C   0  0  0  0  0  2  0  0  0  0  0  0
  183.4380  178.5990  141.5730 S   0  0  0  0  0  0  0  0  0  0  0  0
  182.1880  178.9920  142.3130 O   0  0  0  0  0  0  0  0  0  0  0  0
  183.4440  177.1080  141.3790 O   0  0  0  0  0  0  0  0  0  0  0  0
  186.9720  177.3720  144.3330 C   0  0  0  0  0  2  0  0  0  0  0  0
  184.8850  179.0770  142.5120 C   0  0  2  0  0  3  0  0  0  0  0  0
  184.6480  178.1800  144.9370 C   0  0  0  0  0  2  0  0  0  0  0  0
  187.1110  178.2910  143.2120 N   0  0  0  0  0  2  0  0  0  0  0  0
  185.9870  178.0310  142.3280 C   0  0  0  0  0  2  0  0  0  0  0  0
  185.1960  180.4890  144.4470 O   0  0  0  0  0  1  0  0  0  0  0  0
  184.5070  179.3690  143.9750 C   0  0  1  0  0  3  0  0  0  0  0  0
  186.0850  177.9740  145.4180 C   0  0  0  0  0  2  0  0  0  0  0  0
  179.9580  171.1620  134.7820 N   0  0  0  0  0  2  0  0  0  0  0  0
  180.0400  169.6460  136.3950 O   0  0  0  0  0  1  0  0  0  0  0  0
  180.3960  169.8690  135.1060 N   0  0  0  0  0  0  0  0  0  0  0  0
  182.1390  169.9230  135.0830 Cl  0  0  0  0  0  0  0  0  0  0  0  0
  2 16  1  0  0  0  0
  3  1  1  6  0  0  0
  3 12  1  0  0  0  0
  3 15  1  0  0  0  0
  4 18  1  0  0  0  0
  4 20  1  0  0  0  0
  4 16  1  1  0  0  0
  5  7  2  0  0  0  0
  6 10  1  0  0  0  0
  7  9  1  0  0  0  0
  8 15  1  0  0  0  0
  8 14  1  0  0  0  0
  9 17  2  0  0  0  0
 10 37  1  6  0  0  0
 10 17  1  0  0  0  0
 11  6  2  0  0  0  0
 11  7  1  0  0  0  0
 12 14  1  0  0  0  0
 13  1  1  0  0  0  0
 13 19  1  0  0  0  0
 14 21  1  6  0  0  0
 15  2  1  6  0  0  0
 18 20  1  0  0  0  0
 18  5  1  1  0  0  0
 19  6  1  0  0  0  0
 20 51  1  6  0  0  0
 21 23  1  0  0  0  0
 22 24  1  0  0  0  0
 22 25  2  0  0  0  0
 23 26  1  6  0  0  0
 24 21  2  0  0  0  0
 25 32  1  0  0  0  0
 25 23  1  0  0  0  0
 26 27  1  0  0  0  0
 27 29  1  0  0  0  0
 28 27  2  0  0  0  0
 29 30  1  0  0  0  0
 29 31  1  0  0  0  0
 32 33  1  0  0  0  0
 33 35  1  0  0  0  0
 35 34  1  0  0  0  0
 37 36  1  1  0  0  0
 37 38  1  0  0  0  0
 38 39  1  0  0  0  0
 39 40  1  0  0  0  0
 40 41  2  0  0  0  0
 42 40  2  0  0  0  0
 43 50  1  0  0  0  0
 44 40  1  6  0  0  0
 44 49  1  0  0  0  0
 45 50  1  0  0  0  0
 46 43  1  0  0  0  0
 47 44  1  0  0  0  0
 47 46  1  0  0  0  0
 49 48  1  1  0  0  0
 49 45  1  0  0  0  0
 51 53  1  0  0  0  0
 53 52  1  0  0  0  0
 54 53  1  0  0  0  0
M  END
>  <MODEL>
9

>  <REMARK>
 VINA RESULT:      -4.9      2.046      2.581
  Name = 
  13 active torsions:
  status: ('A' for Active; 'I' for Inactive)
    1  A    between atoms: C_1  and  C_39
    2  A    between atoms: S_4  and  C_20
    3  A    between atoms: S_4  and  C_27
    4  A    between atoms: C_6  and  C_27
    5  A    between atoms: C_6  and  C_37
    6  A    between atoms: C_10  and  C_47
    7  A    between atoms: C_13  and  N_46
    8  A    between atoms: C_15  and  C_43
    9  A    between atoms: N_18  and  N_30
   10  A    between atoms: N_18  and  C_51
   11  A    between atoms: C_26  and  C_43
   12  A    between atoms: C_26  and  C_54
   13  A    between atoms: C_33  and  C_37
                            x       y       z     vdW  Elec       q    Type
                         _______ _______ _______ _____ _____    ______ ____

>  <TORSDO>
F 13

$$$$
