=
 OpenBabel10222419583D

 36 39  0  0  1  0  0  0  0  0999 V2000
  189.9240  177.1450  140.9460 C   0  0  1  0  0  3  0  0  0  0  0  0
  191.4190  176.5110  142.7000 O   0  0  0  0  0  0  0  0  0  0  0  0
  189.1840  176.1090  143.1500 N   0  0  0  0  0  2  0  0  0  0  0  0
  190.2290  176.6010  142.3120 C   0  0  0  0  0  0  0  0  0  0  0  0
  187.8740  176.6680  143.1440 C   0  0  0  0  0  3  0  0  0  0  0  0
  187.3920  177.2910  144.2120 C   0  0  0  0  0  3  0  0  0  0  0  0
  185.4550  178.3520  145.3830 C   0  0  0  0  0  3  0  0  0  0  0  0
  185.4070  178.1100  142.9770 C   0  0  0  0  0  3  0  0  0  0  0  0
  184.1060  178.6250  142.9550 C   0  0  0  0  0  3  0  0  0  0  0  0
  183.4860  179.0120  144.1400 C   0  0  0  0  0  3  0  0  0  0  0  0
  186.0760  177.9490  144.1950 C   0  0  0  0  0  0  0  0  0  0  0  0
  184.1690  178.8930  145.3560 C   0  0  0  0  0  3  0  0  0  0  0  0
  189.0500  178.4080  140.9300 C   0  0  0  0  0  2  0  0  0  0  0  0
  184.8960  178.9810  138.8340 C   0  0  0  0  0  1  0  0  0  0  0  0
  186.3200  177.4070  137.4580 C   0  0  0  0  0  0  0  0  0  0  0  0
  186.0510  175.9310  135.8140 C   0  0  0  0  0  0  0  0  0  0  0  0
  187.6540  176.9120  137.0320 C   0  0  1  0  0  3  0  0  0  0  0  0
  188.2990  178.4670  139.6390 C   0  0  0  0  0  0  0  0  0  0  0  0
  186.1430  178.2690  138.5960 N   0  0  0  0  0  0  0  0  0  0  0  0
  185.3900  175.0540  134.8100 C   0  0  0  0  0  1  0  0  0  0  0  0
  188.9160  179.0640  137.1340 C   0  0  0  0  0  3  0  0  0  0  0  0
  187.0330  178.1590  139.6720 N   0  0  0  0  0  0  0  0  0  0  0  0
  185.3760  176.8430  136.7120 C   0  0  0  0  0  0  0  0  0  0  0  0
  187.3270  175.9470  135.9910 N   0  0  0  0  0  0  0  0  0  0  0  0
  188.9120  179.2070  138.5660 N   0  0  0  0  0  2  0  0  0  0  0  0
  188.3910  178.0570  136.4340 C   0  0  0  0  0  3  0  0  0  0  0  0
  182.7540  177.1050  136.9540 C   0  0  0  0  0  3  0  0  0  0  0  0
  183.9480  176.9890  136.8410 C   0  0  0  0  0  0  0  0  0  0  0  0
  191.0380  177.1090  140.0680 O   0  0  0  0  0  0  0  0  0  0  0  0
  190.8220  176.2020  139.0090 C   0  0  0  0  0  2  0  0  0  0  0  0
  191.3340  176.6970  137.8060 O   0  0  0  0  0  0  0  0  0  0  0  0
  191.5070  175.5760  136.9860 C   0  0  0  0  0  2  0  0  0  0  0  0
  192.4850  174.5900  137.6140 C   0  0  0  0  0  2  0  0  0  0  0  0
  194.4810  175.5710  138.4290 O   0  0  0  0  0  0  0  0  0  0  0  0
  193.9150  174.9780  137.2870 C   0  0  1  0  0  3  0  0  0  0  0  0
  194.8490  174.2440  138.1620 C   0  0  0  0  0  2  0  0  0  0  0  0
  1 13  1  1  0  0  0
  1  4  1  0  0  0  0
  4  2  2  0  0  0  0
  4  3  1  0  0  0  0
  5  3  1  0  0  0  0
  5  6  2  0  0  0  0
  8 11  1  0  0  0  0
  9  8  2  0  0  0  0
  9 10  1  0  0  0  0
 10 12  2  0  0  0  0
 11  6  1  0  0  0  0
 11  7  2  0  0  0  0
 12  7  1  0  0  0  0
 15 19  1  0  0  0  0
 16 24  2  0  0  0  0
 16 23  1  0  0  0  0
 17 26  1  6  0  0  0
 17 15  1  0  0  0  0
 18 22  2  0  0  0  0
 18 13  1  0  0  0  0
 19 14  1  0  0  0  0
 19 22  1  0  0  0  0
 20 16  1  0  0  0  0
 21 25  1  0  0  0  0
 23 28  1  0  0  0  0
 23 15  2  0  0  0  0
 24 17  1  0  0  0  0
 25 18  1  0  0  0  0
 26 21  2  0  0  0  0
 28 27  3  0  0  0  0
 29  1  1  0  0  0  0
 30 29  1  0  0  0  0
 31 30  1  0  0  0  0
 32 33  1  0  0  0  0
 32 31  1  0  0  0  0
 35 33  1  1  0  0  0
 35 36  1  0  0  0  0
 35 34  1  0  0  0  0
 36 34  1  0  0  0  0
M  END
>  <MODEL>
1

>  <REMARK>
 VINA RESULT:      -7.7      0.000      0.000
  Name = 
  12 active torsions:
  status: ('A' for Active; 'I' for Inactive)
    1  A    between atoms: C_3  and  C_12
    2  A    between atoms: C_3  and  C_17
    3  A    between atoms: C_6  and  N_26
    4  A    between atoms: C_7  and  C_34
    5  A    between atoms: O_8  and  C_22
    6  A    between atoms: O_8  and  C_30
    7  A    between atoms: C_17  and  C_28
    8  A    between atoms: C_17  and  O_31
    9  A    between atoms: C_18  and  C_25
   10  A    between atoms: C_22  and  O_31
   11  A    between atoms: C_25  and  C_30
   12  A    between atoms: C_27  and  C_32
                            x       y       z     vdW  Elec       q    Type
                         _______ _______ _______ _____ _____    ______ ____

>  <TORSDO>
F 12

$$$$
=
 OpenBabel10222419583D

 36 39  0  0  1  0  0  0  0  0999 V2000
  189.6740  176.8770  141.0510 C   0  0  1  0  0  3  0  0  0  0  0  0
  191.2210  176.5090  142.8350 O   0  0  0  0  0  0  0  0  0  0  0  0
  189.0090  176.1030  143.3830 N   0  0  0  0  0  2  0  0  0  0  0  0
  190.0210  176.5160  142.4670 C   0  0  0  0  0  0  0  0  0  0  0  0
  187.6820  176.6200  143.3380 C   0  0  0  0  0  3  0  0  0  0  0  0
  187.2430  177.4570  144.2700 C   0  0  0  0  0  3  0  0  0  0  0  0
  185.2220  178.4540  145.3520 C   0  0  0  0  0  3  0  0  0  0  0  0
  185.2840  178.1970  142.9470 C   0  0  0  0  0  3  0  0  0  0  0  0
  183.9680  178.6640  142.8670 C   0  0  0  0  0  3  0  0  0  0  0  0
  183.2850  179.0370  144.0220 C   0  0  0  0  0  3  0  0  0  0  0  0
  185.9070  178.0670  144.1930 C   0  0  0  0  0  0  0  0  0  0  0  0
  183.9210  178.9500  145.2660 C   0  0  0  0  0  3  0  0  0  0  0  0
  189.2050  178.3250  140.8470 C   0  0  0  0  0  2  0  0  0  0  0  0
  184.9710  179.0510  138.9700 C   0  0  0  0  0  1  0  0  0  0  0  0
  186.2530  177.4070  137.5370 C   0  0  0  0  0  0  0  0  0  0  0  0
  185.8370  175.9290  135.9260 C   0  0  0  0  0  0  0  0  0  0  0  0
  187.5410  176.8540  137.0450 C   0  0  1  0  0  3  0  0  0  0  0  0
  188.3880  178.4040  139.5980 C   0  0  0  0  0  0  0  0  0  0  0  0
  186.1730  178.2850  138.6730 N   0  0  0  0  0  0  0  0  0  0  0  0
  185.0870  175.0710  134.9690 C   0  0  0  0  0  1  0  0  0  0  0  0
  188.8930  178.9540  137.0570 C   0  0  0  0  0  3  0  0  0  0  0  0
  187.1140  178.1490  139.7010 N   0  0  0  0  0  0  0  0  0  0  0  0
  185.2490  176.8760  136.8490 C   0  0  0  0  0  0  0  0  0  0  0  0
  187.1200  175.8940  136.0340 N   0  0  0  0  0  0  0  0  0  0  0  0
  188.9720  179.1090  138.4850 N   0  0  0  0  0  2  0  0  0  0  0  0
  188.2910  177.9630  136.3970 C   0  0  0  0  0  3  0  0  0  0  0  0
  182.6540  177.2460  137.2190 C   0  0  0  0  0  3  0  0  0  0  0  0
  183.8370  177.0820  137.0520 C   0  0  0  0  0  0  0  0  0  0  0  0
  190.5780  176.3410  140.0980 O   0  0  0  0  0  0  0  0  0  0  0  0
  191.6750  177.2050  139.8950 C   0  0  0  0  0  2  0  0  0  0  0  0
  192.4690  176.7740  138.8290 O   0  0  0  0  0  0  0  0  0  0  0  0
  191.5730  176.4810  137.7940 C   0  0  0  0  0  2  0  0  0  0  0  0
  192.1360  175.3980  136.8790 C   0  0  0  0  0  2  0  0  0  0  0  0
  190.0600  174.2710  137.0480 O   0  0  0  0  0  0  0  0  0  0  0  0
  191.4480  174.0710  137.1410 C   0  0  1  0  0  3  0  0  0  0  0  0
  190.6820  173.6570  135.9500 C   0  0  0  0  0  2  0  0  0  0  0  0
  1 13  1  1  0  0  0
  1  4  1  0  0  0  0
  4  2  2  0  0  0  0
  4  3  1  0  0  0  0
  5  3  1  0  0  0  0
  5  6  2  0  0  0  0
  8 11  1  0  0  0  0
  9  8  2  0  0  0  0
  9 10  1  0  0  0  0
 10 12  2  0  0  0  0
 11  6  1  0  0  0  0
 11  7  2  0  0  0  0
 12  7  1  0  0  0  0
 15 19  1  0  0  0  0
 16 24  2  0  0  0  0
 16 23  1  0  0  0  0
 17 26  1  6  0  0  0
 17 15  1  0  0  0  0
 18 22  2  0  0  0  0
 18 13  1  0  0  0  0
 19 14  1  0  0  0  0
 19 22  1  0  0  0  0
 20 16  1  0  0  0  0
 21 25  1  0  0  0  0
 23 28  1  0  0  0  0
 23 15  2  0  0  0  0
 24 17  1  0  0  0  0
 25 18  1  0  0  0  0
 26 21  2  0  0  0  0
 28 27  3  0  0  0  0
 29  1  1  0  0  0  0
 30 29  1  0  0  0  0
 31 30  1  0  0  0  0
 32 31  1  0  0  0  0
 33 32  1  0  0  0  0
 34 35  1  0  0  0  0
 35 33  1  6  0  0  0
 36 34  1  0  0  0  0
 36 35  1  0  0  0  0
M  END
>  <MODEL>
2

>  <REMARK>
 VINA RESULT:      -7.5      0.880      1.318
  Name = 
  12 active torsions:
  status: ('A' for Active; 'I' for Inactive)
    1  A    between atoms: C_3  and  C_12
    2  A    between atoms: C_3  and  C_17
    3  A    between atoms: C_6  and  N_26
    4  A    between atoms: C_7  and  C_34
    5  A    between atoms: O_8  and  C_22
    6  A    between atoms: O_8  and  C_30
    7  A    between atoms: C_17  and  C_28
    8  A    between atoms: C_17  and  O_31
    9  A    between atoms: C_18  and  C_25
   10  A    between atoms: C_22  and  O_31
   11  A    between atoms: C_25  and  C_30
   12  A    between atoms: C_27  and  C_32
                            x       y       z     vdW  Elec       q    Type
                         _______ _______ _______ _____ _____    ______ ____

>  <TORSDO>
F 12

$$$$
=
 OpenBabel10222419583D

 36 39  0  0  1  0  0  0  0  0999 V2000
  184.8660  178.2960  142.5060 C   0  0  1  0  0  3  0  0  0  0  0  0
  182.6460  178.6100  143.3340 O   0  0  0  0  0  0  0  0  0  0  0  0
  184.3060  179.5260  144.6630 N   0  0  0  0  0  2  0  0  0  0  0  0
  183.8750  178.7880  143.5210 C   0  0  0  0  0  0  0  0  0  0  0  0
  185.5560  179.2840  145.3010 C   0  0  0  0  0  3  0  0  0  0  0  0
  185.6820  178.3310  146.2170 C   0  0  0  0  0  3  0  0  0  0  0  0
  187.2710  178.3660  148.1460 C   0  0  0  0  0  3  0  0  0  0  0  0
  187.9710  177.4010  146.0410 C   0  0  0  0  0  3  0  0  0  0  0  0
  189.2520  177.1950  146.5650 C   0  0  0  0  0  3  0  0  0  0  0  0
  189.5390  177.5630  147.8780 C   0  0  0  0  0  3  0  0  0  0  0  0
  186.9830  178.0090  146.8230 C   0  0  0  0  0  0  0  0  0  0  0  0
  188.5400  178.1320  148.6770 C   0  0  0  0  0  3  0  0  0  0  0  0
  185.3310  179.3480  141.4890 C   0  0  0  0  0  2  0  0  0  0  0  0
  181.9800  180.3910  138.3810 C   0  0  0  0  0  1  0  0  0  0  0  0
  182.5220  177.9240  138.2350 C   0  0  0  0  0  0  0  0  0  0  0  0
  181.6230  176.0720  137.3870 C   0  0  0  0  0  0  0  0  0  0  0  0
  183.4740  176.7990  138.4170 C   0  0  1  0  0  3  0  0  0  0  0  0
  184.7220  179.0450  140.1580 C   0  0  0  0  0  0  0  0  0  0  0  0
  182.7480  179.2270  138.7990 N   0  0  0  0  0  0  0  0  0  0  0  0
  180.6470  175.1580  136.7350 C   0  0  0  0  0  1  0  0  0  0  0  0
  185.5980  177.9990  137.8880 C   0  0  0  0  0  3  0  0  0  0  0  0
  183.4600  179.3290  140.0010 N   0  0  0  0  0  0  0  0  0  0  0  0
  181.4390  177.4920  137.5970 C   0  0  0  0  0  0  0  0  0  0  0  0
  182.7520  175.6650  137.8550 N   0  0  0  0  0  0  0  0  0  0  0  0
  185.6330  178.8290  139.0620 N   0  0  0  0  0  2  0  0  0  0  0  0
  184.6750  177.0840  137.5890 C   0  0  0  0  0  3  0  0  0  0  0  0
  179.2450  178.8550  137.0180 C   0  0  0  0  0  3  0  0  0  0  0  0
  180.2460  178.2380  137.2850 C   0  0  0  0  0  0  0  0  0  0  0  0
  185.8520  177.4380  143.0580 O   0  0  0  0  0  0  0  0  0  0  0  0
  187.1280  177.7200  142.5240 C   0  0  0  0  0  2  0  0  0  0  0  0
  188.0030  176.6460  142.7090 O   0  0  0  0  0  0  0  0  0  0  0  0
  189.1680  176.9920  142.0150 C   0  0  0  0  0  2  0  0  0  0  0  0
  190.4070  176.7050  142.8570 C   0  0  0  0  0  2  0  0  0  0  0  0
  190.7170  178.9490  143.5460 O   0  0  0  0  0  0  0  0  0  0  0  0
  191.3420  177.9000  142.8510 C   0  0  1  0  0  3  0  0  0  0  0  0
  191.7200  178.2500  144.2330 C   0  0  0  0  0  2  0  0  0  0  0  0
  1 13  1  1  0  0  0
  1 29  1  0  0  0  0
  1  4  1  0  0  0  0
  2  4  2  0  0  0  0
  3  5  1  0  0  0  0
  4  3  1  0  0  0  0
  5  6  2  0  0  0  0
  6 11  1  0  0  0  0
  7 12  1  0  0  0  0
  8  9  2  0  0  0  0
  8 11  1  0  0  0  0
  9 10  1  0  0  0  0
 10 12  2  0  0  0  0
 11  7  2  0  0  0  0
 14 19  1  0  0  0  0
 15 17  1  0  0  0  0
 15 19  1  0  0  0  0
 16 23  1  0  0  0  0
 16 24  2  0  0  0  0
 17 26  1  6  0  0  0
 18 13  1  0  0  0  0
 19 22  1  0  0  0  0
 20 16  1  0  0  0  0
 21 25  1  0  0  0  0
 22 18  2  0  0  0  0
 23 15  2  0  0  0  0
 24 17  1  0  0  0  0
 25 18  1  0  0  0  0
 26 21  2  0  0  0  0
 27 28  3  0  0  0  0
 28 23  1  0  0  0  0
 30 31  1  0  0  0  0
 30 29  1  0  0  0  0
 32 31  1  0  0  0  0
 32 33  1  0  0  0  0
 34 36  1  0  0  0  0
 35 33  1  1  0  0  0
 35 34  1  0  0  0  0
 35 36  1  0  0  0  0
M  END
>  <MODEL>
3

>  <REMARK>
 VINA RESULT:      -7.3      3.490      5.192
  Name = 
  12 active torsions:
  status: ('A' for Active; 'I' for Inactive)
    1  A    between atoms: C_3  and  C_12
    2  A    between atoms: C_3  and  C_17
    3  A    between atoms: C_6  and  N_26
    4  A    between atoms: C_7  and  C_34
    5  A    between atoms: O_8  and  C_22
    6  A    between atoms: O_8  and  C_30
    7  A    between atoms: C_17  and  C_28
    8  A    between atoms: C_17  and  O_31
    9  A    between atoms: C_18  and  C_25
   10  A    between atoms: C_22  and  O_31
   11  A    between atoms: C_25  and  C_30
   12  A    between atoms: C_27  and  C_32
                            x       y       z     vdW  Elec       q    Type
                         _______ _______ _______ _____ _____    ______ ____

>  <TORSDO>
F 12

$$$$
=
 OpenBabel10222419583D

 36 39  0  0  1  0  0  0  0  0999 V2000
  188.8640  178.1330  140.4330 C   0  0  1  0  0  3  0  0  0  0  0  0
  190.6950  176.7020  139.8730 O   0  0  0  0  0  0  0  0  0  0  0  0
  189.8760  176.4200  142.0200 N   0  0  0  0  0  2  0  0  0  0  0  0
  189.8780  177.0720  140.7510 C   0  0  0  0  0  0  0  0  0  0  0  0
  189.4940  177.0860  143.2200 C   0  0  0  0  0  3  0  0  0  0  0  0
  188.5140  176.6140  143.9810 C   0  0  0  0  0  3  0  0  0  0  0  0
  189.0780  177.2660  146.3270 C   0  0  0  0  0  3  0  0  0  0  0  0
  186.8760  177.7510  145.4500 C   0  0  0  0  0  3  0  0  0  0  0  0
  186.4890  178.2410  146.7020 C   0  0  0  0  0  3  0  0  0  0  0  0
  187.3960  178.2550  147.7590 C   0  0  0  0  0  3  0  0  0  0  0  0
  188.1650  177.2390  145.2660 C   0  0  0  0  0  0  0  0  0  0  0  0
  188.7000  177.7840  147.5660 C   0  0  0  0  0  3  0  0  0  0  0  0
  189.0710  178.8460  139.0880 C   0  0  0  0  0  2  0  0  0  0  0  0
  185.2450  177.3500  136.8300 C   0  0  0  0  0  1  0  0  0  0  0  0
  186.9990  175.5270  136.8100 C   0  0  0  0  0  0  0  0  0  0  0  0
  187.1170  173.3400  136.4120 C   0  0  0  0  0  0  0  0  0  0  0  0
  188.4210  175.1030  136.8630 C   0  0  1  0  0  3  0  0  0  0  0  0
  188.5210  177.9930  137.9920 C   0  0  0  0  0  0  0  0  0  0  0  0
  186.5740  176.8550  137.1610 N   0  0  0  0  0  0  0  0  0  0  0  0
  186.6980  171.9410  136.1240 C   0  0  0  0  0  1  0  0  0  0  0  0
  189.4500  177.0560  135.6950 C   0  0  0  0  0  3  0  0  0  0  0  0
  187.2980  177.5620  138.1280 N   0  0  0  0  0  0  0  0  0  0  0  0
  186.2340  174.4810  136.5130 C   0  0  0  0  0  0  0  0  0  0  0  0
  188.3450  173.6690  136.6210 N   0  0  0  0  0  0  0  0  0  0  0  0
  189.2170  178.0270  136.7310 N   0  0  0  0  0  2  0  0  0  0  0  0
  189.1310  175.7610  135.7340 C   0  0  0  0  0  3  0  0  0  0  0  0
  183.5910  174.4080  136.3750 C   0  0  0  0  0  3  0  0  0  0  0  0
  184.7950  174.4370  136.4350 C   0  0  0  0  0  0  0  0  0  0  0  0
  187.5400  177.7650  140.7810 O   0  0  0  0  0  0  0  0  0  0  0  0
  186.8970  178.7950  141.5000 C   0  0  0  0  0  2  0  0  0  0  0  0
  185.8540  179.3550  140.7590 O   0  0  0  0  0  0  0  0  0  0  0  0
  184.7500  178.5240  140.9830 C   0  0  0  0  0  2  0  0  0  0  0  0
  184.6210  178.1790  142.4620 C   0  0  0  0  0  2  0  0  0  0  0  0
  183.3180  178.5030  144.4130 O   0  0  0  0  0  0  0  0  0  0  0  0
  183.4710  178.9470  143.0880 C   0  0  1  0  0  3  0  0  0  0  0  0
  183.9590  179.7380  144.2350 C   0  0  0  0  0  2  0  0  0  0  0  0
  1 13  1  6  0  0  0
  1  4  1  0  0  0  0
  1 29  1  0  0  0  0
  2  4  2  0  0  0  0
  3  5  1  0  0  0  0
  4  3  1  0  0  0  0
  5  6  2  0  0  0  0
  6 11  1  0  0  0  0
  7 12  1  0  0  0  0
  8  9  2  0  0  0  0
  9 10  1  0  0  0  0
 11  8  1  0  0  0  0
 11  7  2  0  0  0  0
 12 10  2  0  0  0  0
 14 19  1  0  0  0  0
 15 17  1  0  0  0  0
 15 19  1  0  0  0  0
 16 23  1  0  0  0  0
 16 24  2  0  0  0  0
 17 26  1  6  0  0  0
 18 22  2  0  0  0  0
 18 13  1  0  0  0  0
 19 22  1  0  0  0  0
 20 16  1  0  0  0  0
 21 26  2  0  0  0  0
 21 25  1  0  0  0  0
 23 15  2  0  0  0  0
 24 17  1  0  0  0  0
 25 18  1  0  0  0  0
 27 28  3  0  0  0  0
 28 23  1  0  0  0  0
 29 30  1  0  0  0  0
 31 32  1  0  0  0  0
 31 30  1  0  0  0  0
 32 33  1  0  0  0  0
 35 33  1  6  0  0  0
 35 36  1  0  0  0  0
 35 34  1  0  0  0  0
 36 34  1  0  0  0  0
M  END
>  <MODEL>
4

>  <REMARK>
 VINA RESULT:      -7.2      2.571      5.246
  Name = 
  12 active torsions:
  status: ('A' for Active; 'I' for Inactive)
    1  A    between atoms: C_3  and  C_12
    2  A    between atoms: C_3  and  C_17
    3  A    between atoms: C_6  and  N_26
    4  A    between atoms: C_7  and  C_34
    5  A    between atoms: O_8  and  C_22
    6  A    between atoms: O_8  and  C_30
    7  A    between atoms: C_17  and  C_28
    8  A    between atoms: C_17  and  O_31
    9  A    between atoms: C_18  and  C_25
   10  A    between atoms: C_22  and  O_31
   11  A    between atoms: C_25  and  C_30
   12  A    between atoms: C_27  and  C_32
                            x       y       z     vdW  Elec       q    Type
                         _______ _______ _______ _____ _____    ______ ____

>  <TORSDO>
F 12

$$$$
=
 OpenBabel10222419583D

 36 39  0  0  1  0  0  0  0  0999 V2000
  185.6770  178.1450  142.9780 C   0  0  1  0  0  3  0  0  0  0  0  0
  183.9430  178.5460  144.5740 O   0  0  0  0  0  0  0  0  0  0  0  0
  186.0680  178.3910  145.4820 N   0  0  0  0  0  2  0  0  0  0  0  0
  185.1660  178.3460  144.3760 C   0  0  0  0  0  0  0  0  0  0  0  0
  187.2660  177.6220  145.5210 C   0  0  0  0  0  3  0  0  0  0  0  0
  188.3980  178.1440  145.9770 C   0  0  0  0  0  3  0  0  0  0  0  0
  190.0860  176.9260  147.3600 C   0  0  0  0  0  3  0  0  0  0  0  0
  190.3720  177.0460  144.9610 C   0  0  0  0  0  3  0  0  0  0  0  0
  191.6000  176.3850  145.0780 C   0  0  0  0  0  3  0  0  0  0  0  0
  192.0640  175.9860  146.3290 C   0  0  0  0  0  3  0  0  0  0  0  0
  189.6230  177.3410  146.1050 C   0  0  0  0  0  0  0  0  0  0  0  0
  191.2960  176.2400  147.4720 C   0  0  0  0  0  3  0  0  0  0  0  0
  185.4610  179.3350  142.0310 C   0  0  0  0  0  2  0  0  0  0  0  0
  180.9030  178.5400  141.2750 C   0  0  0  0  0  1  0  0  0  0  0  0
  182.2760  177.1160  139.6980 C   0  0  0  0  0  0  0  0  0  0  0  0
  181.9880  175.3440  138.3820 C   0  0  0  0  0  0  0  0  0  0  0  0
  183.5270  176.8740  138.9350 C   0  0  1  0  0  3  0  0  0  0  0  0
  184.4020  178.9830  141.0370 C   0  0  0  0  0  0  0  0  0  0  0  0
  182.1850  178.1040  140.7390 N   0  0  0  0  0  0  0  0  0  0  0  0
  181.3470  174.1700  137.7300 C   0  0  0  0  0  1  0  0  0  0  0  0
  184.1270  179.2420  138.4160 C   0  0  0  0  0  3  0  0  0  0  0  0
  183.3270  178.4010  141.4910 N   0  0  0  0  0  0  0  0  0  0  0  0
  181.3590  176.2220  139.3440 C   0  0  0  0  0  0  0  0  0  0  0  0
  183.2090  175.6870  138.1530 N   0  0  0  0  0  0  0  0  0  0  0  0
  184.4720  179.6370  139.7550 N   0  0  0  0  0  2  0  0  0  0  0  0
  183.7300  178.0300  138.0220 C   0  0  0  0  0  3  0  0  0  0  0  0
  178.9320  175.9200  140.3570 C   0  0  0  0  0  3  0  0  0  0  0  0
  180.0360  176.0550  139.8920 C   0  0  0  0  0  0  0  0  0  0  0  0
  186.9340  177.4900  142.9300 O   0  0  0  0  0  0  0  0  0  0  0  0
  187.8280  178.1660  142.0730 C   0  0  0  0  0  2  0  0  0  0  0  0
  188.1830  177.3690  140.9810 O   0  0  0  0  0  0  0  0  0  0  0  0
  189.4740  177.7760  140.6270 C   0  0  0  0  0  2  0  0  0  0  0  0
  189.6920  177.6490  139.1240 C   0  0  0  0  0  2  0  0  0  0  0  0
  189.0480  179.5590  137.8800 O   0  0  0  0  0  0  0  0  0  0  0  0
  188.5670  178.3300  138.3650 C   0  0  1  0  0  3  0  0  0  0  0  0
  188.9520  178.5110  136.9520 C   0  0  0  0  0  2  0  0  0  0  0  0
  1 13  1  1  0  0  0
  1  4  1  0  0  0  0
  3  5  1  0  0  0  0
  4  2  2  0  0  0  0
  4  3  1  0  0  0  0
  5  6  2  0  0  0  0
  6 11  1  0  0  0  0
  7 12  1  0  0  0  0
  8  9  2  0  0  0  0
  8 11  1  0  0  0  0
  9 10  1  0  0  0  0
 10 12  2  0  0  0  0
 11  7  2  0  0  0  0
 15 19  1  0  0  0  0
 16 23  1  0  0  0  0
 17 26  1  6  0  0  0
 17 15  1  0  0  0  0
 18 22  2  0  0  0  0
 18 13  1  0  0  0  0
 19 14  1  0  0  0  0
 19 22  1  0  0  0  0
 20 16  1  0  0  0  0
 21 25  1  0  0  0  0
 23 15  2  0  0  0  0
 23 28  1  0  0  0  0
 24 16  2  0  0  0  0
 24 17  1  0  0  0  0
 25 18  1  0  0  0  0
 26 21  2  0  0  0  0
 28 27  3  0  0  0  0
 29  1  1  0  0  0  0
 30 29  1  0  0  0  0
 31 30  1  0  0  0  0
 32 31  1  0  0  0  0
 33 32  1  0  0  0  0
 34 35  1  0  0  0  0
 35 33  1  1  0  0  0
 36 34  1  0  0  0  0
 36 35  1  0  0  0  0
M  END
>  <MODEL>
5

>  <REMARK>
 VINA RESULT:      -7.1      3.319      5.383
  Name = 
  12 active torsions:
  status: ('A' for Active; 'I' for Inactive)
    1  A    between atoms: C_3  and  C_12
    2  A    between atoms: C_3  and  C_17
    3  A    between atoms: C_6  and  N_26
    4  A    between atoms: C_7  and  C_34
    5  A    between atoms: O_8  and  C_22
    6  A    between atoms: O_8  and  C_30
    7  A    between atoms: C_17  and  C_28
    8  A    between atoms: C_17  and  O_31
    9  A    between atoms: C_18  and  C_25
   10  A    between atoms: C_22  and  O_31
   11  A    between atoms: C_25  and  C_30
   12  A    between atoms: C_27  and  C_32
                            x       y       z     vdW  Elec       q    Type
                         _______ _______ _______ _____ _____    ______ ____

>  <TORSDO>
F 12

$$$$
=
 OpenBabel10222419583D

 36 39  0  0  1  0  0  0  0  0999 V2000
  185.1910  178.6240  140.5360 C   0  0  1  0  0  3  0  0  0  0  0  0
  182.9570  177.8700  140.9290 O   0  0  0  0  0  0  0  0  0  0  0  0
  184.1190  178.4690  142.8400 N   0  0  0  0  0  0  0  0  0  0  0  0
  184.0340  178.2740  141.4290 C   0  0  0  0  0  0  0  0  0  0  0  0
  185.3370  178.3140  143.5610 C   0  0  0  0  0  3  0  0  0  0  0  0
  185.3570  178.3560  144.8880 C   0  0  0  0  0  2  0  0  0  0  0  0
  187.7390  177.6120  145.0240 C   0  0  0  0  0  3  0  0  0  0  0  0
  186.5930  178.3180  147.0340 C   0  0  0  0  0  3  0  0  0  0  0  0
  187.7200  177.9790  147.7910 C   0  0  0  0  0  3  0  0  0  0  0  0
  188.8560  177.4700  147.1670 C   0  0  0  0  0  3  0  0  0  0  0  0
  186.5910  178.1130  145.6500 C   0  0  0  0  0  0  0  0  0  0  0  0
  188.8720  177.3040  145.7770 C   0  0  0  0  0  3  0  0  0  0  0  0
  184.8020  179.2030  139.1680 C   0  0  0  0  0  2  0  0  0  0  0  0
  184.2150  176.1500  135.6590 C   0  0  0  0  0  1  0  0  0  0  0  0
  186.4650  175.7580  136.7450 C   0  0  0  0  0  0  0  0  0  0  0  0
  188.0300  174.1760  136.8010 C   0  0  0  0  0  0  0  0  0  0  0  0
  187.6290  176.2580  137.5200 C   0  0  1  0  0  3  0  0  0  0  0  0
  185.4530  178.3950  138.0920 C   0  0  0  0  0  0  0  0  0  0  0  0
  185.2320  176.4900  136.6430 N   0  0  0  0  0  0  0  0  0  0  0  0
  188.7210  172.8770  136.5760 C   0  0  0  0  0  1  0  0  0  0  0  0
  187.6780  178.6060  136.6730 C   0  0  0  0  0  3  0  0  0  0  0  0
  184.8420  177.3090  137.7100 N   0  0  0  0  0  0  0  0  0  0  0  0
  186.7220  174.5330  136.2970 C   0  0  0  0  0  0  0  0  0  0  0  0
  188.5460  175.1260  137.5010 N   0  0  0  0  0  0  0  0  0  0  0  0
  186.4700  179.0540  137.3120 N   0  0  0  0  0  2  0  0  0  0  0  0
  188.2230  177.3910  136.7630 C   0  0  0  0  0  3  0  0  0  0  0  0
  185.1050  172.9250  134.9540 C   0  0  0  0  0  3  0  0  0  0  0  0
  185.8380  173.6610  135.5660 C   0  0  0  0  0  0  0  0  0  0  0  0
  186.2650  179.2420  141.2280 O   0  0  0  0  0  0  0  0  0  0  0  0
  187.4030  178.4080  141.2470 C   0  0  0  0  0  2  0  0  0  0  0  0
  188.2930  178.7420  140.2230 O   0  0  0  0  0  0  0  0  0  0  0  0
  189.3410  177.8200  140.3250 C   0  0  0  0  0  2  0  0  0  0  0  0
  189.6990  177.5640  141.7840 C   0  0  0  0  0  2  0  0  0  0  0  0
  191.5300  178.1330  143.1740 O   0  0  0  0  0  0  0  0  0  0  0  0
  191.2050  177.5040  141.9590 C   0  0  1  0  0  3  0  0  0  0  0  0
  191.5410  176.7300  143.1700 C   0  0  0  0  0  2  0  0  0  0  0  0
  1 13  1  6  0  0  0
  1 29  1  0  0  0  0
  1  4  1  0  0  0  0
  2  4  2  0  0  0  0
  3  5  2  0  0  0  0
  4  3  1  0  0  0  0
  5  6  1  0  0  0  0
  6 11  1  0  0  0  0
  7 11  2  0  0  0  0
  7 12  1  0  0  0  0
  8  9  2  0  0  0  0
 10  9  1  0  0  0  0
 11  8  1  0  0  0  0
 12 10  2  0  0  0  0
 14 19  1  0  0  0  0
 15 17  1  0  0  0  0
 16 24  2  0  0  0  0
 17 26  1  6  0  0  0
 18 13  1  0  0  0  0
 19 15  1  0  0  0  0
 19 22  1  0  0  0  0
 20 16  1  0  0  0  0
 21 26  2  0  0  0  0
 21 25  1  0  0  0  0
 22 18  2  0  0  0  0
 23 15  2  0  0  0  0
 23 16  1  0  0  0  0
 24 17  1  0  0  0  0
 25 18  1  0  0  0  0
 27 28  3  0  0  0  0
 28 23  1  0  0  0  0
 29 30  1  0  0  0  0
 31 32  1  0  0  0  0
 31 30  1  0  0  0  0
 32 33  1  0  0  0  0
 35 33  1  1  0  0  0
 35 36  1  0  0  0  0
 35 34  1  0  0  0  0
 36 34  1  0  0  0  0
M  END
>  <MODEL>
6

>  <REMARK>
 VINA RESULT:      -7.1      2.741      4.478
  Name = 
  12 active torsions:
  status: ('A' for Active; 'I' for Inactive)
    1  A    between atoms: C_3  and  C_12
    2  A    between atoms: C_3  and  C_17
    3  A    between atoms: C_6  and  N_26
    4  A    between atoms: C_7  and  C_34
    5  A    between atoms: O_8  and  C_22
    6  A    between atoms: O_8  and  C_30
    7  A    between atoms: C_17  and  C_28
    8  A    between atoms: C_17  and  O_31
    9  A    between atoms: C_18  and  C_25
   10  A    between atoms: C_22  and  O_31
   11  A    between atoms: C_25  and  C_30
   12  A    between atoms: C_27  and  C_32
                            x       y       z     vdW  Elec       q    Type
                         _______ _______ _______ _____ _____    ______ ____

>  <TORSDO>
F 12

$$$$
=
 OpenBabel10222419583D

 36 39  0  0  1  0  0  0  0  0999 V2000
  188.3950  177.9450  138.9590 C   0  0  1  0  0  3  0  0  0  0  0  0
  190.5840  177.5320  138.0930 O   0  0  0  0  0  0  0  0  0  0  0  0
  188.8950  176.3550  137.0340 N   0  0  0  0  0  2  0  0  0  0  0  0
  189.3610  177.2600  138.0350 C   0  0  0  0  0  0  0  0  0  0  0  0
  187.7540  175.5250  137.2280 C   0  0  0  0  0  3  0  0  0  0  0  0
  186.7040  175.6080  136.4190 C   0  0  0  0  0  3  0  0  0  0  0  0
  184.3280  174.9950  135.9400 C   0  0  0  0  0  3  0  0  0  0  0  0
  185.6680  173.5630  137.3560 C   0  0  0  0  0  3  0  0  0  0  0  0
  184.5510  172.7530  137.5880 C   0  0  0  0  0  3  0  0  0  0  0  0
  183.3300  173.0560  136.9890 C   0  0  0  0  0  3  0  0  0  0  0  0
  185.5540  174.7010  136.5510 C   0  0  0  0  0  0  0  0  0  0  0  0
  183.2240  174.1690  136.1470 C   0  0  0  0  0  3  0  0  0  0  0  0
  189.0400  178.6730  140.1470 C   0  0  0  0  0  2  0  0  0  0  0  0
  185.7030  177.6290  143.2690 C   0  0  0  0  0  1  0  0  0  0  0  0
  187.9410  177.7480  144.4420 C   0  0  0  0  0  0  0  0  0  0  0  0
  188.7220  177.9080  146.5200 C   0  0  0  0  0  0  0  0  0  0  0  0
  189.4220  177.6410  144.4100 C   0  0  1  0  0  3  0  0  0  0  0  0
  188.6910  177.9550  141.4100 C   0  0  0  0  0  0  0  0  0  0  0  0
  187.1450  177.8210  143.2460 N   0  0  0  0  0  0  0  0  0  0  0  0
  188.7520  178.0710  147.9990 C   0  0  0  0  0  1  0  0  0  0  0  0
  189.6440  175.8420  142.6930 C   0  0  0  0  0  3  0  0  0  0  0  0
  187.6930  178.4220  142.1060 N   0  0  0  0  0  0  0  0  0  0  0  0
  187.5310  177.8770  145.6990 C   0  0  0  0  0  0  0  0  0  0  0  0
  189.7910  177.7930  145.8110 N   0  0  0  0  0  0  0  0  0  0  0  0
  189.2120  176.6190  141.5620 N   0  0  0  0  0  2  0  0  0  0  0  0
  189.7660  176.2700  143.9510 C   0  0  0  0  0  3  0  0  0  0  0  0
  185.0530  178.2500  146.5530 C   0  0  0  0  0  3  0  0  0  0  0  0
  186.1830  178.0820  146.1680 C   0  0  0  0  0  0  0  0  0  0  0  0
  187.3430  178.6080  138.2770 O   0  0  0  0  0  0  0  0  0  0  0  0
  186.0860  178.2510  138.8110 C   0  0  0  0  0  2  0  0  0  0  0  0
  185.2760  179.3750  138.9960 O   0  0  0  0  0  0  0  0  0  0  0  0
  184.0920  178.8910  139.5630 C   0  0  0  0  0  2  0  0  0  0  0  0
  183.6140  177.6390  138.8370 C   0  0  0  0  0  2  0  0  0  0  0  0
  181.6520  176.4380  138.2730 O   0  0  0  0  0  0  0  0  0  0  0  0
  182.1920  177.3000  139.2440 C   0  0  1  0  0  3  0  0  0  0  0  0
  182.0670  175.8480  139.4760 C   0  0  0  0  0  2  0  0  0  0  0  0
  1 13  1  6  0  0  0
  3  5  1  0  0  0  0
  3  4  1  0  0  0  0
  4  2  2  0  0  0  0
  4  1  1  0  0  0  0
  6 11  1  0  0  0  0
  6  5  2  0  0  0  0
  7 12  2  0  0  0  0
  7 11  1  0  0  0  0
  8  9  1  0  0  0  0
 10  9  2  0  0  0  0
 11  8  2  0  0  0  0
 12 10  1  0  0  0  0
 13 18  1  0  0  0  0
 15 23  2  0  0  0  0
 16 20  1  0  0  0  0
 17 26  1  1  0  0  0
 17 15  1  0  0  0  0
 17 24  1  0  0  0  0
 18 25  1  0  0  0  0
 18 22  2  0  0  0  0
 19 14  1  0  0  0  0
 19 15  1  0  0  0  0
 21 26  2  0  0  0  0
 22 19  1  0  0  0  0
 23 28  1  0  0  0  0
 23 16  1  0  0  0  0
 24 16  2  0  0  0  0
 25 21  1  0  0  0  0
 28 27  3  0  0  0  0
 29 30  1  0  0  0  0
 29  1  1  0  0  0  0
 30 31  1  0  0  0  0
 31 32  1  0  0  0  0
 33 32  1  0  0  0  0
 34 35  1  0  0  0  0
 34 36  1  0  0  0  0
 35 33  1  6  0  0  0
 35 36  1  0  0  0  0
M  END
>  <MODEL>
7

>  <REMARK>
 VINA RESULT:      -7.0      2.873      8.148
  Name = 
  12 active torsions:
  status: ('A' for Active; 'I' for Inactive)
    1  A    between atoms: C_3  and  C_12
    2  A    between atoms: C_3  and  C_17
    3  A    between atoms: C_6  and  N_26
    4  A    between atoms: C_7  and  C_34
    5  A    between atoms: O_8  and  C_22
    6  A    between atoms: O_8  and  C_30
    7  A    between atoms: C_17  and  C_28
    8  A    between atoms: C_17  and  O_31
    9  A    between atoms: C_18  and  C_25
   10  A    between atoms: C_22  and  O_31
   11  A    between atoms: C_25  and  C_30
   12  A    between atoms: C_27  and  C_32
                            x       y       z     vdW  Elec       q    Type
                         _______ _______ _______ _____ _____    ______ ____

>  <TORSDO>
F 12

$$$$
=
 OpenBabel10222419583D

 36 39  0  0  1  0  0  0  0  0999 V2000
  189.8200  177.5170  139.8340 C   0  0  1  0  0  3  0  0  0  0  0  0
  188.3800  177.3450  137.9330 O   0  0  0  0  0  0  0  0  0  0  0  0
  187.4700  178.4930  139.7270 N   0  0  0  0  0  2  0  0  0  0  0  0
  188.5220  177.7490  139.1130 C   0  0  0  0  0  0  0  0  0  0  0  0
  187.2340  178.4640  141.1310 C   0  0  0  0  0  3  0  0  0  0  0  0
  186.0090  178.6160  141.6210 C   0  0  0  0  0  3  0  0  0  0  0  0
  184.8440  179.3790  143.6960 C   0  0  0  0  0  3  0  0  0  0  0  0
  186.4270  177.5530  143.8190 C   0  0  0  0  0  3  0  0  0  0  0  0
  186.2660  177.5110  145.2080 C   0  0  0  0  0  3  0  0  0  0  0  0
  185.3890  178.3910  145.8380 C   0  0  0  0  0  3  0  0  0  0  0  0
  185.7340  178.5040  143.0610 C   0  0  0  0  0  0  0  0  0  0  0  0
  184.6620  179.3150  145.0780 C   0  0  0  0  0  3  0  0  0  0  0  0
  189.8120  176.3430  140.8230 C   0  0  0  0  0  2  0  0  0  0  0  0
  192.3130  175.1370  144.6000 C   0  0  0  0  0  1  0  0  0  0  0  0
  190.6520  176.9380  145.2320 C   0  0  0  0  0  0  0  0  0  0  0  0
  189.7650  177.8050  147.0800 C   0  0  0  0  0  0  0  0  0  0  0  0
  189.8010  178.0970  144.8600 C   0  0  1  0  0  3  0  0  0  0  0  0
  190.4170  176.7870  142.1150 C   0  0  0  0  0  0  0  0  0  0  0  0
  191.2570  176.0760  144.2520 N   0  0  0  0  0  0  0  0  0  0  0  0
  189.4280  178.0020  148.5160 C   0  0  0  0  0  1  0  0  0  0  0  0
  191.2590  179.0980  143.0970 C   0  0  0  0  0  3  0  0  0  0  0  0
  190.6000  175.8780  143.0310 N   0  0  0  0  0  0  0  0  0  0  0  0
  190.6490  176.7890  146.5530 C   0  0  0  0  0  0  0  0  0  0  0  0
  189.2690  178.5370  146.1430 N   0  0  0  0  0  0  0  0  0  0  0  0
  191.0870  178.0630  142.1130 N   0  0  0  0  0  2  0  0  0  0  0  0
  190.6900  179.1500  144.3030 C   0  0  0  0  0  3  0  0  0  0  0  0
  191.8060  174.8730  147.9660 C   0  0  0  0  0  3  0  0  0  0  0  0
  191.2840  175.7480  147.3220 C   0  0  0  0  0  0  0  0  0  0  0  0
  190.9570  177.6640  138.9990 O   0  0  0  0  0  0  0  0  0  0  0  0
  191.4410  176.4080  138.5730 C   0  0  0  0  0  2  0  0  0  0  0  0
  191.7570  176.4230  137.2120 O   0  0  0  0  0  0  0  0  0  0  0  0
  192.7280  175.4280  137.0460 C   0  0  0  0  0  2  0  0  0  0  0  0
  193.7020  175.4170  138.2180 C   0  0  0  0  0  2  0  0  0  0  0  0
  195.9690  174.8970  137.7730 O   0  0  0  0  0  0  0  0  0  0  0  0
  194.7230  174.3080  138.0510 C   0  0  1  0  0  3  0  0  0  0  0  0
  195.7730  174.4300  139.0810 C   0  0  0  0  0  2  0  0  0  0  0  0
  1 13  1  6  0  0  0
  2  4  2  0  0  0  0
  3  5  1  0  0  0  0
  4  3  1  0  0  0  0
  4  1  1  0  0  0  0
  5  6  2  0  0  0  0
  6 11  1  0  0  0  0
  7 12  1  0  0  0  0
  8  9  2  0  0  0  0
  9 10  1  0  0  0  0
 11  7  2  0  0  0  0
 11  8  1  0  0  0  0
 12 10  2  0  0  0  0
 13 18  1  0  0  0  0
 15 23  2  0  0  0  0
 16 20  1  0  0  0  0
 17 26  1  1  0  0  0
 17 15  1  0  0  0  0
 17 24  1  0  0  0  0
 18 22  2  0  0  0  0
 19 14  1  0  0  0  0
 19 15  1  0  0  0  0
 21 26  2  0  0  0  0
 22 19  1  0  0  0  0
 23 16  1  0  0  0  0
 23 28  1  0  0  0  0
 24 16  2  0  0  0  0
 25 18  1  0  0  0  0
 25 21  1  0  0  0  0
 28 27  3  0  0  0  0
 29  1  1  0  0  0  0
 30 29  1  0  0  0  0
 31 30  1  0  0  0  0
 32 31  1  0  0  0  0
 32 33  1  0  0  0  0
 34 35  1  0  0  0  0
 34 36  1  0  0  0  0
 35 33  1  1  0  0  0
 35 36  1  0  0  0  0
M  END
>  <MODEL>
8

>  <REMARK>
 VINA RESULT:      -6.8      2.571      6.632
  Name = 
  12 active torsions:
  status: ('A' for Active; 'I' for Inactive)
    1  A    between atoms: C_3  and  C_12
    2  A    between atoms: C_3  and  C_17
    3  A    between atoms: C_6  and  N_26
    4  A    between atoms: C_7  and  C_34
    5  A    between atoms: O_8  and  C_22
    6  A    between atoms: O_8  and  C_30
    7  A    between atoms: C_17  and  C_28
    8  A    between atoms: C_17  and  O_31
    9  A    between atoms: C_18  and  C_25
   10  A    between atoms: C_22  and  O_31
   11  A    between atoms: C_25  and  C_30
   12  A    between atoms: C_27  and  C_32
                            x       y       z     vdW  Elec       q    Type
                         _______ _______ _______ _____ _____    ______ ____

>  <TORSDO>
F 12

$$$$
=
 OpenBabel10222419583D

 36 39  0  0  1  0  0  0  0  0999 V2000
  186.0790  178.9080  141.1940 C   0  0  1  0  0  3  0  0  0  0  0  0
  184.6770  179.7330  139.4430 O   0  0  0  0  0  0  0  0  0  0  0  0
  186.3140  178.2520  138.7450 N   0  0  0  0  0  2  0  0  0  0  0  0
  185.6580  179.0170  139.7560 C   0  0  0  0  0  0  0  0  0  0  0  0
  187.7000  177.9300  138.8100 C   0  0  0  0  0  3  0  0  0  0  0  0
  188.2240  177.0040  138.0160 C   0  0  0  0  0  3  0  0  0  0  0  0
  190.4530  176.9470  139.1460 C   0  0  0  0  0  3  0  0  0  0  0  0
  190.2730  176.2810  136.8270 C   0  0  0  0  0  3  0  0  0  0  0  0
  191.6620  176.1200  136.7700 C   0  0  0  0  0  3  0  0  0  0  0  0
  192.4420  176.3600  137.8980 C   0  0  0  0  0  3  0  0  0  0  0  0
  189.6670  176.7200  138.0090 C   0  0  0  0  0  0  0  0  0  0  0  0
  191.8340  176.7560  139.0950 C   0  0  0  0  0  3  0  0  0  0  0  0
  187.5940  178.9750  141.4340 C   0  0  0  0  0  2  0  0  0  0  0  0
  186.5420  177.3600  145.7070 C   0  0  0  0  0  1  0  0  0  0  0  0
  189.0490  177.2820  145.3740 C   0  0  0  0  0  0  0  0  0  0  0  0
  190.8840  177.0700  146.6150 C   0  0  0  0  0  0  0  0  0  0  0  0
  190.2290  177.1930  144.4770 C   0  0  1  0  0  3  0  0  0  0  0  0
  187.9570  178.0370  142.5400 C   0  0  0  0  0  0  0  0  0  0  0  0
  187.7260  177.5630  144.8850 N   0  0  0  0  0  0  0  0  0  0  0  0
  191.7660  176.9630  147.8090 C   0  0  0  0  0  1  0  0  0  0  0  0
  189.2570  175.7350  142.6990 C   0  0  0  0  0  3  0  0  0  0  0  0
  187.5840  178.3640  143.7450 N   0  0  0  0  0  0  0  0  0  0  0  0
  189.4420  177.1790  146.6390 C   0  0  0  0  0  0  0  0  0  0  0  0
  191.3420  177.0920  145.4110 N   0  0  0  0  0  0  0  0  0  0  0  0
  188.3370  176.7000  142.1580 N   0  0  0  0  0  2  0  0  0  0  0  0
  190.1150  175.9300  143.7020 C   0  0  0  0  0  3  0  0  0  0  0  0
  187.9500  177.3850  148.8160 C   0  0  0  0  0  3  0  0  0  0  0  0
  188.6280  177.2860  147.8240 C   0  0  0  0  0  0  0  0  0  0  0  0
  185.2430  179.6370  142.0780 O   0  0  0  0  0  0  0  0  0  0  0  0
  184.2280  178.8150  142.6120 C   0  0  0  0  0  2  0  0  0  0  0  0
  183.8310  179.2590  143.8770 O   0  0  0  0  0  0  0  0  0  0  0  0
  182.5800  178.6720  144.1000 C   0  0  0  0  0  2  0  0  0  0  0  0
  181.5220  179.2840  143.1890 C   0  0  0  0  0  2  0  0  0  0  0  0
  179.6360  178.3130  144.2410 O   0  0  0  0  0  0  0  0  0  0  0  0
  180.3470  178.3380  143.0290 C   0  0  1  0  0  3  0  0  0  0  0  0
  179.0800  179.0740  143.2020 C   0  0  0  0  0  2  0  0  0  0  0  0
  1 13  1  6  0  0  0
  1 29  1  0  0  0  0
  2  4  2  0  0  0  0
  3  5  1  0  0  0  0
  3  4  1  0  0  0  0
  4  1  1  0  0  0  0
  6  5  2  0  0  0  0
  8 11  1  0  0  0  0
  9  8  2  0  0  0  0
  9 10  1  0  0  0  0
 10 12  2  0  0  0  0
 11  6  1  0  0  0  0
 11  7  2  0  0  0  0
 12  7  1  0  0  0  0
 13 18  1  0  0  0  0
 15 23  2  0  0  0  0
 16 23  1  0  0  0  0
 16 20  1  0  0  0  0
 17 26  1  6  0  0  0
 17 15  1  0  0  0  0
 17 24  1  0  0  0  0
 18 22  2  0  0  0  0
 19 15  1  0  0  0  0
 19 14  1  0  0  0  0
 21 26  2  0  0  0  0
 22 19  1  0  0  0  0
 23 28  1  0  0  0  0
 24 16  2  0  0  0  0
 25 18  1  0  0  0  0
 25 21  1  0  0  0  0
 28 27  3  0  0  0  0
 29 30  1  0  0  0  0
 30 31  1  0  0  0  0
 31 32  1  0  0  0  0
 33 32  1  0  0  0  0
 35 33  1  1  0  0  0
 35 36  1  0  0  0  0
 35 34  1  0  0  0  0
 36 34  1  0  0  0  0
M  END
>  <MODEL>
9

>  <REMARK>
 VINA RESULT:      -6.8      3.730      9.567
  Name = 
  12 active torsions:
  status: ('A' for Active; 'I' for Inactive)
    1  A    between atoms: C_3  and  C_12
    2  A    between atoms: C_3  and  C_17
    3  A    between atoms: C_6  and  N_26
    4  A    between atoms: C_7  and  C_34
    5  A    between atoms: O_8  and  C_22
    6  A    between atoms: O_8  and  C_30
    7  A    between atoms: C_17  and  C_28
    8  A    between atoms: C_17  and  O_31
    9  A    between atoms: C_18  and  C_25
   10  A    between atoms: C_22  and  O_31
   11  A    between atoms: C_25  and  C_30
   12  A    between atoms: C_27  and  C_32
                            x       y       z     vdW  Elec       q    Type
                         _______ _______ _______ _____ _____    ______ ____

>  <TORSDO>
F 12

$$$$
