=
 OpenBabel10222417513D

 53 58  0  0  1  0  0  0  0  0999 V2000
  186.4320  177.8700  145.9690 C   0  0  2  0  0  3  0  0  0  0  0  0
  184.8870  179.0250  145.0080 C   0  0  1  0  0  0  0  0  0  0  0  0
  184.5430  178.3790  147.3260 O   0  0  0  0  0  1  0  0  0  0  0  0
  185.1390  180.2600  144.4240 F   0  0  0  0  0  0  0  0  0  0  0  0
  185.8510  177.9320  144.5550 C   0  0  1  0  0  3  0  0  0  0  0  0
  185.4550  178.9430  146.4270 C   0  0  1  0  0  3  0  0  0  0  0  0
  187.7400  178.3680  146.0160 O   0  0  0  0  0  1  0  0  0  0  0  0
  183.4270  178.5900  144.8400 C   0  0  0  0  0  2  0  0  0  0  0  0
  182.7460  179.4860  143.9240 N   0  0  0  0  0  2  0  0  0  0  0  0
  181.4700  178.8720  143.5990 C   0  0  0  0  0  2  0  0  0  0  0  0
  180.6380  179.7700  142.6880 C   0  0  2  0  0  3  0  0  0  0  0  0
  179.4970  180.2690  143.3280 O   0  0  0  0  0  1  0  0  0  0  0  0
  180.9890  177.4440  139.8830 C   0  0  1  0  0  3  0  0  0  0  0  0
  179.6510  177.0370  139.7670 O   0  0  0  0  0  1  0  0  0  0  0  0
  181.1640  177.7030  137.3890 C   0  0  0  0  0  1  0  0  0  0  0  0
  181.4200  178.3530  138.7380 C   0  0  1  0  0  3  0  0  0  0  0  0
  180.3230  179.1350  141.3270 C   0  0  2  0  0  3  0  0  0  0  0  0
  181.2430  178.0820  141.1130 O   0  0  0  0  0  0  0  0  0  0  0  0
  180.2570  180.1270  140.1660 C   0  0  0  0  0  0  0  0  0  0  0  0
  179.2980  182.2520  139.3470 C   0  0  0  0  0  3  0  0  0  0  0  0
  180.1250  182.6320  138.3500 C   0  0  0  0  0  0  0  0  0  0  0  0
  180.7850  179.7450  138.8050 C   0  0  1  0  0  3  0  0  0  0  0  0
  181.7730  180.7560  138.3280 C   0  0  0  0  0  3  0  0  0  0  0  0
  179.5420  181.2050  140.3080 N   0  0  0  0  0  0  0  0  0  0  0  0
  181.4520  182.0280  138.1040 C   0  0  0  0  0  3  0  0  0  0  0  0
  179.7680  183.6990  137.5170 O   0  0  0  0  0  0  0  0  0  0  0  0
  180.7020  184.4170  136.7110 C   0  0  0  0  0  1  0  0  0  0  0  0
  186.8010  178.4180  143.6070 O   0  0  0  0  0  0  0  0  0  0  0  0
  187.8530  176.7230  142.4470 O   0  0  0  0  0  0  0  0  0  0  0  0
  187.0990  177.7350  142.4250 C   0  0  0  0  0  0  0  0  0  0  0  0
  187.2690  178.1020  139.9680 C   0  0  0  0  0  3  0  0  0  0  0  0
  185.4470  179.0540  138.7440 N   0  0  0  0  0  0  0  0  0  0  0  0
  186.5260  178.1950  141.1500 C   0  0  0  0  0  0  0  0  0  0  0  0
  184.7010  179.1530  139.8770 C   0  0  0  0  0  3  0  0  0  0  0  0
  186.7080  178.5390  138.7640 C   0  0  0  0  0  0  0  0  0  0  0  0
  185.2290  178.7250  141.1020 C   0  0  0  0  0  3  0  0  0  0  0  0
  187.6620  178.4380  137.2530 S   0  0  0  0  0  0  0  0  0  0  0  0
  190.1630  177.6070  137.8820 C   0  0  0  0  0  3  0  0  0  0  0  0
  188.8640  177.3530  138.0140 C   0  0  0  0  0  3  0  0  0  0  0  0
  191.1610  175.2720  138.1980 C   0  0  0  0  0  2  0  0  0  0  0  0
  191.1760  176.7450  138.5600 C   0  0  0  0  0  0  0  0  0  0  0  0
  192.2310  176.1960  137.6190 C   0  0  0  0  0  2  0  0  0  0  0  0
  190.9440  176.7540  141.0810 N   0  0  0  0  0  2  0  0  0  0  0  0
  192.7640  177.7790  140.0370 O   0  0  0  0  0  0  0  0  0  0  0  0
  191.6890  177.1260  139.9190 C   0  0  0  0  0  0  0  0  0  0  0  0
  191.0740  175.9930  143.4470 C   0  0  1  0  0  3  0  0  0  0  0  0
  189.9870  175.2110  143.0330 O   0  0  0  0  0  1  0  0  0  0  0  0
  190.5200  178.0540  144.4410 C   0  0  0  0  0  2  0  0  0  0  0  0
  191.3740  177.0970  142.4340 C   0  0  2  0  0  3  0  0  0  0  0  0
  190.7410  176.6340  144.7200 N   0  0  0  0  0  0  0  0  0  0  0  0
  190.5970  178.2760  142.9400 C   0  0  0  0  0  2  0  0  0  0  0  0
  191.4800  176.5560  147.0380 C   0  0  0  0  0  1  0  0  0  0  0  0
  191.9100  176.5370  145.5830 C   0  0  0  0  0  2  0  0  0  0  0  0
  1  7  1  6  0  0  0
  1  6  1  0  0  0  0
  2  4  1  6  0  0  0
  2  6  1  0  0  0  0
  5 28  1  6  0  0  0
  5  2  1  0  0  0  0
  5  1  1  0  0  0  0
  6  3  1  1  0  0  0
  8  2  1  0  0  0  0
  9  8  1  0  0  0  0
 10  9  1  0  0  0  0
 11 12  1  1  0  0  0
 11 10  1  0  0  0  0
 13 14  1  6  0  0  0
 13 18  1  0  0  0  0
 16 15  1  6  0  0  0
 16 22  1  0  0  0  0
 16 13  1  0  0  0  0
 17 11  1  1  0  0  0
 18 17  1  0  0  0  0
 19 24  2  0  0  0  0
 19 17  1  0  0  0  0
 20 24  1  0  0  0  0
 21 20  2  0  0  0  0
 22 23  1  1  0  0  0
 22 19  1  0  0  0  0
 25 23  2  0  0  0  0
 25 21  1  0  0  0  0
 26 21  1  0  0  0  0
 27 26  1  0  0  0  0
 30 29  2  0  0  0  0
 30 28  1  0  0  0  0
 31 33  1  0  0  0  0
 32 35  1  0  0  0  0
 32 34  2  0  0  0  0
 33 30  1  0  0  0  0
 34 36  1  0  0  0  0
 35 31  2  0  0  0  0
 36 33  2  0  0  0  0
 37 39  1  0  0  0  0
 37 35  1  0  0  0  0
 38 39  2  0  0  0  0
 38 41  1  0  0  0  0
 40 41  1  0  0  0  0
 41 45  1  0  0  0  0
 42 40  1  0  0  0  0
 42 41  1  0  0  0  0
 45 44  2  0  0  0  0
 45 43  1  0  0  0  0
 46 47  1  6  0  0  0
 46 50  1  0  0  0  0
 48 50  1  0  0  0  0
 49 43  1  6  0  0  0
 49 51  1  0  0  0  0
 49 46  1  0  0  0  0
 50 53  1  0  0  0  0
 51 48  1  0  0  0  0
 53 52  1  0  0  0  0
M  END
>  <MODEL>
1

>  <REMARK>
 VINA RESULT:      -8.2      0.000      0.000
  Name = 
  15 active torsions:
  status: ('A' for Active; 'I' for Inactive)
    1  A    between atoms: C_3  and  C_7
    2  A    between atoms: C_3  and  N_26
    3  A    between atoms: N_5  and  C_27
    4  A    between atoms: C_7  and  C_25
    5  A    between atoms: C_11  and  C_30
    6  A    between atoms: C_16  and  C_46
    7  A    between atoms: C_19  and  S_35
    8  A    between atoms: C_22  and  N_49
    9  A    between atoms: C_24  and  C_32
   10  A    between atoms: N_26  and  C_46
   11  A    between atoms: C_30  and  O_48
   12  A    between atoms: C_32  and  C_33
   13  A    between atoms: S_35  and  C_42
   14  A    between atoms: C_38  and  O_44
   15  A    between atoms: C_47  and  O_48
                            x       y       z     vdW  Elec       q    Type
                         _______ _______ _______ _____ _____    ______ ____

>  <TORSDO>
F 15

$$$$
=
 OpenBabel10222417513D

 53 58  0  0  1  0  0  0  0  0999 V2000
  189.8040  177.6290  145.1800 C   0  0  2  0  0  3  0  0  0  0  0  0
  190.0590  176.6250  143.2890 C   0  0  1  0  0  0  0  0  0  0  0  0
  192.0530  177.1230  144.5870 O   0  0  0  0  0  1  0  0  0  0  0  0
  189.4260  175.4240  142.9960 F   0  0  0  0  0  0  0  0  0  0  0  0
  189.1090  177.6970  143.8170 C   0  0  1  0  0  3  0  0  0  0  0  0
  190.7650  176.5780  144.6460 C   0  0  1  0  0  3  0  0  0  0  0  0
  188.9760  177.0630  146.1570 O   0  0  0  0  0  1  0  0  0  0  0  0
  190.8920  177.1450  142.1130 C   0  0  0  0  0  2  0  0  0  0  0  0
  190.5680  176.4000  140.9100 N   0  0  0  0  0  2  0  0  0  0  0  0
  190.6980  177.3200  139.7930 C   0  0  0  0  0  2  0  0  0  0  0  0
  190.6550  176.5810  138.4580 C   0  0  2  0  0  3  0  0  0  0  0  0
  191.8690  176.6570  137.7670 O   0  0  0  0  0  1  0  0  0  0  0  0
  187.4270  178.1000  137.6340 C   0  0  1  0  0  3  0  0  0  0  0  0
  187.7970  178.7810  136.4650 O   0  0  0  0  0  1  0  0  0  0  0  0
  185.3220  177.2790  136.5340 C   0  0  0  0  0  1  0  0  0  0  0  0
  186.5440  176.8910  137.3480 C   0  0  1  0  0  3  0  0  0  0  0  0
  189.4520  176.9670  137.5860 C   0  0  2  0  0  3  0  0  0  0  0  0
  188.5470  177.6980  138.3890 O   0  0  0  0  0  0  0  0  0  0  0  0
  188.8000  175.7950  136.8530 C   0  0  0  0  0  0  0  0  0  0  0  0
  189.1750  173.8350  135.3940 C   0  0  0  0  0  3  0  0  0  0  0  0
  188.0830  173.0640  135.5790 C   0  0  0  0  0  0  0  0  0  0  0  0
  187.3030  175.7390  136.6820 C   0  0  1  0  0  3  0  0  0  0  0  0
  186.7680  174.4430  137.1940 C   0  0  0  0  0  3  0  0  0  0  0  0
  189.5620  174.9750  136.1880 N   0  0  0  0  0  0  0  0  0  0  0  0
  187.1060  173.2670  136.6700 C   0  0  0  0  0  3  0  0  0  0  0  0
  187.8600  171.9610  134.7470 O   0  0  0  0  0  0  0  0  0  0  0  0
  187.2070  170.7670  135.1790 C   0  0  0  0  0  1  0  0  0  0  0  0
  187.7610  177.2320  143.8800 O   0  0  0  0  0  0  0  0  0  0  0  0
  186.7910  178.1410  141.9940 O   0  0  0  0  0  0  0  0  0  0  0  0
  186.7110  177.8820  143.2270 C   0  0  0  0  0  0  0  0  0  0  0  0
  184.2800  178.4130  143.3190 C   0  0  0  0  0  3  0  0  0  0  0  0
  183.2270  178.9710  145.3950 N   0  0  0  0  0  0  0  0  0  0  0  0
  185.5050  178.2620  143.9790 C   0  0  0  0  0  0  0  0  0  0  0  0
  184.4050  178.8280  146.0610 C   0  0  0  0  0  3  0  0  0  0  0  0
  183.1420  178.7690  144.0500 C   0  0  0  0  0  0  0  0  0  0  0  0
  185.5650  178.4710  145.3640 C   0  0  0  0  0  3  0  0  0  0  0  0
  181.5770  178.9800  143.2070 S   0  0  0  0  0  0  0  0  0  0  0  0
  181.7040  178.7860  140.5070 C   0  0  0  0  0  3  0  0  0  0  0  0
  182.3820  179.0840  141.6120 C   0  0  0  0  0  3  0  0  0  0  0  0
  182.6940  180.3330  138.7250 C   0  0  0  0  0  2  0  0  0  0  0  0
  182.3450  178.9250  139.1660 C   0  0  0  0  0  0  0  0  0  0  0  0
  183.7860  179.3900  139.2290 C   0  0  0  0  0  2  0  0  0  0  0  0
  182.1770  176.5160  138.4040 N   0  0  0  0  0  2  0  0  0  0  0  0
  181.7370  178.2760  136.9330 O   0  0  0  0  0  0  0  0  0  0  0  0
  182.0620  177.9070  138.0970 C   0  0  0  0  0  0  0  0  0  0  0  0
  180.6870  174.6360  137.7380 C   0  0  1  0  0  3  0  0  0  0  0  0
  180.4230  174.6390  139.1140 O   0  0  0  0  0  1  0  0  0  0  0  0
  182.3840  173.1630  137.0340 C   0  0  0  0  0  2  0  0  0  0  0  0
  181.9280  175.4700  137.4160 C   0  0  2  0  0  3  0  0  0  0  0  0
  180.9490  173.2630  137.3070 N   0  0  0  0  0  0  0  0  0  0  0  0
  183.0480  174.4730  137.4240 C   0  0  0  0  0  2  0  0  0  0  0  0
  181.1170  172.2370  135.1050 C   0  0  0  0  0  1  0  0  0  0  0  0
  180.2510  173.0550  136.0450 C   0  0  0  0  0  2  0  0  0  0  0  0
  1  7  1  1  0  0  0
  2  4  1  6  0  0  0
  2  5  1  0  0  0  0
  2  6  1  0  0  0  0
  5 28  1  1  0  0  0
  5  1  1  0  0  0  0
  6  3  1  6  0  0  0
  6  1  1  0  0  0  0
  8  2  1  0  0  0  0
  9  8  1  0  0  0  0
 10  9  1  0  0  0  0
 11 12  1  6  0  0  0
 11 10  1  0  0  0  0
 13 14  1  6  0  0  0
 13 18  1  0  0  0  0
 16 15  1  6  0  0  0
 16 13  1  0  0  0  0
 17 18  1  0  0  0  0
 17 11  1  1  0  0  0
 19 17  1  0  0  0  0
 20 21  2  0  0  0  0
 20 24  1  0  0  0  0
 21 25  1  0  0  0  0
 22 19  1  0  0  0  0
 22 23  1  1  0  0  0
 22 16  1  0  0  0  0
 24 19  2  0  0  0  0
 25 23  2  0  0  0  0
 26 27  1  0  0  0  0
 26 21  1  0  0  0  0
 29 30  2  0  0  0  0
 30 28  1  0  0  0  0
 30 33  1  0  0  0  0
 31 33  2  0  0  0  0
 31 35  1  0  0  0  0
 32 34  1  0  0  0  0
 33 36  1  0  0  0  0
 35 32  2  0  0  0  0
 36 34  2  0  0  0  0
 37 35  1  0  0  0  0
 38 39  2  0  0  0  0
 39 37  1  0  0  0  0
 40 41  1  0  0  0  0
 40 42  1  0  0  0  0
 41 42  1  0  0  0  0
 41 38  1  0  0  0  0
 44 45  2  0  0  0  0
 45 43  1  0  0  0  0
 45 41  1  0  0  0  0
 46 47  1  1  0  0  0
 48 50  1  0  0  0  0
 48 51  1  0  0  0  0
 49 51  1  0  0  0  0
 49 46  1  0  0  0  0
 49 43  1  1  0  0  0
 50 46  1  0  0  0  0
 52 53  1  0  0  0  0
 53 50  1  0  0  0  0
M  END
>  <MODEL>
2

>  <REMARK>
 VINA RESULT:      -8.2      3.600      9.377
  Name = 
  15 active torsions:
  status: ('A' for Active; 'I' for Inactive)
    1  A    between atoms: C_3  and  C_7
    2  A    between atoms: C_3  and  N_26
    3  A    between atoms: N_5  and  C_27
    4  A    between atoms: C_7  and  C_25
    5  A    between atoms: C_11  and  C_30
    6  A    between atoms: C_16  and  C_46
    7  A    between atoms: C_19  and  S_35
    8  A    between atoms: C_22  and  N_49
    9  A    between atoms: C_24  and  C_32
   10  A    between atoms: N_26  and  C_46
   11  A    between atoms: C_30  and  O_48
   12  A    between atoms: C_32  and  C_33
   13  A    between atoms: S_35  and  C_42
   14  A    between atoms: C_38  and  O_44
   15  A    between atoms: C_47  and  O_48
                            x       y       z     vdW  Elec       q    Type
                         _______ _______ _______ _____ _____    ______ ____

>  <TORSDO>
F 15

$$$$
=
 OpenBabel10222417513D

 53 58  0  0  1  0  0  0  0  0999 V2000
  186.6810  177.7830  146.5200 C   0  0  2  0  0  3  0  0  0  0  0  0
  185.3620  178.7870  145.1410 C   0  0  1  0  0  0  0  0  0  0  0  0
  184.4920  178.2340  147.3430 O   0  0  0  0  0  1  0  0  0  0  0  0
  185.6880  180.0050  144.5580 F   0  0  0  0  0  0  0  0  0  0  0  0
  186.4620  177.7380  145.0060 C   0  0  1  0  0  3  0  0  0  0  0  0
  185.5680  178.8110  146.6580 C   0  0  1  0  0  3  0  0  0  0  0  0
  187.9090  178.3660  146.8510 O   0  0  0  0  0  1  0  0  0  0  0  0
  184.0140  178.2500  144.6520 C   0  0  0  0  0  2  0  0  0  0  0  0
  183.1910  179.3450  144.1700 N   0  0  0  0  0  2  0  0  0  0  0  0
  181.8670  178.8020  143.9170 C   0  0  0  0  0  2  0  0  0  0  0  0
  181.1390  179.5950  142.8360 C   0  0  2  0  0  3  0  0  0  0  0  0
  179.8480  179.9710  143.2290 O   0  0  0  0  0  1  0  0  0  0  0  0
  182.4690  177.5680  140.0930 C   0  0  1  0  0  3  0  0  0  0  0  0
  181.3530  176.7480  139.8660 O   0  0  0  0  0  1  0  0  0  0  0  0
  182.7610  177.9200  137.6230 C   0  0  0  0  0  1  0  0  0  0  0  0
  182.6740  178.5900  138.9820 C   0  0  1  0  0  3  0  0  0  0  0  0
  181.1660  178.9190  141.4590 C   0  0  2  0  0  3  0  0  0  0  0  0
  182.3940  178.2300  141.3360 O   0  0  0  0  0  0  0  0  0  0  0  0
  180.8780  179.8580  140.2880 C   0  0  0  0  0  0  0  0  0  0  0  0
  179.3500  181.5690  139.3690 C   0  0  0  0  0  3  0  0  0  0  0  0
  180.0880  182.2180  138.4440 C   0  0  0  0  0  0  0  0  0  0  0  0
  181.6150  179.6970  138.9810 C   0  0  1  0  0  3  0  0  0  0  0  0
  182.2550  180.9840  138.5820 C   0  0  0  0  0  3  0  0  0  0  0  0
  179.8400  180.6400  140.3570 N   0  0  0  0  0  0  0  0  0  0  0  0
  181.5550  182.0860  138.3200 C   0  0  0  0  0  3  0  0  0  0  0  0
  179.4740  183.1260  137.5740 O   0  0  0  0  0  0  0  0  0  0  0  0
  179.9690  184.4420  137.3280 C   0  0  0  0  0  1  0  0  0  0  0  0
  187.5910  178.2370  144.2880 O   0  0  0  0  0  0  0  0  0  0  0  0
  186.8480  177.8780  142.1330 O   0  0  0  0  0  0  0  0  0  0  0  0
  187.8150  177.9390  142.9410 C   0  0  0  0  0  0  0  0  0  0  0  0
  189.4170  177.3410  141.1300 C   0  0  0  0  0  3  0  0  0  0  0  0
  191.7700  177.2610  141.5560 N   0  0  0  0  0  0  0  0  0  0  0  0
  189.1860  177.7020  142.4630 C   0  0  0  0  0  0  0  0  0  0  0  0
  191.5750  177.6140  142.8550 C   0  0  0  0  0  3  0  0  0  0  0  0
  190.7260  177.1240  140.6910 C   0  0  0  0  0  0  0  0  0  0  0  0
  190.2780  177.8400  143.3320 C   0  0  0  0  0  3  0  0  0  0  0  0
  191.0230  176.6450  138.9920 S   0  0  0  0  0  0  0  0  0  0  0  0
  188.9650  177.0170  137.2690 C   0  0  0  0  0  3  0  0  0  0  0  0
  189.3130  176.9310  138.5490 C   0  0  0  0  0  3  0  0  0  0  0  0
  186.6760  178.0140  137.8290 C   0  0  0  0  0  2  0  0  0  0  0  0
  187.5340  177.1970  136.8830 C   0  0  0  0  0  0  0  0  0  0  0  0
  187.1800  178.6260  136.5220 C   0  0  0  0  0  2  0  0  0  0  0  0
  186.6980  174.8290  136.5600 N   0  0  0  0  0  2  0  0  0  0  0  0
  186.4280  176.4380  134.8890 O   0  0  0  0  0  0  0  0  0  0  0  0
  186.8520  176.1530  136.0450 C   0  0  0  0  0  0  0  0  0  0  0  0
  185.0570  172.9580  136.6380 C   0  0  1  0  0  3  0  0  0  0  0  0
  185.3900  173.0040  137.9990 O   0  0  0  0  0  1  0  0  0  0  0  0
  186.2990  171.4360  135.3400 C   0  0  0  0  0  2  0  0  0  0  0  0
  186.0540  173.7600  135.8010 C   0  0  2  0  0  3  0  0  0  0  0  0
  185.1090  171.5690  136.1820 N   0  0  0  0  0  0  0  0  0  0  0  0
  187.0710  172.7440  135.3750 C   0  0  0  0  0  2  0  0  0  0  0  0
  182.7440  170.9910  136.1890 C   0  0  0  0  0  1  0  0  0  0  0  0
  183.9480  171.3380  135.3340 C   0  0  0  0  0  2  0  0  0  0  0  0
  1  6  1  0  0  0  0
  1  7  1  6  0  0  0
  2  4  1  6  0  0  0
  2  6  1  0  0  0  0
  5 28  1  6  0  0  0
  5  2  1  0  0  0  0
  5  1  1  0  0  0  0
  6  3  1  1  0  0  0
  8  2  1  0  0  0  0
  9  8  1  0  0  0  0
 10  9  1  0  0  0  0
 11 12  1  1  0  0  0
 11 10  1  0  0  0  0
 13 14  1  6  0  0  0
 13 18  1  0  0  0  0
 16 15  1  6  0  0  0
 16 13  1  0  0  0  0
 17 11  1  1  0  0  0
 18 17  1  0  0  0  0
 19 24  2  0  0  0  0
 19 17  1  0  0  0  0
 20 24  1  0  0  0  0
 21 20  2  0  0  0  0
 22 23  1  1  0  0  0
 22 16  1  0  0  0  0
 22 19  1  0  0  0  0
 25 21  1  0  0  0  0
 25 23  2  0  0  0  0
 26 21  1  0  0  0  0
 27 26  1  0  0  0  0
 29 30  2  0  0  0  0
 30 28  1  0  0  0  0
 31 33  1  0  0  0  0
 32 34  2  0  0  0  0
 33 30  1  0  0  0  0
 33 36  2  0  0  0  0
 34 36  1  0  0  0  0
 35 31  2  0  0  0  0
 35 32  1  0  0  0  0
 37 35  1  0  0  0  0
 38 39  2  0  0  0  0
 39 37  1  0  0  0  0
 41 38  1  0  0  0  0
 41 40  1  0  0  0  0
 42 41  1  0  0  0  0
 42 40  1  0  0  0  0
 44 45  2  0  0  0  0
 45 43  1  0  0  0  0
 45 41  1  0  0  0  0
 46 47  1  1  0  0  0
 48 51  1  0  0  0  0
 48 50  1  0  0  0  0
 49 43  1  1  0  0  0
 49 46  1  0  0  0  0
 50 46  1  0  0  0  0
 51 49  1  0  0  0  0
 53 50  1  0  0  0  0
 53 52  1  0  0  0  0
M  END
>  <MODEL>
3

>  <REMARK>
 VINA RESULT:      -7.3      3.071      5.269
  Name = 
  15 active torsions:
  status: ('A' for Active; 'I' for Inactive)
    1  A    between atoms: C_3  and  C_7
    2  A    between atoms: C_3  and  N_26
    3  A    between atoms: N_5  and  C_27
    4  A    between atoms: C_7  and  C_25
    5  A    between atoms: C_11  and  C_30
    6  A    between atoms: C_16  and  C_46
    7  A    between atoms: C_19  and  S_35
    8  A    between atoms: C_22  and  N_49
    9  A    between atoms: C_24  and  C_32
   10  A    between atoms: N_26  and  C_46
   11  A    between atoms: C_30  and  O_48
   12  A    between atoms: C_32  and  C_33
   13  A    between atoms: S_35  and  C_42
   14  A    between atoms: C_38  and  O_44
   15  A    between atoms: C_47  and  O_48
                            x       y       z     vdW  Elec       q    Type
                         _______ _______ _______ _____ _____    ______ ____

>  <TORSDO>
F 15

$$$$
=
 OpenBabel10222417513D

 53 58  0  0  1  0  0  0  0  0999 V2000
  183.8560  178.3140  139.1710 C   0  0  2  0  0  3  0  0  0  0  0  0
  183.5900  178.5720  141.2950 C   0  0  1  0  0  0  0  0  0  0  0  0
  185.6710  179.3520  140.3100 O   0  0  0  0  0  1  0  0  0  0  0  0
  182.5080  179.2600  141.8280 F   0  0  0  0  0  0  0  0  0  0  0  0
  183.1880  177.5020  140.2830 C   0  0  1  0  0  3  0  0  0  0  0  0
  184.2770  179.3690  140.1830 C   0  0  1  0  0  3  0  0  0  0  0  0
  182.9150  178.8550  138.2860 O   0  0  0  0  0  1  0  0  0  0  0  0
  184.5070  178.0000  142.3800 C   0  0  0  0  0  2  0  0  0  0  0  0
  184.4050  178.8000  143.5870 N   0  0  0  0  0  2  0  0  0  0  0  0
  184.5840  177.8980  144.7120 C   0  0  0  0  0  2  0  0  0  0  0  0
  185.3670  178.5650  145.8390 C   0  0  2  0  0  3  0  0  0  0  0  0
  185.6810  179.8990  145.5530 O   0  0  0  0  0  1  0  0  0  0  0  0
  188.2210  177.6560  147.9430 C   0  0  1  0  0  3  0  0  0  0  0  0
  187.9340  176.2950  148.1260 O   0  0  0  0  0  1  0  0  0  0  0  0
  190.6380  177.1250  147.5030 C   0  0  0  0  0  1  0  0  0  0  0  0
  189.4120  177.8790  147.0180 C   0  0  1  0  0  3  0  0  0  0  0  0
  186.5860  177.7550  146.2990 C   0  0  2  0  0  3  0  0  0  0  0  0
  187.1080  178.3720  147.4590 O   0  0  0  0  0  0  0  0  0  0  0  0
  187.6360  177.5210  145.2140 C   0  0  0  0  0  0  0  0  0  0  0  0
  188.0490  176.7470  142.9030 C   0  0  0  0  0  3  0  0  0  0  0  0
  189.2380  177.2930  142.5720 C   0  0  0  0  0  0  0  0  0  0  0  0
  189.1060  177.5450  145.5550 C   0  0  1  0  0  3  0  0  0  0  0  0
  189.8290  178.5070  144.6740 C   0  0  0  0  0  3  0  0  0  0  0  0
  187.2450  177.0790  144.0530 N   0  0  0  0  0  0  0  0  0  0  0  0
  189.9000  178.3600  143.3530 C   0  0  0  0  0  3  0  0  0  0  0  0
  189.8840  176.8970  141.3960 O   0  0  0  0  0  0  0  0  0  0  0  0
  191.2690  177.1290  141.1400 C   0  0  0  0  0  1  0  0  0  0  0  0
  181.7720  177.4300  140.1160 O   0  0  0  0  0  0  0  0  0  0  0  0
  181.0640  175.2340  140.1400 O   0  0  0  0  0  0  0  0  0  0  0  0
  181.1410  176.3330  139.5250 C   0  0  0  0  0  0  0  0  0  0  0  0
  180.9030  175.5550  137.1710 C   0  0  0  0  0  3  0  0  0  0  0  0
  179.4570  176.6960  135.6450 N   0  0  0  0  0  0  0  0  0  0  0  0
  180.5580  176.4620  138.1800 C   0  0  0  0  0  0  0  0  0  0  0  0
  179.1010  177.5900  136.6080 C   0  0  0  0  0  3  0  0  0  0  0  0
  180.3370  175.6880  135.9000 C   0  0  0  0  0  0  0  0  0  0  0  0
  179.6470  177.4880  137.8930 C   0  0  0  0  0  3  0  0  0  0  0  0
  180.7890  174.5410  134.6030 S   0  0  0  0  0  0  0  0  0  0  0  0
  183.0590  173.2620  135.3480 C   0  0  0  0  0  3  0  0  0  0  0  0
  181.8260  173.5980  135.7160 C   0  0  0  0  0  3  0  0  0  0  0  0
  183.3760  171.2930  136.9500 C   0  0  0  0  0  2  0  0  0  0  0  0
  183.9560  172.5270  136.2880 C   0  0  0  0  0  0  0  0  0  0  0  0
  184.3600  171.1530  135.7900 C   0  0  0  0  0  2  0  0  0  0  0  0
  185.7740  174.2890  136.3380 N   0  0  0  0  0  2  0  0  0  0  0  0
  185.3060  172.9900  138.2220 O   0  0  0  0  0  0  0  0  0  0  0  0
  185.0380  173.2700  137.0190 C   0  0  0  0  0  0  0  0  0  0  0  0
  186.4730  176.5110  137.2180 C   0  0  1  0  0  3  0  0  0  0  0  0
  185.5100  176.9420  136.2950 O   0  0  0  0  0  1  0  0  0  0  0  0
  188.6870  176.4490  136.4190 C   0  0  0  0  0  2  0  0  0  0  0  0
  186.8450  175.0470  136.9800 C   0  0  2  0  0  3  0  0  0  0  0  0
  187.6860  177.3120  137.0480 N   0  0  0  0  0  0  0  0  0  0  0  0
  188.0400  175.1180  136.0770 C   0  0  0  0  0  2  0  0  0  0  0  0
  189.0580  178.8870  138.2980 C   0  0  0  0  0  1  0  0  0  0  0  0
  188.1780  177.6530  138.3760 C   0  0  0  0  0  2  0  0  0  0  0  0
  1  7  1  6  0  0  0
  1  6  1  0  0  0  0
  1  5  1  0  0  0  0
  2  4  1  1  0  0  0
  2  8  1  0  0  0  0
  5 28  1  6  0  0  0
  5  2  1  0  0  0  0
  6  3  1  1  0  0  0
  6  2  1  0  0  0  0
  8  9  1  0  0  0  0
  9 10  1  0  0  0  0
 10 11  1  0  0  0  0
 11 12  1  6  0  0  0
 13 14  1  6  0  0  0
 16 15  1  1  0  0  0
 16 13  1  0  0  0  0
 17 11  1  6  0  0  0
 17 18  1  0  0  0  0
 18 13  1  0  0  0  0
 19 22  1  0  0  0  0
 19 17  1  0  0  0  0
 20 24  1  0  0  0  0
 21 20  2  0  0  0  0
 21 25  1  0  0  0  0
 22 23  1  6  0  0  0
 22 16  1  0  0  0  0
 24 19  2  0  0  0  0
 25 23  2  0  0  0  0
 26 21  1  0  0  0  0
 27 26  1  0  0  0  0
 30 28  1  0  0  0  0
 30 29  2  0  0  0  0
 31 33  1  0  0  0  0
 32 35  1  0  0  0  0
 32 34  2  0  0  0  0
 33 30  1  0  0  0  0
 34 36  1  0  0  0  0
 35 31  2  0  0  0  0
 36 33  2  0  0  0  0
 37 39  1  0  0  0  0
 37 35  1  0  0  0  0
 38 39  2  0  0  0  0
 38 41  1  0  0  0  0
 41 40  1  0  0  0  0
 41 45  1  0  0  0  0
 42 41  1  0  0  0  0
 42 40  1  0  0  0  0
 43 45  1  0  0  0  0
 45 44  2  0  0  0  0
 46 47  1  6  0  0  0
 48 50  1  0  0  0  0
 49 43  1  6  0  0  0
 49 46  1  0  0  0  0
 50 46  1  0  0  0  0
 50 53  1  0  0  0  0
 51 48  1  0  0  0  0
 51 49  1  0  0  0  0
 52 53  1  0  0  0  0
M  END
>  <MODEL>
4

>  <REMARK>
 VINA RESULT:      -7.2      3.459      8.535
  Name = 
  15 active torsions:
  status: ('A' for Active; 'I' for Inactive)
    1  A    between atoms: C_3  and  C_7
    2  A    between atoms: C_3  and  N_26
    3  A    between atoms: N_5  and  C_27
    4  A    between atoms: C_7  and  C_25
    5  A    between atoms: C_11  and  C_30
    6  A    between atoms: C_16  and  C_46
    7  A    between atoms: C_19  and  S_35
    8  A    between atoms: C_22  and  N_49
    9  A    between atoms: C_24  and  C_32
   10  A    between atoms: N_26  and  C_46
   11  A    between atoms: C_30  and  O_48
   12  A    between atoms: C_32  and  C_33
   13  A    between atoms: S_35  and  C_42
   14  A    between atoms: C_38  and  O_44
   15  A    between atoms: C_47  and  O_48
                            x       y       z     vdW  Elec       q    Type
                         _______ _______ _______ _____ _____    ______ ____

>  <TORSDO>
F 15

$$$$
=
 OpenBabel10222417513D

 53 58  0  0  1  0  0  0  0  0999 V2000
  188.0020  178.5850  136.9750 C   0  0  2  0  0  3  0  0  0  0  0  0
  186.5400  177.0060  137.1140 C   0  0  1  0  0  0  0  0  0  0  0  0
  186.5150  178.4020  135.1240 O   0  0  0  0  0  1  0  0  0  0  0  0
  186.8990  175.6780  137.3040 F   0  0  0  0  0  0  0  0  0  0  0  0
  187.1930  177.9580  138.1130 C   0  0  1  0  0  3  0  0  0  0  0  0
  187.3340  177.6510  135.9760 C   0  0  1  0  0  3  0  0  0  0  0  0
  189.3640  178.2760  137.0750 O   0  0  0  0  0  1  0  0  0  0  0  0
  185.0210  177.1970  137.0690 C   0  0  0  0  0  2  0  0  0  0  0  0
  184.3740  176.2140  137.9180 N   0  0  0  0  0  2  0  0  0  0  0  0
  183.3750  175.5410  137.1040 C   0  0  0  0  0  2  0  0  0  0  0  0
  181.9680  175.7720  137.6480 C   0  0  2  0  0  3  0  0  0  0  0  0
  181.2730  174.5750  137.8540 O   0  0  0  0  0  1  0  0  0  0  0  0
  181.1870  178.0220  134.8680 C   0  0  1  0  0  3  0  0  0  0  0  0
  179.8780  177.5940  134.6010 O   0  0  0  0  0  1  0  0  0  0  0  0
  180.4760  180.4260  134.6930 C   0  0  0  0  0  1  0  0  0  0  0  0
  181.2260  179.3980  135.5220 C   0  0  1  0  0  3  0  0  0  0  0  0
  181.1600  176.7940  136.8370 C   0  0  2  0  0  3  0  0  0  0  0  0
  181.8920  177.1000  135.6670 O   0  0  0  0  0  0  0  0  0  0  0  0
  180.7330  178.0320  137.6260 C   0  0  0  0  0  0  0  0  0  0  0  0
  179.6480  178.8700  139.6820 C   0  0  0  0  0  3  0  0  0  0  0  0
  180.0840  180.1420  139.7980 C   0  0  0  0  0  0  0  0  0  0  0  0
  180.7230  179.3900  136.9690 C   0  0  1  0  0  3  0  0  0  0  0  0
  181.5250  180.3610  137.7690 C   0  0  0  0  0  3  0  0  0  0  0  0
  180.1670  177.8670  138.7870 N   0  0  0  0  0  0  0  0  0  0  0  0
  181.2060  180.7040  139.0150 C   0  0  0  0  0  3  0  0  0  0  0  0
  179.5060  180.9930  140.7460 O   0  0  0  0  0  0  0  0  0  0  0  0
  179.3530  180.6520  142.1240 C   0  0  0  0  0  1  0  0  0  0  0  0
  188.0250  177.2670  139.0440 O   0  0  0  0  0  0  0  0  0  0  0  0
  187.4680  178.3620  140.9970 O   0  0  0  0  0  0  0  0  0  0  0  0
  188.3510  177.7950  140.2960 C   0  0  0  0  0  0  0  0  0  0  0  0
  190.0270  178.0400  142.1210 C   0  0  0  0  0  3  0  0  0  0  0  0
  192.3220  177.4700  141.7590 N   0  0  0  0  0  0  0  0  0  0  0  0
  189.7280  177.6840  140.8010 C   0  0  0  0  0  0  0  0  0  0  0  0
  192.0590  177.1140  140.4730 C   0  0  0  0  0  3  0  0  0  0  0  0
  191.3400  177.9240  142.5870 C   0  0  0  0  0  0  0  0  0  0  0  0
  190.7560  177.2160  139.9710 C   0  0  0  0  0  3  0  0  0  0  0  0
  191.7290  178.3950  144.2690 S   0  0  0  0  0  0  0  0  0  0  0  0
  189.5630  177.5410  145.6550 C   0  0  0  0  0  3  0  0  0  0  0  0
  190.0010  178.3930  144.7330 C   0  0  0  0  0  3  0  0  0  0  0  0
  187.8570  177.1100  147.5130 C   0  0  0  0  0  2  0  0  0  0  0  0
  188.1360  177.5670  146.0950 C   0  0  0  0  0  0  0  0  0  0  0  0
  187.8530  178.5990  147.1690 C   0  0  0  0  0  2  0  0  0  0  0  0
  185.8520  178.1890  145.1970 N   0  0  0  0  0  2  0  0  0  0  0  0
  187.1640  176.5760  144.1340 O   0  0  0  0  0  0  0  0  0  0  0  0
  187.0420  177.4050  145.0790 C   0  0  0  0  0  0  0  0  0  0  0  0
  184.8950  179.0130  143.0520 C   0  0  1  0  0  3  0  0  0  0  0  0
  185.6780  180.1290  143.3770 O   0  0  0  0  0  1  0  0  0  0  0  0
  182.6510  179.1090  143.7600 C   0  0  0  0  0  2  0  0  0  0  0  0
  184.7430  178.0810  144.2540 C   0  0  2  0  0  3  0  0  0  0  0  0
  183.5580  179.4670  142.6670 N   0  0  0  0  0  0  0  0  0  0  0  0
  183.4670  178.5300  144.9030 C   0  0  0  0  0  2  0  0  0  0  0  0
  184.1870  178.8530  140.3970 C   0  0  0  0  0  1  0  0  0  0  0  0
  183.1520  178.7010  141.4970 C   0  0  0  0  0  2  0  0  0  0  0  0
  1  7  1  1  0  0  0
  1  5  1  0  0  0  0
  2  4  1  1  0  0  0
  2  5  1  0  0  0  0
  5 28  1  1  0  0  0
  6  3  1  6  0  0  0
  6  1  1  0  0  0  0
  6  2  1  0  0  0  0
  8  2  1  0  0  0  0
  8  9  1  0  0  0  0
 10 11  1  0  0  0  0
 10  9  1  0  0  0  0
 11 12  1  6  0  0  0
 13 14  1  1  0  0  0
 13 16  1  0  0  0  0
 13 18  1  0  0  0  0
 16 15  1  6  0  0  0
 16 22  1  0  0  0  0
 17 19  1  0  0  0  0
 17 11  1  1  0  0  0
 18 17  1  0  0  0  0
 19 24  2  0  0  0  0
 20 21  2  0  0  0  0
 21 26  1  0  0  0  0
 22 19  1  0  0  0  0
 22 23  1  1  0  0  0
 23 25  2  0  0  0  0
 24 20  1  0  0  0  0
 25 21  1  0  0  0  0
 26 27  1  0  0  0  0
 28 30  1  0  0  0  0
 30 33  1  0  0  0  0
 30 29  2  0  0  0  0
 31 35  1  0  0  0  0
 32 35  2  0  0  0  0
 33 31  2  0  0  0  0
 34 32  1  0  0  0  0
 35 37  1  0  0  0  0
 36 34  2  0  0  0  0
 36 33  1  0  0  0  0
 37 39  1  0  0  0  0
 38 41  1  0  0  0  0
 39 38  2  0  0  0  0
 41 42  1  0  0  0  0
 41 40  1  0  0  0  0
 42 40  1  0  0  0  0
 44 45  2  0  0  0  0
 45 43  1  0  0  0  0
 45 41  1  0  0  0  0
 46 47  1  1  0  0  0
 46 49  1  0  0  0  0
 48 51  1  0  0  0  0
 49 51  1  0  0  0  0
 49 43  1  1  0  0  0
 50 46  1  0  0  0  0
 50 48  1  0  0  0  0
 52 53  1  0  0  0  0
 53 50  1  0  0  0  0
M  END
>  <MODEL>
5

>  <REMARK>
 VINA RESULT:      -7.2      2.972      6.895
  Name = 
  15 active torsions:
  status: ('A' for Active; 'I' for Inactive)
    1  A    between atoms: C_3  and  C_7
    2  A    between atoms: C_3  and  N_26
    3  A    between atoms: N_5  and  C_27
    4  A    between atoms: C_7  and  C_25
    5  A    between atoms: C_11  and  C_30
    6  A    between atoms: C_16  and  C_46
    7  A    between atoms: C_19  and  S_35
    8  A    between atoms: C_22  and  N_49
    9  A    between atoms: C_24  and  C_32
   10  A    between atoms: N_26  and  C_46
   11  A    between atoms: C_30  and  O_48
   12  A    between atoms: C_32  and  C_33
   13  A    between atoms: S_35  and  C_42
   14  A    between atoms: C_38  and  O_44
   15  A    between atoms: C_47  and  O_48
                            x       y       z     vdW  Elec       q    Type
                         _______ _______ _______ _____ _____    ______ ____

>  <TORSDO>
F 15

$$$$
=
 OpenBabel10222417513D

 53 58  0  0  1  0  0  0  0  0999 V2000
  191.7120  177.9070  142.8320 C   0  0  2  0  0  3  0  0  0  0  0  0
  190.3740  177.1940  141.2990 C   0  0  1  0  0  0  0  0  0  0  0  0
  192.6070  177.8810  140.6260 O   0  0  0  0  0  1  0  0  0  0  0  0
  189.7740  175.9430  141.3620 F   0  0  0  0  0  0  0  0  0  0  0  0
  190.2060  178.0110  142.5780 C   0  0  1  0  0  3  0  0  0  0  0  0
  191.8830  177.1130  141.5450 C   0  0  1  0  0  3  0  0  0  0  0  0
  191.9970  177.0910  143.9340 O   0  0  0  0  0  1  0  0  0  0  0  0
  189.9340  177.9880  140.0650 C   0  0  0  0  0  2  0  0  0  0  0  0
  189.2210  177.1210  139.1460 N   0  0  0  0  0  2  0  0  0  0  0  0
  188.0810  177.8730  138.6500 C   0  0  0  0  0  2  0  0  0  0  0  0
  188.0850  177.9440  137.1250 C   0  0  2  0  0  3  0  0  0  0  0  0
  187.2530  178.9580  136.6370 O   0  0  0  0  0  1  0  0  0  0  0  0
  186.5840  174.6390  136.6430 C   0  0  1  0  0  3  0  0  0  0  0  0
  186.2080  174.7640  135.2970 O   0  0  0  0  0  1  0  0  0  0  0  0
  187.4930  172.3360  136.2140 C   0  0  0  0  0  1  0  0  0  0  0  0
  187.7670  173.6970  136.8300 C   0  0  1  0  0  3  0  0  0  0  0  0
  187.8270  176.5900  136.4500 C   0  0  2  0  0  3  0  0  0  0  0  0
  186.8780  175.8880  137.2280 O   0  0  0  0  0  0  0  0  0  0  0  0
  189.0900  175.7790  136.1570 C   0  0  0  0  0  0  0  0  0  0  0  0
  191.3460  175.8040  135.1490 C   0  0  0  0  0  3  0  0  0  0  0  0
  191.9840  174.7640  135.7250 C   0  0  0  0  0  0  0  0  0  0  0  0
  189.0850  174.2780  136.3110 C   0  0  1  0  0  3  0  0  0  0  0  0
  190.1960  173.8440  137.2080 C   0  0  0  0  0  3  0  0  0  0  0  0
  190.0850  176.3690  135.5610 N   0  0  0  0  0  0  0  0  0  0  0  0
  191.4790  174.0440  136.9140 C   0  0  0  0  0  3  0  0  0  0  0  0
  193.2280  174.3520  135.2360 O   0  0  0  0  0  0  0  0  0  0  0  0
  194.4590  174.9950  135.5670 C   0  0  0  0  0  1  0  0  0  0  0  0
  189.4480  177.3100  143.5630 O   0  0  0  0  0  0  0  0  0  0  0  0
  187.9670  175.5630  143.2780 O   0  0  0  0  0  0  0  0  0  0  0  0
  188.1680  176.8090  143.3090 C   0  0  0  0  0  0  0  0  0  0  0  0
  186.0470  177.8850  144.0460 C   0  0  0  0  0  3  0  0  0  0  0  0
  184.9460  179.4950  142.6600 N   0  0  0  0  0  0  0  0  0  0  0  0
  187.0500  177.7380  143.0810 C   0  0  0  0  0  0  0  0  0  0  0  0
  185.9100  179.3750  141.7080 C   0  0  0  0  0  3  0  0  0  0  0  0
  184.9940  178.7760  143.8160 C   0  0  0  0  0  0  0  0  0  0  0  0
  186.9800  178.4930  141.9020 C   0  0  0  0  0  3  0  0  0  0  0  0
  183.7000  178.9530  145.0400 S   0  0  0  0  0  0  0  0  0  0  0  0
  181.4120  178.7220  143.6050 C   0  0  0  0  0  3  0  0  0  0  0  0
  182.5100  179.4470  143.7970 C   0  0  0  0  0  3  0  0  0  0  0  0
  178.9340  178.9980  143.0310 C   0  0  0  0  0  2  0  0  0  0  0  0
  180.3830  179.1530  142.6130 C   0  0  0  0  0  0  0  0  0  0  0  0
  179.5970  180.3740  143.0490 C   0  0  0  0  0  2  0  0  0  0  0  0
  181.8420  178.3740  140.6960 N   0  0  0  0  0  2  0  0  0  0  0  0
  179.9640  179.7080  140.3130 O   0  0  0  0  0  0  0  0  0  0  0  0
  180.6970  179.1030  141.1450 C   0  0  0  0  0  0  0  0  0  0  0  0
  182.3220  176.8460  138.7910 C   0  0  1  0  0  3  0  0  0  0  0  0
  182.6250  175.9720  139.8440 O   0  0  0  0  0  1  0  0  0  0  0  0
  184.1480  178.0480  137.9140 C   0  0  0  0  0  2  0  0  0  0  0  0
  182.2150  178.2880  139.2870 C   0  0  2  0  0  3  0  0  0  0  0  0
  183.4020  176.7930  137.8040 N   0  0  0  0  0  0  0  0  0  0  0  0
  183.5920  178.8460  139.0820 C   0  0  0  0  0  2  0  0  0  0  0  0
  183.8230  177.1280  135.4300 C   0  0  0  0  0  1  0  0  0  0  0  0
  182.7920  176.7640  136.4820 C   0  0  0  0  0  2  0  0  0  0  0  0
  1  7  1  1  0  0  0
  2  4  1  1  0  0  0
  2  6  1  0  0  0  0
  2  5  1  0  0  0  0
  5  1  1  0  0  0  0
  5 28  1  1  0  0  0
  6  3  1  6  0  0  0
  6  1  1  0  0  0  0
  8  2  1  0  0  0  0
  9  8  1  0  0  0  0
 10  9  1  0  0  0  0
 11 12  1  1  0  0  0
 11 10  1  0  0  0  0
 13 14  1  6  0  0  0
 13 16  1  0  0  0  0
 13 18  1  0  0  0  0
 16 15  1  6  0  0  0
 17 11  1  1  0  0  0
 17 18  1  0  0  0  0
 19 22  1  0  0  0  0
 19 17  1  0  0  0  0
 20 24  1  0  0  0  0
 20 21  2  0  0  0  0
 21 25  1  0  0  0  0
 22 16  1  0  0  0  0
 22 23  1  1  0  0  0
 24 19  2  0  0  0  0
 25 23  2  0  0  0  0
 26 27  1  0  0  0  0
 26 21  1  0  0  0  0
 29 30  2  0  0  0  0
 30 28  1  0  0  0  0
 32 35  2  0  0  0  0
 33 30  1  0  0  0  0
 33 31  2  0  0  0  0
 34 36  2  0  0  0  0
 34 32  1  0  0  0  0
 35 31  1  0  0  0  0
 35 37  1  0  0  0  0
 36 33  1  0  0  0  0
 38 39  2  0  0  0  0
 39 37  1  0  0  0  0
 40 42  1  0  0  0  0
 41 40  1  0  0  0  0
 41 42  1  0  0  0  0
 41 38  1  0  0  0  0
 43 45  1  0  0  0  0
 44 45  2  0  0  0  0
 45 41  1  0  0  0  0
 46 49  1  0  0  0  0
 46 47  1  1  0  0  0
 48 51  1  0  0  0  0
 49 43  1  1  0  0  0
 50 48  1  0  0  0  0
 50 46  1  0  0  0  0
 51 49  1  0  0  0  0
 52 53  1  0  0  0  0
 53 50  1  0  0  0  0
M  END
>  <MODEL>
6

>  <REMARK>
 VINA RESULT:      -7.1      3.194      9.629
  Name = 
  15 active torsions:
  status: ('A' for Active; 'I' for Inactive)
    1  A    between atoms: C_3  and  C_7
    2  A    between atoms: C_3  and  N_26
    3  A    between atoms: N_5  and  C_27
    4  A    between atoms: C_7  and  C_25
    5  A    between atoms: C_11  and  C_30
    6  A    between atoms: C_16  and  C_46
    7  A    between atoms: C_19  and  S_35
    8  A    between atoms: C_22  and  N_49
    9  A    between atoms: C_24  and  C_32
   10  A    between atoms: N_26  and  C_46
   11  A    between atoms: C_30  and  O_48
   12  A    between atoms: C_32  and  C_33
   13  A    between atoms: S_35  and  C_42
   14  A    between atoms: C_38  and  O_44
   15  A    between atoms: C_47  and  O_48
                            x       y       z     vdW  Elec       q    Type
                         _______ _______ _______ _____ _____    ______ ____

>  <TORSDO>
F 15

$$$$
=
 OpenBabel10222417513D

 53 58  0  0  1  0  0  0  0  0999 V2000
  189.2620  177.0070  147.0120 C   0  0  2  0  0  3  0  0  0  0  0  0
  188.1960  177.8200  145.3230 C   0  0  1  0  0  0  0  0  0  0  0  0
  186.9650  177.5040  147.3950 O   0  0  0  0  0  1  0  0  0  0  0  0
  188.6150  178.9690  144.6660 F   0  0  0  0  0  0  0  0  0  0  0  0
  189.3050  176.7850  145.4980 C   0  0  1  0  0  3  0  0  0  0  0  0
  188.1410  178.0210  146.8390 C   0  0  1  0  0  3  0  0  0  0  0  0
  190.4150  177.6500  147.4760 O   0  0  0  0  0  1  0  0  0  0  0  0
  186.9510  177.2030  144.6790 C   0  0  0  0  0  2  0  0  0  0  0  0
  186.5610  177.9770  143.5150 N   0  0  0  0  0  2  0  0  0  0  0  0
  185.1150  177.8800  143.4050 C   0  0  0  0  0  2  0  0  0  0  0  0
  184.4420  179.2080  143.7400 C   0  0  2  0  0  3  0  0  0  0  0  0
  184.3600  179.4310  145.1200 O   0  0  0  0  0  1  0  0  0  0  0  0
  180.8270  178.9720  143.2150 C   0  0  1  0  0  3  0  0  0  0  0  0
  180.5590  180.3180  142.9260 O   0  0  0  0  0  1  0  0  0  0  0  0
  179.3670  178.2330  141.3070 C   0  0  0  0  0  1  0  0  0  0  0  0
  180.7180  178.0810  141.9830 C   0  0  1  0  0  3  0  0  0  0  0  0
  183.0980  179.4090  143.0260 C   0  0  2  0  0  3  0  0  0  0  0  0
  182.0920  178.8000  143.8110 O   0  0  0  0  0  0  0  0  0  0  0  0
  183.0840  178.9570  141.5670 C   0  0  0  0  0  0  0  0  0  0  0  0
  184.2180  179.0920  139.3750 C   0  0  0  0  0  3  0  0  0  0  0  0
  183.7780  178.0090  138.7010 C   0  0  0  0  0  0  0  0  0  0  0  0
  181.8590  178.2970  140.9840 C   0  0  1  0  0  3  0  0  0  0  0  0
  182.2180  176.9880  140.3640 C   0  0  0  0  0  3  0  0  0  0  0  0
  184.0450  179.3520  140.7820 N   0  0  0  0  0  0  0  0  0  0  0  0
  183.0510  176.8860  139.3300 C   0  0  0  0  0  3  0  0  0  0  0  0
  184.0590  177.8750  137.3370 O   0  0  0  0  0  0  0  0  0  0  0  0
  183.0960  177.4600  136.3690 C   0  0  0  0  0  1  0  0  0  0  0  0
  190.5380  177.2220  144.9290 O   0  0  0  0  0  0  0  0  0  0  0  0
  191.8930  175.5340  144.1290 O   0  0  0  0  0  0  0  0  0  0  0  0
  191.1680  176.5370  143.8850 C   0  0  0  0  0  0  0  0  0  0  0  0
  189.7100  177.3600  142.0420 C   0  0  0  0  0  3  0  0  0  0  0  0
  190.6210  177.8410  139.8830 N   0  0  0  0  0  0  0  0  0  0  0  0
  190.9800  176.9870  142.4970 C   0  0  0  0  0  0  0  0  0  0  0  0
  191.8670  177.4870  140.3000 C   0  0  0  0  0  3  0  0  0  0  0  0
  189.5490  177.7900  140.7210 C   0  0  0  0  0  0  0  0  0  0  0  0
  192.0680  177.0530  141.6160 C   0  0  0  0  0  3  0  0  0  0  0  0
  187.9240  178.2520  140.1310 S   0  0  0  0  0  0  0  0  0  0  0  0
  187.4130  177.1500  137.7080 C   0  0  0  0  0  3  0  0  0  0  0  0
  188.3260  177.7610  138.4570 C   0  0  0  0  0  3  0  0  0  0  0  0
  186.7180  175.8800  135.5990 C   0  0  0  0  0  2  0  0  0  0  0  0
  187.7150  176.7880  136.2920 C   0  0  0  0  0  0  0  0  0  0  0  0
  186.7360  177.3770  135.2950 C   0  0  0  0  0  2  0  0  0  0  0  0
  189.9980  175.6940  136.2610 N   0  0  0  0  0  2  0  0  0  0  0  0
  189.5830  177.6480  135.0510 O   0  0  0  0  0  0  0  0  0  0  0  0
  189.1410  176.7490  135.8210 C   0  0  0  0  0  0  0  0  0  0  0  0
  191.8380  174.1540  135.5980 C   0  0  1  0  0  3  0  0  0  0  0  0
  191.0640  173.2520  136.3410 O   0  0  0  0  0  1  0  0  0  0  0  0
  193.5570  175.2360  136.7890 C   0  0  0  0  0  2  0  0  0  0  0  0
  191.3960  175.5960  135.8530 C   0  0  2  0  0  3  0  0  0  0  0  0
  193.2360  174.0360  136.0140 N   0  0  0  0  0  0  0  0  0  0  0  0
  192.2920  176.0590  136.9620 C   0  0  0  0  0  2  0  0  0  0  0  0
  195.1890  175.0590  134.9810 C   0  0  0  0  0  1  0  0  0  0  0  0
  194.0580  174.0620  134.8110 C   0  0  0  0  0  2  0  0  0  0  0  0
  1  7  1  6  0  0  0
  2  4  1  6  0  0  0
  2  5  1  0  0  0  0
  2  6  1  0  0  0  0
  5 28  1  6  0  0  0
  5  1  1  0  0  0  0
  6  1  1  0  0  0  0
  6  3  1  1  0  0  0
  8  2  1  0  0  0  0
  9  8  1  0  0  0  0
 10  9  1  0  0  0  0
 10 11  1  0  0  0  0
 11 12  1  1  0  0  0
 13 14  1  6  0  0  0
 13 18  1  0  0  0  0
 16 15  1  6  0  0  0
 16 13  1  0  0  0  0
 17 11  1  1  0  0  0
 17 18  1  0  0  0  0
 19 17  1  0  0  0  0
 20 24  1  0  0  0  0
 21 25  1  0  0  0  0
 21 20  2  0  0  0  0
 22 23  1  1  0  0  0
 22 19  1  0  0  0  0
 22 16  1  0  0  0  0
 24 19  2  0  0  0  0
 25 23  2  0  0  0  0
 26 21  1  0  0  0  0
 27 26  1  0  0  0  0
 30 29  2  0  0  0  0
 30 28  1  0  0  0  0
 31 33  1  0  0  0  0
 32 34  2  0  0  0  0
 32 35  1  0  0  0  0
 33 30  1  0  0  0  0
 34 36  1  0  0  0  0
 35 31  2  0  0  0  0
 36 33  2  0  0  0  0
 37 35  1  0  0  0  0
 38 39  2  0  0  0  0
 39 37  1  0  0  0  0
 40 41  1  0  0  0  0
 41 38  1  0  0  0  0
 42 40  1  0  0  0  0
 42 41  1  0  0  0  0
 44 45  2  0  0  0  0
 45 43  1  0  0  0  0
 45 41  1  0  0  0  0
 46 49  1  0  0  0  0
 46 50  1  0  0  0  0
 46 47  1  1  0  0  0
 48 51  1  0  0  0  0
 49 43  1  1  0  0  0
 49 51  1  0  0  0  0
 50 48  1  0  0  0  0
 53 52  1  0  0  0  0
 53 50  1  0  0  0  0
M  END
>  <MODEL>
7

>  <REMARK>
 VINA RESULT:      -7.1      2.881      5.482
  Name = 
  15 active torsions:
  status: ('A' for Active; 'I' for Inactive)
    1  A    between atoms: C_3  and  C_7
    2  A    between atoms: C_3  and  N_26
    3  A    between atoms: N_5  and  C_27
    4  A    between atoms: C_7  and  C_25
    5  A    between atoms: C_11  and  C_30
    6  A    between atoms: C_16  and  C_46
    7  A    between atoms: C_19  and  S_35
    8  A    between atoms: C_22  and  N_49
    9  A    between atoms: C_24  and  C_32
   10  A    between atoms: N_26  and  C_46
   11  A    between atoms: C_30  and  O_48
   12  A    between atoms: C_32  and  C_33
   13  A    between atoms: S_35  and  C_42
   14  A    between atoms: C_38  and  O_44
   15  A    between atoms: C_47  and  O_48
                            x       y       z     vdW  Elec       q    Type
                         _______ _______ _______ _____ _____    ______ ____

>  <TORSDO>
F 15

$$$$
=
 OpenBabel10222417513D

 53 58  0  0  1  0  0  0  0  0999 V2000
  190.8380  176.5320  147.0260 C   0  0  2  0  0  3  0  0  0  0  0  0
  189.4410  177.6470  145.8200 C   0  0  1  0  0  0  0  0  0  0  0  0
  188.6130  176.6320  147.8680 O   0  0  0  0  0  1  0  0  0  0  0  0
  189.6580  178.9730  145.4710 F   0  0  0  0  0  0  0  0  0  0  0  0
  190.6330  176.7410  145.5230 C   0  0  1  0  0  3  0  0  0  0  0  0
  189.6350  177.4160  147.3210 C   0  0  1  0  0  3  0  0  0  0  0  0
  192.0070  177.1530  147.4820 O   0  0  0  0  0  1  0  0  0  0  0  0
  188.1500  177.0900  145.2140 C   0  0  0  0  0  2  0  0  0  0  0  0
  187.6150  178.0260  144.2430 N   0  0  0  0  0  2  0  0  0  0  0  0
  186.8660  177.2480  143.2700 C   0  0  0  0  0  2  0  0  0  0  0  0
  186.3750  178.1230  142.1200 C   0  0  2  0  0  3  0  0  0  0  0  0
  187.3800  178.9560  141.6150 O   0  0  0  0  0  1  0  0  0  0  0  0
  183.3430  179.0010  143.9740 C   0  0  1  0  0  3  0  0  0  0  0  0
  183.5330  180.3880  144.0620 O   0  0  0  0  0  1  0  0  0  0  0  0
  180.9310  179.3330  143.3530 C   0  0  0  0  0  1  0  0  0  0  0  0
  182.2290  178.6270  143.0030 C   0  0  1  0  0  3  0  0  0  0  0  0
  185.0810  178.8840  142.4410 C   0  0  2  0  0  3  0  0  0  0  0  0
  184.5270  178.3250  143.6160 O   0  0  0  0  0  0  0  0  0  0  0  0
  184.0880  178.9610  141.2810 C   0  0  0  0  0  0  0  0  0  0  0  0
  183.7750  179.5240  138.8950 C   0  0  0  0  0  3  0  0  0  0  0  0
  182.6450  178.8750  138.5420 C   0  0  0  0  0  0  0  0  0  0  0  0
  182.6050  178.8660  141.5380 C   0  0  1  0  0  3  0  0  0  0  0  0
  181.9990  177.7920  140.6980 C   0  0  0  0  0  3  0  0  0  0  0  0
  184.5240  179.3370  140.1130 N   0  0  0  0  0  0  0  0  0  0  0  0
  182.0030  177.8300  139.3670 C   0  0  0  0  0  3  0  0  0  0  0  0
  182.0510  179.1350  137.3020 O   0  0  0  0  0  0  0  0  0  0  0  0
  181.1250  180.1970  137.0780 C   0  0  0  0  0  1  0  0  0  0  0  0
  191.7150  177.4580  144.9310 O   0  0  0  0  0  0  0  0  0  0  0  0
  191.5840  179.5410  143.9450 O   0  0  0  0  0  0  0  0  0  0  0  0
  191.5470  178.2860  143.8170 C   0  0  0  0  0  0  0  0  0  0  0  0
  192.3630  177.6780  141.5440 C   0  0  0  0  0  3  0  0  0  0  0  0
  190.9290  176.5600  139.9880 N   0  0  0  0  0  0  0  0  0  0  0  0
  191.3310  177.6900  142.4900 C   0  0  0  0  0  0  0  0  0  0  0  0
  189.9100  176.5550  140.8900 C   0  0  0  0  0  3  0  0  0  0  0  0
  192.1420  177.1030  140.2890 C   0  0  0  0  0  0  0  0  0  0  0  0
  190.0930  177.1210  142.1570 C   0  0  0  0  0  3  0  0  0  0  0  0
  193.4540  177.1010  139.0710 S   0  0  0  0  0  0  0  0  0  0  0  0
  192.8610  175.4930  136.9730 C   0  0  0  0  0  3  0  0  0  0  0  0
  192.3810  176.3910  137.8280 C   0  0  0  0  0  3  0  0  0  0  0  0
  192.6410  174.0520  134.8700 C   0  0  0  0  0  2  0  0  0  0  0  0
  191.9640  174.8480  135.9680 C   0  0  0  0  0  0  0  0  0  0  0  0
  191.9670  173.3340  136.0380 C   0  0  0  0  0  2  0  0  0  0  0  0
  189.4520  174.9150  136.2780 N   0  0  0  0  0  2  0  0  0  0  0  0
  190.5320  176.4340  134.8700 O   0  0  0  0  0  0  0  0  0  0  0  0
  190.6250  175.4580  135.6660 C   0  0  0  0  0  0  0  0  0  0  0  0
  187.7620  176.6140  136.9490 C   0  0  1  0  0  3  0  0  0  0  0  0
  188.4750  176.5380  138.1530 O   0  0  0  0  0  1  0  0  0  0  0  0
  185.8750  175.2140  136.7970 C   0  0  0  0  0  2  0  0  0  0  0  0
  188.1160  175.4480  136.0260 C   0  0  2  0  0  3  0  0  0  0  0  0
  186.3300  176.5340  137.2390 N   0  0  0  0  0  0  0  0  0  0  0  0
  187.0790  174.4110  136.3360 C   0  0  0  0  0  2  0  0  0  0  0  0
  184.3850  176.9340  135.8310 C   0  0  0  0  0  1  0  0  0  0  0  0
  185.6550  177.5250  136.4120 C   0  0  0  0  0  2  0  0  0  0  0  0
  1  6  1  0  0  0  0
  1  7  1  1  0  0  0
  2  4  1  6  0  0  0
  2  6  1  0  0  0  0
  5 28  1  1  0  0  0
  5  2  1  0  0  0  0
  5  1  1  0  0  0  0
  6  3  1  6  0  0  0
  8  2  1  0  0  0  0
  9  8  1  0  0  0  0
 10  9  1  0  0  0  0
 11 12  1  1  0  0  0
 11 10  1  0  0  0  0
 13 14  1  6  0  0  0
 16 15  1  1  0  0  0
 16 13  1  0  0  0  0
 17 11  1  6  0  0  0
 17 18  1  0  0  0  0
 18 13  1  0  0  0  0
 19 22  1  0  0  0  0
 19 17  1  0  0  0  0
 20 24  1  0  0  0  0
 21 20  2  0  0  0  0
 21 25  1  0  0  0  0
 22 23  1  6  0  0  0
 22 16  1  0  0  0  0
 24 19  2  0  0  0  0
 25 23  2  0  0  0  0
 26 21  1  0  0  0  0
 27 26  1  0  0  0  0
 30 29  2  0  0  0  0
 30 28  1  0  0  0  0
 31 33  1  0  0  0  0
 32 35  1  0  0  0  0
 32 34  2  0  0  0  0
 33 30  1  0  0  0  0
 34 36  1  0  0  0  0
 35 31  2  0  0  0  0
 36 33  2  0  0  0  0
 37 35  1  0  0  0  0
 38 39  2  0  0  0  0
 39 37  1  0  0  0  0
 40 41  1  0  0  0  0
 40 42  1  0  0  0  0
 41 42  1  0  0  0  0
 41 38  1  0  0  0  0
 44 45  2  0  0  0  0
 45 41  1  0  0  0  0
 45 43  1  0  0  0  0
 46 50  1  0  0  0  0
 46 47  1  1  0  0  0
 48 50  1  0  0  0  0
 49 43  1  1  0  0  0
 49 51  1  0  0  0  0
 49 46  1  0  0  0  0
 51 48  1  0  0  0  0
 52 53  1  0  0  0  0
 53 50  1  0  0  0  0
M  END
>  <MODEL>
8

>  <REMARK>
 VINA RESULT:      -6.8      2.785      5.843
  Name = 
  15 active torsions:
  status: ('A' for Active; 'I' for Inactive)
    1  A    between atoms: C_3  and  C_7
    2  A    between atoms: C_3  and  N_26
    3  A    between atoms: N_5  and  C_27
    4  A    between atoms: C_7  and  C_25
    5  A    between atoms: C_11  and  C_30
    6  A    between atoms: C_16  and  C_46
    7  A    between atoms: C_19  and  S_35
    8  A    between atoms: C_22  and  N_49
    9  A    between atoms: C_24  and  C_32
   10  A    between atoms: N_26  and  C_46
   11  A    between atoms: C_30  and  O_48
   12  A    between atoms: C_32  and  C_33
   13  A    between atoms: S_35  and  C_42
   14  A    between atoms: C_38  and  O_44
   15  A    between atoms: C_47  and  O_48
                            x       y       z     vdW  Elec       q    Type
                         _______ _______ _______ _____ _____    ______ ____

>  <TORSDO>
F 15

$$$$
=
 OpenBabel10222417513D

 53 58  0  0  1  0  0  0  0  0999 V2000
  184.1230  179.1030  144.6470 C   0  0  2  0  0  3  0  0  0  0  0  0
  184.7380  178.5370  142.6600 C   0  0  1  0  0  0  0  0  0  0  0  0
  186.4710  178.8620  144.3330 O   0  0  0  0  0  1  0  0  0  0  0  0
  184.2630  177.3910  142.0350 F   0  0  0  0  0  0  0  0  0  0  0  0
  183.6300  179.4170  143.2330 C   0  0  1  0  0  3  0  0  0  0  0  0
  185.2420  178.2450  144.0750 C   0  0  1  0  0  3  0  0  0  0  0  0
  183.2170  178.2970  145.3460 O   0  0  0  0  0  1  0  0  0  0  0  0
  185.6820  179.3400  141.7600 C   0  0  0  0  0  2  0  0  0  0  0  0
  185.4170  179.0340  140.3660 N   0  0  0  0  0  2  0  0  0  0  0  0
  186.4990  178.1790  139.9060 C   0  0  0  0  0  2  0  0  0  0  0  0
  187.8460  178.6470  140.4500 C   0  0  2  0  0  3  0  0  0  0  0  0
  188.6410  179.2430  139.4640 O   0  0  0  0  0  1  0  0  0  0  0  0
  189.4400  177.0730  143.3450 C   0  0  1  0  0  3  0  0  0  0  0  0
  188.8080  175.8210  143.2900 O   0  0  0  0  0  1  0  0  0  0  0  0
  191.6630  175.9750  143.7530 C   0  0  0  0  0  1  0  0  0  0  0  0
  190.9050  177.0030  142.9320 C   0  0  1  0  0  3  0  0  0  0  0  0
  188.5940  177.5650  141.2410 C   0  0  2  0  0  3  0  0  0  0  0  0
  188.7740  178.0370  142.5610 O   0  0  0  0  0  0  0  0  0  0  0  0
  189.8900  177.0860  140.5870 C   0  0  0  0  0  0  0  0  0  0  0  0
  190.9420  176.2390  138.5170 C   0  0  0  0  0  3  0  0  0  0  0  0
  192.2580  176.4820  138.6850 C   0  0  0  0  0  0  0  0  0  0  0  0
  191.0940  176.7550  141.4320 C   0  0  1  0  0  3  0  0  0  0  0  0
  192.2880  177.5150  140.9590 C   0  0  0  0  0  3  0  0  0  0  0  0
  189.8660  176.7530  139.3280 N   0  0  0  0  0  0  0  0  0  0  0  0
  192.8060  177.3570  139.7430 C   0  0  0  0  0  3  0  0  0  0  0  0
  193.1870  175.9430  137.7870 O   0  0  0  0  0  0  0  0  0  0  0  0
  193.5640  174.5660  137.7750 C   0  0  0  0  0  1  0  0  0  0  0  0
  182.3340  178.8730  142.9850 O   0  0  0  0  0  0  0  0  0  0  0  0
  180.6850  180.3060  142.2420 O   0  0  0  0  0  0  0  0  0  0  0  0
  181.4900  179.3680  141.9870 C   0  0  0  0  0  0  0  0  0  0  0  0
  181.0540  177.5070  140.3910 C   0  0  0  0  0  3  0  0  0  0  0  0
  181.6380  177.7140  138.0800 N   0  0  0  0  0  0  0  0  0  0  0  0
  181.5440  178.7950  140.6330 C   0  0  0  0  0  0  0  0  0  0  0  0
  182.1190  178.9710  138.2870 C   0  0  0  0  0  3  0  0  0  0  0  0
  181.1090  176.9790  139.0980 C   0  0  0  0  0  0  0  0  0  0  0  0
  182.0800  179.5330  139.5680 C   0  0  0  0  0  3  0  0  0  0  0  0
  180.4990  175.3250  138.7880 S   0  0  0  0  0  0  0  0  0  0  0  0
  182.0760  173.9690  137.0500 C   0  0  0  0  0  3  0  0  0  0  0  0
  182.0600  174.8190  138.0730 C   0  0  0  0  0  3  0  0  0  0  0  0
  184.0850  172.3860  136.9950 C   0  0  0  0  0  2  0  0  0  0  0  0
  183.3660  173.5830  136.4060 C   0  0  0  0  0  0  0  0  0  0  0  0
  183.3080  172.2500  135.6860 C   0  0  0  0  0  2  0  0  0  0  0  0
  185.5100  174.9150  136.2060 N   0  0  0  0  0  2  0  0  0  0  0  0
  183.7370  175.2590  134.7250 O   0  0  0  0  0  0  0  0  0  0  0  0
  184.1970  174.6290  135.7190 C   0  0  0  0  0  0  0  0  0  0  0  0
  187.8550  175.6810  135.8740 C   0  0  1  0  0  3  0  0  0  0  0  0
  188.0330  174.9640  137.0660 O   0  0  0  0  0  1  0  0  0  0  0  0
  187.4420  177.9850  136.1280 C   0  0  0  0  0  2  0  0  0  0  0  0
  186.3720  175.9240  135.5960 C   0  0  2  0  0  3  0  0  0  0  0  0
  188.5050  176.9850  136.0030 N   0  0  0  0  0  0  0  0  0  0  0  0
  186.1040  177.2690  136.2030 C   0  0  0  0  0  2  0  0  0  0  0  0
  190.5680  176.5800  134.7770 C   0  0  0  0  0  1  0  0  0  0  0  0
  189.2090  177.2530  134.7560 C   0  0  0  0  0  2  0  0  0  0  0  0
  1  7  1  1  0  0  0
  2  4  1  6  0  0  0
  2  5  1  0  0  0  0
  2  6  1  0  0  0  0
  5 28  1  1  0  0  0
  5  1  1  0  0  0  0
  6  3  1  6  0  0  0
  6  1  1  0  0  0  0
  8  2  1  0  0  0  0
  9  8  1  0  0  0  0
 10  9  1  0  0  0  0
 10 11  1  0  0  0  0
 11 12  1  6  0  0  0
 13 14  1  6  0  0  0
 16 13  1  0  0  0  0
 16 15  1  1  0  0  0
 17 11  1  6  0  0  0
 17 18  1  0  0  0  0
 18 13  1  0  0  0  0
 19 17  1  0  0  0  0
 19 22  1  0  0  0  0
 20 21  2  0  0  0  0
 20 24  1  0  0  0  0
 21 25  1  0  0  0  0
 22 23  1  6  0  0  0
 22 16  1  0  0  0  0
 24 19  2  0  0  0  0
 25 23  2  0  0  0  0
 26 21  1  0  0  0  0
 27 26  1  0  0  0  0
 30 29  2  0  0  0  0
 30 28  1  0  0  0  0
 31 33  1  0  0  0  0
 32 34  2  0  0  0  0
 32 35  1  0  0  0  0
 33 30  1  0  0  0  0
 34 36  1  0  0  0  0
 35 31  2  0  0  0  0
 36 33  2  0  0  0  0
 37 35  1  0  0  0  0
 38 39  2  0  0  0  0
 39 37  1  0  0  0  0
 41 40  1  0  0  0  0
 41 38  1  0  0  0  0
 42 41  1  0  0  0  0
 42 40  1  0  0  0  0
 44 45  2  0  0  0  0
 45 43  1  0  0  0  0
 45 41  1  0  0  0  0
 46 50  1  0  0  0  0
 46 47  1  1  0  0  0
 48 51  1  0  0  0  0
 49 46  1  0  0  0  0
 49 51  1  0  0  0  0
 49 43  1  1  0  0  0
 50 48  1  0  0  0  0
 53 52  1  0  0  0  0
 53 50  1  0  0  0  0
M  END
>  <MODEL>
9

>  <REMARK>
 VINA RESULT:      -6.8      3.095      8.688
  Name = 
  15 active torsions:
  status: ('A' for Active; 'I' for Inactive)
    1  A    between atoms: C_3  and  C_7
    2  A    between atoms: C_3  and  N_26
    3  A    between atoms: N_5  and  C_27
    4  A    between atoms: C_7  and  C_25
    5  A    between atoms: C_11  and  C_30
    6  A    between atoms: C_16  and  C_46
    7  A    between atoms: C_19  and  S_35
    8  A    between atoms: C_22  and  N_49
    9  A    between atoms: C_24  and  C_32
   10  A    between atoms: N_26  and  C_46
   11  A    between atoms: C_30  and  O_48
   12  A    between atoms: C_32  and  C_33
   13  A    between atoms: S_35  and  C_42
   14  A    between atoms: C_38  and  O_44
   15  A    between atoms: C_47  and  O_48
                            x       y       z     vdW  Elec       q    Type
                         _______ _______ _______ _____ _____    ______ ____

>  <TORSDO>
F 15

$$$$
