=
 OpenBabel10222418113D

 45 49  0  0  1  0  0  0  0  0999 V2000
  187.4780  178.3410  140.5720 C   0  0  0  0  0  0  0  0  0  0  0  0
  189.3930  177.4780  141.6560 C   0  0  0  0  0  0  0  0  0  0  0  0
  190.0110  177.2160  140.4690 C   0  0  0  0  0  3  0  0  0  0  0  0
  188.1000  178.0110  141.6880 C   0  0  0  0  0  3  0  0  0  0  0  0
  189.3800  177.5510  139.3020 C   0  0  0  0  0  0  0  0  0  0  0  0
  188.0890  178.0780  139.3990 C   0  0  0  0  0  3  0  0  0  0  0  0
  189.9870  177.0740  142.9570 C   0  0  0  0  0  0  0  0  0  0  0  0
  190.9070  176.5950  145.5790 N   0  0  0  0  0  0  0  0  0  0  0  0
  189.2690  177.3410  143.9790 N   0  0  0  0  0  0  0  0  0  0  0  0
  191.2630  176.5020  143.2150 C   0  0  0  0  0  3  0  0  0  0  0  0
  191.7430  176.2620  144.5390 C   0  0  0  0  0  3  0  0  0  0  0  0
  189.6840  177.1230  145.2810 C   0  0  0  0  0  0  0  0  0  0  0  0
  187.2700  177.8770  145.7510 C   0  0  0  0  0  2  0  0  0  0  0  0
  188.8120  177.8870  147.5060 C   0  0  0  0  0  3  0  0  0  0  0  0
  188.5650  177.5940  146.1640 C   0  0  0  0  0  0  0  0  0  0  0  0
  187.8630  178.4260  148.3730 N   0  0  0  0  0  2  0  0  0  0  0  0
  186.2700  178.4500  146.6930 C   0  0  0  0  0  0  0  0  0  0  0  0
  186.6380  178.6880  147.9630 N   0  0  0  0  0  0  0  0  0  0  0  0
  184.8610  179.4270  144.9840 C   0  0  0  0  0  1  0  0  0  0  0  0
  184.9830  178.7380  146.2160 O   0  0  0  0  0  0  0  0  0  0  0  0
  186.2200  179.0280  140.5980 N   0  0  0  0  0  2  0  0  0  0  0  0
  184.7550  178.8630  139.6450 S   0  0  0  0  0  0  0  0  0  0  0  0
  184.3580  180.2190  139.2160 O   0  0  0  0  0  0  0  0  0  0  0  0
  184.9120  177.9570  138.4510 O   0  0  0  0  0  0  0  0  0  0  0  0
  184.0390  177.9410  142.0060 N   0  0  0  0  0  1  0  0  0  0  0  0
  183.4670  178.2120  140.7060 C   0  0  1  0  0  3  0  0  0  0  0  0
  181.0810  178.5030  141.6730 C   0  0  1  0  0  3  0  0  0  0  0  0
  181.2100  178.5360  139.5610 C   0  0  0  0  0  2  0  0  0  0  0  0
  179.6790  178.4790  140.5760 S   0  0  0  0  0  0  0  0  0  0  0  0
  182.1090  178.9290  140.6890 C   0  0  2  0  0  3  0  0  0  0  0  0
  180.9490  179.0290  143.0390 C   0  0  0  0  0  3  0  0  0  0  0  0
  180.1370  178.4600  143.9360 C   0  0  0  0  0  2  0  0  0  0  0  0
  189.7260  176.8150  138.0870 C   0  0  0  0  0  2  0  0  0  0  0  0
  192.9860  173.4950  136.9250 C   0  0  0  0  0  2  0  0  0  0  0  0
  195.2080  174.6600  137.3570 C   0  0  2  0  0  3  0  0  0  0  0  0
  190.4540  174.3940  137.6750 O   0  0  0  0  0  0  0  0  0  0  0  0
  194.5490  173.4630  136.7190 C   0  0  0  0  0  2  0  0  0  0  0  0
  191.4120  175.2410  137.7010 C   0  0  0  0  0  0  0  0  0  0  0  0
  191.1300  176.6360  137.8360 N   0  0  0  0  0  2  0  0  0  0  0  0
  192.7340  174.7400  137.5160 N   0  0  0  0  0  0  0  0  0  0  0  0
  193.9730  175.5310  137.6590 C   0  0  0  0  0  2  0  0  0  0  0  0
  196.5030  175.1380  136.9620 O   0  0  0  0  0  0  0  0  0  0  0  0
  197.9180  172.8380  137.5180 O   0  0  0  0  0  0  0  0  0  0  0  0
  197.7610  174.3300  137.7430 P   0  0  0  0  0  0  0  0  0  0  0  0
  199.0580  174.9850  138.2670 O   0  0  0  0  0  0  0  0  0  0  0  0
  1 21  1  0  0  0  0
  1  4  1  0  0  0  0
  2  4  2  0  0  0  0
  2  7  1  0  0  0  0
  3  2  1  0  0  0  0
  5  6  1  0  0  0  0
  5  3  2  0  0  0  0
  6  1  2  0  0  0  0
  7 10  1  0  0  0  0
  7  9  2  0  0  0  0
  9 12  1  0  0  0  0
 10 11  2  0  0  0  0
 11  8  1  0  0  0  0
 12  8  2  0  0  0  0
 12 15  1  0  0  0  0
 13 15  1  0  0  0  0
 13 17  1  0  0  0  0
 14 16  1  0  0  0  0
 15 14  2  0  0  0  0
 17 18  2  0  0  0  0
 18 16  1  0  0  0  0
 19 20  1  0  0  0  0
 20 17  1  0  0  0  0
 22 21  1  0  0  0  0
 22 26  1  0  0  0  0
 23 22  2  0  0  0  0
 24 22  2  0  0  0  0
 26 25  1  1  0  0  0
 27 31  1  1  0  0  0
 28 29  1  0  0  0  0
 28 30  1  0  0  0  0
 29 27  1  0  0  0  0
 30 26  1  1  0  0  0
 30 27  1  0  0  0  0
 31 32  2  0  0  0  0
 33  5  1  0  0  0  0
 34 40  1  0  0  0  0
 35 42  1  6  0  0  0
 35 41  1  0  0  0  0
 36 38  2  0  0  0  0
 37 34  1  0  0  0  0
 37 35  1  0  0  0  0
 38 39  1  0  0  0  0
 39 33  1  0  0  0  0
 40 41  1  0  0  0  0
 40 38  1  0  0  0  0
 42 44  1  0  0  0  0
 43 44  2  0  0  0  0
 44 45  2  0  0  0  0
M  END
>  <MODEL>
1

>  <REMARK>
 VINA RESULT:      -9.5      0.000      0.000
  Name = 
  12 active torsions:
  status: ('A' for Active; 'I' for Inactive)
    1  A    between atoms: C_2  and  C_6
    2  A    between atoms: S_3  and  N_9
    3  A    between atoms: S_3  and  C_38
    4  A    between atoms: C_4  and  C_12
    5  A    between atoms: C_8  and  N_9
    6  A    between atoms: C_10  and  O_18
    7  A    between atoms: C_17  and  C_26
    8  A    between atoms: C_17  and  N_36
    9  A    between atoms: O_18  and  P_19
   10  A    between atoms: O_27  and  C_41
   11  A    between atoms: C_33  and  C_37
   12  A    between atoms: C_38  and  C_45
                            x       y       z     vdW  Elec       q    Type
                         _______ _______ _______ _____ _____    ______ ____

>  <TORSDO>
F 12

$$$$
=
 OpenBabel10222418113D

 45 49  0  0  1  0  0  0  0  0999 V2000
  185.7570  178.5950  140.8360 C   0  0  0  0  0  0  0  0  0  0  0  0
  185.2010  178.3150  143.1160 C   0  0  0  0  0  0  0  0  0  0  0  0
  183.8790  178.1440  142.8260 C   0  0  0  0  0  3  0  0  0  0  0  0
  186.1270  178.5790  142.1020 C   0  0  0  0  0  3  0  0  0  0  0  0
  183.4770  178.1590  141.5190 C   0  0  0  0  0  0  0  0  0  0  0  0
  184.4490  178.4300  140.5510 C   0  0  0  0  0  3  0  0  0  0  0  0
  185.6960  178.3840  144.5160 C   0  0  0  0  0  0  0  0  0  0  0  0
  186.8840  178.2390  147.0680 N   0  0  0  0  0  0  0  0  0  0  0  0
  186.9180  178.0470  144.6680 N   0  0  0  0  0  0  0  0  0  0  0  0
  184.9770  178.7040  145.7000 C   0  0  0  0  0  3  0  0  0  0  0  0
  185.5660  178.6260  146.9990 C   0  0  0  0  0  3  0  0  0  0  0  0
  187.5380  177.9610  145.9020 C   0  0  0  0  0  0  0  0  0  0  0  0
  189.4820  177.2180  144.3900 C   0  0  0  0  0  2  0  0  0  0  0  0
  189.8060  177.2460  146.7030 C   0  0  0  0  0  3  0  0  0  0  0  0
  188.9450  177.5090  145.6370 C   0  0  0  0  0  0  0  0  0  0  0  0
  191.0900  176.7270  146.5570 N   0  0  0  0  0  2  0  0  0  0  0  0
  190.8570  176.6660  144.2550 C   0  0  0  0  0  0  0  0  0  0  0  0
  191.5830  176.4560  145.3650 N   0  0  0  0  0  0  0  0  0  0  0  0
  191.6750  177.4430  142.1120 C   0  0  0  0  0  1  0  0  0  0  0  0
  191.3400  176.3680  142.9720 O   0  0  0  0  0  0  0  0  0  0  0  0
  186.7210  178.7110  139.7800 N   0  0  0  0  0  2  0  0  0  0  0  0
  186.7180  178.1890  138.1050 S   0  0  0  0  0  0  0  0  0  0  0  0
  185.3210  177.8620  137.7530 O   0  0  0  0  0  0  0  0  0  0  0  0
  187.2730  179.2180  137.1530 O   0  0  0  0  0  0  0  0  0  0  0  0
  186.9370  175.7140  137.2330 N   0  0  0  0  0  1  0  0  0  0  0  0
  187.6930  176.6920  137.9820 C   0  0  1  0  0  3  0  0  0  0  0  0
  190.0540  175.6540  137.7440 C   0  0  1  0  0  3  0  0  0  0  0  0
  189.9980  177.5790  138.6230 C   0  0  0  0  0  2  0  0  0  0  0  0
  191.4480  176.4550  138.5100 S   0  0  0  0  0  0  0  0  0  0  0  0
  189.1750  176.8440  137.6120 C   0  0  2  0  0  3  0  0  0  0  0  0
  190.2590  174.6360  136.7050 C   0  0  0  0  0  3  0  0  0  0  0  0
  189.6830  173.4320  136.7760 C   0  0  0  0  0  2  0  0  0  0  0  0
  182.0950  178.5310  141.2190 C   0  0  0  0  0  2  0  0  0  0  0  0
  179.1480  181.9340  139.5650 C   0  0  0  0  0  2  0  0  0  0  0  0
  179.9250  182.2840  137.1660 C   0  0  2  0  0  3  0  0  0  0  0  0
  179.9180  179.8790  141.2870 O   0  0  0  0  0  0  0  0  0  0  0  0
  179.0740  182.8420  138.2790 C   0  0  0  0  0  2  0  0  0  0  0  0
  180.6310  180.0710  140.2430 C   0  0  0  0  0  0  0  0  0  0  0  0
  181.9110  179.4440  140.1240 N   0  0  0  0  0  2  0  0  0  0  0  0
  180.1290  180.9790  139.2640 N   0  0  0  0  0  0  0  0  0  0  0  0
  180.7270  181.2170  137.9360 C   0  0  0  0  0  2  0  0  0  0  0  0
  180.4130  183.0880  136.0810 O   0  0  0  0  0  0  0  0  0  0  0  0
  180.0280  185.7590  136.6470 O   0  0  0  0  0  0  0  0  0  0  0  0
  180.9910  184.5880  136.5920 P   0  0  0  0  0  0  0  0  0  0  0  0
  182.2420  184.8130  137.4690 O   0  0  0  0  0  0  0  0  0  0  0  0
  1  4  1  0  0  0  0
  2  7  1  0  0  0  0
  3  2  1  0  0  0  0
  4  2  2  0  0  0  0
  5  3  2  0  0  0  0
  6  1  2  0  0  0  0
  6  5  1  0  0  0  0
  7  9  2  0  0  0  0
  7 10  1  0  0  0  0
  9 12  1  0  0  0  0
 10 11  2  0  0  0  0
 11  8  1  0  0  0  0
 12  8  2  0  0  0  0
 13 15  1  0  0  0  0
 15 12  1  0  0  0  0
 15 14  2  0  0  0  0
 16 14  1  0  0  0  0
 17 13  1  0  0  0  0
 17 18  2  0  0  0  0
 18 16  1  0  0  0  0
 19 20  1  0  0  0  0
 20 17  1  0  0  0  0
 21  1  1  0  0  0  0
 22 21  1  0  0  0  0
 23 22  2  0  0  0  0
 24 22  2  0  0  0  0
 26 25  1  6  0  0  0
 26 22  1  0  0  0  0
 27 31  1  6  0  0  0
 27 29  1  0  0  0  0
 29 28  1  0  0  0  0
 30 27  1  0  0  0  0
 30 26  1  1  0  0  0
 30 28  1  0  0  0  0
 31 32  2  0  0  0  0
 33  5  1  0  0  0  0
 35 42  1  1  0  0  0
 35 41  1  0  0  0  0
 35 37  1  0  0  0  0
 37 34  1  0  0  0  0
 38 36  2  0  0  0  0
 39 38  1  0  0  0  0
 39 33  1  0  0  0  0
 40 34  1  0  0  0  0
 40 38  1  0  0  0  0
 41 40  1  0  0  0  0
 42 44  1  0  0  0  0
 44 43  2  0  0  0  0
 44 45  2  0  0  0  0
M  END
>  <MODEL>
2

>  <REMARK>
 VINA RESULT:      -9.4      4.658     10.149
  Name = 
  12 active torsions:
  status: ('A' for Active; 'I' for Inactive)
    1  A    between atoms: C_2  and  C_6
    2  A    between atoms: S_3  and  N_9
    3  A    between atoms: S_3  and  C_38
    4  A    between atoms: C_4  and  C_12
    5  A    between atoms: C_8  and  N_9
    6  A    between atoms: C_10  and  O_18
    7  A    between atoms: C_17  and  C_26
    8  A    between atoms: C_17  and  N_36
    9  A    between atoms: O_18  and  P_19
   10  A    between atoms: O_27  and  C_41
   11  A    between atoms: C_33  and  C_37
   12  A    between atoms: C_38  and  C_45
                            x       y       z     vdW  Elec       q    Type
                         _______ _______ _______ _____ _____    ______ ____

>  <TORSDO>
F 12

$$$$
=
 OpenBabel10222418113D

 45 49  0  0  1  0  0  0  0  0999 V2000
  185.2080  178.4330  139.6330 C   0  0  0  0  0  0  0  0  0  0  0  0
  184.0990  178.2530  141.7130 C   0  0  0  0  0  0  0  0  0  0  0  0
  182.9390  177.8500  141.1180 C   0  0  0  0  0  3  0  0  0  0  0  0
  185.2210  178.5790  140.9440 C   0  0  0  0  0  3  0  0  0  0  0  0
  182.9070  177.6940  139.7590 C   0  0  0  0  0  0  0  0  0  0  0  0
  184.0600  178.0370  139.0460 C   0  0  0  0  0  3  0  0  0  0  0  0
  184.1830  178.5140  143.1730 C   0  0  0  0  0  0  0  0  0  0  0  0
  184.6080  178.7290  145.9520 N   0  0  0  0  0  0  0  0  0  0  0  0
  185.3100  178.2300  143.7030 N   0  0  0  0  0  0  0  0  0  0  0  0
  183.1660  178.9670  144.0580 C   0  0  0  0  0  3  0  0  0  0  0  0
  183.3670  179.0710  145.4680 C   0  0  0  0  0  3  0  0  0  0  0  0
  185.5590  178.3200  145.0610 C   0  0  0  0  0  0  0  0  0  0  0  0
  187.7730  177.2490  144.3070 C   0  0  0  0  0  2  0  0  0  0  0  0
  187.5720  177.9760  146.5190 C   0  0  0  0  0  3  0  0  0  0  0  0
  186.9780  177.8730  145.2600 C   0  0  0  0  0  0  0  0  0  0  0  0
  188.8440  177.4940  146.8210 N   0  0  0  0  0  2  0  0  0  0  0  0
  189.1300  176.7430  144.6500 C   0  0  0  0  0  0  0  0  0  0  0  0
  189.5840  176.9040  145.9050 N   0  0  0  0  0  0  0  0  0  0  0  0
  191.2880  176.2530  143.6680 C   0  0  0  0  0  1  0  0  0  0  0  0
  189.8800  176.0990  143.6550 O   0  0  0  0  0  0  0  0  0  0  0  0
  186.3970  178.6150  138.8520 N   0  0  0  0  0  2  0  0  0  0  0  0
  186.9740  177.8680  137.3720 S   0  0  0  0  0  0  0  0  0  0  0  0
  186.6930  176.4220  137.4750 O   0  0  0  0  0  0  0  0  0  0  0  0
  186.3460  178.4400  136.1260 O   0  0  0  0  0  0  0  0  0  0  0  0
  189.0590  179.4450  137.6840 N   0  0  0  0  0  1  0  0  0  0  0  0
  188.7490  178.0910  137.2870 C   0  0  1  0  0  3  0  0  0  0  0  0
  190.6070  177.3550  138.9350 C   0  0  1  0  0  3  0  0  0  0  0  0
  190.7400  176.5210  136.9940 C   0  0  0  0  0  2  0  0  0  0  0  0
  191.9930  176.4130  138.3340 S   0  0  0  0  0  0  0  0  0  0  0  0
  189.6280  176.9810  137.8830 C   0  0  2  0  0  3  0  0  0  0  0  0
  190.3180  177.4180  140.3740 C   0  0  0  0  0  3  0  0  0  0  0  0
  189.0710  177.5560  140.8360 C   0  0  0  0  0  2  0  0  0  0  0  0
  181.6210  177.8150  139.0740 C   0  0  0  0  0  2  0  0  0  0  0  0
  180.3240  180.1470  135.0900 C   0  0  0  0  0  2  0  0  0  0  0  0
  180.6090  182.6000  135.7120 C   0  0  2  0  0  3  0  0  0  0  0  0
  181.2050  177.9410  136.5510 O   0  0  0  0  0  0  0  0  0  0  0  0
  180.0280  181.6460  134.6980 C   0  0  0  0  0  2  0  0  0  0  0  0
  181.1620  179.0670  137.1530 C   0  0  0  0  0  0  0  0  0  0  0  0
  181.2920  179.1230  138.5770 N   0  0  0  0  0  2  0  0  0  0  0  0
  180.9090  180.2250  136.3610 N   0  0  0  0  0  0  0  0  0  0  0  0
  180.9680  181.6190  136.8450 C   0  0  0  0  0  2  0  0  0  0  0  0
  180.1320  183.9440  135.8780 O   0  0  0  0  0  0  0  0  0  0  0  0
  179.9790  185.1880  138.3340 O   0  0  0  0  0  0  0  0  0  0  0  0
  180.8550  184.7340  137.1820 P   0  0  0  0  0  0  0  0  0  0  0  0
  182.3420  184.6230  137.5820 O   0  0  0  0  0  0  0  0  0  0  0  0
  1  4  1  0  0  0  0
  2  7  1  0  0  0  0
  3  2  1  0  0  0  0
  4  2  2  0  0  0  0
  5  3  2  0  0  0  0
  6  1  2  0  0  0  0
  6  5  1  0  0  0  0
  7  9  2  0  0  0  0
  7 10  1  0  0  0  0
  9 12  1  0  0  0  0
 10 11  2  0  0  0  0
 11  8  1  0  0  0  0
 12 15  1  0  0  0  0
 12  8  2  0  0  0  0
 13 17  1  0  0  0  0
 13 15  1  0  0  0  0
 14 16  1  0  0  0  0
 15 14  2  0  0  0  0
 17 18  2  0  0  0  0
 18 16  1  0  0  0  0
 20 19  1  0  0  0  0
 20 17  1  0  0  0  0
 21  1  1  0  0  0  0
 22 23  2  0  0  0  0
 22 21  1  0  0  0  0
 24 22  2  0  0  0  0
 26 22  1  0  0  0  0
 26 25  1  1  0  0  0
 27 31  1  1  0  0  0
 28 30  1  0  0  0  0
 28 29  1  0  0  0  0
 29 27  1  0  0  0  0
 30 26  1  6  0  0  0
 30 27  1  0  0  0  0
 31 32  2  0  0  0  0
 33  5  1  0  0  0  0
 34 40  1  0  0  0  0
 35 42  1  1  0  0  0
 35 41  1  0  0  0  0
 36 38  2  0  0  0  0
 37 34  1  0  0  0  0
 37 35  1  0  0  0  0
 38 39  1  0  0  0  0
 39 33  1  0  0  0  0
 40 41  1  0  0  0  0
 40 38  1  0  0  0  0
 42 44  1  0  0  0  0
 44 45  2  0  0  0  0
 44 43  2  0  0  0  0
M  END
>  <MODEL>
3

>  <REMARK>
 VINA RESULT:      -9.1      4.858      9.921
  Name = 
  12 active torsions:
  status: ('A' for Active; 'I' for Inactive)
    1  A    between atoms: C_2  and  C_6
    2  A    between atoms: S_3  and  N_9
    3  A    between atoms: S_3  and  C_38
    4  A    between atoms: C_4  and  C_12
    5  A    between atoms: C_8  and  N_9
    6  A    between atoms: C_10  and  O_18
    7  A    between atoms: C_17  and  C_26
    8  A    between atoms: C_17  and  N_36
    9  A    between atoms: O_18  and  P_19
   10  A    between atoms: O_27  and  C_41
   11  A    between atoms: C_33  and  C_37
   12  A    between atoms: C_38  and  C_45
                            x       y       z     vdW  Elec       q    Type
                         _______ _______ _______ _____ _____    ______ ____

>  <TORSDO>
F 12

$$$$
=
 OpenBabel10222418113D

 45 49  0  0  1  0  0  0  0  0999 V2000
  182.9540  176.4650  139.0480 C   0  0  0  0  0  0  0  0  0  0  0  0
  183.6810  178.0300  140.6640 C   0  0  0  0  0  0  0  0  0  0  0  0
  184.5260  178.6310  139.7770 C   0  0  0  0  0  3  0  0  0  0  0  0
  182.9240  176.9150  140.2880 C   0  0  0  0  0  3  0  0  0  0  0  0
  184.5700  178.1760  138.4870 C   0  0  0  0  0  0  0  0  0  0  0  0
  183.7920  177.0580  138.1740 C   0  0  0  0  0  3  0  0  0  0  0  0
  183.6350  178.4230  142.0960 C   0  0  0  0  0  0  0  0  0  0  0  0
  183.7920  178.8750  144.8750 N   0  0  0  0  0  0  0  0  0  0  0  0
  184.6800  178.1250  142.7660 N   0  0  0  0  0  0  0  0  0  0  0  0
  182.5670  179.0170  142.8240 C   0  0  0  0  0  3  0  0  0  0  0  0
  182.6320  179.2420  144.2330 C   0  0  0  0  0  3  0  0  0  0  0  0
  184.7970  178.3280  144.1300 C   0  0  0  0  0  0  0  0  0  0  0  0
  186.7890  178.0460  145.7330 C   0  0  0  0  0  3  0  0  0  0  0  0
  186.9380  177.1390  143.5850 C   0  0  0  0  0  3  0  0  0  0  0  0
  186.1550  177.8200  144.5180 C   0  0  0  0  0  0  0  0  0  0  0  0
  188.2460  176.7230  143.8220 N   0  0  0  0  0  0  0  0  0  0  0  0
  188.1860  177.5900  145.9680 C   0  0  0  0  0  0  0  0  0  0  0  0
  188.8320  176.9460  144.9810 N   0  0  0  0  0  0  0  0  0  0  0  0
  187.9460  178.1500  148.3110 C   0  0  0  0  0  1  0  0  0  0  0  0
  188.7850  177.8670  147.2050 O   0  0  0  0  0  0  0  0  0  0  0  0
  182.0690  175.4230  138.6130 N   0  0  0  0  0  2  0  0  0  0  0  0
  181.0080  175.2670  137.2240 S   0  0  0  0  0  0  0  0  0  0  0  0
  179.7070  174.7750  137.7230 O   0  0  0  0  0  0  0  0  0  0  0  0
  180.8270  176.5520  136.4580 O   0  0  0  0  0  0  0  0  0  0  0  0
  182.5480  174.6870  135.1690 N   0  0  0  0  0  1  0  0  0  0  0  0
  181.6950  174.0260  136.1310 C   0  0  1  0  0  3  0  0  0  0  0  0
  183.7170  172.5250  136.7390 C   0  0  1  0  0  3  0  0  0  0  0  0
  182.0290  171.5010  135.9770 C   0  0  0  0  0  2  0  0  0  0  0  0
  183.6990  170.8020  136.2900 S   0  0  0  0  0  0  0  0  0  0  0  0
  182.2480  172.7470  136.7750 C   0  0  2  0  0  3  0  0  0  0  0  0
  184.6710  173.0240  137.7380 C   0  0  0  0  0  3  0  0  0  0  0  0
  185.9000  173.4260  137.3990 C   0  0  0  0  0  2  0  0  0  0  0  0
  185.7910  178.3970  137.7140 C   0  0  0  0  0  2  0  0  0  0  0  0
  190.0600  176.2270  137.9770 C   0  0  0  0  0  2  0  0  0  0  0  0
  190.9860  176.9980  140.2200 C   0  0  2  0  0  3  0  0  0  0  0  0
  187.4560  176.5720  137.0380 O   0  0  0  0  0  0  0  0  0  0  0  0
  191.3240  176.3210  138.9150 C   0  0  0  0  0  2  0  0  0  0  0  0
  187.8210  177.2820  138.0360 C   0  0  0  0  0  0  0  0  0  0  0  0
  187.0200  178.3890  138.4590 N   0  0  0  0  0  2  0  0  0  0  0  0
  189.0720  176.9650  138.6430 N   0  0  0  0  0  0  0  0  0  0  0  0
  189.5920  177.5660  139.8870 C   0  0  0  0  0  2  0  0  0  0  0  0
  191.9760  177.6220  141.0520 O   0  0  0  0  0  0  0  0  0  0  0  0
  191.7950  176.2020  143.4080 O   0  0  0  0  0  0  0  0  0  0  0  0
  191.6010  177.5260  142.6940 P   0  0  0  0  0  0  0  0  0  0  0  0
  191.5490  178.7200  143.6720 O   0  0  0  0  0  0  0  0  0  0  0  0
  1  4  1  0  0  0  0
  2  7  1  0  0  0  0
  3  2  1  0  0  0  0
  4  2  2  0  0  0  0
  5  3  2  0  0  0  0
  6  5  1  0  0  0  0
  6  1  2  0  0  0  0
  7  9  2  0  0  0  0
  7 10  1  0  0  0  0
  9 12  1  0  0  0  0
 10 11  2  0  0  0  0
 11  8  1  0  0  0  0
 12 15  1  0  0  0  0
 12  8  2  0  0  0  0
 13 17  1  0  0  0  0
 14 16  2  0  0  0  0
 14 15  1  0  0  0  0
 15 13  2  0  0  0  0
 16 18  1  0  0  0  0
 17 20  1  0  0  0  0
 18 17  2  0  0  0  0
 20 19  1  0  0  0  0
 21  1  1  0  0  0  0
 22 23  2  0  0  0  0
 22 21  1  0  0  0  0
 24 22  2  0  0  0  0
 26 25  1  1  0  0  0
 26 22  1  0  0  0  0
 27 30  1  0  0  0  0
 27 31  1  1  0  0  0
 28 29  1  0  0  0  0
 28 30  1  0  0  0  0
 29 27  1  0  0  0  0
 30 26  1  6  0  0  0
 32 31  2  0  0  0  0
 33 39  1  0  0  0  0
 33  5  1  0  0  0  0
 34 40  1  0  0  0  0
 34 37  1  0  0  0  0
 35 42  1  6  0  0  0
 36 38  2  0  0  0  0
 37 35  1  0  0  0  0
 38 39  1  0  0  0  0
 38 40  1  0  0  0  0
 40 41  1  0  0  0  0
 41 35  1  0  0  0  0
 42 44  1  0  0  0  0
 44 43  2  0  0  0  0
 44 45  2  0  0  0  0
M  END
>  <MODEL>
4

>  <REMARK>
 VINA RESULT:      -9.0      4.182      6.312
  Name = 
  12 active torsions:
  status: ('A' for Active; 'I' for Inactive)
    1  A    between atoms: C_2  and  C_6
    2  A    between atoms: S_3  and  N_9
    3  A    between atoms: S_3  and  C_38
    4  A    between atoms: C_4  and  C_12
    5  A    between atoms: C_8  and  N_9
    6  A    between atoms: C_10  and  O_18
    7  A    between atoms: C_17  and  C_26
    8  A    between atoms: C_17  and  N_36
    9  A    between atoms: O_18  and  P_19
   10  A    between atoms: O_27  and  C_41
   11  A    between atoms: C_33  and  C_37
   12  A    between atoms: C_38  and  C_45
                            x       y       z     vdW  Elec       q    Type
                         _______ _______ _______ _____ _____    ______ ____

>  <TORSDO>
F 12

$$$$
=
 OpenBabel10222418113D

 45 49  0  0  1  0  0  0  0  0999 V2000
  182.9910  176.6670  139.2690 C   0  0  0  0  0  0  0  0  0  0  0  0
  183.7140  178.2050  140.9130 C   0  0  0  0  0  0  0  0  0  0  0  0
  184.5700  178.8120  140.0420 C   0  0  0  0  0  3  0  0  0  0  0  0
  182.9540  177.1000  140.5140 C   0  0  0  0  0  3  0  0  0  0  0  0
  184.6230  178.3760  138.7470 C   0  0  0  0  0  0  0  0  0  0  0  0
  183.8410  177.2670  138.4100 C   0  0  0  0  0  3  0  0  0  0  0  0
  183.6580  178.5780  142.3500 C   0  0  0  0  0  0  0  0  0  0  0  0
  183.7930  178.9900  145.1360 N   0  0  0  0  0  0  0  0  0  0  0  0
  184.6960  178.2640  143.0250 N   0  0  0  0  0  0  0  0  0  0  0  0
  182.5870  179.1670  143.0770 C   0  0  0  0  0  3  0  0  0  0  0  0
  182.6410  179.3720  144.4890 C   0  0  0  0  0  3  0  0  0  0  0  0
  184.8020  178.4470  144.3920 C   0  0  0  0  0  0  0  0  0  0  0  0
  186.8050  178.1830  145.9840 C   0  0  0  0  0  3  0  0  0  0  0  0
  186.9130  177.1960  143.8690 C   0  0  0  0  0  3  0  0  0  0  0  0
  186.1540  177.9260  144.7850 C   0  0  0  0  0  0  0  0  0  0  0  0
  188.2150  176.7620  144.1080 N   0  0  0  0  0  0  0  0  0  0  0  0
  188.1960  177.7080  146.2210 C   0  0  0  0  0  0  0  0  0  0  0  0
  188.8180  177.0160  145.2520 N   0  0  0  0  0  0  0  0  0  0  0  0
  188.0630  177.8650  148.6330 C   0  0  0  0  0  1  0  0  0  0  0  0
  188.8140  178.0170  147.4410 O   0  0  0  0  0  0  0  0  0  0  0  0
  182.1040  175.6380  138.8110 N   0  0  0  0  0  2  0  0  0  0  0  0
  180.8890  175.5910  137.5450 S   0  0  0  0  0  0  0  0  0  0  0  0
  181.6020  175.4090  136.2640 O   0  0  0  0  0  0  0  0  0  0  0  0
  179.8630  174.5040  137.7360 O   0  0  0  0  0  0  0  0  0  0  0  0
  179.4950  177.4310  138.8110 N   0  0  0  0  0  1  0  0  0  0  0  0
  180.0600  177.1780  137.5050 C   0  0  1  0  0  3  0  0  0  0  0  0
  180.6570  179.6970  137.4370 C   0  0  1  0  0  3  0  0  0  0  0  0
  180.1900  178.8290  135.5650 C   0  0  0  0  0  2  0  0  0  0  0  0
  180.4280  180.6150  135.9280 S   0  0  0  0  0  0  0  0  0  0  0  0
  180.8030  178.3450  136.8400 C   0  0  2  0  0  3  0  0  0  0  0  0
  181.4920  180.2380  138.5180 C   0  0  0  0  0  3  0  0  0  0  0  0
  181.9150  181.5060  138.5130 C   0  0  0  0  0  2  0  0  0  0  0  0
  185.8530  178.5990  137.9870 C   0  0  0  0  0  2  0  0  0  0  0  0
  190.2580  176.7070  137.9140 C   0  0  0  0  0  2  0  0  0  0  0  0
  191.1240  177.1150  140.2730 C   0  0  2  0  0  3  0  0  0  0  0  0
  187.6400  177.0430  137.0150 O   0  0  0  0  0  0  0  0  0  0  0  0
  191.5110  176.7110  138.8720 C   0  0  0  0  0  2  0  0  0  0  0  0
  187.9530  177.5810  138.1310 C   0  0  0  0  0  0  0  0  0  0  0  0
  187.0780  178.5370  138.7360 N   0  0  0  0  0  2  0  0  0  0  0  0
  189.2210  177.2440  138.6890 N   0  0  0  0  0  0  0  0  0  0  0  0
  189.6960  177.6410  140.0290 C   0  0  0  0  0  2  0  0  0  0  0  0
  192.0680  177.6410  141.2200 O   0  0  0  0  0  0  0  0  0  0  0  0
  191.5270  175.9820  143.3540 O   0  0  0  0  0  0  0  0  0  0  0  0
  191.5880  177.4000  142.8190 P   0  0  0  0  0  0  0  0  0  0  0  0
  191.6720  178.4510  143.9470 O   0  0  0  0  0  0  0  0  0  0  0  0
  1  4  1  0  0  0  0
  2  7  1  0  0  0  0
  3  2  1  0  0  0  0
  4  2  2  0  0  0  0
  5  3  2  0  0  0  0
  6  5  1  0  0  0  0
  6  1  2  0  0  0  0
  7  9  2  0  0  0  0
  7 10  1  0  0  0  0
  9 12  1  0  0  0  0
 10 11  2  0  0  0  0
 11  8  1  0  0  0  0
 12 15  1  0  0  0  0
 12  8  2  0  0  0  0
 13 17  1  0  0  0  0
 14 16  2  0  0  0  0
 14 15  1  0  0  0  0
 15 13  2  0  0  0  0
 16 18  1  0  0  0  0
 17 20  1  0  0  0  0
 18 17  2  0  0  0  0
 20 19  1  0  0  0  0
 21  1  1  0  0  0  0
 22 24  2  0  0  0  0
 22 21  1  0  0  0  0
 23 22  2  0  0  0  0
 26 22  1  0  0  0  0
 26 25  1  1  0  0  0
 27 31  1  6  0  0  0
 28 29  1  0  0  0  0
 28 30  1  0  0  0  0
 29 27  1  0  0  0  0
 30 27  1  0  0  0  0
 30 26  1  1  0  0  0
 32 31  2  0  0  0  0
 33 39  1  0  0  0  0
 33  5  1  0  0  0  0
 34 40  1  0  0  0  0
 34 37  1  0  0  0  0
 35 42  1  6  0  0  0
 36 38  2  0  0  0  0
 37 35  1  0  0  0  0
 38 40  1  0  0  0  0
 38 39  1  0  0  0  0
 40 41  1  0  0  0  0
 41 35  1  0  0  0  0
 42 44  1  0  0  0  0
 44 43  2  0  0  0  0
 44 45  2  0  0  0  0
M  END
>  <MODEL>
5

>  <REMARK>
 VINA RESULT:      -8.9      3.621      5.632
  Name = 
  12 active torsions:
  status: ('A' for Active; 'I' for Inactive)
    1  A    between atoms: C_2  and  C_6
    2  A    between atoms: S_3  and  N_9
    3  A    between atoms: S_3  and  C_38
    4  A    between atoms: C_4  and  C_12
    5  A    between atoms: C_8  and  N_9
    6  A    between atoms: C_10  and  O_18
    7  A    between atoms: C_17  and  C_26
    8  A    between atoms: C_17  and  N_36
    9  A    between atoms: O_18  and  P_19
   10  A    between atoms: O_27  and  C_41
   11  A    between atoms: C_33  and  C_37
   12  A    between atoms: C_38  and  C_45
                            x       y       z     vdW  Elec       q    Type
                         _______ _______ _______ _____ _____    ______ ____

>  <TORSDO>
F 12

$$$$
=
 OpenBabel10222418113D

 45 49  0  0  1  0  0  0  0  0999 V2000
  191.0040  177.0990  139.9800 C   0  0  0  0  0  0  0  0  0  0  0  0
  189.6280  177.2640  141.8950 C   0  0  0  0  0  0  0  0  0  0  0  0
  188.5400  177.6060  141.1470 C   0  0  0  0  0  3  0  0  0  0  0  0
  190.8720  177.0490  141.2910 C   0  0  0  0  0  3  0  0  0  0  0  0
  188.6590  177.6640  139.7860 C   0  0  0  0  0  0  0  0  0  0  0  0
  189.9280  177.4410  139.2430 C   0  0  0  0  0  3  0  0  0  0  0  0
  189.5900  177.2530  143.3800 C   0  0  0  0  0  0  0  0  0  0  0  0
  189.2300  177.4890  146.1670 N   0  0  0  0  0  0  0  0  0  0  0  0
  188.4530  177.5340  143.8880 N   0  0  0  0  0  0  0  0  0  0  0  0
  190.6560  177.0440  144.2980 C   0  0  0  0  0  3  0  0  0  0  0  0
  190.4880  177.1690  145.7110 C   0  0  0  0  0  3  0  0  0  0  0  0
  188.2340  177.6610  145.2490 C   0  0  0  0  0  0  0  0  0  0  0  0
  185.8830  178.2370  144.3790 C   0  0  0  0  0  2  0  0  0  0  0  0
  186.2680  178.2700  146.6830 C   0  0  0  0  0  3  0  0  0  0  0  0
  186.7860  178.0210  145.4120 C   0  0  0  0  0  0  0  0  0  0  0  0
  184.9670  178.7090  146.9220 N   0  0  0  0  0  2  0  0  0  0  0  0
  184.4960  178.7030  144.6550 C   0  0  0  0  0  0  0  0  0  0  0  0
  184.1240  178.9090  145.9300 N   0  0  0  0  0  0  0  0  0  0  0  0
  182.2370  178.8980  143.8070 C   0  0  0  0  0  1  0  0  0  0  0  0
  183.6340  178.9290  143.5720 O   0  0  0  0  0  0  0  0  0  0  0  0
  192.2340  176.7300  139.3410 N   0  0  0  0  0  2  0  0  0  0  0  0
  192.6230  176.2430  137.7000 S   0  0  0  0  0  0  0  0  0  0  0  0
  191.4620  176.5910  136.8560 O   0  0  0  0  0  0  0  0  0  0  0  0
  193.8760  176.8860  137.1630 O   0  0  0  0  0  0  0  0  0  0  0  0
  191.6660  173.8840  137.0290 N   0  0  0  0  0  1  0  0  0  0  0  0
  192.8220  174.4630  137.6760 C   0  0  1  0  0  3  0  0  0  0  0  0
  194.3100  172.4550  136.9950 C   0  0  1  0  0  3  0  0  0  0  0  0
  195.1880  173.8050  138.3680 C   0  0  0  0  0  2  0  0  0  0  0  0
  195.8450  172.1700  137.8490 S   0  0  0  0  0  0  0  0  0  0  0  0
  194.1920  173.9130  137.2570 C   0  0  2  0  0  3  0  0  0  0  0  0
  194.0420  171.8040  135.7050 C   0  0  0  0  0  3  0  0  0  0  0  0
  193.2840  170.7070  135.6140 C   0  0  0  0  0  2  0  0  0  0  0  0
  187.7410  178.5260  139.0430 C   0  0  0  0  0  2  0  0  0  0  0  0
  183.1810  177.7330  137.7890 C   0  0  0  0  0  2  0  0  0  0  0  0
  181.8470  178.8330  139.6580 C   0  0  2  0  0  3  0  0  0  0  0  0
  185.9210  177.9770  137.3270 O   0  0  0  0  0  0  0  0  0  0  0  0
  181.7710  177.9010  138.4740 C   0  0  0  0  0  2  0  0  0  0  0  0
  185.4820  178.3420  138.4710 C   0  0  0  0  0  0  0  0  0  0  0  0
  186.3950  178.5930  139.5420 N   0  0  0  0  0  2  0  0  0  0  0  0
  184.0670  178.4100  138.6380 N   0  0  0  0  0  0  0  0  0  0  0  0
  183.3740  178.9480  139.8250 C   0  0  0  0  0  2  0  0  0  0  0  0
  180.8780  178.8230  140.7180 O   0  0  0  0  0  0  0  0  0  0  0  0
  179.7390  180.8330  142.2230 O   0  0  0  0  0  0  0  0  0  0  0  0
  180.0360  180.2800  140.8430 P   0  0  0  0  0  0  0  0  0  0  0  0
  179.9550  181.3630  139.7450 O   0  0  0  0  0  0  0  0  0  0  0  0
  1  4  1  0  0  0  0
  2  7  1  0  0  0  0
  3  2  1  0  0  0  0
  4  2  2  0  0  0  0
  5  3  2  0  0  0  0
  6  5  1  0  0  0  0
  6  1  2  0  0  0  0
  7  9  2  0  0  0  0
  7 10  1  0  0  0  0
  9 12  1  0  0  0  0
 10 11  2  0  0  0  0
 11  8  1  0  0  0  0
 12 15  1  0  0  0  0
 12  8  2  0  0  0  0
 13 17  1  0  0  0  0
 13 15  1  0  0  0  0
 14 16  1  0  0  0  0
 15 14  2  0  0  0  0
 17 18  2  0  0  0  0
 18 16  1  0  0  0  0
 20 19  1  0  0  0  0
 20 17  1  0  0  0  0
 21  1  1  0  0  0  0
 22 21  1  0  0  0  0
 23 22  2  0  0  0  0
 24 22  2  0  0  0  0
 26 25  1  6  0  0  0
 26 22  1  0  0  0  0
 27 31  1  6  0  0  0
 27 30  1  0  0  0  0
 27 29  1  0  0  0  0
 29 28  1  0  0  0  0
 30 26  1  1  0  0  0
 30 28  1  0  0  0  0
 32 31  2  0  0  0  0
 33 39  1  0  0  0  0
 33  5  1  0  0  0  0
 34 37  1  0  0  0  0
 34 40  1  0  0  0  0
 35 41  1  0  0  0  0
 35 42  1  1  0  0  0
 36 38  2  0  0  0  0
 37 35  1  0  0  0  0
 38 40  1  0  0  0  0
 38 39  1  0  0  0  0
 40 41  1  0  0  0  0
 42 44  1  0  0  0  0
 44 43  2  0  0  0  0
 45 44  2  0  0  0  0
M  END
>  <MODEL>
6

>  <REMARK>
 VINA RESULT:      -8.9      4.198      9.886
  Name = 
  12 active torsions:
  status: ('A' for Active; 'I' for Inactive)
    1  A    between atoms: C_2  and  C_6
    2  A    between atoms: S_3  and  N_9
    3  A    between atoms: S_3  and  C_38
    4  A    between atoms: C_4  and  C_12
    5  A    between atoms: C_8  and  N_9
    6  A    between atoms: C_10  and  O_18
    7  A    between atoms: C_17  and  C_26
    8  A    between atoms: C_17  and  N_36
    9  A    between atoms: O_18  and  P_19
   10  A    between atoms: O_27  and  C_41
   11  A    between atoms: C_33  and  C_37
   12  A    between atoms: C_38  and  C_45
                            x       y       z     vdW  Elec       q    Type
                         _______ _______ _______ _____ _____    ______ ____

>  <TORSDO>
F 12

$$$$
=
 OpenBabel10222418113D

 45 49  0  0  1  0  0  0  0  0999 V2000
  182.3220  178.5650  141.1150 C   0  0  0  0  0  0  0  0  0  0  0  0
  184.3100  178.6980  142.3870 C   0  0  0  0  0  0  0  0  0  0  0  0
  185.0660  178.9330  141.2760 C   0  0  0  0  0  3  0  0  0  0  0  0
  182.9320  178.4770  142.2810 C   0  0  0  0  0  3  0  0  0  0  0  0
  184.4490  179.0260  140.0580 C   0  0  0  0  0  0  0  0  0  0  0  0
  183.0710  178.7930  140.0170 C   0  0  0  0  0  3  0  0  0  0  0  0
  184.9200  178.5130  143.7280 C   0  0  0  0  0  0  0  0  0  0  0  0
  186.2890  177.8810  146.1110 N   0  0  0  0  0  0  0  0  0  0  0  0
  186.1080  178.0440  143.7160 N   0  0  0  0  0  0  0  0  0  0  0  0
  184.3380  178.7200  145.0090 C   0  0  0  0  0  3  0  0  0  0  0  0
  185.0180  178.3950  146.2230 C   0  0  0  0  0  3  0  0  0  0  0  0
  186.8130  177.7190  144.8610 C   0  0  0  0  0  0  0  0  0  0  0  0
  189.2950  177.1180  145.1690 C   0  0  0  0  0  3  0  0  0  0  0  0
  188.3110  176.7920  143.0750 C   0  0  0  0  0  3  0  0  0  0  0  0
  188.1380  177.1830  144.4030 C   0  0  0  0  0  0  0  0  0  0  0  0
  189.5290  176.3810  142.5360 N   0  0  0  0  0  0  0  0  0  0  0  0
  190.5860  176.6740  144.5750 C   0  0  0  0  0  0  0  0  0  0  0  0
  190.6170  176.3270  143.2770 N   0  0  0  0  0  0  0  0  0  0  0  0
  191.5540  176.5580  146.7910 C   0  0  0  0  0  1  0  0  0  0  0  0
  191.7280  176.6510  145.3890 O   0  0  0  0  0  0  0  0  0  0  0  0
  180.8930  178.4940  141.0160 N   0  0  0  0  0  2  0  0  0  0  0  0
  179.8010  177.2520  140.4270 S   0  0  0  0  0  0  0  0  0  0  0  0
  178.9310  176.8650  141.5560 O   0  0  0  0  0  0  0  0  0  0  0  0
  178.9710  177.6900  139.2480 O   0  0  0  0  0  0  0  0  0  0  0  0
  179.9900  174.6360  140.1890 N   0  0  0  0  0  1  0  0  0  0  0  0
  180.7770  175.8260  139.9560 C   0  0  1  0  0  3  0  0  0  0  0  0
  181.2230  174.8820  137.5860 C   0  0  1  0  0  3  0  0  0  0  0  0
  182.9510  175.4220  138.6820 C   0  0  0  0  0  2  0  0  0  0  0  0
  182.8920  174.5150  137.0850 S   0  0  0  0  0  0  0  0  0  0  0  0
  181.5340  175.8990  138.6220 C   0  0  2  0  0  3  0  0  0  0  0  0
  180.1530  174.9950  136.5850 C   0  0  0  0  0  3  0  0  0  0  0  0
  179.2160  174.0510  136.4470 C   0  0  0  0  0  2  0  0  0  0  0  0
  185.2280  178.7210  138.8590 C   0  0  0  0  0  2  0  0  0  0  0  0
  189.0440  176.6270  136.8460 C   0  0  0  0  0  2  0  0  0  0  0  0
  190.7680  176.5970  138.7200 C   0  0  2  0  0  3  0  0  0  0  0  0
  186.3350  177.2490  137.0790 O   0  0  0  0  0  0  0  0  0  0  0  0
  190.5550  176.4060  137.2390 C   0  0  0  0  0  2  0  0  0  0  0  0
  187.1010  177.5800  138.0480 C   0  0  0  0  0  0  0  0  0  0  0  0
  186.6290  178.4700  139.0630 N   0  0  0  0  0  2  0  0  0  0  0  0
  188.4390  177.0860  138.0240 N   0  0  0  0  0  0  0  0  0  0  0  0
  189.4210  177.2330  139.1160 C   0  0  0  0  0  2  0  0  0  0  0  0
  192.0490  176.9090  139.2890 O   0  0  0  0  0  0  0  0  0  0  0  0
  193.6820  177.1270  137.0780 O   0  0  0  0  0  0  0  0  0  0  0  0
  193.3320  176.3620  138.3400 P   0  0  0  0  0  0  0  0  0  0  0  0
  194.4990  175.4790  138.8350 O   0  0  0  0  0  0  0  0  0  0  0  0
  1  4  1  0  0  0  0
  2  7  1  0  0  0  0
  3  2  1  0  0  0  0
  4  2  2  0  0  0  0
  5  3  2  0  0  0  0
  6  5  1  0  0  0  0
  6  1  2  0  0  0  0
  7 10  1  0  0  0  0
  8 11  1  0  0  0  0
  9  7  2  0  0  0  0
  9 12  1  0  0  0  0
 10 11  2  0  0  0  0
 12  8  2  0  0  0  0
 14 15  1  0  0  0  0
 15 12  1  0  0  0  0
 15 13  2  0  0  0  0
 16 14  2  0  0  0  0
 16 18  1  0  0  0  0
 17 13  1  0  0  0  0
 17 20  1  0  0  0  0
 18 17  2  0  0  0  0
 20 19  1  0  0  0  0
 21  1  1  0  0  0  0
 22 21  1  0  0  0  0
 22 23  2  0  0  0  0
 24 22  2  0  0  0  0
 26 25  1  6  0  0  0
 26 22  1  0  0  0  0
 27 31  1  6  0  0  0
 27 30  1  0  0  0  0
 29 27  1  0  0  0  0
 29 28  1  0  0  0  0
 30 28  1  0  0  0  0
 30 26  1  1  0  0  0
 32 31  2  0  0  0  0
 33 39  1  0  0  0  0
 33  5  1  0  0  0  0
 34 37  1  0  0  0  0
 34 40  1  0  0  0  0
 35 41  1  0  0  0  0
 35 42  1  6  0  0  0
 36 38  2  0  0  0  0
 37 35  1  0  0  0  0
 38 39  1  0  0  0  0
 40 38  1  0  0  0  0
 40 41  1  0  0  0  0
 43 44  2  0  0  0  0
 44 45  2  0  0  0  0
 44 42  1  0  0  0  0
M  END
>  <MODEL>
7

>  <REMARK>
 VINA RESULT:      -8.9      3.130      5.453
  Name = 
  12 active torsions:
  status: ('A' for Active; 'I' for Inactive)
    1  A    between atoms: C_2  and  C_6
    2  A    between atoms: S_3  and  N_9
    3  A    between atoms: S_3  and  C_38
    4  A    between atoms: C_4  and  C_12
    5  A    between atoms: C_8  and  N_9
    6  A    between atoms: C_10  and  O_18
    7  A    between atoms: C_17  and  C_26
    8  A    between atoms: C_17  and  N_36
    9  A    between atoms: O_18  and  P_19
   10  A    between atoms: O_27  and  C_41
   11  A    between atoms: C_33  and  C_37
   12  A    between atoms: C_38  and  C_45
                            x       y       z     vdW  Elec       q    Type
                         _______ _______ _______ _____ _____    ______ ____

>  <TORSDO>
F 12

$$$$
=
 OpenBabel10222418113D

 45 49  0  0  1  0  0  0  0  0999 V2000
  190.4600  177.2050  139.9850 C   0  0  0  0  0  0  0  0  0  0  0  0
  189.8640  177.0580  142.2680 C   0  0  0  0  0  0  0  0  0  0  0  0
  188.6410  177.6150  142.0380 C   0  0  0  0  0  3  0  0  0  0  0  0
  190.7830  176.8940  141.2260 C   0  0  0  0  0  3  0  0  0  0  0  0
  188.2890  177.9450  140.7570 C   0  0  0  0  0  0  0  0  0  0  0  0
  189.2520  177.7590  139.7600 C   0  0  0  0  0  3  0  0  0  0  0  0
  190.3390  176.7450  143.6410 C   0  0  0  0  0  0  0  0  0  0  0  0
  191.0290  176.4510  146.3590 N   0  0  0  0  0  0  0  0  0  0  0  0
  189.5460  177.1010  144.5760 N   0  0  0  0  0  0  0  0  0  0  0  0
  191.5760  176.1710  144.0460 C   0  0  0  0  0  3  0  0  0  0  0  0
  191.9390  176.0250  145.4200 C   0  0  0  0  0  3  0  0  0  0  0  0
  189.8470  176.9770  145.9210 C   0  0  0  0  0  0  0  0  0  0  0  0
  187.4450  177.8770  146.1140 C   0  0  0  0  0  2  0  0  0  0  0  0
  188.7920  177.8480  148.0240 C   0  0  0  0  0  3  0  0  0  0  0  0
  188.6710  177.5340  146.6690 C   0  0  0  0  0  0  0  0  0  0  0  0
  187.7900  178.4630  148.7720 N   0  0  0  0  0  2  0  0  0  0  0  0
  186.3870  178.5310  146.9320 C   0  0  0  0  0  0  0  0  0  0  0  0
  186.6330  178.7820  148.2290 N   0  0  0  0  0  0  0  0  0  0  0  0
  185.1440  178.9620  144.9000 C   0  0  0  0  0  1  0  0  0  0  0  0
  185.1770  178.8780  146.3140 O   0  0  0  0  0  0  0  0  0  0  0  0
  191.3340  176.8980  138.8900 N   0  0  0  0  0  2  0  0  0  0  0  0
  191.1580  175.8650  137.4820 S   0  0  0  0  0  0  0  0  0  0  0  0
  190.4960  174.6240  137.9320 O   0  0  0  0  0  0  0  0  0  0  0  0
  190.3780  176.5020  136.3610 O   0  0  0  0  0  0  0  0  0  0  0  0
  193.7410  176.3750  137.4590 N   0  0  0  0  0  1  0  0  0  0  0  0
  192.7950  175.4430  136.8890 C   0  0  1  0  0  3  0  0  0  0  0  0
  194.6000  173.6180  137.2380 C   0  0  1  0  0  3  0  0  0  0  0  0
  193.3430  173.3360  135.5590 C   0  0  0  0  0  2  0  0  0  0  0  0
  194.8590  172.3860  135.9790 S   0  0  0  0  0  0  0  0  0  0  0  0
  193.1920  173.9600  136.9090 C   0  0  2  0  0  3  0  0  0  0  0  0
  195.1270  173.4190  138.5940 C   0  0  0  0  0  3  0  0  0  0  0  0
  196.1570  174.1320  139.0610 C   0  0  0  0  0  2  0  0  0  0  0  0
  187.2950  178.9980  140.5570 C   0  0  0  0  0  2  0  0  0  0  0  0
  183.0290  178.0500  138.5810 C   0  0  0  0  0  2  0  0  0  0  0  0
  181.4260  178.1170  140.5580 C   0  0  2  0  0  3  0  0  0  0  0  0
  185.6930  178.8790  138.5630 O   0  0  0  0  0  0  0  0  0  0  0  0
  181.5820  177.7170  139.1120 C   0  0  0  0  0  2  0  0  0  0  0  0
  185.1400  178.6980  139.7010 C   0  0  0  0  0  0  0  0  0  0  0  0
  185.9380  178.6550  140.8870 N   0  0  0  0  0  2  0  0  0  0  0  0
  183.7310  178.4750  139.7170 N   0  0  0  0  0  0  0  0  0  0  0  0
  182.8950  178.3950  140.9310 C   0  0  0  0  0  2  0  0  0  0  0  0
  180.4280  177.5470  141.4200 O   0  0  0  0  0  0  0  0  0  0  0  0
  179.6810  177.9140  144.0480 O   0  0  0  0  0  0  0  0  0  0  0  0
  180.0420  178.5500  142.7200 P   0  0  0  0  0  0  0  0  0  0  0  0
  180.4770  180.0240  142.8730 O   0  0  0  0  0  0  0  0  0  0  0  0
  1  4  1  0  0  0  0
  2  7  1  0  0  0  0
  3  2  1  0  0  0  0
  4  2  2  0  0  0  0
  5  3  2  0  0  0  0
  6  1  2  0  0  0  0
  6  5  1  0  0  0  0
  7 10  1  0  0  0  0
  7  9  2  0  0  0  0
  9 12  1  0  0  0  0
 10 11  2  0  0  0  0
 11  8  1  0  0  0  0
 12  8  2  0  0  0  0
 12 15  1  0  0  0  0
 13 15  1  0  0  0  0
 13 17  1  0  0  0  0
 14 16  1  0  0  0  0
 15 14  2  0  0  0  0
 17 18  2  0  0  0  0
 18 16  1  0  0  0  0
 19 20  1  0  0  0  0
 20 17  1  0  0  0  0
 21  1  1  0  0  0  0
 22 23  2  0  0  0  0
 22 21  1  0  0  0  0
 24 22  2  0  0  0  0
 26 25  1  1  0  0  0
 26 22  1  0  0  0  0
 27 31  1  1  0  0  0
 28 29  1  0  0  0  0
 28 30  1  0  0  0  0
 29 27  1  0  0  0  0
 30 26  1  6  0  0  0
 30 27  1  0  0  0  0
 31 32  2  0  0  0  0
 33  5  1  0  0  0  0
 33 39  1  0  0  0  0
 34 37  1  0  0  0  0
 34 40  1  0  0  0  0
 35 41  1  0  0  0  0
 35 42  1  1  0  0  0
 36 38  2  0  0  0  0
 37 35  1  0  0  0  0
 38 40  1  0  0  0  0
 38 39  1  0  0  0  0
 40 41  1  0  0  0  0
 42 44  1  0  0  0  0
 44 45  2  0  0  0  0
 44 43  2  0  0  0  0
M  END
>  <MODEL>
8

>  <REMARK>
 VINA RESULT:      -8.6      4.186      9.699
  Name = 
  12 active torsions:
  status: ('A' for Active; 'I' for Inactive)
    1  A    between atoms: C_2  and  C_6
    2  A    between atoms: S_3  and  N_9
    3  A    between atoms: S_3  and  C_38
    4  A    between atoms: C_4  and  C_12
    5  A    between atoms: C_8  and  N_9
    6  A    between atoms: C_10  and  O_18
    7  A    between atoms: C_17  and  C_26
    8  A    between atoms: C_17  and  N_36
    9  A    between atoms: O_18  and  P_19
   10  A    between atoms: O_27  and  C_41
   11  A    between atoms: C_33  and  C_37
   12  A    between atoms: C_38  and  C_45
                            x       y       z     vdW  Elec       q    Type
                         _______ _______ _______ _____ _____    ______ ____

>  <TORSDO>
F 12

$$$$
=
 OpenBabel10222418113D

 45 49  0  0  1  0  0  0  0  0999 V2000
  182.4510  179.0340  140.7530 C   0  0  0  0  0  0  0  0  0  0  0  0
  184.6780  178.4360  140.2320 C   0  0  0  0  0  0  0  0  0  0  0  0
  184.9910  178.2520  141.5470 C   0  0  0  0  0  3  0  0  0  0  0  0
  183.4020  178.8680  139.8540 C   0  0  0  0  0  3  0  0  0  0  0  0
  184.0180  178.4220  142.4930 C   0  0  0  0  0  0  0  0  0  0  0  0
  182.7640  178.8550  142.0530 C   0  0  0  0  0  3  0  0  0  0  0  0
  185.7020  178.3410  139.1600 C   0  0  0  0  0  0  0  0  0  0  0  0
  187.8940  178.2950  137.3860 N   0  0  0  0  0  0  0  0  0  0  0  0
  186.8960  178.1600  139.5740 N   0  0  0  0  0  0  0  0  0  0  0  0
  185.5380  178.4940  137.7550 C   0  0  0  0  0  3  0  0  0  0  0  0
  186.6420  178.4810  136.8480 C   0  0  0  0  0  3  0  0  0  0  0  0
  187.9990  178.1330  138.7380 C   0  0  0  0  0  0  0  0  0  0  0  0
  190.4880  177.6690  139.1900 C   0  0  0  0  0  2  0  0  0  0  0  0
  189.0370  177.8830  141.0090 C   0  0  0  0  0  3  0  0  0  0  0  0
  189.1940  177.9270  139.6230 C   0  0  0  0  0  0  0  0  0  0  0  0
  190.0680  177.5950  141.9000 N   0  0  0  0  0  2  0  0  0  0  0  0
  191.5760  177.3660  140.1600 C   0  0  0  0  0  0  0  0  0  0  0  0
  191.2900  177.3510  141.4720 N   0  0  0  0  0  0  0  0  0  0  0  0
  192.9750  176.5400  138.3640 C   0  0  0  0  0  1  0  0  0  0  0  0
  192.8590  177.0880  139.6650 O   0  0  0  0  0  0  0  0  0  0  0  0
  181.1020  179.3250  140.3640 N   0  0  0  0  0  2  0  0  0  0  0  0
  180.2150  179.0750  138.8710 S   0  0  0  0  0  0  0  0  0  0  0  0
  181.1150  178.3600  137.9430 O   0  0  0  0  0  0  0  0  0  0  0  0
  178.9310  178.3060  139.0550 O   0  0  0  0  0  0  0  0  0  0  0  0
  179.6340  181.6150  139.2470 N   0  0  0  0  0  1  0  0  0  0  0  0
  179.8400  180.6780  138.1660 C   0  0  1  0  0  3  0  0  0  0  0  0
  180.5320  182.5490  136.5130 C   0  0  1  0  0  3  0  0  0  0  0  0
  180.3150  180.6240  135.6600 C   0  0  0  0  0  2  0  0  0  0  0  0
  180.5630  182.2100  134.7650 S   0  0  0  0  0  0  0  0  0  0  0  0
  180.7150  181.1570  136.9990 C   0  0  2  0  0  3  0  0  0  0  0  0
  181.2170  183.7300  137.0550 C   0  0  0  0  0  3  0  0  0  0  0  0
  181.0910  184.9360  136.4930 C   0  0  0  0  0  2  0  0  0  0  0  0
  184.4230  178.7750  143.8530 C   0  0  0  0  0  2  0  0  0  0  0  0
  187.1200  178.1480  147.7680 C   0  0  0  0  0  2  0  0  0  0  0  0
  189.3920  177.4840  146.8300 C   0  0  2  0  0  3  0  0  0  0  0  0
  184.9470  179.1460  146.3320 O   0  0  0  0  0  0  0  0  0  0  0  0
  188.5490  177.5570  148.0780 C   0  0  0  0  0  2  0  0  0  0  0  0
  185.8850  178.5850  145.6680 C   0  0  0  0  0  0  0  0  0  0  0  0
  185.6840  178.2440  144.2930 N   0  0  0  0  0  2  0  0  0  0  0  0
  187.0810  178.2580  146.3710 N   0  0  0  0  0  0  0  0  0  0  0  0
  188.3210  177.7480  145.7530 C   0  0  0  0  0  2  0  0  0  0  0  0
  190.5190  176.6020  146.7020 O   0  0  0  0  0  0  0  0  0  0  0  0
  191.8100  178.1160  144.7940 O   0  0  0  0  0  0  0  0  0  0  0  0
  191.2960  176.7520  145.2120 P   0  0  0  0  0  0  0  0  0  0  0  0
  191.9800  175.6030  144.4400 O   0  0  0  0  0  0  0  0  0  0  0  0
  1  6  1  0  0  0  0
  2  3  2  0  0  0  0
  3  5  1  0  0  0  0
  4  2  1  0  0  0  0
  4  1  2  0  0  0  0
  5 33  1  0  0  0  0
  6  5  2  0  0  0  0
  7  9  2  0  0  0  0
  7  2  1  0  0  0  0
  8 12  2  0  0  0  0
 10  7  1  0  0  0  0
 11  8  1  0  0  0  0
 11 10  2  0  0  0  0
 12  9  1  0  0  0  0
 12 15  1  0  0  0  0
 13 15  1  0  0  0  0
 13 17  1  0  0  0  0
 14 16  1  0  0  0  0
 15 14  2  0  0  0  0
 17 18  2  0  0  0  0
 18 16  1  0  0  0  0
 19 20  1  0  0  0  0
 20 17  1  0  0  0  0
 21  1  1  0  0  0  0
 22 24  2  0  0  0  0
 22 21  1  0  0  0  0
 23 22  2  0  0  0  0
 26 22  1  0  0  0  0
 26 25  1  1  0  0  0
 27 30  1  0  0  0  0
 27 31  1  6  0  0  0
 28 30  1  0  0  0  0
 29 28  1  0  0  0  0
 29 27  1  0  0  0  0
 30 26  1  1  0  0  0
 32 31  2  0  0  0  0
 33 39  1  0  0  0  0
 34 37  1  0  0  0  0
 35 42  1  6  0  0  0
 35 37  1  0  0  0  0
 38 36  2  0  0  0  0
 38 40  1  0  0  0  0
 39 38  1  0  0  0  0
 40 34  1  0  0  0  0
 41 40  1  0  0  0  0
 41 35  1  0  0  0  0
 43 44  2  0  0  0  0
 44 42  1  0  0  0  0
 45 44  2  0  0  0  0
M  END
>  <MODEL>
9

>  <REMARK>
 VINA RESULT:      -8.6      3.807      8.238
  Name = 
  12 active torsions:
  status: ('A' for Active; 'I' for Inactive)
    1  A    between atoms: C_2  and  C_6
    2  A    between atoms: S_3  and  N_9
    3  A    between atoms: S_3  and  C_38
    4  A    between atoms: C_4  and  C_12
    5  A    between atoms: C_8  and  N_9
    6  A    between atoms: C_10  and  O_18
    7  A    between atoms: C_17  and  C_26
    8  A    between atoms: C_17  and  N_36
    9  A    between atoms: O_18  and  P_19
   10  A    between atoms: O_27  and  C_41
   11  A    between atoms: C_33  and  C_37
   12  A    between atoms: C_38  and  C_45
                            x       y       z     vdW  Elec       q    Type
                         _______ _______ _______ _____ _____    ______ ____

>  <TORSDO>
F 12

$$$$
