=
 OpenBabel10222420363D

 41 45  0  0  1  0  0  0  0  0999 V2000
  187.8670  177.1020  137.6610 C   0  0  0  0  0  0  0  0  0  0  0  0
  189.0790  176.9210  139.7850 C   0  0  0  0  0  0  0  0  0  0  0  0
  189.6600  177.2930  135.9240 C   0  0  0  0  0  2  0  0  0  0  0  0
  188.6660  178.2070  135.1860 C   0  0  0  0  0  2  0  0  0  0  0  0
  189.9860  175.7470  137.8780 C   0  0  0  0  0  0  0  0  0  0  0  0
  185.5420  176.7230  136.8510 C   0  0  0  0  0  1  0  0  0  0  0  0
  188.9910  176.3810  136.9600 C   0  0  0  0  0  0  0  0  0  0  0  0
  189.3830  177.2750  141.0520 C   0  0  2  0  0  3  0  0  0  0  0  0
  186.7650  177.6180  136.7550 C   0  0  2  0  0  3  0  0  0  0  0  0
  187.4900  178.8380  141.7510 C   0  0  0  0  0  3  0  0  0  0  0  0
  186.3800  178.5850  134.5940 O   0  0  0  0  0  1  0  0  0  0  0  0
  187.9040  177.3930  138.9850 C   0  0  0  0  0  0  0  0  0  0  0  0
  187.2190  177.7140  135.2900 C   0  0  1  0  0  3  0  0  0  0  0  0
  188.6830  178.2780  141.8790 C   0  0  0  0  0  3  0  0  0  0  0  0
  186.7020  178.0370  139.5470 C   0  0  0  0  0  3  0  0  0  0  0  0
  186.4880  178.6210  140.7190 C   0  0  0  0  0  0  0  0  0  0  0  0
  190.9440  174.8350  137.3530 N   0  0  0  0  0  1  0  0  0  0  0  0
  190.0020  176.0240  139.1430 N   0  0  0  0  0  0  0  0  0  0  0  0
  190.5520  176.6790  141.6370 N   0  0  0  0  0  2  0  0  0  0  0  0
  191.7310  176.2070  143.7230 C   0  0  1  0  0  3  0  0  0  0  0  0
  189.2880  176.1200  143.6200 C   0  0  0  0  0  2  0  0  0  0  0  0
  192.2360  175.0520  144.3210 O   0  0  0  0  0  1  0  0  0  0  0  0
  190.5490  175.8360  142.8260 C   0  0  1  0  0  3  0  0  0  0  0  0
  189.7340  177.0020  144.7270 C   0  0  0  0  0  0  0  0  0  0  0  0
  188.9150  177.5700  145.6170 C   0  0  0  0  0  3  0  0  0  0  0  0
  191.2090  177.1440  144.8000 C   0  0  2  0  0  3  0  0  0  0  0  0
  191.6210  178.5700  144.4720 C   0  0  0  0  0  1  0  0  0  0  0  0
  187.4460  177.4670  145.5710 C   0  0  0  0  0  3  0  0  0  0  0  0
  186.5840  177.9470  146.4790 C   0  0  0  0  0  3  0  0  0  0  0  0
  187.7700  178.1010  148.6510 C   0  0  0  0  0  2  0  0  0  0  0  0
  186.8910  178.5790  147.7780 C   0  0  0  0  0  3  0  0  0  0  0  0
  185.1370  179.2070  140.9650 C   0  0  0  0  0  2  0  0  0  0  0  0
  183.1250  177.8910  140.5990 N   0  0  0  0  0  0  0  0  0  0  0  0
  184.1790  178.1810  141.5650 C   0  0  2  0  0  3  0  0  0  0  0  0
  181.9810  178.2240  141.0460 N   0  0  0  0  0  0  0  0  0  0  0  0
  182.1180  178.7660  142.3490 C   0  0  0  0  0  0  0  0  0  0  0  0
  183.3970  178.7610  142.7010 C   0  0  0  0  0  0  0  0  0  0  0  0
  183.9610  179.1760  144.0200 C   0  0  0  0  0  1  0  0  0  0  0  0
  180.5470  178.5340  144.1250 O   0  0  0  0  0  0  0  0  0  0  0  0
  180.9690  179.2180  143.1550 C   0  0  0  0  0  0  0  0  0  0  0  0
  180.3180  180.4420  142.8310 N   0  0  0  0  0  1  0  0  0  0  0  0
  1 12  1  0  0  0  0
  2  8  1  0  0  0  0
  3  7  1  0  0  0  0
  4 13  1  0  0  0  0
  4  3  1  0  0  0  0
  5 18  2  0  0  0  0
  7  1  2  0  0  0  0
  7  5  1  0  0  0  0
  8 19  1  6  0  0  0
  8 14  1  0  0  0  0
  9  6  1  6  0  0  0
  9  1  1  0  0  0  0
 10 14  2  0  0  0  0
 12 15  1  0  0  0  0
 12  2  2  0  0  0  0
 13 11  1  6  0  0  0
 13  9  1  0  0  0  0
 15 16  2  0  0  0  0
 16 32  1  0  0  0  0
 16 10  1  0  0  0  0
 17  5  1  0  0  0  0
 18  2  1  0  0  0  0
 20 22  1  1  0  0  0
 20 26  1  0  0  0  0
 21 24  1  0  0  0  0
 23 19  1  6  0  0  0
 23 21  1  0  0  0  0
 23 20  1  0  0  0  0
 24 26  1  0  0  0  0
 24 25  2  0  0  0  0
 26 27  1  6  0  0  0
 28 25  1  0  0  0  0
 28 29  2  0  0  0  0
 29 31  1  0  0  0  0
 31 30  2  0  0  0  0
 33 35  2  0  0  0  0
 33 34  1  0  0  0  0
 34 32  1  6  0  0  0
 34 37  1  0  0  0  0
 35 36  1  0  0  0  0
 36 37  2  0  0  0  0
 36 40  1  0  0  0  0
 37 38  1  0  0  0  0
 40 39  2  0  0  0  0
 41 40  1  0  0  0  0
M  END
>  <MODEL>
1

>  <REMARK>
 VINA RESULT:     -10.0      0.000      0.000
  Name = 
  7 active torsions:
  status: ('A' for Active; 'I' for Inactive)
    1  A    between atoms: C_10  and  C_25
    2  A    between atoms: C_12  and  C_17
    3  A    between atoms: C_16  and  N_21
    4  A    between atoms: N_21  and  C_23
    5  A    between atoms: C_25  and  C_37
    6  A    between atoms: C_32  and  C_35
    7  A    between atoms: C_34  and  C_38
                            x       y       z     vdW  Elec       q    Type
                         _______ _______ _______ _____ _____    ______ ____

>  <TORSDO>
F 7

$$$$
=
 OpenBabel10222420363D

 41 45  0  0  1  0  0  0  0  0999 V2000
  187.9890  176.9390  137.8210 C   0  0  0  0  0  0  0  0  0  0  0  0
  189.1220  176.9890  139.9960 C   0  0  0  0  0  0  0  0  0  0  0  0
  189.8400  177.0910  136.1410 C   0  0  0  0  0  2  0  0  0  0  0  0
  188.8300  177.8890  135.2970 C   0  0  0  0  0  2  0  0  0  0  0  0
  190.1640  175.7220  138.2240 C   0  0  0  0  0  0  0  0  0  0  0  0
  185.7210  176.3740  136.9610 C   0  0  0  0  0  1  0  0  0  0  0  0
  189.1750  176.2280  137.2220 C   0  0  0  0  0  0  0  0  0  0  0  0
  189.3560  177.4570  141.2410 C   0  0  2  0  0  3  0  0  0  0  0  0
  186.9000  177.3230  136.8380 C   0  0  2  0  0  3  0  0  0  0  0  0
  187.3590  178.9650  141.7440 C   0  0  0  0  0  3  0  0  0  0  0  0
  186.5550  178.0960  134.5940 O   0  0  0  0  0  1  0  0  0  0  0  0
  187.9580  177.3340  139.1180 C   0  0  0  0  0  0  0  0  0  0  0  0
  187.4070  177.3290  135.3880 C   0  0  1  0  0  3  0  0  0  0  0  0
  188.5730  178.4820  141.9590 C   0  0  0  0  0  3  0  0  0  0  0  0
  186.7020  177.9540  139.5840 C   0  0  0  0  0  3  0  0  0  0  0  0
  186.4120  178.6150  140.6960 C   0  0  0  0  0  0  0  0  0  0  0  0
  191.1880  174.8240  137.8080 N   0  0  0  0  0  1  0  0  0  0  0  0
  190.1140  176.0970  139.4620 N   0  0  0  0  0  0  0  0  0  0  0  0
  190.5290  176.9730  141.9140 N   0  0  0  0  0  2  0  0  0  0  0  0
  191.4050  176.8220  144.1880 C   0  0  1  0  0  3  0  0  0  0  0  0
  189.1070  176.1480  143.6870 C   0  0  0  0  0  2  0  0  0  0  0  0
  192.0560  175.8290  144.9220 O   0  0  0  0  0  1  0  0  0  0  0  0
  190.5180  176.1670  143.1280 C   0  0  1  0  0  3  0  0  0  0  0  0
  189.1340  177.1250  144.8050 C   0  0  0  0  0  0  0  0  0  0  0  0
  188.0640  177.4890  145.5150 C   0  0  0  0  0  3  0  0  0  0  0  0
  190.4990  177.6180  145.1130 C   0  0  2  0  0  3  0  0  0  0  0  0
  190.6150  179.0970  144.7840 C   0  0  0  0  0  1  0  0  0  0  0  0
  186.6900  177.0360  145.2310 C   0  0  0  0  0  3  0  0  0  0  0  0
  185.6330  177.8150  144.9590 C   0  0  0  0  0  3  0  0  0  0  0  0
  184.6550  180.0080  144.3380 C   0  0  0  0  0  2  0  0  0  0  0  0
  185.5600  179.2900  144.9930 C   0  0  0  0  0  3  0  0  0  0  0  0
  185.0240  179.1450  140.8460 C   0  0  0  0  0  2  0  0  0  0  0  0
  184.1740  180.4410  138.9730 N   0  0  0  0  0  0  0  0  0  0  0  0
  184.2570  179.0950  139.5280 C   0  0  2  0  0  3  0  0  0  0  0  0
  182.9670  180.8350  138.8860 N   0  0  0  0  0  0  0  0  0  0  0  0
  182.0990  179.8180  139.3580 C   0  0  0  0  0  0  0  0  0  0  0  0
  182.8130  178.7690  139.7480 C   0  0  0  0  0  0  0  0  0  0  0  0
  182.2830  177.4620  140.2380 C   0  0  0  0  0  1  0  0  0  0  0  0
  180.0170  180.3710  140.3750 O   0  0  0  0  0  0  0  0  0  0  0  0
  180.6310  179.9520  139.3580 C   0  0  0  0  0  0  0  0  0  0  0  0
  179.8900  179.5980  138.1950 N   0  0  0  0  0  1  0  0  0  0  0  0
  1 12  1  0  0  0  0
  2  8  1  0  0  0  0
  3  7  1  0  0  0  0
  4 13  1  0  0  0  0
  4  3  1  0  0  0  0
  5 18  2  0  0  0  0
  7  1  2  0  0  0  0
  7  5  1  0  0  0  0
  8 19  1  6  0  0  0
  8 14  1  0  0  0  0
  9  6  1  6  0  0  0
  9  1  1  0  0  0  0
 10 14  2  0  0  0  0
 12 15  1  0  0  0  0
 12  2  2  0  0  0  0
 13 11  1  6  0  0  0
 13  9  1  0  0  0  0
 15 16  2  0  0  0  0
 16 32  1  0  0  0  0
 16 10  1  0  0  0  0
 17  5  1  0  0  0  0
 18  2  1  0  0  0  0
 20 22  1  1  0  0  0
 20 26  1  0  0  0  0
 21 24  1  0  0  0  0
 23 19  1  6  0  0  0
 23 21  1  0  0  0  0
 23 20  1  0  0  0  0
 24 26  1  0  0  0  0
 24 25  2  0  0  0  0
 26 27  1  6  0  0  0
 28 25  1  0  0  0  0
 29 31  1  0  0  0  0
 29 28  2  0  0  0  0
 30 31  2  0  0  0  0
 33 34  1  0  0  0  0
 34 37  1  0  0  0  0
 34 32  1  1  0  0  0
 35 33  2  0  0  0  0
 35 36  1  0  0  0  0
 36 37  2  0  0  0  0
 37 38  1  0  0  0  0
 40 36  1  0  0  0  0
 40 39  2  0  0  0  0
 41 40  1  0  0  0  0
M  END
>  <MODEL>
2

>  <REMARK>
 VINA RESULT:      -9.5      1.707      2.069
  Name = 
  7 active torsions:
  status: ('A' for Active; 'I' for Inactive)
    1  A    between atoms: C_10  and  C_25
    2  A    between atoms: C_12  and  C_17
    3  A    between atoms: C_16  and  N_21
    4  A    between atoms: N_21  and  C_23
    5  A    between atoms: C_25  and  C_37
    6  A    between atoms: C_32  and  C_35
    7  A    between atoms: C_34  and  C_38
                            x       y       z     vdW  Elec       q    Type
                         _______ _______ _______ _____ _____    ______ ____

>  <TORSDO>
F 7

$$$$
=
 OpenBabel10222420363D

 41 45  0  0  1  0  0  0  0  0999 V2000
  188.9740  177.1330  138.4860 C   0  0  0  0  0  0  0  0  0  0  0  0
  186.9670  178.3260  139.2370 C   0  0  0  0  0  0  0  0  0  0  0  0
  188.1470  175.5460  136.7350 C   0  0  0  0  0  2  0  0  0  0  0  0
  189.2460  174.6030  137.2570 C   0  0  0  0  0  2  0  0  0  0  0  0
  187.1690  177.8560  136.8760 C   0  0  0  0  0  0  0  0  0  0  0  0
  191.4400  177.4050  138.6950 C   0  0  0  0  0  1  0  0  0  0  0  0
  188.3850  177.0150  137.1040 C   0  0  0  0  0  0  0  0  0  0  0  0
  186.0840  178.7740  140.1550 C   0  0  2  0  0  3  0  0  0  0  0  0
  190.2920  176.4120  138.6920 C   0  0  2  0  0  3  0  0  0  0  0  0
  187.2490  178.4090  142.3960 C   0  0  0  0  0  3  0  0  0  0  0  0
  191.4870  174.4260  138.0720 O   0  0  0  0  0  1  0  0  0  0  0  0
  188.3080  177.7180  139.5130 C   0  0  0  0  0  0  0  0  0  0  0  0
  190.5390  175.3420  137.6160 C   0  0  1  0  0  3  0  0  0  0  0  0
  186.2060  178.6660  141.6220 C   0  0  0  0  0  3  0  0  0  0  0  0
  189.0380  177.8250  140.7900 C   0  0  0  0  0  3  0  0  0  0  0  0
  188.6270  178.1460  142.0100 C   0  0  0  0  0  0  0  0  0  0  0  0
  186.6720  178.0270  135.5530 N   0  0  0  0  0  1  0  0  0  0  0  0
  186.5510  178.4210  137.8640 N   0  0  0  0  0  0  0  0  0  0  0  0
  184.8600  179.3440  139.6640 N   0  0  0  0  0  2  0  0  0  0  0  0
  183.2300  177.6020  140.1840 C   0  0  1  0  0  3  0  0  0  0  0  0
  182.6030  179.5320  138.8170 C   0  0  0  0  0  2  0  0  0  0  0  0
  182.8350  176.4160  139.5650 O   0  0  0  0  0  1  0  0  0  0  0  0
  183.7430  178.5790  139.1250 C   0  0  1  0  0  3  0  0  0  0  0  0
  181.6600  179.3650  139.9510 C   0  0  0  0  0  0  0  0  0  0  0  0
  180.5550  180.0940  140.1270 C   0  0  0  0  0  3  0  0  0  0  0  0
  182.0260  178.2460  140.8520 C   0  0  2  0  0  3  0  0  0  0  0  0
  182.4290  178.7750  142.2190 C   0  0  0  0  0  1  0  0  0  0  0  0
  180.1640  181.2240  139.2640 C   0  0  0  0  0  3  0  0  0  0  0  0
  179.4250  181.1560  138.1480 C   0  0  0  0  0  3  0  0  0  0  0  0
  179.6090  179.2920  136.5220 C   0  0  0  0  0  2  0  0  0  0  0  0
  178.9310  179.9480  137.4570 C   0  0  0  0  0  3  0  0  0  0  0  0
  189.6380  178.1340  143.1080 C   0  0  0  0  0  2  0  0  0  0  0  0
  188.7730  177.5360  145.3000 N   0  0  0  0  0  0  0  0  0  0  0  0
  189.3860  176.9950  144.0930 C   0  0  2  0  0  3  0  0  0  0  0  0
  189.5130  177.3560  146.3190 N   0  0  0  0  0  0  0  0  0  0  0  0
  190.6970  176.6770  145.9330 C   0  0  0  0  0  0  0  0  0  0  0  0
  190.6690  176.4410  144.6280 C   0  0  0  0  0  0  0  0  0  0  0  0
  191.6840  175.6840  143.8370 C   0  0  0  0  0  1  0  0  0  0  0  0
  192.4480  175.2590  146.7050 O   0  0  0  0  0  0  0  0  0  0  0  0
  191.7480  176.2890  146.8910 C   0  0  0  0  0  0  0  0  0  0  0  0
  191.9750  177.0850  148.0500 N   0  0  0  0  0  1  0  0  0  0  0  0
  1  9  1  0  0  0  0
  1 12  1  0  0  0  0
  2 12  2  0  0  0  0
  2  8  1  0  0  0  0
  3  7  1  0  0  0  0
  3  4  1  0  0  0  0
  4 13  1  0  0  0  0
  5  7  1  0  0  0  0
  5 18  2  0  0  0  0
  7  1  2  0  0  0  0
  8 19  1  6  0  0  0
  8 14  1  0  0  0  0
  9  6  1  6  0  0  0
 12 15  1  0  0  0  0
 13 11  1  1  0  0  0
 13  9  1  0  0  0  0
 14 10  2  0  0  0  0
 15 16  2  0  0  0  0
 16 10  1  0  0  0  0
 16 32  1  0  0  0  0
 17  5  1  0  0  0  0
 18  2  1  0  0  0  0
 20 22  1  6  0  0  0
 20 26  1  0  0  0  0
 21 23  1  0  0  0  0
 21 24  1  0  0  0  0
 23 19  1  1  0  0  0
 23 20  1  0  0  0  0
 24 25  2  0  0  0  0
 24 26  1  0  0  0  0
 26 27  1  1  0  0  0
 28 25  1  0  0  0  0
 29 28  2  0  0  0  0
 30 31  2  0  0  0  0
 31 29  1  0  0  0  0
 33 35  2  0  0  0  0
 34 32  1  6  0  0  0
 34 37  1  0  0  0  0
 34 33  1  0  0  0  0
 36 35  1  0  0  0  0
 36 40  1  0  0  0  0
 37 36  2  0  0  0  0
 38 37  1  0  0  0  0
 39 40  2  0  0  0  0
 40 41  1  0  0  0  0
M  END
>  <MODEL>
3

>  <REMARK>
 VINA RESULT:      -8.8      3.145      7.915
  Name = 
  7 active torsions:
  status: ('A' for Active; 'I' for Inactive)
    1  A    between atoms: C_10  and  C_25
    2  A    between atoms: C_12  and  C_17
    3  A    between atoms: C_16  and  N_21
    4  A    between atoms: N_21  and  C_23
    5  A    between atoms: C_25  and  C_37
    6  A    between atoms: C_32  and  C_35
    7  A    between atoms: C_34  and  C_38
                            x       y       z     vdW  Elec       q    Type
                         _______ _______ _______ _____ _____    ______ ____

>  <TORSDO>
F 7

$$$$
=
 OpenBabel10222420363D

 41 45  0  0  1  0  0  0  0  0999 V2000
  184.4740  178.9070  140.4380 C   0  0  0  0  0  0  0  0  0  0  0  0
  186.7160  178.4760  141.3340 C   0  0  0  0  0  0  0  0  0  0  0  0
  182.9170  177.8860  142.1130 C   0  0  0  0  0  2  0  0  0  0  0  0
  182.0300  177.5650  140.8970 C   0  0  0  0  0  2  0  0  0  0  0  0
  184.9830  179.0780  142.9060 C   0  0  0  0  0  0  0  0  0  0  0  0
  183.4600  180.3590  138.6870 C   0  0  0  0  0  1  0  0  0  0  0  0
  183.9330  179.0030  141.8430 C   0  0  1  0  0  3  0  0  0  0  0  0
  187.9840  178.0140  141.2820 C   0  0  0  0  0  0  0  0  0  0  0  0
  183.4340  178.9870  139.3380 C   0  0  2  0  0  3  0  0  0  0  0  0
  188.3950  177.5480  138.8070 C   0  0  0  0  0  3  0  0  0  0  0  0
  181.1900  178.3330  138.7940 O   0  0  0  0  0  1  0  0  0  0  0  0
  185.7750  178.6280  140.1780 C   0  0  0  0  0  0  0  0  0  0  0  0
  182.0180  178.6910  139.8580 C   0  0  1  0  0  3  0  0  0  0  0  0
  188.6750  177.4660  140.0990 C   0  0  0  0  0  3  0  0  0  0  0  0
  186.1750  178.6380  138.7580 C   0  0  0  0  0  3  0  0  0  0  0  0
  187.2820  178.2230  138.1570 C   0  0  0  0  0  0  0  0  0  0  0  0
  184.6110  179.4210  144.2360 N   0  0  0  0  0  1  0  0  0  0  0  0
  186.2250  178.8220  142.6400 N   0  0  0  0  0  0  0  0  0  0  0  0
  188.7180  177.9720  142.5170 N   0  0  0  0  0  2  0  0  0  0  0  0
  191.1520  177.9060  142.6870 C   0  0  1  0  0  3  0  0  0  0  0  0
  189.7570  176.5880  144.2040 C   0  0  0  0  0  2  0  0  0  0  0  0
  192.1510  177.1090  142.1250 O   0  0  0  0  0  1  0  0  0  0  0  0
  189.8550  177.1000  142.7790 C   0  0  1  0  0  3  0  0  0  0  0  0
  190.7190  177.4200  144.9690 C   0  0  0  0  0  0  0  0  0  0  0  0
  190.8800  177.3620  146.2930 C   0  0  0  0  0  3  0  0  0  0  0  0
  191.5520  178.2890  144.1020 C   0  0  2  0  0  3  0  0  0  0  0  0
  191.2180  179.7530  144.3430 C   0  0  0  0  0  1  0  0  0  0  0  0
  190.0630  176.5250  147.1900 C   0  0  0  0  0  3  0  0  0  0  0  0
  188.7940  176.7530  147.5570 C   0  0  0  0  0  3  0  0  0  0  0  0
  187.0780  177.9940  146.2660 C   0  0  0  0  0  2  0  0  0  0  0  0
  187.9600  177.9340  147.2570 C   0  0  0  0  0  3  0  0  0  0  0  0
  187.3570  178.3560  136.6720 C   0  0  0  0  0  2  0  0  0  0  0  0
  186.0700  176.3060  136.8960 N   0  0  0  0  0  0  0  0  0  0  0  0
  186.8750  177.0910  135.9670 C   0  0  2  0  0  3  0  0  0  0  0  0
  186.5970  175.1710  137.1240 N   0  0  0  0  0  0  0  0  0  0  0  0
  187.8020  175.0480  136.3860 C   0  0  0  0  0  0  0  0  0  0  0  0
  188.0090  176.1570  135.6860 C   0  0  0  0  0  0  0  0  0  0  0  0
  189.1220  176.4070  134.7220 C   0  0  0  0  0  1  0  0  0  0  0  0
  188.3280  172.8220  135.7240 O   0  0  0  0  0  0  0  0  0  0  0  0
  188.6370  173.8340  136.4080 C   0  0  0  0  0  0  0  0  0  0  0  0
  189.8070  173.7950  137.2180 N   0  0  0  0  0  1  0  0  0  0  0  0
  1  7  1  0  0  0  0
  2 18  1  0  0  0  0
  4  3  1  0  0  0  0
  5 17  1  0  0  0  0
  7  3  1  1  0  0  0
  7  5  1  0  0  0  0
  8  2  2  0  0  0  0
  8 19  1  0  0  0  0
  9  6  1  1  0  0  0
  9 13  1  0  0  0  0
  9  1  1  0  0  0  0
 10 14  2  0  0  0  0
 12  1  2  0  0  0  0
 12  2  1  0  0  0  0
 13 11  1  6  0  0  0
 13  4  1  0  0  0  0
 14  8  1  0  0  0  0
 15 12  1  0  0  0  0
 16 15  2  0  0  0  0
 16 10  1  0  0  0  0
 18  5  2  0  0  0  0
 20 22  1  1  0  0  0
 20 23  1  0  0  0  0
 20 26  1  0  0  0  0
 21 24  1  0  0  0  0
 23 19  1  1  0  0  0
 23 21  1  0  0  0  0
 24 25  2  0  0  0  0
 25 28  1  0  0  0  0
 26 27  1  1  0  0  0
 26 24  1  0  0  0  0
 28 29  2  0  0  0  0
 30 31  2  0  0  0  0
 31 29  1  0  0  0  0
 32 16  1  0  0  0  0
 33 35  2  0  0  0  0
 34 32  1  1  0  0  0
 34 33  1  0  0  0  0
 36 40  1  0  0  0  0
 36 35  1  0  0  0  0
 37 34  1  0  0  0  0
 37 36  2  0  0  0  0
 38 37  1  0  0  0  0
 39 40  2  0  0  0  0
 40 41  1  0  0  0  0
M  END
>  <MODEL>
4

>  <REMARK>
 VINA RESULT:      -8.5      2.364      6.161
  Name = 
  7 active torsions:
  status: ('A' for Active; 'I' for Inactive)
    1  A    between atoms: C_10  and  C_25
    2  A    between atoms: C_12  and  C_17
    3  A    between atoms: C_16  and  N_21
    4  A    between atoms: N_21  and  C_23
    5  A    between atoms: C_25  and  C_37
    6  A    between atoms: C_32  and  C_35
    7  A    between atoms: C_34  and  C_38
                            x       y       z     vdW  Elec       q    Type
                         _______ _______ _______ _____ _____    ______ ____

>  <TORSDO>
F 7

$$$$
=
 OpenBabel10222420363D

 41 45  0  0  1  0  0  0  0  0999 V2000
  188.5610  177.1300  143.6100 C   0  0  0  0  0  0  0  0  0  0  0  0
  186.5230  178.0030  142.5620 C   0  0  0  0  0  0  0  0  0  0  0  0
  188.6540  178.2530  145.8460 C   0  0  0  0  0  2  0  0  0  0  0  0
  190.1800  178.2200  145.6530 C   0  0  0  0  0  2  0  0  0  0  0  0
  186.4390  177.5040  144.9240 C   0  0  0  0  0  0  0  0  0  0  0  0
  190.1500  175.2530  143.2180 C   0  0  0  0  0  1  0  0  0  0  0  0
  187.9110  177.2410  144.9650 C   0  0  1  0  0  3  0  0  0  0  0  0
  185.8130  178.6010  141.5820 C   0  0  0  0  0  0  0  0  0  0  0  0
  190.0180  176.7100  143.6240 C   0  0  2  0  0  3  0  0  0  0  0  0
  187.3910  178.6280  139.5750 C   0  0  0  0  0  3  0  0  0  0  0  0
  192.0550  176.9620  144.8660 O   0  0  0  0  0  1  0  0  0  0  0  0
  187.9360  177.5140  142.4690 C   0  0  0  0  0  0  0  0  0  0  0  0
  190.6670  176.9220  145.0010 C   0  0  1  0  0  3  0  0  0  0  0  0
  186.3090  178.9920  140.2480 C   0  0  0  0  0  3  0  0  0  0  0  0
  188.6680  177.2800  141.2100 C   0  0  0  0  0  3  0  0  0  0  0  0
  188.4440  177.7060  139.9740 C   0  0  0  0  0  0  0  0  0  0  0  0
  185.6710  177.3810  146.1170 N   0  0  0  0  0  1  0  0  0  0  0  0
  185.8520  177.8570  143.8250 N   0  0  0  0  0  0  0  0  0  0  0  0
  184.4580  178.9710  141.8840 N   0  0  0  0  0  2  0  0  0  0  0  0
  182.1790  179.1000  141.0180 C   0  0  1  0  0  3  0  0  0  0  0  0
  183.6460  177.2400  140.4050 C   0  0  0  0  0  2  0  0  0  0  0  0
  180.9400  178.6240  141.4490 O   0  0  0  0  0  1  0  0  0  0  0  0
  183.2840  178.1800  141.5400 C   0  0  1  0  0  3  0  0  0  0  0  0
  183.0820  177.8840  139.1920 C   0  0  0  0  0  0  0  0  0  0  0  0
  183.2570  177.4320  137.9470 C   0  0  0  0  0  3  0  0  0  0  0  0
  182.2330  179.0600  139.4990 C   0  0  2  0  0  3  0  0  0  0  0  0
  182.8820  180.3330  138.9820 C   0  0  0  0  0  1  0  0  0  0  0  0
  184.1060  176.2780  137.5990 C   0  0  0  0  0  3  0  0  0  0  0  0
  185.3080  176.3220  137.0080 C   0  0  0  0  0  3  0  0  0  0  0  0
  187.2050  177.4610  135.8860 C   0  0  0  0  0  2  0  0  0  0  0  0
  186.0110  177.5030  136.4650 C   0  0  0  0  0  3  0  0  0  0  0  0
  189.4120  177.2990  138.9130 C   0  0  0  0  0  2  0  0  0  0  0  0
  191.5000  177.3210  140.1600 N   0  0  0  0  0  0  0  0  0  0  0  0
  190.5460  176.4500  139.4820 C   0  0  2  0  0  3  0  0  0  0  0  0
  192.6450  177.2770  139.6060 N   0  0  0  0  0  0  0  0  0  0  0  0
  192.6090  176.3810  138.5070 C   0  0  0  0  0  0  0  0  0  0  0  0
  191.3910  175.8660  138.3930 C   0  0  0  0  0  0  0  0  0  0  0  0
  190.9500  174.8280  137.4150 C   0  0  0  0  0  1  0  0  0  0  0  0
  194.0400  176.7520  136.6400 O   0  0  0  0  0  0  0  0  0  0  0  0
  193.7890  176.0820  137.6760 C   0  0  0  0  0  0  0  0  0  0  0  0
  194.6590  175.0170  138.0430 N   0  0  0  0  0  1  0  0  0  0  0  0
  1  9  1  0  0  0  0
  1  7  1  0  0  0  0
  2 18  1  0  0  0  0
  4  3  1  0  0  0  0
  5  7  1  0  0  0  0
  5 17  1  0  0  0  0
  7  3  1  1  0  0  0
  8 19  1  0  0  0  0
  8  2  2  0  0  0  0
  9  6  1  1  0  0  0
  9 13  1  0  0  0  0
 10 16  1  0  0  0  0
 10 14  2  0  0  0  0
 12  2  1  0  0  0  0
 12  1  2  0  0  0  0
 13 11  1  6  0  0  0
 13  4  1  0  0  0  0
 14  8  1  0  0  0  0
 15 12  1  0  0  0  0
 16 15  2  0  0  0  0
 18  5  2  0  0  0  0
 20 22  1  6  0  0  0
 20 23  1  0  0  0  0
 21 23  1  0  0  0  0
 23 19  1  6  0  0  0
 24 26  1  0  0  0  0
 24 21  1  0  0  0  0
 25 24  2  0  0  0  0
 26 27  1  1  0  0  0
 26 20  1  0  0  0  0
 28 25  1  0  0  0  0
 29 28  2  0  0  0  0
 30 31  2  0  0  0  0
 31 29  1  0  0  0  0
 32 16  1  0  0  0  0
 34 32  1  6  0  0  0
 34 33  1  0  0  0  0
 35 33  2  0  0  0  0
 36 35  1  0  0  0  0
 37 36  2  0  0  0  0
 37 34  1  0  0  0  0
 38 37  1  0  0  0  0
 39 40  2  0  0  0  0
 40 41  1  0  0  0  0
 40 36  1  0  0  0  0
M  END
>  <MODEL>
5

>  <REMARK>
 VINA RESULT:      -8.5      2.471      9.268
  Name = 
  7 active torsions:
  status: ('A' for Active; 'I' for Inactive)
    1  A    between atoms: C_10  and  C_25
    2  A    between atoms: C_12  and  C_17
    3  A    between atoms: C_16  and  N_21
    4  A    between atoms: N_21  and  C_23
    5  A    between atoms: C_25  and  C_37
    6  A    between atoms: C_32  and  C_35
    7  A    between atoms: C_34  and  C_38
                            x       y       z     vdW  Elec       q    Type
                         _______ _______ _______ _____ _____    ______ ____

>  <TORSDO>
F 7

$$$$
=
 OpenBabel10222420363D

 41 45  0  0  1  0  0  0  0  0999 V2000
  188.5980  177.2810  138.7350 C   0  0  0  0  0  0  0  0  0  0  0  0
  186.5320  178.2870  139.5920 C   0  0  0  0  0  0  0  0  0  0  0  0
  187.8390  175.7040  136.9450 C   0  0  0  0  0  2  0  0  0  0  0  0
  189.0230  174.8290  137.3970 C   0  0  0  0  0  2  0  0  0  0  0  0
  186.6930  177.9250  137.2090 C   0  0  0  0  0  0  0  0  0  0  0  0
  191.0430  177.7350  138.8830 C   0  0  0  0  0  1  0  0  0  0  0  0
  187.9760  177.1720  137.3670 C   0  0  0  0  0  0  0  0  0  0  0  0
  185.6470  178.6300  140.5520 C   0  0  2  0  0  3  0  0  0  0  0  0
  189.9730  176.6570  138.8730 C   0  0  2  0  0  3  0  0  0  0  0  0
  186.9080  178.2700  142.7420 C   0  0  0  0  0  3  0  0  0  0  0  0
  191.2950  174.7940  138.1380 O   0  0  0  0  0  1  0  0  0  0  0  0
  187.9230  177.7740  139.8030 C   0  0  0  0  0  0  0  0  0  0  0  0
  190.2660  175.6510  137.7480 C   0  0  1  0  0  3  0  0  0  0  0  0
  185.8240  178.4750  142.0090 C   0  0  0  0  0  3  0  0  0  0  0  0
  188.6840  177.8870  141.0630 C   0  0  0  0  0  3  0  0  0  0  0  0
  188.2890  178.1290  142.3060 C   0  0  0  0  0  0  0  0  0  0  0  0
  186.1420  178.1080  135.9090 N   0  0  0  0  0  1  0  0  0  0  0  0
  186.0660  178.4020  138.2360 N   0  0  0  0  0  0  0  0  0  0  0  0
  184.3680  179.1220  140.1200 N   0  0  0  0  0  2  0  0  0  0  0  0
  181.9510  179.4270  139.9520 C   0  0  1  0  0  3  0  0  0  0  0  0
  182.9240  177.1840  140.0560 C   0  0  0  0  0  2  0  0  0  0  0  0
  180.9150  179.5530  140.8770 O   0  0  0  0  0  1  0  0  0  0  0  0
  183.0830  178.6040  140.5700 C   0  0  1  0  0  3  0  0  0  0  0  0
  182.0210  177.3090  138.8850 C   0  0  0  0  0  0  0  0  0  0  0  0
  181.6930  176.3000  138.0740 C   0  0  0  0  0  3  0  0  0  0  0  0
  181.4490  178.6690  138.7340 C   0  0  2  0  0  3  0  0  0  0  0  0
  181.9800  179.3310  137.4730 C   0  0  0  0  0  1  0  0  0  0  0  0
  182.2510  174.9390  138.1800 C   0  0  0  0  0  3  0  0  0  0  0  0
  183.3730  174.4900  137.6000 C   0  0  0  0  0  3  0  0  0  0  0  0
  184.4290  174.8160  135.3800 C   0  0  0  0  0  2  0  0  0  0  0  0
  184.2440  175.1960  136.6380 C   0  0  0  0  0  3  0  0  0  0  0  0
  189.3320  178.1520  143.3730 C   0  0  0  0  0  2  0  0  0  0  0  0
  188.5490  177.3190  145.5190 N   0  0  0  0  0  0  0  0  0  0  0  0
  189.2290  176.9350  144.2880 C   0  0  2  0  0  3  0  0  0  0  0  0
  189.3060  177.1780  146.5320 N   0  0  0  0  0  0  0  0  0  0  0  0
  190.5690  176.6830  146.1180 C   0  0  0  0  0  0  0  0  0  0  0  0
  190.5730  176.5220  144.8010 C   0  0  0  0  0  0  0  0  0  0  0  0
  191.6800  175.9520  143.9760 C   0  0  0  0  0  1  0  0  0  0  0  0
  191.9200  177.1500  148.0240 O   0  0  0  0  0  0  0  0  0  0  0  0
  191.6600  176.3800  147.0610 C   0  0  0  0  0  0  0  0  0  0  0  0
  192.4410  175.2030  146.8830 N   0  0  0  0  0  1  0  0  0  0  0  0
  1  9  1  0  0  0  0
  1 12  1  0  0  0  0
  2 12  2  0  0  0  0
  2  8  1  0  0  0  0
  3  7  1  0  0  0  0
  3  4  1  0  0  0  0
  4 13  1  0  0  0  0
  5  7  1  0  0  0  0
  5 18  2  0  0  0  0
  7  1  2  0  0  0  0
  8 19  1  6  0  0  0
  8 14  1  0  0  0  0
  9  6  1  6  0  0  0
 12 15  1  0  0  0  0
 13 11  1  1  0  0  0
 13  9  1  0  0  0  0
 14 10  2  0  0  0  0
 15 16  2  0  0  0  0
 16 10  1  0  0  0  0
 16 32  1  0  0  0  0
 17  5  1  0  0  0  0
 18  2  1  0  0  0  0
 20 23  1  0  0  0  0
 20 22  1  1  0  0  0
 21 23  1  0  0  0  0
 23 19  1  6  0  0  0
 24 21  1  0  0  0  0
 25 28  1  0  0  0  0
 25 24  2  0  0  0  0
 26 27  1  6  0  0  0
 26 24  1  0  0  0  0
 26 20  1  0  0  0  0
 29 28  2  0  0  0  0
 30 31  2  0  0  0  0
 31 29  1  0  0  0  0
 33 35  2  0  0  0  0
 34 32  1  6  0  0  0
 34 37  1  0  0  0  0
 34 33  1  0  0  0  0
 36 35  1  0  0  0  0
 36 40  1  0  0  0  0
 37 36  2  0  0  0  0
 38 37  1  0  0  0  0
 40 39  2  0  0  0  0
 41 40  1  0  0  0  0
M  END
>  <MODEL>
6

>  <REMARK>
 VINA RESULT:      -8.4      2.875      8.000
  Name = 
  7 active torsions:
  status: ('A' for Active; 'I' for Inactive)
    1  A    between atoms: C_10  and  C_25
    2  A    between atoms: C_12  and  C_17
    3  A    between atoms: C_16  and  N_21
    4  A    between atoms: N_21  and  C_23
    5  A    between atoms: C_25  and  C_37
    6  A    between atoms: C_32  and  C_35
    7  A    between atoms: C_34  and  C_38
                            x       y       z     vdW  Elec       q    Type
                         _______ _______ _______ _____ _____    ______ ____

>  <TORSDO>
F 7

$$$$
=
 OpenBabel10222420363D

 41 45  0  0  1  0  0  0  0  0999 V2000
  188.0920  176.9990  137.8610 C   0  0  0  0  0  0  0  0  0  0  0  0
  186.0350  178.2210  138.3990 C   0  0  0  0  0  0  0  0  0  0  0  0
  187.3460  175.1370  136.3610 C   0  0  0  0  0  2  0  0  0  0  0  0
  188.4670  174.3240  137.0320 C   0  0  0  0  0  2  0  0  0  0  0  0
  186.2900  177.4070  136.1390 C   0  0  0  0  0  0  0  0  0  0  0  0
  190.5440  177.3850  138.0530 C   0  0  0  0  0  1  0  0  0  0  0  0
  187.5290  176.6530  136.5050 C   0  0  0  0  0  0  0  0  0  0  0  0
  185.1230  178.7720  139.2280 C   0  0  2  0  0  3  0  0  0  0  0  0
  189.4290  176.3630  138.1870 C   0  0  2  0  0  3  0  0  0  0  0  0
  186.2630  178.7910  141.5120 C   0  0  0  0  0  3  0  0  0  0  0  0
  190.6990  174.3490  137.8890 O   0  0  0  0  0  1  0  0  0  0  0  0
  187.3910  177.7090  138.7790 C   0  0  0  0  0  0  0  0  0  0  0  0
  189.7290  175.1530  137.2890 C   0  0  1  0  0  3  0  0  0  0  0  0
  185.2240  178.8910  140.6960 C   0  0  0  0  0  3  0  0  0  0  0  0
  188.0960  178.0330  140.0340 C   0  0  0  0  0  3  0  0  0  0  0  0
  187.6550  178.5200  141.1850 C   0  0  0  0  0  0  0  0  0  0  0  0
  185.8090  177.3590  134.8000 N   0  0  0  0  0  1  0  0  0  0  0  0
  185.6380  178.0930  137.0230 N   0  0  0  0  0  0  0  0  0  0  0  0
  183.8890  179.2180  138.6430 N   0  0  0  0  0  2  0  0  0  0  0  0
  181.6720  180.2390  138.5670 C   0  0  1  0  0  3  0  0  0  0  0  0
  181.9770  177.9750  139.4450 C   0  0  0  0  0  2  0  0  0  0  0  0
  180.9190  181.0090  139.4540 O   0  0  0  0  0  1  0  0  0  0  0  0
  182.6260  179.3440  139.3600 C   0  0  1  0  0  3  0  0  0  0  0  0
  180.9300  177.9920  138.3930 C   0  0  0  0  0  0  0  0  0  0  0  0
  180.1770  176.9400  138.0620 C   0  0  0  0  0  3  0  0  0  0  0  0
  180.7440  179.3290  137.7790 C   0  0  2  0  0  3  0  0  0  0  0  0
  181.1760  179.3070  136.3210 C   0  0  0  0  0  1  0  0  0  0  0  0
  180.3400  175.5920  138.6360 C   0  0  0  0  0  3  0  0  0  0  0  0
  181.2610  174.6830  138.2880 C   0  0  0  0  0  3  0  0  0  0  0  0
  183.4680  175.2530  137.3090 C   0  0  0  0  0  2  0  0  0  0  0  0
  182.2420  174.7600  137.1850 C   0  0  0  0  0  3  0  0  0  0  0  0
  188.6480  178.7090  142.2850 C   0  0  0  0  0  2  0  0  0  0  0  0
  187.7840  176.8690  143.6170 N   0  0  0  0  0  0  0  0  0  0  0  0
  188.9830  177.3890  142.9730 C   0  0  2  0  0  3  0  0  0  0  0  0
  187.9300  176.7900  144.8790 N   0  0  0  0  0  0  0  0  0  0  0  0
  189.2280  177.2360  145.2370 C   0  0  0  0  0  0  0  0  0  0  0  0
  189.8900  177.5990  144.1450 C   0  0  0  0  0  0  0  0  0  0  0  0
  191.3090  178.0560  144.0750 C   0  0  0  0  0  1  0  0  0  0  0  0
  190.7370  176.5690  146.9550 O   0  0  0  0  0  0  0  0  0  0  0  0
  189.7210  177.2380  146.6260 C   0  0  0  0  0  0  0  0  0  0  0  0
  189.0390  178.0000  147.6160 N   0  0  0  0  0  1  0  0  0  0  0  0
  1  9  1  0  0  0  0
  1 12  1  0  0  0  0
  2 12  2  0  0  0  0
  2  8  1  0  0  0  0
  3  7  1  0  0  0  0
  3  4  1  0  0  0  0
  4 13  1  0  0  0  0
  5  7  1  0  0  0  0
  5 18  2  0  0  0  0
  7  1  2  0  0  0  0
  8 19  1  1  0  0  0
  8 14  1  0  0  0  0
  9  6  1  6  0  0  0
 12 15  1  0  0  0  0
 13 11  1  1  0  0  0
 13  9  1  0  0  0  0
 14 10  2  0  0  0  0
 15 16  2  0  0  0  0
 16 10  1  0  0  0  0
 16 32  1  0  0  0  0
 17  5  1  0  0  0  0
 18  2  1  0  0  0  0
 20 23  1  0  0  0  0
 20 22  1  1  0  0  0
 23 19  1  6  0  0  0
 23 21  1  0  0  0  0
 24 21  1  0  0  0  0
 25 24  2  0  0  0  0
 25 28  1  0  0  0  0
 26 27  1  6  0  0  0
 26 24  1  0  0  0  0
 26 20  1  0  0  0  0
 29 28  2  0  0  0  0
 31 30  2  0  0  0  0
 31 29  1  0  0  0  0
 33 35  2  0  0  0  0
 34 32  1  1  0  0  0
 34 33  1  0  0  0  0
 34 37  1  0  0  0  0
 35 36  1  0  0  0  0
 36 40  1  0  0  0  0
 37 36  2  0  0  0  0
 38 37  1  0  0  0  0
 40 39  2  0  0  0  0
 40 41  1  0  0  0  0
M  END
>  <MODEL>
7

>  <REMARK>
 VINA RESULT:      -8.2      3.298      7.858
  Name = 
  7 active torsions:
  status: ('A' for Active; 'I' for Inactive)
    1  A    between atoms: C_10  and  C_25
    2  A    between atoms: C_12  and  C_17
    3  A    between atoms: C_16  and  N_21
    4  A    between atoms: N_21  and  C_23
    5  A    between atoms: C_25  and  C_37
    6  A    between atoms: C_32  and  C_35
    7  A    between atoms: C_34  and  C_38
                            x       y       z     vdW  Elec       q    Type
                         _______ _______ _______ _____ _____    ______ ____

>  <TORSDO>
F 7

$$$$
=
 OpenBabel10222420363D

 41 45  0  0  1  0  0  0  0  0999 V2000
  188.2280  177.0400  137.9480 C   0  0  0  0  0  0  0  0  0  0  0  0
  189.0990  177.0830  140.2400 C   0  0  0  0  0  0  0  0  0  0  0  0
  190.2540  177.2780  136.4970 C   0  0  0  0  0  2  0  0  0  0  0  0
  189.3240  178.0620  135.5530 C   0  0  0  0  0  2  0  0  0  0  0  0
  190.3800  175.8810  138.5820 C   0  0  0  0  0  0  0  0  0  0  0  0
  186.0940  176.4230  136.8220 C   0  0  0  0  0  1  0  0  0  0  0  0
  189.4980  176.3760  137.4800 C   0  0  0  0  0  0  0  0  0  0  0  0
  189.1730  177.5340  141.5100 C   0  0  2  0  0  3  0  0  0  0  0  0
  187.2480  177.4090  136.8510 C   0  0  2  0  0  3  0  0  0  0  0  0
  187.0850  178.9720  141.8010 C   0  0  0  0  0  3  0  0  0  0  0  0
  187.1400  178.2140  134.5940 O   0  0  0  0  0  1  0  0  0  0  0  0
  188.0340  177.4100  139.2380 C   0  0  0  0  0  0  0  0  0  0  0  0
  187.9190  177.4580  135.4700 C   0  0  1  0  0  3  0  0  0  0  0  0
  188.2810  178.5220  142.1480 C   0  0  0  0  0  3  0  0  0  0  0  0
  186.7150  177.9830  139.5640 C   0  0  0  0  0  3  0  0  0  0  0  0
  186.2760  178.6140  140.6450 C   0  0  0  0  0  0  0  0  0  0  0  0
  191.4730  175.0220  138.2740 N   0  0  0  0  0  1  0  0  0  0  0  0
  190.1750  176.2310  139.8110 N   0  0  0  0  0  0  0  0  0  0  0  0
  190.2750  177.0730  142.3080 N   0  0  0  0  0  2  0  0  0  0  0  0
  190.2390  178.9540  143.8640 C   0  0  1  0  0  3  0  0  0  0  0  0
  191.7600  177.0700  144.2160 C   0  0  0  0  0  2  0  0  0  0  0  0
  190.9300  180.1630  143.9530 O   0  0  0  0  0  1  0  0  0  0  0  0
  191.1120  177.9250  143.1430 C   0  0  1  0  0  3  0  0  0  0  0  0
  190.9580  177.3290  145.4370 C   0  0  0  0  0  0  0  0  0  0  0  0
  191.1310  176.7000  146.6020 C   0  0  0  0  0  3  0  0  0  0  0  0
  189.9710  178.4230  145.2630 C   0  0  2  0  0  3  0  0  0  0  0  0
  188.5550  177.8760  145.3330 C   0  0  0  0  0  1  0  0  0  0  0  0
  192.0870  175.5980  146.8120 C   0  0  0  0  0  3  0  0  0  0  0  0
  192.7780  175.3450  147.9330 C   0  0  0  0  0  3  0  0  0  0  0  0
  193.9530  176.6970  149.6490 C   0  0  0  0  0  2  0  0  0  0  0  0
  192.8400  176.1570  149.1650 C   0  0  0  0  0  3  0  0  0  0  0  0
  184.8640  179.0980  140.6410 C   0  0  0  0  0  2  0  0  0  0  0  0
  182.8200  177.8020  140.4150 N   0  0  0  0  0  0  0  0  0  0  0  0
  183.9250  178.1030  141.3170 C   0  0  2  0  0  3  0  0  0  0  0  0
  181.7050  178.1630  140.9090 N   0  0  0  0  0  0  0  0  0  0  0  0
  181.9140  178.7400  142.1880 C   0  0  0  0  0  0  0  0  0  0  0  0
  183.2100  178.7260  142.4740 C   0  0  0  0  0  0  0  0  0  0  0  0
  183.8440  179.1700  143.7510 C   0  0  0  0  0  1  0  0  0  0  0  0
  180.3830  180.4090  142.9260 O   0  0  0  0  0  0  0  0  0  0  0  0
  180.8130  179.2300  143.0370 C   0  0  0  0  0  0  0  0  0  0  0  0
  180.2290  178.3640  144.0040 N   0  0  0  0  0  1  0  0  0  0  0  0
  1 12  1  0  0  0  0
  2  8  1  0  0  0  0
  3  7  1  0  0  0  0
  4  3  1  0  0  0  0
  5 18  2  0  0  0  0
  7  1  2  0  0  0  0
  7  5  1  0  0  0  0
  8 14  1  0  0  0  0
  8 19  1  6  0  0  0
  9  6  1  6  0  0  0
  9  1  1  0  0  0  0
 10 14  2  0  0  0  0
 12 15  1  0  0  0  0
 12  2  2  0  0  0  0
 13 11  1  6  0  0  0
 13  4  1  0  0  0  0
 13  9  1  0  0  0  0
 15 16  2  0  0  0  0
 16 10  1  0  0  0  0
 17  5  1  0  0  0  0
 18  2  1  0  0  0  0
 20 22  1  1  0  0  0
 20 26  1  0  0  0  0
 21 24  1  0  0  0  0
 23 19  1  6  0  0  0
 23 20  1  0  0  0  0
 23 21  1  0  0  0  0
 24 25  2  0  0  0  0
 25 28  1  0  0  0  0
 26 27  1  6  0  0  0
 26 24  1  0  0  0  0
 28 29  2  0  0  0  0
 29 31  1  0  0  0  0
 31 30  2  0  0  0  0
 32 16  1  0  0  0  0
 33 35  2  0  0  0  0
 33 34  1  0  0  0  0
 34 32  1  6  0  0  0
 34 37  1  0  0  0  0
 35 36  1  0  0  0  0
 36 37  2  0  0  0  0
 36 40  1  0  0  0  0
 37 38  1  0  0  0  0
 39 40  2  0  0  0  0
 40 41  1  0  0  0  0
M  END
>  <MODEL>
8

>  <REMARK>
 VINA RESULT:      -8.1      1.822      2.472
  Name = 
  7 active torsions:
  status: ('A' for Active; 'I' for Inactive)
    1  A    between atoms: C_10  and  C_25
    2  A    between atoms: C_12  and  C_17
    3  A    between atoms: C_16  and  N_21
    4  A    between atoms: N_21  and  C_23
    5  A    between atoms: C_25  and  C_37
    6  A    between atoms: C_32  and  C_35
    7  A    between atoms: C_34  and  C_38
                            x       y       z     vdW  Elec       q    Type
                         _______ _______ _______ _____ _____    ______ ____

>  <TORSDO>
F 7

$$$$
=
 OpenBabel10222420363D

 41 45  0  0  1  0  0  0  0  0999 V2000
  186.8980  177.7640  137.3660 C   0  0  0  0  0  0  0  0  0  0  0  0
  188.4280  177.7140  139.2820 C   0  0  0  0  0  0  0  0  0  0  0  0
  184.6690  177.1390  138.3210 C   0  0  0  0  0  2  0  0  0  0  0  0
  184.4260  176.4560  136.9630 C   0  0  0  0  0  2  0  0  0  0  0  0
  186.2150  178.6140  139.6440 C   0  0  0  0  0  0  0  0  0  0  0  0
  186.9260  178.6370  135.0340 C   0  0  0  0  0  1  0  0  0  0  0  0
  185.7760  178.1990  138.2750 C   0  0  1  0  0  3  0  0  0  0  0  0
  189.5350  177.3280  139.9510 C   0  0  0  0  0  0  0  0  0  0  0  0
  186.4970  177.4890  135.9300 C   0  0  2  0  0  3  0  0  0  0  0  0
  191.0120  176.2440  138.1740 C   0  0  0  0  0  3  0  0  0  0  0  0
  184.7190  176.5870  134.5940 O   0  0  0  0  0  1  0  0  0  0  0  0
  188.1460  177.5000  137.8260 C   0  0  0  0  0  0  0  0  0  0  0  0
  184.9830  177.2620  135.7860 C   0  0  1  0  0  3  0  0  0  0  0  0
  190.6530  176.5250  139.4170 C   0  0  0  0  0  3  0  0  0  0  0  0
  189.1580  177.1540  136.8110 C   0  0  0  0  0  3  0  0  0  0  0  0
  190.3830  176.6580  136.9280 C   0  0  0  0  0  0  0  0  0  0  0  0
  185.2960  179.2770  140.5050 N   0  0  0  0  0  1  0  0  0  0  0  0
  187.4150  178.3670  140.0650 N   0  0  0  0  0  0  0  0  0  0  0  0
  189.6070  177.6590  141.3470 N   0  0  0  0  0  2  0  0  0  0  0  0
  191.2210  177.0760  143.0840 C   0  0  1  0  0  3  0  0  0  0  0  0
  188.8190  176.8240  143.4750 C   0  0  0  0  0  2  0  0  0  0  0  0
  191.8980  175.9090  143.4380 O   0  0  0  0  0  1  0  0  0  0  0  0
  189.8970  176.7080  142.4130 C   0  0  1  0  0  3  0  0  0  0  0  0
  189.4430  177.6270  144.5560 C   0  0  0  0  0  0  0  0  0  0  0  0
  188.8030  178.0480  145.6500 C   0  0  0  0  0  3  0  0  0  0  0  0
  190.8910  177.8670  144.3400 C   0  0  2  0  0  3  0  0  0  0  0  0
  191.1530  179.3430  144.0910 C   0  0  0  0  0  1  0  0  0  0  0  0
  187.3630  177.8450  145.8940 C   0  0  0  0  0  3  0  0  0  0  0  0
  186.6990  178.1250  147.0250 C   0  0  0  0  0  3  0  0  0  0  0  0
  188.3940  178.1460  148.8350 C   0  0  0  0  0  2  0  0  0  0  0  0
  187.2540  178.5840  148.3140 C   0  0  0  0  0  3  0  0  0  0  0  0
  191.1480  176.3960  135.6730 C   0  0  0  0  0  2  0  0  0  0  0  0
  190.7030  174.1580  136.5130 N   0  0  0  0  0  0  0  0  0  0  0  0
  191.3130  174.9000  135.4160 C   0  0  2  0  0  3  0  0  0  0  0  0
  191.5640  173.4620  137.1400 N   0  0  0  0  0  0  0  0  0  0  0  0
  192.8410  173.6410  136.5500 C   0  0  0  0  0  0  0  0  0  0  0  0
  192.7450  174.4810  135.5270 C   0  0  0  0  0  0  0  0  0  0  0  0
  193.8410  174.8780  134.5940 C   0  0  0  0  0  1  0  0  0  0  0  0
  194.5390  171.9790  136.3800 O   0  0  0  0  0  0  0  0  0  0  0  0
  194.0490  172.9430  137.0260 C   0  0  0  0  0  0  0  0  0  0  0  0
  194.6730  173.3580  138.2370 N   0  0  0  0  0  1  0  0  0  0  0  0
  1 12  2  0  0  0  0
  1  7  1  0  0  0  0
  2  8  2  0  0  0  0
  2 18  1  0  0  0  0
  4  3  1  0  0  0  0
  5 18  2  0  0  0  0
  5 17  1  0  0  0  0
  7  3  1  1  0  0  0
  7  5  1  0  0  0  0
  8 19  1  0  0  0  0
  9  6  1  6  0  0  0
  9  1  1  0  0  0  0
 10 14  2  0  0  0  0
 12  2  1  0  0  0  0
 13 11  1  6  0  0  0
 13  9  1  0  0  0  0
 13  4  1  0  0  0  0
 14  8  1  0  0  0  0
 15 16  2  0  0  0  0
 15 12  1  0  0  0  0
 16 10  1  0  0  0  0
 20 22  1  1  0  0  0
 20 26  1  0  0  0  0
 21 24  1  0  0  0  0
 23 19  1  6  0  0  0
 23 20  1  0  0  0  0
 23 21  1  0  0  0  0
 24 25  2  0  0  0  0
 25 28  1  0  0  0  0
 26 27  1  6  0  0  0
 26 24  1  0  0  0  0
 28 29  2  0  0  0  0
 29 31  1  0  0  0  0
 31 30  2  0  0  0  0
 32 16  1  0  0  0  0
 33 35  2  0  0  0  0
 34 37  1  0  0  0  0
 34 32  1  1  0  0  0
 34 33  1  0  0  0  0
 36 40  1  0  0  0  0
 36 35  1  0  0  0  0
 37 36  2  0  0  0  0
 38 37  1  0  0  0  0
 39 40  2  0  0  0  0
 40 41  1  0  0  0  0
M  END
>  <MODEL>
9

>  <REMARK>
 VINA RESULT:      -8.1      2.806      7.074
  Name = 
  7 active torsions:
  status: ('A' for Active; 'I' for Inactive)
    1  A    between atoms: C_10  and  C_25
    2  A    between atoms: C_12  and  C_17
    3  A    between atoms: C_16  and  N_21
    4  A    between atoms: N_21  and  C_23
    5  A    between atoms: C_25  and  C_37
    6  A    between atoms: C_32  and  C_35
    7  A    between atoms: C_34  and  C_38
                            x       y       z     vdW  Elec       q    Type
                         _______ _______ _______ _____ _____    ______ ____

>  <TORSDO>
F 7

$$$$
