=
 OpenBabel10222417433D

 60 64  0  0  1  0  0  0  0  0999 V2000
  187.0580  177.1900  137.0070 C   0  0  1  0  0  3  0  0  0  0  0  0
  183.4390  178.1880  137.7110 N   0  0  0  0  0  2  0  0  0  0  0  0
  181.1730  179.0030  138.2420 N   0  0  0  0  0  2  0  0  0  0  0  0
  185.6110  177.1500  137.1900 N   0  0  0  0  0  2  0  0  0  0  0  0
  184.8580  178.2980  137.5740 C   0  0  0  0  0  0  0  0  0  0  0  0
  183.0750  180.2320  138.7890 O   0  0  0  0  0  0  0  0  0  0  0  0
  182.5870  179.1940  138.2670 C   0  0  0  0  0  0  0  0  0  0  0  0
  185.4420  179.3960  137.7850 O   0  0  0  0  0  0  0  0  0  0  0  0
  179.5460  180.6480  137.9290 O   0  0  0  0  0  1  0  0  0  0  0  0
  180.2510  179.9230  138.8940 C   0  0  1  0  0  3  0  0  0  0  0  0
  179.3030  179.1660  139.8390 C   0  0  1  0  0  3  0  0  0  0  0  0
  179.7680  177.3710  141.4320 C   0  0  0  0  0  2  0  0  0  0  0  0
  179.7270  177.7070  139.9490 C   0  0  0  0  0  2  0  0  0  0  0  0
  181.3880  179.0030  142.3550 C   0  0  0  0  0  1  0  0  0  0  0  0
  179.6880  181.0050  141.4380 O   0  0  0  0  0  1  0  0  0  0  0  0
  179.9050  178.6890  142.1760 C   0  0  1  0  0  3  0  0  0  0  0  0
  179.2030  179.6990  141.2780 C   0  0  2  0  0  3  0  0  0  0  0  0
  189.1830  177.1750  140.7620 C   0  0  0  0  0  0  0  0  0  0  0  0
  188.9080  176.3790  138.4880 C   0  0  0  0  0  3  0  0  0  0  0  0
  187.3480  177.9940  139.3940 C   0  0  0  0  0  3  0  0  0  0  0  0
  187.7810  177.1940  138.3260 C   0  0  0  0  0  0  0  0  0  0  0  0
  189.6020  176.3680  139.7000 C   0  0  0  0  0  3  0  0  0  0  0  0
  188.0490  177.9840  140.6050 C   0  0  0  0  0  3  0  0  0  0  0  0
  189.2580  178.1350  146.1780 C   0  0  2  0  0  3  0  0  0  0  0  0
  192.0100  177.8590  141.2110 O   0  0  0  0  0  0  0  0  0  0  0  0
  191.2090  176.9480  147.1010 C   0  0  0  0  0  3  0  0  0  0  0  0
  189.6810  177.6020  144.8040 C   0  0  0  0  0  2  0  0  0  0  0  0
  189.4060  177.3280  148.5650 O   0  0  0  0  0  1  0  0  0  0  0  0
  191.8280  177.0340  145.8090 N   0  0  0  0  0  0  0  0  0  0  0  0
  189.9750  177.4210  147.3000 C   0  0  0  0  0  0  0  0  0  0  0  0
  191.2920  177.5250  142.1880 C   0  0  0  0  0  0  0  0  0  0  0  0
  191.1720  177.3730  144.7360 C   0  0  0  0  0  0  0  0  0  0  0  0
  189.9230  177.1360  141.9890 N   0  0  0  0  0  2  0  0  0  0  0  0
  191.8810  177.4710  143.4930 N   0  0  0  0  0  2  0  0  0  0  0  0
  187.7670  178.0780  146.3210 C   0  0  0  0  0  0  0  0  0  0  0  0
  185.8000  178.2060  147.2230 O   0  0  0  0  0  0  0  0  0  0  0  0
  186.8480  177.6260  145.2350 C   0  0  0  0  0  3  0  0  0  0  0  0
  187.1460  178.3870  147.4070 N   0  0  0  0  0  0  0  0  0  0  0  0
  185.4810  177.7500  145.9130 C   0  0  0  0  0  3  0  0  0  0  0  0
  187.5190  176.1100  136.0210 C   0  0  2  0  0  3  0  0  0  0  0  0
  188.5450  176.5610  134.9780 C   0  0  0  0  0  2  0  0  0  0  0  0
  188.7800  178.0630  134.9880 C   0  0  0  0  0  1  0  0  0  0  0  0
  186.3580  175.3170  135.4320 C   0  0  0  0  0  2  0  0  0  0  0  0
  187.3910  173.4790  136.7210 C   0  0  0  0  0  1  0  0  0  0  0  0
  186.0740  174.0940  136.2830 C   0  0  2  0  0  3  0  0  0  0  0  0
  185.3200  173.1230  135.5020 N   0  0  0  0  0  2  0  0  0  0  0  0
  184.1970  172.2410  137.3420 O   0  0  0  0  0  1  0  0  0  0  0  0
  184.0260  172.9450  136.1460 C   0  0  1  0  0  3  0  0  0  0  0  0
  183.3890  174.3030  136.4280 C   0  0  1  0  0  3  0  0  0  0  0  0
  182.2940  174.5960  135.4140 C   0  0  2  0  0  3  0  0  0  0  0  0
  180.9100  176.2510  136.4220 F   0  0  0  0  0  0  0  0  0  0  0  0
  182.6460  175.6910  134.6230 O   0  0  0  0  0  1  0  0  0  0  0  0
  181.4490  174.2280  137.5710 C   0  0  1  0  0  3  0  0  0  0  0  0
  181.0760  174.8810  136.2560 C   0  0  2  0  0  0  0  0  0  0  0  0
  182.8410  174.3250  137.7280 O   0  0  0  0  0  0  0  0  0  0  0  0
  179.5130  174.0030  139.1260 C   0  0  0  0  0  1  0  0  0  0  0  0
  180.7230  174.8410  138.7630 C   0  0  0  0  0  2  0  0  0  0  0  0
  179.8010  174.2870  135.6410 C   0  0  0  0  0  2  0  0  0  0  0  0
  180.0050  172.9240  134.9830 C   0  0  0  0  0  2  0  0  0  0  0  0
  179.3600  171.8270  135.8090 C   0  0  0  0  0  1  0  0  0  0  0  0
  1  4  1  1  0  0  0
  1 21  1  0  0  0  0
  2  7  1  0  0  0  0
  3  7  1  0  0  0  0
  3 10  1  0  0  0  0
  4  5  1  0  0  0  0
  5  2  1  0  0  0  0
  5  8  2  0  0  0  0
  7  6  2  0  0  0  0
 10  9  1  6  0  0  0
 11 10  1  6  0  0  0
 11 13  1  0  0  0  0
 11 17  1  0  0  0  0
 12 16  1  0  0  0  0
 13 12  1  0  0  0  0
 16 14  1  6  0  0  0
 17 15  1  6  0  0  0
 17 16  1  0  0  0  0
 18 33  1  0  0  0  0
 19 22  1  0  0  0  0
 20 23  2  0  0  0  0
 21 19  2  0  0  0  0
 21 20  1  0  0  0  0
 22 18  2  0  0  0  0
 23 18  1  0  0  0  0
 24 35  1  1  0  0  0
 24 30  1  0  0  0  0
 25 31  2  0  0  0  0
 26 30  2  0  0  0  0
 27 24  1  0  0  0  0
 29 26  1  0  0  0  0
 30 28  1  0  0  0  0
 31 34  1  0  0  0  0
 32 27  1  0  0  0  0
 32 29  2  0  0  0  0
 33 31  1  0  0  0  0
 34 32  1  0  0  0  0
 35 38  2  0  0  0  0
 36 38  1  0  0  0  0
 37 39  2  0  0  0  0
 37 35  1  0  0  0  0
 39 36  1  0  0  0  0
 40 41  1  6  0  0  0
 40  1  1  0  0  0  0
 41 42  1  0  0  0  0
 43 40  1  0  0  0  0
 43 45  1  0  0  0  0
 45 44  1  6  0  0  0
 46 48  1  0  0  0  0
 46 45  1  0  0  0  0
 48 47  1  1  0  0  0
 49 48  1  6  0  0  0
 49 55  1  0  0  0  0
 50 52  1  1  0  0  0
 50 54  1  0  0  0  0
 50 49  1  0  0  0  0
 53 55  1  0  0  0  0
 53 57  1  1  0  0  0
 54 51  1  1  0  0  0
 54 53  1  0  0  0  0
 57 56  1  0  0  0  0
 58 54  1  0  0  0  0
 59 58  1  0  0  0  0
 59 60  1  0  0  0  0
M  END
>  <MODEL>
1

>  <REMARK>
 VINA RESULT:      -6.7      0.000      0.000
  Name = 
  16 active torsions:
  status: ('A' for Active; 'I' for Inactive)
    1  A    between atoms: C_1  and  C_58
    2  A    between atoms: C_2  and  C_15
    3  A    between atoms: C_2  and  C_33
    4  A    between atoms: C_2  and  C_41
    5  A    between atoms: C_3  and  C_11
    6  A    between atoms: N_6  and  C_58
    7  A    between atoms: N_8  and  C_15
    8  A    between atoms: C_9  and  C_53
    9  A    between atoms: C_13  and  N_47
   10  A    between atoms: C_15  and  C_35
   11  A    between atoms: C_25  and  C_27
   12  A    between atoms: C_25  and  N_45
   13  A    between atoms: C_30  and  C_46
   14  A    between atoms: C_41  and  C_57
   15  A    between atoms: N_45  and  C_57
   16  A    between atoms: C_50  and  C_53
                            x       y       z     vdW  Elec       q    Type
                         _______ _______ _______ _____ _____    ______ ____

>  <TORSDO>
F 16

$$$$
=
 OpenBabel10222417433D

 60 64  0  0  1  0  0  0  0  0999 V2000
  186.1910  177.7050  137.3500 C   0  0  1  0  0  3  0  0  0  0  0  0
  183.0320  175.8260  136.3140 N   0  0  0  0  0  2  0  0  0  0  0  0
  180.8880  174.7740  135.7010 N   0  0  0  0  0  2  0  0  0  0  0  0
  185.2630  176.6540  136.9510 N   0  0  0  0  0  2  0  0  0  0  0  0
  183.8780  176.9040  136.7260 C   0  0  0  0  0  0  0  0  0  0  0  0
  180.9810  176.9000  136.6500 O   0  0  0  0  0  0  0  0  0  0  0  0
  181.6050  175.8860  136.2360 C   0  0  0  0  0  0  0  0  0  0  0  0
  183.4100  178.0640  136.8870 O   0  0  0  0  0  0  0  0  0  0  0  0
  178.9310  175.4020  134.5940 O   0  0  0  0  0  1  0  0  0  0  0  0
  179.4320  174.7130  135.7010 C   0  0  1  0  0  3  0  0  0  0  0  0
  178.9480  173.2530  135.7270 C   0  0  1  0  0  3  0  0  0  0  0  0
  180.1890  171.1750  135.3860 C   0  0  0  0  0  2  0  0  0  0  0  0
  179.6980  172.4330  134.6860 C   0  0  0  0  0  2  0  0  0  0  0  0
  181.5880  172.0460  137.2370 C   0  0  0  0  0  1  0  0  0  0  0  0
  179.3110  173.3460  138.1660 O   0  0  0  0  0  1  0  0  0  0  0  0
  180.2160  171.4850  136.8740 C   0  0  1  0  0  3  0  0  0  0  0  0
  179.1030  172.5060  137.0630 C   0  0  2  0  0  3  0  0  0  0  0  0
  185.9670  178.4160  141.6000 C   0  0  0  0  0  0  0  0  0  0  0  0
  184.8860  178.0610  139.4580 C   0  0  0  0  0  3  0  0  0  0  0  0
  187.3040  178.0990  139.5940 C   0  0  0  0  0  3  0  0  0  0  0  0
  186.1340  177.9590  138.8310 C   0  0  0  0  0  0  0  0  0  0  0  0
  184.8040  178.2910  140.8330 C   0  0  0  0  0  3  0  0  0  0  0  0
  187.2170  178.3240  140.9720 C   0  0  0  0  0  3  0  0  0  0  0  0
  187.9120  177.4860  146.6600 C   0  0  2  0  0  3  0  0  0  0  0  0
  183.5120  178.5360  143.2180 O   0  0  0  0  0  0  0  0  0  0  0  0
  186.8910  179.1600  148.1520 C   0  0  0  0  0  3  0  0  0  0  0  0
  187.1060  178.1220  145.5220 C   0  0  0  0  0  2  0  0  0  0  0  0
  188.9790  178.2890  148.8020 O   0  0  0  0  0  1  0  0  0  0  0  0
  185.7910  179.2540  147.2350 N   0  0  0  0  0  0  0  0  0  0  0  0
  187.9320  178.3630  147.8900 C   0  0  0  0  0  0  0  0  0  0  0  0
  184.6290  178.6540  143.7810 C   0  0  0  0  0  0  0  0  0  0  0  0
  185.8320  178.7540  146.0330 C   0  0  0  0  0  0  0  0  0  0  0  0
  185.8410  178.6510  143.0080 N   0  0  0  0  0  2  0  0  0  0  0  0
  184.6710  178.8610  145.1980 N   0  0  0  0  0  2  0  0  0  0  0  0
  189.2880  177.1290  146.1860 C   0  0  0  0  0  0  0  0  0  0  0  0
  191.3670  176.5170  146.2400 O   0  0  0  0  0  0  0  0  0  0  0  0
  189.7210  177.2190  144.7610 C   0  0  0  0  0  3  0  0  0  0  0  0
  190.2310  176.7380  146.9740 N   0  0  0  0  0  0  0  0  0  0  0  0
  191.1810  176.7640  144.8510 C   0  0  0  0  0  3  0  0  0  0  0  0
  187.5960  177.4410  136.7940 C   0  0  2  0  0  3  0  0  0  0  0  0
  187.8910  178.0530  135.4220 C   0  0  0  0  0  2  0  0  0  0  0  0
  186.6360  178.5090  134.6940 C   0  0  0  0  0  1  0  0  0  0  0  0
  188.0090  175.9780  136.9110 C   0  0  0  0  0  2  0  0  0  0  0  0
  187.6740  174.1160  135.3210 C   0  0  0  0  0  1  0  0  0  0  0  0
  188.3950  175.4320  135.5490 C   0  0  2  0  0  3  0  0  0  0  0  0
  189.8340  175.2130  135.5040 N   0  0  0  0  0  2  0  0  0  0  0  0
  190.3230  173.0020  134.9570 O   0  0  0  0  0  1  0  0  0  0  0  0
  190.0940  173.8770  136.0230 C   0  0  1  0  0  3  0  0  0  0  0  0
  191.3080  173.9000  136.9470 C   0  0  1  0  0  3  0  0  0  0  0  0
  192.5340  174.4020  136.2000 C   0  0  2  0  0  3  0  0  0  0  0  0
  194.0530  175.1410  137.8790 F   0  0  0  0  0  0  0  0  0  0  0  0
  193.4890  173.3880  136.0980 O   0  0  0  0  0  1  0  0  0  0  0  0
  191.7940  175.9140  137.8350 C   0  0  1  0  0  3  0  0  0  0  0  0
  193.0310  175.5560  137.0350 C   0  0  2  0  0  0  0  0  0  0  0  0
  191.0620  174.7370  138.0560 O   0  0  0  0  0  0  0  0  0  0  0  0
  190.9300  177.4190  139.6250 C   0  0  0  0  0  1  0  0  0  0  0  0
  192.1210  176.6080  139.1510 C   0  0  0  0  0  2  0  0  0  0  0  0
  193.5300  176.7200  136.1670 C   0  0  0  0  0  2  0  0  0  0  0  0
  194.8830  176.4650  135.5040 C   0  0  0  0  0  2  0  0  0  0  0  0
  195.6250  177.7690  135.2790 C   0  0  0  0  0  1  0  0  0  0  0  0
  1  4  1  1  0  0  0
  1 21  1  0  0  0  0
  2  5  1  0  0  0  0
  3  7  1  0  0  0  0
  5  8  2  0  0  0  0
  5  4  1  0  0  0  0
  7  2  1  0  0  0  0
  7  6  2  0  0  0  0
 10  9  1  6  0  0  0
 10  3  1  0  0  0  0
 11 10  1  1  0  0  0
 11 17  1  0  0  0  0
 12 16  1  0  0  0  0
 13 12  1  0  0  0  0
 13 11  1  0  0  0  0
 16 17  1  0  0  0  0
 16 14  1  6  0  0  0
 17 15  1  1  0  0  0
 18 33  1  0  0  0  0
 19 22  1  0  0  0  0
 20 23  2  0  0  0  0
 21 19  2  0  0  0  0
 21 20  1  0  0  0  0
 22 18  2  0  0  0  0
 23 18  1  0  0  0  0
 24 35  1  6  0  0  0
 24 30  1  0  0  0  0
 25 31  2  0  0  0  0
 27 32  1  0  0  0  0
 27 24  1  0  0  0  0
 29 26  1  0  0  0  0
 30 26  2  0  0  0  0
 30 28  1  0  0  0  0
 31 34  1  0  0  0  0
 32 29  2  0  0  0  0
 33 31  1  0  0  0  0
 34 32  1  0  0  0  0
 35 38  2  0  0  0  0
 36 38  1  0  0  0  0
 37 39  2  0  0  0  0
 37 35  1  0  0  0  0
 39 36  1  0  0  0  0
 40 41  1  6  0  0  0
 40 43  1  0  0  0  0
 40  1  1  0  0  0  0
 42 41  1  0  0  0  0
 45 44  1  1  0  0  0
 45 43  1  0  0  0  0
 46 45  1  0  0  0  0
 46 48  1  0  0  0  0
 48 47  1  6  0  0  0
 49 48  1  6  0  0  0
 49 55  1  0  0  0  0
 50 52  1  1  0  0  0
 50 49  1  0  0  0  0
 50 54  1  0  0  0  0
 53 55  1  0  0  0  0
 53 57  1  1  0  0  0
 54 53  1  0  0  0  0
 54 51  1  1  0  0  0
 57 56  1  0  0  0  0
 58 54  1  0  0  0  0
 59 58  1  0  0  0  0
 60 59  1  0  0  0  0
M  END
>  <MODEL>
2

>  <REMARK>
 VINA RESULT:      -6.1      3.462      7.116
  Name = 
  16 active torsions:
  status: ('A' for Active; 'I' for Inactive)
    1  A    between atoms: C_1  and  C_58
    2  A    between atoms: C_2  and  C_15
    3  A    between atoms: C_2  and  C_33
    4  A    between atoms: C_2  and  C_41
    5  A    between atoms: C_3  and  C_11
    6  A    between atoms: N_6  and  C_58
    7  A    between atoms: N_8  and  C_15
    8  A    between atoms: C_9  and  C_53
    9  A    between atoms: C_13  and  N_47
   10  A    between atoms: C_15  and  C_35
   11  A    between atoms: C_25  and  C_27
   12  A    between atoms: C_25  and  N_45
   13  A    between atoms: C_30  and  C_46
   14  A    between atoms: C_41  and  C_57
   15  A    between atoms: N_45  and  C_57
   16  A    between atoms: C_50  and  C_53
                            x       y       z     vdW  Elec       q    Type
                         _______ _______ _______ _____ _____    ______ ____

>  <TORSDO>
F 16

$$$$
=
 OpenBabel10222417433D

 60 64  0  0  1  0  0  0  0  0999 V2000
  187.7640  177.1560  136.9670 C   0  0  1  0  0  3  0  0  0  0  0  0
  184.0900  178.0910  137.4300 N   0  0  0  0  0  2  0  0  0  0  0  0
  181.7800  178.8480  137.8410 N   0  0  0  0  0  2  0  0  0  0  0  0
  186.3060  177.1150  136.9770 N   0  0  0  0  0  2  0  0  0  0  0  0
  185.5160  178.1940  137.4730 C   0  0  0  0  0  0  0  0  0  0  0  0
  183.6090  179.9210  138.8060 O   0  0  0  0  0  0  0  0  0  0  0  0
  183.1820  179.0010  138.0570 C   0  0  0  0  0  0  0  0  0  0  0  0
  186.0730  179.2240  137.9390 O   0  0  0  0  0  0  0  0  0  0  0  0
  181.4310  180.5020  139.4510 O   0  0  0  0  0  1  0  0  0  0  0  0
  180.7910  179.6580  138.5400 C   0  0  1  0  0  3  0  0  0  0  0  0
  179.9310  180.4510  137.5400 C   0  0  1  0  0  3  0  0  0  0  0  0
  180.4510  181.2210  135.2800 C   0  0  0  0  0  2  0  0  0  0  0  0
  180.8040  181.4130  136.7470 C   0  0  0  0  0  2  0  0  0  0  0  0
  180.9120  178.8200  134.8790 C   0  0  0  0  0  1  0  0  0  0  0  0
  179.0190  178.2680  136.8400 O   0  0  0  0  0  1  0  0  0  0  0  0
  179.8170  179.8450  135.1590 C   0  0  1  0  0  3  0  0  0  0  0  0
  179.1470  179.6240  136.5080 C   0  0  2  0  0  3  0  0  0  0  0  0
  189.4350  177.1410  140.9440 C   0  0  0  0  0  0  0  0  0  0  0  0
  189.5280  176.4830  138.6120 C   0  0  0  0  0  3  0  0  0  0  0  0
  187.6720  177.8160  139.4130 C   0  0  0  0  0  3  0  0  0  0  0  0
  188.3270  177.1570  138.3610 C   0  0  0  0  0  0  0  0  0  0  0  0
  190.0770  176.4730  139.8970 C   0  0  0  0  0  3  0  0  0  0  0  0
  188.2270  177.8080  140.6970 C   0  0  0  0  0  3  0  0  0  0  0  0
  188.8870  178.1120  146.3310 C   0  0  2  0  0  3  0  0  0  0  0  0
  192.1890  177.8390  141.7120 O   0  0  0  0  0  0  0  0  0  0  0  0
  190.7260  176.9360  147.4740 C   0  0  0  0  0  3  0  0  0  0  0  0
  189.4670  177.5780  145.0160 C   0  0  0  0  0  2  0  0  0  0  0  0
  188.7660  177.3110  148.7220 O   0  0  0  0  0  1  0  0  0  0  0  0
  191.4880  177.0230  146.2610 N   0  0  0  0  0  0  0  0  0  0  0  0
  189.4750  177.4040  147.5300 C   0  0  0  0  0  0  0  0  0  0  0  0
  191.3660  177.5040  142.6000 C   0  0  0  0  0  0  0  0  0  0  0  0
  190.9570  177.3560  145.1190 C   0  0  0  0  0  0  0  0  0  0  0  0
  190.0300  177.1080  142.2480 N   0  0  0  0  0  2  0  0  0  0  0  0
  191.8030  177.4560  143.9640 N   0  0  0  0  0  2  0  0  0  0  0  0
  187.3900  178.0480  146.3030 C   0  0  0  0  0  0  0  0  0  0  0  0
  185.3870  177.3810  145.8090 O   0  0  0  0  0  0  0  0  0  0  0  0
  186.5070  179.0350  146.9920 C   0  0  0  0  0  3  0  0  0  0  0  0
  186.7300  177.1490  145.6570 N   0  0  0  0  0  0  0  0  0  0  0  0
  185.1140  178.5130  146.6270 C   0  0  0  0  0  3  0  0  0  0  0  0
  188.3390  176.0790  136.0390 C   0  0  2  0  0  3  0  0  0  0  0  0
  189.2510  176.5870  134.9190 C   0  0  0  0  0  2  0  0  0  0  0  0
  190.7130  176.2290  135.1350 C   0  0  0  0  0  1  0  0  0  0  0  0
  187.2830  175.0880  135.5640 C   0  0  0  0  0  2  0  0  0  0  0  0
  188.4830  173.3130  136.7950 C   0  0  0  0  0  1  0  0  0  0  0  0
  187.1300  173.9620  136.5690 C   0  0  2  0  0  3  0  0  0  0  0  0
  186.1950  172.9730  136.0520 N   0  0  0  0  0  2  0  0  0  0  0  0
  185.4400  172.6750  138.2360 O   0  0  0  0  0  1  0  0  0  0  0  0
  185.0320  172.9620  136.9300 C   0  0  1  0  0  3  0  0  0  0  0  0
  184.3320  174.3170  136.8890 C   0  0  1  0  0  3  0  0  0  0  0  0
  183.2430  174.3200  135.8270 C   0  0  2  0  0  3  0  0  0  0  0  0
  181.7700  176.0940  136.4200 F   0  0  0  0  0  0  0  0  0  0  0  0
  183.5600  175.2210  134.8090 O   0  0  0  0  0  1  0  0  0  0  0  0
  182.3770  174.4150  138.0060 C   0  0  1  0  0  3  0  0  0  0  0  0
  181.9990  174.7330  136.5730 C   0  0  2  0  0  0  0  0  0  0  0  0
  183.7600  174.6090  138.1460 O   0  0  0  0  0  0  0  0  0  0  0  0
  182.5430  176.2020  139.7360 C   0  0  0  0  0  1  0  0  0  0  0  0
  181.6050  175.2490  139.0210 C   0  0  0  0  0  2  0  0  0  0  0  0
  180.7620  173.9550  136.1020 C   0  0  0  0  0  2  0  0  0  0  0  0
  180.9540  173.2270  134.7730 C   0  0  0  0  0  2  0  0  0  0  0  0
  179.9010  172.1480  134.5960 C   0  0  0  0  0  1  0  0  0  0  0  0
  1  4  1  1  0  0  0
  1 21  1  0  0  0  0
  2  5  1  0  0  0  0
  2  7  1  0  0  0  0
  3  7  1  0  0  0  0
  3 10  1  0  0  0  0
  4  5  1  0  0  0  0
  5  8  2  0  0  0  0
  7  6  2  0  0  0  0
 10  9  1  1  0  0  0
 11 10  1  6  0  0  0
 12 13  1  0  0  0  0
 13 11  1  0  0  0  0
 16 14  1  1  0  0  0
 16 12  1  0  0  0  0
 16 17  1  0  0  0  0
 17 15  1  1  0  0  0
 17 11  1  0  0  0  0
 18 33  1  0  0  0  0
 19 22  1  0  0  0  0
 20 23  2  0  0  0  0
 21 19  2  0  0  0  0
 21 20  1  0  0  0  0
 22 18  2  0  0  0  0
 23 18  1  0  0  0  0
 24 35  1  6  0  0  0
 24 30  1  0  0  0  0
 25 31  2  0  0  0  0
 26 30  2  0  0  0  0
 27 32  1  0  0  0  0
 27 24  1  0  0  0  0
 29 26  1  0  0  0  0
 30 28  1  0  0  0  0
 31 34  1  0  0  0  0
 32 29  2  0  0  0  0
 33 31  1  0  0  0  0
 34 32  1  0  0  0  0
 35 37  1  0  0  0  0
 36 39  1  0  0  0  0
 38 36  1  0  0  0  0
 38 35  2  0  0  0  0
 39 37  2  0  0  0  0
 40 41  1  6  0  0  0
 40  1  1  0  0  0  0
 41 42  1  0  0  0  0
 43 40  1  0  0  0  0
 43 45  1  0  0  0  0
 45 44  1  6  0  0  0
 46 45  1  0  0  0  0
 46 48  1  0  0  0  0
 48 47  1  1  0  0  0
 49 48  1  1  0  0  0
 49 55  1  0  0  0  0
 50 52  1  6  0  0  0
 50 54  1  0  0  0  0
 50 49  1  0  0  0  0
 53 55  1  0  0  0  0
 53 57  1  1  0  0  0
 54 51  1  6  0  0  0
 54 53  1  0  0  0  0
 57 56  1  0  0  0  0
 58 54  1  0  0  0  0
 59 58  1  0  0  0  0
 60 59  1  0  0  0  0
M  END
>  <MODEL>
3

>  <REMARK>
 VINA RESULT:      -6.0      1.437      2.296
  Name = 
  16 active torsions:
  status: ('A' for Active; 'I' for Inactive)
    1  A    between atoms: C_1  and  C_58
    2  A    between atoms: C_2  and  C_15
    3  A    between atoms: C_2  and  C_33
    4  A    between atoms: C_2  and  C_41
    5  A    between atoms: C_3  and  C_11
    6  A    between atoms: N_6  and  C_58
    7  A    between atoms: N_8  and  C_15
    8  A    between atoms: C_9  and  C_53
    9  A    between atoms: C_13  and  N_47
   10  A    between atoms: C_15  and  C_35
   11  A    between atoms: C_25  and  C_27
   12  A    between atoms: C_25  and  N_45
   13  A    between atoms: C_30  and  C_46
   14  A    between atoms: C_41  and  C_57
   15  A    between atoms: N_45  and  C_57
   16  A    between atoms: C_50  and  C_53
                            x       y       z     vdW  Elec       q    Type
                         _______ _______ _______ _____ _____    ______ ____

>  <TORSDO>
F 16

$$$$
=
 OpenBabel10222417433D

 60 64  0  0  1  0  0  0  0  0999 V2000
  188.5480  176.5010  136.6980 C   0  0  1  0  0  3  0  0  0  0  0  0
  189.1070  177.3560  140.3780 N   0  0  0  0  0  2  0  0  0  0  0  0
  189.6650  177.8950  142.7190 N   0  0  0  0  0  2  0  0  0  0  0  0
  188.3360  176.7420  138.1210 N   0  0  0  0  0  2  0  0  0  0  0  0
  189.3960  177.1140  138.9980 C   0  0  0  0  0  0  0  0  0  0  0  0
  191.3150  177.4000  141.1510 O   0  0  0  0  0  0  0  0  0  0  0  0
  190.0890  177.5490  141.4010 C   0  0  0  0  0  0  0  0  0  0  0  0
  190.5720  177.2300  138.5570 O   0  0  0  0  0  0  0  0  0  0  0  0
  190.3940  179.1930  144.5170 O   0  0  0  0  0  1  0  0  0  0  0  0
  190.5940  177.9890  143.8370 C   0  0  1  0  0  3  0  0  0  0  0  0
  190.4460  176.7770  144.7720 C   0  0  1  0  0  3  0  0  0  0  0  0
  190.9420  176.5560  147.1550 C   0  0  0  0  0  2  0  0  0  0  0  0
  191.5790  176.7580  145.7890 C   0  0  0  0  0  2  0  0  0  0  0  0
  189.3850  178.4730  147.3610 C   0  0  0  0  0  1  0  0  0  0  0  0
  188.1100  177.5070  145.0850 O   0  0  0  0  0  1  0  0  0  0  0  0
  189.4900  176.9870  147.0290 C   0  0  1  0  0  3  0  0  0  0  0  0
  189.1380  176.6910  145.5770 C   0  0  2  0  0  3  0  0  0  0  0  0
  191.5180  173.4460  136.0140 C   0  0  0  0  0  0  0  0  0  0  0  0
  190.6820  175.6960  135.6640 C   0  0  0  0  0  3  0  0  0  0  0  0
  189.4260  174.1460  137.0360 C   0  0  0  0  0  3  0  0  0  0  0  0
  189.5690  175.4210  136.4670 C   0  0  0  0  0  0  0  0  0  0  0  0
  191.6490  174.7130  135.4380 C   0  0  0  0  0  3  0  0  0  0  0  0
  190.3980  173.1660  136.8100 C   0  0  0  0  0  3  0  0  0  0  0  0
  196.7350  172.4050  134.6170 C   0  0  2  0  0  3  0  0  0  0  0  0
  191.2580  170.8820  134.5940 O   0  0  0  0  0  0  0  0  0  0  0  0
  197.1850  170.0500  135.1820 C   0  0  0  0  0  3  0  0  0  0  0  0
  195.3110  172.1770  135.1370 C   0  0  0  0  0  2  0  0  0  0  0  0
  199.0320  171.5070  135.1550 O   0  0  0  0  0  1  0  0  0  0  0  0
  195.7800  169.7870  135.0480 N   0  0  0  0  0  0  0  0  0  0  0  0
  197.6660  171.2870  135.0260 C   0  0  0  0  0  0  0  0  0  0  0  0
  192.3850  171.2430  135.0170 C   0  0  0  0  0  0  0  0  0  0  0  0
  194.8900  170.7350  134.9810 C   0  0  0  0  0  0  0  0  0  0  0  0
  192.5310  172.4650  135.7590 N   0  0  0  0  0  2  0  0  0  0  0  0
  193.5110  170.3810  134.8080 N   0  0  0  0  0  2  0  0  0  0  0  0
  197.2350  173.7530  135.0420 C   0  0  0  0  0  0  0  0  0  0  0  0
  198.5700  175.2890  135.7880 O   0  0  0  0  0  0  0  0  0  0  0  0
  196.3840  174.9790  135.0690 C   0  0  0  0  0  3  0  0  0  0  0  0
  198.4380  173.9670  135.4510 N   0  0  0  0  0  0  0  0  0  0  0  0
  197.3730  176.0300  135.5840 C   0  0  0  0  0  3  0  0  0  0  0  0
  187.2150  176.2960  135.9690 C   0  0  2  0  0  3  0  0  0  0  0  0
  186.8790  177.3380  134.8980 C   0  0  0  0  0  2  0  0  0  0  0  0
  185.4290  177.7930  134.9480 C   0  0  0  0  0  1  0  0  0  0  0  0
  186.0610  176.0070  136.9220 C   0  0  0  0  0  2  0  0  0  0  0  0
  185.4470  174.1270  135.4410 C   0  0  0  0  0  1  0  0  0  0  0  0
  185.7040  174.5340  136.8810 C   0  0  2  0  0  3  0  0  0  0  0  0
  184.5040  174.3030  137.6730 N   0  0  0  0  0  2  0  0  0  0  0  0
  182.8460  172.8440  136.9320 O   0  0  0  0  0  1  0  0  0  0  0  0
  183.3930  174.1180  136.7500 C   0  0  1  0  0  3  0  0  0  0  0  0
  182.3270  175.1820  136.9930 C   0  0  1  0  0  3  0  0  0  0  0  0
  180.9840  174.5310  137.2850 C   0  0  2  0  0  3  0  0  0  0  0  0
  179.6940  176.1900  138.4050 F   0  0  0  0  0  0  0  0  0  0  0  0
  180.0710  174.8250  136.2710 O   0  0  0  0  0  1  0  0  0  0  0  0
  181.8860  175.6150  139.1600 C   0  0  1  0  0  3  0  0  0  0  0  0
  180.5630  175.1250  138.6060 C   0  0  2  0  0  0  0  0  0  0  0  0
  182.6940  176.0030  138.0800 O   0  0  0  0  0  0  0  0  0  0  0  0
  182.7980  177.8040  139.9310 C   0  0  0  0  0  1  0  0  0  0  0  0
  181.7240  176.7570  140.1560 C   0  0  0  0  0  2  0  0  0  0  0  0
  179.8910  174.0870  139.5150 C   0  0  0  0  0  2  0  0  0  0  0  0
  179.2250  174.6830  140.7540 C   0  0  0  0  0  2  0  0  0  0  0  0
  179.2090  173.6770  141.8910 C   0  0  0  0  0  1  0  0  0  0  0  0
  1  4  1  1  0  0  0
  2  7  1  0  0  0  0
  3 10  1  0  0  0  0
  4  5  1  0  0  0  0
  5  2  1  0  0  0  0
  6  7  2  0  0  0  0
  7  3  1  0  0  0  0
  8  5  2  0  0  0  0
 10  9  1  1  0  0  0
 11 10  1  1  0  0  0
 11 17  1  0  0  0  0
 11 13  1  0  0  0  0
 13 12  1  0  0  0  0
 16 12  1  0  0  0  0
 16 14  1  6  0  0  0
 17 15  1  6  0  0  0
 17 16  1  0  0  0  0
 18 23  1  0  0  0  0
 19 21  2  0  0  0  0
 21  1  1  0  0  0  0
 21 20  1  0  0  0  0
 22 19  1  0  0  0  0
 22 18  2  0  0  0  0
 23 20  2  0  0  0  0
 24 30  1  0  0  0  0
 24 35  1  1  0  0  0
 24 27  1  0  0  0  0
 25 31  2  0  0  0  0
 29 26  1  0  0  0  0
 30 28  1  0  0  0  0
 30 26  2  0  0  0  0
 31 33  1  0  0  0  0
 32 29  2  0  0  0  0
 32 27  1  0  0  0  0
 33 18  1  0  0  0  0
 34 32  1  0  0  0  0
 34 31  1  0  0  0  0
 35 37  1  0  0  0  0
 35 38  2  0  0  0  0
 37 39  2  0  0  0  0
 38 36  1  0  0  0  0
 39 36  1  0  0  0  0
 40 41  1  1  0  0  0
 40  1  1  0  0  0  0
 40 43  1  0  0  0  0
 41 42  1  0  0  0  0
 45 44  1  6  0  0  0
 45 43  1  0  0  0  0
 45 46  1  0  0  0  0
 48 47  1  1  0  0  0
 48 46  1  0  0  0  0
 49 48  1  1  0  0  0
 49 50  1  0  0  0  0
 49 55  1  0  0  0  0
 50 52  1  6  0  0  0
 50 54  1  0  0  0  0
 53 57  1  1  0  0  0
 54 51  1  6  0  0  0
 54 53  1  0  0  0  0
 54 58  1  0  0  0  0
 55 53  1  0  0  0  0
 56 57  1  0  0  0  0
 58 59  1  0  0  0  0
 59 60  1  0  0  0  0
M  END
>  <MODEL>
4

>  <REMARK>
 VINA RESULT:      -5.7      5.020      9.196
  Name = 
  16 active torsions:
  status: ('A' for Active; 'I' for Inactive)
    1  A    between atoms: C_1  and  C_58
    2  A    between atoms: C_2  and  C_15
    3  A    between atoms: C_2  and  C_33
    4  A    between atoms: C_2  and  C_41
    5  A    between atoms: C_3  and  C_11
    6  A    between atoms: N_6  and  C_58
    7  A    between atoms: N_8  and  C_15
    8  A    between atoms: C_9  and  C_53
    9  A    between atoms: C_13  and  N_47
   10  A    between atoms: C_15  and  C_35
   11  A    between atoms: C_25  and  C_27
   12  A    between atoms: C_25  and  N_45
   13  A    between atoms: C_30  and  C_46
   14  A    between atoms: C_41  and  C_57
   15  A    between atoms: N_45  and  C_57
   16  A    between atoms: C_50  and  C_53
                            x       y       z     vdW  Elec       q    Type
                         _______ _______ _______ _____ _____    ______ ____

>  <TORSDO>
F 16

$$$$
=
 OpenBabel10222417433D

 60 64  0  0  1  0  0  0  0  0999 V2000
  190.7440  176.5260  137.8620 C   0  0  1  0  0  3  0  0  0  0  0  0
  193.6930  174.1810  137.2390 N   0  0  0  0  0  2  0  0  0  0  0  0
  195.5690  172.6960  136.6410 N   0  0  0  0  0  2  0  0  0  0  0  0
  191.8070  175.5450  138.0450 N   0  0  0  0  0  2  0  0  0  0  0  0
  192.6570  175.1320  136.9780 C   0  0  0  0  0  0  0  0  0  0  0  0
  194.2380  173.7020  135.0150 O   0  0  0  0  0  0  0  0  0  0  0  0
  194.4910  173.5400  136.2390 C   0  0  0  0  0  0  0  0  0  0  0  0
  192.4940  175.6050  135.8200 O   0  0  0  0  0  0  0  0  0  0  0  0
  195.5400  171.5590  134.6030 O   0  0  0  0  0  1  0  0  0  0  0  0
  196.3460  171.9170  135.6870 C   0  0  1  0  0  3  0  0  0  0  0  0
  197.5930  172.6950  135.2340 C   0  0  1  0  0  3  0  0  0  0  0  0
  198.2680  174.9970  135.6990 C   0  0  0  0  0  2  0  0  0  0  0  0
  197.2340  174.1510  134.9710 C   0  0  0  0  0  2  0  0  0  0  0  0
  198.0520  174.2770  138.0600 C   0  0  0  0  0  1  0  0  0  0  0  0
  198.7190  171.7170  137.1990 O   0  0  0  0  0  1  0  0  0  0  0  0
  198.8700  174.1160  136.7820 C   0  0  1  0  0  3  0  0  0  0  0  0
  198.7810  172.7080  136.2090 C   0  0  2  0  0  3  0  0  0  0  0  0
  187.0250  174.7100  136.6410 C   0  0  0  0  0  0  0  0  0  0  0  0
  188.3140  176.6650  137.2730 C   0  0  0  0  0  3  0  0  0  0  0  0
  189.3760  174.4900  137.2200 C   0  0  0  0  0  3  0  0  0  0  0  0
  189.4560  175.8730  137.4420 C   0  0  0  0  0  0  0  0  0  0  0  0
  187.1060  176.0860  136.8770 C   0  0  0  0  0  3  0  0  0  0  0  0
  188.1650  173.9140  136.8190 C   0  0  0  0  0  3  0  0  0  0  0  0
  181.6380  174.1880  137.6240 C   0  0  2  0  0  3  0  0  0  0  0  0
  186.4780  172.0230  135.5740 O   0  0  0  0  0  0  0  0  0  0  0  0
  180.6040  173.3100  135.5670 C   0  0  0  0  0  3  0  0  0  0  0  0
  182.9790  174.1300  136.8820 C   0  0  0  0  0  2  0  0  0  0  0  0
  179.2270  174.5800  136.9910 O   0  0  0  0  0  1  0  0  0  0  0  0
  181.8720  172.7330  135.2190 N   0  0  0  0  0  0  0  0  0  0  0  0
  180.4690  174.0400  136.6790 C   0  0  0  0  0  0  0  0  0  0  0  0
  185.5240  172.8180  135.7640 C   0  0  0  0  0  0  0  0  0  0  0  0
  182.9800  173.0500  135.8260 C   0  0  0  0  0  0  0  0  0  0  0  0
  185.7680  174.1540  136.2360 N   0  0  0  0  0  2  0  0  0  0  0  0
  184.1950  172.3940  135.4380 N   0  0  0  0  0  2  0  0  0  0  0  0
  181.5550  175.4350  138.4510 C   0  0  0  0  0  0  0  0  0  0  0  0
  181.1350  176.7450  140.1260 O   0  0  0  0  0  0  0  0  0  0  0  0
  181.9510  176.7850  137.9530 C   0  0  0  0  0  3  0  0  0  0  0  0
  181.1060  175.4570  139.6590 N   0  0  0  0  0  0  0  0  0  0  0  0
  181.6530  177.6650  139.1710 C   0  0  0  0  0  3  0  0  0  0  0  0
  190.6320  177.4520  139.0790 C   0  0  2  0  0  3  0  0  0  0  0  0
  191.9130  177.6250  139.9000 C   0  0  0  0  0  2  0  0  0  0  0  0
  191.7890  177.0830  141.3150 C   0  0  0  0  0  1  0  0  0  0  0  0
  189.3990  177.1600  139.9270 C   0  0  0  0  0  2  0  0  0  0  0  0
  189.1900  179.1090  141.4320 C   0  0  0  0  0  1  0  0  0  0  0  0
  188.6290  178.4400  140.1900 C   0  0  2  0  0  3  0  0  0  0  0  0
  187.2220  178.1270  140.3990 N   0  0  0  0  0  2  0  0  0  0  0  0
  185.7810  179.7180  141.3020 O   0  0  0  0  0  1  0  0  0  0  0  0
  186.7930  178.8060  141.6140 C   0  0  1  0  0  3  0  0  0  0  0  0
  186.2840  177.7900  142.6310 C   0  0  1  0  0  3  0  0  0  0  0  0
  187.3630  177.4770  143.6560 C   0  0  2  0  0  3  0  0  0  0  0  0
  186.2200  176.5830  145.5430 F   0  0  0  0  0  0  0  0  0  0  0  0
  187.7630  176.1430  143.5470 O   0  0  0  0  0  1  0  0  0  0  0  0
  185.5640  178.6670  144.5790 C   0  0  1  0  0  3  0  0  0  0  0  0
  186.7070  177.7570  144.9840 C   0  0  2  0  0  0  0  0  0  0  0  0
  185.1430  178.2910  143.2930 O   0  0  0  0  0  0  0  0  0  0  0  0
  183.0820  178.6580  144.8180 C   0  0  0  0  0  1  0  0  0  0  0  0
  184.4030  178.6320  145.5640 C   0  0  0  0  0  2  0  0  0  0  0  0
  187.6720  178.4270  145.9720 C   0  0  0  0  0  2  0  0  0  0  0  0
  188.7640  177.4970  146.5020 C   0  0  0  0  0  2  0  0  0  0  0  0
  188.3500  176.8850  147.8270 C   0  0  0  0  0  1  0  0  0  0  0  0
  1  4  1  1  0  0  0
  1 40  1  0  0  0  0
  5  2  1  0  0  0  0
  5  4  1  0  0  0  0
  6  7  2  0  0  0  0
  7  3  1  0  0  0  0
  7  2  1  0  0  0  0
  8  5  2  0  0  0  0
 10  9  1  6  0  0  0
 10  3  1  0  0  0  0
 11 10  1  1  0  0  0
 11 17  1  0  0  0  0
 12 16  1  0  0  0  0
 13 11  1  0  0  0  0
 13 12  1  0  0  0  0
 16 14  1  1  0  0  0
 17 16  1  0  0  0  0
 17 15  1  1  0  0  0
 18 23  2  0  0  0  0
 18 22  1  0  0  0  0
 19 21  1  0  0  0  0
 20 21  2  0  0  0  0
 21  1  1  0  0  0  0
 22 19  2  0  0  0  0
 23 20  1  0  0  0  0
 24 35  1  6  0  0  0
 25 31  2  0  0  0  0
 26 30  2  0  0  0  0
 27 24  1  0  0  0  0
 29 26  1  0  0  0  0
 29 32  2  0  0  0  0
 30 28  1  0  0  0  0
 30 24  1  0  0  0  0
 31 33  1  0  0  0  0
 32 27  1  0  0  0  0
 33 18  1  0  0  0  0
 34 31  1  0  0  0  0
 34 32  1  0  0  0  0
 35 38  2  0  0  0  0
 37 35  1  0  0  0  0
 37 39  2  0  0  0  0
 38 36  1  0  0  0  0
 39 36  1  0  0  0  0
 40 41  1  1  0  0  0
 40 43  1  0  0  0  0
 41 42  1  0  0  0  0
 43 45  1  0  0  0  0
 45 46  1  0  0  0  0
 45 44  1  1  0  0  0
 46 48  1  0  0  0  0
 48 47  1  6  0  0  0
 49 48  1  6  0  0  0
 49 55  1  0  0  0  0
 49 50  1  0  0  0  0
 50 52  1  1  0  0  0
 50 54  1  0  0  0  0
 53 54  1  0  0  0  0
 53 57  1  1  0  0  0
 54 51  1  1  0  0  0
 54 58  1  0  0  0  0
 55 53  1  0  0  0  0
 56 57  1  0  0  0  0
 58 59  1  0  0  0  0
 59 60  1  0  0  0  0
M  END
>  <MODEL>
5

>  <REMARK>
 VINA RESULT:      -5.6      4.914     11.950
  Name = 
  16 active torsions:
  status: ('A' for Active; 'I' for Inactive)
    1  A    between atoms: C_1  and  C_58
    2  A    between atoms: C_2  and  C_15
    3  A    between atoms: C_2  and  C_33
    4  A    between atoms: C_2  and  C_41
    5  A    between atoms: C_3  and  C_11
    6  A    between atoms: N_6  and  C_58
    7  A    between atoms: N_8  and  C_15
    8  A    between atoms: C_9  and  C_53
    9  A    between atoms: C_13  and  N_47
   10  A    between atoms: C_15  and  C_35
   11  A    between atoms: C_25  and  C_27
   12  A    between atoms: C_25  and  N_45
   13  A    between atoms: C_30  and  C_46
   14  A    between atoms: C_41  and  C_57
   15  A    between atoms: N_45  and  C_57
   16  A    between atoms: C_50  and  C_53
                            x       y       z     vdW  Elec       q    Type
                         _______ _______ _______ _____ _____    ______ ____

>  <TORSDO>
F 16

$$$$
=
 OpenBabel10222417433D

 60 64  0  0  1  0  0  0  0  0999 V2000
  188.6190  176.9850  137.2120 C   0  0  1  0  0  3  0  0  0  0  0  0
  188.7040  177.4520  141.0010 N   0  0  0  0  0  2  0  0  0  0  0  0
  188.9580  177.7380  143.4370 N   0  0  0  0  0  2  0  0  0  0  0  0
  188.2250  177.0920  138.6120 N   0  0  0  0  0  2  0  0  0  0  0  0
  189.1680  177.3370  139.6530 C   0  0  0  0  0  0  0  0  0  0  0  0
  190.7900  177.3400  142.0540 O   0  0  0  0  0  0  0  0  0  0  0  0
  189.5450  177.5080  142.1570 C   0  0  0  0  0  0  0  0  0  0  0  0
  190.3940  177.4540  139.3820 O   0  0  0  0  0  0  0  0  0  0  0  0
  190.2220  178.9600  144.9720 O   0  0  0  0  0  1  0  0  0  0  0  0
  189.7320  177.6870  144.6700 C   0  0  1  0  0  3  0  0  0  0  0  0
  188.8870  177.1160  145.8220 C   0  0  1  0  0  3  0  0  0  0  0  0
  187.3400  178.2370  147.3460 C   0  0  0  0  0  2  0  0  0  0  0  0
  188.8080  178.1230  146.9610 C   0  0  0  0  0  2  0  0  0  0  0  0
  186.2400  178.9500  145.2430 C   0  0  0  0  0  1  0  0  0  0  0  0
  187.1920  176.5960  144.1060 O   0  0  0  0  0  1  0  0  0  0  0  0
  186.5350  177.7570  146.1490 C   0  0  1  0  0  3  0  0  0  0  0  0
  187.4390  176.7300  145.4800 C   0  0  2  0  0  3  0  0  0  0  0  0
  191.3120  173.6760  136.5650 C   0  0  0  0  0  0  0  0  0  0  0  0
  190.8750  176.0610  136.6390 C   0  0  0  0  0  3  0  0  0  0  0  0
  189.0880  174.4950  137.1090 C   0  0  0  0  0  3  0  0  0  0  0  0
  189.5400  175.8180  136.9850 C   0  0  0  0  0  0  0  0  0  0  0  0
  191.7540  174.9960  136.4280 C   0  0  0  0  0  3  0  0  0  0  0  0
  189.9730  173.4310  136.9010 C   0  0  0  0  0  3  0  0  0  0  0  0
  196.5680  172.0970  136.2050 C   0  0  2  0  0  3  0  0  0  0  0  0
  191.1480  171.4910  134.6010 O   0  0  0  0  0  0  0  0  0  0  0  0
  196.6000  169.6360  136.3330 C   0  0  0  0  0  3  0  0  0  0  0  0
  195.0430  172.0060  136.3240 C   0  0  0  0  0  2  0  0  0  0  0  0
  198.5400  170.7630  137.0460 O   0  0  0  0  0  1  0  0  0  0  0  0
  195.2560  169.6280  135.8280 N   0  0  0  0  0  0  0  0  0  0  0  0
  197.2360  170.7890  136.5630 C   0  0  0  0  0  0  0  0  0  0  0  0
  192.1620  171.5840  135.3390 C   0  0  0  0  0  0  0  0  0  0  0  0
  194.5220  170.7020  135.7660 C   0  0  0  0  0  0  0  0  0  0  0  0
  192.2440  172.6110  136.3410 N   0  0  0  0  0  2  0  0  0  0  0  0
  193.2030  170.6080  135.2110 N   0  0  0  0  0  2  0  0  0  0  0  0
  197.0860  173.2470  137.0150 C   0  0  0  0  0  0  0  0  0  0  0  0
  198.3920  174.8400  137.6900 O   0  0  0  0  0  0  0  0  0  0  0  0
  196.3950  173.7830  138.2250 C   0  0  0  0  0  3  0  0  0  0  0  0
  198.1900  173.8580  136.7540 N   0  0  0  0  0  0  0  0  0  0  0  0
  197.3440  174.9070  138.6510 C   0  0  0  0  0  3  0  0  0  0  0  0
  187.3940  177.0300  136.2900 C   0  0  2  0  0  3  0  0  0  0  0  0
  187.3140  178.2400  135.3550 C   0  0  0  0  0  2  0  0  0  0  0  0
  187.0550  179.5440  136.0930 C   0  0  0  0  0  1  0  0  0  0  0  0
  186.0920  176.7410  137.0270 C   0  0  0  0  0  2  0  0  0  0  0  0
  184.8960  176.0830  134.9680 C   0  0  0  0  0  1  0  0  0  0  0  0
  185.3400  175.6160  136.3420 C   0  0  2  0  0  3  0  0  0  0  0  0
  184.1720  175.2590  137.1350 N   0  0  0  0  0  2  0  0  0  0  0  0
  182.3280  175.0770  135.7230 O   0  0  0  0  0  1  0  0  0  0  0  0
  183.0230  175.9500  136.5660 C   0  0  1  0  0  3  0  0  0  0  0  0
  182.1020  176.4410  137.6790 C   0  0  1  0  0  3  0  0  0  0  0  0
  182.9190  176.9740  138.8470 C   0  0  2  0  0  3  0  0  0  0  0  0
  181.4450  178.3910  140.0680 F   0  0  0  0  0  0  0  0  0  0  0  0
  182.7280  176.1760  139.9760 O   0  0  0  0  0  1  0  0  0  0  0  0
  181.7520  178.6670  137.7160 C   0  0  1  0  0  3  0  0  0  0  0  0
  182.3970  178.3730  139.0560 C   0  0  2  0  0  0  0  0  0  0  0  0
  181.2540  177.4610  137.1970 O   0  0  0  0  0  0  0  0  0  0  0  0
  181.2360  181.1050  137.6330 C   0  0  0  0  0  1  0  0  0  0  0  0
  180.6510  179.7160  137.8060 C   0  0  0  0  0  2  0  0  0  0  0  0
  183.5210  179.3610  139.3990 C   0  0  0  0  0  2  0  0  0  0  0  0
  184.8020  178.6950  139.9000 C   0  0  0  0  0  2  0  0  0  0  0  0
  184.8390  178.6770  141.4170 C   0  0  0  0  0  1  0  0  0  0  0  0
  1  4  1  1  0  0  0
  2  7  1  0  0  0  0
  3 10  1  0  0  0  0
  4  5  1  0  0  0  0
  5  2  1  0  0  0  0
  6  7  2  0  0  0  0
  7  3  1  0  0  0  0
  8  5  2  0  0  0  0
 10  9  1  1  0  0  0
 11 10  1  6  0  0  0
 11 13  1  0  0  0  0
 13 12  1  0  0  0  0
 16 14  1  6  0  0  0
 16 12  1  0  0  0  0
 17 15  1  6  0  0  0
 17 11  1  0  0  0  0
 17 16  1  0  0  0  0
 18 23  1  0  0  0  0
 19 21  2  0  0  0  0
 21 20  1  0  0  0  0
 21  1  1  0  0  0  0
 22 18  2  0  0  0  0
 22 19  1  0  0  0  0
 23 20  2  0  0  0  0
 24 27  1  0  0  0  0
 24 30  1  0  0  0  0
 24 35  1  1  0  0  0
 25 31  2  0  0  0  0
 26 30  2  0  0  0  0
 29 26  1  0  0  0  0
 30 28  1  0  0  0  0
 31 33  1  0  0  0  0
 32 29  2  0  0  0  0
 32 27  1  0  0  0  0
 33 18  1  0  0  0  0
 34 31  1  0  0  0  0
 34 32  1  0  0  0  0
 35 37  1  0  0  0  0
 36 39  1  0  0  0  0
 37 39  2  0  0  0  0
 38 35  2  0  0  0  0
 38 36  1  0  0  0  0
 40 41  1  1  0  0  0
 40 43  1  0  0  0  0
 40  1  1  0  0  0  0
 41 42  1  0  0  0  0
 45 44  1  6  0  0  0
 45 43  1  0  0  0  0
 45 46  1  0  0  0  0
 48 47  1  6  0  0  0
 48 46  1  0  0  0  0
 49 48  1  6  0  0  0
 49 50  1  0  0  0  0
 50 54  1  0  0  0  0
 50 52  1  1  0  0  0
 53 57  1  1  0  0  0
 53 54  1  0  0  0  0
 54 58  1  0  0  0  0
 54 51  1  1  0  0  0
 55 49  1  0  0  0  0
 55 53  1  0  0  0  0
 56 57  1  0  0  0  0
 58 59  1  0  0  0  0
 59 60  1  0  0  0  0
M  END
>  <MODEL>
6

>  <REMARK>
 VINA RESULT:      -5.6      4.803      8.765
  Name = 
  16 active torsions:
  status: ('A' for Active; 'I' for Inactive)
    1  A    between atoms: C_1  and  C_58
    2  A    between atoms: C_2  and  C_15
    3  A    between atoms: C_2  and  C_33
    4  A    between atoms: C_2  and  C_41
    5  A    between atoms: C_3  and  C_11
    6  A    between atoms: N_6  and  C_58
    7  A    between atoms: N_8  and  C_15
    8  A    between atoms: C_9  and  C_53
    9  A    between atoms: C_13  and  N_47
   10  A    between atoms: C_15  and  C_35
   11  A    between atoms: C_25  and  C_27
   12  A    between atoms: C_25  and  N_45
   13  A    between atoms: C_30  and  C_46
   14  A    between atoms: C_41  and  C_57
   15  A    between atoms: N_45  and  C_57
   16  A    between atoms: C_50  and  C_53
                            x       y       z     vdW  Elec       q    Type
                         _______ _______ _______ _____ _____    ______ ____

>  <TORSDO>
F 16

$$$$
=
 OpenBabel10222417433D

 60 64  0  0  1  0  0  0  0  0999 V2000
  187.4320  175.9180  137.3750 C   0  0  1  0  0  3  0  0  0  0  0  0
  183.7420  175.4170  136.5320 N   0  0  0  0  0  2  0  0  0  0  0  0
  181.3150  175.2140  136.1420 N   0  0  0  0  0  2  0  0  0  0  0  0
  186.1890  175.4080  136.8090 N   0  0  0  0  0  2  0  0  0  0  0  0
  184.9160  175.9540  137.1460 C   0  0  0  0  0  0  0  0  0  0  0  0
  182.1690  176.4490  137.9240 O   0  0  0  0  0  0  0  0  0  0  0  0
  182.3980  175.7330  136.9110 C   0  0  0  0  0  0  0  0  0  0  0  0
  184.8340  176.9020  137.9740 O   0  0  0  0  0  0  0  0  0  0  0  0
  179.3630  176.4530  135.8190 O   0  0  0  0  0  1  0  0  0  0  0  0
  179.9240  175.3920  136.5350 C   0  0  1  0  0  3  0  0  0  0  0  0
  179.1300  174.0900  136.3360 C   0  0  1  0  0  3  0  0  0  0  0  0
  179.8410  171.9330  135.4330 C   0  0  0  0  0  2  0  0  0  0  0  0
  179.5870  173.3870  135.0650 C   0  0  0  0  0  2  0  0  0  0  0  0
  181.5510  172.0750  137.2210 C   0  0  0  0  0  1  0  0  0  0  0  0
  179.7090  173.5680  138.6770 O   0  0  0  0  0  1  0  0  0  0  0  0
  180.0620  171.8950  136.9360 C   0  0  1  0  0  3  0  0  0  0  0  0
  179.2260  173.0520  137.4660 C   0  0  2  0  0  3  0  0  0  0  0  0
  190.7500  173.3650  136.3280 C   0  0  0  0  0  0  0  0  0  0  0  0
  188.4000  173.9470  136.1710 C   0  0  0  0  0  3  0  0  0  0  0  0
  189.8810  175.2820  137.5450 C   0  0  0  0  0  3  0  0  0  0  0  0
  188.6000  175.0360  137.0270 C   0  0  0  0  0  0  0  0  0  0  0  0
  189.4690  173.1150  135.8260 C   0  0  0  0  0  3  0  0  0  0  0  0
  190.9490  174.4500  137.1940 C   0  0  0  0  0  3  0  0  0  0  0  0
  196.0070  172.8410  134.7980 C   0  0  2  0  0  3  0  0  0  0  0  0
  190.6380  170.9850  134.6020 O   0  0  0  0  0  0  0  0  0  0  0  0
  196.6110  170.4670  135.0660 C   0  0  0  0  0  3  0  0  0  0  0  0
  194.6060  172.4600  135.2900 C   0  0  0  0  0  2  0  0  0  0  0  0
  198.3620  172.0320  135.2150 O   0  0  0  0  0  1  0  0  0  0  0  0
  195.2240  170.1330  134.9050 N   0  0  0  0  0  0  0  0  0  0  0  0
  197.0110  171.7430  135.0630 C   0  0  0  0  0  0  0  0  0  0  0  0
  191.7440  171.3620  135.0640 C   0  0  0  0  0  0  0  0  0  0  0  0
  194.2750  171.0240  134.9580 C   0  0  0  0  0  0  0  0  0  0  0  0
  191.8200  172.4900  135.9500 N   0  0  0  0  0  2  0  0  0  0  0  0
  192.9190  170.6060  134.7470 N   0  0  0  0  0  2  0  0  0  0  0  0
  196.4250  174.1550  135.3850 C   0  0  0  0  0  0  0  0  0  0  0  0
  197.0180  175.6340  136.8550 O   0  0  0  0  0  0  0  0  0  0  0  0
  196.5390  175.4160  134.5940 C   0  0  0  0  0  3  0  0  0  0  0  0
  196.6960  174.3200  136.6340 N   0  0  0  0  0  0  0  0  0  0  0  0
  196.9720  176.4180  135.6680 C   0  0  0  0  0  3  0  0  0  0  0  0
  187.6230  177.4030  137.0430 C   0  0  2  0  0  3  0  0  0  0  0  0
  187.9990  177.7130  135.5920 C   0  0  0  0  0  2  0  0  0  0  0  0
  189.4330  178.1960  135.4410 C   0  0  0  0  0  1  0  0  0  0  0  0
  188.4890  178.1270  138.0670 C   0  0  0  0  0  2  0  0  0  0  0  0
  186.7020  178.6160  139.7010 C   0  0  0  0  0  1  0  0  0  0  0  0
  187.9880  177.8450  139.4710 C   0  0  2  0  0  3  0  0  0  0  0  0
  188.9900  178.2690  140.4380 N   0  0  0  0  0  2  0  0  0  0  0  0
  191.1340  177.5320  140.9770 O   0  0  0  0  0  1  0  0  0  0  0  0
  189.8190  177.1120  140.7530 C   0  0  1  0  0  3  0  0  0  0  0  0
  189.2800  176.4020  141.9910 C   0  0  1  0  0  3  0  0  0  0  0  0
  190.4000  176.1550  142.9900 C   0  0  2  0  0  3  0  0  0  0  0  0
  189.3280  175.8270  145.0910 F   0  0  0  0  0  0  0  0  0  0  0  0
  190.6220  174.7850  143.1410 O   0  0  0  0  0  1  0  0  0  0  0  0
  188.8500  177.7450  143.7500 C   0  0  1  0  0  3  0  0  0  0  0  0
  189.9040  176.7860  144.2670 C   0  0  2  0  0  0  0  0  0  0  0  0
  188.2730  177.1800  142.6010 O   0  0  0  0  0  0  0  0  0  0  0  0
  186.4020  177.9160  144.1880 C   0  0  0  0  0  1  0  0  0  0  0  0
  187.7860  178.0710  144.7890 C   0  0  0  0  0  2  0  0  0  0  0  0
  191.0280  177.5000  145.0300 C   0  0  0  0  0  2  0  0  0  0  0  0
  190.9020  177.4110  146.5500 C   0  0  0  0  0  2  0  0  0  0  0  0
  191.8810  176.3960  147.1110 C   0  0  0  0  0  1  0  0  0  0  0  0
  1  4  1  6  0  0  0
  2  7  1  0  0  0  0
  2  5  1  0  0  0  0
  3 10  1  0  0  0  0
  3  7  1  0  0  0  0
  4  5  1  0  0  0  0
  5  8  2  0  0  0  0
  7  6  2  0  0  0  0
 10  9  1  6  0  0  0
 11 10  1  1  0  0  0
 11 17  1  0  0  0  0
 12 16  1  0  0  0  0
 13 12  1  0  0  0  0
 13 11  1  0  0  0  0
 16 14  1  6  0  0  0
 16 17  1  0  0  0  0
 17 15  1  1  0  0  0
 18 23  1  0  0  0  0
 19 21  2  0  0  0  0
 21  1  1  0  0  0  0
 21 20  1  0  0  0  0
 22 19  1  0  0  0  0
 22 18  2  0  0  0  0
 23 20  2  0  0  0  0
 24 30  1  0  0  0  0
 24 27  1  0  0  0  0
 24 35  1  1  0  0  0
 25 31  2  0  0  0  0
 29 32  2  0  0  0  0
 29 26  1  0  0  0  0
 30 26  2  0  0  0  0
 30 28  1  0  0  0  0
 31 33  1  0  0  0  0
 32 27  1  0  0  0  0
 33 18  1  0  0  0  0
 34 32  1  0  0  0  0
 34 31  1  0  0  0  0
 35 38  2  0  0  0  0
 37 35  1  0  0  0  0
 37 39  2  0  0  0  0
 38 36  1  0  0  0  0
 39 36  1  0  0  0  0
 40 41  1  6  0  0  0
 40  1  1  0  0  0  0
 40 43  1  0  0  0  0
 42 41  1  0  0  0  0
 43 45  1  0  0  0  0
 45 44  1  1  0  0  0
 45 46  1  0  0  0  0
 46 48  1  0  0  0  0
 48 47  1  1  0  0  0
 49 48  1  6  0  0  0
 49 55  1  0  0  0  0
 49 50  1  0  0  0  0
 50 52  1  1  0  0  0
 50 54  1  0  0  0  0
 53 54  1  0  0  0  0
 53 57  1  1  0  0  0
 54 58  1  0  0  0  0
 54 51  1  1  0  0  0
 55 53  1  0  0  0  0
 56 57  1  0  0  0  0
 58 59  1  0  0  0  0
 59 60  1  0  0  0  0
M  END
>  <MODEL>
7

>  <REMARK>
 VINA RESULT:      -5.4      4.877      9.711
  Name = 
  16 active torsions:
  status: ('A' for Active; 'I' for Inactive)
    1  A    between atoms: C_1  and  C_58
    2  A    between atoms: C_2  and  C_15
    3  A    between atoms: C_2  and  C_33
    4  A    between atoms: C_2  and  C_41
    5  A    between atoms: C_3  and  C_11
    6  A    between atoms: N_6  and  C_58
    7  A    between atoms: N_8  and  C_15
    8  A    between atoms: C_9  and  C_53
    9  A    between atoms: C_13  and  N_47
   10  A    between atoms: C_15  and  C_35
   11  A    between atoms: C_25  and  C_27
   12  A    between atoms: C_25  and  N_45
   13  A    between atoms: C_30  and  C_46
   14  A    between atoms: C_41  and  C_57
   15  A    between atoms: N_45  and  C_57
   16  A    between atoms: C_50  and  C_53
                            x       y       z     vdW  Elec       q    Type
                         _______ _______ _______ _____ _____    ______ ____

>  <TORSDO>
F 16

$$$$
=
 OpenBabel10222417433D

 60 64  0  0  1  0  0  0  0  0999 V2000
  188.7000  177.5280  137.0500 C   0  0  1  0  0  3  0  0  0  0  0  0
  184.8820  177.4980  136.9900 N   0  0  0  0  0  2  0  0  0  0  0  0
  182.4210  177.6100  137.1020 N   0  0  0  0  0  2  0  0  0  0  0  0
  187.3140  177.1690  136.7760 N   0  0  0  0  0  2  0  0  0  0  0  0
  186.2150  177.8960  137.3220 C   0  0  0  0  0  0  0  0  0  0  0  0
  183.7690  178.7880  138.5930 O   0  0  0  0  0  0  0  0  0  0  0  0
  183.6950  178.0080  137.6050 C   0  0  0  0  0  0  0  0  0  0  0  0
  186.4230  178.8780  138.0850 O   0  0  0  0  0  0  0  0  0  0  0  0
  180.9190  179.3450  137.5260 O   0  0  0  0  0  1  0  0  0  0  0  0
  181.1740  177.9900  137.7500 C   0  0  1  0  0  3  0  0  0  0  0  0
  180.0130  177.1060  137.2610 C   0  0  1  0  0  3  0  0  0  0  0  0
  179.9490  175.4370  135.4770 C   0  0  0  0  0  2  0  0  0  0  0  0
  180.0930  176.9260  135.7510 C   0  0  0  0  0  2  0  0  0  0  0  0
  181.8180  174.4250  136.7510 C   0  0  0  0  0  1  0  0  0  0  0  0
  180.6780  175.5280  139.0370 O   0  0  0  0  0  1  0  0  0  0  0  0
  180.3190  174.7170  136.7640 C   0  0  1  0  0  3  0  0  0  0  0  0
  179.9290  175.6950  137.8640 C   0  0  2  0  0  3  0  0  0  0  0  0
  189.6490  177.1550  141.2420 C   0  0  0  0  0  0  0  0  0  0  0  0
  189.4440  178.5000  139.2350 C   0  0  0  0  0  3  0  0  0  0  0  0
  188.9410  176.1330  139.1540 C   0  0  0  0  0  3  0  0  0  0  0  0
  189.0330  177.3760  138.5090 C   0  0  0  0  0  0  0  0  0  0  0  0
  189.7530  178.3890  140.5930 C   0  0  0  0  0  3  0  0  0  0  0  0
  189.2470  176.0270  140.5150 C   0  0  0  0  0  3  0  0  0  0  0  0
  188.1890  178.2880  146.4230 C   0  0  2  0  0  3  0  0  0  0  0  0
  192.2650  177.5520  142.5300 O   0  0  0  0  0  0  0  0  0  0  0  0
  189.6260  176.9360  147.8980 C   0  0  0  0  0  3  0  0  0  0  0  0
  188.9460  177.6670  145.2440 C   0  0  0  0  0  2  0  0  0  0  0  0
  187.5190  177.5540  148.7430 O   0  0  0  0  0  1  0  0  0  0  0  0
  190.6130  176.9120  146.8550 N   0  0  0  0  0  0  0  0  0  0  0  0
  188.4500  177.5430  147.7110 C   0  0  0  0  0  0  0  0  0  0  0  0
  191.2540  177.3300  143.2420 C   0  0  0  0  0  0  0  0  0  0  0  0
  190.3530  177.2800  145.6330 C   0  0  0  0  0  0  0  0  0  0  0  0
  189.9740  177.0810  142.6370 N   0  0  0  0  0  2  0  0  0  0  0  0
  191.4110  177.2600  144.6640 N   0  0  0  0  0  2  0  0  0  0  0  0
  186.7280  178.3940  146.1060 C   0  0  0  0  0  0  0  0  0  0  0  0
  184.6190  178.8370  146.3390 O   0  0  0  0  0  0  0  0  0  0  0  0
  186.1160  177.8770  144.8470 C   0  0  0  0  0  3  0  0  0  0  0  0
  185.8640  178.9150  146.9080 N   0  0  0  0  0  0  0  0  0  0  0  0
  184.6390  178.2270  145.0540 C   0  0  0  0  0  3  0  0  0  0  0  0
  189.6570  176.8080  136.0920 C   0  0  2  0  0  3  0  0  0  0  0  0
  189.0980  176.5130  134.6970 C   0  0  0  0  0  2  0  0  0  0  0  0
  188.4560  175.1390  134.5940 C   0  0  0  0  0  1  0  0  0  0  0  0
  190.3460  175.6120  136.7380 C   0  0  0  0  0  2  0  0  0  0  0  0
  191.2730  173.6930  135.4870 C   0  0  0  0  0  1  0  0  0  0  0  0
  191.5020  175.1430  135.8740 C   0  0  2  0  0  3  0  0  0  0  0  0
  192.7460  175.2570  136.6220 N   0  0  0  0  0  2  0  0  0  0  0  0
  194.0480  177.1880  136.6650 O   0  0  0  0  0  1  0  0  0  0  0  0
  193.6420  176.1180  135.8620 C   0  0  1  0  0  3  0  0  0  0  0  0
  194.8600  175.3260  135.3960 C   0  0  1  0  0  3  0  0  0  0  0  0
  195.9900  175.4470  136.4050 C   0  0  2  0  0  3  0  0  0  0  0  0
  197.4280  173.5960  135.9880 F   0  0  0  0  0  0  0  0  0  0  0  0
  197.0720  176.1280  135.8430 O   0  0  0  0  0  1  0  0  0  0  0  0
  195.0840  173.2850  136.3240 C   0  0  1  0  0  3  0  0  0  0  0  0
  196.3410  174.0200  136.7430 C   0  0  2  0  0  0  0  0  0  0  0  0
  194.5240  173.9650  135.2320 O   0  0  0  0  0  0  0  0  0  0  0  0
  194.2670  171.3100  135.0400 C   0  0  0  0  0  1  0  0  0  0  0  0
  195.3400  171.8220  135.9820 C   0  0  0  0  0  2  0  0  0  0  0  0
  196.6610  173.8440  138.2340 C   0  0  0  0  0  2  0  0  0  0  0  0
  195.6430  174.4950  139.1690 C   0  0  0  0  0  2  0  0  0  0  0  0
  196.3410  175.1630  140.3390 C   0  0  0  0  0  1  0  0  0  0  0  0
  1  4  1  1  0  0  0
  1 21  1  0  0  0  0
  2  5  1  0  0  0  0
  2  7  1  0  0  0  0
  3  7  1  0  0  0  0
  3 10  1  0  0  0  0
  4  5  1  0  0  0  0
  5  8  2  0  0  0  0
  7  6  2  0  0  0  0
 10  9  1  6  0  0  0
 11 10  1  1  0  0  0
 11 17  1  0  0  0  0
 12 13  1  0  0  0  0
 12 16  1  0  0  0  0
 13 11  1  0  0  0  0
 16 14  1  6  0  0  0
 16 17  1  0  0  0  0
 17 15  1  1  0  0  0
 18 33  1  0  0  0  0
 19 22  2  0  0  0  0
 20 23  1  0  0  0  0
 21 20  2  0  0  0  0
 21 19  1  0  0  0  0
 22 18  1  0  0  0  0
 23 18  2  0  0  0  0
 24 35  1  6  0  0  0
 24 30  1  0  0  0  0
 25 31  2  0  0  0  0
 27 32  1  0  0  0  0
 27 24  1  0  0  0  0
 29 26  1  0  0  0  0
 30 26  2  0  0  0  0
 30 28  1  0  0  0  0
 31 34  1  0  0  0  0
 32 29  2  0  0  0  0
 33 31  1  0  0  0  0
 34 32  1  0  0  0  0
 35 38  2  0  0  0  0
 36 38  1  0  0  0  0
 37 39  2  0  0  0  0
 37 35  1  0  0  0  0
 39 36  1  0  0  0  0
 40 41  1  6  0  0  0
 40 43  1  0  0  0  0
 40  1  1  0  0  0  0
 42 41  1  0  0  0  0
 45 44  1  1  0  0  0
 45 46  1  0  0  0  0
 45 43  1  0  0  0  0
 48 46  1  0  0  0  0
 48 47  1  1  0  0  0
 49 48  1  1  0  0  0
 49 50  1  0  0  0  0
 50 52  1  6  0  0  0
 50 54  1  0  0  0  0
 53 57  1  6  0  0  0
 53 54  1  0  0  0  0
 54 51  1  6  0  0  0
 54 58  1  0  0  0  0
 55 49  1  0  0  0  0
 55 53  1  0  0  0  0
 56 57  1  0  0  0  0
 58 59  1  0  0  0  0
 59 60  1  0  0  0  0
M  END
>  <MODEL>
8

>  <REMARK>
 VINA RESULT:      -5.2      4.209      7.536
  Name = 
  16 active torsions:
  status: ('A' for Active; 'I' for Inactive)
    1  A    between atoms: C_1  and  C_58
    2  A    between atoms: C_2  and  C_15
    3  A    between atoms: C_2  and  C_33
    4  A    between atoms: C_2  and  C_41
    5  A    between atoms: C_3  and  C_11
    6  A    between atoms: N_6  and  C_58
    7  A    between atoms: N_8  and  C_15
    8  A    between atoms: C_9  and  C_53
    9  A    between atoms: C_13  and  N_47
   10  A    between atoms: C_15  and  C_35
   11  A    between atoms: C_25  and  C_27
   12  A    between atoms: C_25  and  N_45
   13  A    between atoms: C_30  and  C_46
   14  A    between atoms: C_41  and  C_57
   15  A    between atoms: N_45  and  C_57
   16  A    between atoms: C_50  and  C_53
                            x       y       z     vdW  Elec       q    Type
                         _______ _______ _______ _____ _____    ______ ____

>  <TORSDO>
F 16

$$$$
=
 OpenBabel10222417433D

 60 64  0  0  1  0  0  0  0  0999 V2000
  188.1830  177.5070  136.7960 C   0  0  1  0  0  3  0  0  0  0  0  0
  184.4400  178.0410  137.3330 N   0  0  0  0  0  2  0  0  0  0  0  0
  182.0700  178.4980  137.8390 N   0  0  0  0  0  2  0  0  0  0  0  0
  186.7320  177.3870  136.7130 N   0  0  0  0  0  2  0  0  0  0  0  0
  185.8530  178.2010  137.4850 C   0  0  0  0  0  0  0  0  0  0  0  0
  183.7870  179.2960  139.1970 O   0  0  0  0  0  0  0  0  0  0  0  0
  183.4500  178.6480  138.1690 C   0  0  0  0  0  0  0  0  0  0  0  0
  186.3220  179.0530  138.2880 O   0  0  0  0  0  0  0  0  0  0  0  0
  180.4340  180.1330  138.1550 O   0  0  0  0  0  1  0  0  0  0  0  0
  181.0040  178.9830  138.7060 C   0  0  1  0  0  3  0  0  0  0  0  0
  179.9520  177.8860  138.9430 C   0  0  1  0  0  3  0  0  0  0  0  0
  180.0300  175.4940  138.4430 C   0  0  0  0  0  2  0  0  0  0  0  0
  179.9850  176.8750  137.8050 C   0  0  0  0  0  2  0  0  0  0  0  0
  182.0750  175.5640  139.8400 C   0  0  0  0  0  1  0  0  0  0  0  0
  180.9050  177.6840  141.2090 O   0  0  0  0  0  1  0  0  0  0  0  0
  180.5540  175.6830  139.8580 C   0  0  1  0  0  3  0  0  0  0  0  0
  180.0870  177.0800  140.2450 C   0  0  2  0  0  3  0  0  0  0  0  0
  189.6120  177.2290  140.8570 C   0  0  0  0  0  0  0  0  0  0  0  0
  189.8850  177.9860  138.5690 C   0  0  0  0  0  3  0  0  0  0  0  0
  187.9250  176.7050  139.1870 C   0  0  0  0  0  3  0  0  0  0  0  0
  188.6670  177.3940  138.2150 C   0  0  0  0  0  0  0  0  0  0  0  0
  190.3550  177.9010  139.8820 C   0  0  0  0  0  3  0  0  0  0  0  0
  188.3970  176.6270  140.5020 C   0  0  0  0  0  3  0  0  0  0  0  0
  188.7780  178.1620  146.2130 C   0  0  2  0  0  3  0  0  0  0  0  0
  192.3370  177.8310  141.7920 O   0  0  0  0  0  0  0  0  0  0  0  0
  190.5090  176.9170  147.4480 C   0  0  0  0  0  3  0  0  0  0  0  0
  189.4180  177.6240  144.9280 C   0  0  0  0  0  2  0  0  0  0  0  0
  188.4920  177.3420  148.5830 O   0  0  0  0  0  1  0  0  0  0  0  0
  191.3440  176.9920  146.2820 N   0  0  0  0  0  0  0  0  0  0  0  0
  189.2730  177.4240  147.4360 C   0  0  0  0  0  0  0  0  0  0  0  0
  191.4530  177.5130  142.6270 C   0  0  0  0  0  0  0  0  0  0  0  0
  190.8920  177.3530  145.1150 C   0  0  0  0  0  0  0  0  0  0  0  0
  190.1280  177.1640  142.1930 N   0  0  0  0  0  2  0  0  0  0  0  0
  191.8060  177.4380  144.0140 N   0  0  0  0  0  2  0  0  0  0  0  0
  187.2840  178.1460  146.0970 C   0  0  0  0  0  0  0  0  0  0  0  0
  185.1980  178.4610  146.5960 O   0  0  0  0  0  0  0  0  0  0  0  0
  186.5490  177.5040  144.9680 C   0  0  0  0  0  3  0  0  0  0  0  0
  186.4990  178.6630  146.9790 N   0  0  0  0  0  0  0  0  0  0  0  0
  185.0910  177.7660  145.3580 C   0  0  0  0  0  3  0  0  0  0  0  0
  188.8720  176.5650  135.8010 C   0  0  2  0  0  3  0  0  0  0  0  0
  188.0020  176.0760  134.6400 C   0  0  0  0  0  2  0  0  0  0  0  0
  187.2320  174.8080  134.9690 C   0  0  0  0  0  1  0  0  0  0  0  0
  189.6520  175.4520  136.4900 C   0  0  0  0  0  2  0  0  0  0  0  0
  191.4930  175.6350  134.8520 C   0  0  0  0  0  1  0  0  0  0  0  0
  191.1430  175.6780  136.3290 C   0  0  2  0  0  3  0  0  0  0  0  0
  191.8730  174.6330  137.0330 N   0  0  0  0  0  2  0  0  0  0  0  0
  193.4720  176.1650  137.7550 O   0  0  0  0  0  1  0  0  0  0  0  0
  193.2850  174.9920  137.0180 C   0  0  1  0  0  3  0  0  0  0  0  0
  194.1190  173.8630  137.6140 C   0  0  1  0  0  3  0  0  0  0  0  0
  194.9830  173.2170  136.5410 C   0  0  2  0  0  3  0  0  0  0  0  0
  196.7390  172.1100  137.7080 F   0  0  0  0  0  0  0  0  0  0  0  0
  194.5890  171.8940  136.3320 O   0  0  0  0  0  1  0  0  0  0  0  0
  196.2470  174.4110  138.1170 C   0  0  1  0  0  3  0  0  0  0  0  0
  196.3840  173.3040  137.0920 C   0  0  2  0  0  0  0  0  0  0  0  0
  194.9460  174.3580  138.6440 O   0  0  0  0  0  0  0  0  0  0  0  0
  198.5610  175.0320  138.8060 C   0  0  0  0  0  1  0  0  0  0  0  0
  197.2870  174.3230  139.2260 C   0  0  0  0  0  2  0  0  0  0  0  0
  197.4110  173.6350  136.0000 C   0  0  0  0  0  2  0  0  0  0  0  0
  196.8730  174.5410  134.8940 C   0  0  0  0  0  2  0  0  0  0  0  0
  197.0390  176.0020  135.2700 C   0  0  0  0  0  1  0  0  0  0  0  0
  1  4  1  1  0  0  0
  1 21  1  0  0  0  0
  2  5  1  0  0  0  0
  2  7  1  0  0  0  0
  3  7  1  0  0  0  0
  3 10  1  0  0  0  0
  4  5  1  0  0  0  0
  5  8  2  0  0  0  0
  7  6  2  0  0  0  0
 10  9  1  6  0  0  0
 11 10  1  6  0  0  0
 11 17  1  0  0  0  0
 12 16  1  0  0  0  0
 13 12  1  0  0  0  0
 13 11  1  0  0  0  0
 16 14  1  6  0  0  0
 16 17  1  0  0  0  0
 17 15  1  1  0  0  0
 18 33  1  0  0  0  0
 19 22  1  0  0  0  0
 20 23  2  0  0  0  0
 21 19  2  0  0  0  0
 21 20  1  0  0  0  0
 22 18  2  0  0  0  0
 23 18  1  0  0  0  0
 24 35  1  6  0  0  0
 24 30  1  0  0  0  0
 25 31  2  0  0  0  0
 27 32  1  0  0  0  0
 27 24  1  0  0  0  0
 29 26  1  0  0  0  0
 30 26  2  0  0  0  0
 30 28  1  0  0  0  0
 31 34  1  0  0  0  0
 32 29  2  0  0  0  0
 33 31  1  0  0  0  0
 34 32  1  0  0  0  0
 35 38  2  0  0  0  0
 36 38  1  0  0  0  0
 37 39  2  0  0  0  0
 37 35  1  0  0  0  0
 39 36  1  0  0  0  0
 40 41  1  6  0  0  0
 40 43  1  0  0  0  0
 40  1  1  0  0  0  0
 41 42  1  0  0  0  0
 45 44  1  6  0  0  0
 45 43  1  0  0  0  0
 45 46  1  0  0  0  0
 48 46  1  0  0  0  0
 48 47  1  1  0  0  0
 49 48  1  6  0  0  0
 49 55  1  0  0  0  0
 50 52  1  1  0  0  0
 50 54  1  0  0  0  0
 50 49  1  0  0  0  0
 53 55  1  0  0  0  0
 53 57  1  1  0  0  0
 54 51  1  1  0  0  0
 54 53  1  0  0  0  0
 56 57  1  0  0  0  0
 58 54  1  0  0  0  0
 59 60  1  0  0  0  0
 59 58  1  0  0  0  0
M  END
>  <MODEL>
9

>  <REMARK>
 VINA RESULT:      -5.2      4.211      7.425
  Name = 
  16 active torsions:
  status: ('A' for Active; 'I' for Inactive)
    1  A    between atoms: C_1  and  C_58
    2  A    between atoms: C_2  and  C_15
    3  A    between atoms: C_2  and  C_33
    4  A    between atoms: C_2  and  C_41
    5  A    between atoms: C_3  and  C_11
    6  A    between atoms: N_6  and  C_58
    7  A    between atoms: N_8  and  C_15
    8  A    between atoms: C_9  and  C_53
    9  A    between atoms: C_13  and  N_47
   10  A    between atoms: C_15  and  C_35
   11  A    between atoms: C_25  and  C_27
   12  A    between atoms: C_25  and  N_45
   13  A    between atoms: C_30  and  C_46
   14  A    between atoms: C_41  and  C_57
   15  A    between atoms: N_45  and  C_57
   16  A    between atoms: C_50  and  C_53
                            x       y       z     vdW  Elec       q    Type
                         _______ _______ _______ _____ _____    ______ ____

>  <TORSDO>
F 16

$$$$
