=
 OpenBabel10222419363D

 39 42  0  0  1  0  0  0  0  0999 V2000
  185.3770  178.7440  143.4370 C   0  0  1  0  0  3  0  0  0  0  0  0
  187.2810  177.4250  143.3000 C   0  0  1  0  0  3  0  0  0  0  0  0
  186.9090  178.7560  141.4050 C   0  0  1  0  0  3  0  0  0  0  0  0
  188.4800  177.6190  142.7560 C   0  0  1  0  0  3  0  0  0  0  0  0
  186.9720  177.4360  144.7520 C   0  0  0  0  0  2  0  0  0  0  0  0
  185.6080  178.1150  144.8120 C   0  0  0  0  0  2  0  0  0  0  0  0
  186.1910  177.9200  142.4570 C   0  0  2  0  0  3  0  0  0  0  0  0
  188.3550  178.2550  141.4150 C   0  0  0  0  0  2  0  0  0  0  0  0
  190.8880  176.7870  145.6290 C   0  0  0  0  0  0  0  0  0  0  0  0
  189.8040  177.4780  143.4530 C   0  0  1  0  0  3  0  0  0  0  0  0
  190.4570  178.8300  143.7040 C   0  0  0  0  0  2  0  0  0  0  0  0
  189.6610  176.6980  144.7590 C   0  0  0  0  0  2  0  0  0  0  0  0
  191.8120  177.6840  145.4180 N   0  0  0  0  0  0  0  0  0  0  0  0
  190.9530  175.9480  146.7840 N   0  0  0  0  0  2  0  0  0  0  0  0
  191.8510  178.5820  144.2620 C   0  0  0  0  0  2  0  0  0  0  0  0
  192.0390  175.9720  147.6730 C   0  0  0  0  0  0  0  0  0  0  0  0
  192.9710  175.9940  148.4360 C   0  0  0  0  0  3  0  0  0  0  0  0
  183.9620  178.7630  143.0800 N   0  0  0  0  0  2  0  0  0  0  0  0
  183.1260  179.3430  145.1900 O   0  0  0  0  0  0  0  0  0  0  0  0
  182.8920  179.0350  143.9920 C   0  0  0  0  0  0  0  0  0  0  0  0
  181.4840  178.8950  143.5320 C   0  0  0  0  0  2  0  0  0  0  0  0
  181.4630  178.7550  142.0880 N   0  0  0  0  0  2  0  0  0  0  0  0
  180.0910  178.9630  141.6470 C   0  0  2  0  0  3  0  0  0  0  0  0
  179.4150  176.9300  141.0840 C   0  0  0  0  0  1  0  0  0  0  0  0
  179.8160  178.1500  140.5410 O   0  0  0  0  0  0  0  0  0  0  0  0
  179.8840  180.4020  141.2840 C   0  0  0  0  0  0  0  0  0  0  0  0
  179.4660  181.1810  142.1250 O   0  0  0  0  0  0  0  0  0  0  0  0
  179.3540  182.0540  139.6100 N   0  0  0  0  0  1  0  0  0  0  0  0
  180.1630  180.8840  139.8970 C   0  0  0  0  0  2  0  0  0  0  0  0
  186.2810  178.5990  140.0530 C   0  0  2  0  0  3  0  0  0  0  0  0
  187.0570  178.2410  139.0380 C   0  0  0  0  0  3  0  0  0  0  0  0
  186.5180  178.0560  137.7300 N   0  0  0  0  0  0  0  0  0  0  0  0
  186.7990  177.6820  135.4590 O   0  0  0  0  0  0  0  0  0  0  0  0
  187.3350  177.9820  136.5610 C   0  0  0  0  0  0  0  0  0  0  0  0
  189.5660  176.8940  136.7710 C   0  0  0  0  0  2  0  0  0  0  0  0
  188.8170  178.2090  136.6380 C   0  0  0  0  0  3  0  0  0  0  0  0
  189.4860  177.5810  135.4280 C   0  0  0  0  0  2  0  0  0  0  0  0
  184.4400  180.0230  139.5020 O   0  0  0  0  0  1  0  0  0  0  0  0
  184.9150  178.8180  139.8390 O   0  0  0  0  0  0  0  0  0  0  0  0
  1 18  1  6  0  0  0
  1  6  1  0  0  0  0
  2  5  1  1  0  0  0
  3 30  1  6  0  0  0
  3  8  1  0  0  0  0
  3  7  1  0  0  0  0
  4  8  1  1  0  0  0
  4  2  1  0  0  0  0
  4 10  1  0  0  0  0
  5  6  1  0  0  0  0
  7  2  1  0  0  0  0
  7  1  1  0  0  0  0
  9 14  1  0  0  0  0
 10 11  1  0  0  0  0
 10 12  1  0  0  0  0
 11 15  1  0  0  0  0
 12  9  1  0  0  0  0
 13  9  2  0  0  0  0
 14 16  1  0  0  0  0
 15 13  1  0  0  0  0
 16 17  3  0  0  0  0
 18 20  1  0  0  0  0
 20 19  2  0  0  0  0
 21 20  1  0  0  0  0
 22 21  1  0  0  0  0
 23 22  1  0  0  0  0
 25 24  1  0  0  0  0
 25 23  1  0  0  0  0
 26 23  1  0  0  0  0
 26 27  2  0  0  0  0
 28 29  1  0  0  0  0
 29 26  1  0  0  0  0
 31 30  1  0  0  0  0
 32 31  2  0  0  0  0
 33 34  2  0  0  0  0
 34 36  1  0  0  0  0
 34 32  1  0  0  0  0
 36 35  1  0  0  0  0
 37 36  1  0  0  0  0
 37 35  1  0  0  0  0
 38 39  1  0  0  0  0
 39 30  1  0  0  0  0
M  END
>  <MODEL>
1

>  <REMARK>
 VINA RESULT:      -8.0      0.000      0.000
  Name = 
  13 active torsions:
  status: ('A' for Active; 'I' for Inactive)
    1  A    between atoms: N_3  and  C_37
    2  A    between atoms: C_4  and  N_22
    3  A    between atoms: C_6  and  C_12
    4  A    between atoms: C_6  and  C_31
    5  A    between atoms: C_7  and  N_20
    6  A    between atoms: C_7  and  C_39
    7  A    between atoms: C_10  and  C_15
    8  A    between atoms: C_11  and  C_23
    9  A    between atoms: C_12  and  N_20
   10  A    between atoms: C_12  and  O_24
   11  A    between atoms: C_17  and  C_18
   12  A    between atoms: C_17  and  O_33
   13  A    between atoms: C_27  and  N_32
                            x       y       z     vdW  Elec       q    Type
                         _______ _______ _______ _____ _____    ______ ____

>  <TORSDO>
F 13

$$$$
=
 OpenBabel10222419363D

 39 42  0  0  1  0  0  0  0  0999 V2000
  185.6100  179.3730  141.2070 C   0  0  1  0  0  3  0  0  0  0  0  0
  186.8160  177.9260  142.5630 C   0  0  1  0  0  3  0  0  0  0  0  0
  188.0070  178.6920  140.6930 C   0  0  1  0  0  3  0  0  0  0  0  0
  188.1010  177.8660  142.9060 C   0  0  1  0  0  3  0  0  0  0  0  0
  185.7010  178.3700  143.4370 C   0  0  0  0  0  2  0  0  0  0  0  0
  184.7960  179.1420  142.4820 C   0  0  0  0  0  2  0  0  0  0  0  0
  186.6230  178.2460  141.1460 C   0  0  2  0  0  3  0  0  0  0  0  0
  188.9740  178.1040  141.7240 C   0  0  0  0  0  2  0  0  0  0  0  0
  190.4360  176.7920  145.7580 C   0  0  0  0  0  0  0  0  0  0  0  0
  188.6440  177.8250  144.3070 C   0  0  1  0  0  3  0  0  0  0  0  0
  187.6640  177.1730  145.2730 C   0  0  0  0  0  2  0  0  0  0  0  0
  189.9980  177.1190  144.3540 C   0  0  0  0  0  2  0  0  0  0  0  0
  189.6010  176.8280  146.7610 N   0  0  0  0  0  0  0  0  0  0  0  0
  191.7670  176.3060  145.9490 N   0  0  0  0  0  2  0  0  0  0  0  0
  188.2250  177.3200  146.6790 C   0  0  0  0  0  2  0  0  0  0  0  0
  192.2650  175.9500  147.2120 C   0  0  0  0  0  0  0  0  0  0  0  0
  192.6940  175.6430  148.2950 C   0  0  0  0  0  3  0  0  0  0  0  0
  184.7610  179.3980  140.0200 N   0  0  0  0  0  2  0  0  0  0  0  0
  183.5110  177.4770  140.5010 O   0  0  0  0  0  0  0  0  0  0  0  0
  183.7620  178.4210  139.7070 C   0  0  0  0  0  0  0  0  0  0  0  0
  183.0530  178.4900  138.4020 C   0  0  0  0  0  2  0  0  0  0  0  0
  182.0450  179.5330  138.4580 N   0  0  0  0  0  2  0  0  0  0  0  0
  180.9330  179.0260  139.2500 C   0  0  2  0  0  3  0  0  0  0  0  0
  179.5540  177.4100  138.6240 C   0  0  0  0  0  1  0  0  0  0  0  0
  179.8380  178.7600  138.4190 O   0  0  0  0  0  0  0  0  0  0  0  0
  180.5490  180.0320  140.2910 C   0  0  0  0  0  0  0  0  0  0  0  0
  180.3330  181.1870  139.9630 O   0  0  0  0  0  0  0  0  0  0  0  0
  179.8300  180.7030  142.4930 N   0  0  0  0  0  1  0  0  0  0  0  0
  180.4540  179.6370  141.7300 C   0  0  0  0  0  2  0  0  0  0  0  0
  188.3170  178.2090  139.3090 C   0  0  0  0  0  0  0  0  0  0  0  0
  188.8570  177.0040  139.1710 C   0  0  0  0  0  3  0  0  0  0  0  0
  189.1580  176.4780  137.8790 N   0  0  0  0  0  2  0  0  0  0  0  0
  188.4840  175.5410  135.8680 O   0  0  0  0  0  0  0  0  0  0  0  0
  188.1740  175.8600  137.0480 C   0  0  0  0  0  0  0  0  0  0  0  0
  185.7970  176.5840  136.8800 C   0  0  0  0  0  2  0  0  0  0  0  0
  186.7750  175.6320  137.5450 C   0  0  0  0  0  3  0  0  0  0  0  0
  185.9050  175.1580  136.3960 C   0  0  0  0  0  2  0  0  0  0  0  0
  189.0100  179.7110  137.5820 O   0  0  0  0  0  1  0  0  0  0  0  0
  188.0540  178.9860  138.1750 O   0  0  0  0  0  0  0  0  0  0  0  0
  1 18  1  6  0  0  0
  1  6  1  0  0  0  0
  2  4  1  0  0  0  0
  2  5  1  1  0  0  0
  3 30  1  6  0  0  0
  3  7  1  0  0  0  0
  3  8  1  0  0  0  0
  4  8  1  1  0  0  0
  4 10  1  0  0  0  0
  6  5  1  0  0  0  0
  7  1  1  0  0  0  0
  7  2  1  0  0  0  0
  9 14  1  0  0  0  0
  9 13  2  0  0  0  0
 10 12  1  0  0  0  0
 10 11  1  0  0  0  0
 11 15  1  0  0  0  0
 12  9  1  0  0  0  0
 14 16  1  0  0  0  0
 15 13  1  0  0  0  0
 16 17  3  0  0  0  0
 20 18  1  0  0  0  0
 20 19  2  0  0  0  0
 21 22  1  0  0  0  0
 21 20  1  0  0  0  0
 22 23  1  0  0  0  0
 23 26  1  0  0  0  0
 25 24  1  0  0  0  0
 25 23  1  0  0  0  0
 26 29  1  0  0  0  0
 27 26  2  0  0  0  0
 29 28  1  0  0  0  0
 31 30  2  0  0  0  0
 32 31  1  0  0  0  0
 33 34  2  0  0  0  0
 34 36  1  0  0  0  0
 34 32  1  0  0  0  0
 35 36  1  0  0  0  0
 37 35  1  0  0  0  0
 37 36  1  0  0  0  0
 38 39  1  0  0  0  0
 39 30  1  0  0  0  0
M  END
>  <MODEL>
2

>  <REMARK>
 VINA RESULT:      -7.9      2.083      2.872
  Name = 
  13 active torsions:
  status: ('A' for Active; 'I' for Inactive)
    1  A    between atoms: N_3  and  C_37
    2  A    between atoms: C_4  and  N_22
    3  A    between atoms: C_6  and  C_12
    4  A    between atoms: C_6  and  C_31
    5  A    between atoms: C_7  and  N_20
    6  A    between atoms: C_7  and  C_39
    7  A    between atoms: C_10  and  C_15
    8  A    between atoms: C_11  and  C_23
    9  A    between atoms: C_12  and  N_20
   10  A    between atoms: C_12  and  O_24
   11  A    between atoms: C_17  and  C_18
   12  A    between atoms: C_17  and  O_33
   13  A    between atoms: C_27  and  N_32
                            x       y       z     vdW  Elec       q    Type
                         _______ _______ _______ _____ _____    ______ ____

>  <TORSDO>
F 13

$$$$
=
 OpenBabel10222419363D

 39 42  0  0  1  0  0  0  0  0999 V2000
  187.4720  177.7710  142.6510 C   0  0  1  0  0  3  0  0  0  0  0  0
  185.9450  179.0010  141.4110 C   0  0  1  0  0  3  0  0  0  0  0  0
  187.5160  177.8450  140.1080 C   0  0  1  0  0  3  0  0  0  0  0  0
  185.3540  178.7910  140.2360 C   0  0  1  0  0  3  0  0  0  0  0  0
  185.2980  178.8900  142.7430 C   0  0  0  0  0  2  0  0  0  0  0  0
  186.3920  178.2770  143.6100 C   0  0  0  0  0  2  0  0  0  0  0  0
  187.3610  178.6290  141.4050 C   0  0  2  0  0  3  0  0  0  0  0  0
  186.3300  178.2720  139.2390 C   0  0  0  0  0  2  0  0  0  0  0  0
  181.9790  177.4920  138.9470 C   0  0  0  0  0  0  0  0  0  0  0  0
  183.8750  178.8120  139.9710 C   0  0  1  0  0  3  0  0  0  0  0  0
  183.4970  179.8920  138.9670 C   0  0  0  0  0  2  0  0  0  0  0  0
  183.3780  177.4440  139.5040 C   0  0  0  0  0  2  0  0  0  0  0  0
  181.4110  178.6200  138.6180 N   0  0  0  0  0  0  0  0  0  0  0  0
  181.3320  176.2510  138.6550 N   0  0  0  0  0  2  0  0  0  0  0  0
  181.9790  179.9440  138.8840 C   0  0  0  0  0  2  0  0  0  0  0  0
  180.0400  176.1850  138.1100 C   0  0  0  0  0  0  0  0  0  0  0  0
  178.9310  176.1270  137.6420 C   0  0  0  0  0  3  0  0  0  0  0  0
  188.8030  177.8510  143.2440 N   0  0  0  0  0  2  0  0  0  0  0  0
  189.4680  175.6500  142.7940 O   0  0  0  0  0  0  0  0  0  0  0  0
  189.7350  176.7650  143.3140 C   0  0  0  0  0  0  0  0  0  0  0  0
  191.0100  176.9410  144.0590 C   0  0  0  0  0  2  0  0  0  0  0  0
  190.9150  176.2610  145.3390 N   0  0  0  0  0  2  0  0  0  0  0  0
  190.8920  177.2820  146.3770 C   0  0  2  0  0  3  0  0  0  0  0  0
  192.2290  175.6700  147.1020 C   0  0  0  0  0  1  0  0  0  0  0  0
  191.8480  176.9870  147.3570 O   0  0  0  0  0  0  0  0  0  0  0  0
  189.5310  177.3470  146.9980 C   0  0  0  0  0  0  0  0  0  0  0  0
  188.5930  176.7860  146.4550 O   0  0  0  0  0  0  0  0  0  0  0  0
  188.0090  177.7820  148.8170 N   0  0  0  0  0  1  0  0  0  0  0  0
  189.3080  178.1140  148.2620 C   0  0  0  0  0  2  0  0  0  0  0  0
  188.8240  178.1400  139.4380 C   0  0  0  0  0  0  0  0  0  0  0  0
  189.7970  177.2430  139.5380 C   0  0  0  0  0  3  0  0  0  0  0  0
  191.0590  177.4540  138.9080 N   0  0  0  0  0  2  0  0  0  0  0  0
  192.7630  176.7470  137.5030 O   0  0  0  0  0  0  0  0  0  0  0  0
  191.7190  176.4450  138.1410 C   0  0  0  0  0  0  0  0  0  0  0  0
  190.5720  174.7890  136.6750 C   0  0  0  0  0  2  0  0  0  0  0  0
  191.1590  175.0540  138.0510 C   0  0  0  0  0  3  0  0  0  0  0  0
  191.9450  174.2630  137.0210 C   0  0  0  0  0  2  0  0  0  0  0  0
  188.8760  179.3790  137.3930 O   0  0  0  0  0  1  0  0  0  0  0  0
  189.0410  179.3220  138.7210 O   0  0  0  0  0  0  0  0  0  0  0  0
  1 18  1  1  0  0  0
  1  6  1  0  0  0  0
  2  5  1  1  0  0  0
  3 30  1  6  0  0  0
  3  7  1  0  0  0  0
  4  8  1  1  0  0  0
  4  2  1  0  0  0  0
  5  6  1  0  0  0  0
  7  2  1  0  0  0  0
  7  1  1  0  0  0  0
  8  3  1  0  0  0  0
  9 12  1  0  0  0  0
 10  4  1  0  0  0  0
 11 10  1  0  0  0  0
 12 10  1  0  0  0  0
 13 15  1  0  0  0  0
 13  9  2  0  0  0  0
 14  9  1  0  0  0  0
 15 11  1  0  0  0  0
 16 14  1  0  0  0  0
 17 16  3  0  0  0  0
 18 20  1  0  0  0  0
 19 20  2  0  0  0  0
 20 21  1  0  0  0  0
 21 22  1  0  0  0  0
 22 23  1  0  0  0  0
 23 26  1  0  0  0  0
 23 25  1  0  0  0  0
 24 25  1  0  0  0  0
 26 29  1  0  0  0  0
 27 26  2  0  0  0  0
 29 28  1  0  0  0  0
 30 31  2  0  0  0  0
 32 31  1  0  0  0  0
 33 34  2  0  0  0  0
 34 32  1  0  0  0  0
 35 37  1  0  0  0  0
 35 36  1  0  0  0  0
 36 34  1  0  0  0  0
 37 36  1  0  0  0  0
 38 39  1  0  0  0  0
 39 30  1  0  0  0  0
M  END
>  <MODEL>
3

>  <REMARK>
 VINA RESULT:      -7.9      3.522      8.799
  Name = 
  13 active torsions:
  status: ('A' for Active; 'I' for Inactive)
    1  A    between atoms: N_3  and  C_37
    2  A    between atoms: C_4  and  N_22
    3  A    between atoms: C_6  and  C_12
    4  A    between atoms: C_6  and  C_31
    5  A    between atoms: C_7  and  N_20
    6  A    between atoms: C_7  and  C_39
    7  A    between atoms: C_10  and  C_15
    8  A    between atoms: C_11  and  C_23
    9  A    between atoms: C_12  and  N_20
   10  A    between atoms: C_12  and  O_24
   11  A    between atoms: C_17  and  C_18
   12  A    between atoms: C_17  and  O_33
   13  A    between atoms: C_27  and  N_32
                            x       y       z     vdW  Elec       q    Type
                         _______ _______ _______ _____ _____    ______ ____

>  <TORSDO>
F 13

$$$$
=
 OpenBabel10222419363D

 39 42  0  0  1  0  0  0  0  0999 V2000
  185.4930  179.3860  141.5410 C   0  0  1  0  0  3  0  0  0  0  0  0
  186.7520  177.9340  142.8410 C   0  0  1  0  0  3  0  0  0  0  0  0
  187.8830  178.7450  140.9530 C   0  0  1  0  0  3  0  0  0  0  0  0
  188.0460  177.8860  143.1490 C   0  0  1  0  0  3  0  0  0  0  0  0
  185.6560  178.3510  143.7520 C   0  0  0  0  0  2  0  0  0  0  0  0
  184.7160  179.1250  142.8330 C   0  0  0  0  0  2  0  0  0  0  0  0
  186.5180  178.2730  141.4360 C   0  0  2  0  0  3  0  0  0  0  0  0
  188.8850  178.1540  141.9480 C   0  0  0  0  0  2  0  0  0  0  0  0
  190.4580  176.7830  145.9250 C   0  0  0  0  0  0  0  0  0  0  0  0
  188.6280  177.8300  144.5340 C   0  0  1  0  0  3  0  0  0  0  0  0
  187.6740  177.1680  145.5190 C   0  0  0  0  0  2  0  0  0  0  0  0
  189.9830  177.1240  144.5370 C   0  0  0  0  0  2  0  0  0  0  0  0
  189.6510  176.8070  146.9510 N   0  0  0  0  0  0  0  0  0  0  0  0
  191.7940  176.2950  146.0750 N   0  0  0  0  0  2  0  0  0  0  0  0
  188.2730  177.3000  146.9110 C   0  0  0  0  0  2  0  0  0  0  0  0
  192.3260  175.9250  147.3200 C   0  0  0  0  0  0  0  0  0  0  0  0
  192.7840  175.6090  148.3880 C   0  0  0  0  0  3  0  0  0  0  0  0
  184.6120  179.4190  140.3780 N   0  0  0  0  0  2  0  0  0  0  0  0
  183.4980  177.3990  140.7840 O   0  0  0  0  0  0  0  0  0  0  0  0
  183.6680  178.3970  140.0360 C   0  0  0  0  0  0  0  0  0  0  0  0
  182.9210  178.4890  138.7540 C   0  0  0  0  0  2  0  0  0  0  0  0
  181.5050  178.6380  139.0330 N   0  0  0  0  0  2  0  0  0  0  0  0
  181.2970  179.9870  139.5400 C   0  0  2  0  0  3  0  0  0  0  0  0
  179.6680  178.7190  140.3430 C   0  0  0  0  0  1  0  0  0  0  0  0
  180.1210  180.0370  140.2980 O   0  0  0  0  0  0  0  0  0  0  0  0
  181.2080  180.9530  138.3990 C   0  0  0  0  0  0  0  0  0  0  0  0
  181.8050  182.0150  138.4600 O   0  0  0  0  0  0  0  0  0  0  0  0
  180.5510  181.6660  136.1910 N   0  0  0  0  0  1  0  0  0  0  0  0
  180.3750  180.6370  137.1990 C   0  0  0  0  0  2  0  0  0  0  0  0
  188.1620  178.2870  139.5530 C   0  0  0  0  0  0  0  0  0  0  0  0
  189.4210  178.2850  139.1320 C   0  0  0  0  0  3  0  0  0  0  0  0
  189.7550  177.8430  137.8180 N   0  0  0  0  0  2  0  0  0  0  0  0
  190.8470  176.3760  136.3920 O   0  0  0  0  0  0  0  0  0  0  0  0
  190.7030  176.8040  137.5690 C   0  0  0  0  0  0  0  0  0  0  0  0
  192.9830  176.3380  138.4570 C   0  0  0  0  0  2  0  0  0  0  0  0
  191.4900  176.1920  138.6930 C   0  0  0  0  0  3  0  0  0  0  0  0
  192.2760  177.2770  139.4060 C   0  0  0  0  0  2  0  0  0  0  0  0
  186.5590  178.7090  137.8290 O   0  0  0  0  0  1  0  0  0  0  0  0
  187.1410  177.8680  138.6920 O   0  0  0  0  0  0  0  0  0  0  0  0
  1 18  1  6  0  0  0
  1  6  1  0  0  0  0
  2  4  1  0  0  0  0
  2  5  1  1  0  0  0
  3 30  1  6  0  0  0
  3  7  1  0  0  0  0
  3  8  1  0  0  0  0
  4  8  1  1  0  0  0
  4 10  1  0  0  0  0
  6  5  1  0  0  0  0
  7  1  1  0  0  0  0
  7  2  1  0  0  0  0
  9 14  1  0  0  0  0
  9 13  2  0  0  0  0
 10 12  1  0  0  0  0
 10 11  1  0  0  0  0
 11 15  1  0  0  0  0
 12  9  1  0  0  0  0
 14 16  1  0  0  0  0
 15 13  1  0  0  0  0
 16 17  3  0  0  0  0
 20 18  1  0  0  0  0
 20 19  2  0  0  0  0
 21 22  1  0  0  0  0
 21 20  1  0  0  0  0
 22 23  1  0  0  0  0
 23 25  1  0  0  0  0
 25 24  1  0  0  0  0
 26 27  2  0  0  0  0
 26 23  1  0  0  0  0
 28 29  1  0  0  0  0
 29 26  1  0  0  0  0
 31 30  2  0  0  0  0
 32 31  1  0  0  0  0
 33 34  2  0  0  0  0
 34 32  1  0  0  0  0
 34 36  1  0  0  0  0
 35 36  1  0  0  0  0
 35 37  1  0  0  0  0
 36 37  1  0  0  0  0
 38 39  1  0  0  0  0
 39 30  1  0  0  0  0
M  END
>  <MODEL>
4

>  <REMARK>
 VINA RESULT:      -7.8      2.245      2.936
  Name = 
  13 active torsions:
  status: ('A' for Active; 'I' for Inactive)
    1  A    between atoms: N_3  and  C_37
    2  A    between atoms: C_4  and  N_22
    3  A    between atoms: C_6  and  C_12
    4  A    between atoms: C_6  and  C_31
    5  A    between atoms: C_7  and  N_20
    6  A    between atoms: C_7  and  C_39
    7  A    between atoms: C_10  and  C_15
    8  A    between atoms: C_11  and  C_23
    9  A    between atoms: C_12  and  N_20
   10  A    between atoms: C_12  and  O_24
   11  A    between atoms: C_17  and  C_18
   12  A    between atoms: C_17  and  O_33
   13  A    between atoms: C_27  and  N_32
                            x       y       z     vdW  Elec       q    Type
                         _______ _______ _______ _____ _____    ______ ____

>  <TORSDO>
F 13

$$$$
=
 OpenBabel10222419363D

 39 42  0  0  1  0  0  0  0  0999 V2000
  184.0540  179.1490  142.9880 C   0  0  1  0  0  3  0  0  0  0  0  0
  185.7530  177.8480  143.8860 C   0  0  1  0  0  3  0  0  0  0  0  0
  186.3280  178.9070  141.8740 C   0  0  1  0  0  3  0  0  0  0  0  0
  187.0760  177.9840  143.9170 C   0  0  1  0  0  3  0  0  0  0  0  0
  184.8300  178.0510  145.0320 C   0  0  0  0  0  2  0  0  0  0  0  0
  183.6160  178.7130  144.3890 C   0  0  0  0  0  2  0  0  0  0  0  0
  185.1770  178.2110  142.5890 C   0  0  2  0  0  3  0  0  0  0  0  0
  187.5930  178.4320  142.5940 C   0  0  0  0  0  2  0  0  0  0  0  0
  190.0070  176.8970  146.1470 C   0  0  0  0  0  0  0  0  0  0  0  0
  187.9430  177.9550  145.1450 C   0  0  1  0  0  3  0  0  0  0  0  0
  187.2110  177.3550  146.3380 C   0  0  0  0  0  2  0  0  0  0  0  0
  189.2500  177.2080  144.8820 C   0  0  0  0  0  2  0  0  0  0  0  0
  189.4430  176.9790  147.3210 N   0  0  0  0  0  0  0  0  0  0  0  0
  191.3320  176.3740  146.0220 N   0  0  0  0  0  2  0  0  0  0  0  0
  188.1000  177.5130  147.5620 C   0  0  0  0  0  2  0  0  0  0  0  0
  192.1130  176.0280  147.1360 C   0  0  0  0  0  0  0  0  0  0  0  0
  192.7850  175.7310  148.0910 C   0  0  0  0  0  3  0  0  0  0  0  0
  182.9480  179.1000  142.0360 N   0  0  0  0  0  2  0  0  0  0  0  0
  181.2040  179.2860  143.5890 O   0  0  0  0  0  0  0  0  0  0  0  0
  181.5610  179.1410  142.3910 C   0  0  0  0  0  0  0  0  0  0  0  0
  180.5290  178.9520  141.3360 C   0  0  0  0  0  2  0  0  0  0  0  0
  180.3380  177.5330  141.0990 N   0  0  0  0  0  2  0  0  0  0  0  0
  180.2750  177.3330  139.6590 C   0  0  2  0  0  3  0  0  0  0  0  0
  179.1490  175.6770  140.6060 C   0  0  0  0  0  1  0  0  0  0  0  0
  179.6000  176.1400  139.3710 O   0  0  0  0  0  0  0  0  0  0  0  0
  181.6600  177.2830  139.0900 C   0  0  0  0  0  0  0  0  0  0  0  0
  181.9680  178.0430  138.1870 O   0  0  0  0  0  0  0  0  0  0  0  0
  183.0090  175.3590  138.5510 N   0  0  0  0  0  1  0  0  0  0  0  0
  182.6570  176.2950  139.6020 C   0  0  0  0  0  2  0  0  0  0  0  0
  186.3610  178.5610  140.4160 C   0  0  2  0  0  3  0  0  0  0  0  0
  187.5260  178.2240  139.8770 C   0  0  0  0  0  3  0  0  0  0  0  0
  187.6220  177.8650  138.5000 N   0  0  0  0  0  0  0  0  0  0  0  0
  188.8370  177.0520  136.7000 O   0  0  0  0  0  0  0  0  0  0  0  0
  188.8540  177.4850  137.8840 C   0  0  0  0  0  0  0  0  0  0  0  0
  190.6040  176.1690  139.0720 C   0  0  0  0  0  2  0  0  0  0  0  0
  190.1490  177.5530  138.6410 C   0  0  0  0  0  3  0  0  0  0  0  0
  191.2260  176.8220  137.8600 C   0  0  0  0  0  2  0  0  0  0  0  0
  184.7030  179.7320  139.1510 O   0  0  0  0  0  1  0  0  0  0  0  0
  185.2100  178.5860  139.6210 O   0  0  0  0  0  0  0  0  0  0  0  0
  1 18  1  6  0  0  0
  1  6  1  0  0  0  0
  2  4  1  0  0  0  0
  2  5  1  1  0  0  0
  3 30  1  6  0  0  0
  3  7  1  0  0  0  0
  3  8  1  0  0  0  0
  4  8  1  1  0  0  0
  4 10  1  0  0  0  0
  6  5  1  0  0  0  0
  7  1  1  0  0  0  0
  7  2  1  0  0  0  0
  9 13  2  0  0  0  0
 10 11  1  0  0  0  0
 11 15  1  0  0  0  0
 12 10  1  0  0  0  0
 12  9  1  0  0  0  0
 13 15  1  0  0  0  0
 14  9  1  0  0  0  0
 14 16  1  0  0  0  0
 16 17  3  0  0  0  0
 18 20  1  0  0  0  0
 20 19  2  0  0  0  0
 21 20  1  0  0  0  0
 22 21  1  0  0  0  0
 23 22  1  0  0  0  0
 25 23  1  0  0  0  0
 25 24  1  0  0  0  0
 26 29  1  0  0  0  0
 26 23  1  0  0  0  0
 27 26  2  0  0  0  0
 28 29  1  0  0  0  0
 31 30  1  0  0  0  0
 32 31  2  0  0  0  0
 33 34  2  0  0  0  0
 34 32  1  0  0  0  0
 34 36  1  0  0  0  0
 36 35  1  0  0  0  0
 37 36  1  0  0  0  0
 37 35  1  0  0  0  0
 38 39  1  0  0  0  0
 39 30  1  0  0  0  0
M  END
>  <MODEL>
5

>  <REMARK>
 VINA RESULT:      -7.8      1.836      2.752
  Name = 
  13 active torsions:
  status: ('A' for Active; 'I' for Inactive)
    1  A    between atoms: N_3  and  C_37
    2  A    between atoms: C_4  and  N_22
    3  A    between atoms: C_6  and  C_12
    4  A    between atoms: C_6  and  C_31
    5  A    between atoms: C_7  and  N_20
    6  A    between atoms: C_7  and  C_39
    7  A    between atoms: C_10  and  C_15
    8  A    between atoms: C_11  and  C_23
    9  A    between atoms: C_12  and  N_20
   10  A    between atoms: C_12  and  O_24
   11  A    between atoms: C_17  and  C_18
   12  A    between atoms: C_17  and  O_33
   13  A    between atoms: C_27  and  N_32
                            x       y       z     vdW  Elec       q    Type
                         _______ _______ _______ _____ _____    ______ ____

>  <TORSDO>
F 13

$$$$
=
 OpenBabel10222419363D

 39 42  0  0  1  0  0  0  0  0999 V2000
  185.3640  179.3620  141.7160 C   0  0  1  0  0  3  0  0  0  0  0  0
  186.6630  177.9270  142.9960 C   0  0  1  0  0  3  0  0  0  0  0  0
  187.7400  178.7230  141.0710 C   0  0  1  0  0  3  0  0  0  0  0  0
  187.9650  177.8860  143.2700 C   0  0  1  0  0  3  0  0  0  0  0  0
  185.5900  178.3490  143.9320 C   0  0  0  0  0  2  0  0  0  0  0  0
  184.6230  179.1110  143.0320 C   0  0  0  0  0  2  0  0  0  0  0  0
  186.3900  178.2520  141.5940 C   0  0  2  0  0  3  0  0  0  0  0  0
  188.7710  178.1450  142.0440 C   0  0  0  0  0  2  0  0  0  0  0  0
  190.4360  176.7950  145.9990 C   0  0  0  0  0  0  0  0  0  0  0  0
  188.5840  177.8460  144.6390 C   0  0  1  0  0  3  0  0  0  0  0  0
  187.6480  177.2160  145.6620 C   0  0  0  0  0  2  0  0  0  0  0  0
  189.9270  177.1190  144.6180 C   0  0  0  0  0  2  0  0  0  0  0  0
  189.6580  176.8500  147.0450 N   0  0  0  0  0  0  0  0  0  0  0  0
  191.7680  176.2890  146.1200 N   0  0  0  0  0  2  0  0  0  0  0  0
  188.2870  177.3640  147.0340 C   0  0  0  0  0  2  0  0  0  0  0  0
  192.3280  175.9330  147.3570 C   0  0  0  0  0  0  0  0  0  0  0  0
  192.8080  175.6280  148.4190 C   0  0  0  0  0  3  0  0  0  0  0  0
  184.4520  179.3810  140.5770 N   0  0  0  0  0  2  0  0  0  0  0  0
  183.4280  177.3120  140.9750 O   0  0  0  0  0  0  0  0  0  0  0  0
  183.5400  178.3290  140.2410 C   0  0  0  0  0  0  0  0  0  0  0  0
  182.7560  178.4130  138.9800 C   0  0  0  0  0  2  0  0  0  0  0  0
  182.8910  177.1680  138.2470 N   0  0  0  0  0  2  0  0  0  0  0  0
  183.0660  177.5030  136.8410 C   0  0  2  0  0  3  0  0  0  0  0  0
  181.5620  178.3680  135.4630 C   0  0  0  0  0  1  0  0  0  0  0  0
  181.9030  177.1900  136.1270 O   0  0  0  0  0  0  0  0  0  0  0  0
  184.2290  176.7450  136.2770 C   0  0  0  0  0  0  0  0  0  0  0  0
  184.8860  177.2350  135.3740 O   0  0  0  0  0  0  0  0  0  0  0  0
  186.0080  175.2760  136.9760 N   0  0  0  0  0  1  0  0  0  0  0  0
  184.5720  175.3860  136.7940 C   0  0  0  0  0  2  0  0  0  0  0  0
  187.9830  178.2530  139.6680 C   0  0  0  0  0  0  0  0  0  0  0  0
  189.2380  178.1030  139.2650 C   0  0  0  0  0  3  0  0  0  0  0  0
  189.5370  177.6400  137.9490 N   0  0  0  0  0  2  0  0  0  0  0  0
  190.8080  176.3580  136.4940 O   0  0  0  0  0  0  0  0  0  0  0  0
  190.6830  176.8410  137.6510 C   0  0  0  0  0  0  0  0  0  0  0  0
  192.5600  175.3440  138.3130 C   0  0  0  0  0  2  0  0  0  0  0  0
  191.7070  176.5370  138.7080 C   0  0  0  0  0  3  0  0  0  0  0  0
  193.0970  176.7440  138.1340 C   0  0  0  0  0  2  0  0  0  0  0  0
  186.4350  178.9030  137.9640 O   0  0  0  0  0  1  0  0  0  0  0  0
  186.9320  177.9710  138.7870 O   0  0  0  0  0  0  0  0  0  0  0  0
  1 18  1  6  0  0  0
  1  6  1  0  0  0  0
  2  4  1  0  0  0  0
  2  5  1  1  0  0  0
  3 30  1  6  0  0  0
  3  7  1  0  0  0  0
  3  8  1  0  0  0  0
  4  8  1  1  0  0  0
  4 10  1  0  0  0  0
  6  5  1  0  0  0  0
  7  1  1  0  0  0  0
  7  2  1  0  0  0  0
  9 14  1  0  0  0  0
  9 13  2  0  0  0  0
 10 11  1  0  0  0  0
 11 15  1  0  0  0  0
 12 10  1  0  0  0  0
 12  9  1  0  0  0  0
 14 16  1  0  0  0  0
 15 13  1  0  0  0  0
 16 17  3  0  0  0  0
 20 18  1  0  0  0  0
 20 19  2  0  0  0  0
 21 20  1  0  0  0  0
 22 21  1  0  0  0  0
 23 22  1  0  0  0  0
 24 25  1  0  0  0  0
 25 23  1  0  0  0  0
 26 29  1  0  0  0  0
 26 23  1  0  0  0  0
 27 26  2  0  0  0  0
 29 28  1  0  0  0  0
 31 30  2  0  0  0  0
 32 31  1  0  0  0  0
 33 34  2  0  0  0  0
 34 32  1  0  0  0  0
 34 36  1  0  0  0  0
 35 36  1  0  0  0  0
 37 35  1  0  0  0  0
 37 36  1  0  0  0  0
 38 39  1  0  0  0  0
 39 30  1  0  0  0  0
M  END
>  <MODEL>
6

>  <REMARK>
 VINA RESULT:      -7.6      2.653      4.131
  Name = 
  13 active torsions:
  status: ('A' for Active; 'I' for Inactive)
    1  A    between atoms: N_3  and  C_37
    2  A    between atoms: C_4  and  N_22
    3  A    between atoms: C_6  and  C_12
    4  A    between atoms: C_6  and  C_31
    5  A    between atoms: C_7  and  N_20
    6  A    between atoms: C_7  and  C_39
    7  A    between atoms: C_10  and  C_15
    8  A    between atoms: C_11  and  C_23
    9  A    between atoms: C_12  and  N_20
   10  A    between atoms: C_12  and  O_24
   11  A    between atoms: C_17  and  C_18
   12  A    between atoms: C_17  and  O_33
   13  A    between atoms: C_27  and  N_32
                            x       y       z     vdW  Elec       q    Type
                         _______ _______ _______ _____ _____    ______ ____

>  <TORSDO>
F 13

$$$$
=
 OpenBabel10222419363D

 39 42  0  0  1  0  0  0  0  0999 V2000
  185.7440  179.3550  141.3770 C   0  0  1  0  0  3  0  0  0  0  0  0
  186.9610  177.9150  142.7290 C   0  0  1  0  0  3  0  0  0  0  0  0
  188.1490  178.7010  140.8660 C   0  0  1  0  0  3  0  0  0  0  0  0
  188.2460  177.8670  143.0750 C   0  0  1  0  0  3  0  0  0  0  0  0
  185.8400  178.3440  143.6030 C   0  0  0  0  0  2  0  0  0  0  0  0
  184.9290  179.1100  142.6490 C   0  0  0  0  0  2  0  0  0  0  0  0
  186.7680  178.2380  141.3140 C   0  0  2  0  0  3  0  0  0  0  0  0
  189.1200  178.1200  141.8960 C   0  0  0  0  0  2  0  0  0  0  0  0
  190.5790  176.7980  145.9310 C   0  0  0  0  0  0  0  0  0  0  0  0
  188.7870  177.8270  144.4770 C   0  0  1  0  0  3  0  0  0  0  0  0
  187.8060  177.1710  145.4400 C   0  0  0  0  0  2  0  0  0  0  0  0
  190.1430  177.1250  144.5260 C   0  0  0  0  0  2  0  0  0  0  0  0
  189.7420  176.8300  146.9320 N   0  0  0  0  0  0  0  0  0  0  0  0
  191.9110  176.3160  146.1240 N   0  0  0  0  0  2  0  0  0  0  0  0
  188.3640  177.3180  146.8480 C   0  0  0  0  0  2  0  0  0  0  0  0
  192.4070  175.9590  147.3870 C   0  0  0  0  0  0  0  0  0  0  0  0
  192.8340  175.6510  148.4710 C   0  0  0  0  0  3  0  0  0  0  0  0
  184.8970  179.3760  140.1880 N   0  0  0  0  0  2  0  0  0  0  0  0
  183.6190  177.4780  140.6920 O   0  0  0  0  0  0  0  0  0  0  0  0
  183.8850  178.4080  139.8860 C   0  0  0  0  0  0  0  0  0  0  0  0
  183.1790  178.4690  138.5790 C   0  0  0  0  0  2  0  0  0  0  0  0
  182.1000  177.4990  138.5700 N   0  0  0  0  0  2  0  0  0  0  0  0
  182.2650  176.6700  137.3840 C   0  0  2  0  0  3  0  0  0  0  0  0
  182.5310  176.9680  135.2050 C   0  0  0  0  0  1  0  0  0  0  0  0
  181.7010  177.3070  136.2730 O   0  0  0  0  0  0  0  0  0  0  0  0
  181.6090  175.3400  137.5960 C   0  0  0  0  0  0  0  0  0  0  0  0
  182.2690  174.3190  137.4950 O   0  0  0  0  0  0  0  0  0  0  0  0
  179.9350  174.3610  139.0300 N   0  0  0  0  0  1  0  0  0  0  0  0
  180.1490  175.2540  137.9060 C   0  0  0  0  0  2  0  0  0  0  0  0
  188.4670  178.2270  139.4800 C   0  0  0  0  0  0  0  0  0  0  0  0
  189.0800  177.0580  139.3420 C   0  0  0  0  0  3  0  0  0  0  0  0
  189.3930  176.5400  138.0500 N   0  0  0  0  0  2  0  0  0  0  0  0
  188.7360  175.6520  136.0120 O   0  0  0  0  0  0  0  0  0  0  0  0
  188.4100  175.9640  137.1890 C   0  0  0  0  0  0  0  0  0  0  0  0
  186.0450  176.6910  136.9050 C   0  0  0  0  0  2  0  0  0  0  0  0
  186.9950  175.7710  137.6530 C   0  0  0  0  0  3  0  0  0  0  0  0
  186.1580  175.2390  136.5040 C   0  0  0  0  0  2  0  0  0  0  0  0
  189.0520  179.7010  137.6900 O   0  0  0  0  0  1  0  0  0  0  0  0
  188.1370  178.9760  138.3450 O   0  0  0  0  0  0  0  0  0  0  0  0
  1 18  1  6  0  0  0
  1  6  1  0  0  0  0
  2  4  1  0  0  0  0
  2  5  1  1  0  0  0
  3 30  1  6  0  0  0
  3  7  1  0  0  0  0
  3  8  1  0  0  0  0
  4  8  1  1  0  0  0
  4 10  1  0  0  0  0
  6  5  1  0  0  0  0
  7  1  1  0  0  0  0
  7  2  1  0  0  0  0
  9 14  1  0  0  0  0
  9 13  2  0  0  0  0
 10 12  1  0  0  0  0
 10 11  1  0  0  0  0
 11 15  1  0  0  0  0
 12  9  1  0  0  0  0
 14 16  1  0  0  0  0
 15 13  1  0  0  0  0
 16 17  3  0  0  0  0
 20 18  1  0  0  0  0
 20 19  2  0  0  0  0
 21 20  1  0  0  0  0
 22 21  1  0  0  0  0
 23 26  1  0  0  0  0
 23 22  1  0  0  0  0
 24 25  1  0  0  0  0
 25 23  1  0  0  0  0
 26 29  1  0  0  0  0
 27 26  2  0  0  0  0
 29 28  1  0  0  0  0
 31 30  2  0  0  0  0
 32 31  1  0  0  0  0
 33 34  2  0  0  0  0
 34 36  1  0  0  0  0
 34 32  1  0  0  0  0
 35 36  1  0  0  0  0
 37 35  1  0  0  0  0
 37 36  1  0  0  0  0
 38 39  1  0  0  0  0
 39 30  1  0  0  0  0
M  END
>  <MODEL>
7

>  <REMARK>
 VINA RESULT:      -7.6      2.790      3.859
  Name = 
  13 active torsions:
  status: ('A' for Active; 'I' for Inactive)
    1  A    between atoms: N_3  and  C_37
    2  A    between atoms: C_4  and  N_22
    3  A    between atoms: C_6  and  C_12
    4  A    between atoms: C_6  and  C_31
    5  A    between atoms: C_7  and  N_20
    6  A    between atoms: C_7  and  C_39
    7  A    between atoms: C_10  and  C_15
    8  A    between atoms: C_11  and  C_23
    9  A    between atoms: C_12  and  N_20
   10  A    between atoms: C_12  and  O_24
   11  A    between atoms: C_17  and  C_18
   12  A    between atoms: C_17  and  O_33
   13  A    between atoms: C_27  and  N_32
                            x       y       z     vdW  Elec       q    Type
                         _______ _______ _______ _____ _____    ______ ____

>  <TORSDO>
F 13

$$$$
=
 OpenBabel10222419363D

 39 42  0  0  1  0  0  0  0  0999 V2000
  190.6810  176.9790  140.3640 C   0  0  1  0  0  3  0  0  0  0  0  0
  190.3660  178.1730  142.3280 C   0  0  1  0  0  3  0  0  0  0  0  0
  188.3710  177.5240  141.2800 C   0  0  1  0  0  3  0  0  0  0  0  0
  189.4590  178.0960  143.2990 C   0  0  1  0  0  3  0  0  0  0  0  0
  191.7780  177.7240  142.4200 C   0  0  0  0  0  2  0  0  0  0  0  0
  192.0460  177.1330  141.0390 C   0  0  0  0  0  2  0  0  0  0  0  0
  189.7810  178.0240  140.9940 C   0  0  2  0  0  3  0  0  0  0  0  0
  188.0930  177.9200  142.7320 C   0  0  0  0  0  2  0  0  0  0  0  0
  191.1710  176.7010  146.4400 C   0  0  0  0  0  0  0  0  0  0  0  0
  189.7400  177.9430  144.7670 C   0  0  1  0  0  3  0  0  0  0  0  0
  188.5620  177.3220  145.5060 C   0  0  0  0  0  2  0  0  0  0  0  0
  191.0130  177.1310  145.0040 C   0  0  0  0  0  2  0  0  0  0  0  0
  190.1760  176.7510  147.2830 N   0  0  0  0  0  0  0  0  0  0  0  0
  192.4110  176.1030  146.8270 N   0  0  0  0  0  2  0  0  0  0  0  0
  188.8730  177.3540  146.9940 C   0  0  0  0  0  2  0  0  0  0  0  0
  192.6510  175.6450  148.1320 C   0  0  0  0  0  0  0  0  0  0  0  0
  192.8580  175.2540  149.2530 C   0  0  0  0  0  3  0  0  0  0  0  0
  190.7720  177.1480  138.9170 N   0  0  0  0  0  2  0  0  0  0  0  0
  190.7280  174.8770  138.3440 O   0  0  0  0  0  0  0  0  0  0  0  0
  190.8220  176.0750  137.9690 C   0  0  0  0  0  0  0  0  0  0  0  0
  191.0450  176.3780  136.5300 C   0  0  0  0  0  2  0  0  0  0  0  0
  192.0140  175.4440  135.9870 N   0  0  0  0  0  2  0  0  0  0  0  0
  193.3390  176.0020  136.2170 C   0  0  2  0  0  3  0  0  0  0  0  0
  195.0250  177.0100  135.1930 C   0  0  0  0  0  1  0  0  0  0  0  0
  194.0670  176.0110  135.0220 O   0  0  0  0  0  0  0  0  0  0  0  0
  194.0620  175.1920  137.2480 C   0  0  0  0  0  0  0  0  0  0  0  0
  194.2950  175.6780  138.3430 O   0  0  0  0  0  0  0  0  0  0  0  0
  195.1610  173.2240  138.1060 N   0  0  0  0  0  1  0  0  0  0  0  0
  194.5220  173.8040  136.9390 C   0  0  0  0  0  2  0  0  0  0  0  0
  187.3700  178.1290  140.3420 C   0  0  0  0  0  0  0  0  0  0  0  0
  186.3260  178.7630  140.8620 C   0  0  0  0  0  3  0  0  0  0  0  0
  185.3480  179.3770  140.0250 N   0  0  0  0  0  2  0  0  0  0  0  0
  183.1370  179.7700  139.4470 O   0  0  0  0  0  0  0  0  0  0  0  0
  183.9530  179.0900  140.1260 C   0  0  0  0  0  0  0  0  0  0  0  0
  182.9970  178.6280  142.3800 C   0  0  0  0  0  2  0  0  0  0  0  0
  183.4490  178.0260  141.0600 C   0  0  0  0  0  3  0  0  0  0  0  0
  181.9740  178.2550  141.3330 C   0  0  0  0  0  2  0  0  0  0  0  0
  188.1170  179.0030  138.2450 O   0  0  0  0  0  1  0  0  0  0  0  0
  187.5080  178.0430  138.9520 O   0  0  0  0  0  0  0  0  0  0  0  0
  1 18  1  6  0  0  0
  1  7  1  0  0  0  0
  1  6  1  0  0  0  0
  2  5  1  1  0  0  0
  2  4  1  0  0  0  0
  3 30  1  6  0  0  0
  3  8  1  0  0  0  0
  4  8  1  6  0  0  0
  4 10  1  0  0  0  0
  6  5  1  0  0  0  0
  7  3  1  0  0  0  0
  7  2  1  0  0  0  0
  9 14  1  0  0  0  0
  9 13  2  0  0  0  0
 10 12  1  0  0  0  0
 10 11  1  0  0  0  0
 11 15  1  0  0  0  0
 12  9  1  0  0  0  0
 14 16  1  0  0  0  0
 15 13  1  0  0  0  0
 16 17  3  0  0  0  0
 20 19  2  0  0  0  0
 20 18  1  0  0  0  0
 21 20  1  0  0  0  0
 22 23  1  0  0  0  0
 22 21  1  0  0  0  0
 23 26  1  0  0  0  0
 25 24  1  0  0  0  0
 25 23  1  0  0  0  0
 26 27  2  0  0  0  0
 29 26  1  0  0  0  0
 29 28  1  0  0  0  0
 30 31  2  0  0  0  0
 32 34  1  0  0  0  0
 32 31  1  0  0  0  0
 33 34  2  0  0  0  0
 34 36  1  0  0  0  0
 36 37  1  0  0  0  0
 36 35  1  0  0  0  0
 37 35  1  0  0  0  0
 38 39  1  0  0  0  0
 39 30  1  0  0  0  0
M  END
>  <MODEL>
8

>  <REMARK>
 VINA RESULT:      -7.5      3.615      8.707
  Name = 
  13 active torsions:
  status: ('A' for Active; 'I' for Inactive)
    1  A    between atoms: N_3  and  C_37
    2  A    between atoms: C_4  and  N_22
    3  A    between atoms: C_6  and  C_12
    4  A    between atoms: C_6  and  C_31
    5  A    between atoms: C_7  and  N_20
    6  A    between atoms: C_7  and  C_39
    7  A    between atoms: C_10  and  C_15
    8  A    between atoms: C_11  and  C_23
    9  A    between atoms: C_12  and  N_20
   10  A    between atoms: C_12  and  O_24
   11  A    between atoms: C_17  and  C_18
   12  A    between atoms: C_17  and  O_33
   13  A    between atoms: C_27  and  N_32
                            x       y       z     vdW  Elec       q    Type
                         _______ _______ _______ _____ _____    ______ ____

>  <TORSDO>
F 13

$$$$
=
 OpenBabel10222419363D

 39 42  0  0  1  0  0  0  0  0999 V2000
  185.7470  179.3490  141.3490 C   0  0  1  0  0  3  0  0  0  0  0  0
  186.9590  177.9020  142.6990 C   0  0  1  0  0  3  0  0  0  0  0  0
  188.1590  178.7090  140.8530 C   0  0  1  0  0  3  0  0  0  0  0  0
  188.2400  177.8560  143.0550 C   0  0  1  0  0  3  0  0  0  0  0  0
  185.8290  178.3190  143.5670 C   0  0  0  0  0  2  0  0  0  0  0  0
  184.9230  179.0900  142.6130 C   0  0  0  0  0  2  0  0  0  0  0  0
  186.7760  178.2370  141.2850 C   0  0  2  0  0  3  0  0  0  0  0  0
  189.1230  178.1220  141.8860 C   0  0  0  0  0  2  0  0  0  0  0  0
  190.5610  176.7790  145.9190 C   0  0  0  0  0  0  0  0  0  0  0  0
  188.7690  177.8040  144.4610 C   0  0  1  0  0  3  0  0  0  0  0  0
  187.7890  177.1260  145.4080 C   0  0  0  0  0  2  0  0  0  0  0  0
  190.1330  177.1170  144.5140 C   0  0  0  0  0  2  0  0  0  0  0  0
  189.7150  176.7890  146.9130 N   0  0  0  0  0  0  0  0  0  0  0  0
  191.8970  176.3100  146.1180 N   0  0  0  0  0  2  0  0  0  0  0  0
  188.3320  177.2620  146.8220 C   0  0  0  0  0  2  0  0  0  0  0  0
  192.3860  175.9440  147.3810 C   0  0  0  0  0  0  0  0  0  0  0  0
  192.8060  175.6280  148.4650 C   0  0  0  0  0  3  0  0  0  0  0  0
  184.9100  179.3780  140.1540 N   0  0  0  0  0  2  0  0  0  0  0  0
  183.5010  177.5970  140.7270 O   0  0  0  0  0  0  0  0  0  0  0  0
  183.8350  178.4700  139.8850 C   0  0  0  0  0  0  0  0  0  0  0  0
  183.1430  178.5250  138.5700 C   0  0  0  0  0  2  0  0  0  0  0  0
  181.7270  178.7670  138.7820 N   0  0  0  0  0  2  0  0  0  0  0  0
  180.9910  177.8260  137.9500 C   0  0  2  0  0  3  0  0  0  0  0  0
  180.5230  175.7860  138.6750 C   0  0  0  0  0  1  0  0  0  0  0  0
  181.5340  176.5430  138.0840 O   0  0  0  0  0  0  0  0  0  0  0  0
  181.0520  178.2580  136.5170 C   0  0  0  0  0  0  0  0  0  0  0  0
  180.7320  179.3960  136.2160 O   0  0  0  0  0  0  0  0  0  0  0  0
  182.8790  177.5020  135.1360 N   0  0  0  0  0  1  0  0  0  0  0  0
  181.4770  177.2990  135.4520 C   0  0  0  0  0  2  0  0  0  0  0  0
  188.4900  178.2480  139.4660 C   0  0  0  0  0  0  0  0  0  0  0  0
  189.1190  177.0880  139.3230 C   0  0  0  0  0  3  0  0  0  0  0  0
  189.4460  176.5840  138.0290 N   0  0  0  0  0  2  0  0  0  0  0  0
  188.8110  175.7060  135.9800 O   0  0  0  0  0  0  0  0  0  0  0  0
  188.4740  176.0050  137.1570 C   0  0  0  0  0  0  0  0  0  0  0  0
  186.1140  176.7680  136.9220 C   0  0  0  0  0  2  0  0  0  0  0  0
  187.0570  175.7950  137.6100 C   0  0  0  0  0  3  0  0  0  0  0  0
  186.2150  175.3430  136.4310 C   0  0  0  0  0  2  0  0  0  0  0  0
  189.0560  179.7790  137.7170 O   0  0  0  0  0  1  0  0  0  0  0  0
  188.1570  179.0010  138.3340 O   0  0  0  0  0  0  0  0  0  0  0  0
  1 18  1  6  0  0  0
  1  6  1  0  0  0  0
  2  4  1  0  0  0  0
  2  5  1  1  0  0  0
  3 30  1  6  0  0  0
  3  7  1  0  0  0  0
  3  8  1  0  0  0  0
  4  8  1  1  0  0  0
  4 10  1  0  0  0  0
  6  5  1  0  0  0  0
  7  1  1  0  0  0  0
  7  2  1  0  0  0  0
  9 14  1  0  0  0  0
  9 13  2  0  0  0  0
 10 12  1  0  0  0  0
 10 11  1  0  0  0  0
 11 15  1  0  0  0  0
 12  9  1  0  0  0  0
 14 16  1  0  0  0  0
 15 13  1  0  0  0  0
 16 17  3  0  0  0  0
 20 18  1  0  0  0  0
 20 19  2  0  0  0  0
 21 22  1  0  0  0  0
 21 20  1  0  0  0  0
 23 25  1  0  0  0  0
 23 22  1  0  0  0  0
 25 24  1  0  0  0  0
 26 23  1  0  0  0  0
 27 26  2  0  0  0  0
 28 29  1  0  0  0  0
 29 26  1  0  0  0  0
 31 30  2  0  0  0  0
 32 31  1  0  0  0  0
 33 34  2  0  0  0  0
 34 36  1  0  0  0  0
 34 32  1  0  0  0  0
 35 36  1  0  0  0  0
 37 35  1  0  0  0  0
 37 36  1  0  0  0  0
 38 39  1  0  0  0  0
 39 30  1  0  0  0  0
M  END
>  <MODEL>
9

>  <REMARK>
 VINA RESULT:      -7.5      2.600      3.428
  Name = 
  13 active torsions:
  status: ('A' for Active; 'I' for Inactive)
    1  A    between atoms: N_3  and  C_37
    2  A    between atoms: C_4  and  N_22
    3  A    between atoms: C_6  and  C_12
    4  A    between atoms: C_6  and  C_31
    5  A    between atoms: C_7  and  N_20
    6  A    between atoms: C_7  and  C_39
    7  A    between atoms: C_10  and  C_15
    8  A    between atoms: C_11  and  C_23
    9  A    between atoms: C_12  and  N_20
   10  A    between atoms: C_12  and  O_24
   11  A    between atoms: C_17  and  C_18
   12  A    between atoms: C_17  and  O_33
   13  A    between atoms: C_27  and  N_32
                            x       y       z     vdW  Elec       q    Type
                         _______ _______ _______ _____ _____    ______ ____

>  <TORSDO>
F 13

$$$$
