=
 OpenBabel10222420123D

 27 29  0  0  1  0  0  0  0  0999 V2000
  188.0410  177.6570  143.1500 C   0  0  0  0  0  0  0  0  0  0  0  0
  187.3050  177.9080  144.2680 N   0  0  0  0  0  0  0  0  0  0  0  0
  187.5600  177.8590  147.9300 C   0  0  0  0  0  3  0  0  0  0  0  0
  189.1540  177.3250  145.6850 C   0  0  0  0  0  0  0  0  0  0  0  0
  188.8810  177.4370  148.0940 C   0  0  0  0  0  3  0  0  0  0  0  0
  187.8150  177.7560  145.5210 C   0  0  0  0  0  0  0  0  0  0  0  0
  189.6840  177.1680  146.9820 C   0  0  0  0  0  0  0  0  0  0  0  0
  189.3640  177.2290  143.2710 C   0  0  0  0  0  3  0  0  0  0  0  0
  189.9190  177.0650  144.5400 C   0  0  0  0  0  3  0  0  0  0  0  0
  187.0210  178.0200  146.6510 C   0  0  0  0  0  0  0  0  0  0  0  0
  192.1300  176.3860  147.3790 N   0  0  0  0  0  0  0  0  0  0  0  0
  191.0400  176.7340  147.2020 C   0  0  0  0  0  0  0  0  0  0  0  0
  184.5550  178.8000  146.4140 N   0  0  0  0  0  0  0  0  0  0  0  0
  185.6540  178.4540  146.5200 C   0  0  0  0  0  0  0  0  0  0  0  0
  187.4430  177.8280  141.7870 C   0  0  2  0  0  3  0  0  0  0  0  0
  188.4760  177.8300  140.7020 C   0  0  0  0  0  0  0  0  0  0  0  0
  189.5830  178.3500  138.9830 N   0  0  0  0  0  0  0  0  0  0  0  0
  188.5630  178.7480  139.7240 N   0  0  0  0  0  0  0  0  0  0  0  0
  190.0930  177.2350  139.4840 N   0  0  0  0  0  0  0  0  0  0  0  0
  189.4170  176.8800  140.5650 N   0  0  0  0  0  2  0  0  0  0  0  0
  186.4950  179.0250  141.6970 C   0  0  0  0  0  2  0  0  0  0  0  0
  185.2040  178.6440  141.1360 N   0  0  0  0  0  0  0  0  0  0  0  0
  184.9330  179.5490  140.1650 O   0  0  0  0  0  1  0  0  0  0  0  0
  184.1890  178.8040  142.1770 C   0  0  2  0  0  3  0  0  0  0  0  0
  184.3790  177.8800  143.1930 F   0  0  0  0  0  0  0  0  0  0  0  0
  182.7880  178.6270  141.5980 C   0  0  0  0  0  2  0  0  0  0  0  0
  181.7800  179.0000  142.5790 N   0  0  0  0  0  1  0  0  0  0  0  0
  1  8  2  0  0  0  0
  1  2  1  0  0  0  0
  2  6  2  0  0  0  0
  3  5  1  0  0  0  0
  4  7  1  0  0  0  0
  6  4  1  0  0  0  0
  6 10  1  0  0  0  0
  7 12  1  0  0  0  0
  7  5  2  0  0  0  0
  8  9  1  0  0  0  0
  9  4  2  0  0  0  0
 10  3  2  0  0  0  0
 12 11  3  0  0  0  0
 13 14  3  0  0  0  0
 14 10  1  0  0  0  0
 15 21  1  1  0  0  0
 15  1  1  0  0  0  0
 16 15  1  0  0  0  0
 17 19  2  0  0  0  0
 17 18  1  0  0  0  0
 18 16  2  0  0  0  0
 19 20  1  0  0  0  0
 20 16  1  0  0  0  0
 22 21  1  0  0  0  0
 22 24  1  0  0  0  0
 23 22  1  0  0  0  0
 24 25  1  1  0  0  0
 26 24  1  0  0  0  0
 26 27  1  0  0  0  0
M  END
>  <MODEL>
1

>  <REMARK>
 VINA RESULT:      -8.8      0.000      0.000
  Name = 
  8 active torsions:
  status: ('A' for Active; 'I' for Inactive)
    1  A    between atoms: C_1  and  C_10
    2  A    between atoms: C_7  and  C_10
    3  A    between atoms: C_10  and  C_21
    4  A    between atoms: C_11  and  C_15
    5  A    between atoms: N_12  and  C_15
    6  A    between atoms: N_12  and  C_21
    7  A    between atoms: C_18  and  C_26
    8  A    between atoms: C_19  and  C_27
                            x       y       z     vdW  Elec       q    Type
                         _______ _______ _______ _____ _____    ______ ____

>  <TORSDO>
F 8

$$$$
=
 OpenBabel10222420123D

 27 29  0  0  1  0  0  0  0  0999 V2000
  188.1630  178.2210  142.9570 C   0  0  0  0  0  0  0  0  0  0  0  0
  187.3870  178.2610  144.0750 N   0  0  0  0  0  0  0  0  0  0  0  0
  187.5330  177.5870  147.6810 C   0  0  0  0  0  3  0  0  0  0  0  0
  189.2060  177.4780  145.4340 C   0  0  0  0  0  0  0  0  0  0  0  0
  188.8580  177.1690  147.8150 C   0  0  0  0  0  3  0  0  0  0  0  0
  187.8630  177.9050  145.3010 C   0  0  0  0  0  0  0  0  0  0  0  0
  189.7010  177.1100  146.7010 C   0  0  0  0  0  0  0  0  0  0  0  0
  189.4920  177.8040  143.0470 C   0  0  0  0  0  3  0  0  0  0  0  0
  190.0120  177.4340  144.2870 C   0  0  0  0  0  3  0  0  0  0  0  0
  187.0290  177.9550  146.4320 C   0  0  0  0  0  0  0  0  0  0  0  0
  192.1530  176.3190  147.0410 N   0  0  0  0  0  0  0  0  0  0  0  0
  191.0610  176.6720  146.8890 C   0  0  0  0  0  0  0  0  0  0  0  0
  184.5530  178.7180  146.2470 N   0  0  0  0  0  0  0  0  0  0  0  0
  185.6560  178.3790  146.3300 C   0  0  0  0  0  0  0  0  0  0  0  0
  187.6030  178.6120  141.6240 C   0  0  2  0  0  3  0  0  0  0  0  0
  186.1060  178.6510  141.6170 C   0  0  0  0  0  0  0  0  0  0  0  0
  184.0830  178.2510  142.0660 N   0  0  0  0  0  0  0  0  0  0  0  0
  185.3130  177.9350  142.4350 N   0  0  0  0  0  0  0  0  0  0  0  0
  184.1230  179.1170  141.0650 N   0  0  0  0  0  0  0  0  0  0  0  0
  185.3810  179.3870  140.7570 N   0  0  0  0  0  2  0  0  0  0  0  0
  188.1730  177.7830  140.4710 C   0  0  0  0  0  2  0  0  0  0  0  0
  188.7230  178.6340  139.4220 N   0  0  0  0  0  0  0  0  0  0  0  0
  187.8080  178.6400  138.4230 O   0  0  0  0  0  1  0  0  0  0  0  0
  189.9320  177.9950  138.9020 C   0  0  2  0  0  3  0  0  0  0  0  0
  189.8020  177.7310  137.5470 F   0  0  0  0  0  0  0  0  0  0  0  0
  190.2140  176.6890  139.6400 C   0  0  0  0  0  2  0  0  0  0  0  0
  190.7910  175.7070  138.7360 N   0  0  0  0  0  1  0  0  0  0  0  0
  1  8  2  0  0  0  0
  1  2  1  0  0  0  0
  2  6  2  0  0  0  0
  3  5  1  0  0  0  0
  4  7  1  0  0  0  0
  6  4  1  0  0  0  0
  6 10  1  0  0  0  0
  7 12  1  0  0  0  0
  7  5  2  0  0  0  0
  8  9  1  0  0  0  0
  9  4  2  0  0  0  0
 10  3  2  0  0  0  0
 12 11  3  0  0  0  0
 13 14  3  0  0  0  0
 14 10  1  0  0  0  0
 15 21  1  6  0  0  0
 15  1  1  0  0  0  0
 16 15  1  0  0  0  0
 16 18  2  0  0  0  0
 17 18  1  0  0  0  0
 19 17  2  0  0  0  0
 20 19  1  0  0  0  0
 20 16  1  0  0  0  0
 22 21  1  0  0  0  0
 23 22  1  0  0  0  0
 24 25  1  6  0  0  0
 24 22  1  0  0  0  0
 24 26  1  0  0  0  0
 27 26  1  0  0  0  0
M  END
>  <MODEL>
2

>  <REMARK>
 VINA RESULT:      -8.4      1.998      4.041
  Name = 
  8 active torsions:
  status: ('A' for Active; 'I' for Inactive)
    1  A    between atoms: C_1  and  C_10
    2  A    between atoms: C_7  and  C_10
    3  A    between atoms: C_10  and  C_21
    4  A    between atoms: C_11  and  C_15
    5  A    between atoms: N_12  and  C_15
    6  A    between atoms: N_12  and  C_21
    7  A    between atoms: C_18  and  C_26
    8  A    between atoms: C_19  and  C_27
                            x       y       z     vdW  Elec       q    Type
                         _______ _______ _______ _____ _____    ______ ____

>  <TORSDO>
F 8

$$$$
=
 OpenBabel10222420123D

 27 29  0  0  1  0  0  0  0  0999 V2000
  188.2250  177.6800  143.1060 C   0  0  0  0  0  0  0  0  0  0  0  0
  187.9870  177.7070  144.4470 N   0  0  0  0  0  0  0  0  0  0  0  0
  185.2940  178.3400  146.8610 C   0  0  0  0  0  3  0  0  0  0  0  0
  185.6890  178.3040  144.0850 C   0  0  0  0  0  0  0  0  0  0  0  0
  184.2350  178.6300  146.0000 C   0  0  0  0  0  3  0  0  0  0  0  0
  186.7620  178.0080  144.9600 C   0  0  0  0  0  0  0  0  0  0  0  0
  184.4210  178.6150  144.6140 C   0  0  0  0  0  0  0  0  0  0  0  0
  187.1920  177.9680  142.2120 C   0  0  0  0  0  3  0  0  0  0  0  0
  185.9250  178.2780  142.7030 C   0  0  0  0  0  3  0  0  0  0  0  0
  186.5570  178.0290  146.3510 C   0  0  0  0  0  0  0  0  0  0  0  0
  182.3930  179.1670  143.0850 N   0  0  0  0  0  0  0  0  0  0  0  0
  183.2960  178.9210  143.7660 C   0  0  0  0  0  0  0  0  0  0  0  0
  188.4890  177.5040  148.0060 N   0  0  0  0  0  0  0  0  0  0  0  0
  187.6280  177.7390  147.2690 C   0  0  0  0  0  0  0  0  0  0  0  0
  189.5880  177.3520  142.5780 C   0  0  2  0  0  3  0  0  0  0  0  0
  189.6460  177.3780  141.0820 C   0  0  0  0  0  0  0  0  0  0  0  0
  190.0010  176.8310  139.0750 N   0  0  0  0  0  0  0  0  0  0  0  0
  190.1000  176.3730  140.3110 N   0  0  0  0  0  0  0  0  0  0  0  0
  189.5130  178.0620  139.0900 N   0  0  0  0  0  0  0  0  0  0  0  0
  189.2820  178.4360  140.3370 N   0  0  0  0  0  2  0  0  0  0  0  0
  190.1610  176.0610  143.1660 C   0  0  0  0  0  2  0  0  0  0  0  0
  191.4650  176.2860  143.7770 N   0  0  0  0  0  0  0  0  0  0  0  0
  192.0050  175.0590  143.9750 O   0  0  0  0  0  1  0  0  0  0  0  0
  191.2550  176.8870  145.0940 C   0  0  2  0  0  3  0  0  0  0  0  0
  191.8120  178.1560  145.1480 F   0  0  0  0  0  0  0  0  0  0  0  0
  191.8750  176.0230  146.1880 C   0  0  0  0  0  2  0  0  0  0  0  0
  191.8890  176.7380  147.4560 N   0  0  0  0  0  1  0  0  0  0  0  0
  1  2  1  0  0  0  0
  2  6  2  0  0  0  0
  4  7  1  0  0  0  0
  4  6  1  0  0  0  0
  5  3  1  0  0  0  0
  6 10  1  0  0  0  0
  7  5  2  0  0  0  0
  8  9  1  0  0  0  0
  8  1  2  0  0  0  0
  9  4  2  0  0  0  0
 10  3  2  0  0  0  0
 10 14  1  0  0  0  0
 11 12  3  0  0  0  0
 12  7  1  0  0  0  0
 14 13  3  0  0  0  0
 15  1  1  0  0  0  0
 15 21  1  6  0  0  0
 16 15  1  0  0  0  0
 17 19  2  0  0  0  0
 17 18  1  0  0  0  0
 18 16  2  0  0  0  0
 19 20  1  0  0  0  0
 20 16  1  0  0  0  0
 21 22  1  0  0  0  0
 22 23  1  0  0  0  0
 22 24  1  0  0  0  0
 24 25  1  6  0  0  0
 24 26  1  0  0  0  0
 26 27  1  0  0  0  0
M  END
>  <MODEL>
3

>  <REMARK>
 VINA RESULT:      -8.4      2.768      5.715
  Name = 
  8 active torsions:
  status: ('A' for Active; 'I' for Inactive)
    1  A    between atoms: C_1  and  C_10
    2  A    between atoms: C_7  and  C_10
    3  A    between atoms: C_10  and  C_21
    4  A    between atoms: C_11  and  C_15
    5  A    between atoms: N_12  and  C_15
    6  A    between atoms: N_12  and  C_21
    7  A    between atoms: C_18  and  C_26
    8  A    between atoms: C_19  and  C_27
                            x       y       z     vdW  Elec       q    Type
                         _______ _______ _______ _____ _____    ______ ____

>  <TORSDO>
F 8

$$$$
=
 OpenBabel10222420123D

 27 29  0  0  1  0  0  0  0  0999 V2000
  187.7590  178.2720  141.7270 C   0  0  0  0  0  0  0  0  0  0  0  0
  187.8380  178.0110  143.0610 N   0  0  0  0  0  0  0  0  0  0  0  0
  185.7630  177.9500  146.0890 C   0  0  0  0  0  3  0  0  0  0  0  0
  185.5050  178.5030  143.3520 C   0  0  0  0  0  0  0  0  0  0  0  0
  184.5260  178.3310  145.5650 C   0  0  0  0  0  3  0  0  0  0  0  0
  186.7580  178.1140  143.8840 C   0  0  0  0  0  0  0  0  0  0  0  0
  184.3870  178.6100  144.2020 C   0  0  0  0  0  0  0  0  0  0  0  0
  186.5420  178.6610  141.1650 C   0  0  0  0  0  3  0  0  0  0  0  0
  185.4160  178.7740  141.9790 C   0  0  0  0  0  3  0  0  0  0  0  0
  186.8800  177.8400  145.2580 C   0  0  0  0  0  0  0  0  0  0  0  0
  182.0480  179.3130  143.3130 N   0  0  0  0  0  0  0  0  0  0  0  0
  183.0900  179.0000  143.7090 C   0  0  0  0  0  0  0  0  0  0  0  0
  189.1550  177.1320  146.2930 N   0  0  0  0  0  0  0  0  0  0  0  0
  188.1410  177.4470  145.8330 C   0  0  0  0  0  0  0  0  0  0  0  0
  188.9710  178.1570  140.8530 C   0  0  2  0  0  3  0  0  0  0  0  0
  188.6230  178.0190  139.4030 C   0  0  0  0  0  0  0  0  0  0  0  0
  188.0830  177.2000  137.5340 N   0  0  0  0  0  0  0  0  0  0  0  0
  188.2670  176.8700  138.8010 N   0  0  0  0  0  0  0  0  0  0  0  0
  188.3200  178.4920  137.3680 N   0  0  0  0  0  0  0  0  0  0  0  0
  188.6640  179.0360  138.5240 N   0  0  0  0  0  2  0  0  0  0  0  0
  189.9470  177.0780  141.3270 C   0  0  0  0  0  2  0  0  0  0  0  0
  191.1750  177.6640  141.8510 N   0  0  0  0  0  0  0  0  0  0  0  0
  192.1510  177.3510  140.9650 O   0  0  0  0  0  1  0  0  0  0  0  0
  191.5000  176.9920  143.1100 C   0  0  2  0  0  3  0  0  0  0  0  0
  190.4740  176.1400  143.4890 F   0  0  0  0  0  0  0  0  0  0  0  0
  191.7410  178.0100  144.2210 C   0  0  0  0  0  2  0  0  0  0  0  0
  191.0530  179.2580  143.9260 N   0  0  0  0  0  1  0  0  0  0  0  0
  1  2  1  0  0  0  0
  2  6  2  0  0  0  0
  4  6  1  0  0  0  0
  4  7  1  0  0  0  0
  5  3  1  0  0  0  0
  6 10  1  0  0  0  0
  7  5  2  0  0  0  0
  8  1  2  0  0  0  0
  8  9  1  0  0  0  0
  9  4  2  0  0  0  0
 10 14  1  0  0  0  0
 10  3  2  0  0  0  0
 11 12  3  0  0  0  0
 12  7  1  0  0  0  0
 14 13  3  0  0  0  0
 15 21  1  1  0  0  0
 15  1  1  0  0  0  0
 16 15  1  0  0  0  0
 17 18  1  0  0  0  0
 18 16  2  0  0  0  0
 19 17  2  0  0  0  0
 19 20  1  0  0  0  0
 20 16  1  0  0  0  0
 21 22  1  0  0  0  0
 22 24  1  0  0  0  0
 23 22  1  0  0  0  0
 24 25  1  1  0  0  0
 24 26  1  0  0  0  0
 27 26  1  0  0  0  0
M  END
>  <MODEL>
4

>  <REMARK>
 VINA RESULT:      -8.3      2.698      5.448
  Name = 
  8 active torsions:
  status: ('A' for Active; 'I' for Inactive)
    1  A    between atoms: C_1  and  C_10
    2  A    between atoms: C_7  and  C_10
    3  A    between atoms: C_10  and  C_21
    4  A    between atoms: C_11  and  C_15
    5  A    between atoms: N_12  and  C_15
    6  A    between atoms: N_12  and  C_21
    7  A    between atoms: C_18  and  C_26
    8  A    between atoms: C_19  and  C_27
                            x       y       z     vdW  Elec       q    Type
                         _______ _______ _______ _____ _____    ______ ____

>  <TORSDO>
F 8

$$$$
=
 OpenBabel10222420123D

 27 29  0  0  1  0  0  0  0  0999 V2000
  187.6850  177.5990  142.6190 C   0  0  0  0  0  0  0  0  0  0  0  0
  187.6460  177.6130  143.9800 N   0  0  0  0  0  0  0  0  0  0  0  0
  185.3700  178.3470  146.7660 C   0  0  0  0  0  3  0  0  0  0  0  0
  185.3570  178.3420  143.9620 C   0  0  0  0  0  0  0  0  0  0  0  0
  184.2160  178.7110  146.0710 C   0  0  0  0  0  3  0  0  0  0  0  0
  186.5270  177.9710  144.6690 C   0  0  0  0  0  0  0  0  0  0  0  0
  184.1980  178.7120  144.6730 C   0  0  0  0  0  0  0  0  0  0  0  0
  186.5530  177.9600  141.8870 C   0  0  0  0  0  3  0  0  0  0  0  0
  185.3900  178.3300  142.5610 C   0  0  0  0  0  3  0  0  0  0  0  0
  186.5270  177.9780  146.0750 C   0  0  0  0  0  0  0  0  0  0  0  0
  182.0060  179.4030  143.4610 N   0  0  0  0  0  0  0  0  0  0  0  0
  182.9830  179.0960  144.0010 C   0  0  0  0  0  0  0  0  0  0  0  0
  188.6440  177.3160  147.4270 N   0  0  0  0  0  0  0  0  0  0  0  0
  187.7010  177.6120  146.8250 C   0  0  0  0  0  0  0  0  0  0  0  0
  188.9370  177.2080  141.8940 C   0  0  2  0  0  3  0  0  0  0  0  0
  190.1250  177.1240  142.8020 C   0  0  0  0  0  0  0  0  0  0  0  0
  191.6470  176.3740  144.0570 N   0  0  0  0  0  0  0  0  0  0  0  0
  190.6440  175.9830  143.2900 N   0  0  0  0  0  0  0  0  0  0  0  0
  191.7340  177.6950  144.0420 N   0  0  0  0  0  0  0  0  0  0  0  0
  190.7900  178.1980  143.2640 N   0  0  0  0  0  2  0  0  0  0  0  0
  189.2020  178.0670  140.6560 C   0  0  0  0  0  2  0  0  0  0  0  0
  189.5540  177.2470  139.5030 N   0  0  0  0  0  0  0  0  0  0  0  0
  190.9070  177.2670  139.4250 O   0  0  0  0  0  1  0  0  0  0  0  0
  189.0400  177.9050  138.3020 C   0  0  2  0  0  3  0  0  0  0  0  0
  189.2050  179.2790  138.3870 F   0  0  0  0  0  0  0  0  0  0  0  0
  187.5600  177.5910  138.1050 C   0  0  0  0  0  2  0  0  0  0  0  0
  186.8440  178.7720  137.6460 N   0  0  0  0  0  1  0  0  0  0  0  0
  1  2  1  0  0  0  0
  2  6  2  0  0  0  0
  4  6  1  0  0  0  0
  4  7  1  0  0  0  0
  5  3  1  0  0  0  0
  6 10  1  0  0  0  0
  7  5  2  0  0  0  0
  8  9  1  0  0  0  0
  8  1  2  0  0  0  0
  9  4  2  0  0  0  0
 10  3  2  0  0  0  0
 10 14  1  0  0  0  0
 11 12  3  0  0  0  0
 12  7  1  0  0  0  0
 14 13  3  0  0  0  0
 15 21  1  6  0  0  0
 15  1  1  0  0  0  0
 15 16  1  0  0  0  0
 16 20  1  0  0  0  0
 16 18  2  0  0  0  0
 18 17  1  0  0  0  0
 19 17  2  0  0  0  0
 20 19  1  0  0  0  0
 22 21  1  0  0  0  0
 23 22  1  0  0  0  0
 24 25  1  1  0  0  0
 24 22  1  0  0  0  0
 26 24  1  0  0  0  0
 27 26  1  0  0  0  0
M  END
>  <MODEL>
5

>  <REMARK>
 VINA RESULT:      -8.2      2.703      5.144
  Name = 
  8 active torsions:
  status: ('A' for Active; 'I' for Inactive)
    1  A    between atoms: C_1  and  C_10
    2  A    between atoms: C_7  and  C_10
    3  A    between atoms: C_10  and  C_21
    4  A    between atoms: C_11  and  C_15
    5  A    between atoms: N_12  and  C_15
    6  A    between atoms: N_12  and  C_21
    7  A    between atoms: C_18  and  C_26
    8  A    between atoms: C_19  and  C_27
                            x       y       z     vdW  Elec       q    Type
                         _______ _______ _______ _____ _____    ______ ____

>  <TORSDO>
F 8

$$$$
=
 OpenBabel10222420123D

 27 29  0  0  1  0  0  0  0  0999 V2000
  189.2740  177.1720  141.7470 C   0  0  0  0  0  0  0  0  0  0  0  0
  188.1820  177.4510  142.5120 N   0  0  0  0  0  0  0  0  0  0  0  0
  187.1570  177.7690  146.0230 C   0  0  0  0  0  3  0  0  0  0  0  0
  189.4590  177.1900  144.5290 C   0  0  0  0  0  0  0  0  0  0  0  0
  188.3630  177.4980  146.6720 C   0  0  0  0  0  3  0  0  0  0  0  0
  188.2350  177.4680  143.8720 C   0  0  0  0  0  0  0  0  0  0  0  0
  189.5160  177.2080  145.9370 C   0  0  0  0  0  0  0  0  0  0  0  0
  190.4970  176.8910  142.3580 C   0  0  0  0  0  3  0  0  0  0  0  0
  190.5870  176.9020  143.7500 C   0  0  0  0  0  3  0  0  0  0  0  0
  187.0850  177.7560  144.6280 C   0  0  0  0  0  0  0  0  0  0  0  0
  191.7170  176.7140  147.2280 N   0  0  0  0  0  0  0  0  0  0  0  0
  190.7370  176.9340  146.6530 C   0  0  0  0  0  0  0  0  0  0  0  0
  184.8090  178.2610  143.4820 N   0  0  0  0  0  0  0  0  0  0  0  0
  185.8240  178.0370  143.9920 C   0  0  0  0  0  0  0  0  0  0  0  0
  189.1760  177.1540  140.2520 C   0  0  2  0  0  3  0  0  0  0  0  0
  190.4600  176.7520  139.5960 C   0  0  0  0  0  0  0  0  0  0  0  0
  192.4620  176.7510  138.9290 N   0  0  0  0  0  0  0  0  0  0  0  0
  191.6120  177.4420  139.6690 N   0  0  0  0  0  0  0  0  0  0  0  0
  191.8550  175.6890  138.4220 N   0  0  0  0  0  0  0  0  0  0  0  0
  190.5940  175.6620  138.8210 N   0  0  0  0  0  2  0  0  0  0  0  0
  188.6040  178.4520  139.6770 C   0  0  0  0  0  2  0  0  0  0  0  0
  188.6860  178.4720  138.2210 N   0  0  0  0  0  0  0  0  0  0  0  0
  189.0510  179.7320  137.8820 O   0  0  0  0  0  1  0  0  0  0  0  0
  187.3440  178.2480  137.6850 C   0  0  2  0  0  3  0  0  0  0  0  0
  186.3990  178.2860  138.6990 F   0  0  0  0  0  0  0  0  0  0  0  0
  187.2620  176.9000  136.9760 C   0  0  0  0  0  2  0  0  0  0  0  0
  188.4830  176.6420  136.2270 N   0  0  0  0  0  1  0  0  0  0  0  0
  1  8  2  0  0  0  0
  1  2  1  0  0  0  0
  2  6  2  0  0  0  0
  3  5  1  0  0  0  0
  4  7  1  0  0  0  0
  6  4  1  0  0  0  0
  6 10  1  0  0  0  0
  7 12  1  0  0  0  0
  7  5  2  0  0  0  0
  8  9  1  0  0  0  0
  9  4  2  0  0  0  0
 10  3  2  0  0  0  0
 12 11  3  0  0  0  0
 13 14  3  0  0  0  0
 14 10  1  0  0  0  0
 15 21  1  6  0  0  0
 15  1  1  0  0  0  0
 16 18  2  0  0  0  0
 16 15  1  0  0  0  0
 17 18  1  0  0  0  0
 19 20  1  0  0  0  0
 19 17  2  0  0  0  0
 20 16  1  0  0  0  0
 22 21  1  0  0  0  0
 23 22  1  0  0  0  0
 24 22  1  0  0  0  0
 24 25  1  1  0  0  0
 26 24  1  0  0  0  0
 27 26  1  0  0  0  0
M  END
>  <MODEL>
6

>  <REMARK>
 VINA RESULT:      -8.0      2.278      3.504
  Name = 
  8 active torsions:
  status: ('A' for Active; 'I' for Inactive)
    1  A    between atoms: C_1  and  C_10
    2  A    between atoms: C_7  and  C_10
    3  A    between atoms: C_10  and  C_21
    4  A    between atoms: C_11  and  C_15
    5  A    between atoms: N_12  and  C_15
    6  A    between atoms: N_12  and  C_21
    7  A    between atoms: C_18  and  C_26
    8  A    between atoms: C_19  and  C_27
                            x       y       z     vdW  Elec       q    Type
                         _______ _______ _______ _____ _____    ______ ____

>  <TORSDO>
F 8

$$$$
=
 OpenBabel10222420123D

 27 29  0  0  1  0  0  0  0  0999 V2000
  185.0060  178.1180  143.6830 C   0  0  0  0  0  0  0  0  0  0  0  0
  186.2540  177.8380  143.2170 N   0  0  0  0  0  0  0  0  0  0  0  0
  189.6920  177.3110  144.3920 C   0  0  0  0  0  3  0  0  0  0  0  0
  187.1560  177.8840  145.4420 C   0  0  0  0  0  0  0  0  0  0  0  0
  189.5250  177.4720  145.7680 C   0  0  0  0  0  3  0  0  0  0  0  0
  187.3270  177.7170  144.0470 C   0  0  0  0  0  0  0  0  0  0  0  0
  188.2650  177.7580  146.3030 C   0  0  0  0  0  0  0  0  0  0  0  0
  184.7970  178.2910  145.0530 C   0  0  0  0  0  3  0  0  0  0  0  0
  185.8740  178.1720  145.9300 C   0  0  0  0  0  3  0  0  0  0  0  0
  188.6020  177.4320  143.5270 C   0  0  0  0  0  0  0  0  0  0  0  0
  188.0450  178.0430  148.8770 N   0  0  0  0  0  0  0  0  0  0  0  0
  188.1430  177.9160  147.7300 C   0  0  0  0  0  0  0  0  0  0  0  0
  188.9830  177.1250  140.9760 N   0  0  0  0  0  0  0  0  0  0  0  0
  188.8120  177.2620  142.1120 C   0  0  0  0  0  0  0  0  0  0  0  0
  183.8500  178.2530  142.7390 C   0  0  2  0  0  3  0  0  0  0  0  0
  184.2840  178.5100  141.3300 C   0  0  0  0  0  0  0  0  0  0  0  0
  185.2500  179.3300  139.6420 N   0  0  0  0  0  0  0  0  0  0  0  0
  185.2030  179.4200  140.9600 N   0  0  0  0  0  0  0  0  0  0  0  0
  184.3950  178.4100  139.2250 N   0  0  0  0  0  0  0  0  0  0  0  0
  183.7700  177.8770  140.2610 N   0  0  0  0  0  2  0  0  0  0  0  0
  182.7990  179.2550  143.2220 C   0  0  0  0  0  2  0  0  0  0  0  0
  181.5090  179.0270  142.5820 N   0  0  0  0  0  0  0  0  0  0  0  0
  181.2730  180.1170  141.8120 O   0  0  0  0  0  1  0  0  0  0  0  0
  180.4820  178.9990  143.6230 C   0  0  2  0  0  3  0  0  0  0  0  0
  180.6490  177.8950  144.4450 F   0  0  0  0  0  0  0  0  0  0  0  0
  179.0870  178.9550  143.0050 C   0  0  0  0  0  2  0  0  0  0  0  0
  178.9680  177.8290  142.0920 N   0  0  0  0  0  1  0  0  0  0  0  0
  1  8  1  0  0  0  0
  2  1  2  0  0  0  0
  2  6  1  0  0  0  0
  3  5  1  0  0  0  0
  4  9  1  0  0  0  0
  4  7  1  0  0  0  0
  5  7  2  0  0  0  0
  6  4  2  0  0  0  0
  7 12  1  0  0  0  0
  8  9  2  0  0  0  0
 10  6  1  0  0  0  0
 10  3  2  0  0  0  0
 12 11  3  0  0  0  0
 13 14  3  0  0  0  0
 14 10  1  0  0  0  0
 15 21  1  1  0  0  0
 15  1  1  0  0  0  0
 16 15  1  0  0  0  0
 17 18  1  0  0  0  0
 18 16  2  0  0  0  0
 19 17  2  0  0  0  0
 19 20  1  0  0  0  0
 20 16  1  0  0  0  0
 22 21  1  0  0  0  0
 22 24  1  0  0  0  0
 23 22  1  0  0  0  0
 24 25  1  1  0  0  0
 26 24  1  0  0  0  0
 27 26  1  0  0  0  0
M  END
>  <MODEL>
7

>  <REMARK>
 VINA RESULT:      -7.8      2.075      4.102
  Name = 
  8 active torsions:
  status: ('A' for Active; 'I' for Inactive)
    1  A    between atoms: C_1  and  C_10
    2  A    between atoms: C_7  and  C_10
    3  A    between atoms: C_10  and  C_21
    4  A    between atoms: C_11  and  C_15
    5  A    between atoms: N_12  and  C_15
    6  A    between atoms: N_12  and  C_21
    7  A    between atoms: C_18  and  C_26
    8  A    between atoms: C_19  and  C_27
                            x       y       z     vdW  Elec       q    Type
                         _______ _______ _______ _____ _____    ______ ____

>  <TORSDO>
F 8

$$$$
=
 OpenBabel10222420123D

 27 29  0  0  1  0  0  0  0  0999 V2000
  187.9800  178.1870  141.9310 C   0  0  0  0  0  0  0  0  0  0  0  0
  186.7550  178.4430  141.3950 N   0  0  0  0  0  0  0  0  0  0  0  0
  183.2540  178.9500  142.3780 C   0  0  0  0  0  3  0  0  0  0  0  0
  185.7370  178.4260  143.5700 C   0  0  0  0  0  0  0  0  0  0  0  0
  183.3500  178.8150  143.7640 C   0  0  0  0  0  3  0  0  0  0  0  0
  185.6380  178.5660  142.1650 C   0  0  0  0  0  0  0  0  0  0  0  0
  184.5830  178.5530  144.3690 C   0  0  0  0  0  0  0  0  0  0  0  0
  188.1180  178.0400  143.3120 C   0  0  0  0  0  3  0  0  0  0  0  0
  186.9950  178.1620  144.1300 C   0  0  0  0  0  3  0  0  0  0  0  0
  184.3890  178.8270  141.5740 C   0  0  0  0  0  0  0  0  0  0  0  0
  184.6700  178.3160  146.9550 N   0  0  0  0  0  0  0  0  0  0  0  0
  184.6310  178.4220  145.8030 C   0  0  0  0  0  0  0  0  0  0  0  0
  184.1420  179.0810  139.0000 N   0  0  0  0  0  0  0  0  0  0  0  0
  184.2520  178.9690  140.1470 C   0  0  0  0  0  0  0  0  0  0  0  0
  189.1850  178.0500  141.0520 C   0  0  2  0  0  3  0  0  0  0  0  0
  188.8300  177.9280  139.6020 C   0  0  0  0  0  0  0  0  0  0  0  0
  188.3210  177.1240  137.7180 N   0  0  0  0  0  0  0  0  0  0  0  0
  188.5400  176.7740  138.9740 N   0  0  0  0  0  0  0  0  0  0  0  0
  188.4750  178.4320  137.5840 N   0  0  0  0  0  0  0  0  0  0  0  0
  188.7980  178.9670  138.7500 N   0  0  0  0  0  2  0  0  0  0  0  0
  190.1400  176.9490  141.5170 C   0  0  0  0  0  2  0  0  0  0  0  0
  191.3490  177.5070  142.1120 N   0  0  0  0  0  0  0  0  0  0  0  0
  192.3570  177.2250  141.2520 O   0  0  0  0  0  1  0  0  0  0  0  0
  191.6210  176.7840  143.3540 C   0  0  2  0  0  3  0  0  0  0  0  0
  190.7030  175.7610  143.5370 F   0  0  0  0  0  0  0  0  0  0  0  0
  191.5660  177.7260  144.5530 C   0  0  0  0  0  2  0  0  0  0  0  0
  191.7540  176.9870  145.7920 N   0  0  0  0  0  1  0  0  0  0  0  0
  1  8  1  0  0  0  0
  2  1  2  0  0  0  0
  2  6  1  0  0  0  0
  3  5  1  0  0  0  0
  4  9  1  0  0  0  0
  4  7  1  0  0  0  0
  5  7  2  0  0  0  0
  6  4  2  0  0  0  0
  7 12  1  0  0  0  0
  8  9  2  0  0  0  0
 10  6  1  0  0  0  0
 10  3  2  0  0  0  0
 12 11  3  0  0  0  0
 13 14  3  0  0  0  0
 14 10  1  0  0  0  0
 15 21  1  1  0  0  0
 15  1  1  0  0  0  0
 16 15  1  0  0  0  0
 17 18  1  0  0  0  0
 18 16  2  0  0  0  0
 19 17  2  0  0  0  0
 19 20  1  0  0  0  0
 20 16  1  0  0  0  0
 21 22  1  0  0  0  0
 22 24  1  0  0  0  0
 23 22  1  0  0  0  0
 24 25  1  1  0  0  0
 24 26  1  0  0  0  0
 26 27  1  0  0  0  0
M  END
>  <MODEL>
8

>  <REMARK>
 VINA RESULT:      -7.8      2.895      5.725
  Name = 
  8 active torsions:
  status: ('A' for Active; 'I' for Inactive)
    1  A    between atoms: C_1  and  C_10
    2  A    between atoms: C_7  and  C_10
    3  A    between atoms: C_10  and  C_21
    4  A    between atoms: C_11  and  C_15
    5  A    between atoms: N_12  and  C_15
    6  A    between atoms: N_12  and  C_21
    7  A    between atoms: C_18  and  C_26
    8  A    between atoms: C_19  and  C_27
                            x       y       z     vdW  Elec       q    Type
                         _______ _______ _______ _____ _____    ______ ____

>  <TORSDO>
F 8

$$$$
=
 OpenBabel10222420123D

 27 29  0  0  1  0  0  0  0  0999 V2000
  188.7350  177.9290  141.4140 C   0  0  0  0  0  0  0  0  0  0  0  0
  189.2450  177.6260  142.6390 N   0  0  0  0  0  0  0  0  0  0  0  0
  188.2650  177.4120  146.1710 C   0  0  0  0  0  3  0  0  0  0  0  0
  187.1260  178.0480  143.6880 C   0  0  0  0  0  0  0  0  0  0  0  0
  186.9200  177.7780  146.0910 C   0  0  0  0  0  3  0  0  0  0  0  0
  188.4890  177.6740  143.7710 C   0  0  0  0  0  0  0  0  0  0  0  0
  186.3420  178.0970  144.8580 C   0  0  0  0  0  0  0  0  0  0  0  0
  187.3960  178.3040  141.2920 C   0  0  0  0  0  3  0  0  0  0  0  0
  186.5930  178.3620  142.4300 C   0  0  0  0  0  3  0  0  0  0  0  0
  189.0540  177.3580  145.0190 C   0  0  0  0  0  0  0  0  0  0  0  0
  183.8320  178.7690  144.8020 N   0  0  0  0  0  0  0  0  0  0  0  0
  184.9500  178.4700  144.8270 C   0  0  0  0  0  0  0  0  0  0  0  0
  191.5520  176.6780  145.2350 N   0  0  0  0  0  0  0  0  0  0  0  0
  190.4390  176.9800  145.1400 C   0  0  0  0  0  0  0  0  0  0  0  0
  189.5990  177.8740  140.1910 C   0  0  2  0  0  3  0  0  0  0  0  0
  188.8320  178.1410  138.9330 C   0  0  0  0  0  0  0  0  0  0  0  0
  187.5590  177.9050  137.2660 N   0  0  0  0  0  2  0  0  0  0  0  0
  187.9770  177.2790  138.3530 N   0  0  0  0  0  0  0  0  0  0  0  0
  188.1370  179.0940  137.1830 N   0  0  0  0  0  0  0  0  0  0  0  0
  188.9450  179.2720  138.2140 N   0  0  0  0  0  0  0  0  0  0  0  0
  190.4340  176.5950  140.1090 C   0  0  0  0  0  2  0  0  0  0  0  0
  191.1560  176.5080  138.8450 N   0  0  0  0  0  0  0  0  0  0  0  0
  190.7850  175.3360  138.2780 O   0  0  0  0  0  1  0  0  0  0  0  0
  192.5860  176.4150  139.1420 C   0  0  2  0  0  3  0  0  0  0  0  0
  193.1100  177.6670  139.4250 F   0  0  0  0  0  0  0  0  0  0  0  0
  193.3440  175.8100  137.9640 C   0  0  0  0  0  2  0  0  0  0  0  0
  193.9310  176.8580  137.1430 N   0  0  0  0  0  1  0  0  0  0  0  0
  1  2  1  0  0  0  0
  2  6  2  0  0  0  0
  4  6  1  0  0  0  0
  4  7  1  0  0  0  0
  5  3  1  0  0  0  0
  6 10  1  0  0  0  0
  7  5  2  0  0  0  0
  8  1  2  0  0  0  0
  8  9  1  0  0  0  0
  9  4  2  0  0  0  0
 10 14  1  0  0  0  0
 10  3  2  0  0  0  0
 11 12  3  0  0  0  0
 12  7  1  0  0  0  0
 14 13  3  0  0  0  0
 15 21  1  6  0  0  0
 15  1  1  0  0  0  0
 16 15  1  0  0  0  0
 17 18  1  0  0  0  0
 18 16  2  0  0  0  0
 19 17  1  0  0  0  0
 19 20  2  0  0  0  0
 20 16  1  0  0  0  0
 22 24  1  0  0  0  0
 22 21  1  0  0  0  0
 23 22  1  0  0  0  0
 24 25  1  6  0  0  0
 26 24  1  0  0  0  0
 27 26  1  0  0  0  0
M  END
>  <MODEL>
9

>  <REMARK>
 VINA RESULT:      -7.8      3.220      5.944
  Name = 
  8 active torsions:
  status: ('A' for Active; 'I' for Inactive)
    1  A    between atoms: C_1  and  C_10
    2  A    between atoms: C_7  and  C_10
    3  A    between atoms: C_10  and  C_21
    4  A    between atoms: C_11  and  C_15
    5  A    between atoms: N_12  and  C_15
    6  A    between atoms: N_12  and  C_21
    7  A    between atoms: C_18  and  C_26
    8  A    between atoms: C_19  and  C_27
                            x       y       z     vdW  Elec       q    Type
                         _______ _______ _______ _____ _____    ______ ____

>  <TORSDO>
F 8

$$$$
