=
 OpenBabel10222415383D

 40 45  0  0  1  0  0  0  0  0999 V2000
  188.4750  178.4370  140.4100 C   0  0  0  0  0  2  0  0  0  0  0  0
  184.0710  178.8020  142.2750 C   0  0  0  0  0  0  0  0  0  0  0  0
  188.3830  177.1150  137.6460 C   0  0  0  0  0  3  0  0  0  0  0  0
  184.9460  178.6580  141.2990 C   0  0  0  0  0  0  0  0  0  0  0  0
  182.6920  178.8370  141.6900 C   0  0  0  0  0  3  0  0  0  0  0  0
  186.3630  178.6050  141.4080 N   0  0  0  0  0  0  0  0  0  0  0  0
  187.1570  178.3700  140.2360 C   0  0  0  0  0  0  0  0  0  0  0  0
  189.4940  178.2160  139.4800 O   0  0  0  0  0  0  0  0  0  0  0  0
  189.4780  177.3830  138.3560 C   0  0  0  0  0  0  0  0  0  0  0  0
  185.0120  178.5350  138.7460 C   0  0  0  0  0  3  0  0  0  0  0  0
  187.0160  177.5920  137.8510 C   0  0  0  0  0  3  0  0  0  0  0  0
  184.2760  178.5830  140.0410 C   0  0  0  0  0  0  0  0  0  0  0  0
  182.9710  178.7090  140.2140 C   0  0  0  0  0  3  0  0  0  0  0  0
  186.4650  178.1470  138.9240 C   0  0  0  0  0  0  0  0  0  0  0  0
  190.9030  176.3160  136.6090 C   0  0  0  0  0  3  0  0  0  0  0  0
  190.7730  176.8140  137.9150 C   0  0  0  0  0  0  0  0  0  0  0  0
  191.8880  176.7640  138.7740 C   0  0  0  0  0  3  0  0  0  0  0  0
  192.1170  175.7810  136.1670 C   0  0  0  0  0  3  0  0  0  0  0  0
  193.2160  175.7370  137.0300 C   0  0  0  0  0  0  0  0  0  0  0  0
  193.1010  176.2280  138.3330 C   0  0  0  0  0  3  0  0  0  0  0  0
  195.2980  174.4880  135.5750 C   0  0  0  0  0  2  0  0  0  0  0  0
  194.4530  175.1980  136.5790 N   0  0  0  0  0  0  0  0  0  0  0  0
  195.8990  174.8710  136.7570 C   0  0  1  0  0  3  0  0  0  0  0  0
  196.1950  174.1880  139.1210 C   0  0  0  0  0  1  0  0  0  0  0  0
  196.0190  173.6900  137.7000 C   0  0  0  0  0  2  0  0  0  0  0  0
  184.3760  178.9570  143.7350 C   0  0  1  0  0  3  0  0  0  0  0  0
  183.0960  178.9980  144.5510 C   0  0  0  0  0  1  0  0  0  0  0  0
  185.1870  177.9080  144.1780 O   0  0  0  0  0  0  0  0  0  0  0  0
  186.1200  178.4990  144.9600 N   0  0  0  0  0  2  0  0  0  0  0  0
  186.1490  177.7570  146.2130 C   0  0  0  0  0  2  0  0  0  0  0  0
  188.5890  178.0210  145.6400 C   0  0  0  0  0  2  0  0  0  0  0  0
  189.3450  177.9940  148.3350 C   0  0  0  0  0  2  0  0  0  0  0  0
  190.2550  177.1860  147.4130 C   0  0  0  0  0  2  0  0  0  0  0  0
  187.8690  177.6810  148.0610 C   0  0  0  0  0  2  0  0  0  0  0  0
  190.0210  177.5460  145.9370 C   0  0  1  0  0  3  0  0  0  0  0  0
  187.5760  177.3710  146.5840 C   0  0  1  0  0  3  0  0  0  0  0  0
  190.3300  176.4440  145.1370 O   0  0  0  0  0  0  0  0  0  0  0  0
  191.5570  176.7590  144.5480 C   0  0  0  0  0  2  0  0  0  0  0  0
  190.2220  175.9640  142.6250 C   0  0  0  0  0  1  0  0  0  0  0  0
  191.3900  176.8310  143.0450 C   0  0  0  0  0  2  0  0  0  0  0  0
  2 26  1  0  0  0  0
  3 11  1  0  0  0  0
  3  9  2  0  0  0  0
  4  6  1  0  0  0  0
  4  2  2  0  0  0  0
  5  2  1  0  0  0  0
  7  1  1  0  0  0  0
  7  6  2  0  0  0  0
  8  1  1  0  0  0  0
  9  8  1  0  0  0  0
 10 14  1  0  0  0  0
 10 12  2  0  0  0  0
 11 14  2  0  0  0  0
 12 13  1  0  0  0  0
 12  4  1  0  0  0  0
 13  5  2  0  0  0  0
 14  7  1  0  0  0  0
 15 16  1  0  0  0  0
 16  9  1  0  0  0  0
 16 17  2  0  0  0  0
 18 15  2  0  0  0  0
 18 19  1  0  0  0  0
 19 20  2  0  0  0  0
 20 17  1  0  0  0  0
 21 22  1  0  0  0  0
 21 23  1  0  0  0  0
 22 23  1  0  0  0  0
 22 19  1  0  0  0  0
 23 25  1  1  0  0  0
 25 24  1  0  0  0  0
 26 28  1  0  0  0  0
 26 27  1  1  0  0  0
 28 29  1  0  0  0  0
 29 30  1  0  0  0  0
 31 35  1  0  0  0  0
 31 36  1  0  0  0  0
 33 32  1  0  0  0  0
 34 32  1  0  0  0  0
 35 37  1  6  0  0  0
 35 33  1  0  0  0  0
 36 30  1  6  0  0  0
 36 34  1  0  0  0  0
 38 37  1  0  0  0  0
 39 40  1  0  0  0  0
 40 38  1  0  0  0  0
M  END
>  <MODEL>
1

>  <REMARK>
 VINA RESULT:      -8.7      0.000      0.000
  Name = 
  11 active torsions:
  status: ('A' for Active; 'I' for Inactive)
    1  A    between atoms: C_2  and  C_3
    2  A    between atoms: C_3  and  O_24
    3  A    between atoms: N_6  and  O_24
    4  A    between atoms: N_6  and  C_37
    5  A    between atoms: C_11  and  C_18
    6  A    between atoms: C_20  and  C_23
    7  A    between atoms: C_20  and  O_36
    8  A    between atoms: N_21  and  C_34
    9  A    between atoms: C_30  and  C_38
   10  A    between atoms: C_31  and  O_36
   11  A    between atoms: C_35  and  C_37
                            x       y       z     vdW  Elec       q    Type
                         _______ _______ _______ _____ _____    ______ ____

>  <TORSDO>
F 11

$$$$
=
 OpenBabel10222415383D

 40 45  0  0  1  0  0  0  0  0999 V2000
  186.1060  178.8850  141.6580 C   0  0  0  0  0  2  0  0  0  0  0  0
  188.9920  177.2990  145.1460 C   0  0  0  0  0  0  0  0  0  0  0  0
  183.1630  178.6170  142.4710 C   0  0  0  0  0  3  0  0  0  0  0  0
  187.8580  177.7560  144.6490 C   0  0  0  0  0  0  0  0  0  0  0  0
  188.8390  177.1300  146.6280 C   0  0  0  0  0  3  0  0  0  0  0  0
  187.5770  178.0820  143.2940 N   0  0  0  0  0  0  0  0  0  0  0  0
  186.2560  178.5020  142.9240 C   0  0  0  0  0  0  0  0  0  0  0  0
  184.9460  179.2990  140.9990 O   0  0  0  0  0  0  0  0  0  0  0  0
  183.6210  178.9320  141.2600 C   0  0  0  0  0  0  0  0  0  0  0  0
  185.5570  178.5360  145.4460 C   0  0  0  0  0  3  0  0  0  0  0  0
  183.8820  178.5780  143.7430 C   0  0  0  0  0  3  0  0  0  0  0  0
  186.8940  177.9240  145.6880 C   0  0  0  0  0  0  0  0  0  0  0  0
  187.4250  177.6000  146.8550 C   0  0  0  0  0  3  0  0  0  0  0  0
  185.1890  178.5490  143.9770 C   0  0  0  0  0  0  0  0  0  0  0  0
  181.5810  178.0690  140.1140 C   0  0  0  0  0  3  0  0  0  0  0  0
  182.6750  178.9490  140.1190 C   0  0  0  0  0  0  0  0  0  0  0  0
  182.8400  179.8340  139.0380 C   0  0  0  0  0  3  0  0  0  0  0  0
  180.6710  178.0710  139.0520 C   0  0  0  0  0  3  0  0  0  0  0  0
  180.8470  178.9550  137.9830 C   0  0  0  0  0  0  0  0  0  0  0  0
  181.9310  179.8360  137.9760 C   0  0  0  0  0  3  0  0  0  0  0  0
  179.0490  178.2760  135.9050 C   0  0  0  0  0  2  0  0  0  0  0  0
  179.9170  178.9620  136.9060 N   0  0  0  0  0  0  0  0  0  0  0  0
  179.0860  179.6560  135.8780 C   0  0  1  0  0  3  0  0  0  0  0  0
  180.3140  181.6100  134.9740 C   0  0  0  0  0  1  0  0  0  0  0  0
  179.9930  180.1430  134.7650 C   0  0  0  0  0  2  0  0  0  0  0  0
  190.2570  177.0280  144.3880 C   0  0  1  0  0  3  0  0  0  0  0  0
  191.3630  176.5840  145.3290 C   0  0  0  0  0  1  0  0  0  0  0  0
  190.0420  176.0490  143.4140 O   0  0  0  0  0  0  0  0  0  0  0  0
  190.9710  176.3000  142.4620 N   0  0  0  0  0  2  0  0  0  0  0  0
  190.5340  177.4950  141.7540 C   0  0  0  0  0  2  0  0  0  0  0  0
  189.2280  178.3420  139.7710 C   0  0  0  0  0  2  0  0  0  0  0  0
  190.6770  176.7440  137.9870 C   0  0  0  0  0  2  0  0  0  0  0  0
  189.1750  176.7930  137.7180 C   0  0  0  0  0  2  0  0  0  0  0  0
  190.9610  176.4970  139.4730 C   0  0  0  0  0  2  0  0  0  0  0  0
  188.5080  177.9580  138.4680 C   0  0  1  0  0  3  0  0  0  0  0  0
  189.9190  177.1340  140.4070 C   0  0  1  0  0  3  0  0  0  0  0  0
  187.1780  177.6320  138.7410 O   0  0  0  0  0  0  0  0  0  0  0  0
  186.4420  178.2370  137.7190 C   0  0  0  0  0  2  0  0  0  0  0  0
  184.9280  177.1430  136.1010 C   0  0  0  0  0  1  0  0  0  0  0  0
  185.1200  177.5180  137.5560 C   0  0  0  0  0  2  0  0  0  0  0  0
  1  7  1  0  0  0  0
  2  5  1  0  0  0  0
  3 11  1  0  0  0  0
  4  2  2  0  0  0  0
  4 12  1  0  0  0  0
  5 13  2  0  0  0  0
  6  4  1  0  0  0  0
  7  6  2  0  0  0  0
  7 14  1  0  0  0  0
  8  9  1  0  0  0  0
  8  1  1  0  0  0  0
  9  3  2  0  0  0  0
 10 12  2  0  0  0  0
 11 14  2  0  0  0  0
 12 13  1  0  0  0  0
 14 10  1  0  0  0  0
 15 16  1  0  0  0  0
 16  9  1  0  0  0  0
 17 16  2  0  0  0  0
 18 15  2  0  0  0  0
 19 18  1  0  0  0  0
 20 19  2  0  0  0  0
 20 17  1  0  0  0  0
 21 22  1  0  0  0  0
 22 19  1  0  0  0  0
 23 25  1  6  0  0  0
 23 21  1  0  0  0  0
 23 22  1  0  0  0  0
 25 24  1  0  0  0  0
 26  2  1  0  0  0  0
 26 27  1  1  0  0  0
 28 26  1  0  0  0  0
 29 28  1  0  0  0  0
 30 29  1  0  0  0  0
 31 36  1  0  0  0  0
 32 34  1  0  0  0  0
 33 32  1  0  0  0  0
 33 35  1  0  0  0  0
 34 36  1  0  0  0  0
 35 37  1  1  0  0  0
 35 31  1  0  0  0  0
 36 30  1  1  0  0  0
 38 37  1  0  0  0  0
 39 40  1  0  0  0  0
 40 38  1  0  0  0  0
M  END
>  <MODEL>
2

>  <REMARK>
 VINA RESULT:      -8.6      2.907      9.426
  Name = 
  11 active torsions:
  status: ('A' for Active; 'I' for Inactive)
    1  A    between atoms: C_2  and  C_3
    2  A    between atoms: C_3  and  O_24
    3  A    between atoms: N_6  and  O_24
    4  A    between atoms: N_6  and  C_37
    5  A    between atoms: C_11  and  C_18
    6  A    between atoms: C_20  and  C_23
    7  A    between atoms: C_20  and  O_36
    8  A    between atoms: N_21  and  C_34
    9  A    between atoms: C_30  and  C_38
   10  A    between atoms: C_31  and  O_36
   11  A    between atoms: C_35  and  C_37
                            x       y       z     vdW  Elec       q    Type
                         _______ _______ _______ _____ _____    ______ ____

>  <TORSDO>
F 11

$$$$
=
 OpenBabel10222415383D

 40 45  0  0  1  0  0  0  0  0999 V2000
  186.4840  178.6790  141.6830 C   0  0  0  0  0  2  0  0  0  0  0  0
  189.3890  177.2580  145.2270 C   0  0  0  0  0  0  0  0  0  0  0  0
  183.5450  178.4270  142.5160 C   0  0  0  0  0  3  0  0  0  0  0  0
  188.2510  177.6870  144.7140 C   0  0  0  0  0  0  0  0  0  0  0  0
  189.2400  177.1500  146.7150 C   0  0  0  0  0  3  0  0  0  0  0  0
  187.9650  177.9550  143.3470 N   0  0  0  0  0  0  0  0  0  0  0  0
  186.6400  178.3500  142.9640 C   0  0  0  0  0  0  0  0  0  0  0  0
  185.3200  179.0580  141.0120 O   0  0  0  0  0  0  0  0  0  0  0  0
  183.9980  178.6940  141.2910 C   0  0  0  0  0  0  0  0  0  0  0  0
  185.9470  178.4860  145.4840 C   0  0  0  0  0  3  0  0  0  0  0  0
  184.2670  178.4460  143.7860 C   0  0  0  0  0  3  0  0  0  0  0  0
  187.2890  177.8920  145.7480 C   0  0  0  0  0  0  0  0  0  0  0  0
  187.8250  177.6210  146.9260 C   0  0  0  0  0  3  0  0  0  0  0  0
  185.5750  178.4350  144.0170 C   0  0  0  0  0  0  0  0  0  0  0  0
  182.1900  177.5580  140.0030 C   0  0  0  0  0  3  0  0  0  0  0  0
  183.0490  178.6580  140.1530 C   0  0  0  0  0  0  0  0  0  0  0  0
  182.9800  179.7060  139.2170 C   0  0  0  0  0  3  0  0  0  0  0  0
  181.2810  177.5040  138.9420 C   0  0  0  0  0  3  0  0  0  0  0  0
  181.2220  178.5520  138.0180 C   0  0  0  0  0  0  0  0  0  0  0  0
  182.0720  179.6530  138.1550 C   0  0  0  0  0  3  0  0  0  0  0  0
  179.0030  178.8720  136.2900 C   0  0  0  0  0  2  0  0  0  0  0  0
  180.2930  178.5000  136.9420 N   0  0  0  0  0  0  0  0  0  0  0  0
  179.8340  178.0050  135.6100 C   0  0  1  0  0  3  0  0  0  0  0  0
  180.1350  175.6710  134.8310 C   0  0  0  0  0  1  0  0  0  0  0  0
  179.3510  176.5760  135.7610 C   0  0  0  0  0  2  0  0  0  0  0  0
  190.6530  176.9640  144.4770 C   0  0  1  0  0  3  0  0  0  0  0  0
  191.6930  176.3500  145.3970 C   0  0  0  0  0  1  0  0  0  0  0  0
  190.3980  176.1000  143.4080 O   0  0  0  0  0  0  0  0  0  0  0  0
  191.2120  176.5280  142.4160 N   0  0  0  0  0  2  0  0  0  0  0  0
  190.4450  177.4810  141.6260 C   0  0  0  0  0  2  0  0  0  0  0  0
  189.4450  177.9640  139.3630 C   0  0  0  0  0  2  0  0  0  0  0  0
  191.4370  176.5070  138.0420 C   0  0  0  0  0  2  0  0  0  0  0  0
  190.0270  176.2900  137.4980 C   0  0  0  0  0  2  0  0  0  0  0  0
  191.4560  176.4120  139.5720 C   0  0  0  0  0  2  0  0  0  0  0  0
  189.0600  177.3780  137.9940 C   0  0  1  0  0  3  0  0  0  0  0  0
  190.1680  176.9320  140.2310 C   0  0  1  0  0  3  0  0  0  0  0  0
  187.7660  176.8580  138.0480 O   0  0  0  0  0  0  0  0  0  0  0  0
  186.9360  177.9720  138.1930 C   0  0  0  0  0  2  0  0  0  0  0  0
  185.0240  176.6660  137.3260 C   0  0  0  0  0  1  0  0  0  0  0  0
  185.8440  177.9260  137.1440 C   0  0  0  0  0  2  0  0  0  0  0  0
  1  7  1  0  0  0  0
  2  5  1  0  0  0  0
  3 11  1  0  0  0  0
  4  2  2  0  0  0  0
  4 12  1  0  0  0  0
  5 13  2  0  0  0  0
  6  4  1  0  0  0  0
  7  6  2  0  0  0  0
  7 14  1  0  0  0  0
  8  9  1  0  0  0  0
  8  1  1  0  0  0  0
  9  3  2  0  0  0  0
 10 12  2  0  0  0  0
 11 14  2  0  0  0  0
 12 13  1  0  0  0  0
 14 10  1  0  0  0  0
 15 16  1  0  0  0  0
 16  9  1  0  0  0  0
 17 16  2  0  0  0  0
 18 15  2  0  0  0  0
 19 20  2  0  0  0  0
 19 18  1  0  0  0  0
 20 17  1  0  0  0  0
 21 22  1  0  0  0  0
 22 19  1  0  0  0  0
 23 25  1  1  0  0  0
 23 21  1  0  0  0  0
 23 22  1  0  0  0  0
 24 25  1  0  0  0  0
 26  2  1  0  0  0  0
 26 27  1  1  0  0  0
 28 26  1  0  0  0  0
 29 28  1  0  0  0  0
 30 29  1  0  0  0  0
 31 36  1  0  0  0  0
 32 34  1  0  0  0  0
 33 35  1  0  0  0  0
 33 32  1  0  0  0  0
 34 36  1  0  0  0  0
 35 37  1  1  0  0  0
 35 31  1  0  0  0  0
 36 30  1  1  0  0  0
 37 38  1  0  0  0  0
 40 39  1  0  0  0  0
 40 38  1  0  0  0  0
M  END
>  <MODEL>
3

>  <REMARK>
 VINA RESULT:      -8.2      2.837      9.234
  Name = 
  11 active torsions:
  status: ('A' for Active; 'I' for Inactive)
    1  A    between atoms: C_2  and  C_3
    2  A    between atoms: C_3  and  O_24
    3  A    between atoms: N_6  and  O_24
    4  A    between atoms: N_6  and  C_37
    5  A    between atoms: C_11  and  C_18
    6  A    between atoms: C_20  and  C_23
    7  A    between atoms: C_20  and  O_36
    8  A    between atoms: N_21  and  C_34
    9  A    between atoms: C_30  and  C_38
   10  A    between atoms: C_31  and  O_36
   11  A    between atoms: C_35  and  C_37
                            x       y       z     vdW  Elec       q    Type
                         _______ _______ _______ _____ _____    ______ ____

>  <TORSDO>
F 11

$$$$
=
 OpenBabel10222415383D

 40 45  0  0  1  0  0  0  0  0999 V2000
  186.2350  178.8060  140.6790 C   0  0  0  0  0  2  0  0  0  0  0  0
  181.6050  178.9300  141.9280 C   0  0  0  0  0  0  0  0  0  0  0  0
  186.5740  177.6470  137.8620 C   0  0  0  0  0  3  0  0  0  0  0  0
  182.6110  178.8690  141.0770 C   0  0  0  0  0  0  0  0  0  0  0  0
  180.3190  178.9580  141.1580 C   0  0  0  0  0  3  0  0  0  0  0  0
  184.0010  178.8520  141.3800 N   0  0  0  0  0  0  0  0  0  0  0  0
  184.9570  178.7100  140.3200 C   0  0  0  0  0  0  0  0  0  0  0  0
  187.3790  178.6700  139.8910 O   0  0  0  0  0  0  0  0  0  0  0  0
  187.5500  177.9050  138.7320 C   0  0  0  0  0  0  0  0  0  0  0  0
  183.0330  178.8990  138.5550 C   0  0  0  0  0  3  0  0  0  0  0  0
  185.1750  178.0700  137.8990 C   0  0  0  0  0  3  0  0  0  0  0  0
  182.1240  178.8490  139.7360 C   0  0  0  0  0  0  0  0  0  0  0  0
  180.8040  178.9260  139.7320 C   0  0  0  0  0  3  0  0  0  0  0  0
  184.4610  178.5450  138.9140 C   0  0  0  0  0  0  0  0  0  0  0  0
  189.2170  176.9080  137.1670 C   0  0  0  0  0  3  0  0  0  0  0  0
  188.9140  177.4010  138.4460 C   0  0  0  0  0  0  0  0  0  0  0  0
  189.9240  177.4100  139.4260 C   0  0  0  0  0  3  0  0  0  0  0  0
  190.4980  176.4340  136.8710 C   0  0  0  0  0  3  0  0  0  0  0  0
  191.4920  176.4480  137.8540 C   0  0  0  0  0  0  0  0  0  0  0  0
  191.2050  176.9360  139.1310 C   0  0  0  0  0  3  0  0  0  0  0  0
  194.0420  175.9570  136.7270 C   0  0  0  0  0  2  0  0  0  0  0  0
  192.7990  175.9720  137.5510 N   0  0  0  0  0  0  0  0  0  0  0  0
  193.9700  175.0760  137.7870 C   0  0  1  0  0  3  0  0  0  0  0  0
  194.6810  173.2080  136.3210 C   0  0  0  0  0  1  0  0  0  0  0  0
  193.6240  173.6830  137.2990 C   0  0  0  0  0  2  0  0  0  0  0  0
  181.7000  179.0070  143.4220 C   0  0  1  0  0  3  0  0  0  0  0  0
  180.4180  178.5120  144.0690 C   0  0  0  0  0  1  0  0  0  0  0  0
  182.7840  178.2540  143.8820 O   0  0  0  0  0  0  0  0  0  0  0  0
  183.2230  178.9150  144.9790 N   0  0  0  0  0  2  0  0  0  0  0  0
  184.5690  179.3790  144.6780 C   0  0  0  0  0  2  0  0  0  0  0  0
  186.9290  178.5350  144.4110 C   0  0  0  0  0  2  0  0  0  0  0  0
  187.2070  178.0940  147.1610 C   0  0  0  0  0  2  0  0  0  0  0  0
  187.7870  176.9910  146.2810 C   0  0  0  0  0  2  0  0  0  0  0  0
  185.8000  178.4860  146.6950 C   0  0  0  0  0  2  0  0  0  0  0  0
  187.9470  177.4590  144.8250 C   0  0  1  0  0  3  0  0  0  0  0  0
  185.6110  178.3840  145.1730 C   0  0  1  0  0  3  0  0  0  0  0  0
  187.8470  176.3590  143.9710 O   0  0  0  0  0  0  0  0  0  0  0  0
  188.7350  176.6310  142.9280 C   0  0  0  0  0  2  0  0  0  0  0  0
  191.1430  177.1860  142.8480 C   0  0  0  0  0  1  0  0  0  0  0  0
  190.1240  176.1680  143.3150 C   0  0  0  0  0  2  0  0  0  0  0  0
  2 26  1  0  0  0  0
  3 11  1  0  0  0  0
  3  9  2  0  0  0  0
  4  6  1  0  0  0  0
  4  2  2  0  0  0  0
  5  2  1  0  0  0  0
  7  1  1  0  0  0  0
  7  6  2  0  0  0  0
  8  1  1  0  0  0  0
  9  8  1  0  0  0  0
 10 14  1  0  0  0  0
 10 12  2  0  0  0  0
 11 14  2  0  0  0  0
 12  4  1  0  0  0  0
 13 12  1  0  0  0  0
 13  5  2  0  0  0  0
 14  7  1  0  0  0  0
 15 16  1  0  0  0  0
 16  9  1  0  0  0  0
 16 17  2  0  0  0  0
 18 15  2  0  0  0  0
 18 19  1  0  0  0  0
 19 20  2  0  0  0  0
 20 17  1  0  0  0  0
 21 22  1  0  0  0  0
 21 23  1  0  0  0  0
 22 23  1  0  0  0  0
 22 19  1  0  0  0  0
 23 25  1  6  0  0  0
 24 25  1  0  0  0  0
 26 28  1  0  0  0  0
 26 27  1  1  0  0  0
 28 29  1  0  0  0  0
 30 29  1  0  0  0  0
 31 35  1  0  0  0  0
 31 36  1  0  0  0  0
 33 32  1  0  0  0  0
 34 32  1  0  0  0  0
 35 37  1  6  0  0  0
 35 33  1  0  0  0  0
 36 30  1  6  0  0  0
 36 34  1  0  0  0  0
 38 40  1  0  0  0  0
 38 37  1  0  0  0  0
 39 40  1  0  0  0  0
M  END
>  <MODEL>
4

>  <REMARK>
 VINA RESULT:      -8.2      1.647      2.347
  Name = 
  11 active torsions:
  status: ('A' for Active; 'I' for Inactive)
    1  A    between atoms: C_2  and  C_3
    2  A    between atoms: C_3  and  O_24
    3  A    between atoms: N_6  and  O_24
    4  A    between atoms: N_6  and  C_37
    5  A    between atoms: C_11  and  C_18
    6  A    between atoms: C_20  and  C_23
    7  A    between atoms: C_20  and  O_36
    8  A    between atoms: N_21  and  C_34
    9  A    between atoms: C_30  and  C_38
   10  A    between atoms: C_31  and  O_36
   11  A    between atoms: C_35  and  C_37
                            x       y       z     vdW  Elec       q    Type
                         _______ _______ _______ _____ _____    ______ ____

>  <TORSDO>
F 11

$$$$
=
 OpenBabel10222415383D

 40 45  0  0  1  0  0  0  0  0999 V2000
  188.8120  178.1620  139.7140 C   0  0  0  0  0  2  0  0  0  0  0  0
  184.1710  178.9530  140.6370 C   0  0  0  0  0  0  0  0  0  0  0  0
  189.1430  176.3770  137.2440 C   0  0  0  0  0  3  0  0  0  0  0  0
  185.1980  178.6180  139.8790 C   0  0  0  0  0  0  0  0  0  0  0  0
  182.9230  178.9160  139.8070 C   0  0  0  0  0  3  0  0  0  0  0  0
  186.5670  178.5520  140.2580 N   0  0  0  0  0  0  0  0  0  0  0  0
  187.5450  178.0970  139.3120 C   0  0  0  0  0  0  0  0  0  0  0  0
  189.9670  177.7570  139.0410 O   0  0  0  0  0  0  0  0  0  0  0  0
  190.1070  176.7400  138.0910 C   0  0  0  0  0  0  0  0  0  0  0  0
  185.7150  178.0470  137.4410 C   0  0  0  0  0  3  0  0  0  0  0  0
  187.7910  176.9140  137.1070 C   0  0  0  0  0  3  0  0  0  0  0  0
  184.7620  178.3390  138.5500 C   0  0  0  0  0  0  0  0  0  0  0  0
  183.4560  178.5240  138.4530 C   0  0  0  0  0  3  0  0  0  0  0  0
  187.0880  177.6630  137.9500 C   0  0  0  0  0  0  0  0  0  0  0  0
  191.5140  174.7780  137.4630 C   0  0  0  0  0  3  0  0  0  0  0  0
  191.4270  176.0720  138.0010 C   0  0  0  0  0  0  0  0  0  0  0  0
  192.6050  176.7060  138.4370 C   0  0  0  0  0  3  0  0  0  0  0  0
  192.7490  174.1310  137.3610 C   0  0  0  0  0  3  0  0  0  0  0  0
  193.9110  174.7710  137.7990 C   0  0  0  0  0  0  0  0  0  0  0  0
  193.8400  176.0590  138.3370 C   0  0  0  0  0  3  0  0  0  0  0  0
  196.6290  174.0980  137.3810 C   0  0  0  0  0  2  0  0  0  0  0  0
  195.1690  174.1150  137.6900 N   0  0  0  0  0  0  0  0  0  0  0  0
  196.0440  172.9060  137.7570 C   0  0  1  0  0  3  0  0  0  0  0  0
  194.7620  170.9650  136.9000 C   0  0  0  0  0  1  0  0  0  0  0  0
  195.7720  172.0390  136.5440 C   0  0  0  0  0  2  0  0  0  0  0  0
  184.2180  179.3540  142.0810 C   0  0  1  0  0  3  0  0  0  0  0  0
  183.1330  178.6440  142.8720 C   0  0  0  0  0  1  0  0  0  0  0  0
  185.4700  179.0640  142.6280 O   0  0  0  0  0  0  0  0  0  0  0  0
  185.2100  178.2460  143.6740 N   0  0  0  0  0  2  0  0  0  0  0  0
  186.4020  177.4360  143.8800 C   0  0  0  0  0  2  0  0  0  0  0  0
  188.2330  177.9340  145.5390 C   0  0  0  0  0  2  0  0  0  0  0  0
  186.4070  178.8200  147.4660 C   0  0  0  0  0  2  0  0  0  0  0  0
  187.5330  177.9460  148.0140 C   0  0  0  0  0  2  0  0  0  0  0  0
  185.7890  178.1950  146.2100 C   0  0  0  0  0  2  0  0  0  0  0  0
  188.6850  177.8170  147.0040 C   0  0  1  0  0  3  0  0  0  0  0  0
  186.8040  177.4240  145.3500 C   0  0  1  0  0  3  0  0  0  0  0  0
  189.3390  176.5990  147.2030 O   0  0  0  0  0  0  0  0  0  0  0  0
  190.6510  176.9450  147.5330 C   0  0  0  0  0  2  0  0  0  0  0  0
  192.5050  175.4170  146.9520 C   0  0  0  0  0  1  0  0  0  0  0  0
  191.5840  176.4980  146.4270 C   0  0  0  0  0  2  0  0  0  0  0  0
  2 26  1  0  0  0  0
  3  9  2  0  0  0  0
  4  6  1  0  0  0  0
  4  2  2  0  0  0  0
  5  2  1  0  0  0  0
  7  1  1  0  0  0  0
  7  6  2  0  0  0  0
  8  1  1  0  0  0  0
  9  8  1  0  0  0  0
 10 14  1  0  0  0  0
 10 12  2  0  0  0  0
 11  3  1  0  0  0  0
 11 14  2  0  0  0  0
 12  4  1  0  0  0  0
 13 12  1  0  0  0  0
 13  5  2  0  0  0  0
 14  7  1  0  0  0  0
 15 16  1  0  0  0  0
 16  9  1  0  0  0  0
 16 17  2  0  0  0  0
 18 15  2  0  0  0  0
 18 19  1  0  0  0  0
 19 20  2  0  0  0  0
 20 17  1  0  0  0  0
 21 22  1  0  0  0  0
 21 23  1  0  0  0  0
 22 23  1  0  0  0  0
 22 19  1  0  0  0  0
 23 25  1  6  0  0  0
 25 24  1  0  0  0  0
 26 28  1  0  0  0  0
 26 27  1  1  0  0  0
 28 29  1  0  0  0  0
 29 30  1  0  0  0  0
 31 35  1  0  0  0  0
 32 33  1  0  0  0  0
 34 32  1  0  0  0  0
 35 37  1  6  0  0  0
 35 33  1  0  0  0  0
 36 30  1  6  0  0  0
 36 31  1  0  0  0  0
 36 34  1  0  0  0  0
 37 38  1  0  0  0  0
 40 39  1  0  0  0  0
 40 38  1  0  0  0  0
M  END
>  <MODEL>
5

>  <REMARK>
 VINA RESULT:      -7.8      1.485      2.079
  Name = 
  11 active torsions:
  status: ('A' for Active; 'I' for Inactive)
    1  A    between atoms: C_2  and  C_3
    2  A    between atoms: C_3  and  O_24
    3  A    between atoms: N_6  and  O_24
    4  A    between atoms: N_6  and  C_37
    5  A    between atoms: C_11  and  C_18
    6  A    between atoms: C_20  and  C_23
    7  A    between atoms: C_20  and  O_36
    8  A    between atoms: N_21  and  C_34
    9  A    between atoms: C_30  and  C_38
   10  A    between atoms: C_31  and  O_36
   11  A    between atoms: C_35  and  C_37
                            x       y       z     vdW  Elec       q    Type
                         _______ _______ _______ _____ _____    ______ ____

>  <TORSDO>
F 11

$$$$
=
 OpenBabel10222415383D

 40 45  0  0  1  0  0  0  0  0999 V2000
  189.2530  178.1460  139.8450 C   0  0  0  0  0  2  0  0  0  0  0  0
  184.9190  178.8640  141.7720 C   0  0  0  0  0  0  0  0  0  0  0  0
  189.0170  176.8080  137.0980 C   0  0  0  0  0  3  0  0  0  0  0  0
  185.7660  178.6430  140.7840 C   0  0  0  0  0  0  0  0  0  0  0  0
  183.5370  178.9970  141.2060 C   0  0  0  0  0  3  0  0  0  0  0  0
  187.1760  178.4840  140.8730 N   0  0  0  0  0  0  0  0  0  0  0  0
  187.9310  178.1780  139.6920 C   0  0  0  0  0  0  0  0  0  0  0  0
  190.2370  177.8390  138.9030 O   0  0  0  0  0  0  0  0  0  0  0  0
  190.1410  176.9990  137.7890 C   0  0  0  0  0  0  0  0  0  0  0  0
  185.7820  178.4920  138.2310 C   0  0  0  0  0  3  0  0  0  0  0  0
  187.6950  177.3900  137.3170 C   0  0  0  0  0  3  0  0  0  0  0  0
  185.0720  178.6080  139.5370 C   0  0  0  0  0  0  0  0  0  0  0  0
  183.7830  178.8350  139.7280 C   0  0  0  0  0  3  0  0  0  0  0  0
  187.2040  177.9960  138.3930 C   0  0  0  0  0  0  0  0  0  0  0  0
  192.5280  176.3670  138.1450 C   0  0  0  0  0  3  0  0  0  0  0  0
  191.3820  176.3280  137.3350 C   0  0  0  0  0  0  0  0  0  0  0  0
  191.4420  175.6420  136.1070 C   0  0  0  0  0  3  0  0  0  0  0  0
  193.7080  175.7360  137.7410 C   0  0  0  0  0  3  0  0  0  0  0  0
  193.7550  175.0590  136.5190 C   0  0  0  0  0  0  0  0  0  0  0  0
  192.6220  175.0120  135.7020 C   0  0  0  0  0  3  0  0  0  0  0  0
  195.7340  173.5330  135.1900 C   0  0  0  0  0  2  0  0  0  0  0  0
  194.9540  174.4110  136.1100 N   0  0  0  0  0  0  0  0  0  0  0  0
  196.3920  174.0510  136.2870 C   0  0  1  0  0  3  0  0  0  0  0  0
  196.9610  171.6910  136.7890 C   0  0  0  0  0  1  0  0  0  0  0  0
  196.5030  173.0090  137.3820 C   0  0  0  0  0  2  0  0  0  0  0  0
  185.2580  179.0080  143.2250 C   0  0  1  0  0  3  0  0  0  0  0  0
  184.1430  179.7240  143.9680 C   0  0  0  0  0  1  0  0  0  0  0  0
  185.4830  177.7550  143.8010 O   0  0  0  0  0  0  0  0  0  0  0  0
  186.6700  177.8770  144.4400 N   0  0  0  0  0  2  0  0  0  0  0  0
  187.5160  176.7920  143.9650 C   0  0  0  0  0  2  0  0  0  0  0  0
  189.8830  176.2890  143.2600 C   0  0  0  0  0  2  0  0  0  0  0  0
  190.6720  178.9530  143.5930 C   0  0  0  0  0  2  0  0  0  0  0  0
  191.6780  177.9260  144.1060 C   0  0  0  0  0  2  0  0  0  0  0  0
  189.2540  178.6210  144.0720 C   0  0  0  0  0  2  0  0  0  0  0  0
  191.3730  176.5210  143.5600 C   0  0  1  0  0  3  0  0  0  0  0  0
  188.9890  177.1110  144.1890 C   0  0  1  0  0  3  0  0  0  0  0  0
  191.8290  175.5620  144.4670 O   0  0  0  0  0  0  0  0  0  0  0  0
  191.9460  176.2430  145.6810 C   0  0  0  0  0  2  0  0  0  0  0  0
  192.4310  176.0000  148.0920 C   0  0  0  0  0  1  0  0  0  0  0  0
  192.2960  175.2610  146.7780 C   0  0  0  0  0  2  0  0  0  0  0  0
  2 26  1  0  0  0  0
  3 11  1  0  0  0  0
  3  9  2  0  0  0  0
  4  6  1  0  0  0  0
  4  2  2  0  0  0  0
  5  2  1  0  0  0  0
  7  1  1  0  0  0  0
  7  6  2  0  0  0  0
  8  1  1  0  0  0  0
  9  8  1  0  0  0  0
 10 14  1  0  0  0  0
 10 12  2  0  0  0  0
 11 14  2  0  0  0  0
 12 13  1  0  0  0  0
 12  4  1  0  0  0  0
 13  5  2  0  0  0  0
 14  7  1  0  0  0  0
 16  9  1  0  0  0  0
 16 15  2  0  0  0  0
 17 16  1  0  0  0  0
 18 15  1  0  0  0  0
 19 18  2  0  0  0  0
 20 17  2  0  0  0  0
 20 19  1  0  0  0  0
 21 22  1  0  0  0  0
 21 23  1  0  0  0  0
 22 23  1  0  0  0  0
 22 19  1  0  0  0  0
 23 25  1  1  0  0  0
 24 25  1  0  0  0  0
 26 28  1  0  0  0  0
 26 27  1  1  0  0  0
 28 29  1  0  0  0  0
 30 29  1  0  0  0  0
 31 35  1  0  0  0  0
 31 36  1  0  0  0  0
 32 34  1  0  0  0  0
 32 33  1  0  0  0  0
 34 36  1  0  0  0  0
 35 33  1  0  0  0  0
 35 37  1  1  0  0  0
 36 30  1  6  0  0  0
 37 38  1  0  0  0  0
 38 40  1  0  0  0  0
 40 39  1  0  0  0  0
M  END
>  <MODEL>
6

>  <REMARK>
 VINA RESULT:      -7.8      1.517      2.301
  Name = 
  11 active torsions:
  status: ('A' for Active; 'I' for Inactive)
    1  A    between atoms: C_2  and  C_3
    2  A    between atoms: C_3  and  O_24
    3  A    between atoms: N_6  and  O_24
    4  A    between atoms: N_6  and  C_37
    5  A    between atoms: C_11  and  C_18
    6  A    between atoms: C_20  and  C_23
    7  A    between atoms: C_20  and  O_36
    8  A    between atoms: N_21  and  C_34
    9  A    between atoms: C_30  and  C_38
   10  A    between atoms: C_31  and  O_36
   11  A    between atoms: C_35  and  C_37
                            x       y       z     vdW  Elec       q    Type
                         _______ _______ _______ _____ _____    ______ ____

>  <TORSDO>
F 11

$$$$
=
 OpenBabel10222415383D

 40 45  0  0  1  0  0  0  0  0999 V2000
  189.1190  178.1690  139.4730 C   0  0  0  0  0  2  0  0  0  0  0  0
  184.7890  178.8730  141.4150 C   0  0  0  0  0  0  0  0  0  0  0  0
  188.8770  176.8260  136.7290 C   0  0  0  0  0  3  0  0  0  0  0  0
  185.6330  178.6550  140.4240 C   0  0  0  0  0  0  0  0  0  0  0  0
  183.4050  179.0010  140.8540 C   0  0  0  0  0  3  0  0  0  0  0  0
  187.0440  178.5010  140.5080 N   0  0  0  0  0  0  0  0  0  0  0  0
  187.7960  178.1960  139.3250 C   0  0  0  0  0  0  0  0  0  0  0  0
  190.1000  177.8650  138.5280 O   0  0  0  0  0  0  0  0  0  0  0  0
  190.0030  177.0220  137.4150 C   0  0  0  0  0  0  0  0  0  0  0  0
  185.6400  178.4990  137.8720 C   0  0  0  0  0  3  0  0  0  0  0  0
  187.5530  177.4030  136.9520 C   0  0  0  0  0  3  0  0  0  0  0  0
  184.9350  178.6150  139.1800 C   0  0  0  0  0  0  0  0  0  0  0  0
  183.6460  178.8370  139.3760 C   0  0  0  0  0  3  0  0  0  0  0  0
  187.0640  178.0090  138.0290 C   0  0  0  0  0  0  0  0  0  0  0  0
  192.3520  176.2880  137.8160 C   0  0  0  0  0  3  0  0  0  0  0  0
  191.2450  176.3560  136.9570 C   0  0  0  0  0  0  0  0  0  0  0  0
  191.3420  175.7780  135.6770 C   0  0  0  0  0  3  0  0  0  0  0  0
  193.5320  175.6580  137.4090 C   0  0  0  0  0  3  0  0  0  0  0  0
  193.6160  175.0890  136.1340 C   0  0  0  0  0  0  0  0  0  0  0  0
  192.5220  175.1490  135.2690 C   0  0  0  0  0  3  0  0  0  0  0  0
  195.6340  173.2250  135.4500 C   0  0  0  0  0  2  0  0  0  0  0  0
  194.8150  174.4420  135.7220 N   0  0  0  0  0  0  0  0  0  0  0  0
  196.2360  174.4530  135.2630 C   0  0  1  0  0  3  0  0  0  0  0  0
  198.5800  174.6140  136.0510 C   0  0  0  0  0  1  0  0  0  0  0  0
  197.1260  174.7950  136.4410 C   0  0  0  0  0  2  0  0  0  0  0  0
  185.1330  179.0220  142.8670 C   0  0  1  0  0  3  0  0  0  0  0  0
  183.8960  179.3580  143.6810 C   0  0  0  0  0  1  0  0  0  0  0  0
  185.7160  177.8480  143.3530 O   0  0  0  0  0  0  0  0  0  0  0  0
  186.7760  178.2660  144.0840 N   0  0  0  0  0  2  0  0  0  0  0  0
  187.9630  177.6930  143.4660 C   0  0  0  0  0  2  0  0  0  0  0  0
  188.8450  176.7540  145.6330 C   0  0  0  0  0  2  0  0  0  0  0  0
  191.4600  176.6170  144.6450 C   0  0  0  0  0  2  0  0  0  0  0  0
  191.3500  177.1250  146.0800 C   0  0  0  0  0  2  0  0  0  0  0  0
  190.4470  177.3210  143.7340 C   0  0  0  0  0  2  0  0  0  0  0  0
  189.9680  176.8180  146.6800 C   0  0  1  0  0  3  0  0  0  0  0  0
  189.1310  177.6750  144.4450 C   0  0  1  0  0  3  0  0  0  0  0  0
  189.6600  177.7780  147.6470 O   0  0  0  0  0  0  0  0  0  0  0  0
  188.4130  177.3970  148.1480 C   0  0  0  0  0  2  0  0  0  0  0  0
  186.3910  178.6280  147.4370 C   0  0  0  0  0  1  0  0  0  0  0  0
  187.5690  178.6300  148.3880 C   0  0  0  0  0  2  0  0  0  0  0  0
  2 26  1  0  0  0  0
  3 11  1  0  0  0  0
  3  9  2  0  0  0  0
  4  6  1  0  0  0  0
  4  2  2  0  0  0  0
  5  2  1  0  0  0  0
  7  1  1  0  0  0  0
  7  6  2  0  0  0  0
  8  1  1  0  0  0  0
  9  8  1  0  0  0  0
 10 14  1  0  0  0  0
 10 12  2  0  0  0  0
 11 14  2  0  0  0  0
 12 13  1  0  0  0  0
 12  4  1  0  0  0  0
 13  5  2  0  0  0  0
 14  7  1  0  0  0  0
 16  9  1  0  0  0  0
 16 15  2  0  0  0  0
 17 16  1  0  0  0  0
 18 15  1  0  0  0  0
 19 18  2  0  0  0  0
 20 17  2  0  0  0  0
 20 19  1  0  0  0  0
 21 22  1  0  0  0  0
 22 19  1  0  0  0  0
 23 21  1  0  0  0  0
 23 22  1  0  0  0  0
 23 25  1  1  0  0  0
 24 25  1  0  0  0  0
 26 28  1  0  0  0  0
 26 27  1  1  0  0  0
 28 29  1  0  0  0  0
 30 29  1  0  0  0  0
 31 35  1  0  0  0  0
 32 33  1  0  0  0  0
 33 35  1  0  0  0  0
 34 36  1  0  0  0  0
 34 32  1  0  0  0  0
 35 37  1  1  0  0  0
 36 30  1  6  0  0  0
 36 31  1  0  0  0  0
 37 38  1  0  0  0  0
 38 40  1  0  0  0  0
 39 40  1  0  0  0  0
M  END
>  <MODEL>
7

>  <REMARK>
 VINA RESULT:      -7.6      1.247      2.604
  Name = 
  11 active torsions:
  status: ('A' for Active; 'I' for Inactive)
    1  A    between atoms: C_2  and  C_3
    2  A    between atoms: C_3  and  O_24
    3  A    between atoms: N_6  and  O_24
    4  A    between atoms: N_6  and  C_37
    5  A    between atoms: C_11  and  C_18
    6  A    between atoms: C_20  and  C_23
    7  A    between atoms: C_20  and  O_36
    8  A    between atoms: N_21  and  C_34
    9  A    between atoms: C_30  and  C_38
   10  A    between atoms: C_31  and  O_36
   11  A    between atoms: C_35  and  C_37
                            x       y       z     vdW  Elec       q    Type
                         _______ _______ _______ _____ _____    ______ ____

>  <TORSDO>
F 11

$$$$
=
 OpenBabel10222415383D

 40 45  0  0  1  0  0  0  0  0999 V2000
  185.1360  178.9830  140.0350 C   0  0  0  0  0  2  0  0  0  0  0  0
  180.5380  178.9670  141.4030 C   0  0  0  0  0  0  0  0  0  0  0  0
  185.4980  177.4380  137.4130 C   0  0  0  0  0  3  0  0  0  0  0  0
  181.5270  178.8500  140.5380 C   0  0  0  0  0  0  0  0  0  0  0  0
  179.2370  178.7880  140.6800 C   0  0  0  0  0  3  0  0  0  0  0  0
  182.9200  178.9770  140.7940 N   0  0  0  0  0  0  0  0  0  0  0  0
  183.8610  178.7450  139.7360 C   0  0  0  0  0  0  0  0  0  0  0  0
  186.2690  178.8110  139.2380 O   0  0  0  0  0  0  0  0  0  0  0  0
  186.4710  177.8930  138.2020 C   0  0  0  0  0  0  0  0  0  0  0  0
  181.8900  178.5280  138.0270 C   0  0  0  0  0  3  0  0  0  0  0  0
  184.0730  177.7630  137.4320 C   0  0  0  0  0  3  0  0  0  0  0  0
  181.0140  178.5930  139.2310 C   0  0  0  0  0  0  0  0  0  0  0  0
  179.6910  178.5750  139.2590 C   0  0  0  0  0  3  0  0  0  0  0  0
  183.3470  178.3340  138.3870 C   0  0  0  0  0  0  0  0  0  0  0  0
  188.7890  177.4370  139.0040 C   0  0  0  0  0  3  0  0  0  0  0  0
  187.8630  177.4500  137.9490 C   0  0  0  0  0  0  0  0  0  0  0  0
  188.2820  177.0310  136.6720 C   0  0  0  0  0  3  0  0  0  0  0  0
  190.1050  177.0160  138.7910 C   0  0  0  0  0  3  0  0  0  0  0  0
  190.5090  176.6030  137.5180 C   0  0  0  0  0  0  0  0  0  0  0  0
  189.5980  176.6110  136.4580 C   0  0  0  0  0  3  0  0  0  0  0  0
  193.1740  176.2610  136.6260 C   0  0  0  0  0  2  0  0  0  0  0  0
  191.8470  176.1690  137.3020 N   0  0  0  0  0  0  0  0  0  0  0  0
  192.9970  175.2470  137.5460 C   0  0  1  0  0  3  0  0  0  0  0  0
  194.0140  173.1450  136.7170 C   0  0  0  0  0  1  0  0  0  0  0  0
  192.7250  173.9320  136.8430 C   0  0  0  0  0  2  0  0  0  0  0  0
  180.6600  179.2760  142.8650 C   0  0  1  0  0  3  0  0  0  0  0  0
  179.2900  179.4850  143.4870 C   0  0  0  0  0  1  0  0  0  0  0  0
  181.3290  178.2440  143.5280 O   0  0  0  0  0  0  0  0  0  0  0  0
  182.1620  178.8710  144.3920 N   0  0  0  0  0  2  0  0  0  0  0  0
  183.4260  179.0560  143.6950 C   0  0  0  0  0  2  0  0  0  0  0  0
  185.9100  178.6300  143.7670 C   0  0  0  0  0  2  0  0  0  0  0  0
  185.9440  178.6160  146.5660 C   0  0  0  0  0  2  0  0  0  0  0  0
  186.7980  177.5300  145.9160 C   0  0  0  0  0  2  0  0  0  0  0  0
  184.5530  178.6780  145.9240 C   0  0  0  0  0  2  0  0  0  0  0  0
  187.0400  177.8240  144.4260 C   0  0  1  0  0  3  0  0  0  0  0  0
  184.5590  178.3420  144.4240 C   0  0  1  0  0  3  0  0  0  0  0  0
  187.2250  176.6200  143.7410 O   0  0  0  0  0  0  0  0  0  0  0  0
  188.6090  176.4320  143.7110 C   0  0  0  0  0  2  0  0  0  0  0  0
  190.6750  177.1010  142.5310 C   0  0  0  0  0  1  0  0  0  0  0  0
  189.2410  177.4860  142.8260 C   0  0  0  0  0  2  0  0  0  0  0  0
  2 26  1  0  0  0  0
  3 11  1  0  0  0  0
  3  9  2  0  0  0  0
  4  6  1  0  0  0  0
  4  2  2  0  0  0  0
  5  2  1  0  0  0  0
  7  1  1  0  0  0  0
  7  6  2  0  0  0  0
  8  1  1  0  0  0  0
  9  8  1  0  0  0  0
 10 14  1  0  0  0  0
 10 12  2  0  0  0  0
 11 14  2  0  0  0  0
 12 13  1  0  0  0  0
 12  4  1  0  0  0  0
 13  5  2  0  0  0  0
 14  7  1  0  0  0  0
 16  9  1  0  0  0  0
 16 15  2  0  0  0  0
 17 16  1  0  0  0  0
 18 15  1  0  0  0  0
 19 18  2  0  0  0  0
 20 17  2  0  0  0  0
 20 19  1  0  0  0  0
 21 22  1  0  0  0  0
 21 23  1  0  0  0  0
 22 19  1  0  0  0  0
 22 23  1  0  0  0  0
 23 25  1  6  0  0  0
 24 25  1  0  0  0  0
 26 27  1  1  0  0  0
 26 28  1  0  0  0  0
 28 29  1  0  0  0  0
 30 29  1  0  0  0  0
 31 36  1  0  0  0  0
 31 35  1  0  0  0  0
 33 32  1  0  0  0  0
 34 32  1  0  0  0  0
 35 37  1  6  0  0  0
 35 33  1  0  0  0  0
 36 30  1  6  0  0  0
 36 34  1  0  0  0  0
 38 37  1  0  0  0  0
 39 40  1  0  0  0  0
 40 38  1  0  0  0  0
M  END
>  <MODEL>
8

>  <REMARK>
 VINA RESULT:      -7.6      2.111      3.416
  Name = 
  11 active torsions:
  status: ('A' for Active; 'I' for Inactive)
    1  A    between atoms: C_2  and  C_3
    2  A    between atoms: C_3  and  O_24
    3  A    between atoms: N_6  and  O_24
    4  A    between atoms: N_6  and  C_37
    5  A    between atoms: C_11  and  C_18
    6  A    between atoms: C_20  and  C_23
    7  A    between atoms: C_20  and  O_36
    8  A    between atoms: N_21  and  C_34
    9  A    between atoms: C_30  and  C_38
   10  A    between atoms: C_31  and  O_36
   11  A    between atoms: C_35  and  C_37
                            x       y       z     vdW  Elec       q    Type
                         _______ _______ _______ _____ _____    ______ ____

>  <TORSDO>
F 11

$$$$
=
 OpenBabel10222415383D

 40 45  0  0  1  0  0  0  0  0999 V2000
  188.7950  176.4840  142.4520 C   0  0  0  0  0  2  0  0  0  0  0  0
  186.9420  178.2130  146.5250 C   0  0  0  0  0  0  0  0  0  0  0  0
  191.7910  177.1000  142.2700 C   0  0  0  0  0  3  0  0  0  0  0  0
  187.9160  177.8010  145.7360 C   0  0  0  0  0  0  0  0  0  0  0  0
  187.5180  178.5690  147.8620 C   0  0  0  0  0  3  0  0  0  0  0  0
  187.8070  177.3430  144.3940 N   0  0  0  0  0  0  0  0  0  0  0  0
  188.9930  176.9990  143.6640 C   0  0  0  0  0  0  0  0  0  0  0  0
  189.7390  176.0970  141.4990 O   0  0  0  0  0  0  0  0  0  0  0  0
  191.0270  176.6060  141.2960 C   0  0  0  0  0  0  0  0  0  0  0  0
  190.4260  177.3240  145.8290 C   0  0  0  0  0  3  0  0  0  0  0  0
  191.4950  177.2270  143.6950 C   0  0  0  0  0  3  0  0  0  0  0  0
  189.1630  177.8410  146.4280 C   0  0  0  0  0  0  0  0  0  0  0  0
  188.9790  178.2540  147.6720 C   0  0  0  0  0  3  0  0  0  0  0  0
  190.3280  177.1690  144.3260 C   0  0  0  0  0  0  0  0  0  0  0  0
  192.9440  176.7610  139.7090 C   0  0  0  0  0  3  0  0  0  0  0  0
  191.5750  176.5370  139.9210 C   0  0  0  0  0  0  0  0  0  0  0  0
  190.7560  176.2420  138.8150 C   0  0  0  0  0  3  0  0  0  0  0  0
  193.4860  176.6950  138.4220 C   0  0  0  0  0  3  0  0  0  0  0  0
  192.6620  176.4020  137.3310 C   0  0  0  0  0  0  0  0  0  0  0  0
  191.2970  176.1770  137.5270 C   0  0  0  0  0  3  0  0  0  0  0  0
  193.4830  175.6150  134.7390 C   0  0  0  0  0  2  0  0  0  0  0  0
  193.2140  176.3280  136.0220 N   0  0  0  0  0  0  0  0  0  0  0  0
  194.0030  176.8850  134.8830 C   0  0  1  0  0  3  0  0  0  0  0  0
  196.1320  178.1550  134.9320 C   0  0  0  0  0  1  0  0  0  0  0  0
  195.4770  176.8210  135.2330 C   0  0  0  0  0  2  0  0  0  0  0  0
  185.4830  178.2820  146.1850 C   0  0  1  0  0  3  0  0  0  0  0  0
  184.6340  177.8730  147.3750 C   0  0  0  0  0  1  0  0  0  0  0  0
  185.1370  179.5730  145.7760 O   0  0  0  0  0  0  0  0  0  0  0  0
  184.0520  179.4050  144.9850 N   0  0  0  0  0  2  0  0  0  0  0  0
  184.4960  178.6560  143.8180 C   0  0  0  0  0  2  0  0  0  0  0  0
  183.8030  177.8800  141.5220 C   0  0  0  0  0  2  0  0  0  0  0  0
  181.1280  178.5720  141.9680 C   0  0  0  0  0  2  0  0  0  0  0  0
  181.6540  178.9350  140.5820 C   0  0  0  0  0  2  0  0  0  0  0  0
  182.1120  179.0070  143.0600 C   0  0  0  0  0  2  0  0  0  0  0  0
  182.9700  178.2030  140.2710 C   0  0  1  0  0  3  0  0  0  0  0  0
  183.5840  178.9170  142.6250 C   0  0  1  0  0  3  0  0  0  0  0  0
  183.7270  178.9680  139.3820 O   0  0  0  0  0  0  0  0  0  0  0  0
  184.3220  178.0410  138.5240 C   0  0  0  0  0  2  0  0  0  0  0  0
  186.3410  177.9590  137.1010 C   0  0  0  0  0  1  0  0  0  0  0  0
  185.8170  178.2770  138.4850 C   0  0  0  0  0  2  0  0  0  0  0  0
  1  7  1  0  0  0  0
  2  5  1  0  0  0  0
  3 11  1  0  0  0  0
  4 12  1  0  0  0  0
  4  2  2  0  0  0  0
  6  4  1  0  0  0  0
  7 14  1  0  0  0  0
  7  6  2  0  0  0  0
  8  1  1  0  0  0  0
  9  8  1  0  0  0  0
  9  3  2  0  0  0  0
 10 12  2  0  0  0  0
 11 14  2  0  0  0  0
 12 13  1  0  0  0  0
 13  5  2  0  0  0  0
 14 10  1  0  0  0  0
 15 16  1  0  0  0  0
 16  9  1  0  0  0  0
 17 16  2  0  0  0  0
 18 15  2  0  0  0  0
 19 20  2  0  0  0  0
 19 18  1  0  0  0  0
 20 17  1  0  0  0  0
 21 23  1  0  0  0  0
 21 22  1  0  0  0  0
 22 19  1  0  0  0  0
 23 25  1  1  0  0  0
 23 22  1  0  0  0  0
 24 25  1  0  0  0  0
 26  2  1  0  0  0  0
 26 27  1  1  0  0  0
 28 26  1  0  0  0  0
 29 28  1  0  0  0  0
 30 29  1  0  0  0  0
 31 36  1  0  0  0  0
 32 34  1  0  0  0  0
 33 32  1  0  0  0  0
 35 37  1  6  0  0  0
 35 33  1  0  0  0  0
 35 31  1  0  0  0  0
 36 34  1  0  0  0  0
 36 30  1  1  0  0  0
 38 37  1  0  0  0  0
 39 40  1  0  0  0  0
 40 38  1  0  0  0  0
M  END
>  <MODEL>
9

>  <REMARK>
 VINA RESULT:      -7.6      1.866      5.941
  Name = 
  11 active torsions:
  status: ('A' for Active; 'I' for Inactive)
    1  A    between atoms: C_2  and  C_3
    2  A    between atoms: C_3  and  O_24
    3  A    between atoms: N_6  and  O_24
    4  A    between atoms: N_6  and  C_37
    5  A    between atoms: C_11  and  C_18
    6  A    between atoms: C_20  and  C_23
    7  A    between atoms: C_20  and  O_36
    8  A    between atoms: N_21  and  C_34
    9  A    between atoms: C_30  and  C_38
   10  A    between atoms: C_31  and  O_36
   11  A    between atoms: C_35  and  C_37
                            x       y       z     vdW  Elec       q    Type
                         _______ _______ _______ _____ _____    ______ ____

>  <TORSDO>
F 11

$$$$
