=
 OpenBabel10222416423D

 30 32  0  0  1  0  0  0  0  0999 V2000
  188.4190  177.9610  140.0380 C   0  0  0  0  0  0  0  0  0  0  0  0
  186.7890  177.7820  144.2790 C   0  0  0  0  0  0  0  0  0  0  0  0
  186.4510  177.5090  145.7140 C   0  0  2  0  0  3  0  0  0  0  0  0
  187.9090  177.2030  143.4930 C   0  0  0  0  0  3  0  0  0  0  0  0
  188.9790  177.1630  141.1790 C   0  0  0  0  0  2  0  0  0  0  0  0
  185.9810  179.0050  142.3700 O   0  0  0  0  0  0  0  0  0  0  0  0
  185.2020  178.3330  145.8320 C   0  0  0  0  0  0  0  0  0  0  0  0
  187.0320  178.4740  141.6160 C   0  0  0  0  0  0  0  0  0  0  0  0
  184.4750  178.3830  146.8590 O   0  0  0  0  0  0  0  0  0  0  0  0
  185.9050  178.6180  143.7200 C   0  0  0  0  0  0  0  0  0  0  0  0
  188.9120  177.9410  138.8450 N   0  0  0  0  0  2  0  0  0  0  0  0
  184.9020  179.0300  144.6280 N   0  0  0  0  0  0  0  0  0  0  0  0
  187.9940  177.5640  142.2090 C   0  0  0  0  0  0  0  0  0  0  0  0
  187.2520  178.7180  140.3710 N   0  0  0  0  0  0  0  0  0  0  0  0
  187.5440  178.0670  146.6140 C   0  0  0  0  0  2  0  0  0  0  0  0
  189.7500  178.2280  148.3810 O   0  0  0  0  0  0  0  0  0  0  0  0
  188.7170  177.2080  146.5590 N   0  0  0  0  0  2  0  0  0  0  0  0
  189.7840  177.3270  147.4980 C   0  0  0  0  0  0  0  0  0  0  0  0
  191.6320  176.2450  146.2900 C   0  0  0  0  0  3  0  0  0  0  0  0
  190.9280  176.4740  147.3620 N   0  0  0  0  0  0  0  0  0  0  0  0
  191.2660  176.2690  143.9620 O   0  0  0  0  0  0  0  0  0  0  0  0
  191.6950  178.3130  144.8900 O   0  0  0  0  0  1  0  0  0  0  0  0
  191.4900  176.9430  145.0010 C   0  0  0  0  0  0  0  0  0  0  0  0
  183.6400  179.6760  144.2900 C   0  0  0  0  0  2  0  0  0  0  0  0
  182.5330  178.6450  144.0980 C   0  0  0  0  0  2  0  0  0  0  0  0
  181.7100  178.9520  142.8880 C   0  0  0  0  0  0  0  0  0  0  0  0
  182.2250  178.8080  141.7480 O   0  0  0  0  0  0  0  0  0  0  0  0
  179.2970  178.4510  143.3530 N   0  0  0  0  0  1  0  0  0  0  0  0
  180.3110  179.3900  143.0090 C   0  0  0  0  0  0  0  0  0  0  0  0
  179.9890  180.6250  142.8040 N   0  0  0  0  0  2  0  0  0  0  0  0
  1 14  1  0  0  0  0
  1  5  1  0  0  0  0
  2  3  1  0  0  0  0
  3  7  1  0  0  0  0
  3 15  1  1  0  0  0
  4  2  1  0  0  0  0
  5 13  1  0  0  0  0
  6 10  1  0  0  0  0
  7  9  2  0  0  0  0
  8 13  1  0  0  0  0
  8  6  1  0  0  0  0
 10  2  2  0  0  0  0
 10 12  1  0  0  0  0
 11  1  2  0  0  0  0
 12  7  1  0  0  0  0
 13  4  2  0  0  0  0
 14  8  2  0  0  0  0
 17 15  1  0  0  0  0
 17 18  1  0  0  0  0
 18 16  2  0  0  0  0
 19 20  2  0  0  0  0
 20 18  1  0  0  0  0
 21 23  2  0  0  0  0
 22 23  1  0  0  0  0
 23 19  1  0  0  0  0
 24 12  1  0  0  0  0
 25 24  1  0  0  0  0
 26 29  1  0  0  0  0
 26 25  1  0  0  0  0
 27 26  2  0  0  0  0
 29 28  1  0  0  0  0
 30 29  2  0  0  0  0
M  END
>  <MODEL>
1

>  <REMARK>
 VINA RESULT:      -8.8      0.000      0.000
  Name = 
  8 active torsions:
  status: ('A' for Active; 'I' for Inactive)
    1  A    between atoms: C_3  and  C_11
    2  A    between atoms: C_8  and  C_17
    3  A    between atoms: C_9  and  C_24
    4  A    between atoms: C_10  and  C_17
    5  A    between atoms: C_10  and  C_21
    6  A    between atoms: C_11  and  N_16
    7  A    between atoms: N_14  and  C_25
    8  A    between atoms: C_21  and  N_28
                            x       y       z     vdW  Elec       q    Type
                         _______ _______ _______ _____ _____    ______ ____

>  <TORSDO>
F 8

$$$$
=
 OpenBabel10222416423D

 30 32  0  0  1  0  0  0  0  0999 V2000
  189.8840  177.2330  146.4590 C   0  0  0  0  0  0  0  0  0  0  0  0
  186.9120  177.9890  143.1020 C   0  0  0  0  0  0  0  0  0  0  0  0
  185.7340  178.1290  142.1840 C   0  0  2  0  0  3  0  0  0  0  0  0
  186.8940  177.5830  144.5310 C   0  0  0  0  0  3  0  0  0  0  0  0
  188.3900  177.1100  146.5420 C   0  0  0  0  0  2  0  0  0  0  0  0
  189.3130  178.1370  143.0930 O   0  0  0  0  0  0  0  0  0  0  0  0
  186.4540  178.4770  140.9140 C   0  0  0  0  0  0  0  0  0  0  0  0
  189.3170  177.7630  144.4400 C   0  0  0  0  0  0  0  0  0  0  0  0
  185.8950  178.6310  139.7960 O   0  0  0  0  0  0  0  0  0  0  0  0
  188.0610  178.2360  142.4610 C   0  0  0  0  0  0  0  0  0  0  0  0
  190.6750  176.9690  147.4440 N   0  0  0  0  0  2  0  0  0  0  0  0
  187.8610  178.5760  141.1030 N   0  0  0  0  0  0  0  0  0  0  0  0
  188.0780  177.4880  145.1440 C   0  0  0  0  0  0  0  0  0  0  0  0
  190.3680  177.6220  145.1710 N   0  0  0  0  0  0  0  0  0  0  0  0
  184.8650  179.2910  142.6390 C   0  0  0  0  0  2  0  0  0  0  0  0
  183.5420  179.3450  145.1420 O   0  0  0  0  0  0  0  0  0  0  0  0
  183.5040  178.8320  142.8700 N   0  0  0  0  0  2  0  0  0  0  0  0
  182.8870  178.9110  144.1540 C   0  0  0  0  0  0  0  0  0  0  0  0
  180.4720  178.7910  143.7070 C   0  0  0  0  0  3  0  0  0  0  0  0
  181.5560  178.4050  144.3180 N   0  0  0  0  0  0  0  0  0  0  0  0
  179.9970  180.9160  142.8050 O   0  0  0  0  0  1  0  0  0  0  0  0
  180.6970  179.3600  141.2850 O   0  0  0  0  0  0  0  0  0  0  0  0
  180.4080  179.7470  142.5880 C   0  0  0  0  0  0  0  0  0  0  0  0
  188.8770  178.6060  140.0590 C   0  0  0  0  0  2  0  0  0  0  0  0
  189.2620  177.1950  139.6290 C   0  0  0  0  0  2  0  0  0  0  0  0
  190.7470  177.0170  139.6150 C   0  0  0  0  0  0  0  0  0  0  0  0
  191.4330  177.5500  140.5270 O   0  0  0  0  0  0  0  0  0  0  0  0
  190.8190  174.9940  138.1360 N   0  0  0  0  0  1  0  0  0  0  0  0
  191.4080  176.2130  138.5750 C   0  0  0  0  0  0  0  0  0  0  0  0
  192.5240  176.6040  138.0540 N   0  0  0  0  0  2  0  0  0  0  0  0
  1  5  1  0  0  0  0
  1 11  2  0  0  0  0
  2  4  1  0  0  0  0
  3 15  1  1  0  0  0
  3  2  1  0  0  0  0
  4 13  2  0  0  0  0
  6  8  1  0  0  0  0
  7 12  1  0  0  0  0
  7  3  1  0  0  0  0
  8 13  1  0  0  0  0
  8 14  2  0  0  0  0
  9  7  2  0  0  0  0
 10  6  1  0  0  0  0
 10  2  2  0  0  0  0
 12 10  1  0  0  0  0
 13  5  1  0  0  0  0
 14  1  1  0  0  0  0
 15 17  1  0  0  0  0
 17 18  1  0  0  0  0
 18 20  1  0  0  0  0
 18 16  2  0  0  0  0
 19 20  2  0  0  0  0
 22 23  2  0  0  0  0
 23 21  1  0  0  0  0
 23 19  1  0  0  0  0
 24 12  1  0  0  0  0
 25 24  1  0  0  0  0
 26 25  1  0  0  0  0
 26 27  2  0  0  0  0
 28 29  1  0  0  0  0
 29 26  1  0  0  0  0
 30 29  2  0  0  0  0
M  END
>  <MODEL>
2

>  <REMARK>
 VINA RESULT:      -8.4      2.087      8.165
  Name = 
  8 active torsions:
  status: ('A' for Active; 'I' for Inactive)
    1  A    between atoms: C_3  and  C_11
    2  A    between atoms: C_8  and  C_17
    3  A    between atoms: C_9  and  C_24
    4  A    between atoms: C_10  and  C_17
    5  A    between atoms: C_10  and  C_21
    6  A    between atoms: C_11  and  N_16
    7  A    between atoms: N_14  and  C_25
    8  A    between atoms: C_21  and  N_28
                            x       y       z     vdW  Elec       q    Type
                         _______ _______ _______ _____ _____    ______ ____

>  <TORSDO>
F 8

$$$$
=
 OpenBabel10222416423D

 30 32  0  0  1  0  0  0  0  0999 V2000
  189.9080  177.2170  146.4430 C   0  0  0  0  0  0  0  0  0  0  0  0
  186.8920  177.9860  143.1280 C   0  0  0  0  0  0  0  0  0  0  0  0
  185.7020  178.1310  142.2270 C   0  0  2  0  0  3  0  0  0  0  0  0
  186.8930  177.5750  144.5560 C   0  0  0  0  0  3  0  0  0  0  0  0
  188.4160  177.0940  146.5450 C   0  0  0  0  0  2  0  0  0  0  0  0
  189.2930  178.1350  143.0880 O   0  0  0  0  0  0  0  0  0  0  0  0
  186.4050  178.4830  140.9490 C   0  0  0  0  0  0  0  0  0  0  0  0
  189.3150  177.7550  144.4340 C   0  0  0  0  0  0  0  0  0  0  0  0
  185.8310  178.6410  139.8390 O   0  0  0  0  0  0  0  0  0  0  0  0
  188.0330  178.2360  142.4730 C   0  0  0  0  0  0  0  0  0  0  0  0
  190.7120  176.9500  147.4160 N   0  0  0  0  0  2  0  0  0  0  0  0
  187.8150  178.5810  141.1200 N   0  0  0  0  0  0  0  0  0  0  0  0
  188.0850  177.4780  145.1530 C   0  0  0  0  0  0  0  0  0  0  0  0
  190.3750  177.6110  145.1500 N   0  0  0  0  0  0  0  0  0  0  0  0
  184.8390  179.2910  142.6980 C   0  0  0  0  0  2  0  0  0  0  0  0
  183.5060  179.2950  145.1960 O   0  0  0  0  0  0  0  0  0  0  0  0
  183.4730  178.8390  142.9110 N   0  0  0  0  0  2  0  0  0  0  0  0
  182.8520  178.8910  144.1950 C   0  0  0  0  0  0  0  0  0  0  0  0
  180.4430  178.7860  143.7150 C   0  0  0  0  0  3  0  0  0  0  0  0
  181.5160  178.3930  144.3410 N   0  0  0  0  0  0  0  0  0  0  0  0
  180.0100  180.9190  142.8110 O   0  0  0  0  0  1  0  0  0  0  0  0
  180.6840  179.3490  141.2940 O   0  0  0  0  0  0  0  0  0  0  0  0
  180.4000  179.7420  142.5960 C   0  0  0  0  0  0  0  0  0  0  0  0
  188.8170  178.6160  140.0620 C   0  0  0  0  0  2  0  0  0  0  0  0
  189.4390  177.2390  139.8540 C   0  0  0  0  0  2  0  0  0  0  0  0
  189.1250  176.7020  138.4940 C   0  0  0  0  0  0  0  0  0  0  0  0
  187.9540  176.8200  138.0470 O   0  0  0  0  0  0  0  0  0  0  0  0
  190.8170  174.8880  138.1270 N   0  0  0  0  0  1  0  0  0  0  0  0
  190.1640  176.0660  137.6670 C   0  0  0  0  0  0  0  0  0  0  0  0
  190.4920  176.5690  136.5230 N   0  0  0  0  0  2  0  0  0  0  0  0
  1  5  1  0  0  0  0
  1 11  2  0  0  0  0
  2  4  1  0  0  0  0
  3 15  1  1  0  0  0
  3  2  1  0  0  0  0
  4 13  2  0  0  0  0
  6  8  1  0  0  0  0
  7 12  1  0  0  0  0
  7  3  1  0  0  0  0
  8 14  2  0  0  0  0
  8 13  1  0  0  0  0
  9  7  2  0  0  0  0
 10  6  1  0  0  0  0
 10  2  2  0  0  0  0
 12 10  1  0  0  0  0
 13  5  1  0  0  0  0
 14  1  1  0  0  0  0
 15 17  1  0  0  0  0
 17 18  1  0  0  0  0
 18 20  1  0  0  0  0
 18 16  2  0  0  0  0
 19 20  2  0  0  0  0
 22 23  2  0  0  0  0
 23 21  1  0  0  0  0
 23 19  1  0  0  0  0
 24 12  1  0  0  0  0
 25 24  1  0  0  0  0
 26 25  1  0  0  0  0
 27 26  2  0  0  0  0
 29 28  1  0  0  0  0
 29 26  1  0  0  0  0
 30 29  2  0  0  0  0
M  END
>  <MODEL>
3

>  <REMARK>
 VINA RESULT:      -8.1      2.135      7.956
  Name = 
  8 active torsions:
  status: ('A' for Active; 'I' for Inactive)
    1  A    between atoms: C_3  and  C_11
    2  A    between atoms: C_8  and  C_17
    3  A    between atoms: C_9  and  C_24
    4  A    between atoms: C_10  and  C_17
    5  A    between atoms: C_10  and  C_21
    6  A    between atoms: C_11  and  N_16
    7  A    between atoms: N_14  and  C_25
    8  A    between atoms: C_21  and  N_28
                            x       y       z     vdW  Elec       q    Type
                         _______ _______ _______ _____ _____    ______ ____

>  <TORSDO>
F 8

$$$$
=
 OpenBabel10222416423D

 30 32  0  0  1  0  0  0  0  0999 V2000
  190.7200  176.9600  146.3960 C   0  0  0  0  0  0  0  0  0  0  0  0
  189.8280  177.6570  141.9920 C   0  0  0  0  0  0  0  0  0  0  0  0
  189.8270  177.8660  140.5070 C   0  0  2  0  0  3  0  0  0  0  0  0
  190.9890  177.2990  142.8480 C   0  0  0  0  0  3  0  0  0  0  0  0
  191.6970  176.8700  145.2600 C   0  0  0  0  0  2  0  0  0  0  0  0
  188.3630  177.7830  143.8970 O   0  0  0  0  0  0  0  0  0  0  0  0
  188.3930  178.2680  140.3190 C   0  0  0  0  0  0  0  0  0  0  0  0
  189.4430  177.4410  144.7180 C   0  0  0  0  0  0  0  0  0  0  0  0
  187.8920  178.6290  139.2210 O   0  0  0  0  0  0  0  0  0  0  0  0
  188.6170  177.8790  142.5170 C   0  0  0  0  0  0  0  0  0  0  0  0
  191.0470  176.7840  147.6320 N   0  0  0  0  0  2  0  0  0  0  0  0
  187.6610  178.2360  141.5380 N   0  0  0  0  0  0  0  0  0  0  0  0
  190.7610  177.2010  144.1610 C   0  0  0  0  0  0  0  0  0  0  0  0
  189.3920  177.3110  145.9980 N   0  0  0  0  0  0  0  0  0  0  0  0
  190.1070  176.5470  139.8020 C   0  0  0  0  0  2  0  0  0  0  0  0
  190.8900  174.5760  137.9280 O   0  0  0  0  0  0  0  0  0  0  0  0
  191.0850  176.7490  138.7450 N   0  0  0  0  0  2  0  0  0  0  0  0
  191.4160  175.7170  137.8150 C   0  0  0  0  0  0  0  0  0  0  0  0
  193.6850  175.6800  136.8710 C   0  0  0  0  0  3  0  0  0  0  0  0
  192.4170  175.9720  136.8220 N   0  0  0  0  0  0  0  0  0  0  0  0
  194.2760  173.6220  137.8550 O   0  0  0  0  0  0  0  0  0  0  0  0
  194.9550  175.4720  139.0110 O   0  0  0  0  0  1  0  0  0  0  0  0
  194.3450  174.8770  137.9140 C   0  0  0  0  0  0  0  0  0  0  0  0
  186.3530  178.8310  141.7820 C   0  0  0  0  0  2  0  0  0  0  0  0
  185.4740  177.8990  142.6100 C   0  0  0  0  0  2  0  0  0  0  0  0
  184.3890  178.6550  143.3090 C   0  0  0  0  0  0  0  0  0  0  0  0
  183.4000  179.0600  142.6420 O   0  0  0  0  0  0  0  0  0  0  0  0
  185.7090  178.9880  145.4150 N   0  0  0  0  0  2  0  0  0  0  0  0
  184.4480  178.9090  144.7570 C   0  0  0  0  0  0  0  0  0  0  0  0
  183.3630  179.0610  145.4420 N   0  0  0  0  0  1  0  0  0  0  0  0
  1 11  2  0  0  0  0
  2 10  2  0  0  0  0
  2  4  1  0  0  0  0
  3 15  1  6  0  0  0
  3  2  1  0  0  0  0
  4 13  2  0  0  0  0
  5  1  1  0  0  0  0
  6  8  1  0  0  0  0
  7  3  1  0  0  0  0
  7 12  1  0  0  0  0
  8 14  2  0  0  0  0
  9  7  2  0  0  0  0
 10  6  1  0  0  0  0
 12 24  1  0  0  0  0
 12 10  1  0  0  0  0
 13  8  1  0  0  0  0
 13  5  1  0  0  0  0
 14  1  1  0  0  0  0
 17 15  1  0  0  0  0
 18 16  2  0  0  0  0
 18 17  1  0  0  0  0
 19 23  1  0  0  0  0
 20 19  2  0  0  0  0
 20 18  1  0  0  0  0
 21 23  2  0  0  0  0
 23 22  1  0  0  0  0
 24 25  1  0  0  0  0
 25 26  1  0  0  0  0
 26 29  1  0  0  0  0
 27 26  2  0  0  0  0
 29 28  2  0  0  0  0
 29 30  1  0  0  0  0
M  END
>  <MODEL>
4

>  <REMARK>
 VINA RESULT:      -8.0      3.280      6.517
  Name = 
  8 active torsions:
  status: ('A' for Active; 'I' for Inactive)
    1  A    between atoms: C_3  and  C_11
    2  A    between atoms: C_8  and  C_17
    3  A    between atoms: C_9  and  C_24
    4  A    between atoms: C_10  and  C_17
    5  A    between atoms: C_10  and  C_21
    6  A    between atoms: C_11  and  N_16
    7  A    between atoms: N_14  and  C_25
    8  A    between atoms: C_21  and  N_28
                            x       y       z     vdW  Elec       q    Type
                         _______ _______ _______ _____ _____    ______ ____

>  <TORSDO>
F 8

$$$$
=
 OpenBabel10222416423D

 30 32  0  0  1  0  0  0  0  0999 V2000
  190.9830  176.8120  146.5500 C   0  0  0  0  0  0  0  0  0  0  0  0
  189.0180  178.0210  142.6320 C   0  0  0  0  0  0  0  0  0  0  0  0
  188.6410  178.5080  141.2650 C   0  0  2  0  0  3  0  0  0  0  0  0
  190.3840  177.9210  143.2050 C   0  0  0  0  0  3  0  0  0  0  0  0
  191.6800  177.2900  145.3100 C   0  0  0  0  0  2  0  0  0  0  0  0
  188.0180  177.2550  144.6830 O   0  0  0  0  0  0  0  0  0  0  0  0
  187.1460  178.4220  141.3790 C   0  0  0  0  0  0  0  0  0  0  0  0
  189.2970  177.1480  145.2380 C   0  0  0  0  0  0  0  0  0  0  0  0
  186.3400  178.8010  140.4880 O   0  0  0  0  0  0  0  0  0  0  0  0
  187.9340  177.7050  143.3530 C   0  0  0  0  0  0  0  0  0  0  0  0
  191.6000  176.5160  147.6440 N   0  0  0  0  0  2  0  0  0  0  0  0
  186.7320  177.8990  142.6350 N   0  0  0  0  0  0  0  0  0  0  0  0
  190.4780  177.4910  144.4680 C   0  0  0  0  0  0  0  0  0  0  0  0
  189.5590  176.7560  146.4360 N   0  0  0  0  0  0  0  0  0  0  0  0
  189.1510  177.5340  140.2140 C   0  0  0  0  0  2  0  0  0  0  0  0
  187.7640  176.5670  137.9440 O   0  0  0  0  0  0  0  0  0  0  0  0
  189.1520  178.1710  138.9070 N   0  0  0  0  0  2  0  0  0  0  0  0
  188.4090  177.6430  137.8090 C   0  0  0  0  0  0  0  0  0  0  0  0
  189.0520  177.8680  135.4470 C   0  0  0  0  0  3  0  0  0  0  0  0
  188.4860  178.3000  136.5380 N   0  0  0  0  0  0  0  0  0  0  0  0
  188.8880  175.6250  134.7440 O   0  0  0  0  0  0  0  0  0  0  0  0
  190.8930  176.1970  135.6770 O   0  0  0  0  0  1  0  0  0  0  0  0
  189.6150  176.5230  135.2430 C   0  0  0  0  0  0  0  0  0  0  0  0
  185.3870  177.9480  143.1960 C   0  0  0  0  0  2  0  0  0  0  0  0
  185.1590  179.2500  143.9560 C   0  0  0  0  0  2  0  0  0  0  0  0
  184.5870  178.9930  145.3140 C   0  0  0  0  0  0  0  0  0  0  0  0
  183.3370  179.0040  145.4620 O   0  0  0  0  0  0  0  0  0  0  0  0
  185.8750  179.7590  147.3250 N   0  0  0  0  0  1  0  0  0  0  0  0
  185.4580  178.7040  146.4640 C   0  0  0  0  0  0  0  0  0  0  0  0
  185.8520  177.4960  146.7020 N   0  0  0  0  0  2  0  0  0  0  0  0
  1 11  2  0  0  0  0
  2  4  1  0  0  0  0
  2 10  2  0  0  0  0
  3 15  1  6  0  0  0
  3  7  1  0  0  0  0
  3  2  1  0  0  0  0
  4 13  2  0  0  0  0
  5  1  1  0  0  0  0
  6  8  1  0  0  0  0
  7 12  1  0  0  0  0
  8 14  2  0  0  0  0
  9  7  2  0  0  0  0
 10  6  1  0  0  0  0
 12 24  1  0  0  0  0
 12 10  1  0  0  0  0
 13  8  1  0  0  0  0
 13  5  1  0  0  0  0
 14  1  1  0  0  0  0
 17 15  1  0  0  0  0
 18 16  2  0  0  0  0
 18 17  1  0  0  0  0
 19 20  2  0  0  0  0
 20 18  1  0  0  0  0
 21 23  2  0  0  0  0
 23 19  1  0  0  0  0
 23 22  1  0  0  0  0
 24 25  1  0  0  0  0
 25 26  1  0  0  0  0
 26 27  2  0  0  0  0
 26 29  1  0  0  0  0
 29 30  2  0  0  0  0
 29 28  1  0  0  0  0
M  END
>  <MODEL>
5

>  <REMARK>
 VINA RESULT:      -7.8      3.155      6.889
  Name = 
  8 active torsions:
  status: ('A' for Active; 'I' for Inactive)
    1  A    between atoms: C_3  and  C_11
    2  A    between atoms: C_8  and  C_17
    3  A    between atoms: C_9  and  C_24
    4  A    between atoms: C_10  and  C_17
    5  A    between atoms: C_10  and  C_21
    6  A    between atoms: C_11  and  N_16
    7  A    between atoms: N_14  and  C_25
    8  A    between atoms: C_21  and  N_28
                            x       y       z     vdW  Elec       q    Type
                         _______ _______ _______ _____ _____    ______ ____

>  <TORSDO>
F 8

$$$$
=
 OpenBabel10222416423D

 30 32  0  0  1  0  0  0  0  0999 V2000
  184.8460  178.6730  145.1790 C   0  0  0  0  0  0  0  0  0  0  0  0
  188.4220  177.5950  142.5850 C   0  0  0  0  0  0  0  0  0  0  0  0
  189.3970  177.1580  141.5330 C   0  0  2  0  0  3  0  0  0  0  0  0
  186.9450  177.6900  142.4570 C   0  0  0  0  0  3  0  0  0  0  0  0
  184.8120  178.2530  143.7380 C   0  0  0  0  0  2  0  0  0  0  0  0
  188.3430  178.2670  144.8940 O   0  0  0  0  0  0  0  0  0  0  0  0
  190.6650  177.2210  142.3340 C   0  0  0  0  0  0  0  0  0  0  0  0
  186.9510  178.3680  144.7920 C   0  0  0  0  0  0  0  0  0  0  0  0
  191.7960  176.8680  141.9080 O   0  0  0  0  0  0  0  0  0  0  0  0
  189.0400  177.8690  143.7400 C   0  0  0  0  0  0  0  0  0  0  0  0
  183.7870  178.9330  145.8690 N   0  0  0  0  0  2  0  0  0  0  0  0
  190.4410  177.6890  143.6590 N   0  0  0  0  0  0  0  0  0  0  0  0
  186.2690  178.0700  143.5460 C   0  0  0  0  0  0  0  0  0  0  0  0
  186.1580  178.7150  145.7450 N   0  0  0  0  0  0  0  0  0  0  0  0
  189.4280  178.1800  140.4060 C   0  0  0  0  0  2  0  0  0  0  0  0
  189.0530  179.3950  137.8770 O   0  0  0  0  0  0  0  0  0  0  0  0
  189.5860  177.5030  139.1280 N   0  0  0  0  0  2  0  0  0  0  0  0
  189.4060  178.1830  137.8860 C   0  0  0  0  0  0  0  0  0  0  0  0
  188.6550  176.6800  136.0920 C   0  0  0  0  0  3  0  0  0  0  0  0
  189.5400  177.4450  136.6650 N   0  0  0  0  0  0  0  0  0  0  0  0
  186.4320  177.4450  136.2500 O   0  0  0  0  0  0  0  0  0  0  0  0
  186.8320  175.4360  137.2620 O   0  0  0  0  0  1  0  0  0  0  0  0
  187.2510  176.5250  136.5080 C   0  0  0  0  0  0  0  0  0  0  0  0
  191.3690  177.6010  144.7800 C   0  0  0  0  0  2  0  0  0  0  0  0
  191.0650  176.3840  145.6470 C   0  0  0  0  0  2  0  0  0  0  0  0
  190.9980  176.7530  147.0950 C   0  0  0  0  0  0  0  0  0  0  0  0
  192.0540  176.7240  147.7810 O   0  0  0  0  0  0  0  0  0  0  0  0
  188.5620  176.3780  147.5520 N   0  0  0  0  0  2  0  0  0  0  0  0
  189.7320  177.1710  147.7170 C   0  0  0  0  0  0  0  0  0  0  0  0
  189.6710  178.2570  148.4160 N   0  0  0  0  0  1  0  0  0  0  0  0
  1 14  1  0  0  0  0
  1 11  2  0  0  0  0
  2 10  2  0  0  0  0
  3 15  1  6  0  0  0
  3  7  1  0  0  0  0
  3  2  1  0  0  0  0
  4  2  1  0  0  0  0
  4 13  2  0  0  0  0
  5  1  1  0  0  0  0
  7 12  1  0  0  0  0
  8  6  1  0  0  0  0
  8 14  2  0  0  0  0
  9  7  2  0  0  0  0
 10  6  1  0  0  0  0
 12 10  1  0  0  0  0
 12 24  1  0  0  0  0
 13  5  1  0  0  0  0
 13  8  1  0  0  0  0
 16 18  2  0  0  0  0
 17 15  1  0  0  0  0
 18 17  1  0  0  0  0
 19 23  1  0  0  0  0
 19 20  2  0  0  0  0
 20 18  1  0  0  0  0
 21 23  2  0  0  0  0
 23 22  1  0  0  0  0
 24 25  1  0  0  0  0
 25 26  1  0  0  0  0
 26 29  1  0  0  0  0
 26 27  2  0  0  0  0
 28 29  2  0  0  0  0
 29 30  1  0  0  0  0
M  END
>  <MODEL>
6

>  <REMARK>
 VINA RESULT:      -7.8      2.770      8.051
  Name = 
  8 active torsions:
  status: ('A' for Active; 'I' for Inactive)
    1  A    between atoms: C_3  and  C_11
    2  A    between atoms: C_8  and  C_17
    3  A    between atoms: C_9  and  C_24
    4  A    between atoms: C_10  and  C_17
    5  A    between atoms: C_10  and  C_21
    6  A    between atoms: C_11  and  N_16
    7  A    between atoms: N_14  and  C_25
    8  A    between atoms: C_21  and  N_28
                            x       y       z     vdW  Elec       q    Type
                         _______ _______ _______ _____ _____    ______ ____

>  <TORSDO>
F 8

$$$$
=
 OpenBabel10222416423D

 30 32  0  0  1  0  0  0  0  0999 V2000
  190.6580  177.0710  139.5660 C   0  0  0  0  0  0  0  0  0  0  0  0
  186.9860  178.2070  141.9950 C   0  0  0  0  0  0  0  0  0  0  0  0
  185.7050  178.7440  142.5600 C   0  0  2  0  0  3  0  0  0  0  0  0
  187.5050  178.3880  140.6150 C   0  0  0  0  0  3  0  0  0  0  0  0
  189.4740  177.8570  139.0830 C   0  0  0  0  0  2  0  0  0  0  0  0
  188.9430  176.9720  142.6520 O   0  0  0  0  0  0  0  0  0  0  0  0
  185.8450  178.2700  143.9770 C   0  0  0  0  0  0  0  0  0  0  0  0
  189.4460  177.1260  141.3560 C   0  0  0  0  0  0  0  0  0  0  0  0
  185.0330  178.5360  144.9020 O   0  0  0  0  0  0  0  0  0  0  0  0
  187.6870  177.5430  142.9220 C   0  0  0  0  0  0  0  0  0  0  0  0
  191.6870  176.8120  138.8320 N   0  0  0  0  0  2  0  0  0  0  0  0
  187.0330  177.5110  144.1750 N   0  0  0  0  0  0  0  0  0  0  0  0
  188.6970  177.8470  140.3450 C   0  0  0  0  0  0  0  0  0  0  0  0
  190.5750  176.6710  140.9370 N   0  0  0  0  0  0  0  0  0  0  0  0
  184.5220  178.0660  141.8860 C   0  0  0  0  0  2  0  0  0  0  0  0
  182.2140  177.8380  140.2630 O   0  0  0  0  0  0  0  0  0  0  0  0
  183.3370  178.9000  142.0060 N   0  0  0  0  0  2  0  0  0  0  0  0
  182.1950  178.7150  141.1700 C   0  0  0  0  0  0  0  0  0  0  0  0
  179.9370  179.3560  141.9000 C   0  0  0  0  0  3  0  0  0  0  0  0
  181.0770  179.5990  141.3170 N   0  0  0  0  0  0  0  0  0  0  0  0
  179.6720  178.1930  143.9320 O   0  0  0  0  0  1  0  0  0  0  0  0
  179.3180  176.9420  142.0530 O   0  0  0  0  0  0  0  0  0  0  0  0
  179.6060  178.1500  142.6760 C   0  0  0  0  0  0  0  0  0  0  0  0
  187.6290  177.1500  145.4550 C   0  0  0  0  0  2  0  0  0  0  0  0
  188.9540  177.8750  145.6640 C   0  0  0  0  0  2  0  0  0  0  0  0
  189.8360  177.1290  146.6150 C   0  0  0  0  0  0  0  0  0  0  0  0
  189.3800  176.8000  147.7410 O   0  0  0  0  0  0  0  0  0  0  0  0
  191.5980  176.7350  144.8750 N   0  0  0  0  0  2  0  0  0  0  0  0
  191.2110  176.7550  146.2440 C   0  0  0  0  0  0  0  0  0  0  0  0
  192.0740  176.4430  147.1540 N   0  0  0  0  0  1  0  0  0  0  0  0
  1 14  1  0  0  0  0
  2  3  1  0  0  0  0
  2 10  2  0  0  0  0
  3 15  1  6  0  0  0
  3  7  1  0  0  0  0
  4  2  1  0  0  0  0
  5  1  1  0  0  0  0
  5 13  1  0  0  0  0
  6 10  1  0  0  0  0
  7 12  1  0  0  0  0
  7  9  2  0  0  0  0
  8  6  1  0  0  0  0
 10 12  1  0  0  0  0
 11  1  2  0  0  0  0
 12 24  1  0  0  0  0
 13  4  2  0  0  0  0
 13  8  1  0  0  0  0
 14  8  2  0  0  0  0
 15 17  1  0  0  0  0
 16 18  2  0  0  0  0
 18 20  1  0  0  0  0
 18 17  1  0  0  0  0
 19 23  1  0  0  0  0
 20 19  2  0  0  0  0
 22 23  2  0  0  0  0
 23 21  1  0  0  0  0
 24 25  1  0  0  0  0
 25 26  1  0  0  0  0
 26 27  2  0  0  0  0
 28 29  2  0  0  0  0
 29 26  1  0  0  0  0
 29 30  1  0  0  0  0
M  END
>  <MODEL>
7

>  <REMARK>
 VINA RESULT:      -7.7      2.064      7.938
  Name = 
  8 active torsions:
  status: ('A' for Active; 'I' for Inactive)
    1  A    between atoms: C_3  and  C_11
    2  A    between atoms: C_8  and  C_17
    3  A    between atoms: C_9  and  C_24
    4  A    between atoms: C_10  and  C_17
    5  A    between atoms: C_10  and  C_21
    6  A    between atoms: C_11  and  N_16
    7  A    between atoms: N_14  and  C_25
    8  A    between atoms: C_21  and  N_28
                            x       y       z     vdW  Elec       q    Type
                         _______ _______ _______ _____ _____    ______ ____

>  <TORSDO>
F 8

$$$$
=
 OpenBabel10222416423D

 30 32  0  0  1  0  0  0  0  0999 V2000
  189.3430  177.4710  140.2700 C   0  0  0  0  0  0  0  0  0  0  0  0
  185.7740  178.6480  142.8300 C   0  0  0  0  0  0  0  0  0  0  0  0
  184.5220  179.2010  143.4410 C   0  0  2  0  0  3  0  0  0  0  0  0
  186.2480  178.8290  141.4330 C   0  0  0  0  0  3  0  0  0  0  0  0
  188.1550  178.2760  139.8320 C   0  0  0  0  0  2  0  0  0  0  0  0
  187.7340  177.3800  143.4130 O   0  0  0  0  0  0  0  0  0  0  0  0
  184.7040  178.7170  144.8500 C   0  0  0  0  0  0  0  0  0  0  0  0
  188.1940  177.5340  142.1010 C   0  0  0  0  0  0  0  0  0  0  0  0
  183.9280  178.9910  145.8040 O   0  0  0  0  0  0  0  0  0  0  0  0
  186.4970  177.9690  143.7290 C   0  0  0  0  0  0  0  0  0  0  0  0
  190.3420  177.2000  139.4990 N   0  0  0  0  0  2  0  0  0  0  0  0
  185.8850  177.9400  145.0030 N   0  0  0  0  0  0  0  0  0  0  0  0
  187.4220  178.2720  141.1190 C   0  0  0  0  0  0  0  0  0  0  0  0
  189.3010  177.0650  141.6400 N   0  0  0  0  0  0  0  0  0  0  0  0
  183.3060  178.5440  142.8050 C   0  0  0  0  0  2  0  0  0  0  0  0
  180.7240  178.5590  143.9660 O   0  0  0  0  0  0  0  0  0  0  0  0
  182.2830  179.5430  142.5420 N   0  0  0  0  0  2  0  0  0  0  0  0
  181.0080  179.5060  143.1810 C   0  0  0  0  0  0  0  0  0  0  0  0
  179.5040  180.7420  141.6800 C   0  0  0  0  0  3  0  0  0  0  0  0
  180.0330  180.5010  142.8460 N   0  0  0  0  0  0  0  0  0  0  0  0
  180.4060  180.3750  139.5340 O   0  0  0  0  0  0  0  0  0  0  0  0
  179.0110  178.7290  140.2860 O   0  0  0  0  0  1  0  0  0  0  0  0
  179.6880  179.9290  140.4660 C   0  0  0  0  0  0  0  0  0  0  0  0
  186.5200  177.5630  146.2600 C   0  0  0  0  0  2  0  0  0  0  0  0
  187.8830  178.2310  146.4060 C   0  0  0  0  0  2  0  0  0  0  0  0
  188.8590  177.3290  147.0920 C   0  0  0  0  0  0  0  0  0  0  0  0
  188.5070  176.7380  148.1470 O   0  0  0  0  0  0  0  0  0  0  0  0
  191.1780  176.3990  147.3040 N   0  0  0  0  0  1  0  0  0  0  0  0
  190.2050  177.1040  146.5410 C   0  0  0  0  0  0  0  0  0  0  0  0
  190.5160  177.5430  145.3650 N   0  0  0  0  0  2  0  0  0  0  0  0
  1 14  1  0  0  0  0
  2  3  1  0  0  0  0
  2 10  2  0  0  0  0
  3 15  1  6  0  0  0
  3  7  1  0  0  0  0
  4  2  1  0  0  0  0
  5  1  1  0  0  0  0
  5 13  1  0  0  0  0
  6 10  1  0  0  0  0
  7 12  1  0  0  0  0
  7  9  2  0  0  0  0
  8  6  1  0  0  0  0
 10 12  1  0  0  0  0
 11  1  2  0  0  0  0
 12 24  1  0  0  0  0
 13  4  2  0  0  0  0
 13  8  1  0  0  0  0
 14  8  2  0  0  0  0
 17 15  1  0  0  0  0
 17 18  1  0  0  0  0
 18 16  2  0  0  0  0
 19 20  2  0  0  0  0
 20 18  1  0  0  0  0
 21 23  2  0  0  0  0
 22 23  1  0  0  0  0
 23 19  1  0  0  0  0
 24 25  1  0  0  0  0
 25 26  1  0  0  0  0
 26 27  2  0  0  0  0
 29 26  1  0  0  0  0
 29 28  1  0  0  0  0
 30 29  2  0  0  0  0
M  END
>  <MODEL>
8

>  <REMARK>
 VINA RESULT:      -7.7      1.792      7.780
  Name = 
  8 active torsions:
  status: ('A' for Active; 'I' for Inactive)
    1  A    between atoms: C_3  and  C_11
    2  A    between atoms: C_8  and  C_17
    3  A    between atoms: C_9  and  C_24
    4  A    between atoms: C_10  and  C_17
    5  A    between atoms: C_10  and  C_21
    6  A    between atoms: C_11  and  N_16
    7  A    between atoms: N_14  and  C_25
    8  A    between atoms: C_21  and  N_28
                            x       y       z     vdW  Elec       q    Type
                         _______ _______ _______ _____ _____    ______ ____

>  <TORSDO>
F 8

$$$$
=
 OpenBabel10222416423D

 30 32  0  0  1  0  0  0  0  0999 V2000
  188.2320  177.4640  147.5830 C   0  0  0  0  0  0  0  0  0  0  0  0
  188.6090  177.8140  143.0650 C   0  0  0  0  0  0  0  0  0  0  0  0
  189.0210  177.8880  141.6250 C   0  0  2  0  0  3  0  0  0  0  0  0
  189.4650  177.4650  144.2280 C   0  0  0  0  0  3  0  0  0  0  0  0
  189.4660  177.2130  146.7660 C   0  0  0  0  0  2  0  0  0  0  0  0
  186.7040  178.1990  144.4840 O   0  0  0  0  0  0  0  0  0  0  0  0
  187.7280  178.3570  141.0250 C   0  0  0  0  0  0  0  0  0  0  0  0
  187.4930  177.8670  145.5910 C   0  0  0  0  0  0  0  0  0  0  0  0
  187.5690  178.6480  139.8100 O   0  0  0  0  0  0  0  0  0  0  0  0
  187.3240  178.1550  143.2230 C   0  0  0  0  0  0  0  0  0  0  0  0
  188.2020  177.3800  148.8700 N   0  0  0  0  0  2  0  0  0  0  0  0
  186.6970  178.4790  141.9980 N   0  0  0  0  0  0  0  0  0  0  0  0
  188.8870  177.5000  145.4330 C   0  0  0  0  0  0  0  0  0  0  0  0
  187.0910  177.8560  146.8140 N   0  0  0  0  0  0  0  0  0  0  0  0
  189.3700  176.4970  141.1180 C   0  0  0  0  0  2  0  0  0  0  0  0
  190.1820  177.4680  138.5860 O   0  0  0  0  0  0  0  0  0  0  0  0
  190.7370  176.4790  140.6210 N   0  0  0  0  0  2  0  0  0  0  0  0
  191.0820  177.0090  139.3420 C   0  0  0  0  0  0  0  0  0  0  0  0
  192.9540  176.0820  138.0460 C   0  0  0  0  0  3  0  0  0  0  0  0
  192.4420  176.9230  138.8990 N   0  0  0  0  0  0  0  0  0  0  0  0
  192.2550  175.2020  135.9750 O   0  0  0  0  0  0  0  0  0  0  0  0
  191.3530  174.1800  137.8080 O   0  0  0  0  0  1  0  0  0  0  0  0
  192.2000  175.1170  137.2290 C   0  0  0  0  0  0  0  0  0  0  0  0
  185.4250  179.1720  141.8330 C   0  0  0  0  0  2  0  0  0  0  0  0
  184.2860  178.1800  141.6190 C   0  0  0  0  0  2  0  0  0  0  0  0
  183.4290  178.5800  140.4600 C   0  0  0  0  0  0  0  0  0  0  0  0
  182.1770  178.5190  140.5780 O   0  0  0  0  0  0  0  0  0  0  0  0
  184.5840  178.1390  138.2790 N   0  0  0  0  0  2  0  0  0  0  0  0
  184.0230  179.0640  139.2040 C   0  0  0  0  0  0  0  0  0  0  0  0
  184.0430  180.3280  138.9310 N   0  0  0  0  0  1  0  0  0  0  0  0
  1 11  2  0  0  0  0
  2 10  2  0  0  0  0
  2  4  1  0  0  0  0
  3 15  1  6  0  0  0
  3  2  1  0  0  0  0
  4 13  2  0  0  0  0
  5  1  1  0  0  0  0
  6  8  1  0  0  0  0
  7  3  1  0  0  0  0
  7 12  1  0  0  0  0
  8 14  2  0  0  0  0
  9  7  2  0  0  0  0
 10  6  1  0  0  0  0
 12 10  1  0  0  0  0
 13  8  1  0  0  0  0
 13  5  1  0  0  0  0
 14  1  1  0  0  0  0
 16 18  2  0  0  0  0
 17 15  1  0  0  0  0
 18 17  1  0  0  0  0
 19 20  2  0  0  0  0
 20 18  1  0  0  0  0
 21 23  2  0  0  0  0
 23 22  1  0  0  0  0
 23 19  1  0  0  0  0
 24 12  1  0  0  0  0
 25 24  1  0  0  0  0
 26 27  2  0  0  0  0
 26 25  1  0  0  0  0
 28 29  2  0  0  0  0
 29 26  1  0  0  0  0
 30 29  1  0  0  0  0
M  END
>  <MODEL>
9

>  <REMARK>
 VINA RESULT:      -7.7      3.320      6.120
  Name = 
  8 active torsions:
  status: ('A' for Active; 'I' for Inactive)
    1  A    between atoms: C_3  and  C_11
    2  A    between atoms: C_8  and  C_17
    3  A    between atoms: C_9  and  C_24
    4  A    between atoms: C_10  and  C_17
    5  A    between atoms: C_10  and  C_21
    6  A    between atoms: C_11  and  N_16
    7  A    between atoms: N_14  and  C_25
    8  A    between atoms: C_21  and  N_28
                            x       y       z     vdW  Elec       q    Type
                         _______ _______ _______ _____ _____    ______ ____

>  <TORSDO>
F 8

$$$$
