=
 OpenBabel10222421113D

 34 38  0  0  1  0  0  0  0  0999 V2000
  183.6170  178.5680  143.0470 N   0  0  0  0  0  0  0  0  0  0  0  0
  188.0900  177.7650  145.5710 C   0  0  0  0  0  0  0  0  0  0  0  0
  191.8160  177.6800  143.2080 C   0  0  0  0  0  2  0  0  0  0  0  0
  186.7860  178.0710  145.1080 C   0  0  0  0  0  0  0  0  0  0  0  0
  189.7320  177.0700  147.4100 C   0  0  0  0  0  2  0  0  0  0  0  0
  185.6510  179.0990  147.0940 N   0  0  0  0  0  0  0  0  0  0  0  0
  183.3790  179.3500  145.1220 N   0  0  0  0  0  0  0  0  0  0  0  0
  191.5580  176.5970  144.2690 C   0  0  0  0  0  2  0  0  0  0  0  0
  185.7020  178.6760  145.8110 C   0  0  0  0  0  0  0  0  0  0  0  0
  190.5080  177.0830  145.2510 C   0  0  2  0  0  3  0  0  0  0  0  0
  186.2370  177.7260  143.4990 S   0  0  0  0  0  0  0  0  0  0  0  0
  184.7280  178.3580  143.7590 C   0  0  0  0  0  0  0  0  0  0  0  0
  186.5430  178.9410  148.0890 C   0  0  0  0  0  3  0  0  0  0  0  0
  182.8070  179.1810  143.9210 N   0  0  0  0  0  0  0  0  0  0  0  0
  190.3480  176.2210  146.3960 N   0  0  0  0  0  2  0  0  0  0  0  0
  187.7520  178.2760  148.0170 C   0  0  0  0  0  3  0  0  0  0  0  0
  189.1480  177.2720  144.5660 C   0  0  2  0  0  3  0  0  0  0  0  0
  189.2910  178.1000  143.2520 C   0  0  1  0  0  3  0  0  0  0  0  0
  190.6930  178.7330  143.1160 C   0  0  0  0  0  2  0  0  0  0  0  0
  188.4320  177.7080  146.9540 C   0  0  0  0  0  0  0  0  0  0  0  0
  184.6000  178.8160  144.9800 C   0  0  0  0  0  0  0  0  0  0  0  0
  189.6350  177.3980  139.6140 C   0  0  0  0  0  0  0  0  0  0  0  0
  189.0350  177.2450  142.0320 C   0  0  0  0  0  0  0  0  0  0  0  0
  190.8170  176.6110  139.8140 N   0  0  0  0  0  2  0  0  0  0  0  0
  189.3040  177.7670  138.4560 O   0  0  0  0  0  0  0  0  0  0  0  0
  189.0270  175.9850  142.1230 O   0  0  0  0  0  0  0  0  0  0  0  0
  188.8870  177.8570  140.7460 N   0  0  0  0  0  2  0  0  0  0  0  0
  192.7240  176.7690  138.4060 C   0  0  0  0  0  2  0  0  0  0  0  0
  191.6510  176.0850  138.7780 C   0  0  0  0  0  0  0  0  0  0  0  0
  191.3670  174.8410  138.1230 N   0  0  0  0  0  2  0  0  0  0  0  0
  190.1160  174.4630  137.5860 N   0  0  0  0  0  2  0  0  0  0  0  0
  190.1100  175.8200  135.6650 O   0  0  0  0  0  0  0  0  0  0  0  0
  188.2600  174.5200  136.0060 O   0  0  0  0  0  1  0  0  0  0  0  0
  189.5280  174.9580  136.3730 C   0  0  0  0  0  0  0  0  0  0  0  0
  1 12  2  0  0  0  0
  1 14  1  0  0  0  0
  2 20  1  0  0  0  0
  3  8  1  0  0  0  0
  4  2  2  0  0  0  0
  4  9  1  0  0  0  0
  6 13  2  0  0  0  0
  9  6  1  0  0  0  0
 10  8  1  6  0  0  0
 10 15  1  0  0  0  0
 11 12  1  0  0  0  0
 11  4  1  0  0  0  0
 12 21  1  0  0  0  0
 14  7  2  0  0  0  0
 15  5  1  0  0  0  0
 16 13  1  0  0  0  0
 17 10  1  0  0  0  0
 17  2  1  1  0  0  0
 18 23  1  6  0  0  0
 18 17  1  0  0  0  0
 19  3  1  0  0  0  0
 19 18  1  0  0  0  0
 20  5  1  0  0  0  0
 20 16  2  0  0  0  0
 21  7  1  0  0  0  0
 21  9  2  0  0  0  0
 22 24  1  0  0  0  0
 22 27  1  0  0  0  0
 23 26  2  0  0  0  0
 25 22  2  0  0  0  0
 27 23  1  0  0  0  0
 28 29  2  0  0  0  0
 29 24  1  0  0  0  0
 30 29  1  0  0  0  0
 31 30  1  0  0  0  0
 32 34  2  0  0  0  0
 33 34  1  0  0  0  0
 34 31  1  0  0  0  0
M  END
>  <MODEL>
1

>  <REMARK>
 VINA RESULT:     -10.3      0.000      0.000
  Name = 
  4 active torsions:
  status: ('A' for Active; 'I' for Inactive)
    1  A    between atoms: N_10  and  C_22
    2  A    between atoms: N_10  and  N_25
    3  A    between atoms: C_12  and  C_28
    4  A    between atoms: N_17  and  C_22
                            x       y       z     vdW  Elec       q    Type
                         _______ _______ _______ _____ _____    ______ ____

>  <TORSDO>
F 4

$$$$
=
 OpenBabel10222421113D

 34 38  0  0  1  0  0  0  0  0999 V2000
  183.9930  178.5210  144.1550 N   0  0  0  0  0  0  0  0  0  0  0  0
  188.8720  177.4710  145.6080 C   0  0  0  0  0  0  0  0  0  0  0  0
  192.0400  177.6990  142.5440 C   0  0  0  0  0  2  0  0  0  0  0  0
  187.5060  177.8170  145.4570 C   0  0  0  0  0  0  0  0  0  0  0  0
  190.8430  176.5830  146.9810 C   0  0  0  0  0  2  0  0  0  0  0  0
  186.8120  178.5960  147.7380 N   0  0  0  0  0  0  0  0  0  0  0  0
  184.1920  179.0530  146.3110 N   0  0  0  0  0  0  0  0  0  0  0  0
  191.9880  176.4970  143.5020 C   0  0  0  0  0  2  0  0  0  0  0  0
  186.5960  178.3260  146.4320 C   0  0  0  0  0  0  0  0  0  0  0  0
  191.1650  176.8560  144.7260 C   0  0  2  0  0  3  0  0  0  0  0  0
  186.6380  177.6570  143.9650 S   0  0  0  0  0  0  0  0  0  0  0  0
  185.2220  178.2390  144.5970 C   0  0  0  0  0  0  0  0  0  0  0  0
  187.8850  178.3310  148.5060 C   0  0  0  0  0  3  0  0  0  0  0  0
  183.3860  179.0190  145.2400 N   0  0  0  0  0  0  0  0  0  0  0  0
  191.2280  175.8640  145.7720 N   0  0  0  0  0  2  0  0  0  0  0  0
  189.0440  177.6910  148.1140 C   0  0  0  0  0  3  0  0  0  0  0  0
  189.6980  177.1090  144.3590 C   0  0  2  0  0  3  0  0  0  0  0  0
  189.5830  178.0870  143.1480 C   0  0  1  0  0  3  0  0  0  0  0  0
  190.9380  178.7440  142.8040 C   0  0  0  0  0  2  0  0  0  0  0  0
  189.4870  177.2570  146.8760 C   0  0  0  0  0  0  0  0  0  0  0  0
  185.3500  178.5510  145.8630 C   0  0  0  0  0  0  0  0  0  0  0  0
  189.4450  177.6220  139.4580 C   0  0  0  0  0  0  0  0  0  0  0  0
  189.0730  177.3770  141.9140 C   0  0  0  0  0  0  0  0  0  0  0  0
  190.5010  176.6520  139.4790 N   0  0  0  0  0  2  0  0  0  0  0  0
  189.0640  178.1270  138.3690 O   0  0  0  0  0  0  0  0  0  0  0  0
  188.8720  176.1300  141.9290 O   0  0  0  0  0  0  0  0  0  0  0  0
  188.8970  178.1020  140.6920 N   0  0  0  0  0  2  0  0  0  0  0  0
  190.5490  175.0660  137.7110 C   0  0  0  0  0  2  0  0  0  0  0  0
  191.1320  176.0850  138.3260 C   0  0  0  0  0  0  0  0  0  0  0  0
  192.3770  176.5790  137.8140 N   0  0  0  0  0  2  0  0  0  0  0  0
  193.6570  176.2680  138.3250 N   0  0  0  0  0  2  0  0  0  0  0  0
  193.9330  174.1390  137.3630 O   0  0  0  0  0  0  0  0  0  0  0  0
  195.6300  174.8870  138.7020 O   0  0  0  0  0  1  0  0  0  0  0  0
  194.3980  175.0630  138.0810 C   0  0  0  0  0  0  0  0  0  0  0  0
  1 12  2  0  0  0  0
  1 14  1  0  0  0  0
  2 20  1  0  0  0  0
  3 19  1  0  0  0  0
  3  8  1  0  0  0  0
  4  2  2  0  0  0  0
  4  9  1  0  0  0  0
  6 13  2  0  0  0  0
  9  6  1  0  0  0  0
 10  8  1  6  0  0  0
 10 15  1  0  0  0  0
 11 12  1  0  0  0  0
 11  4  1  0  0  0  0
 12 21  1  0  0  0  0
 14  7  2  0  0  0  0
 15  5  1  0  0  0  0
 16 13  1  0  0  0  0
 17 10  1  0  0  0  0
 17  2  1  1  0  0  0
 18 23  1  6  0  0  0
 18 17  1  0  0  0  0
 19 18  1  0  0  0  0
 20  5  1  0  0  0  0
 20 16  2  0  0  0  0
 21  7  1  0  0  0  0
 21  9  2  0  0  0  0
 22 24  1  0  0  0  0
 22 27  1  0  0  0  0
 23 26  2  0  0  0  0
 25 22  2  0  0  0  0
 27 23  1  0  0  0  0
 28 29  2  0  0  0  0
 29 24  1  0  0  0  0
 30 31  1  0  0  0  0
 30 29  1  0  0  0  0
 32 34  2  0  0  0  0
 34 31  1  0  0  0  0
 34 33  1  0  0  0  0
M  END
>  <MODEL>
2

>  <REMARK>
 VINA RESULT:     -10.3      1.705      2.189
  Name = 
  4 active torsions:
  status: ('A' for Active; 'I' for Inactive)
    1  A    between atoms: N_10  and  C_22
    2  A    between atoms: N_10  and  N_25
    3  A    between atoms: C_12  and  C_28
    4  A    between atoms: N_17  and  C_22
                            x       y       z     vdW  Elec       q    Type
                         _______ _______ _______ _____ _____    ______ ____

>  <TORSDO>
F 4

$$$$
=
 OpenBabel10222421113D

 34 38  0  0  1  0  0  0  0  0999 V2000
  184.0270  178.5190  144.2820 N   0  0  0  0  0  0  0  0  0  0  0  0
  188.9480  177.4740  145.5880 C   0  0  0  0  0  0  0  0  0  0  0  0
  192.0510  177.8910  142.4780 C   0  0  0  0  0  2  0  0  0  0  0  0
  187.5750  177.8070  145.4810 C   0  0  0  0  0  0  0  0  0  0  0  0
  190.9580  176.5510  146.8800 C   0  0  0  0  0  2  0  0  0  0  0  0
  186.9170  178.4670  147.8090 N   0  0  0  0  0  0  0  0  0  0  0  0
  184.2620  178.9520  146.4570 N   0  0  0  0  0  0  0  0  0  0  0  0
  192.0340  176.6450  143.3790 C   0  0  0  0  0  2  0  0  0  0  0  0
  186.6780  178.2560  146.4960 C   0  0  0  0  0  0  0  0  0  0  0  0
  191.2320  176.9330  144.6340 C   0  0  2  0  0  3  0  0  0  0  0  0
  186.6790  177.7030  144.0000 S   0  0  0  0  0  0  0  0  0  0  0  0
  185.2680  178.2350  144.6870 C   0  0  0  0  0  0  0  0  0  0  0  0
  188.0080  178.1830  148.5430 C   0  0  0  0  0  3  0  0  0  0  0  0
  183.4350  178.9570  145.4010 N   0  0  0  0  0  0  0  0  0  0  0  0
  191.3290  175.8950  145.6310 N   0  0  0  0  0  2  0  0  0  0  0  0
  189.1680  177.5780  148.0990 C   0  0  0  0  0  3  0  0  0  0  0  0
  189.7530  177.1830  144.3080 C   0  0  2  0  0  3  0  0  0  0  0  0
  189.6010  178.2140  143.1470 C   0  0  1  0  0  3  0  0  0  0  0  0
  190.9390  178.9060  142.8080 C   0  0  0  0  0  2  0  0  0  0  0  0
  189.5910  177.2090  146.8330 C   0  0  0  0  0  0  0  0  0  0  0  0
  185.4180  178.4890  145.9630 C   0  0  0  0  0  0  0  0  0  0  0  0
  189.2400  178.0360  139.4470 C   0  0  0  0  0  0  0  0  0  0  0  0
  189.0760  177.5550  141.8920 C   0  0  0  0  0  0  0  0  0  0  0  0
  190.3870  177.1840  139.3150 N   0  0  0  0  0  2  0  0  0  0  0  0
  188.7320  178.5820  138.4340 O   0  0  0  0  0  0  0  0  0  0  0  0
  189.0030  176.2970  141.8100 O   0  0  0  0  0  0  0  0  0  0  0  0
  188.7390  178.3540  140.7510 N   0  0  0  0  0  2  0  0  0  0  0  0
  192.2980  176.6050  138.0290 C   0  0  0  0  0  2  0  0  0  0  0  0
  190.9860  176.7820  138.0790 C   0  0  0  0  0  0  0  0  0  0  0  0
  190.2160  176.5680  136.8890 N   0  0  0  0  0  2  0  0  0  0  0  0
  189.2530  175.5500  136.7050 N   0  0  0  0  0  2  0  0  0  0  0  0
  190.4930  173.7180  137.5050 O   0  0  0  0  0  1  0  0  0  0  0  0
  188.3860  173.2710  136.7340 O   0  0  0  0  0  0  0  0  0  0  0  0
  189.4170  174.1590  137.0230 C   0  0  0  0  0  0  0  0  0  0  0  0
  1 12  2  0  0  0  0
  1 14  1  0  0  0  0
  2 20  1  0  0  0  0
  3 19  1  0  0  0  0
  3  8  1  0  0  0  0
  4  2  2  0  0  0  0
  4  9  1  0  0  0  0
  6 13  2  0  0  0  0
  9  6  1  0  0  0  0
 10  8  1  6  0  0  0
 10 15  1  0  0  0  0
 11 12  1  0  0  0  0
 11  4  1  0  0  0  0
 12 21  1  0  0  0  0
 14  7  2  0  0  0  0
 15  5  1  0  0  0  0
 16 13  1  0  0  0  0
 17 10  1  0  0  0  0
 17  2  1  1  0  0  0
 18 23  1  6  0  0  0
 18 17  1  0  0  0  0
 19 18  1  0  0  0  0
 20  5  1  0  0  0  0
 20 16  2  0  0  0  0
 21  7  1  0  0  0  0
 21  9  2  0  0  0  0
 22 27  1  0  0  0  0
 24 22  1  0  0  0  0
 25 22  2  0  0  0  0
 26 23  2  0  0  0  0
 27 23  1  0  0  0  0
 28 29  2  0  0  0  0
 29 24  1  0  0  0  0
 30 29  1  0  0  0  0
 31 30  1  0  0  0  0
 31 34  1  0  0  0  0
 33 34  2  0  0  0  0
 34 32  1  0  0  0  0
M  END
>  <MODEL>
3

>  <REMARK>
 VINA RESULT:      -9.7      1.135      1.267
  Name = 
  4 active torsions:
  status: ('A' for Active; 'I' for Inactive)
    1  A    between atoms: N_10  and  C_22
    2  A    between atoms: N_10  and  N_25
    3  A    between atoms: C_12  and  C_28
    4  A    between atoms: N_17  and  C_22
                            x       y       z     vdW  Elec       q    Type
                         _______ _______ _______ _____ _____    ______ ____

>  <TORSDO>
F 4

$$$$
=
 OpenBabel10222421113D

 34 38  0  0  1  0  0  0  0  0999 V2000
  183.5340  178.5630  142.5280 N   0  0  0  0  0  0  0  0  0  0  0  0
  187.8170  177.8290  145.3800 C   0  0  0  0  0  0  0  0  0  0  0  0
  191.7080  177.7720  143.2990 C   0  0  0  0  0  2  0  0  0  0  0  0
  186.5480  178.1170  144.8200 C   0  0  0  0  0  0  0  0  0  0  0  0
  189.3270  177.1660  147.3400 C   0  0  0  0  0  2  0  0  0  0  0  0
  185.2580  179.1450  146.7090 N   0  0  0  0  0  0  0  0  0  0  0  0
  183.1360  179.3560  144.5740 N   0  0  0  0  0  0  0  0  0  0  0  0
  191.3850  176.6930  144.3460 C   0  0  0  0  0  2  0  0  0  0  0  0
  185.4080  178.7140  145.4370 C   0  0  0  0  0  0  0  0  0  0  0  0
  190.2600  177.1740  145.2440 C   0  0  2  0  0  3  0  0  0  0  0  0
  186.1230  177.7550  143.1780 S   0  0  0  0  0  0  0  0  0  0  0  0
  184.5920  178.3700  143.3220 C   0  0  0  0  0  0  0  0  0  0  0  0
  186.0770  179.0040  147.7680 C   0  0  0  0  0  3  0  0  0  0  0  0
  182.6550  179.1720  143.3350 N   0  0  0  0  0  0  0  0  0  0  0  0
  190.0260  176.3170  146.3810 N   0  0  0  0  0  2  0  0  0  0  0  0
  187.2940  178.3530  147.7910 C   0  0  0  0  0  3  0  0  0  0  0  0
  188.9520  177.3410  144.4600 C   0  0  2  0  0  3  0  0  0  0  0  0
  189.1820  178.1630  143.1530 C   0  0  1  0  0  3  0  0  0  0  0  0
  190.5840  178.8100  143.1160 C   0  0  0  0  0  2  0  0  0  0  0  0
  188.0570  177.7850  146.7850 C   0  0  0  0  0  0  0  0  0  0  0  0
  184.3690  178.8360  144.5260 C   0  0  0  0  0  0  0  0  0  0  0  0
  189.7760  177.4540  139.5490 C   0  0  0  0  0  0  0  0  0  0  0  0
  189.0260  177.2960  141.9250 C   0  0  0  0  0  0  0  0  0  0  0  0
  190.9630  176.6980  139.8290 N   0  0  0  0  0  2  0  0  0  0  0  0
  189.5120  177.8100  138.3710 O   0  0  0  0  0  0  0  0  0  0  0  0
  189.0440  176.0370  142.0220 O   0  0  0  0  0  0  0  0  0  0  0  0
  188.9460  177.8990  140.6280 N   0  0  0  0  0  2  0  0  0  0  0  0
  193.0660  176.7560  138.7260 C   0  0  0  0  0  2  0  0  0  0  0  0
  191.8740  176.1880  138.8510 C   0  0  0  0  0  0  0  0  0  0  0  0
  191.5440  175.0850  137.9980 N   0  0  0  0  0  2  0  0  0  0  0  0
  192.4640  174.3350  137.2310 N   0  0  0  0  0  2  0  0  0  0  0  0
  192.5910  175.7270  135.3390 O   0  0  0  0  0  1  0  0  0  0  0  0
  193.8310  173.8060  135.2830 O   0  0  0  0  0  0  0  0  0  0  0  0
  192.9630  174.6800  135.9290 C   0  0  0  0  0  0  0  0  0  0  0  0
  1 12  2  0  0  0  0
  1 14  1  0  0  0  0
  2 20  1  0  0  0  0
  3  8  1  0  0  0  0
  4  2  2  0  0  0  0
  4  9  1  0  0  0  0
  6 13  2  0  0  0  0
  9  6  1  0  0  0  0
 10  8  1  6  0  0  0
 10 15  1  0  0  0  0
 11 12  1  0  0  0  0
 11  4  1  0  0  0  0
 12 21  1  0  0  0  0
 13 16  1  0  0  0  0
 14  7  2  0  0  0  0
 15  5  1  0  0  0  0
 17 10  1  0  0  0  0
 17  2  1  1  0  0  0
 18 23  1  6  0  0  0
 18 17  1  0  0  0  0
 19 18  1  0  0  0  0
 19  3  1  0  0  0  0
 20  5  1  0  0  0  0
 20 16  2  0  0  0  0
 21  7  1  0  0  0  0
 21  9  2  0  0  0  0
 22 24  1  0  0  0  0
 22 27  1  0  0  0  0
 23 26  2  0  0  0  0
 25 22  2  0  0  0  0
 27 23  1  0  0  0  0
 28 29  2  0  0  0  0
 29 24  1  0  0  0  0
 30 29  1  0  0  0  0
 31 30  1  0  0  0  0
 32 34  1  0  0  0  0
 33 34  2  0  0  0  0
 34 31  1  0  0  0  0
M  END
>  <MODEL>
4

>  <REMARK>
 VINA RESULT:      -9.6      1.127      1.332
  Name = 
  4 active torsions:
  status: ('A' for Active; 'I' for Inactive)
    1  A    between atoms: N_10  and  C_22
    2  A    between atoms: N_10  and  N_25
    3  A    between atoms: C_12  and  C_28
    4  A    between atoms: N_17  and  C_22
                            x       y       z     vdW  Elec       q    Type
                         _______ _______ _______ _____ _____    ______ ____

>  <TORSDO>
F 4

$$$$
=
 OpenBabel10222421113D

 34 38  0  0  1  0  0  0  0  0999 V2000
  189.5900  177.7240  139.6180 N   0  0  0  0  0  0  0  0  0  0  0  0
  185.7340  178.2770  143.0610 C   0  0  0  0  0  0  0  0  0  0  0  0
  181.5880  178.2340  141.5520 C   0  0  0  0  0  2  0  0  0  0  0  0
  186.9200  178.0390  142.3210 C   0  0  0  0  0  0  0  0  0  0  0  0
  184.4980  178.8630  145.2260 C   0  0  0  0  0  2  0  0  0  0  0  0
  188.4950  177.0280  143.9900 N   0  0  0  0  0  0  0  0  0  0  0  0
  190.2990  176.9170  141.5720 N   0  0  0  0  0  0  0  0  0  0  0  0
  182.0230  179.3090  142.5620 C   0  0  0  0  0  2  0  0  0  0  0  0
  188.1530  177.4710  142.7600 C   0  0  0  0  0  0  0  0  0  0  0  0
  183.2780  178.8530  143.2830 C   0  0  2  0  0  3  0  0  0  0  0  0
  187.0960  178.4370  140.6420 S   0  0  0  0  0  0  0  0  0  0  0  0
  188.6500  177.8710  140.5570 C   0  0  0  0  0  0  0  0  0  0  0  0
  187.8320  177.1280  145.1570 C   0  0  0  0  0  3  0  0  0  0  0  0
  190.5930  177.1330  140.2820 N   0  0  0  0  0  0  0  0  0  0  0  0
  183.6450  179.7010  144.3910 N   0  0  0  0  0  2  0  0  0  0  0  0
  186.6110  177.7380  145.3630 C   0  0  0  0  0  3  0  0  0  0  0  0
  184.4660  178.7390  142.3190 C   0  0  2  0  0  3  0  0  0  0  0  0
  184.0780  177.9290  141.0430 C   0  0  1  0  0  3  0  0  0  0  0  0
  182.7060  177.2360  141.1930 C   0  0  0  0  0  2  0  0  0  0  0  0
  185.6950  178.2940  144.4860 C   0  0  0  0  0  0  0  0  0  0  0  0
  189.0560  177.3970  141.7090 C   0  0  0  0  0  0  0  0  0  0  0  0
  182.3440  179.2760  138.0390 C   0  0  0  0  0  0  0  0  0  0  0  0
  184.0310  178.8170  139.8210 C   0  0  0  0  0  0  0  0  0  0  0  0
  181.8160  180.3930  138.7680 N   0  0  0  0  0  2  0  0  0  0  0  0
  181.9060  179.0010  136.8910 O   0  0  0  0  0  0  0  0  0  0  0  0
  184.5730  179.9580  139.8360 O   0  0  0  0  0  0  0  0  0  0  0  0
  183.2940  178.4040  138.6640 N   0  0  0  0  0  2  0  0  0  0  0  0
  179.7750  181.5900  138.9680 C   0  0  0  0  0  2  0  0  0  0  0  0
  180.8710  181.3420  138.2660 C   0  0  0  0  0  0  0  0  0  0  0  0
  181.0650  182.0340  137.0250 N   0  0  0  0  0  2  0  0  0  0  0  0
  180.5590  183.3150  136.7110 N   0  0  0  0  0  2  0  0  0  0  0  0
  182.3000  184.6280  137.5930 O   0  0  0  0  0  1  0  0  0  0  0  0
  180.5370  185.7530  136.6670 O   0  0  0  0  0  0  0  0  0  0  0  0
  181.1920  184.5720  136.9990 C   0  0  0  0  0  0  0  0  0  0  0  0
  1 14  1  0  0  0  0
  1 12  2  0  0  0  0
  2 20  1  0  0  0  0
  3  8  1  0  0  0  0
  4  9  1  0  0  0  0
  4  2  2  0  0  0  0
  6 13  2  0  0  0  0
  7 21  1  0  0  0  0
  9  6  1  0  0  0  0
 10  8  1  6  0  0  0
 10 15  1  0  0  0  0
 11  4  1  0  0  0  0
 12 11  1  0  0  0  0
 12 21  1  0  0  0  0
 13 16  1  0  0  0  0
 14  7  2  0  0  0  0
 15  5  1  0  0  0  0
 17  2  1  1  0  0  0
 17 10  1  0  0  0  0
 18 23  1  6  0  0  0
 18 19  1  0  0  0  0
 18 17  1  0  0  0  0
 19  3  1  0  0  0  0
 20  5  1  0  0  0  0
 20 16  2  0  0  0  0
 21  9  2  0  0  0  0
 22 27  1  0  0  0  0
 22 24  1  0  0  0  0
 23 26  2  0  0  0  0
 25 22  2  0  0  0  0
 27 23  1  0  0  0  0
 29 24  1  0  0  0  0
 29 28  2  0  0  0  0
 30 29  1  0  0  0  0
 31 34  1  0  0  0  0
 31 30  1  0  0  0  0
 33 34  2  0  0  0  0
 34 32  1  0  0  0  0
M  END
>  <MODEL>
5

>  <REMARK>
 VINA RESULT:      -8.5      5.004      8.278
  Name = 
  4 active torsions:
  status: ('A' for Active; 'I' for Inactive)
    1  A    between atoms: N_10  and  C_22
    2  A    between atoms: N_10  and  N_25
    3  A    between atoms: C_12  and  C_28
    4  A    between atoms: N_17  and  C_22
                            x       y       z     vdW  Elec       q    Type
                         _______ _______ _______ _____ _____    ______ ____

>  <TORSDO>
F 4

$$$$
=
 OpenBabel10222421113D

 34 38  0  0  1  0  0  0  0  0999 V2000
  185.2310  178.0300  138.0260 N   0  0  0  0  0  0  0  0  0  0  0  0
  190.1880  177.0250  139.2260 C   0  0  0  0  0  0  0  0  0  0  0  0
  191.1750  176.2230  143.4520 C   0  0  0  0  0  2  0  0  0  0  0  0
  188.9000  177.2150  138.6660 C   0  0  0  0  0  0  0  0  0  0  0  0
  192.7400  176.9110  139.0420 C   0  0  0  0  0  2  0  0  0  0  0  0
  189.1130  176.3520  136.3210 N   0  0  0  0  0  0  0  0  0  0  0  0
  186.1900  177.1010  136.2410 N   0  0  0  0  0  0  0  0  0  0  0  0
  192.0520  177.1830  142.6300 C   0  0  0  0  0  2  0  0  0  0  0  0
  188.4360  176.9010  137.3540 C   0  0  0  0  0  0  0  0  0  0  0  0
  191.8340  176.9340  141.1500 C   0  0  2  0  0  3  0  0  0  0  0  0
  187.5760  177.9240  139.5330 S   0  0  0  0  0  0  0  0  0  0  0  0
  186.5220  177.7800  138.2630 C   0  0  0  0  0  0  0  0  0  0  0  0
  190.4260  176.0850  136.1970 C   0  0  0  0  0  3  0  0  0  0  0  0
  185.0630  177.6000  136.7690 N   0  0  0  0  0  0  0  0  0  0  0  0
  192.7610  177.6440  140.3040 N   0  0  0  0  0  2  0  0  0  0  0  0
  191.4120  176.3330  137.1320 C   0  0  0  0  0  3  0  0  0  0  0  0
  190.3990  177.2810  140.7300 C   0  0  2  0  0  3  0  0  0  0  0  0
  189.3590  176.6300  141.6940 C   0  0  1  0  0  3  0  0  0  0  0  0
  190.0150  175.6060  142.6470 C   0  0  0  0  0  2  0  0  0  0  0  0
  191.3530  176.7880  138.4390 C   0  0  0  0  0  0  0  0  0  0  0  0
  187.0950  177.2310  137.2200 C   0  0  0  0  0  0  0  0  0  0  0  0
  187.1040  177.6160  144.4850 C   0  0  0  0  0  0  0  0  0  0  0  0
  188.6550  177.6750  142.5300 C   0  0  0  0  0  0  0  0  0  0  0  0
  188.1960  177.7330  145.4080 N   0  0  0  0  0  2  0  0  0  0  0  0
  185.9160  177.6120  144.9010 O   0  0  0  0  0  0  0  0  0  0  0  0
  189.2240  178.7690  142.8010 O   0  0  0  0  0  0  0  0  0  0  0  0
  187.3700  177.3920  143.0950 N   0  0  0  0  0  2  0  0  0  0  0  0
  186.9140  178.3850  147.2990 C   0  0  0  0  0  2  0  0  0  0  0  0
  188.0740  177.9620  146.8150 C   0  0  0  0  0  0  0  0  0  0  0  0
  189.1640  177.7540  147.7230 N   0  0  0  0  0  2  0  0  0  0  0  0
  190.0490  176.6530  147.7040 N   0  0  0  0  0  2  0  0  0  0  0  0
  191.7420  177.5610  146.3470 O   0  0  0  0  0  0  0  0  0  0  0  0
  192.0460  175.4100  147.0620 O   0  0  0  0  0  1  0  0  0  0  0  0
  191.3120  176.5900  147.0230 C   0  0  0  0  0  0  0  0  0  0  0  0
  1 12  2  0  0  0  0
  4  2  2  0  0  0  0
  4 11  1  0  0  0  0
  5 15  1  0  0  0  0
  6  9  1  0  0  0  0
  7 14  2  0  0  0  0
  7 21  1  0  0  0  0
  8  3  1  0  0  0  0
  9  4  1  0  0  0  0
 10  8  1  1  0  0  0
 12 11  1  0  0  0  0
 13  6  2  0  0  0  0
 13 16  1  0  0  0  0
 14  1  1  0  0  0  0
 15 10  1  0  0  0  0
 16 20  2  0  0  0  0
 17  2  1  6  0  0  0
 17 10  1  0  0  0  0
 17 18  1  0  0  0  0
 18 23  1  1  0  0  0
 18 19  1  0  0  0  0
 19  3  1  0  0  0  0
 20  5  1  0  0  0  0
 20  2  1  0  0  0  0
 21  9  2  0  0  0  0
 21 12  1  0  0  0  0
 22 25  2  0  0  0  0
 22 24  1  0  0  0  0
 23 26  2  0  0  0  0
 23 27  1  0  0  0  0
 24 29  1  0  0  0  0
 27 22  1  0  0  0  0
 29 28  2  0  0  0  0
 29 30  1  0  0  0  0
 31 30  1  0  0  0  0
 32 34  2  0  0  0  0
 34 33  1  0  0  0  0
 34 31  1  0  0  0  0
M  END
>  <MODEL>
6

>  <REMARK>
 VINA RESULT:      -7.7      3.089      7.851
  Name = 
  4 active torsions:
  status: ('A' for Active; 'I' for Inactive)
    1  A    between atoms: N_10  and  C_22
    2  A    between atoms: N_10  and  N_25
    3  A    between atoms: C_12  and  C_28
    4  A    between atoms: N_17  and  C_22
                            x       y       z     vdW  Elec       q    Type
                         _______ _______ _______ _____ _____    ______ ____

>  <TORSDO>
F 4

$$$$
=
 OpenBabel10222421113D

 34 38  0  0  1  0  0  0  0  0999 V2000
  189.1200  177.4530  139.8880 N   0  0  0  0  0  0  0  0  0  0  0  0
  188.8720  177.6270  145.0770 C   0  0  0  0  0  0  0  0  0  0  0  0
  184.8870  177.9080  146.9520 C   0  0  0  0  0  2  0  0  0  0  0  0
  189.1630  177.4610  143.7000 C   0  0  0  0  0  0  0  0  0  0  0  0
  189.5830  177.9390  147.5170 C   0  0  0  0  0  2  0  0  0  0  0  0
  191.3220  176.1850  143.6740 N   0  0  0  0  0  0  0  0  0  0  0  0
  190.8910  176.3620  140.6920 N   0  0  0  0  0  0  0  0  0  0  0  0
  186.0270  178.8190  147.4380 C   0  0  0  0  0  2  0  0  0  0  0  0
  190.2730  176.8040  143.0890 C   0  0  0  0  0  0  0  0  0  0  0  0
  187.3630  178.2330  147.0180 C   0  0  2  0  0  3  0  0  0  0  0  0
  188.1610  178.0850  142.4290 S   0  0  0  0  0  0  0  0  0  0  0  0
  189.1300  177.4930  141.2230 C   0  0  0  0  0  0  0  0  0  0  0  0
  191.6810  176.1390  144.9700 C   0  0  0  0  0  3  0  0  0  0  0  0
  190.2210  176.7480  139.5960 N   0  0  0  0  0  0  0  0  0  0  0  0
  188.4960  178.9080  147.6020 N   0  0  0  0  0  2  0  0  0  0  0  0
  191.0360  176.7480  146.0290 C   0  0  0  0  0  3  0  0  0  0  0  0
  187.5130  178.2220  145.4910 C   0  0  2  0  0  3  0  0  0  0  0  0
  186.2520  177.6080  144.8070 C   0  0  1  0  0  3  0  0  0  0  0  0
  185.3070  176.9390  145.8290 C   0  0  0  0  0  2  0  0  0  0  0  0
  189.8420  177.4460  146.1050 C   0  0  0  0  0  0  0  0  0  0  0  0
  190.1660  176.8530  141.7060 C   0  0  0  0  0  0  0  0  0  0  0  0
  183.4990  178.6280  142.5210 C   0  0  0  0  0  0  0  0  0  0  0  0
  185.4700  178.6590  144.0540 C   0  0  0  0  0  0  0  0  0  0  0  0
  182.5950  178.8550  143.6110 N   0  0  0  0  0  2  0  0  0  0  0  0
  183.0720  178.5830  141.3370 O   0  0  0  0  0  0  0  0  0  0  0  0
  185.2660  179.7960  144.5640 O   0  0  0  0  0  0  0  0  0  0  0  0
  184.8770  178.3400  142.7890 N   0  0  0  0  0  2  0  0  0  0  0  0
  180.3150  178.3240  144.0110 C   0  0  0  0  0  2  0  0  0  0  0  0
  181.2020  179.1570  143.4860 C   0  0  0  0  0  0  0  0  0  0  0  0
  180.7290  180.3290  142.8090 N   0  0  0  0  0  2  0  0  0  0  0  0
  179.7540  180.3510  141.7870 N   0  0  0  0  0  2  0  0  0  0  0  0
  181.1780  180.4570  139.9180 O   0  0  0  0  0  1  0  0  0  0  0  0
  178.9310  180.4750  139.4960 O   0  0  0  0  0  0  0  0  0  0  0  0
  180.0060  180.4090  140.3750 C   0  0  0  0  0  0  0  0  0  0  0  0
  1 12  2  0  0  0  0
  2 20  1  0  0  0  0
  3  8  1  0  0  0  0
  4  2  2  0  0  0  0
  5 15  1  0  0  0  0
  6 13  2  0  0  0  0
  7 21  1  0  0  0  0
  9  6  1  0  0  0  0
  9  4  1  0  0  0  0
 10  8  1  6  0  0  0
 10 15  1  0  0  0  0
 11  4  1  0  0  0  0
 12 21  1  0  0  0  0
 12 11  1  0  0  0  0
 13 16  1  0  0  0  0
 14  1  1  0  0  0  0
 14  7  2  0  0  0  0
 16 20  2  0  0  0  0
 17  2  1  1  0  0  0
 17 10  1  0  0  0  0
 18 23  1  1  0  0  0
 18 17  1  0  0  0  0
 18 19  1  0  0  0  0
 19  3  1  0  0  0  0
 20  5  1  0  0  0  0
 21  9  2  0  0  0  0
 22 27  1  0  0  0  0
 22 24  1  0  0  0  0
 23 26  2  0  0  0  0
 25 22  2  0  0  0  0
 27 23  1  0  0  0  0
 29 24  1  0  0  0  0
 29 28  2  0  0  0  0
 30 29  1  0  0  0  0
 31 30  1  0  0  0  0
 32 34  1  0  0  0  0
 33 34  2  0  0  0  0
 34 31  1  0  0  0  0
M  END
>  <MODEL>
7

>  <REMARK>
 VINA RESULT:      -7.6      3.472      7.537
  Name = 
  4 active torsions:
  status: ('A' for Active; 'I' for Inactive)
    1  A    between atoms: N_10  and  C_22
    2  A    between atoms: N_10  and  N_25
    3  A    between atoms: C_12  and  C_28
    4  A    between atoms: N_17  and  C_22
                            x       y       z     vdW  Elec       q    Type
                         _______ _______ _______ _____ _____    ______ ____

>  <TORSDO>
F 4

$$$$
=
 OpenBabel10222421113D

 34 38  0  0  1  0  0  0  0  0999 V2000
  189.6050  177.7140  139.9350 N   0  0  0  0  0  0  0  0  0  0  0  0
  185.4640  178.3240  143.0170 C   0  0  0  0  0  0  0  0  0  0  0  0
  181.4580  177.9970  141.1940 C   0  0  0  0  0  2  0  0  0  0  0  0
  186.7130  178.0900  142.3910 C   0  0  0  0  0  0  0  0  0  0  0  0
  184.0340  178.9970  145.0330 C   0  0  0  0  0  2  0  0  0  0  0  0
  188.1860  177.2630  144.2450 N   0  0  0  0  0  0  0  0  0  0  0  0
  190.1840  177.0710  141.9900 N   0  0  0  0  0  0  0  0  0  0  0  0
  181.7680  179.1550  142.1580 C   0  0  0  0  0  2  0  0  0  0  0  0
  187.9290  177.6080  142.9640 C   0  0  0  0  0  0  0  0  0  0  0  0
  182.9770  178.8040  143.0050 C   0  0  2  0  0  3  0  0  0  0  0  0
  187.0100  178.3830  140.7080 S   0  0  0  0  0  0  0  0  0  0  0  0
  188.5870  177.8820  140.7840 C   0  0  0  0  0  0  0  0  0  0  0  0
  187.4270  177.4110  145.3460 C   0  0  0  0  0  3  0  0  0  0  0  0
  190.5730  177.2140  140.7150 N   0  0  0  0  0  0  0  0  0  0  0  0
  183.2190  179.7400  144.0760 N   0  0  0  0  0  2  0  0  0  0  0  0
  186.1700  177.9790  145.4130 C   0  0  0  0  0  3  0  0  0  0  0  0
  184.2430  178.6790  142.1480 C   0  0  2  0  0  3  0  0  0  0  0  0
  183.9920  177.7690  140.9050 C   0  0  1  0  0  3  0  0  0  0  0  0
  182.6400  177.0270  140.9950 C   0  0  0  0  0  2  0  0  0  0  0  0
  185.3080  178.4340  144.4300 C   0  0  0  0  0  0  0  0  0  0  0  0
  188.9160  177.5040  141.9950 C   0  0  0  0  0  0  0  0  0  0  0  0
  182.9120  178.3540  137.3920 C   0  0  0  0  0  0  0  0  0  0  0  0
  184.0100  178.5710  139.6240 C   0  0  0  0  0  0  0  0  0  0  0  0
  181.8200  179.1880  137.8010 N   0  0  0  0  0  2  0  0  0  0  0  0
  182.9820  177.9310  136.2080 O   0  0  0  0  0  0  0  0  0  0  0  0
  184.0710  179.8320  139.6570 O   0  0  0  0  0  0  0  0  0  0  0  0
  183.8680  177.9080  138.3620 N   0  0  0  0  0  2  0  0  0  0  0  0
  180.8520  180.9830  136.5830 C   0  0  0  0  0  2  0  0  0  0  0  0
  180.8020  179.7080  136.9400 C   0  0  0  0  0  0  0  0  0  0  0  0
  179.7260  178.8970  136.4500 N   0  0  0  0  0  2  0  0  0  0  0  0
  179.2410  177.7190  137.0620 N   0  0  0  0  0  2  0  0  0  0  0  0
  180.2860  176.1270  135.6820 O   0  0  0  0  0  0  0  0  0  0  0  0
  178.9380  175.3160  137.3420 O   0  0  0  0  0  1  0  0  0  0  0  0
  179.5380  176.3720  136.6640 C   0  0  0  0  0  0  0  0  0  0  0  0
  1 14  1  0  0  0  0
  1 12  2  0  0  0  0
  2 20  1  0  0  0  0
  3  8  1  0  0  0  0
  4  9  1  0  0  0  0
  4  2  2  0  0  0  0
  6 13  2  0  0  0  0
  7 21  1  0  0  0  0
  9  6  1  0  0  0  0
 10  8  1  6  0  0  0
 10 15  1  0  0  0  0
 11 12  1  0  0  0  0
 11  4  1  0  0  0  0
 12 21  1  0  0  0  0
 13 16  1  0  0  0  0
 14  7  2  0  0  0  0
 15  5  1  0  0  0  0
 17 10  1  0  0  0  0
 17  2  1  1  0  0  0
 18 23  1  6  0  0  0
 18 19  1  0  0  0  0
 18 17  1  0  0  0  0
 19  3  1  0  0  0  0
 20  5  1  0  0  0  0
 20 16  2  0  0  0  0
 21  9  2  0  0  0  0
 22 24  1  0  0  0  0
 22 27  1  0  0  0  0
 23 26  2  0  0  0  0
 25 22  2  0  0  0  0
 27 23  1  0  0  0  0
 28 29  2  0  0  0  0
 29 24  1  0  0  0  0
 30 29  1  0  0  0  0
 30 31  1  0  0  0  0
 32 34  2  0  0  0  0
 34 31  1  0  0  0  0
 34 33  1  0  0  0  0
M  END
>  <MODEL>
8

>  <REMARK>
 VINA RESULT:      -7.4      4.774      7.727
  Name = 
  4 active torsions:
  status: ('A' for Active; 'I' for Inactive)
    1  A    between atoms: N_10  and  C_22
    2  A    between atoms: N_10  and  N_25
    3  A    between atoms: C_12  and  C_28
    4  A    between atoms: N_17  and  C_22
                            x       y       z     vdW  Elec       q    Type
                         _______ _______ _______ _____ _____    ______ ____

>  <TORSDO>
F 4

$$$$
