=
 OpenBabel10222420363D

 41 44  0  0  1  0  0  0  0  0999 V2000
  192.3640  176.7830  148.0180 O   0  0  0  0  0  1  0  0  0  0  0  0
  191.5030  176.6150  145.7720 C   0  0  0  0  0  3  0  0  0  0  0  0
  190.0330  177.2220  147.5970 C   0  0  0  0  0  3  0  0  0  0  0  0
  188.1070  177.1980  144.4770 N   0  0  0  0  0  0  0  0  0  0  0  0
  186.8630  177.5500  144.9050 C   0  0  0  0  0  0  0  0  0  0  0  0
  189.1610  177.0710  145.3270 C   0  0  0  0  0  0  0  0  0  0  0  0
  186.6380  177.7910  146.2610 C   0  0  0  0  0  3  0  0  0  0  0  0
  191.3000  176.8730  147.1310 C   0  0  0  0  0  0  0  0  0  0  0  0
  190.4470  176.7000  144.8580 C   0  0  0  0  0  0  0  0  0  0  0  0
  188.9650  177.3220  146.7040 C   0  0  0  0  0  0  0  0  0  0  0  0
  187.6960  177.6780  147.1630 C   0  0  0  0  0  3  0  0  0  0  0  0
  190.7300  176.4100  143.4810 N   0  0  0  0  0  2  0  0  0  0  0  0
  190.6430  177.3670  142.3880 C   0  0  0  0  0  2  0  0  0  0  0  0
  188.5430  176.8630  141.3540 O   0  0  0  0  0  0  0  0  0  0  0  0
  189.9370  176.7370  141.2040 C   0  0  1  0  0  3  0  0  0  0  0  0
  190.3760  177.4320  139.9320 C   0  0  2  0  0  3  0  0  0  0  0  0
  189.2730  179.2670  138.9250 O   0  0  0  0  0  1  0  0  0  0  0  0
  189.1070  177.9430  139.3270 C   0  0  2  0  0  3  0  0  0  0  0  0
  188.1320  177.8760  140.4700 C   0  0  0  0  0  2  0  0  0  0  0  0
  193.2700  175.7140  137.9760 C   0  0  0  0  0  0  0  0  0  0  0  0
  194.5180  175.8820  137.8950 O   0  0  0  0  0  0  0  0  0  0  0  0
  191.0740  176.4790  139.0090 C   0  0  0  0  0  0  0  0  0  0  0  0
  190.3990  175.6100  138.3930 O   0  0  0  0  0  0  0  0  0  0  0  0
  193.1740  177.4880  139.5830 O   0  0  0  0  0  1  0  0  0  0  0  0
  192.5040  176.5630  138.8530 N   0  0  0  0  0  0  0  0  0  0  0  0
  192.2830  174.0050  134.8590 N   0  0  0  0  0  2  0  0  0  0  0  0
  192.9700  172.8900  135.3990 C   0  0  0  0  0  0  0  0  0  0  0  0
  192.6270  174.6580  137.1300 C   0  0  1  0  0  3  0  0  0  0  0  0
  192.3600  175.1700  135.7180 C   0  0  0  0  0  2  0  0  0  0  0  0
  192.6940  171.6980  134.9880 N   0  0  0  0  0  2  0  0  0  0  0  0
  193.6620  173.1550  137.0170 S   0  0  0  0  0  0  0  0  0  0  0  0
  185.8090  177.6770  143.9980 O   0  0  0  0  0  0  0  0  0  0  0  0
  183.8320  178.8870  144.6720 C   0  0  0  0  0  1  0  0  0  0  0  0
  185.0960  178.9000  143.8270 C   0  0  2  0  0  3  0  0  0  0  0  0
  185.5100  179.6830  141.6370 O   0  0  0  0  0  0  0  0  0  0  0  0
  184.7450  179.0940  142.3870 C   0  0  0  0  0  0  0  0  0  0  0  0
  183.4660  178.5270  141.8610 C   0  0  0  0  0  2  0  0  0  0  0  0
  183.6320  178.0120  140.4370 C   0  0  0  0  0  2  0  0  0  0  0  0
  181.4310  178.8070  140.4450 C   0  0  0  0  0  1  0  0  0  0  0  0
  182.5590  178.4970  139.5830 N   0  0  0  0  0  0  0  0  0  0  0  0
  183.0110  179.7580  139.0250 C   0  0  0  0  0  1  0  0  0  0  0  0
  2  8  1  0  0  0  0
  4  5  2  0  0  0  0
  4  6  1  0  0  0  0
  5  7  1  0  0  0  0
  6 10  2  0  0  0  0
  7 11  2  0  0  0  0
  8  3  2  0  0  0  0
  8  1  1  0  0  0  0
  9  6  1  0  0  0  0
  9  2  2  0  0  0  0
 10 11  1  0  0  0  0
 10  3  1  0  0  0  0
 12  9  1  0  0  0  0
 13 12  1  0  0  0  0
 15 14  1  0  0  0  0
 15 13  1  1  0  0  0
 16 22  1  6  0  0  0
 16 15  1  0  0  0  0
 18 17  1  1  0  0  0
 18 16  1  0  0  0  0
 18 19  1  0  0  0  0
 19 14  1  0  0  0  0
 20 25  1  0  0  0  0
 21 20  2  0  0  0  0
 23 22  2  0  0  0  0
 25 22  1  0  0  0  0
 25 24  1  0  0  0  0
 26 27  1  0  0  0  0
 26 29  1  0  0  0  0
 27 31  1  0  0  0  0
 28 20  1  1  0  0  0
 29 28  1  0  0  0  0
 30 27  2  0  0  0  0
 31 28  1  0  0  0  0
 32  5  1  0  0  0  0
 34 32  1  0  0  0  0
 34 33  1  1  0  0  0
 35 36  2  0  0  0  0
 36 34  1  0  0  0  0
 37 36  1  0  0  0  0
 38 37  1  0  0  0  0
 40 38  1  0  0  0  0
 40 39  1  0  0  0  0
 41 40  1  0  0  0  0
M  END
>  <MODEL>
1

>  <REMARK>
 VINA RESULT:      -9.2      0.000      0.000
  Name = 
  11 active torsions:
  status: ('A' for Active; 'I' for Inactive)
    1  A    between atoms: C_4  and  N_9
    2  A    between atoms: C_4  and  C_18
    3  A    between atoms: C_6  and  C_25
    4  A    between atoms: C_7  and  N_16
    5  A    between atoms: C_7  and  C_29
    6  A    between atoms: N_9  and  C_30
    7  A    between atoms: C_13  and  C_29
    8  A    between atoms: C_13  and  C_39
    9  A    between atoms: C_17  and  O_33
   10  A    between atoms: C_19  and  C_34
   11  A    between atoms: O_33  and  C_39
                            x       y       z     vdW  Elec       q    Type
                         _______ _______ _______ _____ _____    ______ ____

>  <TORSDO>
F 11

$$$$
=
 OpenBabel10222420363D

 41 44  0  0  1  0  0  0  0  0999 V2000
  191.9770  177.0670  148.2510 O   0  0  0  0  0  1  0  0  0  0  0  0
  191.3720  176.8440  145.9280 C   0  0  0  0  0  3  0  0  0  0  0  0
  189.6880  177.3990  147.5760 C   0  0  0  0  0  3  0  0  0  0  0  0
  188.1140  177.2660  144.2670 N   0  0  0  0  0  0  0  0  0  0  0  0
  186.8170  177.5660  144.5530 C   0  0  0  0  0  0  0  0  0  0  0  0
  189.0750  177.1920  145.2270 C   0  0  0  0  0  0  0  0  0  0  0  0
  186.4360  177.8070  145.8750 C   0  0  0  0  0  3  0  0  0  0  0  0
  191.0130  177.1030  147.2540 C   0  0  0  0  0  0  0  0  0  0  0  0
  190.4190  176.8750  144.9040 C   0  0  0  0  0  0  0  0  0  0  0  0
  188.7200  177.4450  146.5720 C   0  0  0  0  0  0  0  0  0  0  0  0
  187.3950  177.7470  146.8870 C   0  0  0  0  0  3  0  0  0  0  0  0
  190.8620  176.5880  143.5690 N   0  0  0  0  0  2  0  0  0  0  0  0
  190.7610  177.4980  142.4390 C   0  0  0  0  0  2  0  0  0  0  0  0
  189.1310  176.4080  141.0660 O   0  0  0  0  0  0  0  0  0  0  0  0
  190.5010  176.7180  141.1670 C   0  0  1  0  0  3  0  0  0  0  0  0
  190.9220  177.5490  139.9730 C   0  0  2  0  0  3  0  0  0  0  0  0
  189.5070  178.9890  138.7390 O   0  0  0  0  0  1  0  0  0  0  0  0
  189.6850  177.6650  139.1410 C   0  0  2  0  0  3  0  0  0  0  0  0
  188.5920  177.2730  140.0970 C   0  0  0  0  0  2  0  0  0  0  0  0
  192.7290  174.9860  137.6660 C   0  0  0  0  0  0  0  0  0  0  0  0
  192.3750  173.9660  137.0140 O   0  0  0  0  0  0  0  0  0  0  0  0
  192.0280  176.8810  139.2130 C   0  0  0  0  0  0  0  0  0  0  0  0
  193.1950  177.3570  139.2760 O   0  0  0  0  0  0  0  0  0  0  0  0
  190.4540  175.2890  138.3510 O   0  0  0  0  0  1  0  0  0  0  0  0
  191.7390  175.7180  138.4140 N   0  0  0  0  0  0  0  0  0  0  0  0
  196.3790  174.4740  137.8140 N   0  0  0  0  0  2  0  0  0  0  0  0
  196.3960  175.1200  136.5530 C   0  0  0  0  0  0  0  0  0  0  0  0
  194.1740  175.3790  137.6660 C   0  0  1  0  0  3  0  0  0  0  0  0
  195.0360  174.3120  138.3330 C   0  0  0  0  0  2  0  0  0  0  0  0
  197.4760  175.6850  136.1290 N   0  0  0  0  0  2  0  0  0  0  0  0
  194.8020  175.6560  135.9710 S   0  0  0  0  0  0  0  0  0  0  0  0
  185.8640  177.6400  143.5370 O   0  0  0  0  0  0  0  0  0  0  0  0
  183.7230  178.7010  143.8830 C   0  0  0  0  0  1  0  0  0  0  0  0
  185.1140  178.8250  143.2810 C   0  0  2  0  0  3  0  0  0  0  0  0
  185.9360  179.5870  141.2010 O   0  0  0  0  0  0  0  0  0  0  0  0
  185.0130  179.0630  141.8080 C   0  0  0  0  0  0  0  0  0  0  0  0
  183.7890  178.6180  141.0760 C   0  0  0  0  0  2  0  0  0  0  0  0
  183.6760  179.3010  139.7190 C   0  0  0  0  0  2  0  0  0  0  0  0
  184.9590  178.0560  138.2090 C   0  0  0  0  0  1  0  0  0  0  0  0
  183.5990  178.3170  138.6500 N   0  0  0  0  0  0  0  0  0  0  0  0
  183.1170  177.0880  139.2500 C   0  0  0  0  0  1  0  0  0  0  0  0
  2  8  1  0  0  0  0
  4  5  2  0  0  0  0
  4  6  1  0  0  0  0
  5  7  1  0  0  0  0
  6 10  2  0  0  0  0
  7 11  2  0  0  0  0
  8  3  2  0  0  0  0
  8  1  1  0  0  0  0
  9  6  1  0  0  0  0
  9  2  2  0  0  0  0
 10 11  1  0  0  0  0
 10  3  1  0  0  0  0
 12  9  1  0  0  0  0
 13 12  1  0  0  0  0
 14 15  1  0  0  0  0
 15 13  1  1  0  0  0
 16 22  1  6  0  0  0
 16 15  1  0  0  0  0
 18 17  1  1  0  0  0
 18 16  1  0  0  0  0
 18 19  1  0  0  0  0
 19 14  1  0  0  0  0
 20 25  1  0  0  0  0
 21 20  2  0  0  0  0
 22 23  2  0  0  0  0
 24 25  1  0  0  0  0
 25 22  1  0  0  0  0
 26 29  1  0  0  0  0
 27 26  1  0  0  0  0
 28 20  1  6  0  0  0
 28 29  1  0  0  0  0
 30 27  2  0  0  0  0
 31 27  1  0  0  0  0
 31 28  1  0  0  0  0
 32  5  1  0  0  0  0
 34 32  1  0  0  0  0
 34 33  1  6  0  0  0
 35 36  2  0  0  0  0
 36 34  1  0  0  0  0
 37 36  1  0  0  0  0
 38 37  1  0  0  0  0
 39 40  1  0  0  0  0
 40 41  1  0  0  0  0
 40 38  1  0  0  0  0
M  END
>  <MODEL>
2

>  <REMARK>
 VINA RESULT:      -8.6      1.636      2.121
  Name = 
  11 active torsions:
  status: ('A' for Active; 'I' for Inactive)
    1  A    between atoms: C_4  and  N_9
    2  A    between atoms: C_4  and  C_18
    3  A    between atoms: C_6  and  C_25
    4  A    between atoms: C_7  and  N_16
    5  A    between atoms: C_7  and  C_29
    6  A    between atoms: N_9  and  C_30
    7  A    between atoms: C_13  and  C_29
    8  A    between atoms: C_13  and  C_39
    9  A    between atoms: C_17  and  O_33
   10  A    between atoms: C_19  and  C_34
   11  A    between atoms: O_33  and  C_39
                            x       y       z     vdW  Elec       q    Type
                         _______ _______ _______ _____ _____    ______ ____

>  <TORSDO>
F 11

$$$$
=
 OpenBabel10222420363D

 41 44  0  0  1  0  0  0  0  0999 V2000
  184.4530  178.7520  146.9790 O   0  0  0  0  0  1  0  0  0  0  0  0
  185.2360  178.3730  144.7300 C   0  0  0  0  0  3  0  0  0  0  0  0
  186.7050  177.9750  146.6130 C   0  0  0  0  0  3  0  0  0  0  0  0
  188.4940  177.1630  143.5180 N   0  0  0  0  0  0  0  0  0  0  0  0
  189.7090  176.7620  143.9850 C   0  0  0  0  0  0  0  0  0  0  0  0
  187.4950  177.5750  144.3430 C   0  0  0  0  0  0  0  0  0  0  0  0
  189.9610  176.7700  145.3580 C   0  0  0  0  0  3  0  0  0  0  0  0
  185.4640  178.3670  146.1090 C   0  0  0  0  0  0  0  0  0  0  0  0
  186.2390  177.9900  143.8330 C   0  0  0  0  0  0  0  0  0  0  0  0
  187.7180  177.5800  145.7390 C   0  0  0  0  0  0  0  0  0  0  0  0
  188.9590  177.1800  146.2370 C   0  0  0  0  0  3  0  0  0  0  0  0
  185.9330  178.0320  142.4310 N   0  0  0  0  0  2  0  0  0  0  0  0
  184.9410  178.8990  141.8150 C   0  0  0  0  0  2  0  0  0  0  0  0
  182.6260  178.4260  142.1970 O   0  0  0  0  0  0  0  0  0  0  0  0
  183.7320  178.0880  141.3950 C   0  0  1  0  0  3  0  0  0  0  0  0
  183.4140  178.3780  139.9430 C   0  0  2  0  0  3  0  0  0  0  0  0
  181.9000  180.0260  139.1760 O   0  0  0  0  0  1  0  0  0  0  0  0
  182.0050  178.8790  139.9600 C   0  0  2  0  0  3  0  0  0  0  0  0
  181.7850  179.2290  141.4070 C   0  0  0  0  0  2  0  0  0  0  0  0
  184.7190  175.9660  137.1790 C   0  0  0  0  0  0  0  0  0  0  0  0
  185.5990  176.0330  136.2770 O   0  0  0  0  0  0  0  0  0  0  0  0
  183.5420  177.1410  139.1050 C   0  0  0  0  0  0  0  0  0  0  0  0
  182.7900  176.1560  139.3410 O   0  0  0  0  0  0  0  0  0  0  0  0
  185.3380  178.1680  137.8910 O   0  0  0  0  0  1  0  0  0  0  0  0
  184.5290  177.0930  138.0570 N   0  0  0  0  0  0  0  0  0  0  0  0
  182.7020  173.1300  135.9600 N   0  0  0  0  0  2  0  0  0  0  0  0
  183.6430  172.3240  136.6480 C   0  0  0  0  0  0  0  0  0  0  0  0
  183.8820  174.7290  137.2830 C   0  0  1  0  0  3  0  0  0  0  0  0
  183.0200  174.5410  136.0380 C   0  0  0  0  0  2  0  0  0  0  0  0
  183.3280  171.1260  137.0110 N   0  0  0  0  0  2  0  0  0  0  0  0
  184.9070  173.2320  137.5110 S   0  0  0  0  0  0  0  0  0  0  0  0
  190.7050  176.3390  143.1030 O   0  0  0  0  0  0  0  0  0  0  0  0
  191.5200  178.6090  143.2020 C   0  0  0  0  0  1  0  0  0  0  0  0
  191.7010  177.2260  142.5980 C   0  0  2  0  0  3  0  0  0  0  0  0
  192.5580  177.7170  140.4520 O   0  0  0  0  0  0  0  0  0  0  0  0
  191.6130  177.3040  141.1080 C   0  0  0  0  0  0  0  0  0  0  0  0
  190.3720  176.8330  140.4210 C   0  0  0  0  0  2  0  0  0  0  0  0
  190.2900  177.3660  138.9960 C   0  0  0  0  0  2  0  0  0  0  0  0
  188.3310  178.3320  139.8360 C   0  0  0  0  0  1  0  0  0  0  0  0
  188.9220  177.7240  138.6560 N   0  0  0  0  0  0  0  0  0  0  0  0
  189.0040  178.7680  137.6510 C   0  0  0  0  0  1  0  0  0  0  0  0
  2  8  1  0  0  0  0
  4  5  2  0  0  0  0
  4  6  1  0  0  0  0
  5  7  1  0  0  0  0
  6 10  2  0  0  0  0
  7 11  2  0  0  0  0
  8  3  2  0  0  0  0
  8  1  1  0  0  0  0
  9  6  1  0  0  0  0
  9  2  2  0  0  0  0
 10 11  1  0  0  0  0
 10  3  1  0  0  0  0
 12  9  1  0  0  0  0
 13 12  1  0  0  0  0
 15 13  1  1  0  0  0
 15 14  1  0  0  0  0
 16 22  1  6  0  0  0
 16 18  1  0  0  0  0
 16 15  1  0  0  0  0
 18 17  1  6  0  0  0
 18 19  1  0  0  0  0
 19 14  1  0  0  0  0
 20 25  1  0  0  0  0
 21 20  2  0  0  0  0
 22 23  2  0  0  0  0
 24 25  1  0  0  0  0
 25 22  1  0  0  0  0
 26 29  1  0  0  0  0
 26 27  1  0  0  0  0
 27 30  2  0  0  0  0
 27 31  1  0  0  0  0
 28 20  1  6  0  0  0
 28 31  1  0  0  0  0
 29 28  1  0  0  0  0
 32  5  1  0  0  0  0
 34 32  1  0  0  0  0
 34 33  1  1  0  0  0
 35 36  2  0  0  0  0
 36 34  1  0  0  0  0
 37 36  1  0  0  0  0
 38 37  1  0  0  0  0
 40 38  1  0  0  0  0
 40 39  1  0  0  0  0
 41 40  1  0  0  0  0
M  END
>  <MODEL>
3

>  <REMARK>
 VINA RESULT:      -8.5      3.405      6.883
  Name = 
  11 active torsions:
  status: ('A' for Active; 'I' for Inactive)
    1  A    between atoms: C_4  and  N_9
    2  A    between atoms: C_4  and  C_18
    3  A    between atoms: C_6  and  C_25
    4  A    between atoms: C_7  and  N_16
    5  A    between atoms: C_7  and  C_29
    6  A    between atoms: N_9  and  C_30
    7  A    between atoms: C_13  and  C_29
    8  A    between atoms: C_13  and  C_39
    9  A    between atoms: C_17  and  O_33
   10  A    between atoms: C_19  and  C_34
   11  A    between atoms: O_33  and  C_39
                            x       y       z     vdW  Elec       q    Type
                         _______ _______ _______ _____ _____    ______ ____

>  <TORSDO>
F 11

$$$$
=
 OpenBabel10222420363D

 41 44  0  0  1  0  0  0  0  0999 V2000
  180.6180  179.4460  143.4240 O   0  0  0  0  0  1  0  0  0  0  0  0
  182.3780  178.7290  141.9410 C   0  0  0  0  0  3  0  0  0  0  0  0
  182.8140  178.9970  144.3070 C   0  0  0  0  0  3  0  0  0  0  0  0
  185.8790  177.8470  142.6570 N   0  0  0  0  0  0  0  0  0  0  0  0
  186.7530  177.7660  143.6980 C   0  0  0  0  0  0  0  0  0  0  0  0
  184.5910  178.2540  142.8150 C   0  0  0  0  0  0  0  0  0  0  0  0
  186.3340  178.1110  144.9840 C   0  0  0  0  0  3  0  0  0  0  0  0
  181.9350  179.0580  143.2250 C   0  0  0  0  0  0  0  0  0  0  0  0
  183.7010  178.3340  141.7150 C   0  0  0  0  0  0  0  0  0  0  0  0
  184.1360  178.5980  144.1090 C   0  0  0  0  0  0  0  0  0  0  0  0
  185.0180  178.5270  145.1880 C   0  0  0  0  0  3  0  0  0  0  0  0
  184.0840  178.0210  140.3670 N   0  0  0  0  0  2  0  0  0  0  0  0
  183.1680  177.6460  139.3010 C   0  0  0  0  0  2  0  0  0  0  0  0
  182.7520  175.5680  138.1870 O   0  0  0  0  0  0  0  0  0  0  0  0
  183.7550  176.5080  138.4900 C   0  0  1  0  0  3  0  0  0  0  0  0
  184.3400  177.0580  137.2060 C   0  0  2  0  0  3  0  0  0  0  0  0
  183.1970  177.2250  135.1410 O   0  0  0  0  0  1  0  0  0  0  0  0
  183.6180  176.3260  136.1200 C   0  0  2  0  0  3  0  0  0  0  0  0
  182.4230  175.7520  136.8320 C   0  0  0  0  0  2  0  0  0  0  0  0
  188.1640  177.7370  137.4850 C   0  0  0  0  0  0  0  0  0  0  0  0
  188.8740  178.7190  137.8350 O   0  0  0  0  0  0  0  0  0  0  0  0
  185.8180  176.8140  137.1380 C   0  0  0  0  0  0  0  0  0  0  0  0
  186.2400  175.6910  136.7470 O   0  0  0  0  0  0  0  0  0  0  0  0
  186.2070  179.0220  137.9920 O   0  0  0  0  0  1  0  0  0  0  0  0
  186.7290  177.8570  137.5340 N   0  0  0  0  0  0  0  0  0  0  0  0
  190.5010  175.7170  135.4690 N   0  0  0  0  0  2  0  0  0  0  0  0
  191.0070  175.2810  136.7180 C   0  0  0  0  0  0  0  0  0  0  0  0
  188.8400  176.4920  136.9990 C   0  0  1  0  0  3  0  0  0  0  0  0
  189.4430  176.6960  135.6130 C   0  0  0  0  0  2  0  0  0  0  0  0
  191.6530  174.1670  136.8020 N   0  0  0  0  0  2  0  0  0  0  0  0
  190.1670  175.9530  138.1360 S   0  0  0  0  0  0  0  0  0  0  0  0
  188.0650  177.3350  143.4930 O   0  0  0  0  0  0  0  0  0  0  0  0
  189.1940  177.5200  141.3670 C   0  0  0  0  0  1  0  0  0  0  0  0
  189.0120  178.1060  142.7580 C   0  0  2  0  0  3  0  0  0  0  0  0
  191.3540  178.3950  142.8750 O   0  0  0  0  0  0  0  0  0  0  0  0
  190.3230  178.1330  143.4760 C   0  0  0  0  0  0  0  0  0  0  0  0
  190.3570  177.8730  144.9480 C   0  0  0  0  0  2  0  0  0  0  0  0
  191.3960  176.8150  145.3000 C   0  0  0  0  0  2  0  0  0  0  0  0
  190.4700  177.0200  147.4400 C   0  0  0  0  0  1  0  0  0  0  0  0
  191.7210  176.8620  146.7180 N   0  0  0  0  0  0  0  0  0  0  0  0
  192.2370  175.5520  147.0680 C   0  0  0  0  0  1  0  0  0  0  0  0
  2  8  1  0  0  0  0
  4  6  1  0  0  0  0
  4  5  2  0  0  0  0
  5  7  1  0  0  0  0
  6 10  2  0  0  0  0
  7 11  2  0  0  0  0
  8  1  1  0  0  0  0
  8  3  2  0  0  0  0
  9  2  2  0  0  0  0
  9  6  1  0  0  0  0
 10  3  1  0  0  0  0
 10 11  1  0  0  0  0
 12  9  1  0  0  0  0
 13 12  1  0  0  0  0
 14 15  1  0  0  0  0
 15 13  1  1  0  0  0
 16 22  1  1  0  0  0
 16 15  1  0  0  0  0
 18 17  1  6  0  0  0
 18 19  1  0  0  0  0
 18 16  1  0  0  0  0
 19 14  1  0  0  0  0
 20 25  1  0  0  0  0
 20 21  2  0  0  0  0
 22 25  1  0  0  0  0
 23 22  2  0  0  0  0
 25 24  1  0  0  0  0
 26 29  1  0  0  0  0
 26 27  1  0  0  0  0
 27 30  2  0  0  0  0
 27 31  1  0  0  0  0
 28 20  1  1  0  0  0
 28 31  1  0  0  0  0
 29 28  1  0  0  0  0
 32  5  1  0  0  0  0
 34 33  1  6  0  0  0
 34 36  1  0  0  0  0
 34 32  1  0  0  0  0
 35 36  2  0  0  0  0
 36 37  1  0  0  0  0
 37 38  1  0  0  0  0
 38 40  1  0  0  0  0
 40 41  1  0  0  0  0
 40 39  1  0  0  0  0
M  END
>  <MODEL>
4

>  <REMARK>
 VINA RESULT:      -8.5      3.003      6.978
  Name = 
  11 active torsions:
  status: ('A' for Active; 'I' for Inactive)
    1  A    between atoms: C_4  and  N_9
    2  A    between atoms: C_4  and  C_18
    3  A    between atoms: C_6  and  C_25
    4  A    between atoms: C_7  and  N_16
    5  A    between atoms: C_7  and  C_29
    6  A    between atoms: N_9  and  C_30
    7  A    between atoms: C_13  and  C_29
    8  A    between atoms: C_13  and  C_39
    9  A    between atoms: C_17  and  O_33
   10  A    between atoms: C_19  and  C_34
   11  A    between atoms: O_33  and  C_39
                            x       y       z     vdW  Elec       q    Type
                         _______ _______ _______ _____ _____    ______ ____

>  <TORSDO>
F 11

$$$$
=
 OpenBabel10222420363D

 41 44  0  0  1  0  0  0  0  0999 V2000
  184.9610  178.6190  147.2890 O   0  0  0  0  0  1  0  0  0  0  0  0
  184.9920  178.4210  144.8870 C   0  0  0  0  0  3  0  0  0  0  0  0
  186.9740  177.9020  146.1760 C   0  0  0  0  0  3  0  0  0  0  0  0
  187.6880  177.3470  142.6230 N   0  0  0  0  0  0  0  0  0  0  0  0
  188.9840  176.9290  142.6520 C   0  0  0  0  0  0  0  0  0  0  0  0
  187.0050  177.6830  143.7490 C   0  0  0  0  0  0  0  0  0  0  0  0
  189.6560  176.8370  143.8720 C   0  0  0  0  0  3  0  0  0  0  0  0
  185.6430  178.3140  146.1190 C   0  0  0  0  0  0  0  0  0  0  0  0
  185.6560  178.1190  143.6930 C   0  0  0  0  0  0  0  0  0  0  0  0
  187.6560  177.5870  145.0000 C   0  0  0  0  0  0  0  0  0  0  0  0
  188.9860  177.1660  145.0510 C   0  0  0  0  0  3  0  0  0  0  0  0
  184.9260  178.2620  142.4660 N   0  0  0  0  0  2  0  0  0  0  0  0
  183.6350  178.9190  142.3320 C   0  0  0  0  0  2  0  0  0  0  0  0
  181.4360  178.4180  141.5280 O   0  0  0  0  0  0  0  0  0  0  0  0
  182.8060  178.2210  141.2720 C   0  0  1  0  0  3  0  0  0  0  0  0
  183.1550  178.7860  139.9100 C   0  0  2  0  0  3  0  0  0  0  0  0
  182.0320  180.5740  138.8420 O   0  0  0  0  0  1  0  0  0  0  0  0
  181.8560  179.2970  139.3720 C   0  0  2  0  0  3  0  0  0  0  0  0
  180.9840  179.3700  140.5960 C   0  0  0  0  0  2  0  0  0  0  0  0
  185.6220  177.0370  137.4590 C   0  0  0  0  0  0  0  0  0  0  0  0
  186.7120  177.3550  136.9090 O   0  0  0  0  0  0  0  0  0  0  0  0
  183.7350  177.7290  139.0200 C   0  0  0  0  0  0  0  0  0  0  0  0
  183.1210  176.6360  138.8790 O   0  0  0  0  0  0  0  0  0  0  0  0
  185.6210  179.1490  138.5900 O   0  0  0  0  0  1  0  0  0  0  0  0
  184.9890  177.9720  138.3540 N   0  0  0  0  0  0  0  0  0  0  0  0
  184.3280  174.3380  135.3030 N   0  0  0  0  0  2  0  0  0  0  0  0
  185.2900  173.5260  135.9530 C   0  0  0  0  0  0  0  0  0  0  0  0
  185.0100  175.7090  137.1360 C   0  0  1  0  0  3  0  0  0  0  0  0
  184.3780  175.7160  135.7470 C   0  0  0  0  0  2  0  0  0  0  0  0
  185.1440  172.2440  135.9800 N   0  0  0  0  0  2  0  0  0  0  0  0
  186.2410  174.3590  137.2060 S   0  0  0  0  0  0  0  0  0  0  0  0
  189.6470  176.5860  141.4720 O   0  0  0  0  0  0  0  0  0  0  0  0
  188.9860  177.8070  139.4970 C   0  0  0  0  0  1  0  0  0  0  0  0
  190.0760  177.5660  140.5290 C   0  0  2  0  0  3  0  0  0  0  0  0
  192.4210  177.4780  140.2620 O   0  0  0  0  0  0  0  0  0  0  0  0
  191.3290  177.1130  139.8510 C   0  0  0  0  0  0  0  0  0  0  0  0
  191.2380  176.1780  138.6890 C   0  0  0  0  0  2  0  0  0  0  0  0
  192.3980  176.3790  137.7230 C   0  0  0  0  0  2  0  0  0  0  0  0
  193.5570  175.5090  135.8850 C   0  0  0  0  0  1  0  0  0  0  0  0
  192.2810  175.4860  136.5800 N   0  0  0  0  0  0  0  0  0  0  0  0
  192.1260  174.1460  137.1150 C   0  0  0  0  0  1  0  0  0  0  0  0
  2  8  1  0  0  0  0
  4  5  2  0  0  0  0
  4  6  1  0  0  0  0
  5  7  1  0  0  0  0
  6 10  2  0  0  0  0
  7 11  2  0  0  0  0
  8  3  2  0  0  0  0
  8  1  1  0  0  0  0
  9  6  1  0  0  0  0
  9  2  2  0  0  0  0
 10 11  1  0  0  0  0
 10  3  1  0  0  0  0
 12  9  1  0  0  0  0
 13 12  1  0  0  0  0
 15 14  1  0  0  0  0
 15 13  1  1  0  0  0
 16 22  1  6  0  0  0
 16 15  1  0  0  0  0
 18 17  1  1  0  0  0
 18 16  1  0  0  0  0
 18 19  1  0  0  0  0
 19 14  1  0  0  0  0
 20 25  1  0  0  0  0
 21 20  2  0  0  0  0
 23 22  2  0  0  0  0
 25 24  1  0  0  0  0
 25 22  1  0  0  0  0
 26 29  1  0  0  0  0
 26 27  1  0  0  0  0
 27 30  2  0  0  0  0
 27 31  1  0  0  0  0
 28 31  1  0  0  0  0
 28 20  1  6  0  0  0
 29 28  1  0  0  0  0
 32  5  1  0  0  0  0
 34 33  1  6  0  0  0
 34 32  1  0  0  0  0
 36 35  2  0  0  0  0
 36 34  1  0  0  0  0
 37 36  1  0  0  0  0
 38 37  1  0  0  0  0
 39 40  1  0  0  0  0
 40 41  1  0  0  0  0
 40 38  1  0  0  0  0
M  END
>  <MODEL>
5

>  <REMARK>
 VINA RESULT:      -8.1      3.147      7.238
  Name = 
  11 active torsions:
  status: ('A' for Active; 'I' for Inactive)
    1  A    between atoms: C_4  and  N_9
    2  A    between atoms: C_4  and  C_18
    3  A    between atoms: C_6  and  C_25
    4  A    between atoms: C_7  and  N_16
    5  A    between atoms: C_7  and  C_29
    6  A    between atoms: N_9  and  C_30
    7  A    between atoms: C_13  and  C_29
    8  A    between atoms: C_13  and  C_39
    9  A    between atoms: C_17  and  O_33
   10  A    between atoms: C_19  and  C_34
   11  A    between atoms: O_33  and  C_39
                            x       y       z     vdW  Elec       q    Type
                         _______ _______ _______ _____ _____    ______ ____

>  <TORSDO>
F 11

$$$$
=
 OpenBabel10222420363D

 41 44  0  0  1  0  0  0  0  0999 V2000
  187.6020  178.1290  147.9360 O   0  0  0  0  0  1  0  0  0  0  0  0
  187.7250  177.1210  145.7500 C   0  0  0  0  0  3  0  0  0  0  0  0
  185.9810  178.7220  146.2550 C   0  0  0  0  0  3  0  0  0  0  0  0
  185.6190  177.6290  142.7740 N   0  0  0  0  0  0  0  0  0  0  0  0
  184.5350  178.3420  142.3600 C   0  0  0  0  0  0  0  0  0  0  0  0
  186.1120  177.7190  144.0380 C   0  0  0  0  0  0  0  0  0  0  0  0
  183.8880  179.2000  143.2510 C   0  0  0  0  0  3  0  0  0  0  0  0
  187.1020  177.9910  146.6490 C   0  0  0  0  0  0  0  0  0  0  0  0
  187.2410  176.9650  144.4460 C   0  0  0  0  0  0  0  0  0  0  0  0
  185.4850  178.5900  144.9570 C   0  0  0  0  0  0  0  0  0  0  0  0
  184.3680  179.3250  144.5550 C   0  0  0  0  0  3  0  0  0  0  0  0
  187.9270  176.0450  143.5840 N   0  0  0  0  0  2  0  0  0  0  0  0
  189.3290  176.1350  143.2080 C   0  0  0  0  0  2  0  0  0  0  0  0
  190.1560  178.3590  142.8800 O   0  0  0  0  0  0  0  0  0  0  0  0
  189.5310  177.2760  142.2310 C   0  0  1  0  0  3  0  0  0  0  0  0
  190.3980  176.8050  141.0820 C   0  0  2  0  0  3  0  0  0  0  0  0
  192.7520  177.0080  140.9700 O   0  0  0  0  0  1  0  0  0  0  0  0
  191.5690  177.7350  141.0890 C   0  0  2  0  0  3  0  0  0  0  0  0
  191.4950  178.3670  142.4530 C   0  0  0  0  0  2  0  0  0  0  0  0
  189.5190  176.1520  137.3460 C   0  0  0  0  0  0  0  0  0  0  0  0
  190.0370  175.4840  136.4090 O   0  0  0  0  0  0  0  0  0  0  0  0
  189.6550  176.8760  139.7820 C   0  0  0  0  0  0  0  0  0  0  0  0
  188.6060  177.5740  139.7070 O   0  0  0  0  0  0  0  0  0  0  0  0
  191.2450  175.3650  138.8090 O   0  0  0  0  0  1  0  0  0  0  0  0
  190.1410  176.1350  138.6450 N   0  0  0  0  0  0  0  0  0  0  0  0
  187.0930  178.0170  135.2860 N   0  0  0  0  0  2  0  0  0  0  0  0
  186.1400  177.1050  135.8040 C   0  0  0  0  0  0  0  0  0  0  0  0
  188.2940  176.9650  137.0620 C   0  0  1  0  0  3  0  0  0  0  0  0
  188.4350  177.7380  135.7550 C   0  0  0  0  0  2  0  0  0  0  0  0
  184.8880  177.4150  135.8170 N   0  0  0  0  0  2  0  0  0  0  0  0
  186.7960  175.9220  136.9610 S   0  0  0  0  0  0  0  0  0  0  0  0
  184.0660  178.2260  141.0510 O   0  0  0  0  0  0  0  0  0  0  0  0
  181.7690  177.9860  140.3480 C   0  0  0  0  0  1  0  0  0  0  0  0
  182.9250  178.9430  140.5850 C   0  0  2  0  0  3  0  0  0  0  0  0
  184.4080  179.9930  139.0750 O   0  0  0  0  0  0  0  0  0  0  0  0
  183.2550  179.6690  139.3200 C   0  0  0  0  0  0  0  0  0  0  0  0
  182.1670  179.9610  138.3380 C   0  0  0  0  0  2  0  0  0  0  0  0
  181.6960  181.4060  138.4460 C   0  0  0  0  0  2  0  0  0  0  0  0
  180.3590  180.4820  136.7620 C   0  0  0  0  0  1  0  0  0  0  0  0
  180.7870  181.7360  137.3590 N   0  0  0  0  0  0  0  0  0  0  0  0
  179.6100  182.3270  137.9670 C   0  0  0  0  0  1  0  0  0  0  0  0
  2  8  1  0  0  0  0
  3  8  2  0  0  0  0
  4  6  1  0  0  0  0
  5  4  2  0  0  0  0
  5  7  1  0  0  0  0
  6  9  1  0  0  0  0
  6 10  2  0  0  0  0
  7 11  2  0  0  0  0
  8  1  1  0  0  0  0
  9  2  2  0  0  0  0
 10  3  1  0  0  0  0
 11 10  1  0  0  0  0
 12  9  1  0  0  0  0
 13 12  1  0  0  0  0
 15 14  1  0  0  0  0
 15 13  1  1  0  0  0
 16 22  1  6  0  0  0
 16 18  1  0  0  0  0
 16 15  1  0  0  0  0
 18 17  1  1  0  0  0
 18 19  1  0  0  0  0
 19 14  1  0  0  0  0
 20 25  1  0  0  0  0
 21 20  2  0  0  0  0
 23 22  2  0  0  0  0
 25 24  1  0  0  0  0
 25 22  1  0  0  0  0
 26 29  1  0  0  0  0
 26 27  1  0  0  0  0
 27 30  2  0  0  0  0
 27 31  1  0  0  0  0
 28 20  1  6  0  0  0
 29 28  1  0  0  0  0
 31 28  1  0  0  0  0
 32  5  1  0  0  0  0
 34 33  1  6  0  0  0
 34 32  1  0  0  0  0
 35 36  2  0  0  0  0
 36 34  1  0  0  0  0
 37 38  1  0  0  0  0
 37 36  1  0  0  0  0
 39 40  1  0  0  0  0
 40 41  1  0  0  0  0
 40 38  1  0  0  0  0
M  END
>  <MODEL>
6

>  <REMARK>
 VINA RESULT:      -8.1      2.892      4.346
  Name = 
  11 active torsions:
  status: ('A' for Active; 'I' for Inactive)
    1  A    between atoms: C_4  and  N_9
    2  A    between atoms: C_4  and  C_18
    3  A    between atoms: C_6  and  C_25
    4  A    between atoms: C_7  and  N_16
    5  A    between atoms: C_7  and  C_29
    6  A    between atoms: N_9  and  C_30
    7  A    between atoms: C_13  and  C_29
    8  A    between atoms: C_13  and  C_39
    9  A    between atoms: C_17  and  O_33
   10  A    between atoms: C_19  and  C_34
   11  A    between atoms: O_33  and  C_39
                            x       y       z     vdW  Elec       q    Type
                         _______ _______ _______ _____ _____    ______ ____

>  <TORSDO>
F 11

$$$$
=
 OpenBabel10222420363D

 41 44  0  0  1  0  0  0  0  0999 V2000
  188.7550  178.0210  147.6750 O   0  0  0  0  0  1  0  0  0  0  0  0
  188.4210  177.0440  145.4970 C   0  0  0  0  0  3  0  0  0  0  0  0
  186.7780  178.5690  146.4110 C   0  0  0  0  0  3  0  0  0  0  0  0
  185.6840  177.5030  143.0780 N   0  0  0  0  0  0  0  0  0  0  0  0
  184.5100  178.1770  142.9320 C   0  0  0  0  0  0  0  0  0  0  0  0
  186.4450  177.5980  144.2010 C   0  0  0  0  0  0  0  0  0  0  0  0
  184.0480  178.9980  143.9620 C   0  0  0  0  0  3  0  0  0  0  0  0
  187.9850  177.8790  146.5290 C   0  0  0  0  0  0  0  0  0  0  0  0
  187.6630  176.8840  144.3310 C   0  0  0  0  0  0  0  0  0  0  0  0
  186.0080  178.4330  145.2550 C   0  0  0  0  0  0  0  0  0  0  0  0
  184.8040  179.1270  145.1280 C   0  0  0  0  0  3  0  0  0  0  0  0
  188.1710  176.0020  143.3190 N   0  0  0  0  0  2  0  0  0  0  0  0
  189.5360  176.0020  142.8160 C   0  0  0  0  0  2  0  0  0  0  0  0
  190.3410  178.2340  142.4950 O   0  0  0  0  0  0  0  0  0  0  0  0
  189.7290  177.1470  141.8420 C   0  0  1  0  0  3  0  0  0  0  0  0
  190.6040  176.6870  140.6940 C   0  0  2  0  0  3  0  0  0  0  0  0
  192.9560  176.9130  140.5900 O   0  0  0  0  0  1  0  0  0  0  0  0
  191.7650  177.6280  140.7070 C   0  0  2  0  0  3  0  0  0  0  0  0
  191.6810  178.2560  142.0710 C   0  0  0  0  0  2  0  0  0  0  0  0
  189.6560  175.9170  136.9970 C   0  0  0  0  0  0  0  0  0  0  0  0
  190.1110  175.1600  136.0970 O   0  0  0  0  0  0  0  0  0  0  0  0
  189.8640  176.7530  139.3920 C   0  0  0  0  0  0  0  0  0  0  0  0
  188.8780  177.5330  139.2810 O   0  0  0  0  0  0  0  0  0  0  0  0
  191.3160  175.0640  138.4990 O   0  0  0  0  0  1  0  0  0  0  0  0
  190.2800  175.9160  138.2960 N   0  0  0  0  0  0  0  0  0  0  0  0
  187.4270  177.9240  134.8510 N   0  0  0  0  0  2  0  0  0  0  0  0
  186.3950  177.0970  135.3600 C   0  0  0  0  0  0  0  0  0  0  0  0
  188.5030  176.8160  136.6710 C   0  0  1  0  0  3  0  0  0  0  0  0
  188.7330  177.5530  135.3550 C   0  0  0  0  0  2  0  0  0  0  0  0
  185.1700  177.5020  135.3390 N   0  0  0  0  0  2  0  0  0  0  0  0
  186.9320  175.8890  136.5520 S   0  0  0  0  0  0  0  0  0  0  0  0
  183.7630  178.0570  141.7580 O   0  0  0  0  0  0  0  0  0  0  0  0
  181.6250  179.0040  141.1590 C   0  0  0  0  0  1  0  0  0  0  0  0
  183.1350  179.1770  141.1390 C   0  0  2  0  0  3  0  0  0  0  0  0
  184.5550  180.0570  139.4680 O   0  0  0  0  0  0  0  0  0  0  0  0
  183.6150  179.3220  139.7300 C   0  0  0  0  0  0  0  0  0  0  0  0
  182.9580  178.5280  138.6470 C   0  0  0  0  0  2  0  0  0  0  0  0
  183.6680  177.1990  138.4240 C   0  0  0  0  0  2  0  0  0  0  0  0
  183.4650  174.9400  137.8500 C   0  0  0  0  0  1  0  0  0  0  0  0
  182.7080  176.1320  138.1930 N   0  0  0  0  0  0  0  0  0  0  0  0
  182.0710  175.8630  139.4680 C   0  0  0  0  0  1  0  0  0  0  0  0
  2  8  1  0  0  0  0
  3  8  2  0  0  0  0
  4  6  1  0  0  0  0
  5  4  2  0  0  0  0
  5  7  1  0  0  0  0
  6  9  1  0  0  0  0
  6 10  2  0  0  0  0
  7 11  2  0  0  0  0
  8  1  1  0  0  0  0
  9  2  2  0  0  0  0
 10  3  1  0  0  0  0
 11 10  1  0  0  0  0
 12  9  1  0  0  0  0
 13 12  1  0  0  0  0
 15 14  1  0  0  0  0
 15 13  1  1  0  0  0
 16 22  1  6  0  0  0
 16 18  1  0  0  0  0
 16 15  1  0  0  0  0
 18 17  1  1  0  0  0
 18 19  1  0  0  0  0
 19 14  1  0  0  0  0
 20 25  1  0  0  0  0
 21 20  2  0  0  0  0
 23 22  2  0  0  0  0
 25 24  1  0  0  0  0
 25 22  1  0  0  0  0
 26 29  1  0  0  0  0
 26 27  1  0  0  0  0
 27 31  1  0  0  0  0
 28 20  1  6  0  0  0
 29 28  1  0  0  0  0
 30 27  2  0  0  0  0
 31 28  1  0  0  0  0
 32  5  1  0  0  0  0
 34 33  1  6  0  0  0
 34 32  1  0  0  0  0
 35 36  2  0  0  0  0
 36 34  1  0  0  0  0
 37 36  1  0  0  0  0
 38 37  1  0  0  0  0
 39 40  1  0  0  0  0
 40 38  1  0  0  0  0
 40 41  1  0  0  0  0
M  END
>  <MODEL>
7

>  <REMARK>
 VINA RESULT:      -8.1      2.670      3.990
  Name = 
  11 active torsions:
  status: ('A' for Active; 'I' for Inactive)
    1  A    between atoms: C_4  and  N_9
    2  A    between atoms: C_4  and  C_18
    3  A    between atoms: C_6  and  C_25
    4  A    between atoms: C_7  and  N_16
    5  A    between atoms: C_7  and  C_29
    6  A    between atoms: N_9  and  C_30
    7  A    between atoms: C_13  and  C_29
    8  A    between atoms: C_13  and  C_39
    9  A    between atoms: C_17  and  O_33
   10  A    between atoms: C_19  and  C_34
   11  A    between atoms: O_33  and  C_39
                            x       y       z     vdW  Elec       q    Type
                         _______ _______ _______ _____ _____    ______ ____

>  <TORSDO>
F 11

$$$$
=
 OpenBabel10222420363D

 41 44  0  0  1  0  0  0  0  0999 V2000
  179.6020  178.9820  141.6220 O   0  0  0  0  0  1  0  0  0  0  0  0
  181.8940  178.6700  140.9450 C   0  0  0  0  0  3  0  0  0  0  0  0
  181.3480  178.9940  143.2810 C   0  0  0  0  0  3  0  0  0  0  0  0
  184.9720  178.5370  142.9600 N   0  0  0  0  0  0  0  0  0  0  0  0
  185.3890  178.6280  144.2540 C   0  0  0  0  0  0  0  0  0  0  0  0
  183.6650  178.6620  142.6050 C   0  0  0  0  0  0  0  0  0  0  0  0
  184.4580  178.8620  145.2680 C   0  0  0  0  0  3  0  0  0  0  0  0
  180.9460  178.8820  141.9500 C   0  0  0  0  0  0  0  0  0  0  0  0
  183.2560  178.5650  141.2500 C   0  0  0  0  0  0  0  0  0  0  0  0
  182.7000  178.8850  143.6120 C   0  0  0  0  0  0  0  0  0  0  0  0
  183.1070  178.9890  144.9430 C   0  0  0  0  0  3  0  0  0  0  0  0
  184.1710  178.3570  140.1640 N   0  0  0  0  0  2  0  0  0  0  0  0
  183.8130  178.3680  138.7540 C   0  0  0  0  0  2  0  0  0  0  0  0
  183.0600  176.2250  137.9950 O   0  0  0  0  0  0  0  0  0  0  0  0
  184.1960  177.0490  138.1130 C   0  0  1  0  0  3  0  0  0  0  0  0
  184.7790  177.3100  136.7390 C   0  0  2  0  0  3  0  0  0  0  0  0
  183.5570  177.3220  134.7130 O   0  0  0  0  0  1  0  0  0  0  0  0
  183.9060  176.5310  135.8070 C   0  0  2  0  0  3  0  0  0  0  0  0
  182.6860  176.2470  136.6400 C   0  0  0  0  0  2  0  0  0  0  0  0
  188.6650  177.4370  136.9400 C   0  0  0  0  0  0  0  0  0  0  0  0
  189.5160  178.3180  137.2390 O   0  0  0  0  0  0  0  0  0  0  0  0
  186.2040  176.8510  136.6620 C   0  0  0  0  0  0  0  0  0  0  0  0
  186.4520  175.6640  136.3110 O   0  0  0  0  0  0  0  0  0  0  0  0
  186.9240  179.0100  137.4200 O   0  0  0  0  0  1  0  0  0  0  0  0
  187.2630  177.7650  137.0030 N   0  0  0  0  0  0  0  0  0  0  0  0
  190.5930  175.0200  134.9280 N   0  0  0  0  0  2  0  0  0  0  0  0
  191.1170  174.5900  136.1720 C   0  0  0  0  0  0  0  0  0  0  0  0
  189.1450  176.0890  136.4960 C   0  0  1  0  0  3  0  0  0  0  0  0
  189.6800  176.1360  135.0690 C   0  0  0  0  0  2  0  0  0  0  0  0
  191.6200  173.4070  136.2890 N   0  0  0  0  0  2  0  0  0  0  0  0
  190.4610  175.4440  137.5890 S   0  0  0  0  0  0  0  0  0  0  0  0
  186.7390  178.4870  144.5770 O   0  0  0  0  0  0  0  0  0  0  0  0
  188.0150  177.4340  146.3350 C   0  0  0  0  0  1  0  0  0  0  0  0
  187.2920  177.2460  145.0110 C   0  0  2  0  0  3  0  0  0  0  0  0
  187.8920  175.8200  143.2260 O   0  0  0  0  0  0  0  0  0  0  0  0
  188.2380  176.7160  143.9820 C   0  0  0  0  0  0  0  0  0  0  0  0
  189.6000  177.3180  143.8600 C   0  0  0  0  0  2  0  0  0  0  0  0
  190.3560  176.7420  142.6690 C   0  0  0  0  0  2  0  0  0  0  0  0
  191.8480  177.4960  141.0320 C   0  0  0  0  0  1  0  0  0  0  0  0
  190.5570  177.7560  141.6450 N   0  0  0  0  0  0  0  0  0  0  0  0
  189.5580  177.5150  140.6210 C   0  0  0  0  0  1  0  0  0  0  0  0
  1  8  1  0  0  0  0
  2  9  2  0  0  0  0
  2  8  1  0  0  0  0
  3 10  1  0  0  0  0
  4  5  2  0  0  0  0
  5 32  1  0  0  0  0
  5  7  1  0  0  0  0
  6  4  1  0  0  0  0
  6 10  2  0  0  0  0
  8  3  2  0  0  0  0
  9  6  1  0  0  0  0
 10 11  1  0  0  0  0
 11  7  2  0  0  0  0
 12  9  1  0  0  0  0
 13 12  1  0  0  0  0
 14 15  1  0  0  0  0
 15 13  1  6  0  0  0
 16 22  1  1  0  0  0
 16 15  1  0  0  0  0
 18 17  1  6  0  0  0
 18 19  1  0  0  0  0
 18 16  1  0  0  0  0
 19 14  1  0  0  0  0
 20 25  1  0  0  0  0
 20 21  2  0  0  0  0
 22 25  1  0  0  0  0
 23 22  2  0  0  0  0
 25 24  1  0  0  0  0
 26 29  1  0  0  0  0
 26 27  1  0  0  0  0
 27 30  2  0  0  0  0
 27 31  1  0  0  0  0
 28 20  1  1  0  0  0
 28 31  1  0  0  0  0
 29 28  1  0  0  0  0
 32 34  1  0  0  0  0
 34 33  1  1  0  0  0
 35 36  2  0  0  0  0
 36 34  1  0  0  0  0
 37 36  1  0  0  0  0
 38 37  1  0  0  0  0
 39 40  1  0  0  0  0
 40 38  1  0  0  0  0
 41 40  1  0  0  0  0
M  END
>  <MODEL>
8

>  <REMARK>
 VINA RESULT:      -7.9      2.988      6.633
  Name = 
  11 active torsions:
  status: ('A' for Active; 'I' for Inactive)
    1  A    between atoms: C_4  and  N_9
    2  A    between atoms: C_4  and  C_18
    3  A    between atoms: C_6  and  C_25
    4  A    between atoms: C_7  and  N_16
    5  A    between atoms: C_7  and  C_29
    6  A    between atoms: N_9  and  C_30
    7  A    between atoms: C_13  and  C_29
    8  A    between atoms: C_13  and  C_39
    9  A    between atoms: C_17  and  O_33
   10  A    between atoms: C_19  and  C_34
   11  A    between atoms: O_33  and  C_39
                            x       y       z     vdW  Elec       q    Type
                         _______ _______ _______ _____ _____    ______ ____

>  <TORSDO>
F 11

$$$$
=
 OpenBabel10222420363D

 41 44  0  0  1  0  0  0  0  0999 V2000
  186.7050  177.4600  146.7960 O   0  0  0  0  0  1  0  0  0  0  0  0
  185.5410  178.2930  144.8560 C   0  0  0  0  0  3  0  0  0  0  0  0
  187.8170  177.4930  144.6580 C   0  0  0  0  0  3  0  0  0  0  0  0
  186.6420  178.5590  141.3530 N   0  0  0  0  0  0  0  0  0  0  0  0
  187.7260  178.3060  140.5680 C   0  0  0  0  0  0  0  0  0  0  0  0
  186.6390  178.3170  142.6910 C   0  0  0  0  0  0  0  0  0  0  0  0
  188.8880  177.7820  141.1370 C   0  0  0  0  0  3  0  0  0  0  0  0
  186.6890  177.7480  145.4380 C   0  0  0  0  0  0  0  0  0  0  0  0
  185.4990  178.5910  143.4890 C   0  0  0  0  0  0  0  0  0  0  0  0
  187.7980  177.7740  143.2920 C   0  0  0  0  0  0  0  0  0  0  0  0
  188.9210  177.5130  142.5050 C   0  0  0  0  0  3  0  0  0  0  0  0
  184.2890  179.1590  142.9650 N   0  0  0  0  0  2  0  0  0  0  0  0
  183.0680  179.3740  143.7250 C   0  0  0  0  0  2  0  0  0  0  0  0
  180.7900  178.6650  143.9280 O   0  0  0  0  0  0  0  0  0  0  0  0
  181.9240  178.6050  143.0950 C   0  0  1  0  0  3  0  0  0  0  0  0
  181.5950  179.2100  141.7460 C   0  0  2  0  0  3  0  0  0  0  0  0
  179.9710  180.8850  141.3560 O   0  0  0  0  0  1  0  0  0  0  0  0
  180.1530  179.5930  141.8480 C   0  0  2  0  0  3  0  0  0  0  0  0
  179.8980  179.5730  143.3300 C   0  0  0  0  0  2  0  0  0  0  0  0
  183.1320  177.5950  138.5540 C   0  0  0  0  0  0  0  0  0  0  0  0
  184.0450  177.9120  137.7430 O   0  0  0  0  0  0  0  0  0  0  0  0
  181.8180  178.2200  140.6420 C   0  0  0  0  0  0  0  0  0  0  0  0
  181.1060  177.1800  140.5930 O   0  0  0  0  0  0  0  0  0  0  0  0
  183.6120  179.5790  139.8090 O   0  0  0  0  0  1  0  0  0  0  0  0
  182.8500  178.4660  139.6670 N   0  0  0  0  0  0  0  0  0  0  0  0
  181.1180  175.1770  136.6300 N   0  0  0  0  0  2  0  0  0  0  0  0
  182.1460  174.2550  136.9490 C   0  0  0  0  0  0  0  0  0  0  0  0
  182.3530  176.3400  138.3110 C   0  0  1  0  0  3  0  0  0  0  0  0
  181.3910  176.5060  137.1390 C   0  0  0  0  0  2  0  0  0  0  0  0
  181.9080  172.9870  136.9250 N   0  0  0  0  0  2  0  0  0  0  0  0
  183.4480  174.9170  137.9660 S   0  0  0  0  0  0  0  0  0  0  0  0
  187.6840  178.5620  139.1960 O   0  0  0  0  0  0  0  0  0  0  0  0
  189.0570  179.2170  137.3220 C   0  0  0  0  0  1  0  0  0  0  0  0
  188.7060  178.1150  138.3080 C   0  0  2  0  0  3  0  0  0  0  0  0
  187.0620  176.7150  137.3490 O   0  0  0  0  0  0  0  0  0  0  0  0
  188.2500  176.8960  137.5710 C   0  0  0  0  0  0  0  0  0  0  0  0
  189.2650  175.9190  137.0730 C   0  0  0  0  0  2  0  0  0  0  0  0
  190.4030  175.7440  138.0710 C   0  0  0  0  0  2  0  0  0  0  0  0
  190.2660  173.6670  137.0020 C   0  0  0  0  0  1  0  0  0  0  0  0
  191.1240  174.5060  137.8210 N   0  0  0  0  0  0  0  0  0  0  0  0
  192.2700  174.8510  137.0000 C   0  0  0  0  0  1  0  0  0  0  0  0
  2  8  1  0  0  0  0
  3  8  2  0  0  0  0
  4  6  1  0  0  0  0
  5  7  1  0  0  0  0
  5  4  2  0  0  0  0
  6 10  2  0  0  0  0
  6  9  1  0  0  0  0
  7 11  2  0  0  0  0
  8  1  1  0  0  0  0
  9  2  2  0  0  0  0
 10  3  1  0  0  0  0
 11 10  1  0  0  0  0
 12  9  1  0  0  0  0
 12 13  1  0  0  0  0
 15 13  1  1  0  0  0
 15 14  1  0  0  0  0
 16 22  1  6  0  0  0
 16 18  1  0  0  0  0
 16 15  1  0  0  0  0
 18 17  1  1  0  0  0
 18 19  1  0  0  0  0
 19 14  1  0  0  0  0
 20 25  1  0  0  0  0
 21 20  2  0  0  0  0
 23 22  2  0  0  0  0
 25 24  1  0  0  0  0
 25 22  1  0  0  0  0
 26 27  1  0  0  0  0
 26 29  1  0  0  0  0
 27 31  1  0  0  0  0
 28 20  1  6  0  0  0
 29 28  1  0  0  0  0
 30 27  2  0  0  0  0
 31 28  1  0  0  0  0
 32  5  1  0  0  0  0
 34 33  1  6  0  0  0
 34 32  1  0  0  0  0
 35 36  2  0  0  0  0
 36 34  1  0  0  0  0
 37 36  1  0  0  0  0
 37 38  1  0  0  0  0
 39 40  1  0  0  0  0
 40 38  1  0  0  0  0
 41 40  1  0  0  0  0
M  END
>  <MODEL>
9

>  <REMARK>
 VINA RESULT:      -7.9      3.371      8.319
  Name = 
  11 active torsions:
  status: ('A' for Active; 'I' for Inactive)
    1  A    between atoms: C_4  and  N_9
    2  A    between atoms: C_4  and  C_18
    3  A    between atoms: C_6  and  C_25
    4  A    between atoms: C_7  and  N_16
    5  A    between atoms: C_7  and  C_29
    6  A    between atoms: N_9  and  C_30
    7  A    between atoms: C_13  and  C_29
    8  A    between atoms: C_13  and  C_39
    9  A    between atoms: C_17  and  O_33
   10  A    between atoms: C_19  and  C_34
   11  A    between atoms: O_33  and  C_39
                            x       y       z     vdW  Elec       q    Type
                         _______ _______ _______ _____ _____    ______ ____

>  <TORSDO>
F 11

$$$$
