=
 OpenBabel10222417553D

 33 36  0  0  1  0  0  0  0  0999 V2000
  186.0040  178.3480  144.8500 C   0  0  0  0  0  2  0  0  0  0  0  0
  186.4490  178.1680  142.0500 C   0  0  0  0  0  3  0  0  0  0  0  0
  188.8500  178.1380  142.5740 C   0  0  2  0  0  3  0  0  0  0  0  0
  187.2710  178.1720  144.4550 C   0  0  0  0  0  0  0  0  0  0  0  0
  187.8480  177.2650  146.6840 O   0  0  0  0  0  1  0  0  0  0  0  0
  183.3820  178.9480  145.5890 O   0  0  0  0  0  0  0  0  0  0  0  0
  187.5780  178.1740  143.0010 C   0  0  0  0  0  0  0  0  0  0  0  0
  190.1730  178.6060  143.6930 S   0  0  0  0  0  0  0  0  0  0  0  0
  185.2060  178.3590  142.4920 C   0  0  0  0  0  3  0  0  0  0  0  0
  188.2810  177.7070  145.4350 C   0  0  1  0  0  3  0  0  0  0  0  0
  183.6130  178.8260  144.3550 C   0  0  0  0  0  0  0  0  0  0  0  0
  189.5860  177.6430  145.1020 C   0  0  2  0  0  3  0  0  0  0  0  0
  184.9450  178.5460  143.8950 N   0  0  0  0  0  0  0  0  0  0  0  0
  192.5160  175.5850  147.4820 C   0  0  0  0  0  3  0  0  0  0  0  0
  190.7550  177.2310  147.2770 C   0  0  0  0  0  3  0  0  0  0  0  0
  192.3690  175.2610  146.1320 C   0  0  0  0  0  3  0  0  0  0  0  0
  191.4130  175.9220  145.3550 C   0  0  0  0  0  3  0  0  0  0  0  0
  191.7100  176.5710  148.0550 C   0  0  0  0  0  3  0  0  0  0  0  0
  190.5870  176.9090  145.9210 C   0  0  0  0  0  0  0  0  0  0  0  0
  190.0190  176.8480  140.7500 C   0  0  0  0  0  0  0  0  0  0  0  0
  190.4400  175.9780  141.5590 O   0  0  0  0  0  0  0  0  0  0  0  0
  189.1810  177.9160  141.1990 N   0  0  0  0  0  2  0  0  0  0  0  0
  190.3520  176.7330  139.3020 C   0  0  0  0  0  2  0  0  0  0  0  0
  188.9030  175.9310  137.5780 O   0  0  0  0  0  0  0  0  0  0  0  0
  189.1280  177.0100  138.4430 C   0  0  2  0  0  3  0  0  0  0  0  0
  188.2390  176.4810  136.4730 C   0  0  0  0  0  2  0  0  0  0  0  0
  189.3330  178.2540  137.6050 C   0  0  0  0  0  2  0  0  0  0  0  0
  188.7190  177.9010  136.2850 C   0  0  0  0  0  2  0  0  0  0  0  0
  182.4760  178.9550  143.3960 C   0  0  0  0  0  2  0  0  0  0  0  0
  181.1680  178.6650  144.1060 C   0  0  0  0  0  2  0  0  0  0  0  0
  179.9790  180.5130  142.8700 N   0  0  0  0  0  1  0  0  0  0  0  0
  180.0280  179.1520  143.2820 C   0  0  0  0  0  0  0  0  0  0  0  0
  179.0930  178.3680  142.9760 O   0  0  0  0  0  0  0  0  0  0  0  0
  2  9  2  0  0  0  0
  2  7  1  0  0  0  0
  3 22  1  6  0  0  0
  3  7  1  0  0  0  0
  3  8  1  0  0  0  0
  4  1  1  0  0  0  0
  4 10  1  0  0  0  0
  7  4  2  0  0  0  0
  8 12  1  0  0  0  0
  9 13  1  0  0  0  0
 10  5  1  6  0  0  0
 11  6  2  0  0  0  0
 12 10  1  0  0  0  0
 12 19  1  1  0  0  0
 13 11  1  0  0  0  0
 13  1  1  0  0  0  0
 14 18  1  0  0  0  0
 15 18  2  0  0  0  0
 16 14  2  0  0  0  0
 17 19  2  0  0  0  0
 17 16  1  0  0  0  0
 19 15  1  0  0  0  0
 20 22  1  0  0  0  0
 20 21  2  0  0  0  0
 23 20  1  0  0  0  0
 24 25  1  0  0  0  0
 25 23  1  6  0  0  0
 26 24  1  0  0  0  0
 27 25  1  0  0  0  0
 28 26  1  0  0  0  0
 28 27  1  0  0  0  0
 29 30  1  0  0  0  0
 29 11  1  0  0  0  0
 31 32  1  0  0  0  0
 32 30  1  0  0  0  0
 33 32  2  0  0  0  0
M  END
>  <MODEL>
1

>  <REMARK>
 VINA RESULT:      -8.9      0.000      0.000
  Name = 
  7 active torsions:
  status: ('A' for Active; 'I' for Inactive)
    1  A    between atoms: C_2  and  C_18
    2  A    between atoms: C_8  and  N_30
    3  A    between atoms: C_9  and  C_21
    4  A    between atoms: C_9  and  C_28
    5  A    between atoms: C_15  and  C_21
    6  A    between atoms: C_18  and  C_19
    7  A    between atoms: C_25  and  C_31
                            x       y       z     vdW  Elec       q    Type
                         _______ _______ _______ _____ _____    ______ ____

>  <TORSDO>
F 7

$$$$
=
 OpenBabel10222417553D

 33 36  0  0  1  0  0  0  0  0999 V2000
  188.9920  178.0930  141.8710 C   0  0  0  0  0  2  0  0  0  0  0  0
  186.7810  177.8060  143.6310 C   0  0  0  0  0  3  0  0  0  0  0  0
  185.3580  178.3870  141.7130 C   0  0  2  0  0  3  0  0  0  0  0  0
  187.7750  178.1920  141.3240 C   0  0  0  0  0  0  0  0  0  0  0  0
  188.7160  177.6240  139.1070 O   0  0  0  0  0  1  0  0  0  0  0  0
  191.4900  178.1090  143.1120 O   0  0  0  0  0  0  0  0  0  0  0  0
  186.5830  178.1530  142.2110 C   0  0  0  0  0  0  0  0  0  0  0  0
  185.1870  179.2400  140.1440 S   0  0  0  0  0  0  0  0  0  0  0  0
  188.0140  177.7300  144.1310 C   0  0  0  0  0  3  0  0  0  0  0  0
  187.6230  178.0570  139.8560 C   0  0  1  0  0  3  0  0  0  0  0  0
  190.4850  177.9510  143.8560 C   0  0  0  0  0  0  0  0  0  0  0  0
  186.4330  178.2780  139.2630 C   0  0  2  0  0  3  0  0  0  0  0  0
  189.1620  177.9590  143.2940 N   0  0  0  0  0  0  0  0  0  0  0  0
  185.5930  177.1650  135.1950 C   0  0  0  0  0  3  0  0  0  0  0  0
  186.9250  178.3770  136.8100 C   0  0  0  0  0  3  0  0  0  0  0  0
  184.8020  176.6600  136.2300 C   0  0  0  0  0  3  0  0  0  0  0  0
  185.0750  177.0130  137.5540 C   0  0  0  0  0  3  0  0  0  0  0  0
  186.6540  178.0260  135.4850 C   0  0  0  0  0  3  0  0  0  0  0  0
  186.1470  177.8690  137.8620 C   0  0  0  0  0  0  0  0  0  0  0  0
  183.6930  179.0270  143.4960 C   0  0  0  0  0  0  0  0  0  0  0  0
  184.2590  180.1330  143.7060 O   0  0  0  0  0  0  0  0  0  0  0  0
  184.1720  178.1430  142.4780 N   0  0  0  0  0  2  0  0  0  0  0  0
  182.4790  178.6580  144.2780 C   0  0  0  0  0  2  0  0  0  0  0  0
  181.0170  180.1250  143.0840 O   0  0  0  0  0  0  0  0  0  0  0  0
  181.2270  178.7820  143.4240 C   0  0  2  0  0  3  0  0  0  0  0  0
  179.6340  180.2390  142.8850 C   0  0  0  0  0  2  0  0  0  0  0  0
  180.0130  178.2890  144.1800 C   0  0  0  0  0  2  0  0  0  0  0  0
  178.9370  179.2620  143.8030 C   0  0  0  0  0  2  0  0  0  0  0  0
  190.7000  177.7310  145.3180 C   0  0  0  0  0  2  0  0  0  0  0  0
  191.5820  176.5150  145.5310 C   0  0  0  0  0  2  0  0  0  0  0  0
  192.8110  175.4110  147.4350 N   0  0  0  0  0  1  0  0  0  0  0  0
  191.7810  176.2850  146.9870 C   0  0  0  0  0  0  0  0  0  0  0  0
  191.0200  176.8390  147.8220 O   0  0  0  0  0  0  0  0  0  0  0  0
  1 13  1  0  0  0  0
  2  9  2  0  0  0  0
  3  7  1  0  0  0  0
  3 22  1  1  0  0  0
  4  1  1  0  0  0  0
  4  7  2  0  0  0  0
  6 11  2  0  0  0  0
  7  2  1  0  0  0  0
  8  3  1  0  0  0  0
 10  5  1  1  0  0  0
 10  4  1  0  0  0  0
 11 29  1  0  0  0  0
 12 19  1  6  0  0  0
 12 10  1  0  0  0  0
 12  8  1  0  0  0  0
 13 11  1  0  0  0  0
 13  9  1  0  0  0  0
 14 18  2  0  0  0  0
 14 16  1  0  0  0  0
 15 19  2  0  0  0  0
 16 17  2  0  0  0  0
 17 19  1  0  0  0  0
 18 15  1  0  0  0  0
 20 21  2  0  0  0  0
 20 23  1  0  0  0  0
 22 20  1  0  0  0  0
 24 25  1  0  0  0  0
 25 27  1  0  0  0  0
 25 23  1  1  0  0  0
 26 24  1  0  0  0  0
 26 28  1  0  0  0  0
 28 27  1  0  0  0  0
 29 30  1  0  0  0  0
 30 32  1  0  0  0  0
 32 31  1  0  0  0  0
 32 33  2  0  0  0  0
M  END
>  <MODEL>
2

>  <REMARK>
 VINA RESULT:      -8.0      2.584      9.206
  Name = 
  7 active torsions:
  status: ('A' for Active; 'I' for Inactive)
    1  A    between atoms: C_2  and  C_18
    2  A    between atoms: C_8  and  N_30
    3  A    between atoms: C_9  and  C_21
    4  A    between atoms: C_9  and  C_28
    5  A    between atoms: C_15  and  C_21
    6  A    between atoms: C_18  and  C_19
    7  A    between atoms: C_25  and  C_31
                            x       y       z     vdW  Elec       q    Type
                         _______ _______ _______ _____ _____    ______ ____

>  <TORSDO>
F 7

$$$$
=
 OpenBabel10222417553D

 33 36  0  0  1  0  0  0  0  0999 V2000
  189.4950  177.4690  141.1730 C   0  0  0  0  0  2  0  0  0  0  0  0
  186.8710  178.4880  140.7890 C   0  0  0  0  0  3  0  0  0  0  0  0
  186.4230  177.8240  143.1130 C   0  0  2  0  0  3  0  0  0  0  0  0
  188.6990  177.4930  142.2490 C   0  0  0  0  0  0  0  0  0  0  0  0
  190.6810  177.4450  143.7280 O   0  0  0  0  0  1  0  0  0  0  0  0
  191.0170  177.2300  138.8480 O   0  0  0  0  0  0  0  0  0  0  0  0
  187.2840  177.9190  142.0860 C   0  0  0  0  0  0  0  0  0  0  0  0
  186.8000  176.7330  144.4870 S   0  0  0  0  0  0  0  0  0  0  0  0
  187.6970  178.4300  139.7440 C   0  0  0  0  0  3  0  0  0  0  0  0
  189.2950  177.3710  143.6000 C   0  0  1  0  0  3  0  0  0  0  0  0
  189.8580  177.7100  138.7240 C   0  0  0  0  0  0  0  0  0  0  0  0
  188.5120  177.2640  144.6920 C   0  0  2  0  0  3  0  0  0  0  0  0
  189.0030  177.8380  139.8720 N   0  0  0  0  0  0  0  0  0  0  0  0
  190.0150  177.8590  148.6770 C   0  0  0  0  0  3  0  0  0  0  0  0
  188.2350  178.0580  147.0500 C   0  0  0  0  0  3  0  0  0  0  0  0
  190.8260  177.2560  147.7130 C   0  0  0  0  0  3  0  0  0  0  0  0
  190.3400  177.0540  146.4180 C   0  0  0  0  0  3  0  0  0  0  0  0
  188.7190  178.2620  148.3450 C   0  0  0  0  0  3  0  0  0  0  0  0
  189.0340  177.4440  146.0730 C   0  0  0  0  0  0  0  0  0  0  0  0
  184.5530  179.1570  144.1550 C   0  0  0  0  0  0  0  0  0  0  0  0
  185.2250  179.3920  145.1950 O   0  0  0  0  0  0  0  0  0  0  0  0
  185.1240  178.4230  143.0670 N   0  0  0  0  0  2  0  0  0  0  0  0
  183.1690  179.6950  144.0330 C   0  0  0  0  0  2  0  0  0  0  0  0
  182.0490  179.0250  142.0290 O   0  0  0  0  0  0  0  0  0  0  0  0
  182.2500  178.6790  143.3720 C   0  0  2  0  0  3  0  0  0  0  0  0
  180.7980  178.4880  141.6970 C   0  0  0  0  0  2  0  0  0  0  0  0
  180.9030  178.6480  144.0600 C   0  0  0  0  0  2  0  0  0  0  0  0
  179.9280  178.5030  142.9320 C   0  0  0  0  0  2  0  0  0  0  0  0
  189.4090  178.1610  137.3730 C   0  0  0  0  0  2  0  0  0  0  0  0
  189.1660  176.9580  136.4820 C   0  0  0  0  0  2  0  0  0  0  0  0
  186.6680  177.2330  136.2820 N   0  0  0  0  0  1  0  0  0  0  0  0
  187.7840  176.4480  136.6880 C   0  0  0  0  0  0  0  0  0  0  0  0
  187.5990  175.3360  137.2470 O   0  0  0  0  0  0  0  0  0  0  0  0
  1  4  1  0  0  0  0
  2  7  1  0  0  0  0
  3 22  1  6  0  0  0
  3  8  1  0  0  0  0
  4 10  1  0  0  0  0
  7  4  2  0  0  0  0
  7  3  1  0  0  0  0
  8 12  1  0  0  0  0
  9 13  1  0  0  0  0
  9  2  2  0  0  0  0
 10  5  1  1  0  0  0
 10 12  1  0  0  0  0
 11  6  2  0  0  0  0
 11 13  1  0  0  0  0
 12 19  1  1  0  0  0
 13  1  1  0  0  0  0
 15 18  2  0  0  0  0
 16 14  2  0  0  0  0
 17 16  1  0  0  0  0
 18 14  1  0  0  0  0
 19 17  2  0  0  0  0
 19 15  1  0  0  0  0
 20 21  2  0  0  0  0
 22 20  1  0  0  0  0
 23 20  1  0  0  0  0
 24 25  1  0  0  0  0
 25 23  1  1  0  0  0
 25 27  1  0  0  0  0
 26 24  1  0  0  0  0
 26 28  1  0  0  0  0
 28 27  1  0  0  0  0
 29 11  1  0  0  0  0
 30 32  1  0  0  0  0
 30 29  1  0  0  0  0
 31 32  1  0  0  0  0
 32 33  2  0  0  0  0
M  END
>  <MODEL>
3

>  <REMARK>
 VINA RESULT:      -7.7      1.930      6.880
  Name = 
  7 active torsions:
  status: ('A' for Active; 'I' for Inactive)
    1  A    between atoms: C_2  and  C_18
    2  A    between atoms: C_8  and  N_30
    3  A    between atoms: C_9  and  C_21
    4  A    between atoms: C_9  and  C_28
    5  A    between atoms: C_15  and  C_21
    6  A    between atoms: C_18  and  C_19
    7  A    between atoms: C_25  and  C_31
                            x       y       z     vdW  Elec       q    Type
                         _______ _______ _______ _____ _____    ______ ____

>  <TORSDO>
F 7

$$$$
=
 OpenBabel10222417553D

 33 36  0  0  1  0  0  0  0  0999 V2000
  185.6740  178.5260  144.6620 C   0  0  0  0  0  2  0  0  0  0  0  0
  186.0650  178.4580  141.8480 C   0  0  0  0  0  3  0  0  0  0  0  0
  188.4750  178.3970  142.3260 C   0  0  2  0  0  3  0  0  0  0  0  0
  186.9320  178.3610  144.2360 C   0  0  0  0  0  0  0  0  0  0  0  0
  187.5470  177.3630  146.4150 O   0  0  0  0  0  1  0  0  0  0  0  0
  183.0690  179.1050  145.4740 O   0  0  0  0  0  0  0  0  0  0  0  0
  187.2110  178.4210  142.7770 C   0  0  0  0  0  0  0  0  0  0  0  0
  189.8210  178.8140  143.4370 S   0  0  0  0  0  0  0  0  0  0  0  0
  184.8310  178.6350  142.3220 C   0  0  0  0  0  3  0  0  0  0  0  0
  187.9590  177.8530  145.1770 C   0  0  1  0  0  3  0  0  0  0  0  0
  183.2760  179.0330  144.2330 C   0  0  0  0  0  0  0  0  0  0  0  0
  189.2560  177.7970  144.8160 C   0  0  2  0  0  3  0  0  0  0  0  0
  184.5980  178.7660  143.7360 N   0  0  0  0  0  0  0  0  0  0  0  0
  192.2170  175.6340  147.0630 C   0  0  0  0  0  3  0  0  0  0  0  0
  190.3650  177.1900  146.9770 C   0  0  0  0  0  3  0  0  0  0  0  0
  192.1410  175.4710  145.6780 C   0  0  0  0  0  3  0  0  0  0  0  0
  191.1760  176.1660  144.9440 C   0  0  0  0  0  3  0  0  0  0  0  0
  191.3300  176.4960  147.7130 C   0  0  0  0  0  3  0  0  0  0  0  0
  190.2690  177.0270  145.5860 C   0  0  0  0  0  0  0  0  0  0  0  0
  189.3750  177.0480  140.3940 C   0  0  0  0  0  0  0  0  0  0  0  0
  189.5810  176.0400  141.1220 O   0  0  0  0  0  0  0  0  0  0  0  0
  188.7780  178.2300  140.9360 N   0  0  0  0  0  2  0  0  0  0  0  0
  189.7050  176.9900  138.9430 C   0  0  0  0  0  2  0  0  0  0  0  0
  192.0780  177.0820  139.2240 O   0  0  0  0  0  0  0  0  0  0  0  0
  191.0380  176.2920  138.7180 C   0  0  2  0  0  3  0  0  0  0  0  0
  193.2050  176.7310  138.4670 C   0  0  0  0  0  2  0  0  0  0  0  0
  191.2840  176.0710  137.2420 C   0  0  0  0  0  2  0  0  0  0  0  0
  192.7470  176.3520  137.0780 C   0  0  0  0  0  2  0  0  0  0  0  0
  182.1220  179.2040  143.3010 C   0  0  0  0  0  2  0  0  0  0  0  0
  180.9680  178.3260  143.7440 C   0  0  0  0  0  2  0  0  0  0  0  0
  179.4500  177.6000  141.8660 N   0  0  0  0  0  1  0  0  0  0  0  0
  179.7910  178.5570  142.8630 C   0  0  0  0  0  0  0  0  0  0  0  0
  179.1150  179.6110  142.9800 O   0  0  0  0  0  0  0  0  0  0  0  0
  2  9  2  0  0  0  0
  2  7  1  0  0  0  0
  3 22  1  6  0  0  0
  3  7  1  0  0  0  0
  3  8  1  0  0  0  0
  4  1  1  0  0  0  0
  4 10  1  0  0  0  0
  7  4  2  0  0  0  0
  8 12  1  0  0  0  0
  9 13  1  0  0  0  0
 10  5  1  6  0  0  0
 11  6  2  0  0  0  0
 12 10  1  0  0  0  0
 12 19  1  1  0  0  0
 13 11  1  0  0  0  0
 13  1  1  0  0  0  0
 14 18  1  0  0  0  0
 15 18  2  0  0  0  0
 16 14  2  0  0  0  0
 17 19  2  0  0  0  0
 17 16  1  0  0  0  0
 19 15  1  0  0  0  0
 20 22  1  0  0  0  0
 20 21  2  0  0  0  0
 23 20  1  0  0  0  0
 25 23  1  6  0  0  0
 25 24  1  0  0  0  0
 26 24  1  0  0  0  0
 27 25  1  0  0  0  0
 28 27  1  0  0  0  0
 28 26  1  0  0  0  0
 29 30  1  0  0  0  0
 29 11  1  0  0  0  0
 31 32  1  0  0  0  0
 32 33  2  0  0  0  0
 32 30  1  0  0  0  0
M  END
>  <MODEL>
4

>  <REMARK>
 VINA RESULT:      -7.7      1.288      1.689
  Name = 
  7 active torsions:
  status: ('A' for Active; 'I' for Inactive)
    1  A    between atoms: C_2  and  C_18
    2  A    between atoms: C_8  and  N_30
    3  A    between atoms: C_9  and  C_21
    4  A    between atoms: C_9  and  C_28
    5  A    between atoms: C_15  and  C_21
    6  A    between atoms: C_18  and  C_19
    7  A    between atoms: C_25  and  C_31
                            x       y       z     vdW  Elec       q    Type
                         _______ _______ _______ _____ _____    ______ ____

>  <TORSDO>
F 7

$$$$
=
 OpenBabel10222417553D

 33 36  0  0  1  0  0  0  0  0999 V2000
  186.5440  178.6270  140.7140 C   0  0  0  0  0  2  0  0  0  0  0  0
  187.7120  177.4630  143.0280 C   0  0  0  0  0  3  0  0  0  0  0  0
  185.7180  178.2230  144.2460 C   0  0  2  0  0  3  0  0  0  0  0  0
  185.7960  178.6190  141.8230 C   0  0  0  0  0  0  0  0  0  0  0  0
  183.7470  178.8400  140.4530 O   0  0  0  0  0  1  0  0  0  0  0  0
  188.2410  178.8200  138.5090 O   0  0  0  0  0  0  0  0  0  0  0  0
  186.3910  178.1170  143.0900 C   0  0  0  0  0  0  0  0  0  0  0  0
  184.3700  179.4000  144.3830 S   0  0  0  0  0  0  0  0  0  0  0  0
  188.4240  177.5080  141.9020 C   0  0  0  0  0  3  0  0  0  0  0  0
  184.3340  178.8400  141.7170 C   0  0  1  0  0  3  0  0  0  0  0  0
  188.7130  178.2780  139.5460 C   0  0  0  0  0  0  0  0  0  0  0  0
  183.5730  178.9650  142.8230 C   0  0  2  0  0  3  0  0  0  0  0  0
  187.9090  178.1670  140.7320 N   0  0  0  0  0  0  0  0  0  0  0  0
  179.2850  178.6530  142.7470 C   0  0  0  0  0  3  0  0  0  0  0  0
  181.3730  178.6280  143.9690 C   0  0  0  0  0  3  0  0  0  0  0  0
  179.9840  178.8940  141.5620 C   0  0  0  0  0  3  0  0  0  0  0  0
  181.3770  179.0030  141.5830 C   0  0  0  0  0  3  0  0  0  0  0  0
  179.9800  178.5180  143.9520 C   0  0  0  0  0  3  0  0  0  0  0  0
  182.0890  178.8810  142.7890 C   0  0  0  0  0  0  0  0  0  0  0  0
  186.5860  178.2510  146.6140 C   0  0  0  0  0  0  0  0  0  0  0  0
  186.5130  179.5070  146.6850 O   0  0  0  0  0  0  0  0  0  0  0  0
  186.1540  177.5600  145.4380 N   0  0  0  0  0  2  0  0  0  0  0  0
  187.0770  177.4720  147.7860 C   0  0  0  0  0  2  0  0  0  0  0  0
  189.4020  177.5800  148.3320 O   0  0  0  0  0  0  0  0  0  0  0  0
  188.4690  176.9190  147.5230 C   0  0  2  0  0  3  0  0  0  0  0  0
  190.6140  177.5000  147.6320 C   0  0  0  0  0  2  0  0  0  0  0  0
  188.8630  177.1270  146.0770 C   0  0  0  0  0  2  0  0  0  0  0  0
  190.3120  177.5020  146.1520 C   0  0  0  0  0  2  0  0  0  0  0  0
  190.1040  177.7370  139.5040 C   0  0  0  0  0  2  0  0  0  0  0  0
  190.3810  177.1320  138.1410 C   0  0  0  0  0  2  0  0  0  0  0  0
  192.8200  176.5020  138.2220 N   0  0  0  0  0  1  0  0  0  0  0  0
  191.4530  176.1070  138.2520 C   0  0  0  0  0  0  0  0  0  0  0  0
  191.1520  174.8890  138.3420 O   0  0  0  0  0  0  0  0  0  0  0  0
  1 13  1  0  0  0  0
  1  4  1  0  0  0  0
  2  7  1  0  0  0  0
  3  8  1  0  0  0  0
  3 22  1  1  0  0  0
  4  7  2  0  0  0  0
  6 11  2  0  0  0  0
  7  3  1  0  0  0  0
  9  2  2  0  0  0  0
 10  5  1  1  0  0  0
 10  4  1  0  0  0  0
 10 12  1  0  0  0  0
 11 13  1  0  0  0  0
 12 19  1  6  0  0  0
 12  8  1  0  0  0  0
 13  9  1  0  0  0  0
 14 18  1  0  0  0  0
 16 17  1  0  0  0  0
 16 14  2  0  0  0  0
 17 19  2  0  0  0  0
 18 15  2  0  0  0  0
 19 15  1  0  0  0  0
 20 21  2  0  0  0  0
 20 23  1  0  0  0  0
 22 20  1  0  0  0  0
 25 23  1  6  0  0  0
 25 24  1  0  0  0  0
 26 24  1  0  0  0  0
 27 28  1  0  0  0  0
 27 25  1  0  0  0  0
 28 26  1  0  0  0  0
 29 11  1  0  0  0  0
 30 32  1  0  0  0  0
 30 29  1  0  0  0  0
 31 32  1  0  0  0  0
 32 33  2  0  0  0  0
M  END
>  <MODEL>
5

>  <REMARK>
 VINA RESULT:      -7.7      2.566      9.030
  Name = 
  7 active torsions:
  status: ('A' for Active; 'I' for Inactive)
    1  A    between atoms: C_2  and  C_18
    2  A    between atoms: C_8  and  N_30
    3  A    between atoms: C_9  and  C_21
    4  A    between atoms: C_9  and  C_28
    5  A    between atoms: C_15  and  C_21
    6  A    between atoms: C_18  and  C_19
    7  A    between atoms: C_25  and  C_31
                            x       y       z     vdW  Elec       q    Type
                         _______ _______ _______ _____ _____    ______ ____

>  <TORSDO>
F 7

$$$$
=
 OpenBabel10222417553D

 33 36  0  0  1  0  0  0  0  0999 V2000
  185.5840  177.9940  143.5160 C   0  0  0  0  0  2  0  0  0  0  0  0
  187.1610  178.5530  141.2190 C   0  0  0  0  0  3  0  0  0  0  0  0
  185.0540  178.5960  139.9550 C   0  0  2  0  0  3  0  0  0  0  0  0
  184.9210  178.2630  142.3850 C   0  0  0  0  0  0  0  0  0  0  0  0
  182.9200  178.8910  143.6980 O   0  0  0  0  0  1  0  0  0  0  0  0
  187.0260  177.2140  145.7730 O   0  0  0  0  0  0  0  0  0  0  0  0
  185.6910  178.4610  141.1290 C   0  0  0  0  0  0  0  0  0  0  0  0
  183.3570  178.0310  139.7980 S   0  0  0  0  0  0  0  0  0  0  0  0
  187.7760  178.2640  142.3660 C   0  0  0  0  0  3  0  0  0  0  0  0
  183.4860  178.6310  142.4520 C   0  0  1  0  0  3  0  0  0  0  0  0
  187.6920  177.5030  144.7420 C   0  0  0  0  0  0  0  0  0  0  0  0
  182.7610  178.7820  141.3260 C   0  0  2  0  0  3  0  0  0  0  0  0
  187.0200  177.8870  143.5310 N   0  0  0  0  0  0  0  0  0  0  0  0
  178.9310  180.7380  141.2730 C   0  0  0  0  0  3  0  0  0  0  0  0
  180.9010  179.9420  140.1150 C   0  0  0  0  0  3  0  0  0  0  0  0
  179.4440  180.2510  142.4770 C   0  0  0  0  0  3  0  0  0  0  0  0
  180.6850  179.6080  142.4980 C   0  0  0  0  0  3  0  0  0  0  0  0
  179.6610  180.5850  140.0910 C   0  0  0  0  0  3  0  0  0  0  0  0
  181.4250  179.4370  141.3150 C   0  0  0  0  0  0  0  0  0  0  0  0
  186.3070  178.0900  137.8260 C   0  0  0  0  0  0  0  0  0  0  0  0
  186.1450  176.8470  137.9600 O   0  0  0  0  0  0  0  0  0  0  0  0
  185.7380  179.0060  138.7660 N   0  0  0  0  0  2  0  0  0  0  0  0
  187.0510  178.6150  136.6460 C   0  0  0  0  0  2  0  0  0  0  0  0
  188.8140  177.0080  136.4850 O   0  0  0  0  0  0  0  0  0  0  0  0
  188.5420  178.3490  136.7850 C   0  0  2  0  0  3  0  0  0  0  0  0
  189.9770  176.7010  137.2060 C   0  0  0  0  0  2  0  0  0  0  0  0
  189.0040  178.6220  138.2000 C   0  0  0  0  0  2  0  0  0  0  0  0
  189.9830  177.5210  138.4750 C   0  0  0  0  0  2  0  0  0  0  0  0
  189.1830  177.4620  144.8160 C   0  0  0  0  0  2  0  0  0  0  0  0
  189.6210  177.1800  146.2400 C   0  0  0  0  0  2  0  0  0  0  0  0
  191.7600  176.7370  147.4980 N   0  0  0  0  0  1  0  0  0  0  0  0
  191.0590  176.8000  146.2610 C   0  0  0  0  0  0  0  0  0  0  0  0
  191.6630  176.5630  145.1830 O   0  0  0  0  0  0  0  0  0  0  0  0
  1 13  1  0  0  0  0
  2  9  2  0  0  0  0
  3 22  1  6  0  0  0
  3  7  1  0  0  0  0
  4 10  1  0  0  0  0
  4  1  1  0  0  0  0
  7  2  1  0  0  0  0
  7  4  2  0  0  0  0
  8  3  1  0  0  0  0
  8 12  1  0  0  0  0
  9 13  1  0  0  0  0
 10  5  1  6  0  0  0
 11 29  1  0  0  0  0
 11  6  2  0  0  0  0
 12 19  1  1  0  0  0
 12 10  1  0  0  0  0
 13 11  1  0  0  0  0
 14 16  1  0  0  0  0
 15 19  2  0  0  0  0
 16 17  2  0  0  0  0
 18 15  1  0  0  0  0
 18 14  2  0  0  0  0
 19 17  1  0  0  0  0
 20 21  2  0  0  0  0
 20 22  1  0  0  0  0
 23 20  1  0  0  0  0
 24 25  1  0  0  0  0
 24 26  1  0  0  0  0
 25 23  1  1  0  0  0
 25 27  1  0  0  0  0
 26 28  1  0  0  0  0
 27 28  1  0  0  0  0
 29 30  1  0  0  0  0
 30 32  1  0  0  0  0
 32 31  1  0  0  0  0
 33 32  2  0  0  0  0
M  END
>  <MODEL>
6

>  <REMARK>
 VINA RESULT:      -7.6      2.705      7.945
  Name = 
  7 active torsions:
  status: ('A' for Active; 'I' for Inactive)
    1  A    between atoms: C_2  and  C_18
    2  A    between atoms: C_8  and  N_30
    3  A    between atoms: C_9  and  C_21
    4  A    between atoms: C_9  and  C_28
    5  A    between atoms: C_15  and  C_21
    6  A    between atoms: C_18  and  C_19
    7  A    between atoms: C_25  and  C_31
                            x       y       z     vdW  Elec       q    Type
                         _______ _______ _______ _____ _____    ______ ____

>  <TORSDO>
F 7

$$$$
=
 OpenBabel10222417553D

 33 36  0  0  1  0  0  0  0  0999 V2000
  186.2040  178.1800  142.1300 C   0  0  0  0  0  2  0  0  0  0  0  0
  186.9720  178.0000  144.8600 C   0  0  0  0  0  3  0  0  0  0  0  0
  188.9330  176.7400  144.0810 C   0  0  2  0  0  3  0  0  0  0  0  0
  187.3970  177.6280  142.3810 C   0  0  0  0  0  0  0  0  0  0  0  0
  188.1320  178.1470  140.0770 O   0  0  0  0  0  1  0  0  0  0  0  0
  183.6150  179.1210  141.6950 O   0  0  0  0  0  0  0  0  0  0  0  0
  187.8070  177.4140  143.7940 C   0  0  0  0  0  0  0  0  0  0  0  0
  189.6620  175.6650  142.8420 S   0  0  0  0  0  0  0  0  0  0  0  0
  185.7860  178.5290  144.5590 C   0  0  0  0  0  3  0  0  0  0  0  0
  188.3870  177.5010  141.2850 C   0  0  1  0  0  3  0  0  0  0  0  0
  184.0060  179.0590  142.8920 C   0  0  0  0  0  0  0  0  0  0  0  0
  189.5450  176.8370  141.4750 C   0  0  2  0  0  3  0  0  0  0  0  0
  185.3170  178.5570  143.1990 N   0  0  0  0  0  0  0  0  0  0  0  0
  192.8570  177.0500  138.7410 C   0  0  0  0  0  3  0  0  0  0  0  0
  190.5750  176.4150  139.2320 C   0  0  0  0  0  3  0  0  0  0  0  0
  192.9900  177.5620  140.0330 C   0  0  0  0  0  3  0  0  0  0  0  0
  191.9150  177.5020  140.9230 C   0  0  0  0  0  3  0  0  0  0  0  0
  191.6490  176.4740  138.3400 C   0  0  0  0  0  3  0  0  0  0  0  0
  190.6890  176.9360  140.5310 C   0  0  0  0  0  0  0  0  0  0  0  0
  190.7490  177.2550  145.7530 C   0  0  0  0  0  0  0  0  0  0  0  0
  191.4260  177.8950  144.9040 O   0  0  0  0  0  0  0  0  0  0  0  0
  189.4760  176.7030  145.4050 N   0  0  0  0  0  2  0  0  0  0  0  0
  191.2540  177.1170  147.1480 C   0  0  0  0  0  2  0  0  0  0  0  0
  189.0470  176.3960  147.7210 O   0  0  0  0  0  0  0  0  0  0  0  0
  190.1100  177.2030  148.1470 C   0  0  2  0  0  3  0  0  0  0  0  0
  187.9000  176.9810  148.2750 C   0  0  0  0  0  2  0  0  0  0  0  0
  189.6080  178.6260  148.2640 C   0  0  0  0  0  2  0  0  0  0  0  0
  188.1210  178.4730  148.3670 C   0  0  0  0  0  2  0  0  0  0  0  0
  183.0910  179.5370  143.9710 C   0  0  0  0  0  2  0  0  0  0  0  0
  181.9900  178.5200  144.2030 C   0  0  0  0  0  2  0  0  0  0  0  0
  179.6780  178.0550  143.3140 N   0  0  0  0  0  1  0  0  0  0  0  0
  180.7330  178.9790  143.5530 C   0  0  0  0  0  0  0  0  0  0  0  0
  180.6140  180.1770  143.1880 O   0  0  0  0  0  0  0  0  0  0  0  0
  1  4  1  0  0  0  0
  1 13  1  0  0  0  0
  3 22  1  1  0  0  0
  4  7  2  0  0  0  0
  6 11  2  0  0  0  0
  7  3  1  0  0  0  0
  7  2  1  0  0  0  0
  8  3  1  0  0  0  0
  9  2  2  0  0  0  0
 10  5  1  1  0  0  0
 10 12  1  0  0  0  0
 10  4  1  0  0  0  0
 11 13  1  0  0  0  0
 11 29  1  0  0  0  0
 12 19  1  6  0  0  0
 12  8  1  0  0  0  0
 13  9  1  0  0  0  0
 14 16  1  0  0  0  0
 15 19  2  0  0  0  0
 16 17  2  0  0  0  0
 18 14  2  0  0  0  0
 18 15  1  0  0  0  0
 19 17  1  0  0  0  0
 20 23  1  0  0  0  0
 21 20  2  0  0  0  0
 22 20  1  0  0  0  0
 24 25  1  0  0  0  0
 24 26  1  0  0  0  0
 25 23  1  6  0  0  0
 25 27  1  0  0  0  0
 26 28  1  0  0  0  0
 27 28  1  0  0  0  0
 29 30  1  0  0  0  0
 31 32  1  0  0  0  0
 32 30  1  0  0  0  0
 33 32  2  0  0  0  0
M  END
>  <MODEL>
7

>  <REMARK>
 VINA RESULT:      -7.6      2.119      6.037
  Name = 
  7 active torsions:
  status: ('A' for Active; 'I' for Inactive)
    1  A    between atoms: C_2  and  C_18
    2  A    between atoms: C_8  and  N_30
    3  A    between atoms: C_9  and  C_21
    4  A    between atoms: C_9  and  C_28
    5  A    between atoms: C_15  and  C_21
    6  A    between atoms: C_18  and  C_19
    7  A    between atoms: C_25  and  C_31
                            x       y       z     vdW  Elec       q    Type
                         _______ _______ _______ _____ _____    ______ ____

>  <TORSDO>
F 7

$$$$
=
 OpenBabel10222417553D

 33 36  0  0  1  0  0  0  0  0999 V2000
  183.4910  178.6710  142.0700 C   0  0  0  0  0  2  0  0  0  0  0  0
  186.0360  179.0000  140.8490 C   0  0  0  0  0  3  0  0  0  0  0  0
  184.9010  178.6120  138.7040 C   0  0  2  0  0  3  0  0  0  0  0  0
  183.5170  178.6770  140.7320 C   0  0  0  0  0  0  0  0  0  0  0  0
  181.1240  179.3030  140.6810 O   0  0  0  0  0  1  0  0  0  0  0  0
  183.5410  178.4320  144.8490 O   0  0  0  0  0  0  0  0  0  0  0  0
  184.8300  178.7420  140.0380 C   0  0  0  0  0  0  0  0  0  0  0  0
  183.5390  177.8550  137.8140 S   0  0  0  0  0  0  0  0  0  0  0  0
  185.9600  178.9720  142.1800 C   0  0  0  0  0  3  0  0  0  0  0  0
  182.2590  178.8990  139.9800 C   0  0  1  0  0  3  0  0  0  0  0  0
  184.6470  178.6130  144.2720 C   0  0  0  0  0  0  0  0  0  0  0  0
  182.2290  178.7840  138.6370 C   0  0  2  0  0  3  0  0  0  0  0  0
  184.7070  178.7170  142.8400 N   0  0  0  0  0  0  0  0  0  0  0  0
  178.9320  180.2780  136.3160 C   0  0  0  0  0  3  0  0  0  0  0  0
  181.0440  180.6370  137.4410 C   0  0  0  0  0  3  0  0  0  0  0  0
  178.9640  178.9330  136.6900 C   0  0  0  0  0  3  0  0  0  0  0  0
  180.0360  178.4410  137.4390 C   0  0  0  0  0  3  0  0  0  0  0  0
  179.9720  181.1310  136.6930 C   0  0  0  0  0  3  0  0  0  0  0  0
  181.0950  179.2850  137.8150 C   0  0  0  0  0  0  0  0  0  0  0  0
  186.9700  177.8690  137.4670 C   0  0  0  0  0  0  0  0  0  0  0  0
  186.6510  176.6530  137.5510 O   0  0  0  0  0  0  0  0  0  0  0  0
  186.1060  178.8870  137.9810 N   0  0  0  0  0  2  0  0  0  0  0  0
  188.2320  178.2560  136.7760 C   0  0  0  0  0  2  0  0  0  0  0  0
  189.7570  176.6950  137.7530 O   0  0  0  0  0  0  0  0  0  0  0  0
  189.4310  178.0560  137.6890 C   0  0  2  0  0  3  0  0  0  0  0  0
  190.3770  176.5250  138.9990 C   0  0  0  0  0  2  0  0  0  0  0  0
  189.1210  178.5350  139.0910 C   0  0  0  0  0  2  0  0  0  0  0  0
  189.7730  177.5120  139.9710 C   0  0  0  0  0  2  0  0  0  0  0  0
  185.8790  178.7410  145.1070 C   0  0  0  0  0  2  0  0  0  0  0  0
  186.4390  177.3660  145.4130 C   0  0  0  0  0  2  0  0  0  0  0  0
  188.8620  178.0250  145.1920 N   0  0  0  0  0  1  0  0  0  0  0  0
  187.7740  177.2100  144.7730 C   0  0  0  0  0  0  0  0  0  0  0  0
  187.9320  176.3790  143.8420 O   0  0  0  0  0  0  0  0  0  0  0  0
  1 13  1  0  0  0  0
  2  9  2  0  0  0  0
  3 22  1  1  0  0  0
  3  7  1  0  0  0  0
  4  1  1  0  0  0  0
  7  4  2  0  0  0  0
  7  2  1  0  0  0  0
  8 12  1  0  0  0  0
  8  3  1  0  0  0  0
  9 13  1  0  0  0  0
 10  5  1  6  0  0  0
 10  4  1  0  0  0  0
 11  6  2  0  0  0  0
 11 29  1  0  0  0  0
 12 19  1  1  0  0  0
 12 10  1  0  0  0  0
 13 11  1  0  0  0  0
 14 16  2  0  0  0  0
 14 18  1  0  0  0  0
 15 19  1  0  0  0  0
 16 17  1  0  0  0  0
 17 19  2  0  0  0  0
 18 15  2  0  0  0  0
 20 21  2  0  0  0  0
 20 22  1  0  0  0  0
 23 20  1  0  0  0  0
 24 26  1  0  0  0  0
 25 23  1  6  0  0  0
 25 24  1  0  0  0  0
 25 27  1  0  0  0  0
 26 28  1  0  0  0  0
 27 28  1  0  0  0  0
 29 30  1  0  0  0  0
 32 31  1  0  0  0  0
 32 30  1  0  0  0  0
 33 32  2  0  0  0  0
M  END
>  <MODEL>
8

>  <REMARK>
 VINA RESULT:      -7.6      3.771      8.333
  Name = 
  7 active torsions:
  status: ('A' for Active; 'I' for Inactive)
    1  A    between atoms: C_2  and  C_18
    2  A    between atoms: C_8  and  N_30
    3  A    between atoms: C_9  and  C_21
    4  A    between atoms: C_9  and  C_28
    5  A    between atoms: C_15  and  C_21
    6  A    between atoms: C_18  and  C_19
    7  A    between atoms: C_25  and  C_31
                            x       y       z     vdW  Elec       q    Type
                         _______ _______ _______ _____ _____    ______ ____

>  <TORSDO>
F 7

$$$$
=
 OpenBabel10222417553D

 33 36  0  0  1  0  0  0  0  0999 V2000
  190.3870  177.3220  141.2990 C   0  0  0  0  0  2  0  0  0  0  0  0
  187.7360  178.3430  141.2930 C   0  0  0  0  0  3  0  0  0  0  0  0
  187.8430  178.2180  138.8400 C   0  0  2  0  0  3  0  0  0  0  0  0
  189.7750  177.3890  140.1110 C   0  0  0  0  0  0  0  0  0  0  0  0
  191.3090  175.6680  139.2130 O   0  0  0  0  0  1  0  0  0  0  0  0
  191.6850  177.4290  143.7660 O   0  0  0  0  0  0  0  0  0  0  0  0
  188.4260  178.0100  140.0320 C   0  0  0  0  0  0  0  0  0  0  0  0
  188.8480  178.2440  137.3540 S   0  0  0  0  0  0  0  0  0  0  0  0
  188.3940  178.2710  142.4500 C   0  0  0  0  0  3  0  0  0  0  0  0
  190.3100  176.6100  138.9690 C   0  0  1  0  0  3  0  0  0  0  0  0
  190.4940  177.8430  143.7290 C   0  0  0  0  0  0  0  0  0  0  0  0
  189.7930  176.7550  137.7330 C   0  0  2  0  0  3  0  0  0  0  0  0
  189.7690  177.8450  142.4890 N   0  0  0  0  0  0  0  0  0  0  0  0
  190.6200  173.9350  134.5940 C   0  0  0  0  0  3  0  0  0  0  0  0
  189.2820  174.6490  136.4790 C   0  0  0  0  0  3  0  0  0  0  0  0
  191.4240  175.0670  134.7380 C   0  0  0  0  0  3  0  0  0  0  0  0
  191.1560  175.9900  135.7520 C   0  0  0  0  0  3  0  0  0  0  0  0
  189.5490  173.7240  135.4660 C   0  0  0  0  0  3  0  0  0  0  0  0
  190.0750  175.7980  136.6300 C   0  0  0  0  0  0  0  0  0  0  0  0
  185.4830  177.8290  138.0390 C   0  0  0  0  0  0  0  0  0  0  0  0
  185.7710  176.6970  137.5660 O   0  0  0  0  0  0  0  0  0  0  0  0
  186.4680  178.6040  138.7290 N   0  0  0  0  0  2  0  0  0  0  0  0
  184.0890  178.3430  137.9290 C   0  0  0  0  0  2  0  0  0  0  0  0
  183.2110  177.7650  140.0770 O   0  0  0  0  0  0  0  0  0  0  0  0
  183.5910  178.8490  139.2740 C   0  0  2  0  0  3  0  0  0  0  0  0
  182.2410  178.2780  140.9490 C   0  0  0  0  0  2  0  0  0  0  0  0
  182.3880  179.7500  139.0950 C   0  0  0  0  0  2  0  0  0  0  0  0
  181.4880  179.3760  140.2330 C   0  0  0  0  0  2  0  0  0  0  0  0
  189.8540  178.3010  144.9980 C   0  0  0  0  0  2  0  0  0  0  0  0
  189.3920  177.1030  145.8040 C   0  0  0  0  0  2  0  0  0  0  0  0
  188.2470  177.1740  148.0490 N   0  0  0  0  0  1  0  0  0  0  0  0
  188.2370  177.4850  146.6600 C   0  0  0  0  0  0  0  0  0  0  0  0
  187.2380  178.0560  146.1510 O   0  0  0  0  0  0  0  0  0  0  0  0
  1 13  1  0  0  0  0
  2  9  2  0  0  0  0
  3 22  1  1  0  0  0
  3  7  1  0  0  0  0
  4  1  1  0  0  0  0
  7  4  2  0  0  0  0
  7  2  1  0  0  0  0
  8 12  1  0  0  0  0
  8  3  1  0  0  0  0
  9 13  1  0  0  0  0
 10  5  1  1  0  0  0
 10  4  1  0  0  0  0
 11  6  2  0  0  0  0
 11 29  1  0  0  0  0
 12 19  1  6  0  0  0
 12 10  1  0  0  0  0
 13 11  1  0  0  0  0
 14 16  2  0  0  0  0
 14 18  1  0  0  0  0
 15 19  1  0  0  0  0
 16 17  1  0  0  0  0
 17 19  2  0  0  0  0
 18 15  2  0  0  0  0
 20 22  1  0  0  0  0
 21 20  2  0  0  0  0
 23 20  1  0  0  0  0
 24 26  1  0  0  0  0
 25 23  1  6  0  0  0
 25 24  1  0  0  0  0
 27 25  1  0  0  0  0
 27 28  1  0  0  0  0
 28 26  1  0  0  0  0
 29 30  1  0  0  0  0
 30 32  1  0  0  0  0
 32 31  1  0  0  0  0
 33 32  2  0  0  0  0
M  END
>  <MODEL>
9

>  <REMARK>
 VINA RESULT:      -7.5      3.128      7.819
  Name = 
  7 active torsions:
  status: ('A' for Active; 'I' for Inactive)
    1  A    between atoms: C_2  and  C_18
    2  A    between atoms: C_8  and  N_30
    3  A    between atoms: C_9  and  C_21
    4  A    between atoms: C_9  and  C_28
    5  A    between atoms: C_15  and  C_21
    6  A    between atoms: C_18  and  C_19
    7  A    between atoms: C_25  and  C_31
                            x       y       z     vdW  Elec       q    Type
                         _______ _______ _______ _____ _____    ______ ____

>  <TORSDO>
F 7

$$$$
