=
 OpenBabel10222420553D

 56 65  0  0  1  0  0  0  0  0999 V2000
  189.9270  172.9600  136.7640 C   0  0  2  0  0  3  0  0  0  0  0  0
  193.0040  177.2360  137.7640 C   0  0  0  0  0  2  0  0  0  0  0  0
  188.5440  175.6220  137.4950 C   0  0  0  0  0  3  0  0  0  0  0  0
  188.6200  170.3070  135.5970 C   0  0  0  0  0  1  0  0  0  0  0  0
  190.8080  177.4430  142.0250 C   0  0  0  0  0  0  0  0  0  0  0  0
  189.4250  177.2850  140.0330 C   0  0  0  0  0  0  0  0  0  0  0  0
  187.4750  173.7230  136.3060 C   0  0  0  0  0  0  0  0  0  0  0  0
  192.5180  175.6580  135.8660 C   0  0  1  0  0  3  0  0  0  0  0  0
  191.0030  177.8140  143.4670 C   0  0  0  0  0  2  0  0  0  0  0  0
  188.2050  177.0380  137.8160 C   0  0  2  0  0  3  0  0  0  0  0  0
  190.9120  172.4740  135.7140 C   0  0  0  0  0  2  0  0  0  0  0  0
  192.9470  176.4680  139.0740 C   0  0  0  0  0  2  0  0  0  0  0  0
  188.3140  177.7130  142.2490 C   0  0  0  0  0  3  0  0  0  0  0  0
  188.0870  177.3030  139.3250 C   0  0  2  0  0  3  0  0  0  0  0  0
  187.4150  178.5930  139.5270 N   0  0  0  0  0  2  0  0  0  0  0  0
  186.4460  176.0150  136.6910 N   0  0  0  0  0  0  0  0  0  0  0  0
  186.8390  177.1130  137.2390 C   0  0  0  0  0  0  0  0  0  0  0  0
  188.5110  172.7880  136.2790 C   0  0  2  0  0  3  0  0  0  0  0  0
  189.0890  176.1820  144.0320 C   0  0  0  0  0  2  0  0  0  0  0  0
  186.6310  171.9180  135.4960 C   0  0  0  0  0  0  0  0  0  0  0  0
  188.1290  177.1980  143.4690 C   0  0  0  0  0  0  0  0  0  0  0  0
  191.8370  174.5450  136.6640 C   0  0  0  0  0  2  0  0  0  0  0  0
  190.5480  176.9830  139.3230 N   0  0  0  0  0  0  0  0  0  0  0  0
  185.9280  178.2420  137.5780 C   0  0  0  0  0  2  0  0  0  0  0  0
  190.4370  176.7810  144.4460 C   0  0  0  0  0  2  0  0  0  0  0  0
  186.0160  178.4780  139.0920 C   0  0  0  0  0  2  0  0  0  0  0  0
  187.9490  171.6270  135.7760 C   0  0  0  0  0  0  0  0  0  0  0  0
  186.3360  173.1910  135.8130 N   0  0  0  0  0  0  0  0  0  0  0  0
  193.6060  176.3620  136.6770 C   0  0  0  0  0  2  0  0  0  0  0  0
  191.7790  176.9030  139.8900 C   0  0  0  0  0  0  0  0  0  0  0  0
  189.5270  177.4770  141.4290 C   0  0  0  0  0  0  0  0  0  0  0  0
  190.6730  173.9550  135.8860 C   0  0  2  0  0  3  0  0  0  0  0  0
  187.5310  175.1050  136.8150 C   0  0  0  0  0  0  0  0  0  0  0  0
  191.9300  177.1420  141.2540 C   0  0  0  0  0  3  0  0  0  0  0  0
  185.7000  177.4160  143.6880 C   0  0  0  0  0  3  0  0  0  0  0  0
  186.9150  177.5720  144.2010 C   0  0  0  0  0  3  0  0  0  0  0  0
  184.7420  180.4110  143.3470 C   0  0  0  0  0  2  0  0  0  0  0  0
  182.0280  178.0850  144.0950 O   0  0  0  0  0  1  0  0  0  0  0  0
  185.7070  179.7650  145.5510 C   0  0  0  0  0  2  0  0  0  0  0  0
  184.7940  178.5590  145.7640 C   0  0  0  0  0  2  0  0  0  0  0  0
  184.4780  177.7990  144.4720 C   0  0  1  0  0  3  0  0  0  0  0  0
  183.4810  178.7820  142.2410 C   0  0  2  0  0  3  0  0  0  0  0  0
  183.3130  178.4190  143.6620 C   0  0  1  0  0  0  0  0  0  0  0  0
  185.0230  180.8730  144.7650 C   0  0  0  0  0  2  0  0  0  0  0  0
  183.3990  179.8490  143.2660 N   0  0  1  0  0  0  0  0  0  0  0  0
  182.2750  178.6960  138.8970 C   0  0  0  0  0  2  0  0  0  0  0  0
  181.6830  177.3950  139.3800 C   0  0  0  0  0  2  0  0  0  0  0  0
  180.9880  179.0670  142.1640 C   0  0  0  0  0  1  0  0  0  0  0  0
  182.0740  177.3000  140.8370 C   0  0  0  0  0  2  0  0  0  0  0  0
  182.2210  178.7240  141.3450 C   0  0  0  0  0  0  0  0  0  0  0  0
  182.2630  179.6150  140.1000 C   0  0  0  0  0  2  0  0  0  0  0  0
  184.0620  171.5440  135.7050 C   0  0  0  0  0  1  0  0  0  0  0  0
  185.4370  170.7790  134.8020 S   0  0  0  0  0  0  0  0  0  0  0  0
  193.0670  175.1550  134.6060 N   0  0  0  0  0  2  0  0  0  0  0  0
  194.4070  174.9870  134.7480 O   0  0  0  0  0  0  0  0  0  0  0  0
  194.6060  173.6150  134.5940 C   0  0  0  0  0  1  0  0  0  0  0  0
  1 11  1  6  0  0  0
  2 12  1  0  0  0  0
  4 27  1  0  0  0  0
  5  9  1  0  0  0  0
  6 31  2  0  0  0  0
  7 33  1  0  0  0  0
  8 54  1  6  0  0  0
  8 22  1  0  0  0  0
  8 29  1  0  0  0  0
  9 25  1  0  0  0  0
 10  3  1  1  0  0  0
 10 14  1  0  0  0  0
 12 30  1  0  0  0  0
 13 21  2  0  0  0  0
 14 15  1  6  0  0  0
 14  6  1  0  0  0  0
 16 33  1  0  0  0  0
 16 17  2  0  0  0  0
 17 24  1  0  0  0  0
 17 10  1  0  0  0  0
 18 27  1  1  0  0  0
 18  7  1  0  0  0  0
 18  1  1  0  0  0  0
 19 25  1  0  0  0  0
 20 27  2  0  0  0  0
 20 28  1  0  0  0  0
 21 19  1  0  0  0  0
 21 36  1  0  0  0  0
 23 30  2  0  0  0  0
 23  6  1  0  0  0  0
 24 26  1  0  0  0  0
 26 15  1  0  0  0  0
 28  7  2  0  0  0  0
 29  2  1  0  0  0  0
 30 34  1  0  0  0  0
 31  5  1  0  0  0  0
 31 13  1  0  0  0  0
 32 11  1  6  0  0  0
 32 22  1  0  0  0  0
 32  1  1  0  0  0  0
 33  3  2  0  0  0  0
 34  5  2  0  0  0  0
 35 36  2  0  0  0  0
 37 44  1  0  0  0  0
 39 40  1  0  0  0  0
 41 35  1  6  0  0  0
 41 40  1  0  0  0  0
 42 50  1  6  0  0  0
 42 45  1  0  0  0  0
 42 43  1  0  0  0  0
 43 38  1  1  0  0  0
 43 41  1  0  0  0  0
 44 39  1  0  0  0  0
 45 37  1  1  0  0  0
 45 43  1  0  0  0  0
 46 47  1  0  0  0  0
 46 51  1  0  0  0  0
 47 49  1  0  0  0  0
 49 50  1  0  0  0  0
 50 48  1  0  0  0  0
 51 50  1  0  0  0  0
 53 20  1  0  0  0  0
 53 52  1  0  0  0  0
 54 55  1  0  0  0  0
 56 55  1  0  0  0  0
M  END
>  <MODEL>
1

>  <REMARK>
 VINA RESULT:      -5.0      0.000      0.000
  Name = 
  6 active torsions:
  status: ('A' for Active; 'I' for Inactive)
    1  A    between atoms: C_9  and  C_29
    2  A    between atoms: N_13  and  C_14
    3  A    between atoms: N_13  and  O_22
    4  A    between atoms: C_23  and  C_36
    5  A    between atoms: C_34  and  S_40
    6  A    between atoms: C_37  and  C_39
                            x       y       z     vdW  Elec       q    Type
                         _______ _______ _______ _____ _____    ______ ____

>  <TORSDO>
F 6

$$$$
