=
 OpenBabel10222416083D

 26 28  0  0  1  0  0  0  0  0999 V2000
  188.9230  177.1970  142.8110 N   0  0  0  0  0  2  0  0  0  0  0  0
  186.7020  177.9200  145.7700 C   0  0  0  0  0  3  0  0  0  0  0  0
  186.6360  177.9230  142.9930 C   0  0  0  0  0  3  0  0  0  0  0  0
  191.8650  178.4880  144.3410 O   0  0  0  0  0  0  0  0  0  0  0  0
  185.4920  178.2700  143.7140 C   0  0  0  0  0  0  0  0  0  0  0  0
  189.0120  177.2030  145.8900 C   0  0  0  0  0  3  0  0  0  0  0  0
  185.5240  178.2600  145.1070 C   0  0  0  0  0  3  0  0  0  0  0  0
  190.3050  177.2520  145.5900 C   0  0  0  0  0  0  0  0  0  0  0  0
  190.2960  177.3390  143.0660 N   0  0  0  0  0  0  0  0  0  0  0  0
  190.8300  177.7680  144.3220 C   0  0  0  0  0  0  0  0  0  0  0  0
  187.8330  177.6010  143.6450 C   0  0  0  0  0  0  0  0  0  0  0  0
  187.8670  177.5990  145.0610 C   0  0  0  0  0  0  0  0  0  0  0  0
  191.9860  176.5590  147.4420 N   0  0  0  0  0  0  0  0  0  0  0  0
  191.2370  176.8690  146.6160 C   0  0  0  0  0  0  0  0  0  0  0  0
  184.2300  178.5980  142.9970 C   0  0  0  0  0  2  0  0  0  0  0  0
  184.1910  177.8940  141.7280 N   0  0  0  0  0  2  0  0  0  0  0  0
  184.2180  180.4120  139.0500 O   0  0  0  0  0  1  0  0  0  0  0  0
  185.8170  178.7890  139.7600 O   0  0  0  0  0  1  0  0  0  0  0  0
  183.5290  178.7760  140.7810 C   0  0  1  0  0  3  0  0  0  0  0  0
  184.4850  179.1990  139.6830 C   0  0  0  0  0  0  0  0  0  0  0  0
  183.4900  178.1040  139.4040 C   0  0  0  0  0  2  0  0  0  0  0  0
  191.2090  177.1390  141.9500 C   0  0  0  0  0  2  0  0  0  0  0  0
  190.4300  176.7680  140.7020 C   0  0  0  0  0  2  0  0  0  0  0  0
  190.5100  177.8080  139.7780 O   0  0  0  0  0  0  0  0  0  0  0  0
  189.2340  177.8770  139.2170 C   0  0  0  0  0  2  0  0  0  0  0  0
  189.0320  179.1460  138.6780 O   0  0  0  0  0  1  0  0  0  0  0  0
  1  9  1  0  0  0  0
  1 11  1  0  0  0  0
  3 11  2  0  0  0  0
  3  5  1  0  0  0  0
  5  7  2  0  0  0  0
  7  2  1  0  0  0  0
  8  6  2  0  0  0  0
  8 14  1  0  0  0  0
  9 10  1  0  0  0  0
 10  4  2  0  0  0  0
 10  8  1  0  0  0  0
 11 12  1  0  0  0  0
 12  2  2  0  0  0  0
 12  6  1  0  0  0  0
 14 13  3  0  0  0  0
 15  5  1  0  0  0  0
 16 15  1  0  0  0  0
 17 20  1  0  0  0  0
 19 16  1  1  0  0  0
 20 18  1  0  0  0  0
 20 19  1  0  0  0  0
 21 20  1  0  0  0  0
 21 19  1  0  0  0  0
 22  9  1  0  0  0  0
 23 22  1  0  0  0  0
 24 23  1  0  0  0  0
 25 24  1  0  0  0  0
 26 25  1  0  0  0  0
M  END
>  <MODEL>
1

>  <REMARK>
 VINA RESULT:      -8.5      0.000      0.000
  Name = 
  8 active torsions:
  status: ('A' for Active; 'I' for Inactive)
    1  A    between atoms: C_1  and  C_8
    2  A    between atoms: C_1  and  N_15
    3  A    between atoms: C_5  and  N_13
    4  A    between atoms: C_5  and  C_21
    5  A    between atoms: C_6  and  O_26
    6  A    between atoms: C_12  and  C_19
    7  A    between atoms: N_15  and  C_17
    8  A    between atoms: C_21  and  O_26
                            x       y       z     vdW  Elec       q    Type
                         _______ _______ _______ _____ _____    ______ ____

>  <TORSDO>
F 8

$$$$
=
 OpenBabel10222416083D

 26 28  0  0  1  0  0  0  0  0999 V2000
  187.5280  177.4020  143.1960 N   0  0  0  0  0  2  0  0  0  0  0  0
  186.4870  178.2240  146.7250 C   0  0  0  0  0  3  0  0  0  0  0  0
  185.4800  178.2460  144.1360 C   0  0  0  0  0  3  0  0  0  0  0  0
  190.8770  178.5290  143.6190 O   0  0  0  0  0  0  0  0  0  0  0  0
  184.6690  178.6480  145.1990 C   0  0  0  0  0  0  0  0  0  0  0  0
  188.6590  177.3870  146.0610 C   0  0  0  0  0  3  0  0  0  0  0  0
  185.1720  178.6280  146.4980 C   0  0  0  0  0  3  0  0  0  0  0  0
  189.7740  177.3700  145.3390 C   0  0  0  0  0  0  0  0  0  0  0  0
  188.9110  177.4700  142.9680 N   0  0  0  0  0  0  0  0  0  0  0  0
  189.8620  177.8640  143.9620 C   0  0  0  0  0  0  0  0  0  0  0  0
  186.8090  177.8580  144.3460 C   0  0  0  0  0  0  0  0  0  0  0  0
  187.3220  177.8470  145.6660 C   0  0  0  0  0  0  0  0  0  0  0  0
  191.9480  176.5790  146.5180 N   0  0  0  0  0  0  0  0  0  0  0  0
  190.9780  176.9320  145.9920 C   0  0  0  0  0  0  0  0  0  0  0  0
  183.2570  179.0460  144.9500 C   0  0  0  0  0  2  0  0  0  0  0  0
  182.8540  178.6150  143.6220 N   0  0  0  0  0  2  0  0  0  0  0  0
  180.3930  179.9810  141.2590 O   0  0  0  0  0  1  0  0  0  0  0  0
  181.9910  178.2180  141.0890 O   0  0  0  0  0  1  0  0  0  0  0  0
  181.6240  179.3240  143.3080 C   0  0  1  0  0  3  0  0  0  0  0  0
  181.1770  179.0180  141.8930 C   0  0  0  0  0  0  0  0  0  0  0  0
  180.5080  178.3090  143.0390 C   0  0  0  0  0  2  0  0  0  0  0  0
  189.3790  177.2290  141.6100 C   0  0  0  0  0  2  0  0  0  0  0  0
  188.4860  177.9510  140.6190 C   0  0  0  0  0  2  0  0  0  0  0  0
  188.5890  177.3410  139.3700 O   0  0  0  0  0  0  0  0  0  0  0  0
  189.5310  178.1070  138.6830 C   0  0  0  0  0  2  0  0  0  0  0  0
  188.9140  179.2420  138.1610 O   0  0  0  0  0  1  0  0  0  0  0  0
  1 11  1  0  0  0  0
  3 11  2  0  0  0  0
  3  5  1  0  0  0  0
  4 10  2  0  0  0  0
  5  7  2  0  0  0  0
  7  2  1  0  0  0  0
  8 14  1  0  0  0  0
  8  6  2  0  0  0  0
  9  1  1  0  0  0  0
  9 10  1  0  0  0  0
 10  8  1  0  0  0  0
 11 12  1  0  0  0  0
 12  6  1  0  0  0  0
 12  2  2  0  0  0  0
 14 13  3  0  0  0  0
 15  5  1  0  0  0  0
 16 15  1  0  0  0  0
 17 20  1  0  0  0  0
 18 20  1  0  0  0  0
 19 16  1  6  0  0  0
 20 21  1  0  0  0  0
 20 19  1  0  0  0  0
 21 19  1  0  0  0  0
 22  9  1  0  0  0  0
 23 22  1  0  0  0  0
 24 23  1  0  0  0  0
 25 24  1  0  0  0  0
 26 25  1  0  0  0  0
M  END
>  <MODEL>
2

>  <REMARK>
 VINA RESULT:      -7.8      1.911      2.227
  Name = 
  8 active torsions:
  status: ('A' for Active; 'I' for Inactive)
    1  A    between atoms: C_1  and  C_8
    2  A    between atoms: C_1  and  N_15
    3  A    between atoms: C_5  and  N_13
    4  A    between atoms: C_5  and  C_21
    5  A    between atoms: C_6  and  O_26
    6  A    between atoms: C_12  and  C_19
    7  A    between atoms: N_15  and  C_17
    8  A    between atoms: C_21  and  O_26
                            x       y       z     vdW  Elec       q    Type
                         _______ _______ _______ _____ _____    ______ ____

>  <TORSDO>
F 8

$$$$
=
 OpenBabel10222416083D

 26 28  0  0  1  0  0  0  0  0999 V2000
  188.5090  176.7610  144.2910 N   0  0  0  0  0  2  0  0  0  0  0  0
  187.2190  178.2220  147.5180 C   0  0  0  0  0  3  0  0  0  0  0  0
  186.4720  177.9070  144.8610 C   0  0  0  0  0  3  0  0  0  0  0  0
  191.8960  177.6700  144.9020 O   0  0  0  0  0  0  0  0  0  0  0  0
  185.6050  178.5390  145.7540 C   0  0  0  0  0  0  0  0  0  0  0  0
  189.3550  177.1170  147.2310 C   0  0  0  0  0  3  0  0  0  0  0  0
  185.9770  178.6880  147.0890 C   0  0  0  0  0  3  0  0  0  0  0  0
  190.5260  176.8950  146.6470 C   0  0  0  0  0  0  0  0  0  0  0  0
  189.9080  176.6810  144.2080 N   0  0  0  0  0  0  0  0  0  0  0  0
  190.7930  177.1520  145.2290 C   0  0  0  0  0  0  0  0  0  0  0  0
  187.7310  177.4530  145.2720 C   0  0  0  0  0  0  0  0  0  0  0  0
  188.1120  177.6130  146.6270 C   0  0  0  0  0  0  0  0  0  0  0  0
  192.4910  176.1340  148.1630 N   0  0  0  0  0  0  0  0  0  0  0  0
  191.6150  176.4730  147.4870 C   0  0  0  0  0  0  0  0  0  0  0  0
  184.2680  179.0030  145.2950 C   0  0  0  0  0  2  0  0  0  0  0  0
  183.8890  178.2850  144.0910 N   0  0  0  0  0  2  0  0  0  0  0  0
  185.1180  179.7850  140.9690 O   0  0  0  0  0  1  0  0  0  0  0  0
  185.3350  177.6030  141.9090 O   0  0  0  0  0  1  0  0  0  0  0  0
  183.8260  179.2660  143.0200 C   0  0  1  0  0  3  0  0  0  0  0  0
  184.6180  178.7970  141.8160 C   0  0  0  0  0  0  0  0  0  0  0  0
  183.1210  178.6510  141.8080 C   0  0  0  0  0  2  0  0  0  0  0  0
  190.4780  176.1870  142.9620 C   0  0  0  0  0  2  0  0  0  0  0  0
  189.5920  176.5790  141.7950 C   0  0  0  0  0  2  0  0  0  0  0  0
  190.1890  177.6210  141.0880 O   0  0  0  0  0  0  0  0  0  0  0  0
  191.5520  177.3260  141.1140 C   0  0  0  0  0  2  0  0  0  0  0  0
  192.0390  177.2600  139.8100 O   0  0  0  0  0  1  0  0  0  0  0  0
  1 11  1  0  0  0  0
  3 11  2  0  0  0  0
  3  5  1  0  0  0  0
  4 10  2  0  0  0  0
  5  7  2  0  0  0  0
  7  2  1  0  0  0  0
  8  6  2  0  0  0  0
  8 14  1  0  0  0  0
  9  1  1  0  0  0  0
  9 10  1  0  0  0  0
 10  8  1  0  0  0  0
 11 12  1  0  0  0  0
 12  6  1  0  0  0  0
 12  2  2  0  0  0  0
 14 13  3  0  0  0  0
 15  5  1  0  0  0  0
 16 15  1  0  0  0  0
 17 20  1  0  0  0  0
 19 16  1  1  0  0  0
 20 18  1  0  0  0  0
 20 19  1  0  0  0  0
 21 20  1  0  0  0  0
 21 19  1  0  0  0  0
 22  9  1  0  0  0  0
 23 22  1  0  0  0  0
 24 25  1  0  0  0  0
 24 23  1  0  0  0  0
 26 25  1  0  0  0  0
M  END
>  <MODEL>
3

>  <REMARK>
 VINA RESULT:      -7.8      1.628      1.967
  Name = 
  8 active torsions:
  status: ('A' for Active; 'I' for Inactive)
    1  A    between atoms: C_1  and  C_8
    2  A    between atoms: C_1  and  N_15
    3  A    between atoms: C_5  and  N_13
    4  A    between atoms: C_5  and  C_21
    5  A    between atoms: C_6  and  O_26
    6  A    between atoms: C_12  and  C_19
    7  A    between atoms: N_15  and  C_17
    8  A    between atoms: C_21  and  O_26
                            x       y       z     vdW  Elec       q    Type
                         _______ _______ _______ _____ _____    ______ ____

>  <TORSDO>
F 8

$$$$
=
 OpenBabel10222416083D

 26 28  0  0  1  0  0  0  0  0999 V2000
  187.1300  176.9320  143.5340 N   0  0  0  0  0  2  0  0  0  0  0  0
  184.6140  178.9930  145.4420 C   0  0  0  0  0  3  0  0  0  0  0  0
  185.0090  177.8910  142.9220 C   0  0  0  0  0  3  0  0  0  0  0  0
  189.9600  178.4320  145.0840 O   0  0  0  0  0  0  0  0  0  0  0  0
  183.8420  178.6080  143.1900 C   0  0  0  0  0  0  0  0  0  0  0  0
  186.7090  178.1610  146.3270 C   0  0  0  0  0  3  0  0  0  0  0  0
  183.6410  179.1520  144.4570 C   0  0  0  0  0  3  0  0  0  0  0  0
  188.0220  177.9590  146.3240 C   0  0  0  0  0  0  0  0  0  0  0  0
  188.4450  177.0290  144.0160 N   0  0  0  0  0  0  0  0  0  0  0  0
  188.8320  177.8700  145.1060 C   0  0  0  0  0  0  0  0  0  0  0  0
  186.0060  177.7410  143.8950 C   0  0  0  0  0  0  0  0  0  0  0  0
  185.8050  178.3020  145.1790 C   0  0  0  0  0  0  0  0  0  0  0  0
  189.2240  177.9040  148.6240 N   0  0  0  0  0  0  0  0  0  0  0  0
  188.6880  177.9280  147.5990 C   0  0  0  0  0  0  0  0  0  0  0  0
  182.7940  178.7440  142.1420 C   0  0  0  0  0  2  0  0  0  0  0  0
  183.3850  178.5470  140.8300 N   0  0  0  0  0  2  0  0  0  0  0  0
  182.1730  180.9130  138.2920 O   0  0  0  0  0  1  0  0  0  0  0  0
  184.3560  180.3840  139.0980 O   0  0  0  0  0  1  0  0  0  0  0  0
  182.4060  179.0050  139.8580 C   0  0  1  0  0  3  0  0  0  0  0  0
  183.0310  179.9940  138.8940 C   0  0  0  0  0  0  0  0  0  0  0  0
  182.8410  178.5670  138.4560 C   0  0  0  0  0  2  0  0  0  0  0  0
  189.4800  176.3100  143.2860 C   0  0  0  0  0  2  0  0  0  0  0  0
  189.4620  176.7180  141.8250 C   0  0  0  0  0  2  0  0  0  0  0  0
  190.2270  177.8700  141.6550 O   0  0  0  0  0  0  0  0  0  0  0  0
  191.5470  177.4350  141.7730 C   0  0  0  0  0  2  0  0  0  0  0  0
  192.2210  177.6610  140.5740 O   0  0  0  0  0  1  0  0  0  0  0  0
  1 11  1  0  0  0  0
  1  9  1  0  0  0  0
  3  5  2  0  0  0  0
  3 11  1  0  0  0  0
  4 10  2  0  0  0  0
  5  7  1  0  0  0  0
  7  2  2  0  0  0  0
  8  6  2  0  0  0  0
  8 14  1  0  0  0  0
  9 10  1  0  0  0  0
 10  8  1  0  0  0  0
 11 12  2  0  0  0  0
 12  2  1  0  0  0  0
 12  6  1  0  0  0  0
 14 13  3  0  0  0  0
 15  5  1  0  0  0  0
 16 15  1  0  0  0  0
 17 20  1  0  0  0  0
 19 16  1  1  0  0  0
 20 18  1  0  0  0  0
 20 19  1  0  0  0  0
 21 20  1  0  0  0  0
 21 19  1  0  0  0  0
 22  9  1  0  0  0  0
 23 22  1  0  0  0  0
 24 25  1  0  0  0  0
 24 23  1  0  0  0  0
 26 25  1  0  0  0  0
M  END
>  <MODEL>
4

>  <REMARK>
 VINA RESULT:      -7.6      1.809      2.275
  Name = 
  8 active torsions:
  status: ('A' for Active; 'I' for Inactive)
    1  A    between atoms: C_1  and  C_8
    2  A    between atoms: C_1  and  N_15
    3  A    between atoms: C_5  and  N_13
    4  A    between atoms: C_5  and  C_21
    5  A    between atoms: C_6  and  O_26
    6  A    between atoms: C_12  and  C_19
    7  A    between atoms: N_15  and  C_17
    8  A    between atoms: C_21  and  O_26
                            x       y       z     vdW  Elec       q    Type
                         _______ _______ _______ _____ _____    ______ ____

>  <TORSDO>
F 8

$$$$
=
 OpenBabel10222416083D

 26 28  0  0  1  0  0  0  0  0999 V2000
  185.2900  179.0820  141.7470 N   0  0  0  0  0  2  0  0  0  0  0  0
  184.8500  178.1800  145.3810 C   0  0  0  0  0  3  0  0  0  0  0  0
  186.8090  178.2420  143.4130 C   0  0  0  0  0  3  0  0  0  0  0  0
  182.0780  177.8990  140.7700 O   0  0  0  0  0  0  0  0  0  0  0  0
  187.1370  177.8220  144.7030 C   0  0  0  0  0  0  0  0  0  0  0  0
  183.1060  179.0060  143.9180 C   0  0  0  0  0  3  0  0  0  0  0  0
  186.1550  177.8000  145.6920 C   0  0  0  0  0  3  0  0  0  0  0  0
  182.3740  179.0270  142.8100 C   0  0  0  0  0  0  0  0  0  0  0  0
  184.1150  179.0010  140.9830 N   0  0  0  0  0  0  0  0  0  0  0  0
  182.8550  178.5680  141.5040 C   0  0  0  0  0  0  0  0  0  0  0  0
  185.4980  178.6060  143.0800 C   0  0  0  0  0  0  0  0  0  0  0  0
  184.5000  178.5750  144.0830 C   0  0  0  0  0  0  0  0  0  0  0  0
  179.8920  179.7540  143.0340 N   0  0  0  0  0  0  0  0  0  0  0  0
  180.9990  179.4300  142.9350 C   0  0  0  0  0  0  0  0  0  0  0  0
  188.5390  177.4500  145.0330 C   0  0  0  0  0  2  0  0  0  0  0  0
  189.4150  177.8230  143.9360 N   0  0  0  0  0  2  0  0  0  0  0  0
  192.0530  175.2640  143.9680 O   0  0  0  0  0  1  0  0  0  0  0  0
  190.1790  175.6360  142.5390 O   0  0  0  0  0  1  0  0  0  0  0  0
  190.7440  177.3460  144.2820 C   0  0  1  0  0  3  0  0  0  0  0  0
  191.1230  176.1520  143.4290 C   0  0  0  0  0  0  0  0  0  0  0  0
  191.6710  177.5070  143.0720 C   0  0  0  0  0  2  0  0  0  0  0  0
  184.2250  179.2730  139.5560 C   0  0  0  0  0  2  0  0  0  0  0  0
  185.0960  178.2230  138.8940 C   0  0  0  0  0  2  0  0  0  0  0  0
  186.0360  178.8460  138.0760 O   0  0  0  0  0  0  0  0  0  0  0  0
  187.2280  178.1670  138.3300 C   0  0  0  0  0  2  0  0  0  0  0  0
  187.7810  178.6280  139.5230 O   0  0  0  0  0  1  0  0  0  0  0  0
  1 11  1  0  0  0  0
  2  7  1  0  0  0  0
  3  5  1  0  0  0  0
  4 10  2  0  0  0  0
  5 15  1  0  0  0  0
  5  7  2  0  0  0  0
  6 12  1  0  0  0  0
  8 14  1  0  0  0  0
  8  6  2  0  0  0  0
  9 10  1  0  0  0  0
  9  1  1  0  0  0  0
 10  8  1  0  0  0  0
 11  3  2  0  0  0  0
 11 12  1  0  0  0  0
 12  2  2  0  0  0  0
 14 13  3  0  0  0  0
 16 15  1  0  0  0  0
 18 20  1  0  0  0  0
 19 16  1  6  0  0  0
 20 17  1  0  0  0  0
 20 19  1  0  0  0  0
 21 20  1  0  0  0  0
 21 19  1  0  0  0  0
 22  9  1  0  0  0  0
 23 22  1  0  0  0  0
 24 25  1  0  0  0  0
 24 23  1  0  0  0  0
 25 26  1  0  0  0  0
M  END
>  <MODEL>
5

>  <REMARK>
 VINA RESULT:      -7.3      2.021      6.888
  Name = 
  8 active torsions:
  status: ('A' for Active; 'I' for Inactive)
    1  A    between atoms: C_1  and  C_8
    2  A    between atoms: C_1  and  N_15
    3  A    between atoms: C_5  and  N_13
    4  A    between atoms: C_5  and  C_21
    5  A    between atoms: C_6  and  O_26
    6  A    between atoms: C_12  and  C_19
    7  A    between atoms: N_15  and  C_17
    8  A    between atoms: C_21  and  O_26
                            x       y       z     vdW  Elec       q    Type
                         _______ _______ _______ _____ _____    ______ ____

>  <TORSDO>
F 8

$$$$
=
 OpenBabel10222416083D

 26 28  0  0  1  0  0  0  0  0999 V2000
  188.3520  178.2460  145.1190 N   0  0  0  0  0  2  0  0  0  0  0  0
  190.9070  176.7300  142.7970 C   0  0  0  0  0  3  0  0  0  0  0  0
  188.3940  177.9130  142.7360 C   0  0  0  0  0  3  0  0  0  0  0  0
  188.9720  175.9480  147.7640 O   0  0  0  0  0  0  0  0  0  0  0  0
  188.9920  177.4950  141.5460 C   0  0  0  0  0  0  0  0  0  0  0  0
  191.1320  176.9240  145.2010 C   0  0  0  0  0  3  0  0  0  0  0  0
  190.2570  176.9100  141.5770 C   0  0  0  0  0  3  0  0  0  0  0  0
  190.7390  176.7860  146.4620 C   0  0  0  0  0  0  0  0  0  0  0  0
  188.4180  177.7780  146.4400 N   0  0  0  0  0  0  0  0  0  0  0  0
  189.3360  176.7730  146.8820 C   0  0  0  0  0  0  0  0  0  0  0  0
  189.0250  177.7200  143.9710 C   0  0  0  0  0  0  0  0  0  0  0  0
  190.3060  177.1170  144.0020 C   0  0  0  0  0  0  0  0  0  0  0  0
  192.5750  176.3320  148.2400 N   0  0  0  0  0  0  0  0  0  0  0  0
  191.7560  176.5340  147.4470 C   0  0  0  0  0  0  0  0  0  0  0  0
  188.3050  177.7210  140.2460 C   0  0  0  0  0  2  0  0  0  0  0  0
  189.2710  177.6520  139.1640 N   0  0  0  0  0  2  0  0  0  0  0  0
  187.4060  178.6440  136.1550 O   0  0  0  0  0  1  0  0  0  0  0  0
  189.0570  179.7540  137.4740 O   0  0  0  0  0  1  0  0  0  0  0  0
  188.5220  177.3530  137.9540 C   0  0  1  0  0  3  0  0  0  0  0  0
  188.4840  178.5580  137.0360 C   0  0  0  0  0  0  0  0  0  0  0  0
  189.4560  177.4480  136.7430 C   0  0  0  0  0  2  0  0  0  0  0  0
  187.4180  178.2720  147.3760 C   0  0  0  0  0  2  0  0  0  0  0  0
  186.0260  178.0430  146.8180 C   0  0  0  0  0  2  0  0  0  0  0  0
  185.4430  179.2690  146.5060 O   0  0  0  0  0  0  0  0  0  0  0  0
  184.8000  179.0520  145.2870 C   0  0  0  0  0  2  0  0  0  0  0  0
  183.4220  179.0100  145.4890 O   0  0  0  0  0  1  0  0  0  0  0  0
  1  9  1  0  0  0  0
  2 12  1  0  0  0  0
  3 11  1  0  0  0  0
  5  7  1  0  0  0  0
  5  3  2  0  0  0  0
  6  8  2  0  0  0  0
  7  2  2  0  0  0  0
  8 10  1  0  0  0  0
  8 14  1  0  0  0  0
  9 10  1  0  0  0  0
  9 22  1  0  0  0  0
 10  4  2  0  0  0  0
 11 12  2  0  0  0  0
 11  1  1  0  0  0  0
 12  6  1  0  0  0  0
 14 13  3  0  0  0  0
 15  5  1  0  0  0  0
 16 15  1  0  0  0  0
 17 20  1  0  0  0  0
 19 16  1  1  0  0  0
 20 18  1  0  0  0  0
 20 19  1  0  0  0  0
 21 20  1  0  0  0  0
 21 19  1  0  0  0  0
 23 22  1  0  0  0  0
 24 23  1  0  0  0  0
 25 26  1  0  0  0  0
 25 24  1  0  0  0  0
M  END
>  <MODEL>
6

>  <REMARK>
 VINA RESULT:      -7.1      2.852      5.077
  Name = 
  8 active torsions:
  status: ('A' for Active; 'I' for Inactive)
    1  A    between atoms: C_1  and  C_8
    2  A    between atoms: C_1  and  N_15
    3  A    between atoms: C_5  and  N_13
    4  A    between atoms: C_5  and  C_21
    5  A    between atoms: C_6  and  O_26
    6  A    between atoms: C_12  and  C_19
    7  A    between atoms: N_15  and  C_17
    8  A    between atoms: C_21  and  O_26
                            x       y       z     vdW  Elec       q    Type
                         _______ _______ _______ _____ _____    ______ ____

>  <TORSDO>
F 8

$$$$
=
 OpenBabel10222416083D

 26 28  0  0  1  0  0  0  0  0999 V2000
  187.9980  177.1590  144.6850 N   0  0  0  0  0  2  0  0  0  0  0  0
  187.1730  178.3080  141.1900 C   0  0  0  0  0  3  0  0  0  0  0  0
  189.3120  177.3450  142.6780 C   0  0  0  0  0  3  0  0  0  0  0  0
  185.8930  179.5490  146.2740 O   0  0  0  0  0  0  0  0  0  0  0  0
  189.4860  177.6390  141.3240 C   0  0  0  0  0  0  0  0  0  0  0  0
  185.6230  178.2390  143.0490 C   0  0  0  0  0  3  0  0  0  0  0  0
  188.4100  178.1130  140.5770 C   0  0  0  0  0  3  0  0  0  0  0  0
  185.2190  178.4850  144.2900 C   0  0  0  0  0  0  0  0  0  0  0  0
  187.1720  177.6980  145.6830 N   0  0  0  0  0  0  0  0  0  0  0  0
  186.1300  178.6440  145.4280 C   0  0  0  0  0  0  0  0  0  0  0  0
  188.0820  177.5560  143.3130 C   0  0  0  0  0  0  0  0  0  0  0  0
  186.9920  178.0470  142.5550 C   0  0  0  0  0  0  0  0  0  0  0  0
  182.6820  178.8840  144.6630 N   0  0  0  0  0  0  0  0  0  0  0  0
  183.8130  178.7060  144.4970 C   0  0  0  0  0  0  0  0  0  0  0  0
  190.8010  177.3960  140.6710 C   0  0  0  0  0  2  0  0  0  0  0  0
  190.6490  177.4590  139.2280 N   0  0  0  0  0  2  0  0  0  0  0  0
  190.4100  174.1240  137.7020 O   0  0  0  0  0  1  0  0  0  0  0  0
  188.9350  176.0000  137.7270 O   0  0  0  0  0  1  0  0  0  0  0  0
  191.2350  176.2410  138.6920 C   0  0  1  0  0  3  0  0  0  0  0  0
  190.2360  175.5010  137.8260 C   0  0  0  0  0  0  0  0  0  0  0  0
  191.2970  176.3380  137.1640 C   0  0  0  0  0  2  0  0  0  0  0  0
  187.4760  177.3490  147.0640 C   0  0  0  0  0  2  0  0  0  0  0  0
  188.9130  177.7090  147.3870 C   0  0  0  0  0  2  0  0  0  0  0  0
  189.6710  176.5450  147.5000 O   0  0  0  0  0  0  0  0  0  0  0  0
  190.8660  176.8400  146.8460 C   0  0  0  0  0  2  0  0  0  0  0  0
  191.9150  176.8220  147.7620 O   0  0  0  0  0  1  0  0  0  0  0  0
  1  9  1  0  0  0  0
  2 12  1  0  0  0  0
  3 11  1  0  0  0  0
  5  3  2  0  0  0  0
  6  8  2  0  0  0  0
  7  2  2  0  0  0  0
  7  5  1  0  0  0  0
  8 14  1  0  0  0  0
  8 10  1  0  0  0  0
  9 22  1  0  0  0  0
 10  9  1  0  0  0  0
 10  4  2  0  0  0  0
 11  1  1  0  0  0  0
 12  6  1  0  0  0  0
 12 11  2  0  0  0  0
 14 13  3  0  0  0  0
 15  5  1  0  0  0  0
 16 15  1  0  0  0  0
 17 20  1  0  0  0  0
 18 20  1  0  0  0  0
 19 16  1  1  0  0  0
 20 19  1  0  0  0  0
 21 20  1  0  0  0  0
 21 19  1  0  0  0  0
 22 23  1  0  0  0  0
 23 24  1  0  0  0  0
 25 24  1  0  0  0  0
 25 26  1  0  0  0  0
M  END
>  <MODEL>
7

>  <REMARK>
 VINA RESULT:      -7.1      2.828      6.452
  Name = 
  8 active torsions:
  status: ('A' for Active; 'I' for Inactive)
    1  A    between atoms: C_1  and  C_8
    2  A    between atoms: C_1  and  N_15
    3  A    between atoms: C_5  and  N_13
    4  A    between atoms: C_5  and  C_21
    5  A    between atoms: C_6  and  O_26
    6  A    between atoms: C_12  and  C_19
    7  A    between atoms: N_15  and  C_17
    8  A    between atoms: C_21  and  O_26
                            x       y       z     vdW  Elec       q    Type
                         _______ _______ _______ _____ _____    ______ ____

>  <TORSDO>
F 8

$$$$
=
 OpenBabel10222416083D

 26 28  0  0  1  0  0  0  0  0999 V2000
  188.1300  177.5640  141.8810 N   0  0  0  0  0  2  0  0  0  0  0  0
  191.7200  176.8100  142.7500 C   0  0  0  0  0  3  0  0  0  0  0  0
  189.3320  177.5400  143.9660 C   0  0  0  0  0  3  0  0  0  0  0  0
  188.9140  179.1700  138.8030 O   0  0  0  0  0  0  0  0  0  0  0  0
  190.4730  177.3450  144.7440 C   0  0  0  0  0  0  0  0  0  0  0  0
  190.7760  176.7670  140.5210 C   0  0  0  0  0  3  0  0  0  0  0  0
  191.6690  176.9690  144.1340 C   0  0  0  0  0  3  0  0  0  0  0  0
  190.0910  177.2570  139.4940 C   0  0  0  0  0  0  0  0  0  0  0  0
  187.9330  178.0120  140.5650 N   0  0  0  0  0  0  0  0  0  0  0  0
  188.9950  178.2200  139.6290 C   0  0  0  0  0  0  0  0  0  0  0  0
  189.3730  177.4050  142.5720 C   0  0  0  0  0  0  0  0  0  0  0  0
  190.5900  177.0330  141.9530 C   0  0  0  0  0  0  0  0  0  0  0  0
  190.8770  176.5940  137.1100 N   0  0  0  0  0  0  0  0  0  0  0  0
  190.5260  176.8900  138.1730 C   0  0  0  0  0  0  0  0  0  0  0  0
  190.4000  177.4850  146.2230 C   0  0  0  0  0  2  0  0  0  0  0  0
  189.1210  176.9880  146.6990 N   0  0  0  0  0  2  0  0  0  0  0  0
  186.3690  179.3370  147.3420 O   0  0  0  0  0  1  0  0  0  0  0  0
  186.4590  177.2060  146.2720 O   0  0  0  0  0  1  0  0  0  0  0  0
  188.5000  178.0750  147.4390 C   0  0  1  0  0  3  0  0  0  0  0  0
  187.0050  178.1070  147.1890 C   0  0  0  0  0  0  0  0  0  0  0  0
  187.5190  177.4950  148.4640 C   0  0  0  0  0  2  0  0  0  0  0  0
  186.5790  178.3850  140.1810 C   0  0  0  0  0  2  0  0  0  0  0  0
  185.8550  179.0010  141.3630 C   0  0  0  0  0  2  0  0  0  0  0  0
  184.5560  179.3380  140.9890 O   0  0  0  0  0  0  0  0  0  0  0  0
  184.5640  179.2720  139.5950 C   0  0  0  0  0  2  0  0  0  0  0  0
  184.1800  180.5040  139.0690 O   0  0  0  0  0  1  0  0  0  0  0  0
  1 11  1  0  0  0  0
  2  7  1  0  0  0  0
  3  5  1  0  0  0  0
  4 10  2  0  0  0  0
  5 15  1  0  0  0  0
  6 12  1  0  0  0  0
  7  5  2  0  0  0  0
  8 10  1  0  0  0  0
  8  6  2  0  0  0  0
  9  1  1  0  0  0  0
 10  9  1  0  0  0  0
 11  3  2  0  0  0  0
 12 11  1  0  0  0  0
 12  2  2  0  0  0  0
 13 14  3  0  0  0  0
 14  8  1  0  0  0  0
 15 16  1  0  0  0  0
 18 20  1  0  0  0  0
 19 16  1  6  0  0  0
 19 21  1  0  0  0  0
 20 17  1  0  0  0  0
 20 19  1  0  0  0  0
 20 21  1  0  0  0  0
 22  9  1  0  0  0  0
 22 23  1  0  0  0  0
 24 23  1  0  0  0  0
 25 24  1  0  0  0  0
 26 25  1  0  0  0  0
M  END
>  <MODEL>
8

>  <REMARK>
 VINA RESULT:      -6.8      2.558      6.364
  Name = 
  8 active torsions:
  status: ('A' for Active; 'I' for Inactive)
    1  A    between atoms: C_1  and  C_8
    2  A    between atoms: C_1  and  N_15
    3  A    between atoms: C_5  and  N_13
    4  A    between atoms: C_5  and  C_21
    5  A    between atoms: C_6  and  O_26
    6  A    between atoms: C_12  and  C_19
    7  A    between atoms: N_15  and  C_17
    8  A    between atoms: C_21  and  O_26
                            x       y       z     vdW  Elec       q    Type
                         _______ _______ _______ _____ _____    ______ ____

>  <TORSDO>
F 8

$$$$
=
 OpenBabel10222416083D

 26 28  0  0  1  0  0  0  0  0999 V2000
  185.0430  178.7090  142.0130 N   0  0  0  0  0  2  0  0  0  0  0  0
  184.3030  178.6140  145.7080 C   0  0  0  0  0  3  0  0  0  0  0  0
  186.3580  178.0630  143.9220 C   0  0  0  0  0  3  0  0  0  0  0  0
  181.7690  177.7080  141.0420 O   0  0  0  0  0  0  0  0  0  0  0  0
  186.5620  177.8800  145.2910 C   0  0  0  0  0  0  0  0  0  0  0  0
  182.7530  179.3110  143.9830 C   0  0  0  0  0  3  0  0  0  0  0  0
  185.5330  178.1660  146.1870 C   0  0  0  0  0  3  0  0  0  0  0  0
  182.0890  179.1860  142.8390 C   0  0  0  0  0  0  0  0  0  0  0  0
  183.9110  178.6030  141.1910 N   0  0  0  0  0  0  0  0  0  0  0  0
  182.5810  178.4230  141.6890 C   0  0  0  0  0  0  0  0  0  0  0  0
  185.1210  178.4920  143.4250 C   0  0  0  0  0  0  0  0  0  0  0  0
  184.0730  178.7730  144.3350 C   0  0  0  0  0  0  0  0  0  0  0  0
  179.7060  180.2090  142.7260 N   0  0  0  0  0  0  0  0  0  0  0  0
  180.7690  179.7530  142.7760 C   0  0  0  0  0  0  0  0  0  0  0  0
  187.8890  177.4330  145.7940 C   0  0  0  0  0  2  0  0  0  0  0  0
  188.9390  177.9580  144.9380 N   0  0  0  0  0  2  0  0  0  0  0  0
  190.3190  175.6300  142.4520 O   0  0  0  0  0  1  0  0  0  0  0  0
  189.4410  177.8420  142.2830 O   0  0  0  0  0  1  0  0  0  0  0  0
  189.7670  176.8280  144.5510 C   0  0  1  0  0  3  0  0  0  0  0  0
  190.0450  176.8530  143.0610 C   0  0  0  0  0  0  0  0  0  0  0  0
  191.1050  177.3410  144.0110 C   0  0  0  0  0  2  0  0  0  0  0  0
  184.1290  178.5660  139.7510 C   0  0  0  0  0  2  0  0  0  0  0  0
  183.4470  179.7510  139.0930 C   0  0  0  0  0  2  0  0  0  0  0  0
  182.5530  179.2960  138.1270 O   0  0  0  0  0  0  0  0  0  0  0  0
  181.5640  180.2780  138.0740 C   0  0  0  0  0  2  0  0  0  0  0  0
  181.2150  180.6570  139.3680 O   0  0  0  0  0  1  0  0  0  0  0  0
  1 11  1  0  0  0  0
  2  7  1  0  0  0  0
  3  5  1  0  0  0  0
  4 10  2  0  0  0  0
  5 15  1  0  0  0  0
  5  7  2  0  0  0  0
  6 12  1  0  0  0  0
  8  6  2  0  0  0  0
  9 10  1  0  0  0  0
  9  1  1  0  0  0  0
 10  8  1  0  0  0  0
 11  3  2  0  0  0  0
 11 12  1  0  0  0  0
 12  2  2  0  0  0  0
 13 14  3  0  0  0  0
 14  8  1  0  0  0  0
 16 15  1  0  0  0  0
 17 20  1  0  0  0  0
 18 20  1  0  0  0  0
 19 16  1  6  0  0  0
 20 21  1  0  0  0  0
 20 19  1  0  0  0  0
 21 19  1  0  0  0  0
 22  9  1  0  0  0  0
 23 22  1  0  0  0  0
 24 23  1  0  0  0  0
 25 24  1  0  0  0  0
 25 26  1  0  0  0  0
M  END
>  <MODEL>
9

>  <REMARK>
 VINA RESULT:      -6.8      2.249      7.290
  Name = 
  8 active torsions:
  status: ('A' for Active; 'I' for Inactive)
    1  A    between atoms: C_1  and  C_8
    2  A    between atoms: C_1  and  N_15
    3  A    between atoms: C_5  and  N_13
    4  A    between atoms: C_5  and  C_21
    5  A    between atoms: C_6  and  O_26
    6  A    between atoms: C_12  and  C_19
    7  A    between atoms: N_15  and  C_17
    8  A    between atoms: C_21  and  O_26
                            x       y       z     vdW  Elec       q    Type
                         _______ _______ _______ _____ _____    ______ ____

>  <TORSDO>
F 8

$$$$
