=
 OpenBabel10222415253D

 47 52  0  0  1  0  0  0  0  0999 V2000
  188.7840  178.9150  137.3160 C   0  0  0  0  0  2  0  0  0  0  0  0
  188.1570  174.1950  136.2440 C   0  0  0  0  0  0  0  0  0  0  0  0
  189.5840  174.6700  136.1110 C   0  0  1  0  0  3  0  0  0  0  0  0
  185.9360  174.4300  137.2010 C   0  0  0  0  0  3  0  0  0  0  0  0
  189.7600  176.1340  136.5430 C   0  0  2  0  0  3  0  0  0  0  0  0
  187.6660  176.0040  137.8040 O   0  0  0  0  0  0  0  0  0  0  0  0
  187.7270  173.0680  135.5340 C   0  0  0  0  0  3  0  0  0  0  0  0
  185.5050  173.3110  136.4810 C   0  0  0  0  0  0  0  0  0  0  0  0
  189.2020  177.8460  138.3360 C   0  0  2  0  0  3  0  0  0  0  0  0
  188.1100  178.3250  136.0840 C   0  0  0  0  0  2  0  0  0  0  0  0
  187.2560  174.8730  137.0910 C   0  0  0  0  0  0  0  0  0  0  0  0
  189.0390  176.3930  137.8760 C   0  0  2  0  0  3  0  0  0  0  0  0
  189.2690  177.2520  135.1650 S   0  0  0  0  0  0  0  0  0  0  0  0
  186.4080  172.6230  135.6570 C   0  0  0  0  0  3  0  0  0  0  0  0
  183.8090  170.2510  136.0410 C   0  0  0  0  0  2  0  0  0  0  0  0
  183.1340  173.9360  136.4780 N   0  0  0  0  0  0  0  0  0  0  0  0
  184.0980  172.8360  136.6560 C   0  0  1  0  0  3  0  0  0  0  0  0
  181.1950  172.7410  135.5080 N   0  0  0  0  0  0  0  0  0  0  0  0
  181.9060  173.9110  136.0040 C   0  0  0  0  0  3  0  0  0  0  0  0
  182.6570  171.1060  136.5050 C   0  0  1  0  0  3  0  0  0  0  0  0
  183.7810  171.7230  135.6960 C   0  0  2  0  0  3  0  0  0  0  0  0
  181.5000  171.4770  135.6640 C   0  0  0  0  0  0  0  0  0  0  0  0
  179.5740  169.9360  135.7590 C   0  0  0  0  0  1  0  0  0  0  0  0
  180.7150  170.4700  135.0970 O   0  0  0  0  0  0  0  0  0  0  0  0
  191.7370  174.1460  137.1910 C   0  0  0  0  0  0  0  0  0  0  0  0
  192.9270  174.5440  137.5630 C   0  0  0  0  0  3  0  0  0  0  0  0
  190.5450  173.7570  136.8160 C   0  0  0  0  0  3  0  0  0  0  0  0
  196.3370  173.0360  138.2310 C   0  0  0  0  0  3  0  0  0  0  0  0
  195.2590  171.8250  136.4330 C   0  0  0  0  0  3  0  0  0  0  0  0
  194.1450  172.6620  136.5360 C   0  0  0  0  0  3  0  0  0  0  0  0
  196.3620  172.0050  137.2830 C   0  0  0  0  0  0  0  0  0  0  0  0
  194.1190  173.6880  137.4850 C   0  0  0  0  0  0  0  0  0  0  0  0
  195.2220  173.8740  138.3330 C   0  0  0  0  0  3  0  0  0  0  0  0
  197.4880  171.1840  137.2070 O   0  0  0  0  0  0  0  0  0  0  0  0
  197.4540  169.8060  137.5540 C   0  0  0  0  0  1  0  0  0  0  0  0
  188.6080  178.1030  139.7190 C   0  0  0  0  0  2  0  0  0  0  0  0
  189.2690  177.2910  140.7350 N   0  0  0  0  0  2  0  0  0  0  0  0
  188.6780  177.6450  142.0150 C   0  0  0  0  0  2  0  0  0  0  0  0
  189.3680  176.8800  143.1290 C   0  0  0  0  0  2  0  0  0  0  0  0
  189.4070  177.7120  144.3750 C   0  0  0  0  0  0  0  0  0  0  0  0
  190.1290  178.6970  144.4080 O   0  0  0  0  0  0  0  0  0  0  0  0
  188.5970  177.3590  145.5960 C   0  0  1  0  0  3  0  0  0  0  0  0
  189.2020  177.9010  146.7350 O   0  0  0  0  0  0  0  0  0  0  0  0
  189.9610  176.8610  147.2740 C   0  0  0  0  0  1  0  0  0  0  0  0
  187.1490  177.8430  145.5030 C   0  0  0  0  0  2  0  0  0  0  0  0
  186.6580  178.1270  146.7780 O   0  0  0  0  0  0  0  0  0  0  0  0
  185.3080  178.4130  146.5750 C   0  0  0  0  0  1  0  0  0  0  0  0
  1  9  1  0  0  0  0
  2 11  1  0  0  0  0
  3  2  1  0  0  0  0
  3  5  1  0  0  0  0
  3 27  1  1  0  0  0
  5 13  1  6  0  0  0
  5 12  1  0  0  0  0
  7 14  1  0  0  0  0
  7  2  2  0  0  0  0
  8  4  1  0  0  0  0
  9 36  1  1  0  0  0
 10  1  1  0  0  0  0
 11  4  2  0  0  0  0
 11  6  1  0  0  0  0
 12  6  1  6  0  0  0
 12  9  1  0  0  0  0
 13 10  1  0  0  0  0
 14  8  2  0  0  0  0
 16 17  1  0  0  0  0
 17  8  1  6  0  0  0
 18 22  2  0  0  0  0
 18 19  1  0  0  0  0
 19 16  2  0  0  0  0
 20 15  1  6  0  0  0
 21 15  1  1  0  0  0
 21 20  1  0  0  0  0
 21 17  1  0  0  0  0
 22 20  1  0  0  0  0
 24 22  1  0  0  0  0
 24 23  1  0  0  0  0
 25 26  2  0  0  0  0
 27 25  2  0  0  0  0
 28 33  1  0  0  0  0
 29 30  2  0  0  0  0
 29 31  1  0  0  0  0
 30 32  1  0  0  0  0
 31 28  2  0  0  0  0
 32 26  1  0  0  0  0
 32 33  2  0  0  0  0
 34 31  1  0  0  0  0
 34 35  1  0  0  0  0
 36 37  1  0  0  0  0
 37 38  1  0  0  0  0
 38 39  1  0  0  0  0
 39 40  1  0  0  0  0
 40 41  2  0  0  0  0
 40 42  1  0  0  0  0
 42 45  1  6  0  0  0
 42 43  1  0  0  0  0
 43 44  1  0  0  0  0
 45 46  1  0  0  0  0
 47 46  1  0  0  0  0
M  END
>  <MODEL>
1

>  <REMARK>
 VINA RESULT:      -6.9      0.000      0.000
  Name = 
  14 active torsions:
  status: ('A' for Active; 'I' for Inactive)
    1  A    between atoms: C_6  and  C_17
    2  A    between atoms: C_6  and  O_19
    3  A    between atoms: O_8  and  C_24
    4  A    between atoms: C_11  and  N_23
    5  A    between atoms: C_11  and  C_41
    6  A    between atoms: C_12  and  C_27
    7  A    between atoms: C_13  and  C_44
    8  A    between atoms: O_14  and  C_17
    9  A    between atoms: C_17  and  C_30
   10  A    between atoms: C_22  and  N_23
   11  A    between atoms: C_22  and  C_34
   12  A    between atoms: C_25  and  C_43
   13  A    between atoms: C_30  and  C_41
   14  A    between atoms: O_35  and  C_46
                            x       y       z     vdW  Elec       q    Type
                         _______ _______ _______ _____ _____    ______ ____

>  <TORSDO>
F 14

$$$$
=
 OpenBabel10222415253D

 47 52  0  0  1  0  0  0  0  0999 V2000
  178.9320  177.6240  138.8520 C   0  0  0  0  0  2  0  0  0  0  0  0
  183.5470  178.5130  140.1670 C   0  0  0  0  0  0  0  0  0  0  0  0
  182.5320  178.8250  141.2410 C   0  0  1  0  0  3  0  0  0  0  0  0
  184.1910  177.3040  138.1610 C   0  0  0  0  0  3  0  0  0  0  0  0
  181.1010  178.4490  140.8260 C   0  0  2  0  0  3  0  0  0  0  0  0
  182.0030  176.9440  139.1170 O   0  0  0  0  0  0  0  0  0  0  0  0
  184.7960  179.1420  140.1840 C   0  0  0  0  0  3  0  0  0  0  0  0
  185.4350  177.9440  138.1710 C   0  0  0  0  0  0  0  0  0  0  0  0
  179.6570  176.6380  139.7800 C   0  0  2  0  0  3  0  0  0  0  0  0
  179.8320  178.7540  138.3710 C   0  0  0  0  0  2  0  0  0  0  0  0
  183.2480  177.5800  139.1540 C   0  0  0  0  0  0  0  0  0  0  0  0
  181.0740  177.0440  140.1990 C   0  0  2  0  0  3  0  0  0  0  0  0
  180.3870  179.7810  139.7760 S   0  0  0  0  0  0  0  0  0  0  0  0
  185.7410  178.8550  139.1940 C   0  0  0  0  0  3  0  0  0  0  0  0
  186.6870  174.9520  136.7890 C   0  0  0  0  0  2  0  0  0  0  0  0
  187.4710  178.6360  136.9950 N   0  0  0  0  0  0  0  0  0  0  0  0
  186.4390  177.5920  137.1200 C   0  0  1  0  0  3  0  0  0  0  0  0
  189.4540  177.2940  136.3640 N   0  0  0  0  0  0  0  0  0  0  0  0
  188.7420  178.5260  136.6700 C   0  0  0  0  0  3  0  0  0  0  0  0
  187.4910  175.9470  135.9900 C   0  0  1  0  0  3  0  0  0  0  0  0
  187.0870  176.2680  137.4160 C   0  0  2  0  0  3  0  0  0  0  0  0
  188.9560  176.1120  136.0930 C   0  0  0  0  0  0  0  0  0  0  0  0
  190.4800  174.3390  136.8830 C   0  0  0  0  0  1  0  0  0  0  0  0
  189.7880  175.0190  135.8420 O   0  0  0  0  0  0  0  0  0  0  0  0
  183.6150  178.8670  143.4550 C   0  0  0  0  0  0  0  0  0  0  0  0
  184.3180  179.5230  144.3440 C   0  0  0  0  0  3  0  0  0  0  0  0
  182.9110  178.2200  142.5620 C   0  0  0  0  0  3  0  0  0  0  0  0
  187.5170  177.8240  145.4510 C   0  0  0  0  0  3  0  0  0  0  0  0
  186.0780  178.1600  147.3690 C   0  0  0  0  0  3  0  0  0  0  0  0
  185.1190  178.7540  146.5450 C   0  0  0  0  0  3  0  0  0  0  0  0
  187.2860  177.6930  146.8260 C   0  0  0  0  0  0  0  0  0  0  0  0
  185.3510  178.8890  145.1740 C   0  0  0  0  0  0  0  0  0  0  0  0
  186.5560  178.4190  144.6270 C   0  0  0  0  0  3  0  0  0  0  0  0
  188.2660  177.0970  147.6220 O   0  0  0  0  0  0  0  0  0  0  0  0
  189.5230  176.6820  147.1050 C   0  0  0  0  0  1  0  0  0  0  0  0
  179.5750  175.2000  139.2730 C   0  0  0  0  0  2  0  0  0  0  0  0
  179.7400  175.1420  137.8260 N   0  0  0  0  0  2  0  0  0  0  0  0
  179.7090  173.7390  137.4480 C   0  0  0  0  0  2  0  0  0  0  0  0
  179.9570  173.6010  135.9570 C   0  0  0  0  0  2  0  0  0  0  0  0
  180.7450  172.3570  135.6810 C   0  0  0  0  0  0  0  0  0  0  0  0
  180.1510  171.3320  135.3830 O   0  0  0  0  0  0  0  0  0  0  0  0
  182.2490  172.3270  135.7800 C   0  0  1  0  0  3  0  0  0  0  0  0
  182.7440  173.6340  135.8290 O   0  0  0  0  0  0  0  0  0  0  0  0
  183.2890  173.7700  137.1070 C   0  0  0  0  0  1  0  0  0  0  0  0
  182.7440  171.5430  136.9970 C   0  0  0  0  0  2  0  0  0  0  0  0
  183.8630  170.7850  136.6520 O   0  0  0  0  0  0  0  0  0  0  0  0
  183.3600  169.7800  135.8250 C   0  0  0  0  0  1  0  0  0  0  0  0
  1  9  1  0  0  0  0
  2  7  1  0  0  0  0
  2  3  1  0  0  0  0
  3 27  1  1  0  0  0
  4  8  2  0  0  0  0
  4 11  1  0  0  0  0
  5 13  1  6  0  0  0
  5  3  1  0  0  0  0
  6 11  1  0  0  0  0
  8 14  1  0  0  0  0
  9 36  1  6  0  0  0
  9 12  1  0  0  0  0
 10  1  1  0  0  0  0
 10 13  1  0  0  0  0
 11  2  2  0  0  0  0
 12  6  1  6  0  0  0
 12  5  1  0  0  0  0
 14  7  2  0  0  0  0
 16 17  1  0  0  0  0
 17 21  1  0  0  0  0
 17  8  1  1  0  0  0
 18 19  1  0  0  0  0
 19 16  2  0  0  0  0
 20 22  1  0  0  0  0
 20 15  1  1  0  0  0
 20 21  1  0  0  0  0
 21 15  1  6  0  0  0
 22 18  2  0  0  0  0
 24 22  1  0  0  0  0
 24 23  1  0  0  0  0
 25 26  2  0  0  0  0
 26 32  1  0  0  0  0
 27 25  2  0  0  0  0
 28 31  1  0  0  0  0
 30 29  1  0  0  0  0
 31 29  2  0  0  0  0
 31 34  1  0  0  0  0
 32 30  2  0  0  0  0
 33 32  1  0  0  0  0
 33 28  2  0  0  0  0
 35 34  1  0  0  0  0
 37 36  1  0  0  0  0
 38 37  1  0  0  0  0
 39 38  1  0  0  0  0
 40 42  1  0  0  0  0
 40 39  1  0  0  0  0
 41 40  2  0  0  0  0
 42 43  1  0  0  0  0
 42 45  1  1  0  0  0
 43 44  1  0  0  0  0
 46 45  1  0  0  0  0
 47 46  1  0  0  0  0
M  END
>  <MODEL>
2

>  <REMARK>
 VINA RESULT:      -6.9      3.638     10.687
  Name = 
  14 active torsions:
  status: ('A' for Active; 'I' for Inactive)
    1  A    between atoms: C_6  and  C_17
    2  A    between atoms: C_6  and  O_19
    3  A    between atoms: O_8  and  C_24
    4  A    between atoms: C_11  and  N_23
    5  A    between atoms: C_11  and  C_41
    6  A    between atoms: C_12  and  C_27
    7  A    between atoms: C_13  and  C_44
    8  A    between atoms: O_14  and  C_17
    9  A    between atoms: C_17  and  C_30
   10  A    between atoms: C_22  and  N_23
   11  A    between atoms: C_22  and  C_34
   12  A    between atoms: C_25  and  C_43
   13  A    between atoms: C_30  and  C_41
   14  A    between atoms: O_35  and  C_46
                            x       y       z     vdW  Elec       q    Type
                         _______ _______ _______ _____ _____    ______ ____

>  <TORSDO>
F 14

$$$$
=
 OpenBabel10222415253D

 47 52  0  0  1  0  0  0  0  0999 V2000
  188.8730  178.9040  137.5100 C   0  0  0  0  0  2  0  0  0  0  0  0
  188.2260  174.3160  135.9770 C   0  0  0  0  0  0  0  0  0  0  0  0
  189.6730  174.7410  136.0470 C   0  0  1  0  0  3  0  0  0  0  0  0
  185.9180  174.5640  136.6930 C   0  0  0  0  0  3  0  0  0  0  0  0
  189.8440  176.1570  136.6180 C   0  0  2  0  0  3  0  0  0  0  0  0
  187.6140  176.0120  137.6190 O   0  0  0  0  0  0  0  0  0  0  0  0
  187.8470  173.2680  135.1300 C   0  0  0  0  0  3  0  0  0  0  0  0
  185.5380  173.5250  135.8360 C   0  0  0  0  0  0  0  0  0  0  0  0
  189.1360  177.7400  138.4760 C   0  0  2  0  0  3  0  0  0  0  0  0
  188.3290  178.4440  136.1640 C   0  0  0  0  0  2  0  0  0  0  0  0
  187.2550  174.9600  136.7710 C   0  0  0  0  0  0  0  0  0  0  0  0
  188.9810  176.3360  137.8790 C   0  0  2  0  0  3  0  0  0  0  0  0
  189.5520  177.4010  135.2940 S   0  0  0  0  0  0  0  0  0  0  0  0
  186.5090  172.8690  135.0640 C   0  0  0  0  0  3  0  0  0  0  0  0
  182.4180  175.1560  136.0330 C   0  0  0  0  0  2  0  0  0  0  0  0
  183.9500  171.7200  136.3160 N   0  0  0  0  0  0  0  0  0  0  0  0
  184.1060  173.0960  135.8100 C   0  0  1  0  0  3  0  0  0  0  0  0
  181.7140  171.8350  137.3720 N   0  0  0  0  0  0  0  0  0  0  0  0
  182.9460  171.1730  136.9680 C   0  0  0  0  0  3  0  0  0  0  0  0
  181.9430  173.7300  135.9030 C   0  0  1  0  0  3  0  0  0  0  0  0
  183.2470  174.0330  136.6140 C   0  0  2  0  0  3  0  0  0  0  0  0
  181.2360  172.9850  136.9660 C   0  0  0  0  0  0  0  0  0  0  0  0
  179.8960  173.8600  138.8440 C   0  0  0  0  0  1  0  0  0  0  0  0
  180.0390  173.4910  137.4780 O   0  0  0  0  0  0  0  0  0  0  0  0
  191.7970  173.9100  136.9820 C   0  0  0  0  0  0  0  0  0  0  0  0
  193.0770  174.0930  137.1850 C   0  0  0  0  0  3  0  0  0  0  0  0
  190.5170  173.7350  136.7760 C   0  0  0  0  0  3  0  0  0  0  0  0
  194.8190  170.8560  136.2720 C   0  0  0  0  0  3  0  0  0  0  0  0
  196.2030  172.1070  137.8150 C   0  0  0  0  0  3  0  0  0  0  0  0
  195.2390  173.1180  137.8600 C   0  0  0  0  0  3  0  0  0  0  0  0
  195.9990  170.9700  137.0180 C   0  0  0  0  0  0  0  0  0  0  0  0
  194.0630  173.0070  137.1130 C   0  0  0  0  0  0  0  0  0  0  0  0
  193.8550  171.8680  136.3170 C   0  0  0  0  0  3  0  0  0  0  0  0
  196.9430  169.9440  136.9480 O   0  0  0  0  0  0  0  0  0  0  0  0
  198.2460  170.0640  137.5040 C   0  0  0  0  0  1  0  0  0  0  0  0
  188.3930  177.9080  139.8000 C   0  0  0  0  0  2  0  0  0  0  0  0
  189.0860  177.2200  140.8830 N   0  0  0  0  0  2  0  0  0  0  0  0
  188.5410  177.7300  142.1300 C   0  0  0  0  0  2  0  0  0  0  0  0
  188.5540  176.6370  143.1830 C   0  0  0  0  0  2  0  0  0  0  0  0
  189.7870  176.7520  144.0270 C   0  0  0  0  0  0  0  0  0  0  0  0
  190.7940  176.1480  143.6900 O   0  0  0  0  0  0  0  0  0  0  0  0
  189.8160  177.5730  145.2900 C   0  0  1  0  0  3  0  0  0  0  0  0
  188.5260  178.0280  145.5850 O   0  0  0  0  0  0  0  0  0  0  0  0
  188.2080  177.4490  146.8150 C   0  0  0  0  0  1  0  0  0  0  0  0
  190.3740  176.7980  146.4850 C   0  0  0  0  0  2  0  0  0  0  0  0
  191.7520  176.9860  146.5740 O   0  0  0  0  0  0  0  0  0  0  0  0
  192.2320  175.7950  147.1180 C   0  0  0  0  0  1  0  0  0  0  0  0
  1  9  1  0  0  0  0
  2  3  1  0  0  0  0
  2 11  1  0  0  0  0
  3  5  1  0  0  0  0
  3 27  1  1  0  0  0
  4 11  2  0  0  0  0
  5 13  1  6  0  0  0
  5 12  1  0  0  0  0
  7  2  2  0  0  0  0
  8  4  1  0  0  0  0
  9 36  1  1  0  0  0
 10  1  1  0  0  0  0
 11  6  1  0  0  0  0
 12  6  1  6  0  0  0
 12  9  1  0  0  0  0
 13 10  1  0  0  0  0
 14  7  1  0  0  0  0
 14  8  2  0  0  0  0
 16 19  2  0  0  0  0
 17  8  1  1  0  0  0
 17 16  1  0  0  0  0
 17 21  1  0  0  0  0
 19 18  1  0  0  0  0
 20 15  1  1  0  0  0
 20 21  1  0  0  0  0
 20 22  1  0  0  0  0
 21 15  1  6  0  0  0
 22 18  2  0  0  0  0
 22 24  1  0  0  0  0
 24 23  1  0  0  0  0
 25 26  2  0  0  0  0
 27 25  2  0  0  0  0
 28 33  2  0  0  0  0
 28 31  1  0  0  0  0
 29 30  1  0  0  0  0
 31 29  2  0  0  0  0
 32 26  1  0  0  0  0
 32 30  2  0  0  0  0
 33 32  1  0  0  0  0
 34 31  1  0  0  0  0
 34 35  1  0  0  0  0
 36 37  1  0  0  0  0
 37 38  1  0  0  0  0
 38 39  1  0  0  0  0
 39 40  1  0  0  0  0
 40 42  1  0  0  0  0
 41 40  2  0  0  0  0
 42 43  1  0  0  0  0
 42 45  1  1  0  0  0
 43 44  1  0  0  0  0
 45 46  1  0  0  0  0
 46 47  1  0  0  0  0
M  END
>  <MODEL>
3

>  <REMARK>
 VINA RESULT:      -6.7      1.350      2.307
  Name = 
  14 active torsions:
  status: ('A' for Active; 'I' for Inactive)
    1  A    between atoms: C_6  and  C_17
    2  A    between atoms: C_6  and  O_19
    3  A    between atoms: O_8  and  C_24
    4  A    between atoms: C_11  and  N_23
    5  A    between atoms: C_11  and  C_41
    6  A    between atoms: C_12  and  C_27
    7  A    between atoms: C_13  and  C_44
    8  A    between atoms: O_14  and  C_17
    9  A    between atoms: C_17  and  C_30
   10  A    between atoms: C_22  and  N_23
   11  A    between atoms: C_22  and  C_34
   12  A    between atoms: C_25  and  C_43
   13  A    between atoms: C_30  and  C_41
   14  A    between atoms: O_35  and  C_46
                            x       y       z     vdW  Elec       q    Type
                         _______ _______ _______ _____ _____    ______ ____

>  <TORSDO>
F 14

$$$$
=
 OpenBabel10222415253D

 47 52  0  0  1  0  0  0  0  0999 V2000
  191.0830  175.3900  134.6920 C   0  0  0  0  0  2  0  0  0  0  0  0
  187.7430  177.0800  137.8220 C   0  0  0  0  0  0  0  0  0  0  0  0
  187.1950  176.7680  136.4510 C   0  0  1  0  0  3  0  0  0  0  0  0
  189.4160  176.7460  139.5520 C   0  0  0  0  0  3  0  0  0  0  0  0
  188.2530  176.1540  135.5200 C   0  0  2  0  0  3  0  0  0  0  0  0
  189.5950  175.5320  137.4710 O   0  0  0  0  0  0  0  0  0  0  0  0
  187.0780  177.9940  138.6480 C   0  0  0  0  0  3  0  0  0  0  0  0
  188.7580  177.6690  140.3710 C   0  0  0  0  0  0  0  0  0  0  0  0
  190.0940  174.4120  135.3420 C   0  0  2  0  0  3  0  0  0  0  0  0
  190.9370  176.8130  135.2130 C   0  0  0  0  0  2  0  0  0  0  0  0
  188.9140  176.4440  138.2840 C   0  0  0  0  0  0  0  0  0  0  0  0
  189.0340  175.0480  136.2490 C   0  0  2  0  0  3  0  0  0  0  0  0
  189.2920  177.4890  134.7930 S   0  0  0  0  0  0  0  0  0  0  0  0
  187.5790  178.2830  139.9200 C   0  0  0  0  0  3  0  0  0  0  0  0
  191.8700  177.2530  141.9750 C   0  0  0  0  0  2  0  0  0  0  0  0
  188.2310  177.8690  142.7560 N   0  0  0  0  0  0  0  0  0  0  0  0
  189.2960  177.9350  141.7400 C   0  0  1  0  0  3  0  0  0  0  0  0
  189.4740  177.0080  144.7170 N   0  0  0  0  0  0  0  0  0  0  0  0
  188.2920  177.4890  144.0160 C   0  0  0  0  0  3  0  0  0  0  0  0
  191.0780  177.8330  143.1200 C   0  0  1  0  0  3  0  0  0  0  0  0
  190.3900  176.9630  142.0870 C   0  0  2  0  0  3  0  0  0  0  0  0
  190.7290  177.0960  144.3530 C   0  0  0  0  0  0  0  0  0  0  0  0
  191.6990  176.5750  146.5620 C   0  0  0  0  0  1  0  0  0  0  0  0
  191.7490  176.5560  145.1400 O   0  0  0  0  0  0  0  0  0  0  0  0
  184.7530  176.4480  136.5490 C   0  0  0  0  0  0  0  0  0  0  0  0
  183.5560  176.9770  136.5750 C   0  0  0  0  0  3  0  0  0  0  0  0
  185.9530  175.9270  136.5210 C   0  0  0  0  0  3  0  0  0  0  0  0
  180.3910  175.1890  137.6400 C   0  0  0  0  0  3  0  0  0  0  0  0
  181.4440  176.1860  139.5790 C   0  0  0  0  0  3  0  0  0  0  0  0
  182.4660  176.6850  138.7680 C   0  0  0  0  0  3  0  0  0  0  0  0
  180.4000  175.4320  139.0190 C   0  0  0  0  0  0  0  0  0  0  0  0
  182.4600  176.4380  137.3920 C   0  0  0  0  0  0  0  0  0  0  0  0
  181.4150  175.6880  136.8290 C   0  0  0  0  0  3  0  0  0  0  0  0
  179.3650  174.9170  139.8020 O   0  0  0  0  0  0  0  0  0  0  0  0
  179.5660  173.8740  140.7460 C   0  0  0  0  0  1  0  0  0  0  0  0
  190.7990  173.2240  135.9940 C   0  0  0  0  0  2  0  0  0  0  0  0
  192.2370  173.4460  136.0770 N   0  0  0  0  0  2  0  0  0  0  0  0
  192.8730  172.1400  136.0670 C   0  0  0  0  0  2  0  0  0  0  0  0
  194.3490  172.2870  135.7440 C   0  0  0  0  0  2  0  0  0  0  0  0
  194.9710  173.3100  136.6450 C   0  0  0  0  0  0  0  0  0  0  0  0
  194.8930  173.1600  137.8550 O   0  0  0  0  0  0  0  0  0  0  0  0
  195.6720  174.5290  136.1040 C   0  0  1  0  0  3  0  0  0  0  0  0
  195.1210  175.6810  136.6760 O   0  0  0  0  0  0  0  0  0  0  0  0
  194.5860  176.3990  135.6050 C   0  0  0  0  0  1  0  0  0  0  0  0
  197.1810  174.5020  136.3540 C   0  0  0  0  0  2  0  0  0  0  0  0
  197.5190  175.4350  137.3340 O   0  0  0  0  0  0  0  0  0  0  0  0
  198.1180  174.6800  138.3420 C   0  0  0  0  0  1  0  0  0  0  0  0
  1 10  1  0  0  0  0
  1  9  1  0  0  0  0
  2 11  2  0  0  0  0
  2  7  1  0  0  0  0
  3 27  1  1  0  0  0
  3  2  1  0  0  0  0
  4  8  2  0  0  0  0
  5 13  1  1  0  0  0
  5 12  1  0  0  0  0
  5  3  1  0  0  0  0
  6 11  1  0  0  0  0
  7 14  2  0  0  0  0
  9 36  1  1  0  0  0
  9 12  1  0  0  0  0
 11  4  1  0  0  0  0
 12  6  1  1  0  0  0
 13 10  1  0  0  0  0
 14  8  1  0  0  0  0
 16 19  2  0  0  0  0
 17  8  1  6  0  0  0
 17 21  1  0  0  0  0
 17 16  1  0  0  0  0
 19 18  1  0  0  0  0
 20 15  1  6  0  0  0
 20 22  1  0  0  0  0
 21 15  1  6  0  0  0
 21 20  1  0  0  0  0
 22 18  2  0  0  0  0
 22 24  1  0  0  0  0
 24 23  1  0  0  0  0
 25 26  2  0  0  0  0
 26 32  1  0  0  0  0
 27 25  2  0  0  0  0
 28 31  1  0  0  0  0
 30 29  1  0  0  0  0
 31 29  2  0  0  0  0
 31 34  1  0  0  0  0
 32 30  2  0  0  0  0
 33 32  1  0  0  0  0
 33 28  2  0  0  0  0
 34 35  1  0  0  0  0
 36 37  1  0  0  0  0
 38 37  1  0  0  0  0
 39 38  1  0  0  0  0
 39 40  1  0  0  0  0
 40 41  2  0  0  0  0
 42 45  1  1  0  0  0
 42 40  1  0  0  0  0
 42 43  1  0  0  0  0
 44 43  1  0  0  0  0
 45 46  1  0  0  0  0
 46 47  1  0  0  0  0
M  END
>  <MODEL>
4

>  <REMARK>
 VINA RESULT:      -6.6      3.537     10.894
  Name = 
  14 active torsions:
  status: ('A' for Active; 'I' for Inactive)
    1  A    between atoms: C_6  and  C_17
    2  A    between atoms: C_6  and  O_19
    3  A    between atoms: O_8  and  C_24
    4  A    between atoms: C_11  and  N_23
    5  A    between atoms: C_11  and  C_41
    6  A    between atoms: C_12  and  C_27
    7  A    between atoms: C_13  and  C_44
    8  A    between atoms: O_14  and  C_17
    9  A    between atoms: C_17  and  C_30
   10  A    between atoms: C_22  and  N_23
   11  A    between atoms: C_22  and  C_34
   12  A    between atoms: C_25  and  C_43
   13  A    between atoms: C_30  and  C_41
   14  A    between atoms: O_35  and  C_46
                            x       y       z     vdW  Elec       q    Type
                         _______ _______ _______ _____ _____    ______ ____

>  <TORSDO>
F 14

$$$$
=
 OpenBabel10222415253D

 47 52  0  0  1  0  0  0  0  0999 V2000
  180.6650  179.5250  142.3230 C   0  0  0  0  0  2  0  0  0  0  0  0
  182.7840  177.6740  138.3360 C   0  0  0  0  0  0  0  0  0  0  0  0
  183.1230  179.1220  138.5950 C   0  0  1  0  0  3  0  0  0  0  0  0
  182.0550  175.5020  139.1430 C   0  0  0  0  0  3  0  0  0  0  0  0
  182.5130  179.6450  139.9040 C   0  0  2  0  0  3  0  0  0  0  0  0
  182.2580  177.3410  140.6940 O   0  0  0  0  0  0  0  0  0  0  0  0
  182.8890  177.1530  137.0410 C   0  0  0  0  0  3  0  0  0  0  0  0
  182.1480  174.9860  137.8460 C   0  0  0  0  0  0  0  0  0  0  0  0
  182.1500  179.1370  142.3680 C   0  0  2  0  0  3  0  0  0  0  0  0
  180.0010  179.1730  140.9990 C   0  0  0  0  0  2  0  0  0  0  0  0
  182.3740  176.8380  139.3950 C   0  0  0  0  0  0  0  0  0  0  0  0
  182.7430  178.6390  141.0450 C   0  0  2  0  0  3  0  0  0  0  0  0
  180.7550  180.1160  139.6270 S   0  0  0  0  0  0  0  0  0  0  0  0
  182.5790  175.8120  136.7970 C   0  0  0  0  0  3  0  0  0  0  0  0
  184.0440  172.0930  137.1630 C   0  0  0  0  0  2  0  0  0  0  0  0
  180.4920  173.3580  137.0620 N   0  0  0  0  0  0  0  0  0  0  0  0
  181.8440  173.5390  137.6190 C   0  0  1  0  0  3  0  0  0  0  0  0
  180.8090  171.3530  135.6450 N   0  0  0  0  0  0  0  0  0  0  0  0
  180.0390  172.4370  136.2360 C   0  0  0  0  0  3  0  0  0  0  0  0
  182.6640  171.4850  137.1760 C   0  0  1  0  0  3  0  0  0  0  0  0
  182.8590  172.9120  136.7040 C   0  0  2  0  0  3  0  0  0  0  0  0
  181.9920  170.9100  135.9920 C   0  0  0  0  0  0  0  0  0  0  0  0
  183.8950  169.9970  134.7120 C   0  0  0  0  0  1  0  0  0  0  0  0
  182.6040  169.8650  135.2960 O   0  0  0  0  0  0  0  0  0  0  0  0
  185.4280  178.5410  137.9420 C   0  0  0  0  0  0  0  0  0  0  0  0
  186.2470  177.7050  137.3550 C   0  0  0  0  0  3  0  0  0  0  0  0
  184.6030  179.3710  138.5260 C   0  0  0  0  0  3  0  0  0  0  0  0
  189.5680  175.9980  137.9920 C   0  0  0  0  0  3  0  0  0  0  0  0
  189.4480  178.0360  139.2930 C   0  0  0  0  0  3  0  0  0  0  0  0
  188.1730  178.2880  138.7810 C   0  0  0  0  0  3  0  0  0  0  0  0
  190.1550  176.8890  138.9000 C   0  0  0  0  0  0  0  0  0  0  0  0
  187.5880  177.4020  137.8720 C   0  0  0  0  0  0  0  0  0  0  0  0
  188.2920  176.2510  137.4800 C   0  0  0  0  0  3  0  0  0  0  0  0
  191.4320  176.6100  139.3910 O   0  0  0  0  0  0  0  0  0  0  0  0
  192.1370  177.5040  140.2410 C   0  0  0  0  0  1  0  0  0  0  0  0
  182.4730  178.2220  143.5470 C   0  0  0  0  0  2  0  0  0  0  0  0
  182.8880  178.9930  144.7130 N   0  0  0  0  0  2  0  0  0  0  0  0
  184.2430  179.4530  144.4620 C   0  0  0  0  0  2  0  0  0  0  0  0
  185.2280  178.3320  144.7390 C   0  0  0  0  0  2  0  0  0  0  0  0
  186.0390  178.6510  145.9590 C   0  0  0  0  0  0  0  0  0  0  0  0
  185.5550  179.3660  146.8220 O   0  0  0  0  0  0  0  0  0  0  0  0
  187.4420  178.1320  146.1420 C   0  0  1  0  0  3  0  0  0  0  0  0
  187.4930  177.3010  147.2670 O   0  0  0  0  0  0  0  0  0  0  0  0
  188.4040  177.9110  148.1290 C   0  0  0  0  0  1  0  0  0  0  0  0
  187.9550  177.3720  144.9170 C   0  0  0  0  0  2  0  0  0  0  0  0
  189.3250  177.5790  144.7680 O   0  0  0  0  0  0  0  0  0  0  0  0
  189.5130  177.6820  143.3890 C   0  0  0  0  0  1  0  0  0  0  0  0
  1  9  1  0  0  0  0
  2  3  1  0  0  0  0
  2 11  1  0  0  0  0
  3 27  1  1  0  0  0
  3  5  1  0  0  0  0
  4 11  2  0  0  0  0
  5 13  1  6  0  0  0
  5 12  1  0  0  0  0
  7  2  2  0  0  0  0
  8  4  1  0  0  0  0
  9 36  1  1  0  0  0
 10  1  1  0  0  0  0
 11  6  1  0  0  0  0
 12  6  1  6  0  0  0
 12  9  1  0  0  0  0
 13 10  1  0  0  0  0
 14  7  1  0  0  0  0
 14  8  2  0  0  0  0
 16 17  1  0  0  0  0
 17  8  1  6  0  0  0
 18 22  2  0  0  0  0
 18 19  1  0  0  0  0
 19 16  2  0  0  0  0
 20 15  1  6  0  0  0
 21 15  1  1  0  0  0
 21 20  1  0  0  0  0
 21 17  1  0  0  0  0
 22 20  1  0  0  0  0
 23 24  1  0  0  0  0
 24 22  1  0  0  0  0
 25 27  2  0  0  0  0
 26 32  1  0  0  0  0
 26 25  2  0  0  0  0
 28 31  1  0  0  0  0
 30 29  1  0  0  0  0
 31 29  2  0  0  0  0
 31 34  1  0  0  0  0
 32 30  2  0  0  0  0
 33 32  1  0  0  0  0
 33 28  2  0  0  0  0
 34 35  1  0  0  0  0
 36 37  1  0  0  0  0
 38 37  1  0  0  0  0
 38 39  1  0  0  0  0
 39 40  1  0  0  0  0
 40 42  1  0  0  0  0
 40 41  2  0  0  0  0
 42 45  1  6  0  0  0
 42 43  1  0  0  0  0
 43 44  1  0  0  0  0
 46 45  1  0  0  0  0
 47 46  1  0  0  0  0
M  END
>  <MODEL>
5

>  <REMARK>
 VINA RESULT:      -6.5      3.910      6.214
  Name = 
  14 active torsions:
  status: ('A' for Active; 'I' for Inactive)
    1  A    between atoms: C_6  and  C_17
    2  A    between atoms: C_6  and  O_19
    3  A    between atoms: O_8  and  C_24
    4  A    between atoms: C_11  and  N_23
    5  A    between atoms: C_11  and  C_41
    6  A    between atoms: C_12  and  C_27
    7  A    between atoms: C_13  and  C_44
    8  A    between atoms: O_14  and  C_17
    9  A    between atoms: C_17  and  C_30
   10  A    between atoms: C_22  and  N_23
   11  A    between atoms: C_22  and  C_34
   12  A    between atoms: C_25  and  C_43
   13  A    between atoms: C_30  and  C_41
   14  A    between atoms: O_35  and  C_46
                            x       y       z     vdW  Elec       q    Type
                         _______ _______ _______ _____ _____    ______ ____

>  <TORSDO>
F 14

$$$$
=
 OpenBabel10222415253D

 47 52  0  0  1  0  0  0  0  0999 V2000
  188.9980  176.4060  134.6940 C   0  0  0  0  0  2  0  0  0  0  0  0
  187.6430  177.8480  139.1550 C   0  0  0  0  0  0  0  0  0  0  0  0
  186.5630  177.9900  138.1100 C   0  0  1  0  0  3  0  0  0  0  0  0
  189.6850  176.7970  139.9480 C   0  0  0  0  0  3  0  0  0  0  0  0
  186.9930  177.4440  136.7400 C   0  0  2  0  0  3  0  0  0  0  0  0
  188.7460  176.1250  137.8270 O   0  0  0  0  0  0  0  0  0  0  0  0
  187.6030  178.6340  140.3120 C   0  0  0  0  0  3  0  0  0  0  0  0
  189.6510  177.5930  141.0980 C   0  0  0  0  0  0  0  0  0  0  0  0
  188.0990  175.4950  135.5420 C   0  0  2  0  0  3  0  0  0  0  0  0
  189.4400  177.6580  135.4370 C   0  0  0  0  0  2  0  0  0  0  0  0
  188.6860  176.9160  138.9780 C   0  0  0  0  0  0  0  0  0  0  0  0
  187.6640  176.0690  136.8950 C   0  0  2  0  0  3  0  0  0  0  0  0
  188.0020  178.7050  135.8560 S   0  0  0  0  0  0  0  0  0  0  0  0
  188.5990  178.5030  141.2840 C   0  0  0  0  0  3  0  0  0  0  0  0
  190.6270  174.9850  143.2600 C   0  0  0  0  0  2  0  0  0  0  0  0
  191.0870  178.6940  142.7510 N   0  0  0  0  0  0  0  0  0  0  0  0
  190.7100  177.4090  142.1370 C   0  0  1  0  0  3  0  0  0  0  0  0
  191.6530  177.9910  145.0570 N   0  0  0  0  0  0  0  0  0  0  0  0
  191.4950  178.9530  143.9760 C   0  0  0  0  0  3  0  0  0  0  0  0
  191.6400  176.0280  143.6600 C   0  0  1  0  0  3  0  0  0  0  0  0
  190.2570  176.4500  143.2040 C   0  0  2  0  0  3  0  0  0  0  0  0
  191.6870  176.6830  144.9840 C   0  0  0  0  0  0  0  0  0  0  0  0
  191.6040  176.4230  147.4360 C   0  0  0  0  0  1  0  0  0  0  0  0
  191.8240  175.9000  146.1320 O   0  0  0  0  0  0  0  0  0  0  0  0
  184.1600  178.1020  138.6490 C   0  0  0  0  0  0  0  0  0  0  0  0
  183.0630  178.8120  138.7260 C   0  0  0  0  0  3  0  0  0  0  0  0
  185.2610  177.3990  138.5670 C   0  0  0  0  0  3  0  0  0  0  0  0
  179.8660  178.0410  140.6070 C   0  0  0  0  0  3  0  0  0  0  0  0
  181.5500  178.8170  142.1640 C   0  0  0  0  0  3  0  0  0  0  0  0
  182.4570  178.9630  141.1110 C   0  0  0  0  0  3  0  0  0  0  0  0
  180.2480  178.3530  141.9180 C   0  0  0  0  0  0  0  0  0  0  0  0
  182.0780  178.6480  139.8030 C   0  0  0  0  0  0  0  0  0  0  0  0
  180.7750  178.1870  139.5540 C   0  0  0  0  0  3  0  0  0  0  0  0
  179.3190  178.1940  142.9480 O   0  0  0  0  0  0  0  0  0  0  0  0
  179.6830  178.2420  144.3210 C   0  0  0  0  0  1  0  0  0  0  0  0
  188.6510  174.0750  135.6480 C   0  0  0  0  0  2  0  0  0  0  0  0
  189.7260  173.8550  134.6880 N   0  0  0  0  0  2  0  0  0  0  0  0
  190.5320  172.7560  135.1930 C   0  0  0  0  0  2  0  0  0  0  0  0
  191.2350  173.1770  136.4700 C   0  0  0  0  0  2  0  0  0  0  0  0
  192.5730  173.7690  136.1490 C   0  0  0  0  0  0  0  0  0  0  0  0
  192.8780  173.9450  134.9790 O   0  0  0  0  0  0  0  0  0  0  0  0
  193.5630  174.1360  137.2250 C   0  0  1  0  0  3  0  0  0  0  0  0
  194.3130  173.0100  137.5780 O   0  0  0  0  0  0  0  0  0  0  0  0
  195.3200  173.4910  138.4160 C   0  0  0  0  0  1  0  0  0  0  0  0
  194.5010  175.2680  136.8010 C   0  0  0  0  0  2  0  0  0  0  0  0
  193.8540  176.4960  136.9260 O   0  0  0  0  0  0  0  0  0  0  0  0
  193.1210  176.3850  138.1070 C   0  0  0  0  0  1  0  0  0  0  0  0
  1 10  1  0  0  0  0
  1  9  1  0  0  0  0
  2  7  1  0  0  0  0
  3 27  1  1  0  0  0
  3  2  1  0  0  0  0
  4  8  2  0  0  0  0
  5 13  1  1  0  0  0
  5 12  1  0  0  0  0
  5  3  1  0  0  0  0
  6 11  1  0  0  0  0
  7 14  2  0  0  0  0
  8 14  1  0  0  0  0
  9 36  1  1  0  0  0
  9 12  1  0  0  0  0
 10 13  1  0  0  0  0
 11  2  2  0  0  0  0
 11  4  1  0  0  0  0
 12  6  1  1  0  0  0
 16 19  2  0  0  0  0
 17  8  1  6  0  0  0
 17 16  1  0  0  0  0
 17 21  1  0  0  0  0
 19 18  1  0  0  0  0
 20 15  1  1  0  0  0
 20 22  1  0  0  0  0
 21 15  1  6  0  0  0
 21 20  1  0  0  0  0
 22 18  2  0  0  0  0
 22 24  1  0  0  0  0
 24 23  1  0  0  0  0
 25 26  2  0  0  0  0
 26 32  1  0  0  0  0
 27 25  2  0  0  0  0
 28 31  1  0  0  0  0
 30 29  1  0  0  0  0
 31 29  2  0  0  0  0
 31 34  1  0  0  0  0
 32 30  2  0  0  0  0
 33 32  1  0  0  0  0
 33 28  2  0  0  0  0
 34 35  1  0  0  0  0
 37 38  1  0  0  0  0
 37 36  1  0  0  0  0
 38 39  1  0  0  0  0
 40 39  1  0  0  0  0
 40 42  1  0  0  0  0
 41 40  2  0  0  0  0
 42 45  1  6  0  0  0
 42 43  1  0  0  0  0
 43 44  1  0  0  0  0
 45 46  1  0  0  0  0
 46 47  1  0  0  0  0
M  END
>  <MODEL>
6

>  <REMARK>
 VINA RESULT:      -6.4      4.050     11.244
  Name = 
  14 active torsions:
  status: ('A' for Active; 'I' for Inactive)
    1  A    between atoms: C_6  and  C_17
    2  A    between atoms: C_6  and  O_19
    3  A    between atoms: O_8  and  C_24
    4  A    between atoms: C_11  and  N_23
    5  A    between atoms: C_11  and  C_41
    6  A    between atoms: C_12  and  C_27
    7  A    between atoms: C_13  and  C_44
    8  A    between atoms: O_14  and  C_17
    9  A    between atoms: C_17  and  C_30
   10  A    between atoms: C_22  and  N_23
   11  A    between atoms: C_22  and  C_34
   12  A    between atoms: C_25  and  C_43
   13  A    between atoms: C_30  and  C_41
   14  A    between atoms: O_35  and  C_46
                            x       y       z     vdW  Elec       q    Type
                         _______ _______ _______ _____ _____    ______ ____

>  <TORSDO>
F 14

$$$$
=
 OpenBabel10222415253D

 47 52  0  0  1  0  0  0  0  0999 V2000
  179.4060  175.2150  140.0440 C   0  0  0  0  0  2  0  0  0  0  0  0
  181.5030  177.0970  136.0600 C   0  0  0  0  0  0  0  0  0  0  0  0
  179.9950  177.1710  136.0520 C   0  0  1  0  0  3  0  0  0  0  0  0
  183.6010  176.9360  137.2740 C   0  0  0  0  0  3  0  0  0  0  0  0
  179.3740  176.6530  137.3590 C   0  0  2  0  0  3  0  0  0  0  0  0
  181.5180  176.9760  138.4950 O   0  0  0  0  0  0  0  0  0  0  0  0
  182.2090  177.1270  134.8520 C   0  0  0  0  0  3  0  0  0  0  0  0
  184.3050  176.9530  136.0650 C   0  0  0  0  0  0  0  0  0  0  0  0
  179.5120  176.7390  139.8950 C   0  0  2  0  0  3  0  0  0  0  0  0
  180.0890  174.4610  138.9120 C   0  0  0  0  0  2  0  0  0  0  0  0
  182.2060  177.0120  137.2790 C   0  0  0  0  0  0  0  0  0  0  0  0
  180.1150  177.2340  138.5750 C   0  0  2  0  0  3  0  0  0  0  0  0
  179.2750  174.8160  137.3150 S   0  0  0  0  0  0  0  0  0  0  0  0
  183.6050  177.0610  134.8530 C   0  0  0  0  0  3  0  0  0  0  0  0
  186.7440  174.6090  137.0610 C   0  0  0  0  0  2  0  0  0  0  0  0
  186.3650  178.2700  136.2320 N   0  0  0  0  0  0  0  0  0  0  0  0
  185.7990  176.9160  136.0970 C   0  0  1  0  0  3  0  0  0  0  0  0
  188.4170  177.8170  137.5410 N   0  0  0  0  0  0  0  0  0  0  0  0
  187.4700  178.6640  136.8300 C   0  0  0  0  0  3  0  0  0  0  0  0
  187.6480  175.7300  136.6140 C   0  0  1  0  0  3  0  0  0  0  0  0
  186.2930  176.0450  137.2180 C   0  0  2  0  0  3  0  0  0  0  0  0
  188.5200  176.5110  137.5160 C   0  0  0  0  0  0  0  0  0  0  0  0
  190.3820  176.5440  139.1360 C   0  0  0  0  0  1  0  0  0  0  0  0
  189.4800  175.8480  138.2840 O   0  0  0  0  0  0  0  0  0  0  0  0
  180.3060  179.5770  135.6110 C   0  0  0  0  0  0  0  0  0  0  0  0
  181.1150  180.6010  135.5200 C   0  0  0  0  0  3  0  0  0  0  0  0
  179.5040  178.5470  135.7030 C   0  0  0  0  0  3  0  0  0  0  0  0
  180.4610  184.3310  135.5980 C   0  0  0  0  0  3  0  0  0  0  0  0
  179.9860  183.3850  137.7750 C   0  0  0  0  0  3  0  0  0  0  0  0
  180.3410  182.1190  137.3030 C   0  0  0  0  0  3  0  0  0  0  0  0
  180.0420  184.5000  136.9240 C   0  0  0  0  0  0  0  0  0  0  0  0
  180.7550  181.9500  135.9780 C   0  0  0  0  0  0  0  0  0  0  0  0
  180.8160  183.0640  135.1260 C   0  0  0  0  0  3  0  0  0  0  0  0
  179.6910  185.7770  137.3640 O   0  0  0  0  0  0  0  0  0  0  0  0
  179.3150  186.0470  138.7080 C   0  0  0  0  0  1  0  0  0  0  0  0
  180.1420  177.3980  141.1200 C   0  0  0  0  0  2  0  0  0  0  0  0
  179.8660  178.8300  141.1490 N   0  0  0  0  0  2  0  0  0  0  0  0
  181.0300  179.4780  141.7290 C   0  0  0  0  0  2  0  0  0  0  0  0
  182.1960  178.5080  141.7660 C   0  0  0  0  0  2  0  0  0  0  0  0
  183.1270  178.8670  142.8840 C   0  0  0  0  0  0  0  0  0  0  0  0
  182.6890  179.4770  143.8470 O   0  0  0  0  0  0  0  0  0  0  0  0
  184.5920  178.5170  142.8460 C   0  0  1  0  0  3  0  0  0  0  0  0
  185.3050  179.5450  142.2190 O   0  0  0  0  0  0  0  0  0  0  0  0
  185.7310  179.0040  141.0040 C   0  0  0  0  0  1  0  0  0  0  0  0
  185.1740  178.2620  144.2370 C   0  0  0  0  0  2  0  0  0  0  0  0
  186.5610  178.1450  144.1600 O   0  0  0  0  0  0  0  0  0  0  0  0
  186.9610  177.8760  145.4690 C   0  0  0  0  0  1  0  0  0  0  0  0
  2 11  1  0  0  0  0
  3 27  1  1  0  0  0
  3  2  1  0  0  0  0
  3  5  1  0  0  0  0
  4 11  2  0  0  0  0
  5 13  1  6  0  0  0
  5 12  1  0  0  0  0
  7 14  1  0  0  0  0
  7  2  2  0  0  0  0
  8  4  1  0  0  0  0
  9  1  1  0  0  0  0
  9 36  1  1  0  0  0
 10  1  1  0  0  0  0
 11  6  1  0  0  0  0
 12  6  1  6  0  0  0
 12  9  1  0  0  0  0
 13 10  1  0  0  0  0
 14  8  2  0  0  0  0
 16 19  2  0  0  0  0
 17  8  1  1  0  0  0
 17 16  1  0  0  0  0
 17 21  1  0  0  0  0
 19 18  1  0  0  0  0
 20 15  1  1  0  0  0
 20 21  1  0  0  0  0
 20 22  1  0  0  0  0
 21 15  1  6  0  0  0
 22 18  2  0  0  0  0
 22 24  1  0  0  0  0
 24 23  1  0  0  0  0
 25 27  2  0  0  0  0
 26 25  2  0  0  0  0
 26 32  1  0  0  0  0
 28 31  1  0  0  0  0
 30 29  1  0  0  0  0
 31 34  1  0  0  0  0
 31 29  2  0  0  0  0
 32 30  2  0  0  0  0
 33 28  2  0  0  0  0
 33 32  1  0  0  0  0
 34 35  1  0  0  0  0
 36 37  1  0  0  0  0
 37 38  1  0  0  0  0
 38 39  1  0  0  0  0
 39 40  1  0  0  0  0
 40 41  2  0  0  0  0
 42 40  1  0  0  0  0
 42 45  1  1  0  0  0
 43 42  1  0  0  0  0
 44 43  1  0  0  0  0
 46 45  1  0  0  0  0
 46 47  1  0  0  0  0
M  END
>  <MODEL>
7

>  <REMARK>
 VINA RESULT:      -6.4      5.821     11.029
  Name = 
  14 active torsions:
  status: ('A' for Active; 'I' for Inactive)
    1  A    between atoms: C_6  and  C_17
    2  A    between atoms: C_6  and  O_19
    3  A    between atoms: O_8  and  C_24
    4  A    between atoms: C_11  and  N_23
    5  A    between atoms: C_11  and  C_41
    6  A    between atoms: C_12  and  C_27
    7  A    between atoms: C_13  and  C_44
    8  A    between atoms: O_14  and  C_17
    9  A    between atoms: C_17  and  C_30
   10  A    between atoms: C_22  and  N_23
   11  A    between atoms: C_22  and  C_34
   12  A    between atoms: C_25  and  C_43
   13  A    between atoms: C_30  and  C_41
   14  A    between atoms: O_35  and  C_46
                            x       y       z     vdW  Elec       q    Type
                         _______ _______ _______ _____ _____    ______ ____

>  <TORSDO>
F 14

$$$$
=
 OpenBabel10222415253D

 47 52  0  0  1  0  0  0  0  0999 V2000
  186.0360  177.1090  136.0560 C   0  0  0  0  0  2  0  0  0  0  0  0
  181.8990  177.7250  138.5700 C   0  0  0  0  0  0  0  0  0  0  0  0
  182.6740  176.4890  138.9590 C   0  0  1  0  0  3  0  0  0  0  0  0
  181.8280  179.9560  137.6120 C   0  0  0  0  0  3  0  0  0  0  0  0
  184.0130  176.3750  138.2130 C   0  0  2  0  0  3  0  0  0  0  0  0
  183.9300  178.7720  137.7180 O   0  0  0  0  0  0  0  0  0  0  0  0
  180.5230  177.7910  138.8150 C   0  0  0  0  0  3  0  0  0  0  0  0
  180.4500  180.0150  137.8450 C   0  0  0  0  0  0  0  0  0  0  0  0
  186.0990  177.6380  137.4960 C   0  0  2  0  0  3  0  0  0  0  0  0
  184.6100  176.9280  135.5540 C   0  0  0  0  0  2  0  0  0  0  0  0
  182.5570  178.8210  137.9740 C   0  0  0  0  0  0  0  0  0  0  0  0
  184.7550  177.7230  138.2290 C   0  0  2  0  0  3  0  0  0  0  0  0
  183.7330  175.6630  136.5390 S   0  0  0  0  0  0  0  0  0  0  0  0
  179.8010  178.9340  138.4600 C   0  0  0  0  0  3  0  0  0  0  0  0
  180.6510  182.4080  135.2630 C   0  0  0  0  0  2  0  0  0  0  0  0
  179.1370  181.9080  138.6820 N   0  0  0  0  0  0  0  0  0  0  0  0
  179.7080  181.2630  137.4860 C   0  0  1  0  0  3  0  0  0  0  0  0
  179.2520  184.3000  138.0520 N   0  0  0  0  0  0  0  0  0  0  0  0
  178.9310  183.1850  138.9310 C   0  0  0  0  0  3  0  0  0  0  0  0
  179.5010  182.9880  136.0470 C   0  0  1  0  0  3  0  0  0  0  0  0
  180.6020  182.2330  136.7640 C   0  0  2  0  0  3  0  0  0  0  0  0
  179.5500  184.2720  136.7770 C   0  0  0  0  0  0  0  0  0  0  0  0
  181.1370  185.6660  135.5000 C   0  0  0  0  0  1  0  0  0  0  0  0
  179.8580  185.4440  136.0820 O   0  0  0  0  0  0  0  0  0  0  0  0
  183.0750  177.4270  141.2040 C   0  0  0  0  0  0  0  0  0  0  0  0
  183.2980  178.4760  141.9540 C   0  0  0  0  0  3  0  0  0  0  0  0
  182.8500  176.3830  140.4470 C   0  0  0  0  0  3  0  0  0  0  0  0
  186.3560  177.9420  144.1230 C   0  0  0  0  0  3  0  0  0  0  0  0
  184.6090  178.9830  145.4370 C   0  0  0  0  0  3  0  0  0  0  0  0
  183.7680  178.9780  144.3220 C   0  0  0  0  0  3  0  0  0  0  0  0
  185.9110  178.4670  145.3430 C   0  0  0  0  0  0  0  0  0  0  0  0
  184.2130  178.4590  143.1030 C   0  0  0  0  0  0  0  0  0  0  0  0
  185.5130  177.9380  143.0080 C   0  0  0  0  0  3  0  0  0  0  0  0
  186.7780  178.4590  146.4380 O   0  0  0  0  0  0  0  0  0  0  0  0
  187.8060  177.4900  146.5930 C   0  0  0  0  0  1  0  0  0  0  0  0
  186.9170  178.9220  137.6050 C   0  0  0  0  0  2  0  0  0  0  0  0
  188.2570  178.6510  138.1130 N   0  0  0  0  0  2  0  0  0  0  0  0
  188.2440  177.3040  138.6580 C   0  0  0  0  0  2  0  0  0  0  0  0
  189.3730  177.1420  139.6590 C   0  0  0  0  0  2  0  0  0  0  0  0
  188.8710  177.4090  141.0460 C   0  0  0  0  0  0  0  0  0  0  0  0
  187.6870  177.6600  141.2100 O   0  0  0  0  0  0  0  0  0  0  0  0
  189.7880  177.3990  142.2420 C   0  0  1  0  0  3  0  0  0  0  0  0
  189.5210  178.5110  143.0480 O   0  0  0  0  0  0  0  0  0  0  0  0
  190.7280  178.7910  143.6920 C   0  0  0  0  0  1  0  0  0  0  0  0
  189.6600  176.1200  143.0710 C   0  0  0  0  0  2  0  0  0  0  0  0
  190.7460  175.2800  142.8230 O   0  0  0  0  0  0  0  0  0  0  0  0
  191.6800  175.6240  143.8000 C   0  0  0  0  0  1  0  0  0  0  0  0
  1  9  1  0  0  0  0
  2  7  1  0  0  0  0
  2  3  1  0  0  0  0
  3 27  1  1  0  0  0
  4  8  2  0  0  0  0
  4 11  1  0  0  0  0
  5 13  1  6  0  0  0
  5 12  1  0  0  0  0
  5  3  1  0  0  0  0
  6 11  1  0  0  0  0
  8 14  1  0  0  0  0
  9 36  1  6  0  0  0
  9 12  1  0  0  0  0
 10  1  1  0  0  0  0
 10 13  1  0  0  0  0
 11  2  2  0  0  0  0
 12  6  1  6  0  0  0
 14  7  2  0  0  0  0
 16 19  2  0  0  0  0
 17  8  1  1  0  0  0
 17 16  1  0  0  0  0
 18 19  1  0  0  0  0
 20 15  1  6  0  0  0
 20 21  1  0  0  0  0
 20 22  1  0  0  0  0
 21 15  1  6  0  0  0
 21 17  1  0  0  0  0
 22 18  2  0  0  0  0
 23 24  1  0  0  0  0
 24 22  1  0  0  0  0
 25 26  2  0  0  0  0
 26 32  1  0  0  0  0
 27 25  2  0  0  0  0
 28 31  1  0  0  0  0
 30 29  1  0  0  0  0
 31 29  2  0  0  0  0
 31 34  1  0  0  0  0
 32 30  2  0  0  0  0
 33 32  1  0  0  0  0
 33 28  2  0  0  0  0
 34 35  1  0  0  0  0
 36 37  1  0  0  0  0
 37 38  1  0  0  0  0
 38 39  1  0  0  0  0
 39 40  1  0  0  0  0
 40 41  2  0  0  0  0
 40 42  1  0  0  0  0
 42 43  1  0  0  0  0
 42 45  1  1  0  0  0
 43 44  1  0  0  0  0
 46 45  1  0  0  0  0
 46 47  1  0  0  0  0
M  END
>  <MODEL>
8

>  <REMARK>
 VINA RESULT:      -6.2      5.577      9.491
  Name = 
  14 active torsions:
  status: ('A' for Active; 'I' for Inactive)
    1  A    between atoms: C_6  and  C_17
    2  A    between atoms: C_6  and  O_19
    3  A    between atoms: O_8  and  C_24
    4  A    between atoms: C_11  and  N_23
    5  A    between atoms: C_11  and  C_41
    6  A    between atoms: C_12  and  C_27
    7  A    between atoms: C_13  and  C_44
    8  A    between atoms: O_14  and  C_17
    9  A    between atoms: C_17  and  C_30
   10  A    between atoms: C_22  and  N_23
   11  A    between atoms: C_22  and  C_34
   12  A    between atoms: C_25  and  C_43
   13  A    between atoms: C_30  and  C_41
   14  A    between atoms: O_35  and  C_46
                            x       y       z     vdW  Elec       q    Type
                         _______ _______ _______ _____ _____    ______ ____

>  <TORSDO>
F 14

$$$$
=
 OpenBabel10222415253D

 47 52  0  0  1  0  0  0  0  0999 V2000
  189.0560  178.8780  138.2230 C   0  0  0  0  0  2  0  0  0  0  0  0
  188.3050  174.5970  136.0030 C   0  0  0  0  0  0  0  0  0  0  0  0
  189.7570  175.0040  136.0750 C   0  0  1  0  0  3  0  0  0  0  0  0
  186.0330  174.7280  136.8530 C   0  0  0  0  0  3  0  0  0  0  0  0
  189.9640  176.3090  136.8590 C   0  0  2  0  0  3  0  0  0  0  0  0
  187.7800  176.0060  137.9230 O   0  0  0  0  0  0  0  0  0  0  0  0
  187.8800  173.6990  135.0170 C   0  0  0  0  0  3  0  0  0  0  0  0
  185.6070  173.8410  135.8580 C   0  0  0  0  0  0  0  0  0  0  0  0
  189.3520  177.5730  138.9760 C   0  0  2  0  0  3  0  0  0  0  0  0
  188.4490  178.6410  136.8460 C   0  0  0  0  0  2  0  0  0  0  0  0
  187.3760  175.1050  136.9330 C   0  0  0  0  0  0  0  0  0  0  0  0
  189.1600  176.2840  138.1690 C   0  0  2  0  0  3  0  0  0  0  0  0
  189.6240  177.7510  135.7660 S   0  0  0  0  0  0  0  0  0  0  0  0
  186.5370  173.3170  134.9470 C   0  0  0  0  0  3  0  0  0  0  0  0
  182.5020  175.4710  136.2240 C   0  0  0  0  0  2  0  0  0  0  0  0
  184.0160  172.0160  136.2390 N   0  0  0  0  0  0  0  0  0  0  0  0
  184.1720  173.4220  135.8280 C   0  0  1  0  0  3  0  0  0  0  0  0
  181.8000  172.0690  137.3420 N   0  0  0  0  0  0  0  0  0  0  0  0
  183.0190  171.4300  136.8690 C   0  0  0  0  0  3  0  0  0  0  0  0
  182.0150  174.0610  136.0040 C   0  0  1  0  0  3  0  0  0  0  0  0
  183.3340  174.3060  136.7110 C   0  0  2  0  0  3  0  0  0  0  0  0
  181.3230  173.2470  137.0250 C   0  0  0  0  0  0  0  0  0  0  0  0
  180.1240  174.4550  138.8120 C   0  0  0  0  0  1  0  0  0  0  0  0
  180.1380  173.7230  137.5920 O   0  0  0  0  0  0  0  0  0  0  0  0
  191.8300  174.1020  137.0590 C   0  0  0  0  0  0  0  0  0  0  0  0
  193.0350  174.3200  137.5230 C   0  0  0  0  0  3  0  0  0  0  0  0
  190.6240  173.8930  136.5950 C   0  0  0  0  0  3  0  0  0  0  0  0
  195.2670  171.6550  136.0190 C   0  0  0  0  0  3  0  0  0  0  0  0
  196.3310  172.5800  137.9870 C   0  0  0  0  0  3  0  0  0  0  0  0
  195.2410  173.4330  138.1760 C   0  0  0  0  0  3  0  0  0  0  0  0
  196.3520  171.6870  136.9040 C   0  0  0  0  0  0  0  0  0  0  0  0
  194.1600  173.4050  137.2900 C   0  0  0  0  0  0  0  0  0  0  0  0
  194.1760  172.5090  136.2090 C   0  0  0  0  0  3  0  0  0  0  0  0
  197.4280  170.8240  136.6860 O   0  0  0  0  0  0  0  0  0  0  0  0
  198.7420  171.2930  136.4150 C   0  0  0  0  0  1  0  0  0  0  0  0
  188.6710  177.5270  140.3420 C   0  0  0  0  0  2  0  0  0  0  0  0
  189.5160  176.8670  141.3300 N   0  0  0  0  0  2  0  0  0  0  0  0
  189.2970  177.5420  142.5990 C   0  0  0  0  0  2  0  0  0  0  0  0
  188.7830  176.5510  143.6280 C   0  0  0  0  0  2  0  0  0  0  0  0
  188.2080  177.2830  144.8020 C   0  0  0  0  0  0  0  0  0  0  0  0
  188.8160  177.2760  145.8610 O   0  0  0  0  0  0  0  0  0  0  0  0
  186.8910  178.0120  144.7210 C   0  0  1  0  0  3  0  0  0  0  0  0
  186.0610  177.3810  143.7890 O   0  0  0  0  0  0  0  0  0  0  0  0
  185.8260  178.3400  142.8020 C   0  0  0  0  0  1  0  0  0  0  0  0
  186.1790  178.0930  146.0720 C   0  0  0  0  0  2  0  0  0  0  0  0
  185.4080  179.2540  146.1360 O   0  0  0  0  0  0  0  0  0  0  0  0
  184.1080  178.8230  145.8730 C   0  0  0  0  0  1  0  0  0  0  0  0
  1  9  1  0  0  0  0
  2  3  1  0  0  0  0
  2 11  1  0  0  0  0
  3 27  1  1  0  0  0
  3  5  1  0  0  0  0
  4 11  2  0  0  0  0
  5 13  1  6  0  0  0
  5 12  1  0  0  0  0
  7  2  2  0  0  0  0
  8  4  1  0  0  0  0
  9 36  1  1  0  0  0
 10  1  1  0  0  0  0
 11  6  1  0  0  0  0
 12  6  1  6  0  0  0
 12  9  1  0  0  0  0
 13 10  1  0  0  0  0
 14  7  1  0  0  0  0
 14  8  2  0  0  0  0
 16 19  2  0  0  0  0
 17  8  1  1  0  0  0
 17 16  1  0  0  0  0
 17 21  1  0  0  0  0
 19 18  1  0  0  0  0
 20 15  1  1  0  0  0
 20 21  1  0  0  0  0
 20 22  1  0  0  0  0
 21 15  1  6  0  0  0
 22 18  2  0  0  0  0
 22 24  1  0  0  0  0
 24 23  1  0  0  0  0
 25 26  2  0  0  0  0
 27 25  2  0  0  0  0
 28 33  2  0  0  0  0
 28 31  1  0  0  0  0
 29 30  1  0  0  0  0
 31 29  2  0  0  0  0
 32 26  1  0  0  0  0
 32 30  2  0  0  0  0
 33 32  1  0  0  0  0
 34 31  1  0  0  0  0
 35 34  1  0  0  0  0
 36 37  1  0  0  0  0
 37 38  1  0  0  0  0
 38 39  1  0  0  0  0
 39 40  1  0  0  0  0
 40 41  2  0  0  0  0
 42 40  1  0  0  0  0
 42 45  1  1  0  0  0
 43 42  1  0  0  0  0
 44 43  1  0  0  0  0
 45 46  1  0  0  0  0
 47 46  1  0  0  0  0
M  END
>  <MODEL>
9

>  <REMARK>
 VINA RESULT:      -6.1      1.390      2.222
  Name = 
  14 active torsions:
  status: ('A' for Active; 'I' for Inactive)
    1  A    between atoms: C_6  and  C_17
    2  A    between atoms: C_6  and  O_19
    3  A    between atoms: O_8  and  C_24
    4  A    between atoms: C_11  and  N_23
    5  A    between atoms: C_11  and  C_41
    6  A    between atoms: C_12  and  C_27
    7  A    between atoms: C_13  and  C_44
    8  A    between atoms: O_14  and  C_17
    9  A    between atoms: C_17  and  C_30
   10  A    between atoms: C_22  and  N_23
   11  A    between atoms: C_22  and  C_34
   12  A    between atoms: C_25  and  C_43
   13  A    between atoms: C_30  and  C_41
   14  A    between atoms: O_35  and  C_46
                            x       y       z     vdW  Elec       q    Type
                         _______ _______ _______ _____ _____    ______ ____

>  <TORSDO>
F 14

$$$$
