=
 OpenBabel10222416263D

 38 40  0  0  1  0  0  0  0  0999 V2000
  188.9580  177.4160  139.1110 C   0  0  0  0  0  0  0  0  0  0  0  0
  188.0820  176.5630  138.6540 N   0  0  0  0  0  0  0  0  0  0  0  0
  188.8520  178.9010  136.9790 C   0  0  0  0  0  2  0  0  0  0  0  0
  189.6210  178.4730  138.2370 C   0  0  0  0  0  2  0  0  0  0  0  0
  187.5970  176.5070  137.2760 C   0  0  2  0  0  3  0  0  0  0  0  0
  186.7350  177.7510  136.9300 C   0  0  2  0  0  3  0  0  0  0  0  0
  187.4280  179.0090  137.2720 N   0  0  0  0  0  2  0  0  0  0  0  0
  191.0110  176.9350  142.2060 N   0  0  0  0  0  0  0  0  0  0  0  0
  190.1200  177.1570  143.1710 N   0  0  0  0  0  0  0  0  0  0  0  0
  188.4310  177.5530  141.5540 C   0  0  0  0  0  3  0  0  0  0  0  0
  189.3580  177.3230  140.5340 C   0  0  0  0  0  0  0  0  0  0  0  0
  188.8190  177.4600  142.8940 C   0  0  0  0  0  0  0  0  0  0  0  0
  190.6710  177.0010  140.8930 C   0  0  0  0  0  3  0  0  0  0  0  0
  185.9400  178.1780  146.0190 C   0  0  0  0  0  0  0  0  0  0  0  0
  188.2140  177.6120  145.3900 C   0  0  0  0  0  0  0  0  0  0  0  0
  186.5240  177.9660  143.6870 C   0  0  0  0  0  3  0  0  0  0  0  0
  185.5740  178.2240  144.6760 C   0  0  0  0  0  3  0  0  0  0  0  0
  189.5420  177.3120  145.8140 N   0  0  0  0  0  1  0  0  0  0  0  0
  187.2520  177.8680  146.3740 C   0  0  0  0  0  3  0  0  0  0  0  0
  187.8560  177.6620  144.0160 C   0  0  0  0  0  0  0  0  0  0  0  0
  184.9820  178.4650  147.0290 N   0  0  0  0  0  1  0  0  0  0  0  0
  185.3440  177.6970  137.6140 C   0  0  2  0  0  3  0  0  0  0  0  0
  183.3930  176.5170  137.3950 C   0  0  0  0  0  1  0  0  0  0  0  0
  184.3070  177.3420  136.7230 O   0  0  0  0  0  0  0  0  0  0  0  0
  184.9960  178.9190  138.4720 C   0  0  0  0  0  2  0  0  0  0  0  0
  185.5230  178.7480  139.8110 N   0  0  0  0  0  2  0  0  0  0  0  0
  184.6430  179.3360  140.6530 O   0  0  0  0  0  0  0  0  0  0  0  0
  183.8800  178.2810  141.1510 C   0  0  0  0  0  2  0  0  0  0  0  0
  182.4850  178.7390  141.3900 C   0  0  0  0  0  0  0  0  0  0  0  0
  181.7220  178.9820  140.4170 O   0  0  0  0  0  0  0  0  0  0  0  0
  182.0130  178.8620  142.6910 O   0  0  0  0  0  1  0  0  0  0  0  0
  186.9080  175.1750  137.0060 C   0  0  0  0  0  2  0  0  0  0  0  0
  187.9310  174.0720  136.7730 C   0  0  1  0  0  3  0  0  0  0  0  0
  186.7290  171.9020  135.9150 N   0  0  0  0  0  0  0  0  0  0  0  0
  187.2600  172.8600  136.2920 C   0  0  0  0  0  0  0  0  0  0  0  0
  188.8950  174.5130  135.7780 N   0  0  0  0  0  2  0  0  0  0  0  0
  190.1920  173.9730  136.1500 C   0  0  0  0  0  2  0  0  0  0  0  0
  190.3650  174.0530  137.5890 N   0  0  0  0  0  1  0  0  0  0  0  0
  1 11  1  0  0  0  0
  2  1  2  0  0  0  0
  3  7  1  0  0  0  0
  3  4  1  0  0  0  0
  4  1  1  0  0  0  0
  5 32  1  1  0  0  0
  5  2  1  0  0  0  0
  6  7  1  0  0  0  0
  6  5  1  0  0  0  0
  6 22  1  1  0  0  0
  8  9  1  0  0  0  0
 10 12  1  0  0  0  0
 11 13  1  0  0  0  0
 11 10  2  0  0  0  0
 12  9  2  0  0  0  0
 12 20  1  0  0  0  0
 13  8  2  0  0  0  0
 14 19  1  0  0  0  0
 14 21  1  0  0  0  0
 15 18  1  0  0  0  0
 15 19  2  0  0  0  0
 16 20  2  0  0  0  0
 16 17  1  0  0  0  0
 17 14  2  0  0  0  0
 20 15  1  0  0  0  0
 22 25  1  6  0  0  0
 24 23  1  0  0  0  0
 24 22  1  0  0  0  0
 25 26  1  0  0  0  0
 26 27  1  0  0  0  0
 27 28  1  0  0  0  0
 28 29  1  0  0  0  0
 29 31  1  0  0  0  0
 30 29  2  0  0  0  0
 33 35  1  6  0  0  0
 33 32  1  0  0  0  0
 34 35  3  0  0  0  0
 36 37  1  0  0  0  0
 36 33  1  0  0  0  0
 37 38  1  0  0  0  0
M  END
>  <MODEL>
1

>  <REMARK>
 VINA RESULT:      -7.1      0.000      0.000
  Name = 
  14 active torsions:
  status: ('A' for Active; 'I' for Inactive)
    1  A    between atoms: N_3  and  C_7
    2  A    between atoms: N_3  and  C_36
    3  A    between atoms: C_5  and  C_6
    4  A    between atoms: C_5  and  O_27
    5  A    between atoms: C_8  and  C_9
    6  A    between atoms: C_8  and  N_37
    7  A    between atoms: C_9  and  O_19
    8  A    between atoms: C_9  and  C_29
    9  A    between atoms: C_12  and  C_36
   10  A    between atoms: C_16  and  C_30
   11  A    between atoms: C_22  and  C_28
   12  A    between atoms: C_22  and  C_36
   13  A    between atoms: O_27  and  N_37
   14  A    between atoms: C_33  and  C_34
                            x       y       z     vdW  Elec       q    Type
                         _______ _______ _______ _____ _____    ______ ____

>  <TORSDO>
F 14

$$$$
=
 OpenBabel10222416263D

 38 40  0  0  1  0  0  0  0  0999 V2000
  183.9000  178.4320  141.3790 C   0  0  0  0  0  0  0  0  0  0  0  0
  182.8460  177.8040  140.9320 N   0  0  0  0  0  0  0  0  0  0  0  0
  184.5920  179.2710  139.0170 C   0  0  0  0  0  2  0  0  0  0  0  0
  184.9960  178.9680  140.4670 C   0  0  0  0  0  2  0  0  0  0  0  0
  182.5520  177.5450  139.5240 C   0  0  2  0  0  3  0  0  0  0  0  0
  182.2310  178.8600  138.7630 C   0  0  2  0  0  3  0  0  0  0  0  0
  183.2710  179.8850  138.9800 N   0  0  0  0  0  2  0  0  0  0  0  0
  183.1880  179.2390  144.9670 N   0  0  0  0  0  0  0  0  0  0  0  0
  184.3260  178.8900  145.5640 N   0  0  0  0  0  0  0  0  0  0  0  0
  185.2460  178.2320  143.4800 C   0  0  0  0  0  3  0  0  0  0  0  0
  184.0560  178.5940  142.8430 C   0  0  0  0  0  0  0  0  0  0  0  0
  185.3840  178.3910  144.8620 C   0  0  0  0  0  0  0  0  0  0  0  0
  183.0190  179.1140  143.6240 C   0  0  0  0  0  3  0  0  0  0  0  0
  188.9910  177.5560  147.0660 C   0  0  0  0  0  0  0  0  0  0  0  0
  187.8380  177.6220  144.9330 C   0  0  0  0  0  0  0  0  0  0  0  0
  186.6700  178.2120  146.9750 C   0  0  0  0  0  3  0  0  0  0  0  0
  187.8290  177.9690  147.7140 C   0  0  0  0  0  3  0  0  0  0  0  0
  187.9050  177.4340  143.5210 N   0  0  0  0  0  1  0  0  0  0  0  0
  188.9940  177.3790  145.6840 C   0  0  0  0  0  3  0  0  0  0  0  0
  186.6480  178.0510  145.5800 C   0  0  0  0  0  0  0  0  0  0  0  0
  190.1810  177.3330  147.8120 N   0  0  0  0  0  1  0  0  0  0  0  0
  180.8330  179.4170  139.1400 C   0  0  2  0  0  3  0  0  0  0  0  0
  180.6010  179.0630  136.8890 C   0  0  0  0  0  1  0  0  0  0  0  0
  179.9080  179.3470  138.0750 O   0  0  0  0  0  0  0  0  0  0  0  0
  180.8470  180.7890  139.8240 C   0  0  0  0  0  2  0  0  0  0  0  0
  180.2360  181.7790  138.9600 N   0  0  0  0  0  2  0  0  0  0  0  0
  181.2400  182.3720  138.2770 O   0  0  0  0  0  0  0  0  0  0  0  0
  180.6070  183.0120  137.2120 C   0  0  0  0  0  2  0  0  0  0  0  0
  181.3730  184.2290  136.8310 C   0  0  0  0  0  0  0  0  0  0  0  0
  182.3100  184.6440  137.5640 O   0  0  0  0  0  1  0  0  0  0  0  0
  181.0770  184.8840  135.6420 O   0  0  0  0  0  0  0  0  0  0  0  0
  181.4810  176.4690  139.3910 C   0  0  0  0  0  2  0  0  0  0  0  0
  181.9610  175.3340  138.4970 C   0  0  1  0  0  3  0  0  0  0  0  0
  180.7550  175.4580  136.1690 N   0  0  0  0  0  0  0  0  0  0  0  0
  181.2880  175.4030  137.1950 C   0  0  0  0  0  0  0  0  0  0  0  0
  183.3970  175.4510  138.3010 N   0  0  0  0  0  2  0  0  0  0  0  0
  183.8470  174.2500  137.6150 C   0  0  0  0  0  2  0  0  0  0  0  0
  184.8910  174.5880  136.6650 N   0  0  0  0  0  1  0  0  0  0  0  0
  1 11  1  0  0  0  0
  2  1  2  0  0  0  0
  3  4  1  0  0  0  0
  4  1  1  0  0  0  0
  5 32  1  1  0  0  0
  5  2  1  0  0  0  0
  6  7  1  0  0  0  0
  6 22  1  1  0  0  0
  6  5  1  0  0  0  0
  7  3  1  0  0  0  0
  8  9  1  0  0  0  0
 10 12  1  0  0  0  0
 11 10  2  0  0  0  0
 11 13  1  0  0  0  0
 12  9  2  0  0  0  0
 12 20  1  0  0  0  0
 13  8  2  0  0  0  0
 14 17  1  0  0  0  0
 14 21  1  0  0  0  0
 15 20  2  0  0  0  0
 15 19  1  0  0  0  0
 16 17  2  0  0  0  0
 18 15  1  0  0  0  0
 19 14  2  0  0  0  0
 20 16  1  0  0  0  0
 22 25  1  6  0  0  0
 23 24  1  0  0  0  0
 24 22  1  0  0  0  0
 26 25  1  0  0  0  0
 27 26  1  0  0  0  0
 28 27  1  0  0  0  0
 29 28  1  0  0  0  0
 29 30  1  0  0  0  0
 31 29  2  0  0  0  0
 33 35  1  6  0  0  0
 33 32  1  0  0  0  0
 34 35  3  0  0  0  0
 36 33  1  0  0  0  0
 37 36  1  0  0  0  0
 38 37  1  0  0  0  0
M  END
>  <MODEL>
2

>  <REMARK>
 VINA RESULT:      -7.0      3.558      5.587
  Name = 
  14 active torsions:
  status: ('A' for Active; 'I' for Inactive)
    1  A    between atoms: N_3  and  C_7
    2  A    between atoms: N_3  and  C_36
    3  A    between atoms: C_5  and  C_6
    4  A    between atoms: C_5  and  O_27
    5  A    between atoms: C_8  and  C_9
    6  A    between atoms: C_8  and  N_37
    7  A    between atoms: C_9  and  O_19
    8  A    between atoms: C_9  and  C_29
    9  A    between atoms: C_12  and  C_36
   10  A    between atoms: C_16  and  C_30
   11  A    between atoms: C_22  and  C_28
   12  A    between atoms: C_22  and  C_36
   13  A    between atoms: O_27  and  N_37
   14  A    between atoms: C_33  and  C_34
                            x       y       z     vdW  Elec       q    Type
                         _______ _______ _______ _____ _____    ______ ____

>  <TORSDO>
F 14

$$$$
=
 OpenBabel10222416263D

 38 40  0  0  1  0  0  0  0  0999 V2000
  188.8860  177.4770  138.5650 C   0  0  0  0  0  0  0  0  0  0  0  0
  187.8950  176.6350  138.4380 N   0  0  0  0  0  0  0  0  0  0  0  0
  188.2090  178.8280  136.4490 C   0  0  0  0  0  2  0  0  0  0  0  0
  189.2960  178.4470  137.4650 C   0  0  0  0  0  2  0  0  0  0  0  0
  187.0370  176.5130  137.2630 C   0  0  2  0  0  3  0  0  0  0  0  0
  186.1400  177.7690  137.0860 C   0  0  2  0  0  3  0  0  0  0  0  0
  186.9310  179.0150  137.1240 N   0  0  0  0  0  2  0  0  0  0  0  0
  191.7640  177.3560  140.9580 N   0  0  0  0  0  0  0  0  0  0  0  0
  191.1510  177.4290  142.1380 N   0  0  0  0  0  0  0  0  0  0  0  0
  189.0400  177.5310  141.0630 C   0  0  0  0  0  3  0  0  0  0  0  0
  189.6730  177.4570  139.8190 C   0  0  0  0  0  0  0  0  0  0  0  0
  189.7930  177.5090  142.2410 C   0  0  0  0  0  0  0  0  0  0  0  0
  191.0680  177.3600  139.7910 C   0  0  0  0  0  3  0  0  0  0  0  0
  187.8020  177.7210  146.0560 C   0  0  0  0  0  0  0  0  0  0  0  0
  189.8800  177.7190  144.8040 C   0  0  0  0  0  0  0  0  0  0  0  0
  187.7570  177.4620  143.6570 C   0  0  0  0  0  3  0  0  0  0  0  0
  187.0830  177.5480  144.8760 C   0  0  0  0  0  3  0  0  0  0  0  0
  191.3020  177.8180  144.8290 N   0  0  0  0  0  1  0  0  0  0  0  0
  189.1930  177.8010  146.0210 C   0  0  0  0  0  3  0  0  0  0  0  0
  189.1580  177.5500  143.5910 C   0  0  0  0  0  0  0  0  0  0  0  0
  187.1170  177.8360  147.2970 N   0  0  0  0  0  1  0  0  0  0  0  0
  185.0020  177.8180  138.1380 C   0  0  2  0  0  3  0  0  0  0  0  0
  182.7810  178.3750  138.1740 C   0  0  0  0  0  1  0  0  0  0  0  0
  183.7330  177.5280  137.5890 O   0  0  0  0  0  0  0  0  0  0  0  0
  184.9920  179.0690  139.0240 C   0  0  0  0  0  2  0  0  0  0  0  0
  185.7770  178.8340  140.2190 N   0  0  0  0  0  2  0  0  0  0  0  0
  185.1140  179.4210  141.2410 O   0  0  0  0  0  0  0  0  0  0  0  0
  184.5720  178.3570  141.9610 C   0  0  0  0  0  2  0  0  0  0  0  0
  183.5990  178.8720  142.9620 C   0  0  0  0  0  0  0  0  0  0  0  0
  182.3670  178.8820  142.7010 O   0  0  0  0  0  0  0  0  0  0  0  0
  184.0520  179.3060  144.2020 O   0  0  0  0  0  1  0  0  0  0  0  0
  186.2680  175.1980  137.2960 C   0  0  0  0  0  2  0  0  0  0  0  0
  186.7890  174.2380  136.2360 C   0  0  1  0  0  3  0  0  0  0  0  0
  189.1360  173.3040  136.9500 N   0  0  0  0  0  0  0  0  0  0  0  0
  188.1010  173.7170  136.6340 C   0  0  0  0  0  0  0  0  0  0  0  0
  185.8580  173.1310  136.0910 N   0  0  0  0  0  2  0  0  0  0  0  0
  185.2790  172.8670  137.3980 C   0  0  0  0  0  2  0  0  0  0  0  0
  184.1110  172.0160  137.2570 N   0  0  0  0  0  1  0  0  0  0  0  0
  1 11  1  0  0  0  0
  2  1  2  0  0  0  0
  3  7  1  0  0  0  0
  3  4  1  0  0  0  0
  4  1  1  0  0  0  0
  5 32  1  1  0  0  0
  5  2  1  0  0  0  0
  6  7  1  0  0  0  0
  6  5  1  0  0  0  0
  6 22  1  1  0  0  0
  8  9  1  0  0  0  0
  9 12  2  0  0  0  0
 10 12  1  0  0  0  0
 11 10  2  0  0  0  0
 12 20  1  0  0  0  0
 13 11  1  0  0  0  0
 13  8  2  0  0  0  0
 14 21  1  0  0  0  0
 15 18  1  0  0  0  0
 15 19  2  0  0  0  0
 16 17  1  0  0  0  0
 17 14  2  0  0  0  0
 19 14  1  0  0  0  0
 20 16  2  0  0  0  0
 20 15  1  0  0  0  0
 22 25  1  6  0  0  0
 24 22  1  0  0  0  0
 24 23  1  0  0  0  0
 25 26  1  0  0  0  0
 26 27  1  0  0  0  0
 27 28  1  0  0  0  0
 28 29  1  0  0  0  0
 29 31  1  0  0  0  0
 30 29  2  0  0  0  0
 33 35  1  1  0  0  0
 33 32  1  0  0  0  0
 35 34  3  0  0  0  0
 36 33  1  0  0  0  0
 36 37  1  0  0  0  0
 38 37  1  0  0  0  0
M  END
>  <MODEL>
3

>  <REMARK>
 VINA RESULT:      -7.0      1.309      2.027
  Name = 
  14 active torsions:
  status: ('A' for Active; 'I' for Inactive)
    1  A    between atoms: N_3  and  C_7
    2  A    between atoms: N_3  and  C_36
    3  A    between atoms: C_5  and  C_6
    4  A    between atoms: C_5  and  O_27
    5  A    between atoms: C_8  and  C_9
    6  A    between atoms: C_8  and  N_37
    7  A    between atoms: C_9  and  O_19
    8  A    between atoms: C_9  and  C_29
    9  A    between atoms: C_12  and  C_36
   10  A    between atoms: C_16  and  C_30
   11  A    between atoms: C_22  and  C_28
   12  A    between atoms: C_22  and  C_36
   13  A    between atoms: O_27  and  N_37
   14  A    between atoms: C_33  and  C_34
                            x       y       z     vdW  Elec       q    Type
                         _______ _______ _______ _____ _____    ______ ____

>  <TORSDO>
F 14

$$$$
=
 OpenBabel10222416263D

 38 40  0  0  1  0  0  0  0  0999 V2000
  189.2000  177.4600  138.9820 C   0  0  0  0  0  0  0  0  0  0  0  0
  189.0550  176.4900  138.1210 N   0  0  0  0  0  0  0  0  0  0  0  0
  188.6010  179.2990  137.2440 C   0  0  0  0  0  2  0  0  0  0  0  0
  189.2670  178.9270  138.5770 C   0  0  0  0  0  2  0  0  0  0  0  0
  188.9140  176.6580  136.6760 C   0  0  2  0  0  3  0  0  0  0  0  0
  187.5630  177.3330  136.3160 C   0  0  2  0  0  3  0  0  0  0  0  0
  187.3480  178.5730  137.0880 N   0  0  0  0  0  2  0  0  0  0  0  0
  190.5720  176.0950  142.1890 N   0  0  0  0  0  0  0  0  0  0  0  0
  189.6510  176.4750  143.0720 N   0  0  0  0  0  0  0  0  0  0  0  0
  188.3890  177.5070  141.3500 C   0  0  0  0  0  3  0  0  0  0  0  0
  189.3500  177.1150  140.4150 C   0  0  0  0  0  0  0  0  0  0  0  0
  188.5400  177.1740  142.7000 C   0  0  0  0  0  0  0  0  0  0  0  0
  190.4560  176.3870  140.8670 C   0  0  0  0  0  3  0  0  0  0  0  0
  185.5210  178.3620  145.5360 C   0  0  0  0  0  0  0  0  0  0  0  0
  187.7840  177.5880  145.1240 C   0  0  0  0  0  0  0  0  0  0  0  0
  186.2410  177.9040  143.2780 C   0  0  0  0  0  3  0  0  0  0  0  0
  185.2490  178.3130  144.1700 C   0  0  0  0  0  3  0  0  0  0  0  0
  189.0550  177.2370  145.6670 N   0  0  0  0  0  1  0  0  0  0  0  0
  186.7800  177.9960  146.0100 C   0  0  0  0  0  3  0  0  0  0  0  0
  187.5220  177.5400  143.7280 C   0  0  0  0  0  0  0  0  0  0  0  0
  184.5210  178.8030  146.4450 N   0  0  0  0  0  1  0  0  0  0  0  0
  186.3660  176.3650  136.5020 C   0  0  2  0  0  3  0  0  0  0  0  0
  185.5740  174.5880  135.2950 C   0  0  0  0  0  1  0  0  0  0  0  0
  185.7780  175.9750  135.2790 O   0  0  0  0  0  0  0  0  0  0  0  0
  185.3310  176.8080  137.5430 C   0  0  0  0  0  2  0  0  0  0  0  0
  184.1810  177.3890  136.8800 N   0  0  0  0  0  2  0  0  0  0  0  0
  183.5280  178.1250  137.8070 O   0  0  0  0  0  0  0  0  0  0  0  0
  184.3400  178.0590  138.9380 C   0  0  0  0  0  2  0  0  0  0  0  0
  184.3640  179.3830  139.6160 C   0  0  0  0  0  0  0  0  0  0  0  0
  184.6790  179.4660  140.8340 O   0  0  0  0  0  1  0  0  0  0  0  0
  184.0760  180.5330  138.8920 O   0  0  0  0  0  0  0  0  0  0  0  0
  189.1630  175.3380  135.9570 C   0  0  0  0  0  2  0  0  0  0  0  0
  189.6110  174.2630  136.9370 C   0  0  1  0  0  3  0  0  0  0  0  0
  187.9160  172.2600  136.9130 N   0  0  0  0  0  0  0  0  0  0  0  0
  188.6630  173.1440  136.9230 C   0  0  0  0  0  0  0  0  0  0  0  0
  190.9270  173.7800  136.5520 N   0  0  0  0  0  2  0  0  0  0  0  0
  191.9040  174.4210  137.4180 C   0  0  0  0  0  2  0  0  0  0  0  0
  192.6670  175.3970  136.6620 N   0  0  0  0  0  1  0  0  0  0  0  0
  1 11  1  0  0  0  0
  2  1  2  0  0  0  0
  3  4  1  0  0  0  0
  4  1  1  0  0  0  0
  5 32  1  6  0  0  0
  5  2  1  0  0  0  0
  6 22  1  1  0  0  0
  6  5  1  0  0  0  0
  6  7  1  0  0  0  0
  7  3  1  0  0  0  0
  8  9  1  0  0  0  0
 10 12  1  0  0  0  0
 11 13  1  0  0  0  0
 11 10  2  0  0  0  0
 12  9  2  0  0  0  0
 12 20  1  0  0  0  0
 13  8  2  0  0  0  0
 14 19  1  0  0  0  0
 14 21  1  0  0  0  0
 15 18  1  0  0  0  0
 15 19  2  0  0  0  0
 16 20  2  0  0  0  0
 16 17  1  0  0  0  0
 17 14  2  0  0  0  0
 20 15  1  0  0  0  0
 22 25  1  1  0  0  0
 24 23  1  0  0  0  0
 24 22  1  0  0  0  0
 26 25  1  0  0  0  0
 26 27  1  0  0  0  0
 27 28  1  0  0  0  0
 28 29  1  0  0  0  0
 29 30  1  0  0  0  0
 31 29  2  0  0  0  0
 33 32  1  6  0  0  0
 34 35  3  0  0  0  0
 35 33  1  0  0  0  0
 36 33  1  0  0  0  0
 36 37  1  0  0  0  0
 38 37  1  0  0  0  0
M  END
>  <MODEL>
4

>  <REMARK>
 VINA RESULT:      -6.8      1.420      1.901
  Name = 
  14 active torsions:
  status: ('A' for Active; 'I' for Inactive)
    1  A    between atoms: N_3  and  C_7
    2  A    between atoms: N_3  and  C_36
    3  A    between atoms: C_5  and  C_6
    4  A    between atoms: C_5  and  O_27
    5  A    between atoms: C_8  and  C_9
    6  A    between atoms: C_8  and  N_37
    7  A    between atoms: C_9  and  O_19
    8  A    between atoms: C_9  and  C_29
    9  A    between atoms: C_12  and  C_36
   10  A    between atoms: C_16  and  C_30
   11  A    between atoms: C_22  and  C_28
   12  A    between atoms: C_22  and  C_36
   13  A    between atoms: O_27  and  N_37
   14  A    between atoms: C_33  and  C_34
                            x       y       z     vdW  Elec       q    Type
                         _______ _______ _______ _____ _____    ______ ____

>  <TORSDO>
F 14

$$$$
=
 OpenBabel10222416263D

 38 40  0  0  1  0  0  0  0  0999 V2000
  189.7220  177.4200  139.3790 C   0  0  0  0  0  0  0  0  0  0  0  0
  190.3660  176.5540  138.6440 N   0  0  0  0  0  0  0  0  0  0  0  0
  188.9420  178.8120  137.3250 C   0  0  0  0  0  2  0  0  0  0  0  0
  189.2050  178.7460  138.8370 C   0  0  0  0  0  2  0  0  0  0  0  0
  190.6630  176.7090  137.2220 C   0  0  2  0  0  3  0  0  0  0  0  0
  189.3690  176.6440  136.3650 C   0  0  2  0  0  3  0  0  0  0  0  0
  188.3340  177.5700  136.8660 N   0  0  0  0  0  2  0  0  0  0  0  0
  190.2570  176.1150  142.8480 N   0  0  0  0  0  0  0  0  0  0  0  0
  189.1720  176.5530  143.4830 N   0  0  0  0  0  0  0  0  0  0  0  0
  188.3860  177.5700  141.4910 C   0  0  0  0  0  3  0  0  0  0  0  0
  189.5210  177.1160  140.8150 C   0  0  0  0  0  0  0  0  0  0  0  0
  188.2070  177.2760  142.8460 C   0  0  0  0  0  0  0  0  0  0  0  0
  190.4620  176.3670  141.5290 C   0  0  0  0  0  3  0  0  0  0  0  0
  184.6520  178.6410  144.8630 C   0  0  0  0  0  0  0  0  0  0  0  0
  186.9610  177.9080  145.0060 C   0  0  0  0  0  0  0  0  0  0  0  0
  185.8290  177.9810  142.8620 C   0  0  0  0  0  3  0  0  0  0  0  0
  184.6690  178.4440  143.4840 C   0  0  0  0  0  3  0  0  0  0  0  0
  188.0970  177.6580  145.8310 N   0  0  0  0  0  1  0  0  0  0  0  0
  185.7900  178.3690  145.6200 C   0  0  0  0  0  3  0  0  0  0  0  0
  186.9930  177.7100  143.6000 C   0  0  0  0  0  0  0  0  0  0  0  0
  183.4800  179.1370  145.4970 N   0  0  0  0  0  1  0  0  0  0  0  0
  188.8080  175.2010  136.2760 C   0  0  2  0  0  3  0  0  0  0  0  0
  189.6800  173.4740  135.0500 C   0  0  0  0  0  1  0  0  0  0  0  0
  188.9150  174.6480  134.9810 O   0  0  0  0  0  0  0  0  0  0  0  0
  187.4160  175.0090  136.8890 C   0  0  0  0  0  2  0  0  0  0  0  0
  186.4590  174.6850  135.8510 N   0  0  0  0  0  2  0  0  0  0  0  0
  185.5450  175.6810  135.8390 O   0  0  0  0  0  0  0  0  0  0  0  0
  185.2720  175.9180  137.1860 C   0  0  0  0  0  2  0  0  0  0  0  0
  184.6130  177.2430  137.3390 C   0  0  0  0  0  0  0  0  0  0  0  0
  183.5030  177.4660  136.7870 O   0  0  0  0  0  0  0  0  0  0  0  0
  185.2090  178.2220  138.1250 O   0  0  0  0  0  1  0  0  0  0  0  0
  191.7460  175.7270  136.7920 C   0  0  0  0  0  2  0  0  0  0  0  0
  192.9610  175.8270  137.7030 C   0  0  1  0  0  3  0  0  0  0  0  0
  194.2400  173.5350  137.7470 N   0  0  0  0  0  0  0  0  0  0  0  0
  193.6770  174.5460  137.7260 C   0  0  0  0  0  0  0  0  0  0  0  0
  193.8510  176.8640  137.2070 N   0  0  0  0  0  2  0  0  0  0  0  0
  194.2240  176.5120  135.8470 C   0  0  0  0  0  2  0  0  0  0  0  0
  195.4930  177.1290  135.5090 N   0  0  0  0  0  1  0  0  0  0  0  0
  1 11  1  0  0  0  0
  2  1  2  0  0  0  0
  3  4  1  0  0  0  0
  4  1  1  0  0  0  0
  5 32  1  6  0  0  0
  5  2  1  0  0  0  0
  6 22  1  1  0  0  0
  6  7  1  0  0  0  0
  6  5  1  0  0  0  0
  7  3  1  0  0  0  0
  8  9  1  0  0  0  0
 10 12  1  0  0  0  0
 11 10  2  0  0  0  0
 11 13  1  0  0  0  0
 12  9  2  0  0  0  0
 12 20  1  0  0  0  0
 13  8  2  0  0  0  0
 14 21  1  0  0  0  0
 14 19  1  0  0  0  0
 15 19  2  0  0  0  0
 15 18  1  0  0  0  0
 16 17  1  0  0  0  0
 16 20  2  0  0  0  0
 17 14  2  0  0  0  0
 20 15  1  0  0  0  0
 22 25  1  6  0  0  0
 24 23  1  0  0  0  0
 24 22  1  0  0  0  0
 26 25  1  0  0  0  0
 27 26  1  0  0  0  0
 27 28  1  0  0  0  0
 28 29  1  0  0  0  0
 29 31  1  0  0  0  0
 30 29  2  0  0  0  0
 33 32  1  6  0  0  0
 33 35  1  0  0  0  0
 35 34  3  0  0  0  0
 36 33  1  0  0  0  0
 37 36  1  0  0  0  0
 38 37  1  0  0  0  0
M  END
>  <MODEL>
5

>  <REMARK>
 VINA RESULT:      -6.8      2.433      3.989
  Name = 
  14 active torsions:
  status: ('A' for Active; 'I' for Inactive)
    1  A    between atoms: N_3  and  C_7
    2  A    between atoms: N_3  and  C_36
    3  A    between atoms: C_5  and  C_6
    4  A    between atoms: C_5  and  O_27
    5  A    between atoms: C_8  and  C_9
    6  A    between atoms: C_8  and  N_37
    7  A    between atoms: C_9  and  O_19
    8  A    between atoms: C_9  and  C_29
    9  A    between atoms: C_12  and  C_36
   10  A    between atoms: C_16  and  C_30
   11  A    between atoms: C_22  and  C_28
   12  A    between atoms: C_22  and  C_36
   13  A    between atoms: O_27  and  N_37
   14  A    between atoms: C_33  and  C_34
                            x       y       z     vdW  Elec       q    Type
                         _______ _______ _______ _____ _____    ______ ____

>  <TORSDO>
F 14

$$$$
=
 OpenBabel10222416263D

 38 40  0  0  1  0  0  0  0  0999 V2000
  189.5350  177.4670  138.7270 C   0  0  0  0  0  0  0  0  0  0  0  0
  190.3940  176.4850  138.6660 N   0  0  0  0  0  0  0  0  0  0  0  0
  189.4730  177.7750  136.1450 C   0  0  0  0  0  2  0  0  0  0  0  0
  189.2180  178.3670  137.5390 C   0  0  0  0  0  2  0  0  0  0  0  0
  191.1470  176.0950  137.4760 C   0  0  2  0  0  3  0  0  0  0  0  0
  190.2130  175.4950  136.3900 C   0  0  2  0  0  3  0  0  0  0  0  0
  189.0630  176.3770  136.1100 N   0  0  0  0  0  2  0  0  0  0  0  0
  186.9840  178.4970  141.2680 N   0  0  0  0  0  0  0  0  0  0  0  0
  187.6180  178.2550  142.4150 N   0  0  0  0  0  0  0  0  0  0  0  0
  189.5260  177.4960  141.2300 C   0  0  0  0  0  3  0  0  0  0  0  0
  188.8710  177.7440  140.0210 C   0  0  0  0  0  0  0  0  0  0  0  0
  188.8900  177.7640  142.4460 C   0  0  0  0  0  0  0  0  0  0  0  0
  187.5720  178.2640  140.0660 C   0  0  0  0  0  3  0  0  0  0  0  0
  190.9760  177.0330  146.1450 C   0  0  0  0  0  0  0  0  0  0  0  0
  188.8720  177.3970  144.9920 C   0  0  0  0  0  0  0  0  0  0  0  0
  190.9650  177.4430  143.7660 C   0  0  0  0  0  3  0  0  0  0  0  0
  191.6660  177.1860  144.9440 C   0  0  0  0  0  3  0  0  0  0  0  0
  187.4510  177.4880  145.0770 N   0  0  0  0  0  1  0  0  0  0  0  0
  189.5870  177.1430  146.1690 C   0  0  0  0  0  3  0  0  0  0  0  0
  189.5630  177.5480  143.7600 C   0  0  0  0  0  0  0  0  0  0  0  0
  191.6850  176.7450  147.3430 N   0  0  0  0  0  1  0  0  0  0  0  0
  189.7250  174.0730  136.7700 C   0  0  2  0  0  3  0  0  0  0  0  0
  190.6010  173.3930  134.7660 C   0  0  0  0  0  1  0  0  0  0  0  0
  190.4480  173.0500  136.1180 O   0  0  0  0  0  0  0  0  0  0  0  0
  188.2080  173.8670  136.6940 C   0  0  0  0  0  2  0  0  0  0  0  0
  187.8840  172.4770  136.9420 N   0  0  0  0  0  2  0  0  0  0  0  0
  186.5750  172.3220  136.6390 O   0  0  0  0  0  0  0  0  0  0  0  0
  185.9030  173.0550  137.6170 C   0  0  0  0  0  2  0  0  0  0  0  0
  184.4420  173.0470  137.3340 C   0  0  0  0  0  0  0  0  0  0  0  0
  183.7610  174.0960  137.4870 O   0  0  0  0  0  1  0  0  0  0  0  0
  183.8390  171.8880  136.8620 O   0  0  0  0  0  0  0  0  0  0  0  0
  192.3190  175.1980  137.8560 C   0  0  0  0  0  2  0  0  0  0  0  0
  193.2130  174.9350  136.6520 C   0  0  1  0  0  3  0  0  0  0  0  0
  194.6090  177.0850  136.0870 N   0  0  0  0  0  0  0  0  0  0  0  0
  193.9940  176.1360  136.3360 C   0  0  0  0  0  0  0  0  0  0  0  0
  194.1190  173.8400  136.9560 N   0  0  0  0  0  2  0  0  0  0  0  0
  194.8140  174.1720  138.1890 C   0  0  0  0  0  2  0  0  0  0  0  0
  195.4410  172.9830  138.7370 N   0  0  0  0  0  1  0  0  0  0  0  0
  1 11  1  0  0  0  0
  2  1  2  0  0  0  0
  3  4  1  0  0  0  0
  4  1  1  0  0  0  0
  5 32  1  1  0  0  0
  5  2  1  0  0  0  0
  6 22  1  1  0  0  0
  6  5  1  0  0  0  0
  7  3  1  0  0  0  0
  7  6  1  0  0  0  0
  8  9  1  0  0  0  0
  9 12  2  0  0  0  0
 10 12  1  0  0  0  0
 11 13  1  0  0  0  0
 11 10  2  0  0  0  0
 12 20  1  0  0  0  0
 13  8  2  0  0  0  0
 14 19  1  0  0  0  0
 14 21  1  0  0  0  0
 15 18  1  0  0  0  0
 15 19  2  0  0  0  0
 16 17  1  0  0  0  0
 17 14  2  0  0  0  0
 20 16  2  0  0  0  0
 20 15  1  0  0  0  0
 22 25  1  6  0  0  0
 23 24  1  0  0  0  0
 24 22  1  0  0  0  0
 25 26  1  0  0  0  0
 27 26  1  0  0  0  0
 27 28  1  0  0  0  0
 29 30  1  0  0  0  0
 29 28  1  0  0  0  0
 31 29  2  0  0  0  0
 33 35  1  1  0  0  0
 33 36  1  0  0  0  0
 33 32  1  0  0  0  0
 34 35  3  0  0  0  0
 36 37  1  0  0  0  0
 37 38  1  0  0  0  0
M  END
>  <MODEL>
6

>  <REMARK>
 VINA RESULT:      -6.4      3.101      5.293
  Name = 
  14 active torsions:
  status: ('A' for Active; 'I' for Inactive)
    1  A    between atoms: N_3  and  C_7
    2  A    between atoms: N_3  and  C_36
    3  A    between atoms: C_5  and  C_6
    4  A    between atoms: C_5  and  O_27
    5  A    between atoms: C_8  and  C_9
    6  A    between atoms: C_8  and  N_37
    7  A    between atoms: C_9  and  O_19
    8  A    between atoms: C_9  and  C_29
    9  A    between atoms: C_12  and  C_36
   10  A    between atoms: C_16  and  C_30
   11  A    between atoms: C_22  and  C_28
   12  A    between atoms: C_22  and  C_36
   13  A    between atoms: O_27  and  N_37
   14  A    between atoms: C_33  and  C_34
                            x       y       z     vdW  Elec       q    Type
                         _______ _______ _______ _____ _____    ______ ____

>  <TORSDO>
F 14

$$$$
=
 OpenBabel10222416263D

 38 40  0  0  1  0  0  0  0  0999 V2000
  188.7130  177.7320  139.1590 C   0  0  0  0  0  0  0  0  0  0  0  0
  188.8290  176.5200  138.6890 N   0  0  0  0  0  0  0  0  0  0  0  0
  189.0790  178.8330  136.8320 C   0  0  0  0  0  2  0  0  0  0  0  0
  189.0980  178.9720  138.3610 C   0  0  0  0  0  2  0  0  0  0  0  0
  189.3110  176.1740  137.3540 C   0  0  2  0  0  3  0  0  0  0  0  0
  188.3060  176.6240  136.2580 C   0  0  2  0  0  3  0  0  0  0  0  0
  187.9290  178.0430  136.4120 N   0  0  0  0  0  2  0  0  0  0  0  0
  186.5180  178.5400  142.0840 N   0  0  0  0  0  0  0  0  0  0  0  0
  187.3020  178.2310  143.1160 N   0  0  0  0  0  0  0  0  0  0  0  0
  189.0400  177.5890  141.6370 C   0  0  0  0  0  3  0  0  0  0  0  0
  188.2260  177.9080  140.5470 C   0  0  0  0  0  0  0  0  0  0  0  0
  188.5700  177.7610  142.9430 C   0  0  0  0  0  0  0  0  0  0  0  0
  186.9410  178.4000  140.8010 C   0  0  0  0  0  3  0  0  0  0  0  0
  191.1200  176.7850  146.2770 C   0  0  0  0  0  0  0  0  0  0  0  0
  188.9220  177.4210  145.4680 C   0  0  0  0  0  0  0  0  0  0  0  0
  190.7730  177.1740  143.9200 C   0  0  0  0  0  3  0  0  0  0  0  0
  191.6190  176.8340  144.9770 C   0  0  0  0  0  3  0  0  0  0  0  0
  187.5590  177.7030  145.7790 N   0  0  0  0  0  1  0  0  0  0  0  0
  189.7800  177.0820  146.5210 C   0  0  0  0  0  3  0  0  0  0  0  0
  189.4160  177.4670  144.1370 C   0  0  0  0  0  0  0  0  0  0  0  0
  191.9720  176.4140  147.3530 N   0  0  0  0  0  1  0  0  0  0  0  0
  187.0410  175.7270  136.2320 C   0  0  2  0  0  3  0  0  0  0  0  0
  186.4570  173.5620  135.7700 C   0  0  0  0  0  1  0  0  0  0  0  0
  187.1190  174.6940  135.2730 O   0  0  0  0  0  0  0  0  0  0  0  0
  185.7110  176.4870  136.1770 C   0  0  0  0  0  2  0  0  0  0  0  0
  185.0880  176.4890  137.4860 N   0  0  0  0  0  2  0  0  0  0  0  0
  185.0810  177.7720  137.9110 O   0  0  0  0  0  0  0  0  0  0  0  0
  183.7360  178.0520  138.1500 C   0  0  0  0  0  2  0  0  0  0  0  0
  183.6190  179.0670  139.2310 C   0  0  0  0  0  0  0  0  0  0  0  0
  182.9540  178.8130  140.2710 O   0  0  0  0  0  1  0  0  0  0  0  0
  184.2790  180.2840  139.1080 O   0  0  0  0  0  0  0  0  0  0  0  0
  189.6880  174.6990  137.2870 C   0  0  0  0  0  2  0  0  0  0  0  0
  191.1970  174.5300  137.1800 C   0  0  1  0  0  3  0  0  0  0  0  0
  191.7990  173.1940  135.0020 N   0  0  0  0  0  0  0  0  0  0  0  0
  191.5330  173.7850  135.9620 C   0  0  0  0  0  0  0  0  0  0  0  0
  191.8250  175.8400  137.1280 N   0  0  0  0  0  2  0  0  0  0  0  0
  193.2350  175.6670  137.4380 C   0  0  0  0  0  2  0  0  0  0  0  0
  193.5960  176.4940  138.5750 N   0  0  0  0  0  1  0  0  0  0  0  0
  1 11  1  0  0  0  0
  2  1  2  0  0  0  0
  3  4  1  0  0  0  0
  4  1  1  0  0  0  0
  5 32  1  1  0  0  0
  5  2  1  0  0  0  0
  6 22  1  1  0  0  0
  6  7  1  0  0  0  0
  6  5  1  0  0  0  0
  7  3  1  0  0  0  0
  8  9  1  0  0  0  0
 10 12  1  0  0  0  0
 11 13  1  0  0  0  0
 11 10  2  0  0  0  0
 12  9  2  0  0  0  0
 12 20  1  0  0  0  0
 13  8  2  0  0  0  0
 14 19  1  0  0  0  0
 14 21  1  0  0  0  0
 15 18  1  0  0  0  0
 15 19  2  0  0  0  0
 16 20  2  0  0  0  0
 16 17  1  0  0  0  0
 17 14  2  0  0  0  0
 20 15  1  0  0  0  0
 22 25  1  6  0  0  0
 24 23  1  0  0  0  0
 24 22  1  0  0  0  0
 25 26  1  0  0  0  0
 26 27  1  0  0  0  0
 27 28  1  0  0  0  0
 28 29  1  0  0  0  0
 29 30  1  0  0  0  0
 31 29  2  0  0  0  0
 33 35  1  6  0  0  0
 33 32  1  0  0  0  0
 34 35  3  0  0  0  0
 36 33  1  0  0  0  0
 36 37  1  0  0  0  0
 37 38  1  0  0  0  0
M  END
>  <MODEL>
7

>  <REMARK>
 VINA RESULT:      -6.4      2.137      3.401
  Name = 
  14 active torsions:
  status: ('A' for Active; 'I' for Inactive)
    1  A    between atoms: N_3  and  C_7
    2  A    between atoms: N_3  and  C_36
    3  A    between atoms: C_5  and  C_6
    4  A    between atoms: C_5  and  O_27
    5  A    between atoms: C_8  and  C_9
    6  A    between atoms: C_8  and  N_37
    7  A    between atoms: C_9  and  O_19
    8  A    between atoms: C_9  and  C_29
    9  A    between atoms: C_12  and  C_36
   10  A    between atoms: C_16  and  C_30
   11  A    between atoms: C_22  and  C_28
   12  A    between atoms: C_22  and  C_36
   13  A    between atoms: O_27  and  N_37
   14  A    between atoms: C_33  and  C_34
                            x       y       z     vdW  Elec       q    Type
                         _______ _______ _______ _____ _____    ______ ____

>  <TORSDO>
F 14

$$$$
=
 OpenBabel10222416263D

 38 40  0  0  1  0  0  0  0  0999 V2000
  183.9590  178.3130  140.8050 C   0  0  0  0  0  0  0  0  0  0  0  0
  183.4460  177.2190  140.3110 N   0  0  0  0  0  0  0  0  0  0  0  0
  184.1020  179.4760  138.4840 C   0  0  0  0  0  2  0  0  0  0  0  0
  184.5820  179.4020  139.9410 C   0  0  0  0  0  2  0  0  0  0  0  0
  183.3720  176.8880  138.8900 C   0  0  2  0  0  3  0  0  0  0  0  0
  182.3810  177.8230  138.1440 C   0  0  2  0  0  3  0  0  0  0  0  0
  182.6640  179.2470  138.4160 N   0  0  0  0  0  2  0  0  0  0  0  0
  182.8840  179.0850  144.3090 N   0  0  0  0  0  0  0  0  0  0  0  0
  183.9800  178.7960  145.0090 N   0  0  0  0  0  0  0  0  0  0  0  0
  185.1190  178.1850  143.0210 C   0  0  0  0  0  3  0  0  0  0  0  0
  183.9740  178.4840  142.2770 C   0  0  0  0  0  0  0  0  0  0  0  0
  185.1220  178.3520  144.4090 C   0  0  0  0  0  0  0  0  0  0  0  0
  182.8440  178.9490  142.9580 C   0  0  0  0  0  3  0  0  0  0  0  0
  188.6510  177.4050  146.6920 C   0  0  0  0  0  0  0  0  0  0  0  0
  186.4140  178.3420  146.6340 C   0  0  0  0  0  0  0  0  0  0  0  0
  187.4380  177.4870  144.6070 C   0  0  0  0  0  3  0  0  0  0  0  0
  188.5870  177.1500  145.3240 C   0  0  0  0  0  3  0  0  0  0  0  0
  185.3390  178.9400  147.3540 N   0  0  0  0  0  1  0  0  0  0  0  0
  187.5730  178.0030  147.3420 C   0  0  0  0  0  3  0  0  0  0  0  0
  186.3320  178.0800  145.2390 C   0  0  0  0  0  0  0  0  0  0  0  0
  189.8100  177.0390  147.4310 N   0  0  0  0  0  1  0  0  0  0  0  0
  180.9050  177.4900  138.4850 C   0  0  2  0  0  3  0  0  0  0  0  0
  180.8270  177.6370  136.2010 C   0  0  0  0  0  1  0  0  0  0  0  0
  180.1250  177.2180  137.3410 O   0  0  0  0  0  0  0  0  0  0  0  0
  180.2260  178.4720  139.4460 C   0  0  0  0  0  2  0  0  0  0  0  0
  179.3620  177.7520  140.3600 N   0  0  0  0  0  2  0  0  0  0  0  0
  179.9530  176.5580  140.5940 O   0  0  0  0  0  0  0  0  0  0  0  0
  178.9310  175.6250  140.4270 C   0  0  0  0  0  2  0  0  0  0  0  0
  179.3160  174.3380  141.0670 C   0  0  0  0  0  0  0  0  0  0  0  0
  179.7050  173.3700  140.3600 O   0  0  0  0  0  0  0  0  0  0  0  0
  179.2830  174.2210  142.4510 O   0  0  0  0  0  1  0  0  0  0  0  0
  183.0900  175.4020  138.7010 C   0  0  0  0  0  2  0  0  0  0  0  0
  183.6320  174.9140  137.3650 C   0  0  1  0  0  3  0  0  0  0  0  0
  185.3580  172.9750  137.7550 N   0  0  0  0  0  0  0  0  0  0  0  0
  184.5970  173.8310  137.5820 C   0  0  0  0  0  0  0  0  0  0  0  0
  182.5330  174.4190  136.5520 N   0  0  0  0  0  2  0  0  0  0  0  0
  181.5310  173.8700  137.4510 C   0  0  0  0  0  2  0  0  0  0  0  0
  181.3020  172.4710  137.1380 N   0  0  0  0  0  1  0  0  0  0  0  0
  1 11  1  0  0  0  0
  2  1  2  0  0  0  0
  3  4  1  0  0  0  0
  4  1  1  0  0  0  0
  5 32  1  1  0  0  0
  5  2  1  0  0  0  0
  6  7  1  0  0  0  0
  6 22  1  1  0  0  0
  6  5  1  0  0  0  0
  7  3  1  0  0  0  0
  8  9  1  0  0  0  0
 10 12  1  0  0  0  0
 11 13  1  0  0  0  0
 11 10  2  0  0  0  0
 12  9  2  0  0  0  0
 12 20  1  0  0  0  0
 13  8  2  0  0  0  0
 14 19  1  0  0  0  0
 14 21  1  0  0  0  0
 15 19  2  0  0  0  0
 15 18  1  0  0  0  0
 16 20  2  0  0  0  0
 16 17  1  0  0  0  0
 17 14  2  0  0  0  0
 20 15  1  0  0  0  0
 22 25  1  6  0  0  0
 23 24  1  0  0  0  0
 24 22  1  0  0  0  0
 25 26  1  0  0  0  0
 26 27  1  0  0  0  0
 28 27  1  0  0  0  0
 28 29  1  0  0  0  0
 29 31  1  0  0  0  0
 30 29  2  0  0  0  0
 33 35  1  1  0  0  0
 33 32  1  0  0  0  0
 35 34  3  0  0  0  0
 36 33  1  0  0  0  0
 36 37  1  0  0  0  0
 38 37  1  0  0  0  0
M  END
>  <MODEL>
8

>  <REMARK>
 VINA RESULT:      -6.3      3.514      5.198
  Name = 
  14 active torsions:
  status: ('A' for Active; 'I' for Inactive)
    1  A    between atoms: N_3  and  C_7
    2  A    between atoms: N_3  and  C_36
    3  A    between atoms: C_5  and  C_6
    4  A    between atoms: C_5  and  O_27
    5  A    between atoms: C_8  and  C_9
    6  A    between atoms: C_8  and  N_37
    7  A    between atoms: C_9  and  O_19
    8  A    between atoms: C_9  and  C_29
    9  A    between atoms: C_12  and  C_36
   10  A    between atoms: C_16  and  C_30
   11  A    between atoms: C_22  and  C_28
   12  A    between atoms: C_22  and  C_36
   13  A    between atoms: O_27  and  N_37
   14  A    between atoms: C_33  and  C_34
                            x       y       z     vdW  Elec       q    Type
                         _______ _______ _______ _____ _____    ______ ____

>  <TORSDO>
F 14

$$$$
=
 OpenBabel10222416263D

 38 40  0  0  1  0  0  0  0  0999 V2000
  189.1480  177.8170  139.4140 C   0  0  0  0  0  0  0  0  0  0  0  0
  189.8580  176.7720  139.0830 N   0  0  0  0  0  0  0  0  0  0  0  0
  189.0690  178.7250  136.9780 C   0  0  0  0  0  2  0  0  0  0  0  0
  188.9330  179.0030  138.4820 C   0  0  0  0  0  2  0  0  0  0  0  0
  190.5200  176.5750  137.7960 C   0  0  2  0  0  3  0  0  0  0  0  0
  189.4860  176.3730  136.6550 C   0  0  2  0  0  3  0  0  0  0  0  0
  188.4650  177.4400  136.6470 N   0  0  0  0  0  2  0  0  0  0  0  0
  186.7010  178.2380  142.2180 N   0  0  0  0  0  0  0  0  0  0  0  0
  187.4480  177.9610  143.2860 N   0  0  0  0  0  0  0  0  0  0  0  0
  189.3340  177.5820  141.8990 C   0  0  0  0  0  3  0  0  0  0  0  0
  188.5590  177.8690  140.7720 C   0  0  0  0  0  0  0  0  0  0  0  0
  188.7680  177.6370  143.1770 C   0  0  0  0  0  0  0  0  0  0  0  0
  187.2150  178.2090  140.9610 C   0  0  0  0  0  3  0  0  0  0  0  0
  191.1710  176.7330  146.6380 C   0  0  0  0  0  0  0  0  0  0  0  0
  189.0390  177.4490  145.7280 C   0  0  0  0  0  0  0  0  0  0  0  0
  190.9050  176.9800  144.2510 C   0  0  0  0  0  3  0  0  0  0  0  0
  191.7020  176.6610  145.3510 C   0  0  0  0  0  3  0  0  0  0  0  0
  187.6900  177.8370  145.9820 N   0  0  0  0  0  1  0  0  0  0  0  0
  189.8480  177.1300  146.8250 C   0  0  0  0  0  3  0  0  0  0  0  0
  189.5650  177.3730  144.4110 C   0  0  0  0  0  0  0  0  0  0  0  0
  191.9720  176.3840  147.7590 N   0  0  0  0  0  1  0  0  0  0  0  0
  188.8120  174.9790  136.7270 C   0  0  2  0  0  3  0  0  0  0  0  0
  189.4910  172.9290  135.9640 C   0  0  0  0  0  1  0  0  0  0  0  0
  189.0380  174.1980  135.5730 O   0  0  0  0  0  0  0  0  0  0  0  0
  187.3390  174.9940  137.1540 C   0  0  0  0  0  2  0  0  0  0  0  0
  186.4920  174.7100  136.0130 N   0  0  0  0  0  2  0  0  0  0  0  0
  185.8000  173.5870  136.3120 O   0  0  0  0  0  0  0  0  0  0  0  0
  185.3010  173.8170  137.5930 C   0  0  0  0  0  2  0  0  0  0  0  0
  183.9110  174.3390  137.5040 C   0  0  0  0  0  0  0  0  0  0  0  0
  182.9880  173.6100  137.0520 O   0  0  0  0  0  0  0  0  0  0  0  0
  183.6260  175.6210  137.9580 O   0  0  0  0  0  1  0  0  0  0  0  0
  191.5640  175.4690  137.8950 C   0  0  0  0  0  2  0  0  0  0  0  0
  192.9700  176.0380  137.7790 C   0  0  1  0  0  3  0  0  0  0  0  0
  193.5860  177.3660  139.9570 N   0  0  0  0  0  0  0  0  0  0  0  0
  193.3130  176.7790  138.9970 C   0  0  0  0  0  0  0  0  0  0  0  0
  193.9160  174.9480  137.5990 N   0  0  0  0  0  2  0  0  0  0  0  0
  194.6610  175.2070  136.3780 C   0  0  0  0  0  2  0  0  0  0  0  0
  194.6780  176.6330  136.1040 N   0  0  0  0  0  1  0  0  0  0  0  0
  1 11  1  0  0  0  0
  2  1  2  0  0  0  0
  3  4  1  0  0  0  0
  4  1  1  0  0  0  0
  5 32  1  1  0  0  0
  5  2  1  0  0  0  0
  6 22  1  1  0  0  0
  6  5  1  0  0  0  0
  7  6  1  0  0  0  0
  7  3  1  0  0  0  0
  8  9  1  0  0  0  0
 10 12  1  0  0  0  0
 11 13  1  0  0  0  0
 11 10  2  0  0  0  0
 12  9  2  0  0  0  0
 12 20  1  0  0  0  0
 13  8  2  0  0  0  0
 14 19  1  0  0  0  0
 14 21  1  0  0  0  0
 15 18  1  0  0  0  0
 15 19  2  0  0  0  0
 16 20  2  0  0  0  0
 16 17  1  0  0  0  0
 17 14  2  0  0  0  0
 20 15  1  0  0  0  0
 22 25  1  6  0  0  0
 24 23  1  0  0  0  0
 24 22  1  0  0  0  0
 26 27  1  0  0  0  0
 26 25  1  0  0  0  0
 27 28  1  0  0  0  0
 29 28  1  0  0  0  0
 29 31  1  0  0  0  0
 30 29  2  0  0  0  0
 33 32  1  1  0  0  0
 33 35  1  0  0  0  0
 35 34  3  0  0  0  0
 36 33  1  0  0  0  0
 37 36  1  0  0  0  0
 38 37  1  0  0  0  0
M  END
>  <MODEL>
9

>  <REMARK>
 VINA RESULT:      -6.3      2.746      4.799
  Name = 
  14 active torsions:
  status: ('A' for Active; 'I' for Inactive)
    1  A    between atoms: N_3  and  C_7
    2  A    between atoms: N_3  and  C_36
    3  A    between atoms: C_5  and  C_6
    4  A    between atoms: C_5  and  O_27
    5  A    between atoms: C_8  and  C_9
    6  A    between atoms: C_8  and  N_37
    7  A    between atoms: C_9  and  O_19
    8  A    between atoms: C_9  and  C_29
    9  A    between atoms: C_12  and  C_36
   10  A    between atoms: C_16  and  C_30
   11  A    between atoms: C_22  and  C_28
   12  A    between atoms: C_22  and  C_36
   13  A    between atoms: O_27  and  N_37
   14  A    between atoms: C_33  and  C_34
                            x       y       z     vdW  Elec       q    Type
                         _______ _______ _______ _____ _____    ______ ____

>  <TORSDO>
F 14

$$$$
