=
 OpenBabel10222419513D

 50 55  0  0  1  0  0  0  0  0999 V2000
  185.9920  178.1610  143.9050 C   0  0  0  0  0  0  0  0  0  0  0  0
  186.6170  178.4340  142.5770 C   0  0  2  0  0  3  0  0  0  0  0  0
  184.2910  178.4170  142.4400 C   0  0  0  0  0  3  0  0  0  0  0  0
  185.3990  178.5460  141.7210 C   0  0  0  0  0  0  0  0  0  0  0  0
  184.6670  178.1550  143.8190 C   0  0  0  0  0  3  0  0  0  0  0  0
  188.2270  177.1960  145.2930 S   0  0  0  0  0  0  0  0  0  0  0  0
  186.7460  177.9930  145.1630 C   0  0  0  0  0  0  0  0  0  0  0  0
  186.3970  178.4520  146.4380 C   0  0  0  0  0  0  0  0  0  0  0  0
  185.1990  179.1710  146.7140 N   0  0  0  0  0  1  0  0  0  0  0  0
  189.4290  177.0500  147.7570 N   0  0  0  0  0  1  0  0  0  0  0  0
  187.2830  178.1580  147.4280 N   0  0  0  0  0  0  0  0  0  0  0  0
  188.3400  177.4720  146.9470 C   0  0  0  0  0  0  0  0  0  0  0  0
  185.4430  178.9520  140.2770 C   0  0  0  0  0  2  0  0  0  0  0  0
  184.2030  178.5360  139.4980 C   0  0  2  0  0  3  0  0  0  0  0  0
  184.5720  177.9110  138.3040 O   0  0  0  0  0  1  0  0  0  0  0  0
  183.4060  179.7160  139.2000 N   0  0  0  0  0  2  0  0  0  0  0  0
  181.9870  179.6910  139.0240 C   0  0  0  0  0  0  0  0  0  0  0  0
  181.3290  179.6260  137.5150 S   0  0  0  0  0  0  0  0  0  0  0  0
  179.7610  180.2210  140.1510 C   0  0  1  0  0  3  0  0  0  0  0  0
  180.2210  177.9060  142.0250 C   0  0  0  0  0  2  0  0  0  0  0  0
  180.0060  180.3610  142.6330 N   0  0  0  0  0  2  0  0  0  0  0  0
  180.4750  177.1290  139.6830 C   0  0  0  0  0  1  0  0  0  0  0  0
  181.0410  178.0630  140.7400 C   0  0  1  0  0  3  0  0  0  0  0  0
  179.8630  181.5440  140.6140 O   0  0  0  0  0  0  0  0  0  0  0  0
  180.4530  179.0420  142.9690 C   0  0  0  0  0  0  0  0  0  0  0  0
  181.1260  179.5260  140.2440 C   0  0  1  0  0  3  0  0  0  0  0  0
  181.1430  178.8600  144.0050 O   0  0  0  0  0  0  0  0  0  0  0  0
  179.1750  180.6560  141.4630 C   0  0  1  0  0  3  0  0  0  0  0  0
  187.4220  177.2940  142.1580 N   0  0  0  0  0  2  0  0  0  0  0  0
  189.0100  179.1320  142.2680 C   0  0  0  0  0  1  0  0  0  0  0  0
  188.6500  177.8210  141.5870 C   0  0  1  0  0  3  0  0  0  0  0  0
  189.7730  176.8070  141.7560 C   0  0  0  0  0  2  0  0  0  0  0  0
  191.8390  177.4320  140.5220 C   0  0  0  0  0  1  0  0  0  0  0  0
  190.5470  176.6420  140.4560 C   0  0  2  0  0  3  0  0  0  0  0  0
  189.7230  177.1400  139.2770 C   0  0  0  0  0  2  0  0  0  0  0  0
  190.1740  176.4950  137.9770 C   0  0  0  0  0  2  0  0  0  0  0  0
  190.4290  175.0770  138.1840 N   0  0  0  0  0  2  0  0  0  0  0  0
  191.2810  174.6340  137.0920 C   0  0  0  0  0  2  0  0  0  0  0  0
  195.2580  173.4800  138.4880 C   0  0  2  0  0  3  0  0  0  0  0  0
  192.6190  174.3840  137.6040 N   0  0  0  0  0  2  0  0  0  0  0  0
  197.3610  172.7510  137.3060 C   0  0  0  0  0  2  0  0  0  0  0  0
  196.3170  174.9420  136.7680 C   0  0  0  0  0  2  0  0  0  0  0  0
  195.0850  174.4500  137.3940 N   0  0  0  0  0  0  0  0  0  0  0  0
  193.7890  174.8100  136.9040 C   0  0  0  0  0  0  0  0  0  0  0  0
  196.0580  174.0760  139.5110 O   0  0  0  0  0  0  0  0  0  0  0  0
  193.6820  175.5200  135.8640 O   0  0  0  0  0  0  0  0  0  0  0  0
  197.4900  174.2720  137.4890 C   0  0  1  0  0  0  0  0  0  0  0  0
  196.0220  172.2670  137.9140 C   0  0  0  0  0  2  0  0  0  0  0  0
  197.3080  174.5610  138.9930 C   0  0  0  0  0  2  0  0  0  0  0  0
  198.7150  174.7430  137.0190 O   0  0  0  0  0  1  0  0  0  0  0  0
  1  7  1  0  0  0  0
  2 29  1  6  0  0  0
  2  1  1  0  0  0  0
  3  5  1  0  0  0  0
  4  3  2  0  0  0  0
  4  2  1  0  0  0  0
  5  1  2  0  0  0  0
  6 12  1  0  0  0  0
  7  6  1  0  0  0  0
  7  8  2  0  0  0  0
  8  9  1  0  0  0  0
  8 11  1  0  0  0  0
 12 11  2  0  0  0  0
 12 10  1  0  0  0  0
 13  4  1  0  0  0  0
 14 15  1  6  0  0  0
 14 13  1  0  0  0  0
 16 14  1  0  0  0  0
 17 16  1  0  0  0  0
 18 17  2  0  0  0  0
 19 26  1  0  0  0  0
 19 24  1  6  0  0  0
 19 28  1  0  0  0  0
 20 25  1  0  0  0  0
 21 25  1  0  0  0  0
 23 22  1  6  0  0  0
 23 20  1  0  0  0  0
 25 27  2  0  0  0  0
 26 17  1  6  0  0  0
 26 23  1  0  0  0  0
 28 24  1  6  0  0  0
 28 21  1  0  0  0  0
 31 32  1  0  0  0  0
 31 29  1  0  0  0  0
 31 30  1  1  0  0  0
 34 33  1  1  0  0  0
 34 32  1  0  0  0  0
 35 34  1  0  0  0  0
 36 37  1  0  0  0  0
 36 35  1  0  0  0  0
 38 40  1  0  0  0  0
 38 37  1  0  0  0  0
 39 48  1  6  0  0  0
 39 45  1  0  0  0  0
 41 47  1  0  0  0  0
 41 48  1  0  0  0  0
 42 43  1  0  0  0  0
 42 47  1  0  0  0  0
 43 39  1  0  0  0  0
 44 43  1  0  0  0  0
 44 40  1  0  0  0  0
 46 44  2  0  0  0  0
 47 50  1  6  0  0  0
 47 49  1  0  0  0  0
 49 45  1  0  0  0  0
M  END
>  <MODEL>
1

>  <REMARK>
 VINA RESULT:      -8.1      0.000      0.000
  Name = 
  15 active torsions:
  status: ('A' for Active; 'I' for Inactive)
    1  A    between atoms: C_1  and  C_24
    2  A    between atoms: C_1  and  C_30
    3  A    between atoms: C_2  and  N_12
    4  A    between atoms: C_2  and  N_39
    5  A    between atoms: C_5  and  N_13
    6  A    between atoms: C_5  and  C_41
    7  A    between atoms: C_8  and  C_9
    8  A    between atoms: C_10  and  N_31
    9  A    between atoms: N_13  and  C_36
   10  A    between atoms: C_18  and  C_36
   11  A    between atoms: C_18  and  C_38
   12  A    between atoms: C_24  and  C_33
   13  A    between atoms: C_30  and  N_39
   14  A    between atoms: N_31  and  C_44
   15  A    between atoms: C_33  and  C_44
                            x       y       z     vdW  Elec       q    Type
                         _______ _______ _______ _____ _____    ______ ____

>  <TORSDO>
F 15

$$$$
=
 OpenBabel10222419513D

 50 55  0  0  1  0  0  0  0  0999 V2000
  188.1050  177.3780  144.7220 C   0  0  0  0  0  0  0  0  0  0  0  0
  188.3740  177.8260  143.3230 C   0  0  2  0  0  3  0  0  0  0  0  0
  186.0930  177.5360  143.7040 C   0  0  0  0  0  3  0  0  0  0  0  0
  186.9860  177.8540  142.7740 C   0  0  0  0  0  0  0  0  0  0  0  0
  186.8030  177.2170  144.9310 C   0  0  0  0  0  3  0  0  0  0  0  0
  190.7090  176.6560  145.4620 S   0  0  0  0  0  0  0  0  0  0  0  0
  189.1430  177.2070  145.7570 C   0  0  0  0  0  0  0  0  0  0  0  0
  189.0350  177.4690  147.1280 C   0  0  0  0  0  0  0  0  0  0  0  0
  187.8450  177.9490  147.7460 N   0  0  0  0  0  1  0  0  0  0  0  0
  192.4520  176.4550  147.5730 N   0  0  0  0  0  1  0  0  0  0  0  0
  190.1570  177.2240  147.8580 N   0  0  0  0  0  0  0  0  0  0  0  0
  191.1590  176.7750  147.0760 C   0  0  0  0  0  0  0  0  0  0  0  0
  186.6520  178.3710  141.4050 C   0  0  0  0  0  2  0  0  0  0  0  0
  185.4610  179.3190  141.3950 C   0  0  2  0  0  3  0  0  0  0  0  0
  185.2980  179.8990  142.6550 O   0  0  0  0  0  1  0  0  0  0  0  0
  184.2600  178.5750  141.0450 N   0  0  0  0  0  2  0  0  0  0  0  0
  183.5760  178.7140  139.7970 C   0  0  0  0  0  0  0  0  0  0  0  0
  184.2210  178.0950  138.4130 S   0  0  0  0  0  0  0  0  0  0  0  0
  181.6140  179.5990  138.4280 C   0  0  1  0  0  3  0  0  0  0  0  0
  179.7960  179.0160  140.7600 C   0  0  0  0  0  2  0  0  0  0  0  0
  180.2870  181.2780  139.7180 N   0  0  0  0  0  2  0  0  0  0  0  0
  181.1040  176.9820  140.2110 C   0  0  0  0  0  1  0  0  0  0  0  0
  181.2070  178.4220  140.6860 C   0  0  1  0  0  3  0  0  0  0  0  0
  181.9390  180.9250  138.0920 O   0  0  0  0  0  0  0  0  0  0  0  0
  179.8300  180.5090  140.8370 C   0  0  0  0  0  0  0  0  0  0  0  0
  182.1750  179.2570  139.8150 C   0  0  1  0  0  3  0  0  0  0  0  0
  179.5670  181.0830  141.9250 O   0  0  0  0  0  0  0  0  0  0  0  0
  180.5860  180.6930  138.4080 C   0  0  1  0  0  3  0  0  0  0  0  0
  189.1700  176.8280  142.6210 N   0  0  0  0  0  2  0  0  0  0  0  0
  191.4040  177.4530  141.8880 C   0  0  0  0  0  1  0  0  0  0  0  0
  189.9150  177.5220  141.5840 C   0  0  1  0  0  3  0  0  0  0  0  0
  189.6180  176.8930  140.2300 C   0  0  0  0  0  2  0  0  0  0  0  0
  189.0120  178.6760  138.6050 C   0  0  0  0  0  1  0  0  0  0  0  0
  190.1300  177.7810  139.1030 C   0  0  2  0  0  3  0  0  0  0  0  0
  190.6390  176.9340  137.9460 C   0  0  0  0  0  2  0  0  0  0  0  0
  191.1700  175.5960  138.4320 C   0  0  0  0  0  2  0  0  0  0  0  0
  190.5620  174.5120  137.6740 N   0  0  0  0  0  2  0  0  0  0  0  0
  191.5120  174.1310  136.6410 C   0  0  0  0  0  2  0  0  0  0  0  0
  195.4690  173.2790  138.2900 C   0  0  2  0  0  3  0  0  0  0  0  0
  192.8300  173.9820  137.2380 N   0  0  0  0  0  2  0  0  0  0  0  0
  197.6940  172.7260  137.2450 C   0  0  0  0  0  2  0  0  0  0  0  0
  196.5190  174.8340  136.6470 C   0  0  0  0  0  2  0  0  0  0  0  0
  195.2920  174.2420  137.1900 N   0  0  0  0  0  0  0  0  0  0  0  0
  194.0060  174.5040  136.6180 C   0  0  0  0  0  0  0  0  0  0  0  0
  196.1520  173.9270  139.3640 O   0  0  0  0  0  0  0  0  0  0  0  0
  193.9110  175.2130  135.5750 O   0  0  0  0  0  0  0  0  0  0  0  0
  197.6920  174.2510  137.4410 C   0  0  1  0  0  0  0  0  0  0  0  0
  196.3620  172.1340  137.7620 C   0  0  0  0  0  2  0  0  0  0  0  0
  197.3900  174.5120  138.9310 C   0  0  0  0  0  2  0  0  0  0  0  0
  198.9040  174.8200  137.0540 O   0  0  0  0  0  1  0  0  0  0  0  0
  1  5  2  0  0  0  0
  1  7  1  0  0  0  0
  2 29  1  6  0  0  0
  2  1  1  0  0  0  0
  3  5  1  0  0  0  0
  4  2  1  0  0  0  0
  4  3  2  0  0  0  0
  6  7  1  0  0  0  0
  6 12  1  0  0  0  0
  7  8  2  0  0  0  0
  8  9  1  0  0  0  0
  8 11  1  0  0  0  0
 12 10  1  0  0  0  0
 12 11  2  0  0  0  0
 13  4  1  0  0  0  0
 14 13  1  0  0  0  0
 14 15  1  1  0  0  0
 16 14  1  0  0  0  0
 17 16  1  0  0  0  0
 18 17  2  0  0  0  0
 19 24  1  6  0  0  0
 19 26  1  0  0  0  0
 20 25  1  0  0  0  0
 21 25  1  0  0  0  0
 23 22  1  6  0  0  0
 23 20  1  0  0  0  0
 25 27  2  0  0  0  0
 26 17  1  6  0  0  0
 26 23  1  0  0  0  0
 28 24  1  6  0  0  0
 28 19  1  0  0  0  0
 28 21  1  0  0  0  0
 31 30  1  1  0  0  0
 31 29  1  0  0  0  0
 32 31  1  0  0  0  0
 34 33  1  6  0  0  0
 34 32  1  0  0  0  0
 35 36  1  0  0  0  0
 35 34  1  0  0  0  0
 37 36  1  0  0  0  0
 38 40  1  0  0  0  0
 38 37  1  0  0  0  0
 39 48  1  6  0  0  0
 39 45  1  0  0  0  0
 41 47  1  0  0  0  0
 41 48  1  0  0  0  0
 42 43  1  0  0  0  0
 42 47  1  0  0  0  0
 43 39  1  0  0  0  0
 44 43  1  0  0  0  0
 44 40  1  0  0  0  0
 46 44  2  0  0  0  0
 47 50  1  6  0  0  0
 47 49  1  0  0  0  0
 49 45  1  0  0  0  0
M  END
>  <MODEL>
2

>  <REMARK>
 VINA RESULT:      -7.9      1.559      2.194
  Name = 
  15 active torsions:
  status: ('A' for Active; 'I' for Inactive)
    1  A    between atoms: C_1  and  C_24
    2  A    between atoms: C_1  and  C_30
    3  A    between atoms: C_2  and  N_12
    4  A    between atoms: C_2  and  N_39
    5  A    between atoms: C_5  and  N_13
    6  A    between atoms: C_5  and  C_41
    7  A    between atoms: C_8  and  C_9
    8  A    between atoms: C_10  and  N_31
    9  A    between atoms: N_13  and  C_36
   10  A    between atoms: C_18  and  C_36
   11  A    between atoms: C_18  and  C_38
   12  A    between atoms: C_24  and  C_33
   13  A    between atoms: C_30  and  N_39
   14  A    between atoms: N_31  and  C_44
   15  A    between atoms: C_33  and  C_44
                            x       y       z     vdW  Elec       q    Type
                         _______ _______ _______ _____ _____    ______ ____

>  <TORSDO>
F 15

$$$$
=
 OpenBabel10222419513D

 50 55  0  0  1  0  0  0  0  0999 V2000
  181.9270  178.0490  137.3890 C   0  0  0  0  0  0  0  0  0  0  0  0
  183.2500  177.7230  138.0010 C   0  0  2  0  0  3  0  0  0  0  0  0
  182.7800  176.3340  136.1910 C   0  0  0  0  0  3  0  0  0  0  0  0
  183.6710  176.5750  137.1450 C   0  0  0  0  0  0  0  0  0  0  0  0
  181.6680  177.2550  136.3570 C   0  0  0  0  0  3  0  0  0  0  0  0
  181.0620  180.7040  137.1560 S   0  0  0  0  0  0  0  0  0  0  0  0
  181.0560  179.1570  137.8270 C   0  0  0  0  0  0  0  0  0  0  0  0
  180.0880  179.1360  138.8380 C   0  0  0  0  0  0  0  0  0  0  0  0
  179.8040  177.9880  139.6310 N   0  0  0  0  0  1  0  0  0  0  0  0
  179.3150  182.5750  138.1480 N   0  0  0  0  0  1  0  0  0  0  0  0
  179.4220  180.3070  139.0330 N   0  0  0  0  0  0  0  0  0  0  0  0
  179.8500  181.2590  138.1780 C   0  0  0  0  0  0  0  0  0  0  0  0
  185.0200  175.9270  137.2440 C   0  0  0  0  0  2  0  0  0  0  0  0
  186.1530  176.8200  136.7580 C   0  0  2  0  0  3  0  0  0  0  0  0
  185.7350  177.5690  135.6560 O   0  0  0  0  0  1  0  0  0  0  0  0
  187.2870  175.9910  136.3770 N   0  0  0  0  0  2  0  0  0  0  0  0
  188.5870  176.5120  136.0840 C   0  0  0  0  0  0  0  0  0  0  0  0
  188.8340  177.4530  134.7550 S   0  0  0  0  0  0  0  0  0  0  0  0
  189.1610  176.3900  138.5660 C   0  0  1  0  0  3  0  0  0  0  0  0
  191.7490  175.0240  137.8450 C   0  0  0  0  0  2  0  0  0  0  0  0
  191.4600  177.2580  139.0130 N   0  0  0  0  0  2  0  0  0  0  0  0
  189.8610  173.8290  136.7660 C   0  0  0  0  0  1  0  0  0  0  0  0
  190.6080  175.1510  136.8290 C   0  0  1  0  0  3  0  0  0  0  0  0
  189.1610  177.7160  139.0320 O   0  0  0  0  0  0  0  0  0  0  0  0
  192.2770  176.3610  138.2510 C   0  0  0  0  0  0  0  0  0  0  0  0
  189.6650  176.3430  137.1170 C   0  0  1  0  0  3  0  0  0  0  0  0
  193.3970  176.7450  137.8240 O   0  0  0  0  0  0  0  0  0  0  0  0
  190.1590  176.8820  139.5730 C   0  0  1  0  0  3  0  0  0  0  0  0
  183.0680  177.2820  139.3780 N   0  0  0  0  0  2  0  0  0  0  0  0
  184.3370  179.3550  139.4570 C   0  0  0  0  0  1  0  0  0  0  0  0
  183.9430  178.0930  140.2090 C   0  0  1  0  0  3  0  0  0  0  0  0
  183.2350  178.4480  141.5090 C   0  0  0  0  0  2  0  0  0  0  0  0
  185.4660  178.2050  142.5800 C   0  0  0  0  0  1  0  0  0  0  0  0
  184.2130  179.0570  142.5030 C   0  0  2  0  0  3  0  0  0  0  0  0
  183.5870  179.1400  143.8870 C   0  0  0  0  0  2  0  0  0  0  0  0
  184.6330  179.4310  144.9510 C   0  0  0  0  0  2  0  0  0  0  0  0
  184.3030  178.7260  146.1810 N   0  0  0  0  0  2  0  0  0  0  0  0
  185.5620  178.3560  146.8090 C   0  0  0  0  0  2  0  0  0  0  0  0
  188.3380  177.3210  143.5970 C   0  0  2  0  0  3  0  0  0  0  0  0
  186.4800  177.8770  145.7880 N   0  0  0  0  0  2  0  0  0  0  0  0
  190.7280  177.9530  143.1070 C   0  0  0  0  0  2  0  0  0  0  0  0
  190.1380  176.8620  145.2620 C   0  0  0  0  0  2  0  0  0  0  0  0
  188.7430  177.2400  145.0100 N   0  0  0  0  0  0  0  0  0  0  0  0
  187.8540  177.6090  146.0700 C   0  0  0  0  0  0  0  0  0  0  0  0
  188.5640  176.0520  142.9790 O   0  0  0  0  0  0  0  0  0  0  0  0
  188.2830  177.6800  147.2580 O   0  0  0  0  0  0  0  0  0  0  0  0
  190.7980  176.6370  143.8980 C   0  0  1  0  0  0  0  0  0  0  0  0
  189.2490  178.3650  142.9150 C   0  0  0  0  0  2  0  0  0  0  0  0
  189.9220  175.6140  143.1470 C   0  0  0  0  0  2  0  0  0  0  0  0
  192.1110  176.1890  144.0340 O   0  0  0  0  0  1  0  0  0  0  0  0
  1  7  1  0  0  0  0
  1  2  1  0  0  0  0
  2 29  1  1  0  0  0
  3  5  1  0  0  0  0
  3  4  2  0  0  0  0
  4 13  1  0  0  0  0
  4  2  1  0  0  0  0
  5  1  2  0  0  0  0
  6  7  1  0  0  0  0
  6 12  1  0  0  0  0
  7  8  2  0  0  0  0
  8 11  1  0  0  0  0
  8  9  1  0  0  0  0
 10 12  1  0  0  0  0
 12 11  2  0  0  0  0
 14 15  1  6  0  0  0
 14 13  1  0  0  0  0
 16 14  1  0  0  0  0
 17 16  1  0  0  0  0
 18 17  2  0  0  0  0
 19 24  1  6  0  0  0
 19 28  1  0  0  0  0
 20 25  1  0  0  0  0
 23 22  1  1  0  0  0
 23 26  1  0  0  0  0
 23 20  1  0  0  0  0
 24 28  1  0  0  0  0
 25 21  1  0  0  0  0
 26 17  1  6  0  0  0
 26 19  1  0  0  0  0
 27 25  2  0  0  0  0
 28 21  1  6  0  0  0
 29 31  1  0  0  0  0
 31 30  1  6  0  0  0
 31 32  1  0  0  0  0
 32 34  1  0  0  0  0
 34 33  1  1  0  0  0
 34 35  1  0  0  0  0
 35 36  1  0  0  0  0
 36 37  1  0  0  0  0
 37 38  1  0  0  0  0
 39 48  1  6  0  0  0
 39 43  1  0  0  0  0
 40 44  1  0  0  0  0
 40 38  1  0  0  0  0
 41 47  1  0  0  0  0
 43 42  1  0  0  0  0
 43 44  1  0  0  0  0
 44 46  2  0  0  0  0
 45 49  1  0  0  0  0
 45 39  1  0  0  0  0
 47 50  1  1  0  0  0
 47 42  1  0  0  0  0
 48 41  1  0  0  0  0
 49 47  1  0  0  0  0
M  END
>  <MODEL>
3

>  <REMARK>
 VINA RESULT:      -7.8      3.577      9.579
  Name = 
  15 active torsions:
  status: ('A' for Active; 'I' for Inactive)
    1  A    between atoms: C_1  and  C_24
    2  A    between atoms: C_1  and  C_30
    3  A    between atoms: C_2  and  N_12
    4  A    between atoms: C_2  and  N_39
    5  A    between atoms: C_5  and  N_13
    6  A    between atoms: C_5  and  C_41
    7  A    between atoms: C_8  and  C_9
    8  A    between atoms: C_10  and  N_31
    9  A    between atoms: N_13  and  C_36
   10  A    between atoms: C_18  and  C_36
   11  A    between atoms: C_18  and  C_38
   12  A    between atoms: C_24  and  C_33
   13  A    between atoms: C_30  and  N_39
   14  A    between atoms: N_31  and  C_44
   15  A    between atoms: C_33  and  C_44
                            x       y       z     vdW  Elec       q    Type
                         _______ _______ _______ _____ _____    ______ ____

>  <TORSDO>
F 15

$$$$
=
 OpenBabel10222419513D

 50 55  0  0  1  0  0  0  0  0999 V2000
  187.2350  177.8670  145.5260 C   0  0  0  0  0  0  0  0  0  0  0  0
  187.0830  178.2000  144.0780 C   0  0  2  0  0  3  0  0  0  0  0  0
  185.0550  178.3720  145.2110 C   0  0  0  0  0  3  0  0  0  0  0  0
  185.6180  178.4750  144.0140 C   0  0  0  0  0  0  0  0  0  0  0  0
  186.0750  177.9690  146.1650 C   0  0  0  0  0  3  0  0  0  0  0  0
  189.8950  177.0030  145.3650 S   0  0  0  0  0  0  0  0  0  0  0  0
  188.5180  177.5390  146.1770 C   0  0  0  0  0  0  0  0  0  0  0  0
  188.8310  177.6140  147.5390 C   0  0  0  0  0  0  0  0  0  0  0  0
  187.9030  178.0290  148.5370 N   0  0  0  0  0  1  0  0  0  0  0  0
  192.1640  176.4860  146.8210 N   0  0  0  0  0  1  0  0  0  0  0  0
  190.1000  177.2520  147.8680 N   0  0  0  0  0  0  0  0  0  0  0  0
  190.8030  176.8940  146.7740 C   0  0  0  0  0  0  0  0  0  0  0  0
  184.9320  178.9930  142.7840 C   0  0  0  0  0  2  0  0  0  0  0  0
  183.6690  178.2190  142.4290 C   0  0  2  0  0  3  0  0  0  0  0  0
  183.7010  177.8410  141.0850 O   0  0  0  0  0  1  0  0  0  0  0  0
  182.5080  179.0630  142.6670 N   0  0  0  0  0  2  0  0  0  0  0  0
  181.1580  178.6240  142.4850 C   0  0  0  0  0  0  0  0  0  0  0  0
  180.1020  178.6120  143.7490 S   0  0  0  0  0  0  0  0  0  0  0  0
  179.3460  177.6180  141.0000 C   0  0  1  0  0  3  0  0  0  0  0  0
  180.3240  179.3430  138.7310 C   0  0  0  0  0  2  0  0  0  0  0  0
  180.2890  176.8070  138.8330 N   0  0  0  0  0  2  0  0  0  0  0  0
  179.9000  180.7640  140.7190 C   0  0  0  0  0  1  0  0  0  0  0  0
  180.7440  179.6220  140.1780 C   0  0  1  0  0  3  0  0  0  0  0  0
  179.5750  176.2300  140.9900 O   0  0  0  0  0  0  0  0  0  0  0  0
  180.8150  178.0120  138.2610 C   0  0  0  0  0  0  0  0  0  0  0  0
  180.6820  178.3690  141.0830 C   0  0  1  0  0  3  0  0  0  0  0  0
  181.7710  177.9520  137.4470 O   0  0  0  0  0  0  0  0  0  0  0  0
  179.1580  176.7850  139.7640 C   0  0  1  0  0  3  0  0  0  0  0  0
  187.4130  177.0400  143.2600 N   0  0  0  0  0  2  0  0  0  0  0  0
  188.6810  178.9260  142.3950 C   0  0  0  0  0  1  0  0  0  0  0  0
  188.1700  177.5210  142.1170 C   0  0  1  0  0  3  0  0  0  0  0  0
  189.3320  176.5780  141.8350 C   0  0  0  0  0  2  0  0  0  0  0  0
  191.1190  177.3290  140.2770 C   0  0  0  0  0  1  0  0  0  0  0  0
  189.7560  176.6710  140.3760 C   0  0  2  0  0  3  0  0  0  0  0  0
  188.7520  177.4920  139.5790 C   0  0  0  0  0  2  0  0  0  0  0  0
  189.4510  178.4020  138.5820 C   0  0  0  0  0  2  0  0  0  0  0  0
  189.3140  177.8660  137.2360 N   0  0  0  0  0  2  0  0  0  0  0  0
  187.9750  178.2040  136.7780 C   0  0  0  0  0  2  0  0  0  0  0  0
  186.0770  174.3220  136.1180 C   0  0  2  0  0  3  0  0  0  0  0  0
  187.2560  176.9780  136.4660 N   0  0  0  0  0  2  0  0  0  0  0  0
  184.7440  172.7770  137.5950 C   0  0  0  0  0  2  0  0  0  0  0  0
  183.9950  175.1190  137.2340 C   0  0  0  0  0  2  0  0  0  0  0  0
  185.3510  175.4260  136.7680 N   0  0  0  0  0  0  0  0  0  0  0  0
  185.9720  176.6900  137.0210 C   0  0  0  0  0  0  0  0  0  0  0  0
  185.3210  173.8730  134.9920 O   0  0  0  0  0  0  0  0  0  0  0  0
  185.3750  177.5590  137.7200 O   0  0  0  0  0  0  0  0  0  0  0  0
  183.7120  173.6570  136.8730 C   0  0  1  0  0  0  0  0  0  0  0  0
  186.1700  173.1660  137.1370 C   0  0  0  0  0  2  0  0  0  0  0  0
  183.9790  173.5160  135.3610 C   0  0  0  0  0  2  0  0  0  0  0  0
  182.4070  173.2930  137.2020 O   0  0  0  0  0  1  0  0  0  0  0  0
  1  5  2  0  0  0  0
  1  7  1  0  0  0  0
  2 29  1  6  0  0  0
  2  1  1  0  0  0  0
  3  5  1  0  0  0  0
  4  2  1  0  0  0  0
  4  3  2  0  0  0  0
  6  7  1  0  0  0  0
  6 12  1  0  0  0  0
  7  8  2  0  0  0  0
  8 11  1  0  0  0  0
  8  9  1  0  0  0  0
 12 10  1  0  0  0  0
 12 11  2  0  0  0  0
 13  4  1  0  0  0  0
 14 15  1  6  0  0  0
 14 16  1  0  0  0  0
 14 13  1  0  0  0  0
 17 16  1  0  0  0  0
 17 18  2  0  0  0  0
 19 24  1  1  0  0  0
 19 26  1  0  0  0  0
 20 23  1  0  0  0  0
 23 22  1  1  0  0  0
 23 26  1  0  0  0  0
 25 20  1  0  0  0  0
 25 21  1  0  0  0  0
 26 17  1  1  0  0  0
 27 25  2  0  0  0  0
 28 21  1  6  0  0  0
 28 24  1  0  0  0  0
 28 19  1  0  0  0  0
 31 30  1  1  0  0  0
 31 29  1  0  0  0  0
 32 31  1  0  0  0  0
 34 33  1  1  0  0  0
 34 32  1  0  0  0  0
 35 34  1  0  0  0  0
 36 35  1  0  0  0  0
 37 36  1  0  0  0  0
 38 37  1  0  0  0  0
 39 43  1  0  0  0  0
 39 48  1  1  0  0  0
 40 38  1  0  0  0  0
 40 44  1  0  0  0  0
 43 44  1  0  0  0  0
 43 42  1  0  0  0  0
 44 46  2  0  0  0  0
 45 49  1  0  0  0  0
 45 39  1  0  0  0  0
 47 50  1  1  0  0  0
 47 42  1  0  0  0  0
 47 41  1  0  0  0  0
 48 41  1  0  0  0  0
 49 47  1  0  0  0  0
M  END
>  <MODEL>
4

>  <REMARK>
 VINA RESULT:      -7.7      4.430      6.255
  Name = 
  15 active torsions:
  status: ('A' for Active; 'I' for Inactive)
    1  A    between atoms: C_1  and  C_24
    2  A    between atoms: C_1  and  C_30
    3  A    between atoms: C_2  and  N_12
    4  A    between atoms: C_2  and  N_39
    5  A    between atoms: C_5  and  N_13
    6  A    between atoms: C_5  and  C_41
    7  A    between atoms: C_8  and  C_9
    8  A    between atoms: C_10  and  N_31
    9  A    between atoms: N_13  and  C_36
   10  A    between atoms: C_18  and  C_36
   11  A    between atoms: C_18  and  C_38
   12  A    between atoms: C_24  and  C_33
   13  A    between atoms: C_30  and  N_39
   14  A    between atoms: N_31  and  C_44
   15  A    between atoms: C_33  and  C_44
                            x       y       z     vdW  Elec       q    Type
                         _______ _______ _______ _____ _____    ______ ____

>  <TORSDO>
F 15

$$$$
=
 OpenBabel10222419513D

 50 55  0  0  1  0  0  0  0  0999 V2000
  187.7880  177.6090  144.4670 C   0  0  0  0  0  0  0  0  0  0  0  0
  188.1010  177.9220  143.0410 C   0  0  2  0  0  3  0  0  0  0  0  0
  185.8090  178.0090  143.4530 C   0  0  0  0  0  3  0  0  0  0  0  0
  186.7250  178.1270  142.4990 C   0  0  0  0  0  0  0  0  0  0  0  0
  186.4810  177.6630  144.6940 C   0  0  0  0  0  3  0  0  0  0  0  0
  190.3700  176.8020  145.1990 S   0  0  0  0  0  0  0  0  0  0  0  0
  188.8040  177.3470  145.5050 C   0  0  0  0  0  0  0  0  0  0  0  0
  188.6720  177.5040  146.8910 C   0  0  0  0  0  0  0  0  0  0  0  0
  187.4750  177.9490  147.5210 N   0  0  0  0  0  1  0  0  0  0  0  0
  192.0680  176.4190  147.3210 N   0  0  0  0  0  1  0  0  0  0  0  0
  189.7760  177.1900  147.6210 N   0  0  0  0  0  0  0  0  0  0  0  0
  190.7890  176.7910  146.8260 C   0  0  0  0  0  0  0  0  0  0  0  0
  186.4540  178.6010  141.1010 C   0  0  0  0  0  2  0  0  0  0  0  0
  184.9890  178.9300  140.8520 C   0  0  2  0  0  3  0  0  0  0  0  0
  184.1880  177.8330  141.1790 O   0  0  0  0  0  1  0  0  0  0  0  0
  184.8040  179.2630  139.4480 N   0  0  0  0  0  2  0  0  0  0  0  0
  183.8190  178.6510  138.6110 C   0  0  0  0  0  0  0  0  0  0  0  0
  182.3170  179.3110  138.4620 S   0  0  0  0  0  0  0  0  0  0  0  0
  183.4540  177.3990  136.4190 C   0  0  1  0  0  3  0  0  0  0  0  0
  186.2260  176.2450  136.6800 C   0  0  0  0  0  2  0  0  0  0  0  0
  184.0270  174.9780  136.6450 N   0  0  0  0  0  2  0  0  0  0  0  0
  186.3400  178.7130  136.9020 C   0  0  0  0  0  1  0  0  0  0  0  0
  185.7820  177.4450  137.5250 C   0  0  1  0  0  3  0  0  0  0  0  0
  182.3230  176.5880  136.6160 O   0  0  0  0  0  0  0  0  0  0  0  0
  185.4180  175.0260  136.9870 C   0  0  0  0  0  0  0  0  0  0  0  0
  184.2500  177.5160  137.7260 C   0  0  1  0  0  3  0  0  0  0  0  0
  185.9320  174.0880  137.6480 O   0  0  0  0  0  0  0  0  0  0  0  0
  183.3570  176.0130  135.8520 C   0  0  1  0  0  3  0  0  0  0  0  0
  188.7250  176.7700  142.4010 N   0  0  0  0  0  2  0  0  0  0  0  0
  191.0900  176.7680  141.8330 C   0  0  0  0  0  1  0  0  0  0  0  0
  189.7080  177.2810  141.4600 C   0  0  1  0  0  3  0  0  0  0  0  0
  189.3410  176.8460  140.0480 C   0  0  0  0  0  2  0  0  0  0  0  0
  189.0620  178.9040  138.6800 C   0  0  0  0  0  1  0  0  0  0  0  0
  189.9960  177.7580  139.0190 C   0  0  2  0  0  3  0  0  0  0  0  0
  190.3140  176.9870  137.7470 C   0  0  0  0  0  2  0  0  0  0  0  0
  189.6840  175.6040  137.7670 C   0  0  0  0  0  2  0  0  0  0  0  0
  190.7210  174.5820  137.7370 N   0  0  0  0  0  2  0  0  0  0  0  0
  191.7470  175.0460  136.8160 C   0  0  0  0  0  2  0  0  0  0  0  0
  195.6090  173.7850  138.4270 C   0  0  2  0  0  3  0  0  0  0  0  0
  193.0560  174.7640  137.3830 N   0  0  0  0  0  2  0  0  0  0  0  0
  197.6660  172.7650  137.3870 C   0  0  0  0  0  2  0  0  0  0  0  0
  196.7960  174.9440  136.5640 C   0  0  0  0  0  2  0  0  0  0  0  0
  195.5230  174.6230  137.2200 N   0  0  0  0  0  0  0  0  0  0  0  0
  194.2640  175.0140  136.6620 C   0  0  0  0  0  0  0  0  0  0  0  0
  196.4390  174.4420  139.3860 O   0  0  0  0  0  0  0  0  0  0  0  0
  194.2230  175.5970  135.5410 O   0  0  0  0  0  0  0  0  0  0  0  0
  197.9060  174.2830  137.3870 C   0  0  1  0  0  0  0  0  0  0  0  0
  196.2880  172.4580  138.0210 C   0  0  0  0  0  2  0  0  0  0  0  0
  197.7280  174.7680  138.8400 C   0  0  0  0  0  2  0  0  0  0  0  0
  199.1690  174.6030  136.8900 O   0  0  0  0  0  1  0  0  0  0  0  0
  1  5  2  0  0  0  0
  1  7  1  0  0  0  0
  2 29  1  6  0  0  0
  2  1  1  0  0  0  0
  3  5  1  0  0  0  0
  4  2  1  0  0  0  0
  4  3  2  0  0  0  0
  6  7  1  0  0  0  0
  6 12  1  0  0  0  0
  7  8  2  0  0  0  0
  8  9  1  0  0  0  0
  8 11  1  0  0  0  0
 12 10  1  0  0  0  0
 12 11  2  0  0  0  0
 13  4  1  0  0  0  0
 14 13  1  0  0  0  0
 14 15  1  6  0  0  0
 16 14  1  0  0  0  0
 17 16  1  0  0  0  0
 18 17  2  0  0  0  0
 19 24  1  1  0  0  0
 19 26  1  0  0  0  0
 20 25  1  0  0  0  0
 20 23  1  0  0  0  0
 21 25  1  0  0  0  0
 23 22  1  6  0  0  0
 23 26  1  0  0  0  0
 25 27  2  0  0  0  0
 26 17  1  6  0  0  0
 28 19  1  0  0  0  0
 28 24  1  1  0  0  0
 28 21  1  0  0  0  0
 31 30  1  1  0  0  0
 31 29  1  0  0  0  0
 32 31  1  0  0  0  0
 34 33  1  6  0  0  0
 34 32  1  0  0  0  0
 35 36  1  0  0  0  0
 35 34  1  0  0  0  0
 37 36  1  0  0  0  0
 38 40  1  0  0  0  0
 38 37  1  0  0  0  0
 39 48  1  6  0  0  0
 39 45  1  0  0  0  0
 41 47  1  0  0  0  0
 41 48  1  0  0  0  0
 42 43  1  0  0  0  0
 42 47  1  0  0  0  0
 43 39  1  0  0  0  0
 44 43  1  0  0  0  0
 44 40  1  0  0  0  0
 46 44  2  0  0  0  0
 47 50  1  6  0  0  0
 47 49  1  0  0  0  0
 49 45  1  0  0  0  0
M  END
>  <MODEL>
5

>  <REMARK>
 VINA RESULT:      -7.6      2.391      3.704
  Name = 
  15 active torsions:
  status: ('A' for Active; 'I' for Inactive)
    1  A    between atoms: C_1  and  C_24
    2  A    between atoms: C_1  and  C_30
    3  A    between atoms: C_2  and  N_12
    4  A    between atoms: C_2  and  N_39
    5  A    between atoms: C_5  and  N_13
    6  A    between atoms: C_5  and  C_41
    7  A    between atoms: C_8  and  C_9
    8  A    between atoms: C_10  and  N_31
    9  A    between atoms: N_13  and  C_36
   10  A    between atoms: C_18  and  C_36
   11  A    between atoms: C_18  and  C_38
   12  A    between atoms: C_24  and  C_33
   13  A    between atoms: C_30  and  N_39
   14  A    between atoms: N_31  and  C_44
   15  A    between atoms: C_33  and  C_44
                            x       y       z     vdW  Elec       q    Type
                         _______ _______ _______ _____ _____    ______ ____

>  <TORSDO>
F 15

$$$$
=
 OpenBabel10222419513D

 50 55  0  0  1  0  0  0  0  0999 V2000
  187.6020  177.6250  145.5980 C   0  0  0  0  0  0  0  0  0  0  0  0
  187.4490  178.2650  144.2570 C   0  0  2  0  0  3  0  0  0  0  0  0
  185.3960  178.0400  145.3360 C   0  0  0  0  0  3  0  0  0  0  0  0
  185.9680  178.4480  144.2090 C   0  0  0  0  0  0  0  0  0  0  0  0
  186.4280  177.5030  146.2070 C   0  0  0  0  0  3  0  0  0  0  0  0
  190.1040  176.3780  145.4050 S   0  0  0  0  0  0  0  0  0  0  0  0
  188.8950  177.2460  146.1990 C   0  0  0  0  0  0  0  0  0  0  0  0
  189.3550  177.5320  147.4900 C   0  0  0  0  0  0  0  0  0  0  0  0
  188.5950  178.2530  148.4540 N   0  0  0  0  0  1  0  0  0  0  0  0
  192.4310  175.8280  146.7540 N   0  0  0  0  0  1  0  0  0  0  0  0
  190.5980  177.0610  147.7840 N   0  0  0  0  0  0  0  0  0  0  0  0
  191.1330  176.4090  146.7320 C   0  0  0  0  0  0  0  0  0  0  0  0
  185.2650  179.1820  143.1050 C   0  0  0  0  0  2  0  0  0  0  0  0
  185.3800  178.4880  141.7550 C   0  0  2  0  0  3  0  0  0  0  0  0
  185.8760  179.3780  140.7990 O   0  0  0  0  0  1  0  0  0  0  0  0
  184.0650  178.0190  141.3440 N   0  0  0  0  0  2  0  0  0  0  0  0
  183.4520  178.3700  140.1000 C   0  0  0  0  0  0  0  0  0  0  0  0
  184.0920  177.8540  138.6730 S   0  0  0  0  0  0  0  0  0  0  0  0
  181.6400  179.5920  138.7850 C   0  0  1  0  0  3  0  0  0  0  0  0
  179.6820  178.9400  140.9820 C   0  0  0  0  0  2  0  0  0  0  0  0
  180.4300  181.2430  140.2180 N   0  0  0  0  0  2  0  0  0  0  0  0
  180.8100  176.8580  140.2430 C   0  0  0  0  0  1  0  0  0  0  0  0
  181.0310  178.2200  140.8810 C   0  0  1  0  0  3  0  0  0  0  0  0
  182.1040  180.9080  138.6120 O   0  0  0  0  0  0  0  0  0  0  0  0
  179.8570  180.4040  141.2290 C   0  0  0  0  0  0  0  0  0  0  0  0
  182.1100  179.0450  140.1400 C   0  0  1  0  0  3  0  0  0  0  0  0
  179.6070  180.8780  142.3670 O   0  0  0  0  0  0  0  0  0  0  0  0
  180.7230  180.7790  138.8590 C   0  0  1  0  0  3  0  0  0  0  0  0
  187.8750  177.3430  143.2110 N   0  0  0  0  0  2  0  0  0  0  0  0
  189.7570  178.8830  143.1560 C   0  0  0  0  0  1  0  0  0  0  0  0
  188.7680  178.0760  142.3290 C   0  0  1  0  0  3  0  0  0  0  0  0
  189.5040  177.1030  141.4190 C   0  0  0  0  0  2  0  0  0  0  0  0
  188.3770  177.7080  139.2860 C   0  0  0  0  0  1  0  0  0  0  0  0
  189.6960  177.7070  140.0340 C   0  0  2  0  0  3  0  0  0  0  0  0
  190.7150  176.9040  139.2380 C   0  0  0  0  0  2  0  0  0  0  0  0
  190.0430  176.0830  138.1490 C   0  0  0  0  0  2  0  0  0  0  0  0
  190.6120  176.4150  136.8510 N   0  0  0  0  0  2  0  0  0  0  0  0
  189.5090  176.8230  135.9950 C   0  0  0  0  0  2  0  0  0  0  0  0
  186.6580  173.5200  136.2490 C   0  0  2  0  0  3  0  0  0  0  0  0
  188.5270  175.7510  135.9430 N   0  0  0  0  0  2  0  0  0  0  0  0
  184.5600  173.1480  137.5940 C   0  0  0  0  0  2  0  0  0  0  0  0
  184.7500  175.1180  136.0890 C   0  0  0  0  0  2  0  0  0  0  0  0
  186.2030  174.9110  136.0880 N   0  0  0  0  0  0  0  0  0  0  0  0
  187.1240  176.0040  136.0390 C   0  0  0  0  0  0  0  0  0  0  0  0
  186.1050  172.7290  135.1960 O   0  0  0  0  0  0  0  0  0  0  0  0
  186.6950  177.1940  136.0600 O   0  0  0  0  0  0  0  0  0  0  0  0
  184.0980  173.7420  136.2530 C   0  0  1  0  0  0  0  0  0  0  0  0
  186.1010  173.0030  137.5930 C   0  0  0  0  0  2  0  0  0  0  0  0
  184.6740  172.8430  135.1400 C   0  0  0  0  0  2  0  0  0  0  0  0
  182.7080  173.8240  136.1810 O   0  0  0  0  0  1  0  0  0  0  0  0
  1  7  1  0  0  0  0
  1  5  2  0  0  0  0
  2 29  1  6  0  0  0
  2  1  1  0  0  0  0
  3  5  1  0  0  0  0
  4  2  1  0  0  0  0
  4  3  2  0  0  0  0
  6  7  1  0  0  0  0
  6 12  1  0  0  0  0
  7  8  2  0  0  0  0
  8 11  1  0  0  0  0
  8  9  1  0  0  0  0
 12 10  1  0  0  0  0
 12 11  2  0  0  0  0
 13  4  1  0  0  0  0
 14 15  1  6  0  0  0
 14 13  1  0  0  0  0
 16 14  1  0  0  0  0
 17 16  1  0  0  0  0
 18 17  2  0  0  0  0
 19 24  1  6  0  0  0
 19 28  1  0  0  0  0
 19 26  1  0  0  0  0
 20 25  1  0  0  0  0
 21 25  1  0  0  0  0
 23 22  1  6  0  0  0
 23 20  1  0  0  0  0
 25 27  2  0  0  0  0
 26 17  1  6  0  0  0
 26 23  1  0  0  0  0
 28 24  1  6  0  0  0
 28 21  1  0  0  0  0
 31 30  1  1  0  0  0
 31 29  1  0  0  0  0
 32 31  1  0  0  0  0
 34 33  1  6  0  0  0
 34 32  1  0  0  0  0
 35 34  1  0  0  0  0
 36 35  1  0  0  0  0
 37 36  1  0  0  0  0
 38 37  1  0  0  0  0
 39 48  1  1  0  0  0
 40 38  1  0  0  0  0
 40 44  1  0  0  0  0
 42 47  1  0  0  0  0
 43 42  1  0  0  0  0
 43 39  1  0  0  0  0
 44 46  2  0  0  0  0
 44 43  1  0  0  0  0
 45 39  1  0  0  0  0
 47 50  1  6  0  0  0
 47 41  1  0  0  0  0
 48 41  1  0  0  0  0
 49 45  1  0  0  0  0
 49 47  1  0  0  0  0
M  END
>  <MODEL>
6

>  <REMARK>
 VINA RESULT:      -7.4      3.926      5.744
  Name = 
  15 active torsions:
  status: ('A' for Active; 'I' for Inactive)
    1  A    between atoms: C_1  and  C_24
    2  A    between atoms: C_1  and  C_30
    3  A    between atoms: C_2  and  N_12
    4  A    between atoms: C_2  and  N_39
    5  A    between atoms: C_5  and  N_13
    6  A    between atoms: C_5  and  C_41
    7  A    between atoms: C_8  and  C_9
    8  A    between atoms: C_10  and  N_31
    9  A    between atoms: N_13  and  C_36
   10  A    between atoms: C_18  and  C_36
   11  A    between atoms: C_18  and  C_38
   12  A    between atoms: C_24  and  C_33
   13  A    between atoms: C_30  and  N_39
   14  A    between atoms: N_31  and  C_44
   15  A    between atoms: C_33  and  C_44
                            x       y       z     vdW  Elec       q    Type
                         _______ _______ _______ _____ _____    ______ ____

>  <TORSDO>
F 15

$$$$
=
 OpenBabel10222419513D

 50 55  0  0  1  0  0  0  0  0999 V2000
  187.1470  177.8460  145.5510 C   0  0  0  0  0  0  0  0  0  0  0  0
  186.9850  178.4400  144.1900 C   0  0  2  0  0  3  0  0  0  0  0  0
  184.9380  178.2420  145.2860 C   0  0  0  0  0  3  0  0  0  0  0  0
  185.5040  178.6140  144.1440 C   0  0  0  0  0  0  0  0  0  0  0  0
  185.9770  177.7380  146.1690 C   0  0  0  0  0  3  0  0  0  0  0  0
  189.7270  176.7750  145.3300 S   0  0  0  0  0  0  0  0  0  0  0  0
  188.4450  177.4930  146.1570 C   0  0  0  0  0  0  0  0  0  0  0  0
  188.8510  177.6860  147.4840 C   0  0  0  0  0  0  0  0  0  0  0  0
  188.0210  178.2700  148.4830 N   0  0  0  0  0  1  0  0  0  0  0  0
  192.0470  176.2460  146.6990 N   0  0  0  0  0  1  0  0  0  0  0  0
  190.1130  177.2670  147.7750 N   0  0  0  0  0  0  0  0  0  0  0  0
  190.7160  176.7460  146.6870 C   0  0  0  0  0  0  0  0  0  0  0  0
  184.7920  179.3080  143.0200 C   0  0  0  0  0  2  0  0  0  0  0  0
  183.7070  178.4540  142.3780 C   0  0  2  0  0  3  0  0  0  0  0  0
  184.1990  177.8420  141.2230 O   0  0  0  0  0  1  0  0  0  0  0  0
  182.5740  179.2990  142.0330 N   0  0  0  0  0  2  0  0  0  0  0  0
  181.2250  178.8290  141.9660 C   0  0  0  0  0  0  0  0  0  0  0  0
  180.0520  179.5040  142.9050 S   0  0  0  0  0  0  0  0  0  0  0  0
  179.4140  177.3700  140.9180 C   0  0  1  0  0  3  0  0  0  0  0  0
  181.0410  177.2650  138.3840 C   0  0  0  0  0  2  0  0  0  0  0  0
  180.3860  175.3180  139.8750 N   0  0  0  0  0  2  0  0  0  0  0  0
  180.7360  179.6300  139.0670 C   0  0  0  0  0  1  0  0  0  0  0  0
  181.3400  178.2970  139.4770 C   0  0  1  0  0  3  0  0  0  0  0  0
  179.3030  176.2350  141.7410 O   0  0  0  0  0  0  0  0  0  0  0  0
  181.2490  175.8680  138.8720 C   0  0  0  0  0  0  0  0  0  0  0  0
  180.8710  177.8500  140.8820 C   0  0  1  0  0  3  0  0  0  0  0  0
  182.2540  175.2170  138.4860 O   0  0  0  0  0  0  0  0  0  0  0  0
  179.1800  175.9970  140.3580 C   0  0  1  0  0  3  0  0  0  0  0  0
  187.4100  177.4850  143.1740 N   0  0  0  0  0  2  0  0  0  0  0  0
  189.4420  178.7190  142.6600 C   0  0  0  0  0  1  0  0  0  0  0  0
  188.0970  178.2380  142.1370 C   0  0  1  0  0  3  0  0  0  0  0  0
  188.2860  177.3640  140.9060 C   0  0  0  0  0  2  0  0  0  0  0  0
  187.4880  177.9080  138.6140 C   0  0  0  0  0  1  0  0  0  0  0  0
  188.5290  178.2210  139.6720 C   0  0  2  0  0  3  0  0  0  0  0  0
  189.9130  177.9530  139.0990 C   0  0  0  0  0  2  0  0  0  0  0  0
  190.5130  176.6810  139.6770 C   0  0  0  0  0  2  0  0  0  0  0  0
  190.5540  175.6420  138.6600 N   0  0  0  0  0  2  0  0  0  0  0  0
  191.1820  176.2230  137.4830 C   0  0  0  0  0  2  0  0  0  0  0  0
  195.3130  174.8160  137.7320 C   0  0  2  0  0  3  0  0  0  0  0  0
  192.5750  175.8060  137.4340 N   0  0  0  0  0  2  0  0  0  0  0  0
  196.3510  172.5280  137.9180 C   0  0  0  0  0  2  0  0  0  0  0  0
  194.8520  173.0730  136.0100 C   0  0  0  0  0  2  0  0  0  0  0  0
  194.3550  174.2090  136.7940 N   0  0  0  0  0  0  0  0  0  0  0  0
  192.9910  174.6370  136.7270 C   0  0  0  0  0  0  0  0  0  0  0  0
  196.4580  175.2590  137.0010 O   0  0  0  0  0  0  0  0  0  0  0  0
  192.1590  173.9900  136.0270 O   0  0  0  0  0  0  0  0  0  0  0  0
  196.3130  172.8490  136.4150 C   0  0  1  0  0  0  0  0  0  0  0  0
  195.7580  173.7130  138.7170 C   0  0  0  0  0  2  0  0  0  0  0  0
  197.0360  174.1980  136.2250 C   0  0  0  0  0  2  0  0  0  0  0  0
  196.9030  171.8380  135.6590 O   0  0  0  0  0  1  0  0  0  0  0  0
  1  7  1  0  0  0  0
  1  5  2  0  0  0  0
  2 29  1  6  0  0  0
  2  1  1  0  0  0  0
  3  5  1  0  0  0  0
  4  2  1  0  0  0  0
  4  3  2  0  0  0  0
  6  7  1  0  0  0  0
  6 12  1  0  0  0  0
  7  8  2  0  0  0  0
  8 11  1  0  0  0  0
  8  9  1  0  0  0  0
 12 10  1  0  0  0  0
 12 11  2  0  0  0  0
 13  4  1  0  0  0  0
 14 15  1  6  0  0  0
 14 13  1  0  0  0  0
 16 14  1  0  0  0  0
 17 16  1  0  0  0  0
 17 18  2  0  0  0  0
 19 24  1  1  0  0  0
 20 25  1  0  0  0  0
 20 23  1  0  0  0  0
 23 22  1  6  0  0  0
 23 26  1  0  0  0  0
 25 21  1  0  0  0  0
 26 19  1  0  0  0  0
 26 17  1  1  0  0  0
 27 25  2  0  0  0  0
 28 21  1  6  0  0  0
 28 19  1  0  0  0  0
 28 24  1  0  0  0  0
 31 30  1  1  0  0  0
 31 29  1  0  0  0  0
 32 31  1  0  0  0  0
 34 33  1  6  0  0  0
 34 32  1  0  0  0  0
 35 34  1  0  0  0  0
 35 36  1  0  0  0  0
 37 36  1  0  0  0  0
 38 37  1  0  0  0  0
 39 48  1  1  0  0  0
 40 38  1  0  0  0  0
 41 48  1  0  0  0  0
 42 47  1  0  0  0  0
 42 43  1  0  0  0  0
 43 39  1  0  0  0  0
 44 43  1  0  0  0  0
 44 40  1  0  0  0  0
 45 39  1  0  0  0  0
 46 44  2  0  0  0  0
 47 50  1  6  0  0  0
 47 41  1  0  0  0  0
 49 47  1  0  0  0  0
 49 45  1  0  0  0  0
M  END
>  <MODEL>
7

>  <REMARK>
 VINA RESULT:      -7.4      2.030      2.981
  Name = 
  15 active torsions:
  status: ('A' for Active; 'I' for Inactive)
    1  A    between atoms: C_1  and  C_24
    2  A    between atoms: C_1  and  C_30
    3  A    between atoms: C_2  and  N_12
    4  A    between atoms: C_2  and  N_39
    5  A    between atoms: C_5  and  N_13
    6  A    between atoms: C_5  and  C_41
    7  A    between atoms: C_8  and  C_9
    8  A    between atoms: C_10  and  N_31
    9  A    between atoms: N_13  and  C_36
   10  A    between atoms: C_18  and  C_36
   11  A    between atoms: C_18  and  C_38
   12  A    between atoms: C_24  and  C_33
   13  A    between atoms: C_30  and  N_39
   14  A    between atoms: N_31  and  C_44
   15  A    between atoms: C_33  and  C_44
                            x       y       z     vdW  Elec       q    Type
                         _______ _______ _______ _____ _____    ______ ____

>  <TORSDO>
F 15

$$$$
=
 OpenBabel10222419513D

 50 55  0  0  1  0  0  0  0  0999 V2000
  188.1070  177.6340  145.0120 C   0  0  0  0  0  0  0  0  0  0  0  0
  187.8700  177.9870  143.5800 C   0  0  2  0  0  3  0  0  0  0  0  0
  185.8850  177.9890  144.8010 C   0  0  0  0  0  3  0  0  0  0  0  0
  186.3870  178.1570  143.5840 C   0  0  0  0  0  0  0  0  0  0  0  0
  186.9720  177.6400  145.7010 C   0  0  0  0  0  3  0  0  0  0  0  0
  189.7270  176.3820  146.9240 S   0  0  0  0  0  0  0  0  0  0  0  0
  189.4370  177.3840  145.6000 C   0  0  0  0  0  0  0  0  0  0  0  0
  190.6690  177.9040  145.1820 C   0  0  0  0  0  0  0  0  0  0  0  0
  190.8120  178.8000  144.0850 N   0  0  0  0  0  1  0  0  0  0  0  0
  192.3110  176.0750  147.8000 N   0  0  0  0  0  1  0  0  0  0  0  0
  191.7470  177.5040  145.9080 N   0  0  0  0  0  0  0  0  0  0  0  0
  191.3840  176.6620  146.8970 C   0  0  0  0  0  0  0  0  0  0  0  0
  185.6130  178.6510  142.3960 C   0  0  0  0  0  2  0  0  0  0  0  0
  184.2700  179.2650  142.7680 C   0  0  2  0  0  3  0  0  0  0  0  0
  184.3090  179.7470  144.0790 O   0  0  0  0  0  1  0  0  0  0  0  0
  183.2320  178.2520  142.6550 N   0  0  0  0  0  2  0  0  0  0  0  0
  182.0310  178.4280  141.9000 C   0  0  0  0  0  0  0  0  0  0  0  0
  180.9040  179.5380  142.3610 S   0  0  0  0  0  0  0  0  0  0  0  0
  180.5060  177.7340  139.9770 C   0  0  1  0  0  3  0  0  0  0  0  0
  182.9470  177.3560  138.2500 C   0  0  0  0  0  2  0  0  0  0  0  0
  181.2610  175.5890  138.9430 N   0  0  0  0  0  2  0  0  0  0  0  0
  183.0040  179.6170  139.2690 C   0  0  0  0  0  1  0  0  0  0  0  0
  183.0210  178.1280  139.5720 C   0  0  1  0  0  3  0  0  0  0  0  0
  179.7790  176.6220  140.4370 O   0  0  0  0  0  0  0  0  0  0  0  0
  182.5700  175.9260  138.4670 C   0  0  0  0  0  0  0  0  0  0  0  0
  181.9180  177.7220  140.5780 C   0  0  1  0  0  3  0  0  0  0  0  0
  183.4410  175.0270  138.3420 O   0  0  0  0  0  0  0  0  0  0  0  0
  180.1810  176.5690  139.0880 C   0  0  1  0  0  3  0  0  0  0  0  0
  188.2440  176.8700  142.7210 N   0  0  0  0  0  2  0  0  0  0  0  0
  190.2890  176.5070  141.4540 C   0  0  0  0  0  1  0  0  0  0  0  0
  189.0790  177.4060  141.6590 C   0  0  1  0  0  3  0  0  0  0  0  0
  188.2710  177.5120  140.3730 C   0  0  0  0  0  2  0  0  0  0  0  0
  189.2190  178.7700  138.4490 C   0  0  0  0  0  1  0  0  0  0  0  0
  189.1840  177.4300  139.1580 C   0  0  2  0  0  3  0  0  0  0  0  0
  188.6870  176.3690  138.1860 C   0  0  0  0  0  2  0  0  0  0  0  0
  188.7860  176.8490  136.7470 C   0  0  0  0  0  2  0  0  0  0  0  0
  189.3860  175.8150  135.9170 N   0  0  0  0  0  2  0  0  0  0  0  0
  190.6240  176.3630  135.3840 C   0  0  0  0  0  2  0  0  0  0  0  0
  194.1720  173.9480  136.2080 C   0  0  2  0  0  3  0  0  0  0  0  0
  191.7280  175.4940  135.7610 N   0  0  0  0  0  2  0  0  0  0  0  0
  196.4760  174.4990  137.0660 C   0  0  0  0  0  2  0  0  0  0  0  0
  194.4670  175.0820  138.4090 C   0  0  0  0  0  2  0  0  0  0  0  0
  193.6700  174.9250  137.1880 N   0  0  0  0  0  0  0  0  0  0  0  0
  192.5300  175.7460  136.9160 C   0  0  0  0  0  0  0  0  0  0  0  0
  194.2610  172.6680  136.8360 O   0  0  0  0  0  0  0  0  0  0  0  0
  192.2220  176.6820  137.7090 O   0  0  0  0  0  0  0  0  0  0  0  0
  195.6500  174.1140  138.3040 C   0  0  1  0  0  0  0  0  0  0  0  0
  195.5940  174.3920  135.8000 C   0  0  0  0  0  2  0  0  0  0  0  0
  195.0560  172.7170  138.0320 C   0  0  0  0  0  2  0  0  0  0  0  0
  196.4250  174.1270  139.4630 O   0  0  0  0  0  1  0  0  0  0  0  0
  1  7  1  0  0  0  0
  1  5  2  0  0  0  0
  2 29  1  6  0  0  0
  2  4  1  0  0  0  0
  2  1  1  0  0  0  0
  3  5  1  0  0  0  0
  4  3  2  0  0  0  0
  7  6  1  0  0  0  0
  8  7  2  0  0  0  0
  8 11  1  0  0  0  0
  9  8  1  0  0  0  0
 11 12  2  0  0  0  0
 12  6  1  0  0  0  0
 12 10  1  0  0  0  0
 13 14  1  0  0  0  0
 13  4  1  0  0  0  0
 14 15  1  1  0  0  0
 16 14  1  0  0  0  0
 17 18  2  0  0  0  0
 17 16  1  0  0  0  0
 19 24  1  1  0  0  0
 19 26  1  0  0  0  0
 20 25  1  0  0  0  0
 20 23  1  0  0  0  0
 23 22  1  6  0  0  0
 23 26  1  0  0  0  0
 25 21  1  0  0  0  0
 26 17  1  1  0  0  0
 27 25  2  0  0  0  0
 28 21  1  1  0  0  0
 28 19  1  0  0  0  0
 28 24  1  0  0  0  0
 31 30  1  6  0  0  0
 31 29  1  0  0  0  0
 32 31  1  0  0  0  0
 34 33  1  6  0  0  0
 34 32  1  0  0  0  0
 35 34  1  0  0  0  0
 36 35  1  0  0  0  0
 37 36  1  0  0  0  0
 38 40  1  0  0  0  0
 38 37  1  0  0  0  0
 39 48  1  1  0  0  0
 39 45  1  0  0  0  0
 39 43  1  0  0  0  0
 40 44  1  0  0  0  0
 41 47  1  0  0  0  0
 43 42  1  0  0  0  0
 44 43  1  0  0  0  0
 44 46  2  0  0  0  0
 45 49  1  0  0  0  0
 47 42  1  0  0  0  0
 47 50  1  1  0  0  0
 48 41  1  0  0  0  0
 49 47  1  0  0  0  0
M  END
>  <MODEL>
8

>  <REMARK>
 VINA RESULT:      -7.3      2.291      3.465
  Name = 
  15 active torsions:
  status: ('A' for Active; 'I' for Inactive)
    1  A    between atoms: C_1  and  C_24
    2  A    between atoms: C_1  and  C_30
    3  A    between atoms: C_2  and  N_12
    4  A    between atoms: C_2  and  N_39
    5  A    between atoms: C_5  and  N_13
    6  A    between atoms: C_5  and  C_41
    7  A    between atoms: C_8  and  C_9
    8  A    between atoms: C_10  and  N_31
    9  A    between atoms: N_13  and  C_36
   10  A    between atoms: C_18  and  C_36
   11  A    between atoms: C_18  and  C_38
   12  A    between atoms: C_24  and  C_33
   13  A    between atoms: C_30  and  N_39
   14  A    between atoms: N_31  and  C_44
   15  A    between atoms: C_33  and  C_44
                            x       y       z     vdW  Elec       q    Type
                         _______ _______ _______ _____ _____    ______ ____

>  <TORSDO>
F 15

$$$$
=
 OpenBabel10222419513D

 50 55  0  0  1  0  0  0  0  0999 V2000
  186.1740  178.0850  143.8590 C   0  0  0  0  0  0  0  0  0  0  0  0
  186.8240  178.4540  142.5670 C   0  0  2  0  0  3  0  0  0  0  0  0
  184.5090  178.3120  142.3490 C   0  0  0  0  0  3  0  0  0  0  0  0
  185.6300  178.5370  141.6750 C   0  0  0  0  0  0  0  0  0  0  0  0
  184.8550  178.0080  143.7270 C   0  0  0  0  0  3  0  0  0  0  0  0
  188.4120  177.1790  145.2820 S   0  0  0  0  0  0  0  0  0  0  0  0
  186.8950  177.9020  145.1340 C   0  0  0  0  0  0  0  0  0  0  0  0
  186.4810  178.2860  146.4150 C   0  0  0  0  0  0  0  0  0  0  0  0
  185.2370  178.9290  146.6790 N   0  0  0  0  0  1  0  0  0  0  0  0
  189.5400  176.9890  147.7770 N   0  0  0  0  0  1  0  0  0  0  0  0
  187.3490  177.9960  147.4210 N   0  0  0  0  0  0  0  0  0  0  0  0
  188.4570  177.3890  146.9480 C   0  0  0  0  0  0  0  0  0  0  0  0
  185.6970  179.0100  140.2520 C   0  0  0  0  0  2  0  0  0  0  0  0
  184.6720  178.3400  139.3470 C   0  0  2  0  0  3  0  0  0  0  0  0
  185.2540  178.0210  138.1180 O   0  0  0  0  0  1  0  0  0  0  0  0
  183.5560  179.2480  139.1340 N   0  0  0  0  0  2  0  0  0  0  0  0
  182.2450  178.8180  138.7560 C   0  0  0  0  0  0  0  0  0  0  0  0
  181.7990  177.2410  138.9190 S   0  0  0  0  0  0  0  0  0  0  0  0
  180.0290  179.3410  137.6070 C   0  0  1  0  0  3  0  0  0  0  0  0
  179.8600  181.8870  139.2110 C   0  0  0  0  0  2  0  0  0  0  0  0
  180.0040  181.6640  136.6870 N   0  0  0  0  0  2  0  0  0  0  0  0
  180.2460  179.9740  140.7430 C   0  0  0  0  0  1  0  0  0  0  0  0
  180.8390  180.7710  139.5930 C   0  0  1  0  0  3  0  0  0  0  0  0
  180.3040  179.3840  136.2290 O   0  0  0  0  0  0  0  0  0  0  0  0
  180.1740  182.4590  137.8670 C   0  0  0  0  0  0  0  0  0  0  0  0
  181.2330  179.8690  138.3990 C   0  0  1  0  0  3  0  0  0  0  0  0
  180.6960  183.6000  137.7820 O   0  0  0  0  0  0  0  0  0  0  0  0
  179.3780  180.3390  136.6930 C   0  0  1  0  0  3  0  0  0  0  0  0
  187.7070  177.3810  142.1260 N   0  0  0  0  0  2  0  0  0  0  0  0
  190.0140  178.1260  141.9260 C   0  0  0  0  0  1  0  0  0  0  0  0
  188.6770  177.9690  141.2170 C   0  0  1  0  0  3  0  0  0  0  0  0
  188.8280  177.0860  139.9860 C   0  0  0  0  0  2  0  0  0  0  0  0
  188.6340  178.5100  137.9560 C   0  0  0  0  0  1  0  0  0  0  0  0
  189.6010  177.8150  138.8950 C   0  0  2  0  0  3  0  0  0  0  0  0
  190.4490  176.8360  138.0960 C   0  0  0  0  0  2  0  0  0  0  0  0
  189.6260  175.6480  137.6270 C   0  0  0  0  0  2  0  0  0  0  0  0
  190.3370  174.4080  137.9020 N   0  0  0  0  0  2  0  0  0  0  0  0
  191.2360  174.1760  136.7820 C   0  0  0  0  0  2  0  0  0  0  0  0
  195.3020  173.3340  138.1450 C   0  0  2  0  0  3  0  0  0  0  0  0
  192.5930  174.0300  137.2850 N   0  0  0  0  0  2  0  0  0  0  0  0
  197.4510  172.7960  136.9430 C   0  0  0  0  0  2  0  0  0  0  0  0
  196.2280  174.9020  136.4400 C   0  0  0  0  0  2  0  0  0  0  0  0
  195.0440  174.3010  137.0650 N   0  0  0  0  0  0  0  0  0  0  0  0
  193.7210  174.5600  136.5860 C   0  0  0  0  0  0  0  0  0  0  0  0
  196.0570  173.9790  139.1720 O   0  0  0  0  0  0  0  0  0  0  0  0
  193.5500  175.2740  135.5560 O   0  0  0  0  0  0  0  0  0  0  0  0
  197.4560  174.3200  137.1470 C   0  0  1  0  0  0  0  0  0  0  0  0
  196.1610  172.1960  137.5500 C   0  0  0  0  0  2  0  0  0  0  0  0
  197.2590  174.5720  138.6560 C   0  0  0  0  0  2  0  0  0  0  0  0
  198.6360  174.8960  136.6790 O   0  0  0  0  0  1  0  0  0  0  0  0
  1  7  1  0  0  0  0
  2 29  1  6  0  0  0
  2  1  1  0  0  0  0
  3  5  1  0  0  0  0
  4  3  2  0  0  0  0
  4  2  1  0  0  0  0
  5  1  2  0  0  0  0
  6 12  1  0  0  0  0
  7  6  1  0  0  0  0
  7  8  2  0  0  0  0
  8  9  1  0  0  0  0
  8 11  1  0  0  0  0
 12 11  2  0  0  0  0
 12 10  1  0  0  0  0
 13  4  1  0  0  0  0
 14 15  1  6  0  0  0
 14 13  1  0  0  0  0
 16 14  1  0  0  0  0
 17 18  2  0  0  0  0
 17 16  1  0  0  0  0
 19 24  1  6  0  0  0
 19 26  1  0  0  0  0
 20 23  1  0  0  0  0
 21 28  1  0  0  0  0
 21 25  1  0  0  0  0
 23 22  1  1  0  0  0
 25 20  1  0  0  0  0
 26 17  1  1  0  0  0
 26 23  1  0  0  0  0
 27 25  2  0  0  0  0
 28 24  1  6  0  0  0
 28 19  1  0  0  0  0
 31 30  1  1  0  0  0
 31 29  1  0  0  0  0
 32 31  1  0  0  0  0
 34 33  1  6  0  0  0
 34 32  1  0  0  0  0
 35 34  1  0  0  0  0
 36 37  1  0  0  0  0
 36 35  1  0  0  0  0
 38 40  1  0  0  0  0
 38 37  1  0  0  0  0
 39 48  1  6  0  0  0
 39 45  1  0  0  0  0
 41 47  1  0  0  0  0
 41 48  1  0  0  0  0
 42 43  1  0  0  0  0
 42 47  1  0  0  0  0
 43 39  1  0  0  0  0
 44 43  1  0  0  0  0
 44 40  1  0  0  0  0
 46 44  2  0  0  0  0
 47 50  1  6  0  0  0
 47 49  1  0  0  0  0
 49 45  1  0  0  0  0
M  END
>  <MODEL>
9

>  <REMARK>
 VINA RESULT:      -7.1      1.705      2.372
  Name = 
  15 active torsions:
  status: ('A' for Active; 'I' for Inactive)
    1  A    between atoms: C_1  and  C_24
    2  A    between atoms: C_1  and  C_30
    3  A    between atoms: C_2  and  N_12
    4  A    between atoms: C_2  and  N_39
    5  A    between atoms: C_5  and  N_13
    6  A    between atoms: C_5  and  C_41
    7  A    between atoms: C_8  and  C_9
    8  A    between atoms: C_10  and  N_31
    9  A    between atoms: N_13  and  C_36
   10  A    between atoms: C_18  and  C_36
   11  A    between atoms: C_18  and  C_38
   12  A    between atoms: C_24  and  C_33
   13  A    between atoms: C_30  and  N_39
   14  A    between atoms: N_31  and  C_44
   15  A    between atoms: C_33  and  C_44
                            x       y       z     vdW  Elec       q    Type
                         _______ _______ _______ _____ _____    ______ ____

>  <TORSDO>
F 15

$$$$
