=
 OpenBabel10222418073D

 25 28  0  0  0  0  0  0  0  0999 V2000
  187.7330  177.9200  144.3440 C   0  0  0  0  0  0  0  0  0  0  0  0
  190.7910  175.5530  143.4470 C   0  0  0  0  0  2  0  0  0  0  0  0
  186.5740  178.0900  145.0370 C   0  0  0  0  0  0  0  0  0  0  0  0
  189.3860  175.5330  142.8470 C   0  0  0  0  0  2  0  0  0  0  0  0
  188.9150  178.0770  146.4220 C   0  0  0  0  0  0  0  0  0  0  0  0
  188.9570  177.9120  145.0180 C   0  0  0  0  0  0  0  0  0  0  0  0
  190.1610  177.7290  144.3380 O   0  0  0  0  0  0  0  0  0  0  0  0
  190.0550  176.4750  140.6390 C   0  0  0  0  0  3  0  0  0  0  0  0
  188.3650  177.6740  141.9140 C   0  0  0  0  0  0  0  0  0  0  0  0
  187.7100  178.2430  147.0530 N   0  0  0  0  0  0  0  0  0  0  0  0
  186.1110  177.9170  142.8890 C   0  0  0  0  0  3  0  0  0  0  0  0
  189.0860  178.4980  139.7330 C   0  0  0  0  0  0  0  0  0  0  0  0
  190.9430  176.5670  144.5780 C   0  0  0  0  0  2  0  0  0  0  0  0
  188.2800  178.6110  140.8740 C   0  0  0  0  0  3  0  0  0  0  0  0
  184.0890  178.2660  144.4390 C   0  0  0  0  0  1  0  0  0  0  0  0
  185.5370  178.0890  144.1420 C   0  0  0  0  0  0  0  0  0  0  0  0
  187.4590  177.7960  143.0230 N   0  0  0  0  0  0  0  0  0  0  0  0
  189.9700  177.4250  139.6200 C   0  0  0  0  0  3  0  0  0  0  0  0
  186.5540  178.2510  146.3800 N   0  0  0  0  0  0  0  0  0  0  0  0
  190.1650  178.1040  147.2310 C   0  0  0  0  0  1  0  0  0  0  0  0
  189.2630  176.5880  141.7910 C   0  0  0  0  0  0  0  0  0  0  0  0
  189.0120  179.4570  138.6770 N   0  0  0  0  0  2  0  0  0  0  0  0
  189.0820  179.0890  137.2690 C   0  0  0  0  0  2  0  0  0  0  0  0
  187.6780  177.1490  136.5880 C   0  0  0  0  0  1  0  0  0  0  0  0
  187.7140  178.6540  136.7780 C   0  0  0  0  0  2  0  0  0  0  0  0
  1  6  2  0  0  0  0
  1  3  1  0  0  0  0
  2 13  1  0  0  0  0
  3 19  2  0  0  0  0
  4  2  1  0  0  0  0
  5 10  2  0  0  0  0
  5 20  1  0  0  0  0
  6  5  1  0  0  0  0
  7 13  1  0  0  0  0
  7  6  1  0  0  0  0
  8 21  1  0  0  0  0
  9 17  1  0  0  0  0
 11 17  1  0  0  0  0
 11 16  2  0  0  0  0
 12 14  2  0  0  0  0
 14  9  1  0  0  0  0
 16 15  1  0  0  0  0
 16  3  1  0  0  0  0
 17  1  1  0  0  0  0
 18 12  1  0  0  0  0
 18  8  2  0  0  0  0
 19 10  1  0  0  0  0
 21  9  2  0  0  0  0
 21  4  1  0  0  0  0
 22 12  1  0  0  0  0
 23 22  1  0  0  0  0
 24 25  1  0  0  0  0
 25 23  1  0  0  0  0
M  END
>  <MODEL>
1

>  <REMARK>
 VINA RESULT:      -6.9      0.000      0.000
  Name = 
  3 active torsions:
  status: ('A' for Active; 'I' for Inactive)
    1  A    between atoms: C_13  and  N_21
    2  A    between atoms: C_15  and  C_20
    3  A    between atoms: C_15  and  N_21
                            x       y       z     vdW  Elec       q    Type
                         _______ _______ _______ _____ _____    ______ ____

>  <TORSDO>
F 3

$$$$
=
 OpenBabel10222418073D

 25 28  0  0  0  0  0  0  0  0999 V2000
  188.9140  176.2900  138.0620 C   0  0  0  0  0  0  0  0  0  0  0  0
  192.8730  176.2940  138.3640 C   0  0  0  0  0  2  0  0  0  0  0  0
  187.8160  176.6200  137.3290 C   0  0  0  0  0  0  0  0  0  0  0  0
  191.9100  177.4400  138.6710 C   0  0  0  0  0  2  0  0  0  0  0  0
  189.3870  174.5800  136.4520 C   0  0  0  0  0  0  0  0  0  0  0  0
  189.7450  175.2460  137.6470 C   0  0  0  0  0  0  0  0  0  0  0  0
  190.8830  174.8900  138.3700 O   0  0  0  0  0  0  0  0  0  0  0  0
  192.1760  177.3170  141.1460 C   0  0  0  0  0  3  0  0  0  0  0  0
  189.9350  177.0630  140.2360 C   0  0  0  0  0  0  0  0  0  0  0  0
  188.2660  174.9670  135.7650 N   0  0  0  0  0  0  0  0  0  0  0  0
  187.9120  177.9170  139.1090 C   0  0  0  0  0  3  0  0  0  0  0  0
  190.3090  176.9730  142.6460 C   0  0  0  0  0  0  0  0  0  0  0  0
  192.1720  175.0620  137.7960 C   0  0  0  0  0  2  0  0  0  0  0  0
  189.4440  176.9330  141.5430 C   0  0  0  0  0  3  0  0  0  0  0  0
  185.9090  178.3160  137.5470 C   0  0  0  0  0  1  0  0  0  0  0  0
  187.1680  177.6450  137.9670 C   0  0  0  0  0  0  0  0  0  0  0  0
  188.9930  177.0930  139.1500 N   0  0  0  0  0  0  0  0  0  0  0  0
  191.6750  177.1690  142.4400 C   0  0  0  0  0  3  0  0  0  0  0  0
  187.4870  175.9690  136.1900 N   0  0  0  0  0  0  0  0  0  0  0  0
  190.1940  173.4400  135.9340 C   0  0  0  0  0  1  0  0  0  0  0  0
  191.3200  177.2620  140.0370 C   0  0  0  0  0  0  0  0  0  0  0  0
  189.8170  176.8290  143.9790 N   0  0  0  0  0  2  0  0  0  0  0  0
  189.3590  177.9560  144.7790 C   0  0  0  0  0  2  0  0  0  0  0  0
  186.9600  177.2990  144.6570 C   0  0  0  0  0  1  0  0  0  0  0  0
  188.1340  177.5600  145.5820 C   0  0  0  0  0  2  0  0  0  0  0  0
  1 17  1  0  0  0  0
  2  4  1  0  0  0  0
  3 16  1  0  0  0  0
  3  1  2  0  0  0  0
  4 21  1  0  0  0  0
  5  6  2  0  0  0  0
  6  1  1  0  0  0  0
  6  7  1  0  0  0  0
  8 18  1  0  0  0  0
  9 14  2  0  0  0  0
 10 19  2  0  0  0  0
 10  5  1  0  0  0  0
 11 17  1  0  0  0  0
 12 22  1  0  0  0  0
 13  2  1  0  0  0  0
 13  7  1  0  0  0  0
 14 12  1  0  0  0  0
 15 16  1  0  0  0  0
 16 11  2  0  0  0  0
 17  9  1  0  0  0  0
 18 12  2  0  0  0  0
 19  3  1  0  0  0  0
 20  5  1  0  0  0  0
 21  9  1  0  0  0  0
 21  8  2  0  0  0  0
 22 23  1  0  0  0  0
 23 25  1  0  0  0  0
 24 25  1  0  0  0  0
M  END
>  <MODEL>
2

>  <REMARK>
 VINA RESULT:      -6.4      2.873      7.049
  Name = 
  3 active torsions:
  status: ('A' for Active; 'I' for Inactive)
    1  A    between atoms: C_13  and  N_21
    2  A    between atoms: C_15  and  C_20
    3  A    between atoms: C_15  and  N_21
                            x       y       z     vdW  Elec       q    Type
                         _______ _______ _______ _____ _____    ______ ____

>  <TORSDO>
F 3

$$$$
=
 OpenBabel10222418073D

 25 28  0  0  0  0  0  0  0  0999 V2000
  181.5830  179.2160  139.2220 C   0  0  0  0  0  0  0  0  0  0  0  0
  179.0540  179.8640  142.2130 C   0  0  0  0  0  2  0  0  0  0  0  0
  181.7860  178.7050  137.9780 C   0  0  0  0  0  0  0  0  0  0  0  0
  179.8150  178.5780  141.8940 C   0  0  0  0  0  2  0  0  0  0  0  0
  180.2950  180.9680  138.2150 C   0  0  0  0  0  0  0  0  0  0  0  0
  180.8260  180.3800  139.3870 C   0  0  0  0  0  0  0  0  0  0  0  0
  180.5910  180.9220  140.6500 O   0  0  0  0  0  0  0  0  0  0  0  0
  181.4080  178.7630  143.8010 C   0  0  0  0  0  3  0  0  0  0  0  0
  182.3400  178.6380  141.5580 C   0  0  0  0  0  0  0  0  0  0  0  0
  180.5400  180.3970  136.9940 N   0  0  0  0  0  0  0  0  0  0  0  0
  182.8450  177.4550  139.4520 C   0  0  0  0  0  3  0  0  0  0  0  0
  183.8080  178.8070  143.5010 C   0  0  0  0  0  0  0  0  0  0  0  0
  179.2700  180.9600  141.1720 C   0  0  0  0  0  2  0  0  0  0  0  0
  183.6260  178.6960  142.1150 C   0  0  0  0  0  3  0  0  0  0  0  0
  183.0760  176.7200  136.9980 C   0  0  0  0  0  1  0  0  0  0  0  0
  182.5760  177.5920  138.0960 C   0  0  0  0  0  0  0  0  0  0  0  0
  182.2160  178.4460  140.1390 N   0  0  0  0  0  0  0  0  0  0  0  0
  182.6940  178.8360  144.3390 C   0  0  0  0  0  3  0  0  0  0  0  0
  181.2730  179.2840  136.8680 N   0  0  0  0  0  0  0  0  0  0  0  0
  179.4930  182.2210  138.2790 C   0  0  0  0  0  1  0  0  0  0  0  0
  181.2160  178.6670  142.4160 C   0  0  0  0  0  0  0  0  0  0  0  0
  185.1150  178.8790  144.0730 N   0  0  0  0  0  2  0  0  0  0  0  0
  185.3470  178.9530  145.5090 C   0  0  0  0  0  2  0  0  0  0  0  0
  187.1390  177.3730  144.8070 C   0  0  0  0  0  1  0  0  0  0  0  0
  186.2430  177.8120  145.9500 C   0  0  0  0  0  2  0  0  0  0  0  0
  1  6  1  0  0  0  0
  1 17  1  0  0  0  0
  3 16  1  0  0  0  0
  3  1  2  0  0  0  0
  4  2  1  0  0  0  0
  4 21  1  0  0  0  0
  5 20  1  0  0  0  0
  5  6  2  0  0  0  0
  6  7  1  0  0  0  0
  7 13  1  0  0  0  0
  8 18  1  0  0  0  0
  9 14  2  0  0  0  0
  9 21  1  0  0  0  0
 10  5  1  0  0  0  0
 11 17  1  0  0  0  0
 12 22  1  0  0  0  0
 12 18  2  0  0  0  0
 13  2  1  0  0  0  0
 14 12  1  0  0  0  0
 15 16  1  0  0  0  0
 16 11  2  0  0  0  0
 17  9  1  0  0  0  0
 19 10  2  0  0  0  0
 19  3  1  0  0  0  0
 21  8  2  0  0  0  0
 22 23  1  0  0  0  0
 23 25  1  0  0  0  0
 24 25  1  0  0  0  0
M  END
>  <MODEL>
3

>  <REMARK>
 VINA RESULT:      -6.2      5.521      9.395
  Name = 
  3 active torsions:
  status: ('A' for Active; 'I' for Inactive)
    1  A    between atoms: C_13  and  N_21
    2  A    between atoms: C_15  and  C_20
    3  A    between atoms: C_15  and  N_21
                            x       y       z     vdW  Elec       q    Type
                         _______ _______ _______ _____ _____    ______ ____

>  <TORSDO>
F 3

$$$$
=
 OpenBabel10222418073D

 25 28  0  0  0  0  0  0  0  0999 V2000
  184.8720  178.6980  140.8010 C   0  0  0  0  0  0  0  0  0  0  0  0
  184.5810  177.0000  137.2240 C   0  0  0  0  0  2  0  0  0  0  0  0
  185.1390  178.5490  142.1260 C   0  0  0  0  0  0  0  0  0  0  0  0
  183.5420  177.0040  138.3450 C   0  0  0  0  0  2  0  0  0  0  0  0
  187.2100  178.3910  140.3690 C   0  0  0  0  0  0  0  0  0  0  0  0
  185.9090  178.6280  139.8660 C   0  0  0  0  0  0  0  0  0  0  0  0
  185.6680  178.7660  138.4990 O   0  0  0  0  0  0  0  0  0  0  0  0
  181.9810  178.5860  137.2180 C   0  0  0  0  0  3  0  0  0  0  0  0
  182.8260  179.2030  139.4140 C   0  0  0  0  0  0  0  0  0  0  0  0
  187.4030  178.2500  141.7190 N   0  0  0  0  0  0  0  0  0  0  0  0
  182.9850  178.9330  141.8620 C   0  0  0  0  0  3  0  0  0  0  0  0
  181.2810  180.6710  138.2260 C   0  0  0  0  0  0  0  0  0  0  0  0
  185.8940  177.6700  137.6230 C   0  0  0  0  0  2  0  0  0  0  0  0
  182.0640  180.3790  139.3510 C   0  0  0  0  0  3  0  0  0  0  0  0
  183.7710  178.6280  144.2910 C   0  0  0  0  0  1  0  0  0  0  0  0
  183.9640  178.6900  142.8170 C   0  0  0  0  0  0  0  0  0  0  0  0
  183.5480  178.9180  140.6240 N   0  0  0  0  0  0  0  0  0  0  0  0
  181.2410  179.7690  137.1630 C   0  0  0  0  0  3  0  0  0  0  0  0
  186.3900  178.3270  142.5910 N   0  0  0  0  0  0  0  0  0  0  0  0
  188.3860  178.3200  139.4600 C   0  0  0  0  0  1  0  0  0  0  0  0
  182.7790  178.2930  138.3330 C   0  0  0  0  0  0  0  0  0  0  0  0
  180.5120  181.8730  138.1500 N   0  0  0  0  0  2  0  0  0  0  0  0
  180.4610  182.7060  136.9570 C   0  0  0  0  0  2  0  0  0  0  0  0
  180.8820  185.0030  136.0930 C   0  0  0  0  0  1  0  0  0  0  0  0
  181.1830  184.0170  137.2060 C   0  0  0  0  0  2  0  0  0  0  0  0
  1  3  1  0  0  0  0
  2 13  1  0  0  0  0
  2  4  1  0  0  0  0
  3 19  2  0  0  0  0
  3 16  1  0  0  0  0
  5 10  2  0  0  0  0
  6  5  1  0  0  0  0
  6  1  2  0  0  0  0
  7  6  1  0  0  0  0
  8 21  1  0  0  0  0
  9 17  1  0  0  0  0
 10 19  1  0  0  0  0
 11 16  2  0  0  0  0
 12 14  2  0  0  0  0
 13  7  1  0  0  0  0
 14  9  1  0  0  0  0
 16 15  1  0  0  0  0
 17  1  1  0  0  0  0
 17 11  1  0  0  0  0
 18  8  2  0  0  0  0
 18 12  1  0  0  0  0
 20  5  1  0  0  0  0
 21  4  1  0  0  0  0
 21  9  2  0  0  0  0
 22 12  1  0  0  0  0
 23 25  1  0  0  0  0
 23 22  1  0  0  0  0
 24 25  1  0  0  0  0
M  END
>  <MODEL>
4

>  <REMARK>
 VINA RESULT:      -6.2      5.141      7.051
  Name = 
  3 active torsions:
  status: ('A' for Active; 'I' for Inactive)
    1  A    between atoms: C_13  and  N_21
    2  A    between atoms: C_15  and  C_20
    3  A    between atoms: C_15  and  N_21
                            x       y       z     vdW  Elec       q    Type
                         _______ _______ _______ _____ _____    ______ ____

>  <TORSDO>
F 3

$$$$
=
 OpenBabel10222418073D

 25 28  0  0  0  0  0  0  0  0999 V2000
  187.1670  178.0140  142.5020 C   0  0  0  0  0  0  0  0  0  0  0  0
  184.9040  179.6040  145.3500 C   0  0  0  0  0  2  0  0  0  0  0  0
  188.3370  178.0490  141.8090 C   0  0  0  0  0  0  0  0  0  0  0  0
  185.0690  180.0850  143.9090 C   0  0  0  0  0  2  0  0  0  0  0  0
  188.3990  177.2320  144.4030 C   0  0  0  0  0  0  0  0  0  0  0  0
  187.1550  177.5960  143.8360 C   0  0  0  0  0  0  0  0  0  0  0  0
  185.9750  177.5590  144.5770 O   0  0  0  0  0  0  0  0  0  0  0  0
  182.8090  179.3540  143.1530 C   0  0  0  0  0  3  0  0  0  0  0  0
  184.7400  178.4590  141.9750 C   0  0  0  0  0  0  0  0  0  0  0  0
  189.5380  177.2930  143.6440 N   0  0  0  0  0  0  0  0  0  0  0  0
  186.6920  178.6680  140.4800 C   0  0  0  0  0  3  0  0  0  0  0  0
  182.4800  177.8220  141.3110 C   0  0  0  0  0  0  0  0  0  0  0  0
  185.8090  178.4230  145.6930 C   0  0  0  0  0  2  0  0  0  0  0  0
  183.8690  177.7500  141.1360 C   0  0  0  0  0  3  0  0  0  0  0  0
  189.0310  178.6280  139.4120 C   0  0  0  0  0  1  0  0  0  0  0  0
  188.0650  178.4620  140.5310 C   0  0  0  0  0  0  0  0  0  0  0  0
  186.1500  178.4090  141.7000 N   0  0  0  0  0  0  0  0  0  0  0  0
  181.9560  178.6290  142.3200 C   0  0  0  0  0  3  0  0  0  0  0  0
  189.5170  177.6930  142.3660 N   0  0  0  0  0  0  0  0  0  0  0  0
  188.4930  176.7530  145.8100 C   0  0  0  0  0  1  0  0  0  0  0  0
  184.2010  179.2760  142.9950 C   0  0  0  0  0  0  0  0  0  0  0  0
  181.5880  177.0920  140.4660 N   0  0  0  0  0  2  0  0  0  0  0  0
  180.1680  177.3950  140.3660 C   0  0  0  0  0  2  0  0  0  0  0  0
  179.9900  174.9160  140.2170 C   0  0  0  0  0  1  0  0  0  0  0  0
  179.3470  176.1800  140.7560 C   0  0  0  0  0  2  0  0  0  0  0  0
  1  6  1  0  0  0  0
  2 13  1  0  0  0  0
  3 19  1  0  0  0  0
  3  1  2  0  0  0  0
  4  2  1  0  0  0  0
  5 20  1  0  0  0  0
  6  5  2  0  0  0  0
  6  7  1  0  0  0  0
  7 13  1  0  0  0  0
  9 21  2  0  0  0  0
 10  5  1  0  0  0  0
 11 16  2  0  0  0  0
 11 17  1  0  0  0  0
 12 18  1  0  0  0  0
 14 12  2  0  0  0  0
 14  9  1  0  0  0  0
 15 16  1  0  0  0  0
 16  3  1  0  0  0  0
 17  9  1  0  0  0  0
 17  1  1  0  0  0  0
 18  8  2  0  0  0  0
 19 10  2  0  0  0  0
 21  8  1  0  0  0  0
 21  4  1  0  0  0  0
 22 12  1  0  0  0  0
 23 22  1  0  0  0  0
 23 25  1  0  0  0  0
 24 25  1  0  0  0  0
M  END
>  <MODEL>
5

>  <REMARK>
 VINA RESULT:      -6.0      3.155      5.928
  Name = 
  3 active torsions:
  status: ('A' for Active; 'I' for Inactive)
    1  A    between atoms: C_13  and  N_21
    2  A    between atoms: C_15  and  C_20
    3  A    between atoms: C_15  and  N_21
                            x       y       z     vdW  Elec       q    Type
                         _______ _______ _______ _____ _____    ______ ____

>  <TORSDO>
F 3

$$$$
=
 OpenBabel10222418073D

 25 28  0  0  0  0  0  0  0  0999 V2000
  188.4310  175.7430  137.5800 C   0  0  0  0  0  0  0  0  0  0  0  0
  192.1570  175.0510  136.3980 C   0  0  0  0  0  2  0  0  0  0  0  0
  187.1610  176.0890  137.2360 C   0  0  0  0  0  0  0  0  0  0  0  0
  191.4990  176.4020  136.6740 C   0  0  0  0  0  2  0  0  0  0  0  0
  188.0690  173.6310  136.5060 C   0  0  0  0  0  0  0  0  0  0  0  0
  188.9340  174.4870  137.2270 C   0  0  0  0  0  0  0  0  0  0  0  0
  190.2340  174.1060  137.5540 O   0  0  0  0  0  0  0  0  0  0  0  0
  192.7350  176.8400  138.7930 C   0  0  0  0  0  3  0  0  0  0  0  0
  190.3050  176.8110  138.8880 C   0  0  0  0  0  0  0  0  0  0  0  0
  186.8010  174.0490  136.1940 N   0  0  0  0  0  0  0  0  0  0  0  0
  188.0760  177.7390  138.3760 C   0  0  0  0  0  3  0  0  0  0  0  0
  191.6160  177.2440  140.8990 C   0  0  0  0  0  0  0  0  0  0  0  0
  191.1880  173.8770  136.5260 C   0  0  0  0  0  2  0  0  0  0  0  0
  190.3790  177.1040  140.2570 C   0  0  0  0  0  3  0  0  0  0  0  0
  185.6510  178.1250  137.6120 C   0  0  0  0  0  1  0  0  0  0  0  0
  186.9130  177.3450  137.7250 C   0  0  0  0  0  0  0  0  0  0  0  0
  189.0090  176.7560  138.2670 N   0  0  0  0  0  0  0  0  0  0  0  0
  192.7920  177.1140  140.1610 C   0  0  0  0  0  3  0  0  0  0  0  0
  186.3460  175.2560  136.5500 N   0  0  0  0  0  0  0  0  0  0  0  0
  188.5000  172.2650  136.1000 C   0  0  0  0  0  1  0  0  0  0  0  0
  191.5020  176.6830  138.1460 C   0  0  0  0  0  0  0  0  0  0  0  0
  191.6970  177.5290  142.2970 N   0  0  0  0  0  2  0  0  0  0  0  0
  190.9940  176.7490  143.3060 C   0  0  0  0  0  2  0  0  0  0  0  0
  188.5640  176.9660  143.8010 C   0  0  0  0  0  1  0  0  0  0  0  0
  189.9310  177.6000  143.9740 C   0  0  0  0  0  2  0  0  0  0  0  0
  1 17  1  0  0  0  0
  2 13  1  0  0  0  0
  2  4  1  0  0  0  0
  3  1  1  0  0  0  0
  3 16  1  0  0  0  0
  4 21  1  0  0  0  0
  5  6  1  0  0  0  0
  6  7  1  0  0  0  0
  6  1  2  0  0  0  0
  8 18  1  0  0  0  0
  9 14  2  0  0  0  0
 10  5  2  0  0  0  0
 10 19  1  0  0  0  0
 12 22  1  0  0  0  0
 13  7  1  0  0  0  0
 14 12  1  0  0  0  0
 15 16  1  0  0  0  0
 16 11  2  0  0  0  0
 17 11  1  0  0  0  0
 17  9  1  0  0  0  0
 18 12  2  0  0  0  0
 19  3  2  0  0  0  0
 20  5  1  0  0  0  0
 21  8  2  0  0  0  0
 21  9  1  0  0  0  0
 22 23  1  0  0  0  0
 23 25  1  0  0  0  0
 24 25  1  0  0  0  0
M  END
>  <MODEL>
6

>  <REMARK>
 VINA RESULT:      -5.8      3.494      7.287
  Name = 
  3 active torsions:
  status: ('A' for Active; 'I' for Inactive)
    1  A    between atoms: C_13  and  N_21
    2  A    between atoms: C_15  and  C_20
    3  A    between atoms: C_15  and  N_21
                            x       y       z     vdW  Elec       q    Type
                         _______ _______ _______ _____ _____    ______ ____

>  <TORSDO>
F 3

$$$$
=
 OpenBabel10222418073D

 25 28  0  0  0  0  0  0  0  0999 V2000
  183.6300  178.3290  140.6520 C   0  0  0  0  0  0  0  0  0  0  0  0
  180.2510  179.6180  142.2900 C   0  0  0  0  0  2  0  0  0  0  0  0
  184.7960  178.6420  140.0240 C   0  0  0  0  0  0  0  0  0  0  0  0
  180.5480  179.4010  140.8070 C   0  0  0  0  0  2  0  0  0  0  0  0
  184.5480  179.2530  142.6640 C   0  0  0  0  0  0  0  0  0  0  0  0
  183.4640  178.6230  142.0080 C   0  0  0  0  0  0  0  0  0  0  0  0
  182.2780  178.3260  142.6780 O   0  0  0  0  0  0  0  0  0  0  0  0
  179.1280  177.3660  140.5750 C   0  0  0  0  0  3  0  0  0  0  0  0
  181.4840  177.1700  140.0060 C   0  0  0  0  0  0  0  0  0  0  0  0
  185.6930  179.5380  141.9670 N   0  0  0  0  0  0  0  0  0  0  0  0
  183.4490  177.6470  138.5910 C   0  0  0  0  0  3  0  0  0  0  0  0
  179.9980  175.2460  139.8030 C   0  0  0  0  0  0  0  0  0  0  0  0
  181.4650  179.3770  143.1840 C   0  0  0  0  0  2  0  0  0  0  0  0
  181.2670  175.8260  139.6710 C   0  0  0  0  0  3  0  0  0  0  0  0
  185.7490  178.3330  137.6660 C   0  0  0  0  0  1  0  0  0  0  0  0
  184.7070  178.2240  138.7230 C   0  0  0  0  0  0  0  0  0  0  0  0
  182.7870  177.7330  139.7760 N   0  0  0  0  0  0  0  0  0  0  0  0
  178.9310  176.0230  140.2530 C   0  0  0  0  0  3  0  0  0  0  0  0
  185.8250  179.2400  140.6680 N   0  0  0  0  0  0  0  0  0  0  0  0
  184.4820  179.5890  144.1130 C   0  0  0  0  0  1  0  0  0  0  0  0
  180.3970  177.9510  140.4600 C   0  0  0  0  0  0  0  0  0  0  0  0
  179.7740  173.8730  139.4750 N   0  0  0  0  0  2  0  0  0  0  0  0
  179.5280  173.4160  138.1140 C   0  0  0  0  0  2  0  0  0  0  0  0
  181.5260  172.6160  136.8640 C   0  0  0  0  0  1  0  0  0  0  0  0
  180.4040  172.2170  137.8030 C   0  0  0  0  0  2  0  0  0  0  0  0
  1  6  1  0  0  0  0
  2 13  1  0  0  0  0
  3  1  2  0  0  0  0
  3 19  1  0  0  0  0
  4  2  1  0  0  0  0
  5 20  1  0  0  0  0
  6  5  2  0  0  0  0
  6  7  1  0  0  0  0
  7 13  1  0  0  0  0
  9 21  2  0  0  0  0
 10  5  1  0  0  0  0
 11 16  2  0  0  0  0
 11 17  1  0  0  0  0
 12 18  1  0  0  0  0
 14 12  2  0  0  0  0
 14  9  1  0  0  0  0
 15 16  1  0  0  0  0
 16  3  1  0  0  0  0
 17  9  1  0  0  0  0
 17  1  1  0  0  0  0
 18  8  2  0  0  0  0
 19 10  2  0  0  0  0
 21  8  1  0  0  0  0
 21  4  1  0  0  0  0
 22 12  1  0  0  0  0
 23 22  1  0  0  0  0
 24 25  1  0  0  0  0
 25 23  1  0  0  0  0
M  END
>  <MODEL>
7

>  <REMARK>
 VINA RESULT:      -5.7      5.604      8.238
  Name = 
  3 active torsions:
  status: ('A' for Active; 'I' for Inactive)
    1  A    between atoms: C_13  and  N_21
    2  A    between atoms: C_15  and  C_20
    3  A    between atoms: C_15  and  N_21
                            x       y       z     vdW  Elec       q    Type
                         _______ _______ _______ _____ _____    ______ ____

>  <TORSDO>
F 3

$$$$
=
 OpenBabel10222418073D

 25 28  0  0  0  0  0  0  0  0999 V2000
  184.4440  177.5250  137.7910 C   0  0  0  0  0  0  0  0  0  0  0  0
  187.7100  177.0840  135.5770 C   0  0  0  0  0  2  0  0  0  0  0  0
  183.1540  177.9510  137.8660 C   0  0  0  0  0  0  0  0  0  0  0  0
  187.2310  178.3440  136.2960 C   0  0  0  0  0  2  0  0  0  0  0  0
  183.6910  175.7120  136.4170 C   0  0  0  0  0  0  0  0  0  0  0  0
  184.7610  176.3770  137.0600 C   0  0  0  0  0  0  0  0  0  0  0  0
  186.0740  175.9200  136.9550 O   0  0  0  0  0  0  0  0  0  0  0  0
  188.9780  178.2840  138.0730 C   0  0  0  0  0  3  0  0  0  0  0  0
  186.6490  178.2560  138.7750 C   0  0  0  0  0  0  0  0  0  0  0  0
  182.4160  176.2000  136.5360 N   0  0  0  0  0  0  0  0  0  0  0  0
  184.4290  179.2940  139.0620 C   0  0  0  0  0  3  0  0  0  0  0  0
  188.4420  178.2140  140.4300 C   0  0  0  0  0  0  0  0  0  0  0  0
  186.7280  175.9200  135.6930 C   0  0  0  0  0  2  0  0  0  0  0  0
  187.0770  178.2320  140.1110 C   0  0  0  0  0  3  0  0  0  0  0  0
  181.9210  179.8630  139.0430 C   0  0  0  0  0  1  0  0  0  0  0  0
  183.1180  179.0670  138.6600 C   0  0  0  0  0  0  0  0  0  0  0  0
  185.2400  178.3530  138.5090 N   0  0  0  0  0  0  0  0  0  0  0  0
  189.3880  178.2430  139.4060 C   0  0  0  0  0  3  0  0  0  0  0  0
  182.1420  177.3010  137.2480 N   0  0  0  0  0  0  0  0  0  0  0  0
  183.9180  174.4690  135.6300 C   0  0  0  0  0  1  0  0  0  0  0  0
  187.6150  178.2870  137.7430 C   0  0  0  0  0  0  0  0  0  0  0  0
  188.8840  178.1780  141.7890 N   0  0  0  0  0  2  0  0  0  0  0  0
  189.4430  176.9830  142.4060 C   0  0  0  0  0  2  0  0  0  0  0  0
  187.4350  177.2420  143.8560 C   0  0  0  0  0  1  0  0  0  0  0  0
  188.3680  176.2510  143.1880 C   0  0  0  0  0  2  0  0  0  0  0  0
  1  3  1  0  0  0  0
  1 17  1  0  0  0  0
  2 13  1  0  0  0  0
  2  4  1  0  0  0  0
  3 16  1  0  0  0  0
  4 21  1  0  0  0  0
  5 10  2  0  0  0  0
  5  6  1  0  0  0  0
  6  1  2  0  0  0  0
  7  6  1  0  0  0  0
  8 18  1  0  0  0  0
  9 14  2  0  0  0  0
 10 19  1  0  0  0  0
 12 22  1  0  0  0  0
 13  7  1  0  0  0  0
 14 12  1  0  0  0  0
 16 15  1  0  0  0  0
 16 11  2  0  0  0  0
 17  9  1  0  0  0  0
 17 11  1  0  0  0  0
 18 12  2  0  0  0  0
 19  3  2  0  0  0  0
 20  5  1  0  0  0  0
 21  8  2  0  0  0  0
 21  9  1  0  0  0  0
 22 23  1  0  0  0  0
 23 25  1  0  0  0  0
 25 24  1  0  0  0  0
M  END
>  <MODEL>
8

>  <REMARK>
 VINA RESULT:      -5.7      3.930      7.426
  Name = 
  3 active torsions:
  status: ('A' for Active; 'I' for Inactive)
    1  A    between atoms: C_13  and  N_21
    2  A    between atoms: C_15  and  C_20
    3  A    between atoms: C_15  and  N_21
                            x       y       z     vdW  Elec       q    Type
                         _______ _______ _______ _____ _____    ______ ____

>  <TORSDO>
F 3

$$$$
=
 OpenBabel10222418073D

 25 28  0  0  0  0  0  0  0  0999 V2000
  185.9280  177.4550  137.8250 C   0  0  0  0  0  0  0  0  0  0  0  0
  189.4830  177.2320  136.0720 C   0  0  0  0  0  2  0  0  0  0  0  0
  184.6600  177.9460  137.7950 C   0  0  0  0  0  0  0  0  0  0  0  0
  188.9450  178.3580  136.9540 C   0  0  0  0  0  2  0  0  0  0  0  0
  185.3330  176.0030  136.0150 C   0  0  0  0  0  0  0  0  0  0  0  0
  186.3130  176.4530  136.9300 C   0  0  0  0  0  0  0  0  0  0  0  0
  187.6080  175.9370  136.9280 O   0  0  0  0  0  0  0  0  0  0  0  0
  190.3860  177.8310  138.9180 C   0  0  0  0  0  3  0  0  0  0  0  0
  187.9760  177.8270  139.2510 C   0  0  0  0  0  0  0  0  0  0  0  0
  184.0750  176.5440  136.0420 N   0  0  0  0  0  0  0  0  0  0  0  0
  185.7800  178.9390  139.4130 C   0  0  0  0  0  3  0  0  0  0  0  0
  189.4830  177.3390  141.1070 C   0  0  0  0  0  0  0  0  0  0  0  0
  188.4520  176.1390  135.8020 C   0  0  0  0  0  2  0  0  0  0  0  0
  188.1880  177.5130  140.6010 C   0  0  0  0  0  3  0  0  0  0  0  0
  183.3290  179.6710  139.1430 C   0  0  0  0  0  1  0  0  0  0  0  0
  184.5410  178.8860  138.7850 C   0  0  0  0  0  0  0  0  0  0  0  0
  186.6310  178.0710  138.8050 N   0  0  0  0  0  0  0  0  0  0  0  0
  190.5790  177.5030  140.2610 C   0  0  0  0  0  3  0  0  0  0  0  0
  183.7340  177.5000  136.9150 N   0  0  0  0  0  0  0  0  0  0  0  0
  185.6340  174.9240  135.0330 C   0  0  0  0  0  1  0  0  0  0  0  0
  189.0930  177.9920  138.3990 C   0  0  0  0  0  0  0  0  0  0  0  0
  189.7030  177.0070  142.4790 N   0  0  0  0  0  2  0  0  0  0  0  0
  188.6890  176.3780  143.3140 C   0  0  0  0  0  2  0  0  0  0  0  0
  186.8060  177.1760  144.7330 C   0  0  0  0  0  1  0  0  0  0  0  0
  188.2870  177.3130  144.4380 C   0  0  0  0  0  2  0  0  0  0  0  0
  1 17  1  0  0  0  0
  2  4  1  0  0  0  0
  3  1  1  0  0  0  0
  3 16  1  0  0  0  0
  4 21  1  0  0  0  0
  5 10  2  0  0  0  0
  5  6  1  0  0  0  0
  6  1  2  0  0  0  0
  7  6  1  0  0  0  0
  8 18  1  0  0  0  0
  9 14  2  0  0  0  0
 10 19  1  0  0  0  0
 12 22  1  0  0  0  0
 13  2  1  0  0  0  0
 13  7  1  0  0  0  0
 14 12  1  0  0  0  0
 16 15  1  0  0  0  0
 16 11  2  0  0  0  0
 17  9  1  0  0  0  0
 17 11  1  0  0  0  0
 18 12  2  0  0  0  0
 19  3  2  0  0  0  0
 20  5  1  0  0  0  0
 21  8  2  0  0  0  0
 21  9  1  0  0  0  0
 22 23  1  0  0  0  0
 23 25  1  0  0  0  0
 25 24  1  0  0  0  0
M  END
>  <MODEL>
9

>  <REMARK>
 VINA RESULT:      -5.6      3.190      7.165
  Name = 
  3 active torsions:
  status: ('A' for Active; 'I' for Inactive)
    1  A    between atoms: C_13  and  N_21
    2  A    between atoms: C_15  and  C_20
    3  A    between atoms: C_15  and  N_21
                            x       y       z     vdW  Elec       q    Type
                         _______ _______ _______ _____ _____    ______ ____

>  <TORSDO>
F 3

$$$$
