=
 OpenBabel10222420183D

 27 32  0  0  1  0  0  0  0  0999 V2000
  191.5350  176.2260  142.9790 C   0  0  0  0  0  2  0  0  0  0  0  0
  190.4090  175.8470  143.9660 C   0  0  0  0  0  2  0  0  0  0  0  0
  189.2690  176.8350  143.8390 C   0  0  1  0  0  3  0  0  0  0  0  0
  188.8110  176.7150  142.4480 N   0  0  2  0  0  0  0  0  0  0  0  0
  189.1060  178.0780  142.0020 C   0  0  1  0  0  3  0  0  0  0  0  0
  190.5930  178.1630  141.5760 C   0  0  0  0  0  2  0  0  0  0  0  0
  191.6080  177.7340  142.6570 C   0  0  0  0  0  2  0  0  0  0  0  0
  187.9190  176.3780  143.5990 C   0  0  2  0  0  3  0  0  0  0  0  0
  186.6090  177.8920  145.2180 C   0  0  0  0  0  0  0  0  0  0  0  0
  184.6870  179.1400  144.3760 C   0  0  0  0  0  3  0  0  0  0  0  0
  184.9410  178.6780  143.0890 C   0  0  0  0  0  3  0  0  0  0  0  0
  185.5000  178.7310  145.4320 C   0  0  0  0  0  3  0  0  0  0  0  0
  186.8760  177.4320  143.8980 C   0  0  0  0  0  0  0  0  0  0  0  0
  186.0100  177.8120  142.8610 C   0  0  0  0  0  3  0  0  0  0  0  0
  187.3250  177.3440  146.4370 C   0  0  1  0  0  3  0  0  0  0  0  0
  187.8170  177.7400  148.8710 N   0  0  0  0  0  2  0  0  0  0  0  0
  189.0660  178.0310  148.2980 N   0  0  2  0  0  0  0  0  0  0  0  0
  188.4480  178.2440  146.9530 C   0  0  1  0  0  0  0  0  0  0  0  0
  187.1040  178.1450  147.6800 C   0  0  1  0  0  0  0  0  0  0  0  0
  186.5470  179.5650  147.7080 C   0  0  0  0  0  1  0  0  0  0  0  0
  189.3790  177.1320  147.2140 C   0  0  0  0  0  2  0  0  0  0  0  0
  188.2170  178.4790  140.8190 C   0  0  0  0  0  2  0  0  0  0  0  0
  188.9040  178.3320  139.4650 C   0  0  0  0  0  2  0  0  0  0  0  0
  187.2330  177.5240  137.7710 C   0  0  0  0  0  0  0  0  0  0  0  0
  186.7210  176.5730  137.1250 O   0  0  0  0  0  0  0  0  0  0  0  0
  186.7690  178.8190  137.5750 O   0  0  0  0  0  1  0  0  0  0  0  0
  188.2830  177.2630  138.6990 N   0  0  0  0  0  2  0  0  0  0  0  0
  1  2  1  0  0  0  0
  3  2  1  6  0  0  0
  4  8  1  0  0  0  0
  4  3  1  0  0  0  0
  5  4  1  0  0  0  0
  6  5  1  0  0  0  0
  6  7  1  0  0  0  0
  7  1  1  0  0  0  0
  8  3  1  0  0  0  0
  8 13  1  0  0  0  0
  9 12  1  0  0  0  0
  9 15  1  0  0  0  0
 10 12  2  0  0  0  0
 11 10  1  0  0  0  0
 13  9  2  0  0  0  0
 14 11  2  0  0  0  0
 14 13  1  0  0  0  0
 15 18  1  0  0  0  0
 15 19  1  0  0  0  0
 17 16  1  0  0  0  0
 18 21  1  0  0  0  0
 18 19  1  0  0  0  0
 18 17  1  0  0  0  0
 19 20  1  0  0  0  0
 19 16  1  0  0  0  0
 21 17  1  0  0  0  0
 22  5  1  0  0  0  0
 23 22  1  0  0  0  0
 24 27  1  0  0  0  0
 25 24  2  0  0  0  0
 26 24  1  0  0  0  0
 27 23  1  0  0  0  0
M  END
>  <MODEL>
1

>  <REMARK>
 VINA RESULT:      -8.6      0.000      0.000
  Name = 
  5 active torsions:
  status: ('A' for Active; 'I' for Inactive)
    1  A    between atoms: C_1  and  C_6
    2  A    between atoms: C_2  and  C_14
    3  A    between atoms: C_2  and  N_20
    4  A    between atoms: C_14  and  C_19
    5  A    between atoms: C_17  and  C_27
                            x       y       z     vdW  Elec       q    Type
                         _______ _______ _______ _____ _____    ______ ____

>  <TORSDO>
F 5

$$$$
=
 OpenBabel10222420183D

 27 32  0  0  1  0  0  0  0  0999 V2000
  189.7780  176.7230  140.6650 C   0  0  0  0  0  2  0  0  0  0  0  0
  189.5950  176.0680  142.0520 C   0  0  0  0  0  2  0  0  0  0  0  0
  188.7630  176.9720  142.9360 C   0  0  1  0  0  3  0  0  0  0  0  0
  187.4740  177.1060  142.2430 N   0  0  2  0  0  0  0  0  0  0  0  0
  187.5040  178.5490  142.0000 C   0  0  1  0  0  3  0  0  0  0  0  0
  188.3060  178.8300  140.7040 C   0  0  0  0  0  2  0  0  0  0  0  0
  189.7430  178.2660  140.6900 C   0  0  0  0  0  2  0  0  0  0  0  0
  187.5770  176.4750  143.5940 C   0  0  2  0  0  3  0  0  0  0  0  0
  187.8520  177.5240  145.9290 C   0  0  0  0  0  0  0  0  0  0  0  0
  185.9870  178.7710  146.8930 C   0  0  0  0  0  3  0  0  0  0  0  0
  185.2590  178.6020  145.7200 C   0  0  0  0  0  3  0  0  0  0  0  0
  187.2620  178.2160  147.0020 C   0  0  0  0  0  3  0  0  0  0  0  0
  187.1100  177.3640  144.7250 C   0  0  0  0  0  0  0  0  0  0  0  0
  185.8080  177.8830  144.6590 C   0  0  0  0  0  3  0  0  0  0  0  0
  189.1540  176.7930  146.1930 C   0  0  1  0  0  3  0  0  0  0  0  0
  191.0750  176.5460  147.7970 N   0  0  0  0  0  2  0  0  0  0  0  0
  191.6990  177.2300  146.7410 N   0  0  2  0  0  0  0  0  0  0  0  0
  190.3830  177.7040  146.2110 C   0  0  1  0  0  0  0  0  0  0  0  0
  189.7880  177.1350  147.5030 C   0  0  1  0  0  0  0  0  0  0  0  0
  189.4190  178.3480  148.3520 C   0  0  0  0  0  1  0  0  0  0  0  0
  191.2340  176.7670  145.4560 C   0  0  0  0  0  2  0  0  0  0  0  0
  186.0880  179.1150  141.8510 C   0  0  0  0  0  2  0  0  0  0  0  0
  185.3350  178.5630  140.6450 C   0  0  0  0  0  2  0  0  0  0  0  0
  183.4150  179.5540  139.3630 C   0  0  0  0  0  0  0  0  0  0  0  0
  182.9320  180.5150  138.7090 O   0  0  0  0  0  0  0  0  0  0  0  0
  182.6530  178.4120  139.5740 O   0  0  0  0  0  1  0  0  0  0  0  0
  184.7390  179.6480  139.8820 N   0  0  0  0  0  2  0  0  0  0  0  0
  1  7  1  0  0  0  0
  1  2  1  0  0  0  0
  3  2  1  6  0  0  0
  3  8  1  0  0  0  0
  4  3  1  0  0  0  0
  4  8  1  0  0  0  0
  5  4  1  0  0  0  0
  6  5  1  0  0  0  0
  7  6  1  0  0  0  0
  8 13  1  0  0  0  0
  9 15  1  0  0  0  0
  9 12  1  0  0  0  0
 10 12  2  0  0  0  0
 11 10  1  0  0  0  0
 13  9  2  0  0  0  0
 14 13  1  0  0  0  0
 14 11  2  0  0  0  0
 15 18  1  0  0  0  0
 15 19  1  0  0  0  0
 17 16  1  0  0  0  0
 18 17  1  0  0  0  0
 18 19  1  0  0  0  0
 19 16  1  0  0  0  0
 19 20  1  0  0  0  0
 21 18  1  0  0  0  0
 21 17  1  0  0  0  0
 22  5  1  0  0  0  0
 23 22  1  0  0  0  0
 24 26  1  0  0  0  0
 24 27  1  0  0  0  0
 25 24  2  0  0  0  0
 27 23  1  0  0  0  0
M  END
>  <MODEL>
2

>  <REMARK>
 VINA RESULT:      -8.4      2.201      2.928
  Name = 
  5 active torsions:
  status: ('A' for Active; 'I' for Inactive)
    1  A    between atoms: C_1  and  C_6
    2  A    between atoms: C_2  and  C_14
    3  A    between atoms: C_2  and  N_20
    4  A    between atoms: C_14  and  C_19
    5  A    between atoms: C_17  and  C_27
                            x       y       z     vdW  Elec       q    Type
                         _______ _______ _______ _____ _____    ______ ____

>  <TORSDO>
F 5

$$$$
=
 OpenBabel10222420183D

 27 32  0  0  1  0  0  0  0  0999 V2000
  191.3190  177.0080  145.4080 C   0  0  0  0  0  2  0  0  0  0  0  0
  189.8000  176.7390  145.4910 C   0  0  0  0  0  2  0  0  0  0  0  0
  189.0950  177.4430  144.3510 C   0  0  1  0  0  3  0  0  0  0  0  0
  189.6670  176.8600  143.1280 N   0  0  2  0  0  0  0  0  0  0  0  0
  190.2710  178.0710  142.5690 C   0  0  1  0  0  3  0  0  0  0  0  0
  191.6680  178.2830  143.2030 C   0  0  0  0  0  2  0  0  0  0  0  0
  191.6830  178.3540  144.7450 C   0  0  0  0  0  2  0  0  0  0  0  0
  188.2180  176.7150  143.4630 C   0  0  2  0  0  3  0  0  0  0  0  0
  186.1110  178.1710  143.1930 C   0  0  0  0  0  0  0  0  0  0  0  0
  185.5240  179.0030  140.9750 C   0  0  0  0  0  3  0  0  0  0  0  0
  186.6880  178.4500  140.4520 C   0  0  0  0  0  3  0  0  0  0  0  0
  185.2290  178.8430  142.3280 C   0  0  0  0  0  3  0  0  0  0  0  0
  187.3080  177.6180  142.6590 C   0  0  0  0  0  0  0  0  0  0  0  0
  187.5560  177.7440  141.2830 C   0  0  0  0  0  3  0  0  0  0  0  0
  185.6300  177.8770  144.6010 C   0  0  1  0  0  3  0  0  0  0  0  0
  184.0810  178.6290  146.4340 N   0  0  0  0  0  2  0  0  0  0  0  0
  185.3230  179.0130  146.9640 N   0  0  2  0  0  0  0  0  0  0  0  0
  185.9610  178.9760  145.6120 C   0  0  1  0  0  0  0  0  0  0  0  0
  184.5410  178.7860  145.0720 C   0  0  1  0  0  0  0  0  0  0  0  0
  184.1720  180.1100  144.4110 C   0  0  0  0  0  1  0  0  0  0  0  0
  186.3490  178.0400  146.6810 C   0  0  0  0  0  2  0  0  0  0  0  0
  190.4160  177.9650  141.0470 C   0  0  0  0  0  2  0  0  0  0  0  0
  191.0790  176.6710  140.5880 C   0  0  0  0  0  2  0  0  0  0  0  0
  191.7430  176.0000  138.2590 C   0  0  0  0  0  0  0  0  0  0  0  0
  192.4080  176.2290  137.2150 O   0  0  0  0  0  0  0  0  0  0  0  0
  190.9290  174.8760  138.3250 O   0  0  0  0  0  1  0  0  0  0  0  0
  191.8310  176.8970  139.3640 N   0  0  0  0  0  2  0  0  0  0  0  0
  1  2  1  0  0  0  0
  3  2  1  1  0  0  0
  4  8  1  0  0  0  0
  4  3  1  0  0  0  0
  5  4  1  0  0  0  0
  5  6  1  0  0  0  0
  6  7  1  0  0  0  0
  7  1  1  0  0  0  0
  8  3  1  0  0  0  0
  9 15  1  0  0  0  0
 10 12  1  0  0  0  0
 11 10  2  0  0  0  0
 11 14  1  0  0  0  0
 12  9  2  0  0  0  0
 13  9  1  0  0  0  0
 13  8  1  0  0  0  0
 14 13  2  0  0  0  0
 15 19  1  0  0  0  0
 15 18  1  0  0  0  0
 16 17  1  0  0  0  0
 18 21  1  0  0  0  0
 18 17  1  0  0  0  0
 19 18  1  0  0  0  0
 19 16  1  0  0  0  0
 20 19  1  0  0  0  0
 21 17  1  0  0  0  0
 22  5  1  0  0  0  0
 23 22  1  0  0  0  0
 24 26  1  0  0  0  0
 24 27  1  0  0  0  0
 25 24  2  0  0  0  0
 27 23  1  0  0  0  0
M  END
>  <MODEL>
3

>  <REMARK>
 VINA RESULT:      -7.8      2.362      3.190
  Name = 
  5 active torsions:
  status: ('A' for Active; 'I' for Inactive)
    1  A    between atoms: C_1  and  C_6
    2  A    between atoms: C_2  and  C_14
    3  A    between atoms: C_2  and  N_20
    4  A    between atoms: C_14  and  C_19
    5  A    between atoms: C_17  and  C_27
                            x       y       z     vdW  Elec       q    Type
                         _______ _______ _______ _____ _____    ______ ____

>  <TORSDO>
F 5

$$$$
=
 OpenBabel10222420183D

 27 32  0  0  1  0  0  0  0  0999 V2000
  191.4190  177.1130  142.4160 C   0  0  0  0  0  2  0  0  0  0  0  0
  191.3470  177.4010  140.9010 C   0  0  0  0  0  2  0  0  0  0  0  0
  189.9310  177.1890  140.4100 C   0  0  1  0  0  3  0  0  0  0  0  0
  189.1150  178.1500  141.1670 N   0  0  2  0  0  0  0  0  0  0  0  0
  188.2590  177.1980  141.8770 C   0  0  1  0  0  3  0  0  0  0  0  0
  188.9900  176.7100  143.1530 C   0  0  0  0  0  2  0  0  0  0  0  0
  190.3800  176.0840  142.9110 C   0  0  0  0  0  2  0  0  0  0  0  0
  189.2400  178.2270  139.6790 C   0  0  2  0  0  3  0  0  0  0  0  0
  188.0830  176.6080  138.0440 C   0  0  0  0  0  0  0  0  0  0  0  0
  185.7900  177.0690  137.3460 C   0  0  0  0  0  3  0  0  0  0  0  0
  185.7410  178.1620  138.2060 C   0  0  0  0  0  3  0  0  0  0  0  0
  186.9600  176.3160  137.2510 C   0  0  0  0  0  3  0  0  0  0  0  0
  188.0260  177.7170  138.9340 C   0  0  0  0  0  0  0  0  0  0  0  0
  186.8580  178.4940  138.9710 C   0  0  0  0  0  3  0  0  0  0  0  0
  189.3700  175.8630  137.7460 C   0  0  1  0  0  3  0  0  0  0  0  0
  191.3190  175.6970  136.1650 N   0  0  0  0  0  2  0  0  0  0  0  0
  190.5980  174.5420  135.8190 N   0  0  2  0  0  0  0  0  0  0  0  0
  189.3460  175.0870  136.4280 C   0  0  1  0  0  0  0  0  0  0  0  0
  190.1220  176.4000  136.5710 C   0  0  1  0  0  0  0  0  0  0  0  0
  189.5350  177.3390  135.5220 C   0  0  0  0  0  1  0  0  0  0  0  0
  190.0260  173.9020  136.9780 C   0  0  0  0  0  2  0  0  0  0  0  0
  186.9260  177.8410  142.2730 C   0  0  0  0  0  2  0  0  0  0  0  0
  186.6920  177.8810  143.7790 C   0  0  0  0  0  2  0  0  0  0  0  0
  184.9510  178.7700  145.3580 C   0  0  0  0  0  0  0  0  0  0  0  0
  183.7610  179.1210  145.5690 O   0  0  0  0  0  0  0  0  0  0  0  0
  185.8850  178.8470  146.3840 O   0  0  0  0  0  1  0  0  0  0  0  0
  185.3290  178.2960  144.0680 N   0  0  0  0  0  2  0  0  0  0  0  0
  1  7  1  0  0  0  0
  2  1  1  0  0  0  0
  3  2  1  1  0  0  0
  3  4  1  0  0  0  0
  4  5  1  0  0  0  0
  5 22  1  0  0  0  0
  5  6  1  0  0  0  0
  7  6  1  0  0  0  0
  8  3  1  0  0  0  0
  8  4  1  0  0  0  0
  9 13  1  0  0  0  0
 10 11  2  0  0  0  0
 11 14  1  0  0  0  0
 12 10  1  0  0  0  0
 12  9  2  0  0  0  0
 13 14  2  0  0  0  0
 13  8  1  0  0  0  0
 15  9  1  0  0  0  0
 16 19  1  0  0  0  0
 17 16  1  0  0  0  0
 17 18  1  0  0  0  0
 17 21  1  0  0  0  0
 18 19  1  0  0  0  0
 18 21  1  0  0  0  0
 18 15  1  0  0  0  0
 19 15  1  0  0  0  0
 20 19  1  0  0  0  0
 22 23  1  0  0  0  0
 23 27  1  0  0  0  0
 24 25  2  0  0  0  0
 24 26  1  0  0  0  0
 27 24  1  0  0  0  0
M  END
>  <MODEL>
4

>  <REMARK>
 VINA RESULT:      -7.8      3.392      7.641
  Name = 
  5 active torsions:
  status: ('A' for Active; 'I' for Inactive)
    1  A    between atoms: C_1  and  C_6
    2  A    between atoms: C_2  and  C_14
    3  A    between atoms: C_2  and  N_20
    4  A    between atoms: C_14  and  C_19
    5  A    between atoms: C_17  and  C_27
                            x       y       z     vdW  Elec       q    Type
                         _______ _______ _______ _____ _____    ______ ____

>  <TORSDO>
F 5

$$$$
=
 OpenBabel10222420183D

 27 32  0  0  1  0  0  0  0  0999 V2000
  188.8200  177.7350  141.8950 C   0  0  0  0  0  2  0  0  0  0  0  0
  187.6690  178.3440  141.0660 C   0  0  0  0  0  2  0  0  0  0  0  0
  186.3670  178.2120  141.8280 C   0  0  1  0  0  3  0  0  0  0  0  0
  186.5740  178.9650  143.0740 N   0  0  2  0  0  0  0  0  0  0  0  0
  186.4250  177.8620  144.0250 C   0  0  1  0  0  3  0  0  0  0  0  0
  187.7800  177.1250  144.1660 C   0  0  0  0  0  2  0  0  0  0  0  0
  188.3790  176.6000  142.8440 C   0  0  0  0  0  2  0  0  0  0  0  0
  185.5360  179.3670  142.0770 C   0  0  2  0  0  3  0  0  0  0  0  0
  183.2680  178.2220  141.6540 C   0  0  0  0  0  0  0  0  0  0  0  0
  181.4130  178.6750  143.1730 C   0  0  0  0  0  3  0  0  0  0  0  0
  182.2470  179.4510  143.9720 C   0  0  0  0  0  3  0  0  0  0  0  0
  181.9160  178.0870  142.0130 C   0  0  0  0  0  3  0  0  0  0  0  0
  184.1230  179.0040  142.4800 C   0  0  0  0  0  0  0  0  0  0  0  0
  183.5810  179.6320  143.6120 C   0  0  0  0  0  3  0  0  0  0  0  0
  183.6890  177.7130  140.2880 C   0  0  1  0  0  3  0  0  0  0  0  0
  183.7520  178.2530  137.8330 N   0  0  0  0  0  2  0  0  0  0  0  0
  182.7480  177.2720  137.8630 N   0  0  2  0  0  0  0  0  0  0  0  0
  182.5240  177.4820  139.3260 C   0  0  1  0  0  0  0  0  0  0  0  0
  183.4560  178.6880  139.1800 C   0  0  1  0  0  0  0  0  0  0  0  0
  182.5570  179.9160  139.2820 C   0  0  0  0  0  1  0  0  0  0  0  0
  183.0590  176.2170  138.7950 C   0  0  0  0  0  2  0  0  0  0  0  0
  185.9810  178.3720  145.3990 C   0  0  0  0  0  2  0  0  0  0  0  0
  186.4300  177.4810  146.5530 C   0  0  0  0  0  2  0  0  0  0  0  0
  188.4990  177.8780  147.9230 C   0  0  0  0  0  0  0  0  0  0  0  0
  189.1200  178.5750  148.7670 O   0  0  0  0  0  1  0  0  0  0  0  0
  189.1000  176.7460  147.3870 O   0  0  0  0  0  0  0  0  0  0  0  0
  187.1840  178.2570  147.5260 N   0  0  0  0  0  2  0  0  0  0  0  0
  1  7  1  0  0  0  0
  2  1  1  0  0  0  0
  3  2  1  6  0  0  0
  3  8  1  0  0  0  0
  3  4  1  0  0  0  0
  4  5  1  0  0  0  0
  5  6  1  0  0  0  0
  5 22  1  0  0  0  0
  7  6  1  0  0  0  0
  8 13  1  0  0  0  0
  8  4  1  0  0  0  0
  9 12  2  0  0  0  0
  9 13  1  0  0  0  0
 10 11  2  0  0  0  0
 12 10  1  0  0  0  0
 13 14  2  0  0  0  0
 14 11  1  0  0  0  0
 15  9  1  0  0  0  0
 16 17  1  0  0  0  0
 16 19  1  0  0  0  0
 17 21  1  0  0  0  0
 17 18  1  0  0  0  0
 18 15  1  0  0  0  0
 19 20  1  0  0  0  0
 19 18  1  0  0  0  0
 19 15  1  0  0  0  0
 21 18  1  0  0  0  0
 22 23  1  0  0  0  0
 23 27  1  0  0  0  0
 24 25  1  0  0  0  0
 26 24  2  0  0  0  0
 27 24  1  0  0  0  0
M  END
>  <MODEL>
5

>  <REMARK>
 VINA RESULT:      -7.6      4.038      7.308
  Name = 
  5 active torsions:
  status: ('A' for Active; 'I' for Inactive)
    1  A    between atoms: C_1  and  C_6
    2  A    between atoms: C_2  and  C_14
    3  A    between atoms: C_2  and  N_20
    4  A    between atoms: C_14  and  C_19
    5  A    between atoms: C_17  and  C_27
                            x       y       z     vdW  Elec       q    Type
                         _______ _______ _______ _____ _____    ______ ____

>  <TORSDO>
F 5

$$$$
=
 OpenBabel10222420183D

 27 32  0  0  1  0  0  0  0  0999 V2000
  190.9320  176.7020  142.4350 C   0  0  0  0  0  2  0  0  0  0  0  0
  190.5670  177.3490  141.0810 C   0  0  0  0  0  2  0  0  0  0  0  0
  189.0610  177.4130  140.9380 C   0  0  1  0  0  3  0  0  0  0  0  0
  188.6050  178.2470  142.0590 N   0  0  2  0  0  0  0  0  0  0  0  0
  187.7880  177.2510  142.7550 C   0  0  1  0  0  3  0  0  0  0  0  0
  188.6990  176.3980  143.6720 C   0  0  0  0  0  2  0  0  0  0  0  0
  189.8780  175.7020  142.9590 C   0  0  0  0  0  2  0  0  0  0  0  0
  188.4010  178.6630  140.6380 C   0  0  2  0  0  3  0  0  0  0  0  0
  186.6830  178.1380  138.7930 C   0  0  0  0  0  0  0  0  0  0  0  0
  184.3120  178.4960  139.2480 C   0  0  0  0  0  3  0  0  0  0  0  0
  184.6090  178.8430  140.5610 C   0  0  0  0  0  3  0  0  0  0  0  0
  185.3430  178.1700  138.3670 C   0  0  0  0  0  3  0  0  0  0  0  0
  186.9830  178.4790  140.1410 C   0  0  0  0  0  0  0  0  0  0  0  0
  185.9340  178.8580  140.9930 C   0  0  0  0  0  3  0  0  0  0  0  0
  187.7550  177.9600  137.7340 C   0  0  1  0  0  3  0  0  0  0  0  0
  188.3770  176.7120  135.6420 N   0  0  0  0  0  2  0  0  0  0  0  0
  189.2320  176.1050  136.5750 N   0  0  2  0  0  0  0  0  0  0  0  0
  188.3840  176.5660  137.7180 C   0  0  1  0  0  0  0  0  0  0  0  0
  187.3800  177.0040  136.6470 C   0  0  1  0  0  0  0  0  0  0  0  0
  186.2300  176.0060  136.7310 C   0  0  0  0  0  1  0  0  0  0  0  0
  189.7580  177.0600  137.5190 C   0  0  0  0  0  2  0  0  0  0  0  0
  186.7010  177.9210  143.6030 C   0  0  0  0  0  2  0  0  0  0  0  0
  186.5260  177.2870  144.9790 C   0  0  0  0  0  2  0  0  0  0  0  0
  185.6190  178.9520  146.6270 C   0  0  0  0  0  0  0  0  0  0  0  0
  185.8280  179.8070  147.5270 O   0  0  0  0  0  1  0  0  0  0  0  0
  184.3170  178.6700  146.2330 O   0  0  0  0  0  0  0  0  0  0  0  0
  186.7210  178.2820  146.0210 N   0  0  0  0  0  2  0  0  0  0  0  0
  1  7  1  0  0  0  0
  2  1  1  0  0  0  0
  3  2  1  1  0  0  0
  3  4  1  0  0  0  0
  4  5  1  0  0  0  0
  5 22  1  0  0  0  0
  5  6  1  0  0  0  0
  7  6  1  0  0  0  0
  8  3  1  0  0  0  0
  8  4  1  0  0  0  0
  9 13  1  0  0  0  0
 10 11  2  0  0  0  0
 11 14  1  0  0  0  0
 12  9  2  0  0  0  0
 12 10  1  0  0  0  0
 13  8  1  0  0  0  0
 13 14  2  0  0  0  0
 15  9  1  0  0  0  0
 16 17  1  0  0  0  0
 16 19  1  0  0  0  0
 17 21  1  0  0  0  0
 17 18  1  0  0  0  0
 18 15  1  0  0  0  0
 19 20  1  0  0  0  0
 19 18  1  0  0  0  0
 19 15  1  0  0  0  0
 21 18  1  0  0  0  0
 22 23  1  0  0  0  0
 23 27  1  0  0  0  0
 24 25  1  0  0  0  0
 26 24  2  0  0  0  0
 27 24  1  0  0  0  0
M  END
>  <MODEL>
6

>  <REMARK>
 VINA RESULT:      -7.5      3.134      7.261
  Name = 
  5 active torsions:
  status: ('A' for Active; 'I' for Inactive)
    1  A    between atoms: C_1  and  C_6
    2  A    between atoms: C_2  and  C_14
    3  A    between atoms: C_2  and  N_20
    4  A    between atoms: C_14  and  C_19
    5  A    between atoms: C_17  and  C_27
                            x       y       z     vdW  Elec       q    Type
                         _______ _______ _______ _____ _____    ______ ____

>  <TORSDO>
F 5

$$$$
=
 OpenBabel10222420183D

 27 32  0  0  1  0  0  0  0  0999 V2000
  184.7940  178.3190  144.0330 C   0  0  0  0  0  2  0  0  0  0  0  0
  185.4550  177.9870  142.6770 C   0  0  0  0  0  2  0  0  0  0  0  0
  186.9570  177.9190  142.8470 C   0  0  1  0  0  3  0  0  0  0  0  0
  187.1850  176.8410  143.8200 N   0  0  2  0  0  0  0  0  0  0  0  0
  187.8100  177.6320  144.8820 C   0  0  1  0  0  3  0  0  0  0  0  0
  186.7040  178.2780  145.7530 C   0  0  0  0  0  2  0  0  0  0  0  0
  185.6870  179.1470  144.9820 C   0  0  0  0  0  2  0  0  0  0  0  0
  187.6970  176.7540  142.4190 C   0  0  2  0  0  3  0  0  0  0  0  0
  189.7650  177.5680  141.1180 C   0  0  0  0  0  0  0  0  0  0  0  0
  191.9850  177.1280  142.0310 C   0  0  0  0  0  3  0  0  0  0  0  0
  191.4140  176.5700  143.1700 C   0  0  0  0  0  3  0  0  0  0  0  0
  191.1660  177.6000  141.0060 C   0  0  0  0  0  3  0  0  0  0  0  0
  189.1820  177.0100  142.2900 C   0  0  0  0  0  0  0  0  0  0  0  0
  190.0270  176.4910  143.2830 C   0  0  0  0  0  3  0  0  0  0  0  0
  188.9510  177.9240  139.8890 C   0  0  1  0  0  3  0  0  0  0  0  0
  188.3350  177.1990  137.5610 N   0  0  0  0  0  2  0  0  0  0  0  0
  189.1830  178.2830  137.2840 N   0  0  2  0  0  0  0  0  0  0  0  0
  189.7960  178.2090  138.6460 C   0  0  1  0  0  0  0  0  0  0  0  0
  189.0150  176.9000  138.8010 C   0  0  1  0  0  0  0  0  0  0  0  0
  190.0570  175.7890  138.7190 C   0  0  0  0  0  1  0  0  0  0  0  0
  188.9890  179.3650  138.2180 C   0  0  0  0  0  2  0  0  0  0  0  0
  188.7070  176.7610  145.7660 C   0  0  0  0  0  2  0  0  0  0  0  0
  189.2810  177.5030  146.9690 C   0  0  0  0  0  2  0  0  0  0  0  0
  191.5360  176.4610  147.3470 C   0  0  0  0  0  0  0  0  0  0  0  0
  192.2760  175.7000  148.0230 O   0  0  0  0  0  1  0  0  0  0  0  0
  192.0560  177.1270  146.2440 O   0  0  0  0  0  0  0  0  0  0  0  0
  190.1710  176.6330  147.7210 N   0  0  0  0  0  2  0  0  0  0  0  0
  1  7  1  0  0  0  0
  2  1  1  0  0  0  0
  3  2  1  6  0  0  0
  3  4  1  0  0  0  0
  4  5  1  0  0  0  0
  5  6  1  0  0  0  0
  5 22  1  0  0  0  0
  7  6  1  0  0  0  0
  8  3  1  0  0  0  0
  8  4  1  0  0  0  0
  9 13  1  0  0  0  0
 10 11  2  0  0  0  0
 11 14  1  0  0  0  0
 12  9  2  0  0  0  0
 12 10  1  0  0  0  0
 13  8  1  0  0  0  0
 13 14  2  0  0  0  0
 15  9  1  0  0  0  0
 16 19  1  0  0  0  0
 17 16  1  0  0  0  0
 17 21  1  0  0  0  0
 17 18  1  0  0  0  0
 18 19  1  0  0  0  0
 18 15  1  0  0  0  0
 19 15  1  0  0  0  0
 20 19  1  0  0  0  0
 21 18  1  0  0  0  0
 22 23  1  0  0  0  0
 23 27  1  0  0  0  0
 24 27  1  0  0  0  0
 24 25  1  0  0  0  0
 26 24  2  0  0  0  0
M  END
>  <MODEL>
7

>  <REMARK>
 VINA RESULT:      -7.4      3.352      7.644
  Name = 
  5 active torsions:
  status: ('A' for Active; 'I' for Inactive)
    1  A    between atoms: C_1  and  C_6
    2  A    between atoms: C_2  and  C_14
    3  A    between atoms: C_2  and  N_20
    4  A    between atoms: C_14  and  C_19
    5  A    between atoms: C_17  and  C_27
                            x       y       z     vdW  Elec       q    Type
                         _______ _______ _______ _____ _____    ______ ____

>  <TORSDO>
F 5

$$$$
=
 OpenBabel10222420183D

 27 32  0  0  1  0  0  0  0  0999 V2000
  184.3940  178.9990  142.3540 C   0  0  0  0  0  2  0  0  0  0  0  0
  185.5430  179.0700  141.3240 C   0  0  0  0  0  2  0  0  0  0  0  0
  186.8680  178.8640  142.0260 C   0  0  1  0  0  3  0  0  0  0  0  0
  186.7810  177.5250  142.6250 N   0  0  2  0  0  0  0  0  0  0  0  0
  186.8980  177.9070  144.0340 C   0  0  1  0  0  3  0  0  0  0  0  0
  185.5020  178.3110  144.5690 C   0  0  0  0  0  2  0  0  0  0  0  0
  184.7990  179.4350  143.7780 C   0  0  0  0  0  2  0  0  0  0  0  0
  187.7930  177.8500  141.5750 C   0  0  2  0  0  3  0  0  0  0  0  0
  190.3330  177.4250  141.5250 C   0  0  0  0  0  0  0  0  0  0  0  0
  191.6990  178.2060  143.3910 C   0  0  0  0  0  3  0  0  0  0  0  0
  190.5830  178.8010  143.9690 C   0  0  0  0  0  3  0  0  0  0  0  0
  191.5680  177.5050  142.1920 C   0  0  0  0  0  3  0  0  0  0  0  0
  189.1940  178.0460  142.1120 C   0  0  0  0  0  0  0  0  0  0  0  0
  189.3400  178.6980  143.3460 C   0  0  0  0  0  3  0  0  0  0  0  0
  190.2340  176.4910  140.3340 C   0  0  1  0  0  3  0  0  0  0  0  0
  191.4440  175.6230  138.3080 N   0  0  0  0  0  2  0  0  0  0  0  0
  190.4840  176.4530  137.7070 N   0  0  2  0  0  0  0  0  0  0  0  0
  190.2710  177.2050  138.9820 C   0  0  1  0  0  0  0  0  0  0  0  0
  191.4790  176.4260  139.5100 C   0  0  1  0  0  0  0  0  0  0  0  0
  192.6190  177.4370  139.5830 C   0  0  0  0  0  1  0  0  0  0  0  0
  189.2120  176.3750  138.3830 C   0  0  0  0  0  2  0  0  0  0  0  0
  187.4480  176.7510  144.8770 C   0  0  0  0  0  2  0  0  0  0  0  0
  187.8910  177.1740  146.2740 C   0  0  0  0  0  2  0  0  0  0  0  0
  190.0340  177.3860  147.5690 C   0  0  0  0  0  0  0  0  0  0  0  0
  191.2440  177.0740  147.7150 O   0  0  0  0  0  0  0  0  0  0  0  0
  189.4330  178.2570  148.4680 O   0  0  0  0  0  1  0  0  0  0  0  0
  189.2920  176.8420  146.4800 N   0  0  0  0  0  2  0  0  0  0  0  0
  1  7  1  0  0  0  0
  2  1  1  0  0  0  0
  3  2  1  6  0  0  0
  3  4  1  0  0  0  0
  4  5  1  0  0  0  0
  5  6  1  0  0  0  0
  5 22  1  0  0  0  0
  7  6  1  0  0  0  0
  8  3  1  0  0  0  0
  8 13  1  0  0  0  0
  8  4  1  0  0  0  0
  9 13  2  0  0  0  0
  9 12  1  0  0  0  0
 10 11  1  0  0  0  0
 12 10  2  0  0  0  0
 13 14  1  0  0  0  0
 14 11  2  0  0  0  0
 15  9  1  0  0  0  0
 16 19  1  0  0  0  0
 17 16  1  0  0  0  0
 17 21  1  0  0  0  0
 17 18  1  0  0  0  0
 18 19  1  0  0  0  0
 18 15  1  0  0  0  0
 19 20  1  0  0  0  0
 19 15  1  0  0  0  0
 21 18  1  0  0  0  0
 22 23  1  0  0  0  0
 23 27  1  0  0  0  0
 24 25  2  0  0  0  0
 24 26  1  0  0  0  0
 27 24  1  0  0  0  0
M  END
>  <MODEL>
8

>  <REMARK>
 VINA RESULT:      -7.2      3.507      7.524
  Name = 
  5 active torsions:
  status: ('A' for Active; 'I' for Inactive)
    1  A    between atoms: C_1  and  C_6
    2  A    between atoms: C_2  and  C_14
    3  A    between atoms: C_2  and  N_20
    4  A    between atoms: C_14  and  C_19
    5  A    between atoms: C_17  and  C_27
                            x       y       z     vdW  Elec       q    Type
                         _______ _______ _______ _____ _____    ______ ____

>  <TORSDO>
F 5

$$$$
=
 OpenBabel10222420183D

 27 32  0  0  1  0  0  0  0  0999 V2000
  188.1840  178.4980  138.3280 C   0  0  0  0  0  2  0  0  0  0  0  0
  186.8880  178.2510  137.5260 C   0  0  0  0  0  2  0  0  0  0  0  0
  185.7600  177.9070  138.4760 C   0  0  1  0  0  3  0  0  0  0  0  0
  185.6220  179.0820  139.3490 N   0  0  2  0  0  0  0  0  0  0  0  0
  185.9470  178.4450  140.6260 C   0  0  1  0  0  3  0  0  0  0  0  0
  187.4860  178.4120  140.8010 C   0  0  0  0  0  2  0  0  0  0  0  0
  188.2580  177.7180  139.6590 C   0  0  0  0  0  2  0  0  0  0  0  0
  184.5170  178.6430  138.4430 C   0  0  2  0  0  3  0  0  0  0  0  0
  183.0780  176.5600  138.9160 C   0  0  0  0  0  0  0  0  0  0  0  0
  181.0620  176.7980  140.2720 C   0  0  0  0  0  3  0  0  0  0  0  0
  181.3590  178.1400  140.4900 C   0  0  0  0  0  3  0  0  0  0  0  0
  181.9030  176.0250  139.4720 C   0  0  0  0  0  3  0  0  0  0  0  0
  183.3870  177.9290  139.1530 C   0  0  0  0  0  0  0  0  0  0  0  0
  182.4970  178.7010  139.9150 C   0  0  0  0  0  3  0  0  0  0  0  0
  183.8330  175.7120  137.9110 C   0  0  1  0  0  3  0  0  0  0  0  0
  183.9300  174.9910  135.5040 N   0  0  0  0  0  2  0  0  0  0  0  0
  183.4670  173.8140  136.1140 N   0  0  2  0  0  0  0  0  0  0  0  0
  183.0070  174.5680  137.3210 C   0  0  1  0  0  0  0  0  0  0  0  0
  183.3210  175.8290  136.5120 C   0  0  1  0  0  0  0  0  0  0  0  0
  181.9660  176.4200  136.1330 C   0  0  0  0  0  1  0  0  0  0  0  0
  184.1040  173.5860  137.3880 C   0  0  0  0  0  2  0  0  0  0  0  0
  185.3210  179.2070  141.7990 C   0  0  0  0  0  2  0  0  0  0  0  0
  184.8100  178.2970  142.9120 C   0  0  0  0  0  2  0  0  0  0  0  0
  184.7920  179.0240  145.3170 C   0  0  0  0  0  0  0  0  0  0  0  0
  185.4230  179.2660  146.3780 O   0  0  0  0  0  1  0  0  0  0  0  0
  183.4120  179.1820  145.2840 O   0  0  0  0  0  0  0  0  0  0  0  0
  185.4990  178.5890  144.1580 N   0  0  0  0  0  2  0  0  0  0  0  0
  1  7  1  0  0  0  0
  2  1  1  0  0  0  0
  3  2  1  6  0  0  0
  3  4  1  0  0  0  0
  4  5  1  0  0  0  0
  5  6  1  0  0  0  0
  5 22  1  0  0  0  0
  7  6  1  0  0  0  0
  8  3  1  0  0  0  0
  8 13  1  0  0  0  0
  8  4  1  0  0  0  0
  9 13  2  0  0  0  0
  9 12  1  0  0  0  0
 10 11  1  0  0  0  0
 12 10  2  0  0  0  0
 13 14  1  0  0  0  0
 14 11  2  0  0  0  0
 15  9  1  0  0  0  0
 16 17  1  0  0  0  0
 16 19  1  0  0  0  0
 17 18  1  0  0  0  0
 17 21  1  0  0  0  0
 18 21  1  0  0  0  0
 18 15  1  0  0  0  0
 19 18  1  0  0  0  0
 19 15  1  0  0  0  0
 20 19  1  0  0  0  0
 22 23  1  0  0  0  0
 23 27  1  0  0  0  0
 24 25  1  0  0  0  0
 26 24  2  0  0  0  0
 27 24  1  0  0  0  0
M  END
>  <MODEL>
9

>  <REMARK>
 VINA RESULT:      -7.0      4.411      8.277
  Name = 
  5 active torsions:
  status: ('A' for Active; 'I' for Inactive)
    1  A    between atoms: C_1  and  C_6
    2  A    between atoms: C_2  and  C_14
    3  A    between atoms: C_2  and  N_20
    4  A    between atoms: C_14  and  C_19
    5  A    between atoms: C_17  and  C_27
                            x       y       z     vdW  Elec       q    Type
                         _______ _______ _______ _____ _____    ______ ____

>  <TORSDO>
F 5

$$$$
