=
 OpenBabel10222419313D

 42 45  0  0  1  0  0  0  0  0999 V2000
  191.0050  176.6730  138.8500 C   0  0  0  0  0  0  0  0  0  0  0  0
  192.3900  176.3780  138.7010 N   0  0  0  0  0  1  0  0  0  0  0  0
  188.7890  176.4890  138.0020 C   0  0  0  0  0  0  0  0  0  0  0  0
  190.5540  177.4170  139.9500 C   0  0  0  0  0  0  0  0  0  0  0  0
  190.1230  176.2390  137.9110 N   0  0  0  0  0  0  0  0  0  0  0  0
  188.2950  177.1990  139.1000 C   0  0  0  0  0  3  0  0  0  0  0  0
  189.1740  177.6600  140.0880 C   0  0  0  0  0  0  0  0  0  0  0  0
  187.8780  176.0010  136.9550 C   0  0  0  0  0  0  0  0  0  0  0  0
  188.1310  174.9270  136.3430 O   0  0  0  0  0  0  0  0  0  0  0  0
  186.7050  176.7510  136.6320 N   0  0  0  0  0  2  0  0  0  0  0  0
  184.0960  176.8290  136.0670 S   0  0  0  0  0  1  0  0  0  0  0  0
  185.7720  176.3250  135.6020 C   0  0  0  0  0  2  0  0  0  0  0  0
  188.6940  178.3250  141.2230 O   0  0  0  0  0  0  0  0  0  0  0  0
  187.4380  178.0430  141.8280 C   0  0  1  0  0  3  0  0  0  0  0  0
  187.6700  177.6290  143.2890 C   0  0  0  0  0  2  0  0  0  0  0  0
  185.1400  178.9550  142.3010 C   0  0  0  0  0  2  0  0  0  0  0  0
  186.5910  178.1220  144.2590 C   0  0  0  0  0  2  0  0  0  0  0  0
  185.2070  178.1270  143.6000 C   0  0  1  0  0  3  0  0  0  0  0  0
  186.5220  179.2640  141.7230 C   0  0  0  0  0  2  0  0  0  0  0  0
  184.1820  178.4610  144.5080 O   0  0  0  0  0  0  0  0  0  0  0  0
  183.3170  179.2780  143.8470 N   0  0  0  0  0  2  0  0  0  0  0  0
  181.9980  178.6750  143.9580 C   0  0  0  0  0  2  0  0  0  0  0  0
  180.7880  179.2080  141.8320 C   0  0  0  0  0  3  0  0  0  0  0  0
  181.0140  179.4460  143.1320 C   0  0  0  0  0  3  0  0  0  0  0  0
  182.3280  178.7540  140.0220 N   0  0  0  0  0  2  0  0  0  0  0  0
  181.4570  178.1770  139.0040 C   0  0  0  0  0  2  0  0  0  0  0  0
  180.7590  176.1400  139.9960 O   0  0  0  0  0  1  0  0  0  0  0  0
  181.4920  178.1390  141.0460 C   0  0  2  0  0  3  0  0  0  0  0  0
  180.5600  177.5210  140.0270 C   0  0  1  0  0  3  0  0  0  0  0  0
  191.4850  177.8720  140.8990 O   0  0  0  0  0  0  0  0  0  0  0  0
  191.4720  177.5250  142.2570 C   0  0  0  0  0  0  0  0  0  0  0  0
  191.3650  176.1880  142.6760 C   0  0  0  0  0  3  0  0  0  0  0  0
  191.3570  175.8730  144.0370 C   0  0  0  0  0  3  0  0  0  0  0  0
  191.5430  178.5380  143.2160 C   0  0  0  0  0  3  0  0  0  0  0  0
  191.5350  178.2220  144.5790 C   0  0  0  0  0  3  0  0  0  0  0  0
  191.4470  176.8870  145.0000 C   0  0  0  0  0  0  0  0  0  0  0  0
  191.4440  176.5490  146.4370 C   0  0  0  0  0  0  0  0  0  0  0  0
  192.3010  175.7510  146.9030 O   0  0  0  0  0  0  0  0  0  0  0  0
  190.4110  177.1170  147.3580 C   0  0  0  0  0  2  0  0  0  0  0  0
  189.0260  176.8040  146.8290 C   0  0  0  0  0  2  0  0  0  0  0  0
  187.9840  177.4060  147.7480 C   0  0  0  0  0  2  0  0  0  0  0  0
  188.6710  178.2560  148.7950 C   0  0  0  0  0  1  0  0  0  0  0  0
  1  4  1  0  0  0  0
  2  1  1  0  0  0  0
  3  6  2  0  0  0  0
  4  7  2  0  0  0  0
  4 30  1  0  0  0  0
  5  3  1  0  0  0  0
  5  1  2  0  0  0  0
  6  7  1  0  0  0  0
  7 13  1  0  0  0  0
  8  3  1  0  0  0  0
  9  8  2  0  0  0  0
 10  8  1  0  0  0  0
 12 11  1  0  0  0  0
 12 10  1  0  0  0  0
 14 13  1  1  0  0  0
 14 15  1  0  0  0  0
 15 17  1  0  0  0  0
 16 18  1  0  0  0  0
 18 17  1  0  0  0  0
 18 20  1  1  0  0  0
 19 14  1  0  0  0  0
 19 16  1  0  0  0  0
 21 22  1  0  0  0  0
 21 20  1  0  0  0  0
 23 24  2  0  0  0  0
 24 22  1  0  0  0  0
 25 28  1  0  0  0  0
 26 25  1  0  0  0  0
 26 29  1  0  0  0  0
 28 23  1  1  0  0  0
 29 27  1  6  0  0  0
 29 28  1  0  0  0  0
 30 31  1  0  0  0  0
 31 32  2  0  0  0  0
 31 34  1  0  0  0  0
 32 33  1  0  0  0  0
 33 36  2  0  0  0  0
 34 35  2  0  0  0  0
 35 36  1  0  0  0  0
 36 37  1  0  0  0  0
 37 38  2  0  0  0  0
 37 39  1  0  0  0  0
 40 39  1  0  0  0  0
 40 41  1  0  0  0  0
 41 42  1  0  0  0  0
M  END
>  <MODEL>
1

>  <REMARK>
 VINA RESULT:      -7.8      0.000      0.000
  Name = 
  15 active torsions:
  status: ('A' for Active; 'I' for Inactive)
    1  A    between atoms: C_1  and  O_14
    2  A    between atoms: C_2  and  O_29
    3  A    between atoms: C_3  and  C_25
    4  A    between atoms: C_4  and  C_40
    5  A    between atoms: C_4  and  C_42
    6  A    between atoms: C_9  and  C_28
    7  A    between atoms: C_11  and  C_12
    8  A    between atoms: C_11  and  C_42
    9  A    between atoms: O_14  and  C_39
   10  A    between atoms: C_17  and  C_34
   11  A    between atoms: C_24  and  O_37
   12  A    between atoms: C_26  and  O_29
   13  A    between atoms: C_31  and  N_41
   14  A    between atoms: C_34  and  N_35
   15  A    between atoms: N_35  and  O_37
                            x       y       z     vdW  Elec       q    Type
                         _______ _______ _______ _____ _____    ______ ____

>  <TORSDO>
F 15

$$$$
=
 OpenBabel10222419313D

 42 45  0  0  1  0  0  0  0  0999 V2000
  180.1470  176.9680  140.7880 C   0  0  0  0  0  0  0  0  0  0  0  0
  179.5490  177.3850  142.0110 N   0  0  0  0  0  1  0  0  0  0  0  0
  180.1820  175.4370  138.9660 C   0  0  0  0  0  0  0  0  0  0  0  0
  181.2450  177.6640  140.2630 C   0  0  0  0  0  0  0  0  0  0  0  0
  179.6530  175.8800  140.1380 N   0  0  0  0  0  0  0  0  0  0  0  0
  181.2570  176.1230  138.3930 C   0  0  0  0  0  3  0  0  0  0  0  0
  181.7900  177.2490  139.0330 C   0  0  0  0  0  0  0  0  0  0  0  0
  179.6140  174.2520  138.3070 C   0  0  0  0  0  0  0  0  0  0  0  0
  178.9310  173.4230  138.9680 O   0  0  0  0  0  0  0  0  0  0  0  0
  179.8420  174.0400  136.9110 N   0  0  0  0  0  2  0  0  0  0  0  0
  180.5230  171.5360  136.2780 S   0  0  0  0  0  1  0  0  0  0  0  0
  179.3150  172.8840  136.2060 C   0  0  0  0  0  2  0  0  0  0  0  0
  182.8300  177.9820  138.4490 O   0  0  0  0  0  0  0  0  0  0  0  0
  184.1210  177.4470  138.1880 C   0  0  1  0  0  3  0  0  0  0  0  0
  184.1570  176.9080  136.7500 C   0  0  0  0  0  2  0  0  0  0  0  0
  186.5890  177.9410  138.2160 C   0  0  0  0  0  2  0  0  0  0  0  0
  185.4960  177.1180  136.0340 C   0  0  0  0  0  2  0  0  0  0  0  0
  186.6740  176.9900  137.0060 C   0  0  1  0  0  3  0  0  0  0  0  0
  185.1870  178.5200  138.4190 C   0  0  0  0  0  2  0  0  0  0  0  0
  187.9200  177.0600  136.3500 O   0  0  0  0  0  0  0  0  0  0  0  0
  188.6020  178.1010  136.9030 N   0  0  0  0  0  2  0  0  0  0  0  0
  190.0100  177.7350  136.8970 C   0  0  0  0  0  2  0  0  0  0  0  0
  190.3280  176.3230  138.9400 C   0  0  0  0  0  3  0  0  0  0  0  0
  190.2010  176.4320  137.6100 C   0  0  0  0  0  3  0  0  0  0  0  0
  191.2980  177.3210  140.9200 N   0  0  0  0  0  2  0  0  0  0  0  0
  190.2220  177.1930  141.8970 C   0  0  0  0  0  2  0  0  0  0  0  0
  188.5390  178.6140  141.0220 O   0  0  0  0  0  1  0  0  0  0  0  0
  190.2930  177.4960  139.8790 C   0  0  2  0  0  3  0  0  0  0  0  0
  189.1440  177.3680  140.8540 C   0  0  1  0  0  3  0  0  0  0  0  0
  181.7510  178.7730  140.9610 O   0  0  0  0  0  0  0  0  0  0  0  0
  182.6890  178.7020  141.9990 C   0  0  0  0  0  0  0  0  0  0  0  0
  184.0110  178.2830  141.7730 C   0  0  0  0  0  3  0  0  0  0  0  0
  184.9240  178.2230  142.8280 C   0  0  0  0  0  3  0  0  0  0  0  0
  182.2900  179.0310  143.2970 C   0  0  0  0  0  3  0  0  0  0  0  0
  183.2040  178.9710  144.3540 C   0  0  0  0  0  3  0  0  0  0  0  0
  184.5300  178.5710  144.1280 C   0  0  0  0  0  0  0  0  0  0  0  0
  185.5000  178.5120  145.2390 C   0  0  0  0  0  0  0  0  0  0  0  0
  185.5370  179.4340  146.0980 O   0  0  0  0  0  0  0  0  0  0  0  0
  186.4740  177.3830  145.3490 C   0  0  0  0  0  2  0  0  0  0  0  0
  187.8590  177.8600  144.9600 C   0  0  0  0  0  2  0  0  0  0  0  0
  188.8780  177.3050  145.9330 C   0  0  0  0  0  2  0  0  0  0  0  0
  188.4530  177.6390  147.3470 C   0  0  0  0  0  1  0  0  0  0  0  0
  1  2  1  0  0  0  0
  3  5  1  0  0  0  0
  4  1  1  0  0  0  0
  4 30  1  0  0  0  0
  5  1  2  0  0  0  0
  6  3  2  0  0  0  0
  6  7  1  0  0  0  0
  7  4  2  0  0  0  0
  8  3  1  0  0  0  0
  8  9  2  0  0  0  0
 10  8  1  0  0  0  0
 12 11  1  0  0  0  0
 12 10  1  0  0  0  0
 13  7  1  0  0  0  0
 14 19  1  0  0  0  0
 14 13  1  6  0  0  0
 15 14  1  0  0  0  0
 16 19  1  0  0  0  0
 17 15  1  0  0  0  0
 17 18  1  0  0  0  0
 18 20  1  6  0  0  0
 18 16  1  0  0  0  0
 20 21  1  0  0  0  0
 22 21  1  0  0  0  0
 22 24  1  0  0  0  0
 24 23  2  0  0  0  0
 25 26  1  0  0  0  0
 28 23  1  6  0  0  0
 28 29  1  0  0  0  0
 28 25  1  0  0  0  0
 29 27  1  1  0  0  0
 29 26  1  0  0  0  0
 30 31  1  0  0  0  0
 31 34  1  0  0  0  0
 32 31  2  0  0  0  0
 32 33  1  0  0  0  0
 33 36  2  0  0  0  0
 34 35  2  0  0  0  0
 36 35  1  0  0  0  0
 36 37  1  0  0  0  0
 37 39  1  0  0  0  0
 37 38  2  0  0  0  0
 40 39  1  0  0  0  0
 40 41  1  0  0  0  0
 41 42  1  0  0  0  0
M  END
>  <MODEL>
2

>  <REMARK>
 VINA RESULT:      -7.1      2.601      8.152
  Name = 
  15 active torsions:
  status: ('A' for Active; 'I' for Inactive)
    1  A    between atoms: C_1  and  O_14
    2  A    between atoms: C_2  and  O_29
    3  A    between atoms: C_3  and  C_25
    4  A    between atoms: C_4  and  C_40
    5  A    between atoms: C_4  and  C_42
    6  A    between atoms: C_9  and  C_28
    7  A    between atoms: C_11  and  C_12
    8  A    between atoms: C_11  and  C_42
    9  A    between atoms: O_14  and  C_39
   10  A    between atoms: C_17  and  C_34
   11  A    between atoms: C_24  and  O_37
   12  A    between atoms: C_26  and  O_29
   13  A    between atoms: C_31  and  N_41
   14  A    between atoms: C_34  and  N_35
   15  A    between atoms: N_35  and  O_37
                            x       y       z     vdW  Elec       q    Type
                         _______ _______ _______ _____ _____    ______ ____

>  <TORSDO>
F 15

$$$$
=
 OpenBabel10222419313D

 42 45  0  0  1  0  0  0  0  0999 V2000
  182.7650  178.2420  140.4020 C   0  0  0  0  0  0  0  0  0  0  0  0
  182.0220  178.6720  141.5380 N   0  0  0  0  0  1  0  0  0  0  0  0
  182.8490  176.9580  138.4000 C   0  0  0  0  0  0  0  0  0  0  0  0
  184.0870  178.6740  140.2160 C   0  0  0  0  0  0  0  0  0  0  0  0
  182.1890  177.3990  139.5040 N   0  0  0  0  0  0  0  0  0  0  0  0
  184.1570  177.3910  138.1610 C   0  0  0  0  0  3  0  0  0  0  0  0
  184.7820  178.2610  139.0630 C   0  0  0  0  0  0  0  0  0  0  0  0
  182.1810  176.0420  137.4630 C   0  0  0  0  0  0  0  0  0  0  0  0
  181.1580  176.4180  136.8280 O   0  0  0  0  0  0  0  0  0  0  0  0
  182.6950  174.7210  137.2760 N   0  0  0  0  0  2  0  0  0  0  0  0
  180.7710  172.8690  137.2510 S   0  0  0  0  0  1  0  0  0  0  0  0
  182.0740  173.7690  136.3710 C   0  0  0  0  0  2  0  0  0  0  0  0
  186.0700  178.7500  138.8130 O   0  0  0  0  0  0  0  0  0  0  0  0
  187.1940  177.9160  138.5670 C   0  0  1  0  0  3  0  0  0  0  0  0
  187.6040  178.0530  137.0930 C   0  0  0  0  0  2  0  0  0  0  0  0
  189.5320  177.3540  139.3120 C   0  0  0  0  0  2  0  0  0  0  0  0
  189.1170  178.0020  136.8550 C   0  0  0  0  0  2  0  0  0  0  0  0
  189.8030  177.0380  137.8280 C   0  0  1  0  0  3  0  0  0  0  0  0
  188.3390  178.2900  139.5110 C   0  0  0  0  0  2  0  0  0  0  0  0
  191.1770  176.8830  137.5500 O   0  0  0  0  0  0  0  0  0  0  0  0
  191.2970  175.8020  136.7320 N   0  0  0  0  0  2  0  0  0  0  0  0
  192.7200  175.5870  136.5200 C   0  0  0  0  0  2  0  0  0  0  0  0
  194.1700  173.8480  137.5870 C   0  0  0  0  0  3  0  0  0  0  0  0
  193.0820  174.1780  136.8770 C   0  0  0  0  0  3  0  0  0  0  0  0
  196.2870  174.9520  137.1970 N   0  0  0  0  0  2  0  0  0  0  0  0
  197.1400  174.3730  138.2290 C   0  0  0  0  0  2  0  0  0  0  0  0
  196.1690  175.1790  140.2350 O   0  0  0  0  0  1  0  0  0  0  0  0
  195.1580  174.8500  138.1130 C   0  0  2  0  0  3  0  0  0  0  0  0
  196.0020  174.2440  139.2130 C   0  0  1  0  0  3  0  0  0  0  0  0
  184.6690  179.5300  141.1650 O   0  0  0  0  0  0  0  0  0  0  0  0
  185.1710  179.1180  142.4070 C   0  0  0  0  0  0  0  0  0  0  0  0
  186.2110  178.1790  142.5090 C   0  0  0  0  0  3  0  0  0  0  0  0
  186.6910  177.7890  143.7610 C   0  0  0  0  0  3  0  0  0  0  0  0
  184.6030  179.6370  143.5740 C   0  0  0  0  0  3  0  0  0  0  0  0
  185.0840  179.2470  144.8280 C   0  0  0  0  0  3  0  0  0  0  0  0
  186.1350  178.3230  144.9320 C   0  0  0  0  0  0  0  0  0  0  0  0
  186.6500  177.9130  146.2530 C   0  0  0  0  0  0  0  0  0  0  0  0
  186.1060  178.3410  147.3070 O   0  0  0  0  0  0  0  0  0  0  0  0
  187.8390  177.0140  146.3680 C   0  0  0  0  0  2  0  0  0  0  0  0
  189.0610  177.8260  146.7500 C   0  0  0  0  0  2  0  0  0  0  0  0
  190.3110  177.1120  146.2820 C   0  0  0  0  0  2  0  0  0  0  0  0
  190.2880  176.9990  144.7730 C   0  0  0  0  0  1  0  0  0  0  0  0
  1  2  1  0  0  0  0
  3  5  1  0  0  0  0
  4  1  1  0  0  0  0
  4 30  1  0  0  0  0
  5  1  2  0  0  0  0
  6  3  2  0  0  0  0
  6  7  1  0  0  0  0
  7  4  2  0  0  0  0
  8  3  1  0  0  0  0
  9  8  2  0  0  0  0
 10  8  1  0  0  0  0
 12 11  1  0  0  0  0
 12 10  1  0  0  0  0
 13  7  1  0  0  0  0
 14 13  1  1  0  0  0
 14 19  1  0  0  0  0
 15 14  1  0  0  0  0
 16 19  1  0  0  0  0
 17 15  1  0  0  0  0
 17 18  1  0  0  0  0
 18 20  1  1  0  0  0
 18 16  1  0  0  0  0
 21 20  1  0  0  0  0
 22 21  1  0  0  0  0
 22 24  1  0  0  0  0
 24 23  2  0  0  0  0
 25 28  1  0  0  0  0
 25 26  1  0  0  0  0
 26 29  1  0  0  0  0
 28 23  1  6  0  0  0
 28 29  1  0  0  0  0
 29 27  1  1  0  0  0
 30 31  1  0  0  0  0
 31 32  2  0  0  0  0
 31 34  1  0  0  0  0
 32 33  1  0  0  0  0
 33 36  2  0  0  0  0
 34 35  2  0  0  0  0
 35 36  1  0  0  0  0
 36 37  1  0  0  0  0
 37 39  1  0  0  0  0
 37 38  2  0  0  0  0
 39 40  1  0  0  0  0
 41 40  1  0  0  0  0
 42 41  1  0  0  0  0
M  END
>  <MODEL>
3

>  <REMARK>
 VINA RESULT:      -7.0      3.063      8.653
  Name = 
  15 active torsions:
  status: ('A' for Active; 'I' for Inactive)
    1  A    between atoms: C_1  and  O_14
    2  A    between atoms: C_2  and  O_29
    3  A    between atoms: C_3  and  C_25
    4  A    between atoms: C_4  and  C_40
    5  A    between atoms: C_4  and  C_42
    6  A    between atoms: C_9  and  C_28
    7  A    between atoms: C_11  and  C_12
    8  A    between atoms: C_11  and  C_42
    9  A    between atoms: O_14  and  C_39
   10  A    between atoms: C_17  and  C_34
   11  A    between atoms: C_24  and  O_37
   12  A    between atoms: C_26  and  O_29
   13  A    between atoms: C_31  and  N_41
   14  A    between atoms: C_34  and  N_35
   15  A    between atoms: N_35  and  O_37
                            x       y       z     vdW  Elec       q    Type
                         _______ _______ _______ _____ _____    ______ ____

>  <TORSDO>
F 15

$$$$
=
 OpenBabel10222419313D

 42 45  0  0  1  0  0  0  0  0999 V2000
  184.5330  177.6380  137.4330 C   0  0  0  0  0  0  0  0  0  0  0  0
  184.0610  177.2060  136.1610 N   0  0  0  0  0  1  0  0  0  0  0  0
  184.0460  178.2060  139.6920 C   0  0  0  0  0  0  0  0  0  0  0  0
  185.8960  177.9080  137.6280 C   0  0  0  0  0  0  0  0  0  0  0  0
  183.6520  177.7990  138.4560 N   0  0  0  0  0  0  0  0  0  0  0  0
  185.4000  178.4540  139.9360 C   0  0  0  0  0  3  0  0  0  0  0  0
  186.3370  178.2970  138.9070 C   0  0  0  0  0  0  0  0  0  0  0  0
  183.0510  178.3690  140.7630 C   0  0  0  0  0  0  0  0  0  0  0  0
  181.8270  178.1720  140.5280 O   0  0  0  0  0  0  0  0  0  0  0  0
  183.4760  178.7560  142.0720 N   0  0  0  0  0  2  0  0  0  0  0  0
  183.4440  178.9280  144.7360 S   0  0  0  0  0  1  0  0  0  0  0  0
  182.5400  178.9420  143.1670 C   0  0  0  0  0  2  0  0  0  0  0  0
  187.7030  178.4870  139.1450 O   0  0  0  0  0  0  0  0  0  0  0  0
  188.4430  177.7540  140.1130 C   0  0  1  0  0  3  0  0  0  0  0  0
  189.7930  177.3440  139.5040 C   0  0  0  0  0  2  0  0  0  0  0  0
  189.3530  177.7960  142.4590 C   0  0  0  0  0  2  0  0  0  0  0  0
  190.9620  177.3730  140.4940 C   0  0  0  0  0  2  0  0  0  0  0  0
  190.5150  176.9530  141.8990 C   0  0  1  0  0  3  0  0  0  0  0  0
  188.6240  178.5960  141.3780 C   0  0  0  0  0  2  0  0  0  0  0  0
  191.5960  176.8550  142.7990 O   0  0  0  0  0  0  0  0  0  0  0  0
  191.0970  176.3700  143.9680 N   0  0  0  0  0  2  0  0  0  0  0  0
  191.6210  177.2110  145.0330 C   0  0  0  0  0  2  0  0  0  0  0  0
  190.6080  176.7830  147.2820 C   0  0  0  0  0  3  0  0  0  0  0  0
  191.5220  176.4940  146.3440 C   0  0  0  0  0  3  0  0  0  0  0  0
  189.0460  178.2210  148.4430 N   0  0  0  0  0  2  0  0  0  0  0  0
  187.7560  177.6710  148.0450 C   0  0  0  0  0  2  0  0  0  0  0  0
  187.6820  178.1160  145.7180 O   0  0  0  0  0  1  0  0  0  0  0  0
  189.5720  177.8600  147.1320 C   0  0  2  0  0  3  0  0  0  0  0  0
  188.2530  177.2760  146.6750 C   0  0  1  0  0  3  0  0  0  0  0  0
  186.7860  177.7530  136.5520 O   0  0  0  0  0  0  0  0  0  0  0  0
  187.8320  176.8210  136.5120 C   0  0  0  0  0  0  0  0  0  0  0  0
  189.0960  177.1520  135.9950 C   0  0  0  0  0  3  0  0  0  0  0  0
  190.1190  176.2010  135.9690 C   0  0  0  0  0  3  0  0  0  0  0  0
  187.6000  175.5230  136.9740 C   0  0  0  0  0  3  0  0  0  0  0  0
  188.6250  174.5710  136.9480 C   0  0  0  0  0  3  0  0  0  0  0  0
  189.8940  174.9030  136.4500 C   0  0  0  0  0  0  0  0  0  0  0  0
  190.9800  173.9040  136.4260 C   0  0  0  0  0  0  0  0  0  0  0  0
  190.8620  172.8550  135.7380 O   0  0  0  0  0  0  0  0  0  0  0  0
  192.2200  174.0980  137.2390 C   0  0  0  0  0  2  0  0  0  0  0  0
  193.4000  174.3540  136.3220 C   0  0  0  0  0  2  0  0  0  0  0  0
  194.1080  175.6230  136.7480 C   0  0  0  0  0  2  0  0  0  0  0  0
  193.2760  176.3330  137.7940 C   0  0  0  0  0  1  0  0  0  0  0  0
  1  4  2  0  0  0  0
  1  5  1  0  0  0  0
  2  1  1  0  0  0  0
  3  6  1  0  0  0  0
  3  8  1  0  0  0  0
  4  7  1  0  0  0  0
  5  3  2  0  0  0  0
  7 13  1  0  0  0  0
  7  6  2  0  0  0  0
  8 10  1  0  0  0  0
  9  8  2  0  0  0  0
 10 12  1  0  0  0  0
 12 11  1  0  0  0  0
 14 13  1  6  0  0  0
 14 19  1  0  0  0  0
 15 14  1  0  0  0  0
 15 17  1  0  0  0  0
 17 18  1  0  0  0  0
 18 16  1  0  0  0  0
 18 20  1  1  0  0  0
 19 16  1  0  0  0  0
 20 21  1  0  0  0  0
 21 22  1  0  0  0  0
 22 24  1  0  0  0  0
 24 23  2  0  0  0  0
 26 25  1  0  0  0  0
 28 23  1  1  0  0  0
 28 25  1  0  0  0  0
 29 27  1  6  0  0  0
 29 28  1  0  0  0  0
 29 26  1  0  0  0  0
 30  4  1  0  0  0  0
 31 30  1  0  0  0  0
 31 34  1  0  0  0  0
 32 31  2  0  0  0  0
 33 32  1  0  0  0  0
 33 36  2  0  0  0  0
 35 34  2  0  0  0  0
 36 35  1  0  0  0  0
 37 36  1  0  0  0  0
 37 39  1  0  0  0  0
 38 37  2  0  0  0  0
 40 41  1  0  0  0  0
 40 39  1  0  0  0  0
 41 42  1  0  0  0  0
M  END
>  <MODEL>
4

>  <REMARK>
 VINA RESULT:      -6.9      2.926      8.330
  Name = 
  15 active torsions:
  status: ('A' for Active; 'I' for Inactive)
    1  A    between atoms: C_1  and  O_14
    2  A    between atoms: C_2  and  O_29
    3  A    between atoms: C_3  and  C_25
    4  A    between atoms: C_4  and  C_40
    5  A    between atoms: C_4  and  C_42
    6  A    between atoms: C_9  and  C_28
    7  A    between atoms: C_11  and  C_12
    8  A    between atoms: C_11  and  C_42
    9  A    between atoms: O_14  and  C_39
   10  A    between atoms: C_17  and  C_34
   11  A    between atoms: C_24  and  O_37
   12  A    between atoms: C_26  and  O_29
   13  A    between atoms: C_31  and  N_41
   14  A    between atoms: C_34  and  N_35
   15  A    between atoms: N_35  and  O_37
                            x       y       z     vdW  Elec       q    Type
                         _______ _______ _______ _____ _____    ______ ____

>  <TORSDO>
F 15

$$$$
=
 OpenBabel10222419313D

 42 45  0  0  1  0  0  0  0  0999 V2000
  184.3140  177.0540  137.4050 C   0  0  0  0  0  0  0  0  0  0  0  0
  185.0740  176.9950  136.2020 N   0  0  0  0  0  1  0  0  0  0  0  0
  182.4530  176.2780  138.6680 C   0  0  0  0  0  0  0  0  0  0  0  0
  184.6870  177.9280  138.4360 C   0  0  0  0  0  0  0  0  0  0  0  0
  183.2150  176.2660  137.5420 N   0  0  0  0  0  0  0  0  0  0  0  0
  182.8100  177.1110  139.7320 C   0  0  0  0  0  3  0  0  0  0  0  0
  183.9370  177.9360  139.6280 C   0  0  0  0  0  0  0  0  0  0  0  0
  181.2700  175.4090  138.7640 C   0  0  0  0  0  0  0  0  0  0  0  0
  180.8090  174.8480  137.7310 O   0  0  0  0  0  0  0  0  0  0  0  0
  180.6420  175.2030  140.0320 N   0  0  0  0  0  2  0  0  0  0  0  0
  179.4450  173.6680  141.8590 S   0  0  0  0  0  1  0  0  0  0  0  0
  179.4670  174.3640  140.1870 C   0  0  0  0  0  2  0  0  0  0  0  0
  184.3440  178.7360  140.7020 O   0  0  0  0  0  0  0  0  0  0  0  0
  184.2220  178.3470  142.0640 C   0  0  1  0  0  3  0  0  0  0  0  0
  185.6030  178.4310  142.7320 C   0  0  0  0  0  2  0  0  0  0  0  0
  182.9950  178.7790  144.2190 C   0  0  0  0  0  2  0  0  0  0  0  0
  185.5670  178.9070  144.1890 C   0  0  0  0  0  2  0  0  0  0  0  0
  184.3160  178.3950  144.9130 C   0  0  1  0  0  3  0  0  0  0  0  0
  183.1940  179.2320  142.7710 C   0  0  0  0  0  2  0  0  0  0  0  0
  184.3210  178.7180  146.2850 O   0  0  0  0  0  0  0  0  0  0  0  0
  185.5830  179.1250  146.5920 N   0  0  0  0  0  2  0  0  0  0  0  0
  186.2000  178.0510  147.3550 C   0  0  0  0  0  2  0  0  0  0  0  0
  188.6310  178.1190  147.9450 C   0  0  0  0  0  3  0  0  0  0  0  0
  187.3820  178.5750  148.1110 C   0  0  0  0  0  3  0  0  0  0  0  0
  190.3770  176.6110  147.2120 N   0  0  0  0  0  2  0  0  0  0  0  0
  190.7290  177.1500  145.9040 C   0  0  0  0  0  2  0  0  0  0  0  0
  188.7640  176.7830  144.6310 O   0  0  0  0  0  1  0  0  0  0  0  0
  188.9990  177.0270  146.9800 C   0  0  2  0  0  3  0  0  0  0  0  0
  189.3170  177.6010  145.6170 C   0  0  1  0  0  3  0  0  0  0  0  0
  185.8160  178.7480  138.2660 O   0  0  0  0  0  0  0  0  0  0  0  0
  187.1420  178.3100  138.3790 C   0  0  0  0  0  0  0  0  0  0  0  0
  187.9620  178.1400  137.2500 C   0  0  0  0  0  3  0  0  0  0  0  0
  189.2810  177.7030  137.3940 C   0  0  0  0  0  3  0  0  0  0  0  0
  187.6520  178.0110  139.6450 C   0  0  0  0  0  3  0  0  0  0  0  0
  188.9730  177.5740  139.7890 C   0  0  0  0  0  3  0  0  0  0  0  0
  189.8000  177.4210  138.6660 C   0  0  0  0  0  0  0  0  0  0  0  0
  191.1970  176.9660  138.8140 C   0  0  0  0  0  0  0  0  0  0  0  0
  191.8040  177.1290  139.9060 O   0  0  0  0  0  0  0  0  0  0  0  0
  191.9240  176.3360  137.6690 C   0  0  0  0  0  2  0  0  0  0  0  0
  193.4100  176.3010  137.9630 C   0  0  0  0  0  2  0  0  0  0  0  0
  194.0750  175.2540  137.0940 C   0  0  0  0  0  2  0  0  0  0  0  0
  193.4030  173.9160  137.3200 C   0  0  0  0  0  1  0  0  0  0  0  0
  1  5  2  0  0  0  0
  1  4  1  0  0  0  0
  2  1  1  0  0  0  0
  3  8  1  0  0  0  0
  3  6  2  0  0  0  0
  4  7  2  0  0  0  0
  5  3  1  0  0  0  0
  7  6  1  0  0  0  0
  7 13  1  0  0  0  0
  8 10  1  0  0  0  0
  9  8  2  0  0  0  0
 10 12  1  0  0  0  0
 12 11  1  0  0  0  0
 14 13  1  6  0  0  0
 14 15  1  0  0  0  0
 14 19  1  0  0  0  0
 15 17  1  0  0  0  0
 16 18  1  0  0  0  0
 17 18  1  0  0  0  0
 18 20  1  1  0  0  0
 19 16  1  0  0  0  0
 20 21  1  0  0  0  0
 21 22  1  0  0  0  0
 22 24  1  0  0  0  0
 23 24  2  0  0  0  0
 26 25  1  0  0  0  0
 28 25  1  0  0  0  0
 28 23  1  1  0  0  0
 29 27  1  6  0  0  0
 29 26  1  0  0  0  0
 29 28  1  0  0  0  0
 30 31  1  0  0  0  0
 30  4  1  0  0  0  0
 31 34  1  0  0  0  0
 32 33  1  0  0  0  0
 32 31  2  0  0  0  0
 33 36  2  0  0  0  0
 34 35  2  0  0  0  0
 36 37  1  0  0  0  0
 36 35  1  0  0  0  0
 37 38  2  0  0  0  0
 39 40  1  0  0  0  0
 39 37  1  0  0  0  0
 41 42  1  0  0  0  0
 41 40  1  0  0  0  0
M  END
>  <MODEL>
5

>  <REMARK>
 VINA RESULT:      -6.9      2.914      7.388
  Name = 
  15 active torsions:
  status: ('A' for Active; 'I' for Inactive)
    1  A    between atoms: C_1  and  O_14
    2  A    between atoms: C_2  and  O_29
    3  A    between atoms: C_3  and  C_25
    4  A    between atoms: C_4  and  C_40
    5  A    between atoms: C_4  and  C_42
    6  A    between atoms: C_9  and  C_28
    7  A    between atoms: C_11  and  C_12
    8  A    between atoms: C_11  and  C_42
    9  A    between atoms: O_14  and  C_39
   10  A    between atoms: C_17  and  C_34
   11  A    between atoms: C_24  and  O_37
   12  A    between atoms: C_26  and  O_29
   13  A    between atoms: C_31  and  N_41
   14  A    between atoms: C_34  and  N_35
   15  A    between atoms: N_35  and  O_37
                            x       y       z     vdW  Elec       q    Type
                         _______ _______ _______ _____ _____    ______ ____

>  <TORSDO>
F 15

$$$$
=
 OpenBabel10222419313D

 42 45  0  0  1  0  0  0  0  0999 V2000
  182.9130  178.2750  140.1100 C   0  0  0  0  0  0  0  0  0  0  0  0
  182.3520  178.6050  141.3770 N   0  0  0  0  0  1  0  0  0  0  0  0
  182.6560  177.2230  137.9910 C   0  0  0  0  0  0  0  0  0  0  0  0
  184.2200  178.6670  139.7910 C   0  0  0  0  0  0  0  0  0  0  0  0
  182.1740  177.5640  139.2160 N   0  0  0  0  0  0  0  0  0  0  0  0
  183.9430  177.6230  137.6210 C   0  0  0  0  0  3  0  0  0  0  0  0
  184.7320  178.3580  138.5160 C   0  0  0  0  0  0  0  0  0  0  0  0
  181.8180  176.4490  137.0630 C   0  0  0  0  0  0  0  0  0  0  0  0
  180.5620  176.4560  137.1840 O   0  0  0  0  0  0  0  0  0  0  0  0
  182.4330  175.6840  136.0230 N   0  0  0  0  0  2  0  0  0  0  0  0
  182.0850  173.1440  135.2780 S   0  0  0  0  0  1  0  0  0  0  0  0
  181.6590  174.8930  135.0820 C   0  0  0  0  0  2  0  0  0  0  0  0
  186.0020  178.8160  138.1450 O   0  0  0  0  0  0  0  0  0  0  0  0
  186.9140  178.0580  137.3610 C   0  0  1  0  0  3  0  0  0  0  0  0
  187.9920  178.9990  136.8000 C   0  0  0  0  0  2  0  0  0  0  0  0
  188.4500  176.0640  137.3580 C   0  0  0  0  0  2  0  0  0  0  0  0
  189.3910  178.3780  136.7290 C   0  0  0  0  0  2  0  0  0  0  0  0
  189.3230  176.8850  136.3880 C   0  0  1  0  0  3  0  0  0  0  0  0
  187.5230  176.9370  138.2060 C   0  0  0  0  0  2  0  0  0  0  0  0
  190.6000  176.3190  136.1990 O   0  0  0  0  0  0  0  0  0  0  0  0
  190.9070  175.6420  137.3390 N   0  0  0  0  0  2  0  0  0  0  0  0
  192.1670  176.1820  137.8260 C   0  0  0  0  0  2  0  0  0  0  0  0
  194.3170  175.2100  136.9920 C   0  0  0  0  0  3  0  0  0  0  0  0
  193.2380  175.9820  136.7990 C   0  0  0  0  0  3  0  0  0  0  0  0
  195.4360  175.2430  139.1380 N   0  0  0  0  0  2  0  0  0  0  0  0
  196.4920  174.2530  138.9580 C   0  0  0  0  0  2  0  0  0  0  0  0
  195.2850  172.2280  138.7110 O   0  0  0  0  0  1  0  0  0  0  0  0
  194.5830  174.4500  138.2610 C   0  0  2  0  0  3  0  0  0  0  0  0
  195.6470  173.3980  138.0430 C   0  0  1  0  0  3  0  0  0  0  0  0
  184.9720  179.3840  140.7360 O   0  0  0  0  0  0  0  0  0  0  0  0
  185.8850  178.8090  141.6310 C   0  0  0  0  0  0  0  0  0  0  0  0
  187.2310  178.6060  141.2830 C   0  0  0  0  0  3  0  0  0  0  0  0
  188.1170  178.0310  142.1970 C   0  0  0  0  0  3  0  0  0  0  0  0
  185.4350  178.4040  142.8910 C   0  0  0  0  0  3  0  0  0  0  0  0
  186.3230  177.8280  143.8050 C   0  0  0  0  0  3  0  0  0  0  0  0
  187.6720  177.6410  143.4680 C   0  0  0  0  0  0  0  0  0  0  0  0
  188.6140  177.0400  144.4330 C   0  0  0  0  0  0  0  0  0  0  0  0
  188.3760  177.0940  145.6690 O   0  0  0  0  0  0  0  0  0  0  0  0
  189.8770  176.3880  143.9680 C   0  0  0  0  0  2  0  0  0  0  0  0
  191.0720  177.0770  144.5970 C   0  0  0  0  0  2  0  0  0  0  0  0
  191.6390  178.0950  143.6290 C   0  0  0  0  0  2  0  0  0  0  0  0
  191.1920  179.4810  144.0410 C   0  0  0  0  0  1  0  0  0  0  0  0
  1  2  1  0  0  0  0
  3  5  1  0  0  0  0
  4  1  1  0  0  0  0
  4 30  1  0  0  0  0
  5  1  2  0  0  0  0
  6  3  2  0  0  0  0
  6  7  1  0  0  0  0
  7  4  2  0  0  0  0
  8  9  2  0  0  0  0
  8  3  1  0  0  0  0
 10  8  1  0  0  0  0
 12 11  1  0  0  0  0
 12 10  1  0  0  0  0
 13  7  1  0  0  0  0
 14 13  1  1  0  0  0
 14 19  1  0  0  0  0
 15 14  1  0  0  0  0
 16 19  1  0  0  0  0
 17 15  1  0  0  0  0
 18 20  1  1  0  0  0
 18 17  1  0  0  0  0
 18 16  1  0  0  0  0
 20 21  1  0  0  0  0
 21 22  1  0  0  0  0
 24 23  2  0  0  0  0
 24 22  1  0  0  0  0
 26 25  1  0  0  0  0
 28 23  1  6  0  0  0
 28 25  1  0  0  0  0
 29 28  1  0  0  0  0
 29 27  1  1  0  0  0
 29 26  1  0  0  0  0
 30 31  1  0  0  0  0
 31 34  1  0  0  0  0
 32 31  2  0  0  0  0
 32 33  1  0  0  0  0
 33 36  2  0  0  0  0
 34 35  2  0  0  0  0
 36 35  1  0  0  0  0
 36 37  1  0  0  0  0
 37 38  2  0  0  0  0
 39 37  1  0  0  0  0
 39 40  1  0  0  0  0
 41 42  1  0  0  0  0
 41 40  1  0  0  0  0
M  END
>  <MODEL>
6

>  <REMARK>
 VINA RESULT:      -6.9      3.014      8.478
  Name = 
  15 active torsions:
  status: ('A' for Active; 'I' for Inactive)
    1  A    between atoms: C_1  and  O_14
    2  A    between atoms: C_2  and  O_29
    3  A    between atoms: C_3  and  C_25
    4  A    between atoms: C_4  and  C_40
    5  A    between atoms: C_4  and  C_42
    6  A    between atoms: C_9  and  C_28
    7  A    between atoms: C_11  and  C_12
    8  A    between atoms: C_11  and  C_42
    9  A    between atoms: O_14  and  C_39
   10  A    between atoms: C_17  and  C_34
   11  A    between atoms: C_24  and  O_37
   12  A    between atoms: C_26  and  O_29
   13  A    between atoms: C_31  and  N_41
   14  A    between atoms: C_34  and  N_35
   15  A    between atoms: N_35  and  O_37
                            x       y       z     vdW  Elec       q    Type
                         _______ _______ _______ _____ _____    ______ ____

>  <TORSDO>
F 15

$$$$
=
 OpenBabel10222419313D

 42 45  0  0  1  0  0  0  0  0999 V2000
  192.3120  176.8860  139.4030 C   0  0  0  0  0  0  0  0  0  0  0  0
  193.7140  177.1270  139.4660 N   0  0  0  0  0  1  0  0  0  0  0  0
  190.4520  176.0460  138.1790 C   0  0  0  0  0  0  0  0  0  0  0  0
  191.4810  177.2590  140.4690 C   0  0  0  0  0  0  0  0  0  0  0  0
  191.7830  176.3030  138.2940 N   0  0  0  0  0  0  0  0  0  0  0  0
  189.5940  176.3720  139.2330 C   0  0  0  0  0  3  0  0  0  0  0  0
  190.1040  176.9720  140.3910 C   0  0  0  0  0  0  0  0  0  0  0  0
  189.9290  175.4180  136.9560 C   0  0  0  0  0  0  0  0  0  0  0  0
  190.5520  174.4620  136.4170 O   0  0  0  0  0  0  0  0  0  0  0  0
  188.7130  175.8970  136.3780 N   0  0  0  0  0  2  0  0  0  0  0  0
  187.0930  173.9200  135.6040 S   0  0  0  0  0  1  0  0  0  0  0  0
  188.1520  175.3230  135.1670 C   0  0  0  0  0  2  0  0  0  0  0  0
  189.2710  177.2560  141.4800 O   0  0  0  0  0  0  0  0  0  0  0  0
  188.1700  178.1530  141.4160 C   0  0  1  0  0  3  0  0  0  0  0  0
  187.6930  178.2550  139.9590 C   0  0  0  0  0  2  0  0  0  0  0  0
  185.8900  178.6700  142.3490 C   0  0  0  0  0  2  0  0  0  0  0  0
  186.1740  178.3900  139.8050 C   0  0  0  0  0  2  0  0  0  0  0  0
  185.5680  179.2170  140.9440 C   0  0  1  0  0  3  0  0  0  0  0  0
  187.0530  177.6770  142.3470 C   0  0  0  0  0  2  0  0  0  0  0  0
  184.1910  179.4560  140.7590 O   0  0  0  0  0  0  0  0  0  0  0  0
  184.0240  179.8320  139.4620 N   0  0  0  0  0  2  0  0  0  0  0  0
  182.7110  179.3630  139.0500 C   0  0  0  0  0  2  0  0  0  0  0  0
  182.4320  176.8770  139.1470 C   0  0  0  0  0  3  0  0  0  0  0  0
  182.3880  178.0760  139.7450 C   0  0  0  0  0  3  0  0  0  0  0  0
  182.1220  175.5080  137.1760 N   0  0  0  0  0  2  0  0  0  0  0  0
  183.4120  174.8390  137.0500 C   0  0  0  0  0  2  0  0  0  0  0  0
  184.8910  176.6260  136.5640 O   0  0  0  0  0  1  0  0  0  0  0  0
  182.8120  176.6770  137.7070 C   0  0  2  0  0  3  0  0  0  0  0  0
  184.1720  176.0240  137.5970 C   0  0  1  0  0  3  0  0  0  0  0  0
  192.0470  177.8770  141.5960 O   0  0  0  0  0  0  0  0  0  0  0  0
  191.6370  177.6520  142.9170 C   0  0  0  0  0  0  0  0  0  0  0  0
  191.7380  176.3850  143.5160 C   0  0  0  0  0  3  0  0  0  0  0  0
  191.3230  176.1920  144.8360 C   0  0  0  0  0  3  0  0  0  0  0  0
  191.0910  178.7110  143.6470 C   0  0  0  0  0  3  0  0  0  0  0  0
  190.6750  178.5180  144.9690 C   0  0  0  0  0  3  0  0  0  0  0  0
  190.7920  177.2580  145.5750 C   0  0  0  0  0  0  0  0  0  0  0  0
  190.3600  177.0510  146.9720 C   0  0  0  0  0  0  0  0  0  0  0  0
  191.2030  177.0890  147.9090 O   0  0  0  0  0  0  0  0  0  0  0  0
  188.9300  176.7620  147.2980 C   0  0  0  0  0  2  0  0  0  0  0  0
  188.3020  177.9690  147.9660 C   0  0  0  0  0  2  0  0  0  0  0  0
  186.9530  178.2510  147.3390 C   0  0  0  0  0  2  0  0  0  0  0  0
  186.8580  177.5330  146.0100 C   0  0  0  0  0  1  0  0  0  0  0  0
  1  2  1  0  0  0  0
  1  4  1  0  0  0  0
  3  5  1  0  0  0  0
  3  6  2  0  0  0  0
  4 30  1  0  0  0  0
  5  1  2  0  0  0  0
  6  7  1  0  0  0  0
  7  4  2  0  0  0  0
  7 13  1  0  0  0  0
  8  3  1  0  0  0  0
  9  8  2  0  0  0  0
 10  8  1  0  0  0  0
 12 11  1  0  0  0  0
 12 10  1  0  0  0  0
 14 13  1  6  0  0  0
 14 19  1  0  0  0  0
 15 14  1  0  0  0  0
 17 15  1  0  0  0  0
 17 18  1  0  0  0  0
 18 20  1  6  0  0  0
 18 16  1  0  0  0  0
 19 16  1  0  0  0  0
 21 20  1  0  0  0  0
 22 21  1  0  0  0  0
 22 24  1  0  0  0  0
 23 24  2  0  0  0  0
 25 28  1  0  0  0  0
 26 25  1  0  0  0  0
 26 29  1  0  0  0  0
 28 23  1  1  0  0  0
 29 27  1  6  0  0  0
 29 28  1  0  0  0  0
 30 31  1  0  0  0  0
 31 32  2  0  0  0  0
 31 34  1  0  0  0  0
 32 33  1  0  0  0  0
 33 36  2  0  0  0  0
 34 35  2  0  0  0  0
 35 36  1  0  0  0  0
 36 37  1  0  0  0  0
 37 39  1  0  0  0  0
 37 38  2  0  0  0  0
 39 40  1  0  0  0  0
 41 40  1  0  0  0  0
 42 41  1  0  0  0  0
M  END
>  <MODEL>
7

>  <REMARK>
 VINA RESULT:      -6.6      2.097      2.783
  Name = 
  15 active torsions:
  status: ('A' for Active; 'I' for Inactive)
    1  A    between atoms: C_1  and  O_14
    2  A    between atoms: C_2  and  O_29
    3  A    between atoms: C_3  and  C_25
    4  A    between atoms: C_4  and  C_40
    5  A    between atoms: C_4  and  C_42
    6  A    between atoms: C_9  and  C_28
    7  A    between atoms: C_11  and  C_12
    8  A    between atoms: C_11  and  C_42
    9  A    between atoms: O_14  and  C_39
   10  A    between atoms: C_17  and  C_34
   11  A    between atoms: C_24  and  O_37
   12  A    between atoms: C_26  and  O_29
   13  A    between atoms: C_31  and  N_41
   14  A    between atoms: C_34  and  N_35
   15  A    between atoms: N_35  and  O_37
                            x       y       z     vdW  Elec       q    Type
                         _______ _______ _______ _____ _____    ______ ____

>  <TORSDO>
F 15

$$$$
=
 OpenBabel10222419313D

 42 45  0  0  1  0  0  0  0  0999 V2000
  182.6640  178.0560  140.2860 C   0  0  0  0  0  0  0  0  0  0  0  0
  181.8270  178.4520  141.3690 N   0  0  0  0  0  1  0  0  0  0  0  0
  182.9400  176.7750  138.3000 C   0  0  0  0  0  0  0  0  0  0  0  0
  183.9730  178.5480  140.1860 C   0  0  0  0  0  0  0  0  0  0  0  0
  182.1880  177.1860  139.3560 N   0  0  0  0  0  0  0  0  0  0  0  0
  184.2390  177.2680  138.1460 C   0  0  0  0  0  3  0  0  0  0  0  0
  184.7620  178.1680  139.0840 C   0  0  0  0  0  0  0  0  0  0  0  0
  182.3800  175.8280  137.3240 C   0  0  0  0  0  0  0  0  0  0  0  0
  181.1600  175.8920  137.0060 O   0  0  0  0  0  0  0  0  0  0  0  0
  183.2220  174.8320  136.7390 N   0  0  0  0  0  2  0  0  0  0  0  0
  182.7730  172.2090  136.5120 S   0  0  0  0  0  1  0  0  0  0  0  0
  182.7240  173.8640  135.7770 C   0  0  0  0  0  2  0  0  0  0  0  0
  186.0390  178.7160  138.9190 O   0  0  0  0  0  0  0  0  0  0  0  0
  187.2220  177.9350  138.7990 C   0  0  1  0  0  3  0  0  0  0  0  0
  187.8670  178.2140  137.4330 C   0  0  0  0  0  2  0  0  0  0  0  0
  189.4210  177.3670  139.8820 C   0  0  0  0  0  2  0  0  0  0  0  0
  189.4000  178.2220  137.4530 C   0  0  0  0  0  2  0  0  0  0  0  0
  189.9500  177.1910  138.4450 C   0  0  1  0  0  3  0  0  0  0  0  0
  188.1760  178.2520  139.9520 C   0  0  0  0  0  2  0  0  0  0  0  0
  191.3560  177.0960  138.3940 O   0  0  0  0  0  0  0  0  0  0  0  0
  191.6590  176.2210  137.3970 N   0  0  0  0  0  2  0  0  0  0  0  0
  190.7940  175.0640  137.5720 C   0  0  0  0  0  2  0  0  0  0  0  0
  189.7760  173.4220  135.9800 C   0  0  0  0  0  3  0  0  0  0  0  0
  190.7800  174.2440  136.3190 C   0  0  0  0  0  3  0  0  0  0  0  0
  187.9650  171.9160  136.5360 N   0  0  0  0  0  2  0  0  0  0  0  0
  186.8090  172.5830  135.9470 C   0  0  0  0  0  2  0  0  0  0  0  0
  186.6280  174.5660  137.2320 O   0  0  0  0  0  1  0  0  0  0  0  0
  188.5420  173.2250  136.8140 C   0  0  2  0  0  3  0  0  0  0  0  0
  187.3660  173.9610  136.2130 C   0  0  1  0  0  3  0  0  0  0  0  0
  184.4510  179.4310  141.1690 O   0  0  0  0  0  0  0  0  0  0  0  0
  185.0030  179.0360  142.3950 C   0  0  0  0  0  0  0  0  0  0  0  0
  186.1700  178.2580  142.4620 C   0  0  0  0  0  3  0  0  0  0  0  0
  186.6980  177.8800  143.6990 C   0  0  0  0  0  3  0  0  0  0  0  0
  184.3590  179.4050  143.5790 C   0  0  0  0  0  3  0  0  0  0  0  0
  184.8870  179.0270  144.8180 C   0  0  0  0  0  3  0  0  0  0  0  0
  186.0630  178.2660  144.8880 C   0  0  0  0  0  0  0  0  0  0  0  0
  186.6280  177.8700  146.1940 C   0  0  0  0  0  0  0  0  0  0  0  0
  186.1360  178.3240  147.2620 O   0  0  0  0  0  0  0  0  0  0  0  0
  187.8070  176.9540  146.2740 C   0  0  0  0  0  2  0  0  0  0  0  0
  189.0680  177.7610  146.5140 C   0  0  0  0  0  2  0  0  0  0  0  0
  189.8270  177.1790  147.6880 C   0  0  0  0  0  2  0  0  0  0  0  0
  191.1990  176.7360  147.2260 C   0  0  0  0  0  1  0  0  0  0  0  0
  1  2  1  0  0  0  0
  3  5  1  0  0  0  0
  4  1  1  0  0  0  0
  4 30  1  0  0  0  0
  5  1  2  0  0  0  0
  6  3  2  0  0  0  0
  6  7  1  0  0  0  0
  7  4  2  0  0  0  0
  8  3  1  0  0  0  0
  9  8  2  0  0  0  0
 10  8  1  0  0  0  0
 12 11  1  0  0  0  0
 12 10  1  0  0  0  0
 13  7  1  0  0  0  0
 14 13  1  1  0  0  0
 14 19  1  0  0  0  0
 15 17  1  0  0  0  0
 15 14  1  0  0  0  0
 16 19  1  0  0  0  0
 17 18  1  0  0  0  0
 18 20  1  1  0  0  0
 18 16  1  0  0  0  0
 21 22  1  0  0  0  0
 21 20  1  0  0  0  0
 23 24  2  0  0  0  0
 24 22  1  0  0  0  0
 25 28  1  0  0  0  0
 26 29  1  0  0  0  0
 26 25  1  0  0  0  0
 28 23  1  6  0  0  0
 29 28  1  0  0  0  0
 29 27  1  1  0  0  0
 30 31  1  0  0  0  0
 31 32  2  0  0  0  0
 31 34  1  0  0  0  0
 32 33  1  0  0  0  0
 33 36  2  0  0  0  0
 34 35  2  0  0  0  0
 35 36  1  0  0  0  0
 36 37  1  0  0  0  0
 37 39  1  0  0  0  0
 37 38  2  0  0  0  0
 39 40  1  0  0  0  0
 40 41  1  0  0  0  0
 42 41  1  0  0  0  0
M  END
>  <MODEL>
8

>  <REMARK>
 VINA RESULT:      -6.6      2.578      7.093
  Name = 
  15 active torsions:
  status: ('A' for Active; 'I' for Inactive)
    1  A    between atoms: C_1  and  O_14
    2  A    between atoms: C_2  and  O_29
    3  A    between atoms: C_3  and  C_25
    4  A    between atoms: C_4  and  C_40
    5  A    between atoms: C_4  and  C_42
    6  A    between atoms: C_9  and  C_28
    7  A    between atoms: C_11  and  C_12
    8  A    between atoms: C_11  and  C_42
    9  A    between atoms: O_14  and  C_39
   10  A    between atoms: C_17  and  C_34
   11  A    between atoms: C_24  and  O_37
   12  A    between atoms: C_26  and  O_29
   13  A    between atoms: C_31  and  N_41
   14  A    between atoms: C_34  and  N_35
   15  A    between atoms: N_35  and  O_37
                            x       y       z     vdW  Elec       q    Type
                         _______ _______ _______ _____ _____    ______ ____

>  <TORSDO>
F 15

$$$$
=
 OpenBabel10222419313D

 42 45  0  0  1  0  0  0  0  0999 V2000
  188.4020  178.4880  137.4480 C   0  0  0  0  0  0  0  0  0  0  0  0
  187.6520  179.4150  136.6700 N   0  0  0  0  0  1  0  0  0  0  0  0
  190.1880  176.9190  137.5680 C   0  0  0  0  0  0  0  0  0  0  0  0
  188.0720  178.2600  138.7910 C   0  0  0  0  0  0  0  0  0  0  0  0
  189.4350  177.8140  136.8740 N   0  0  0  0  0  0  0  0  0  0  0  0
  189.9120  176.6890  138.9190 C   0  0  0  0  0  3  0  0  0  0  0  0
  188.8570  177.3660  139.5440 C   0  0  0  0  0  0  0  0  0  0  0  0
  191.2910  176.2130  136.8990 C   0  0  0  0  0  0  0  0  0  0  0  0
  191.0590  175.4640  135.9110 O   0  0  0  0  0  0  0  0  0  0  0  0
  192.6290  176.3760  137.3760 N   0  0  0  0  0  2  0  0  0  0  0  0
  194.0480  174.1260  137.6140 S   0  0  0  0  0  1  0  0  0  0  0  0
  193.7580  175.6980  136.7620 C   0  0  0  0  0  2  0  0  0  0  0  0
  188.6000  177.1910  140.9090 O   0  0  0  0  0  0  0  0  0  0  0  0
  189.6070  177.2250  141.9110 C   0  0  1  0  0  3  0  0  0  0  0  0
  189.3990  178.4710  142.7860 C   0  0  0  0  0  2  0  0  0  0  0  0
  190.6920  175.9240  143.7730 C   0  0  0  0  0  2  0  0  0  0  0  0
  189.7200  178.2570  144.2690 C   0  0  0  0  0  2  0  0  0  0  0  0
  190.8970  177.2930  144.4520 C   0  0  1  0  0  3  0  0  0  0  0  0
  189.5660  175.9380  142.7380 C   0  0  0  0  0  2  0  0  0  0  0  0
  191.2880  177.1740  145.8010 O   0  0  0  0  0  0  0  0  0  0  0  0
  190.3700  177.8540  146.5410 N   0  0  0  0  0  2  0  0  0  0  0  0
  189.4470  176.8680  147.0800 C   0  0  0  0  0  2  0  0  0  0  0  0
  187.6020  178.2170  148.1010 C   0  0  0  0  0  3  0  0  0  0  0  0
  188.6940  177.4520  148.2360 C   0  0  0  0  0  3  0  0  0  0  0  0
  185.8060  179.3940  146.9840 N   0  0  0  0  0  2  0  0  0  0  0  0
  185.0010  178.3040  146.4450 C   0  0  0  0  0  2  0  0  0  0  0  0
  186.4410  177.3230  144.8390 O   0  0  0  0  0  1  0  0  0  0  0  0
  186.9970  178.5800  146.7740 C   0  0  2  0  0  3  0  0  0  0  0  0
  186.2050  177.4220  146.2100 C   0  0  1  0  0  3  0  0  0  0  0  0
  186.9900  178.9530  139.3580 O   0  0  0  0  0  0  0  0  0  0  0  0
  185.6850  178.4500  139.4560 C   0  0  0  0  0  0  0  0  0  0  0  0
  185.0470  177.8370  138.3650 C   0  0  0  0  0  3  0  0  0  0  0  0
  183.7460  177.3440  138.4930 C   0  0  0  0  0  3  0  0  0  0  0  0
  184.9940  178.5870  140.6630 C   0  0  0  0  0  3  0  0  0  0  0  0
  183.6920  178.0930  140.7910 C   0  0  0  0  0  3  0  0  0  0  0  0
  183.0590  177.4640  139.7090 C   0  0  0  0  0  0  0  0  0  0  0  0
  181.6870  176.9360  139.8420 C   0  0  0  0  0  0  0  0  0  0  0  0
  181.4640  175.7040  139.6920 O   0  0  0  0  0  0  0  0  0  0  0  0
  180.5370  177.8490  140.1230 C   0  0  0  0  0  2  0  0  0  0  0  0
  179.9610  178.3640  138.8190 C   0  0  0  0  0  2  0  0  0  0  0  0
  180.6330  179.6690  138.4470 C   0  0  0  0  0  2  0  0  0  0  0  0
  180.2970  180.7180  139.4850 C   0  0  0  0  0  1  0  0  0  0  0  0
  1  4  1  0  0  0  0
  2  1  1  0  0  0  0
  3  6  2  0  0  0  0
  4 30  1  0  0  0  0
  4  7  2  0  0  0  0
  5  1  2  0  0  0  0
  5  3  1  0  0  0  0
  6  7  1  0  0  0  0
  7 13  1  0  0  0  0
  8 10  1  0  0  0  0
  8  3  1  0  0  0  0
  9  8  2  0  0  0  0
 12 10  1  0  0  0  0
 12 11  1  0  0  0  0
 14 13  1  6  0  0  0
 14 19  1  0  0  0  0
 14 15  1  0  0  0  0
 15 17  1  0  0  0  0
 16 18  1  0  0  0  0
 17 18  1  0  0  0  0
 18 20  1  1  0  0  0
 19 16  1  0  0  0  0
 20 21  1  0  0  0  0
 21 22  1  0  0  0  0
 22 24  1  0  0  0  0
 23 24  2  0  0  0  0
 26 25  1  0  0  0  0
 28 25  1  0  0  0  0
 28 23  1  1  0  0  0
 29 27  1  6  0  0  0
 29 26  1  0  0  0  0
 29 28  1  0  0  0  0
 30 31  1  0  0  0  0
 31 34  1  0  0  0  0
 32 33  1  0  0  0  0
 32 31  2  0  0  0  0
 33 36  2  0  0  0  0
 34 35  2  0  0  0  0
 36 37  1  0  0  0  0
 36 35  1  0  0  0  0
 37 39  1  0  0  0  0
 38 37  2  0  0  0  0
 40 39  1  0  0  0  0
 41 40  1  0  0  0  0
 41 42  1  0  0  0  0
M  END
>  <MODEL>
9

>  <REMARK>
 VINA RESULT:      -6.5      2.826      7.636
  Name = 
  15 active torsions:
  status: ('A' for Active; 'I' for Inactive)
    1  A    between atoms: C_1  and  O_14
    2  A    between atoms: C_2  and  O_29
    3  A    between atoms: C_3  and  C_25
    4  A    between atoms: C_4  and  C_40
    5  A    between atoms: C_4  and  C_42
    6  A    between atoms: C_9  and  C_28
    7  A    between atoms: C_11  and  C_12
    8  A    between atoms: C_11  and  C_42
    9  A    between atoms: O_14  and  C_39
   10  A    between atoms: C_17  and  C_34
   11  A    between atoms: C_24  and  O_37
   12  A    between atoms: C_26  and  O_29
   13  A    between atoms: C_31  and  N_41
   14  A    between atoms: C_34  and  N_35
   15  A    between atoms: N_35  and  O_37
                            x       y       z     vdW  Elec       q    Type
                         _______ _______ _______ _____ _____    ______ ____

>  <TORSDO>
F 15

$$$$
