=
 OpenBabel10222417173D

 46 50  0  0  1  0  0  0  0  0999 V2000
  189.1240  177.5800  140.2410 C   0  0  0  0  0  0  0  0  0  0  0  0
  189.0620  176.5600  139.2770 C   0  0  0  0  0  3  0  0  0  0  0  0
  188.0000  176.5750  138.3780 C   0  0  0  0  0  0  0  0  0  0  0  0
  187.0940  178.5390  139.3660 N   0  0  0  0  0  0  0  0  0  0  0  0
  186.3810  176.1920  136.6610 C   0  0  0  0  0  2  0  0  0  0  0  0
  187.6730  175.6100  137.2900 C   0  0  1  0  0  3  0  0  0  0  0  0
  188.1220  178.5710  140.2660 C   0  0  0  0  0  3  0  0  0  0  0  0
  187.0450  177.5440  138.4420 C   0  0  0  0  0  0  0  0  0  0  0  0
  186.0620  177.3930  137.4390 N   0  0  0  0  0  0  0  0  0  0  0  0
  182.0020  178.9690  139.4770 C   0  0  2  0  0  3  0  0  0  0  0  0
  183.9420  178.2620  138.3130 C   0  0  0  0  0  0  0  0  0  0  0  0
  182.5890  177.7590  140.2080 C   0  0  1  0  0  3  0  0  0  0  0  0
  180.5250  178.7500  139.1950 C   0  0  0  0  0  1  0  0  0  0  0  0
  183.9450  177.4830  139.5710 C   0  0  0  0  0  2  0  0  0  0  0  0
  184.8730  178.1900  137.3580 C   0  0  0  0  0  3  0  0  0  0  0  0
  182.7530  179.1270  138.1690 C   0  0  0  0  0  2  0  0  0  0  0  0
  182.7410  178.0190  141.7130 C   0  0  0  0  0  3  0  0  0  0  0  0
  181.6870  179.0090  142.1790 C   0  0  0  0  0  1  0  0  0  0  0  0
  184.1040  178.6030  142.0350 C   0  0  0  0  0  1  0  0  0  0  0  0
  189.8430  173.7130  137.3640 O   0  0  0  0  0  0  0  0  0  0  0  0
  188.7570  175.5020  136.3090 N   0  0  0  0  0  0  0  0  0  0  0  0
  189.8720  174.6000  136.4670 C   0  0  0  0  0  0  0  0  0  0  0  0
  191.0860  174.7390  135.5870 C   0  0  2  0  0  3  0  0  0  0  0  0
  192.1620  173.8720  136.0630 C   0  0  0  0  0  2  0  0  0  0  0  0
  192.2190  175.3180  136.3350 N   0  0  0  0  0  0  0  0  0  0  0  0
  193.1040  175.8970  135.3410 C   0  0  0  0  0  2  0  0  0  0  0  0
  194.3310  176.4900  136.0160 C   0  0  0  0  0  2  0  0  0  0  0  0
  195.6140  178.4070  135.3860 O   0  0  0  0  0  1  0  0  0  0  0  0
  195.2690  177.1090  134.9960 C   0  0  0  0  0  2  0  0  0  0  0  0
  189.4100  177.7450  135.5970 C   0  0  0  0  0  1  0  0  0  0  0  0
  188.7210  176.4500  135.2040 C   0  0  0  0  0  2  0  0  0  0  0  0
  190.2450  177.6290  141.2250 C   0  0  0  0  0  2  0  0  0  0  0  0
  190.0570  176.6020  142.3010 C   0  0  0  0  0  0  0  0  0  0  0  0
  190.7360  175.5400  142.2470 O   0  0  0  0  0  0  0  0  0  0  0  0
  186.8310  177.0210  144.2200 C   0  0  0  0  0  3  0  0  0  0  0  0
  189.1240  176.8580  143.4300 C   0  0  0  0  0  0  0  0  0  0  0  0
  187.7440  176.7520  143.2030 C   0  0  0  0  0  3  0  0  0  0  0  0
  187.2730  177.4090  145.4940 C   0  0  0  0  0  0  0  0  0  0  0  0
  188.6510  177.5310  145.7280 C   0  0  0  0  0  0  0  0  0  0  0  0
  190.9370  177.3840  144.9720 O   0  0  0  0  0  1  0  0  0  0  0  0
  189.2260  178.0440  147.3080 Cl  0  0  0  0  0  0  0  0  0  0  0  0
  189.5760  177.2560  144.7080 C   0  0  0  0  0  0  0  0  0  0  0  0
  186.3760  177.6940  146.5380 O   0  0  0  0  0  0  0  0  0  0  0  0
  185.4990  178.7870  146.6080 C   0  0  0  0  0  0  0  0  0  0  0  0
  184.2660  178.7780  145.7750 C   0  0  0  0  0  1  0  0  0  0  0  0
  185.7330  179.7810  147.3490 O   0  0  0  0  0  0  0  0  0  0  0  0
  1  7  1  0  0  0  0
  1 32  1  0  0  0  0
  2  1  2  0  0  0  0
  3  8  2  0  0  0  0
  3  2  1  0  0  0  0
  4  7  2  0  0  0  0
  5  6  1  0  0  0  0
  5  9  1  0  0  0  0
  6 21  1  6  0  0  0
  6  3  1  0  0  0  0
  8  4  1  0  0  0  0
  9  8  1  0  0  0  0
 10 13  1  6  0  0  0
 10 12  1  0  0  0  0
 11 14  1  0  0  0  0
 12 17  1  1  0  0  0
 14 12  1  0  0  0  0
 15  9  1  0  0  0  0
 15 11  2  0  0  0  0
 16 11  1  0  0  0  0
 16 10  1  0  0  0  0
 17 19  1  0  0  0  0
 17 18  1  0  0  0  0
 21 22  1  0  0  0  0
 22 20  2  0  0  0  0
 23 24  1  0  0  0  0
 23 25  1  0  0  0  0
 23 22  1  1  0  0  0
 24 25  1  0  0  0  0
 26 27  1  0  0  0  0
 26 25  1  0  0  0  0
 29 28  1  0  0  0  0
 29 27  1  0  0  0  0
 31 30  1  0  0  0  0
 31 21  1  0  0  0  0
 32 33  1  0  0  0  0
 33 36  1  0  0  0  0
 34 33  2  0  0  0  0
 35 38  1  0  0  0  0
 36 42  2  0  0  0  0
 37 36  1  0  0  0  0
 37 35  2  0  0  0  0
 38 39  2  0  0  0  0
 38 43  1  0  0  0  0
 39 41  1  0  0  0  0
 42 40  1  0  0  0  0
 42 39  1  0  0  0  0
 43 44  1  0  0  0  0
 44 46  2  0  0  0  0
 45 44  1  0  0  0  0
M  END
>  <MODEL>
1

>  <REMARK>
 VINA RESULT:      -7.9      0.000      0.000
  Name = 
  13 active torsions:
  status: ('A' for Active; 'I' for Inactive)
    1  A    between atoms: C_1  and  C_3
    2  A    between atoms: C_1  and  C_45
    3  A    between atoms: C_4  and  O_38
    4  A    between atoms: C_6  and  C_15
    5  A    between atoms: C_6  and  C_18
    6  A    between atoms: C_8  and  C_45
    7  A    between atoms: C_10  and  O_38
    8  A    between atoms: C_15  and  N_33
    9  A    between atoms: C_16  and  C_31
   10  A    between atoms: C_22  and  C_42
   11  A    between atoms: N_27  and  C_30
   12  A    between atoms: N_27  and  C_44
   13  A    between atoms: C_41  and  N_46
                            x       y       z     vdW  Elec       q    Type
                         _______ _______ _______ _____ _____    ______ ____

>  <TORSDO>
F 13

$$$$
=
 OpenBabel10222417173D

 46 50  0  0  1  0  0  0  0  0999 V2000
  189.7260  177.7090  141.4390 C   0  0  0  0  0  0  0  0  0  0  0  0
  189.0620  177.9110  140.2180 C   0  0  0  0  0  3  0  0  0  0  0  0
  189.7200  177.5410  139.0490 C   0  0  0  0  0  0  0  0  0  0  0  0
  191.6250  176.8050  140.2650 N   0  0  0  0  0  0  0  0  0  0  0  0
  190.4460  177.0760  136.8190 C   0  0  0  0  0  2  0  0  0  0  0  0
  189.2700  177.6730  137.6340 C   0  0  1  0  0  3  0  0  0  0  0  0
  191.0180  177.1460  141.4410 C   0  0  0  0  0  3  0  0  0  0  0  0
  190.9730  177.0110  139.0910 C   0  0  0  0  0  0  0  0  0  0  0  0
  191.4610  176.6900  137.8040 N   0  0  0  0  0  0  0  0  0  0  0  0
  194.4350  173.3120  136.1100 C   0  0  2  0  0  3  0  0  0  0  0  0
  193.1160  175.0590  137.0200 C   0  0  0  0  0  0  0  0  0  0  0  0
  193.0140  172.7820  136.3260 C   0  0  1  0  0  3  0  0  0  0  0  0
  195.4480  172.3800  136.7520 C   0  0  0  0  0  1  0  0  0  0  0  0
  192.1540  173.9860  136.6890 C   0  0  0  0  0  2  0  0  0  0  0  0
  192.8000  176.2450  137.5450 C   0  0  0  0  0  3  0  0  0  0  0  0
  194.5200  174.6820  136.7570 C   0  0  0  0  0  2  0  0  0  0  0  0
  192.4690  172.0840  135.0740 C   0  0  0  0  0  3  0  0  0  0  0  0
  190.9830  172.3670  134.9260 C   0  0  0  0  0  1  0  0  0  0  0  0
  192.6500  170.5790  135.1600 C   0  0  0  0  0  1  0  0  0  0  0  0
  186.6480  178.8580  137.4480 O   0  0  0  0  0  0  0  0  0  0  0  0
  188.0160  176.9550  137.3880 N   0  0  0  0  0  0  0  0  0  0  0  0
  186.7250  177.5990  137.4160 C   0  0  0  0  0  0  0  0  0  0  0  0
  185.4680  176.7680  137.4440 C   0  0  2  0  0  3  0  0  0  0  0  0
  184.7480  176.8920  136.1780 C   0  0  0  0  0  2  0  0  0  0  0  0
  184.2670  177.6230  137.3620 N   0  0  0  0  0  0  0  0  0  0  0  0
  183.1790  176.8420  137.9240 C   0  0  0  0  0  2  0  0  0  0  0  0
  182.2810  177.7310  138.7690 C   0  0  0  0  0  2  0  0  0  0  0  0
  182.0120  180.0270  138.1600 O   0  0  0  0  0  1  0  0  0  0  0  0
  182.8370  179.1410  138.8570 C   0  0  0  0  0  2  0  0  0  0  0  0
  188.0610  175.1380  135.7580 C   0  0  0  0  0  1  0  0  0  0  0  0
  188.1210  175.5120  137.2280 C   0  0  0  0  0  2  0  0  0  0  0  0
  189.0700  178.0710  142.7300 C   0  0  0  0  0  2  0  0  0  0  0  0
  187.8950  177.1790  143.0000 C   0  0  0  0  0  0  0  0  0  0  0  0
  188.0880  175.9350  143.0800 O   0  0  0  0  0  0  0  0  0  0  0  0
  184.5710  178.8140  142.2630 C   0  0  0  0  0  3  0  0  0  0  0  0
  186.5440  177.7600  143.2160 C   0  0  0  0  0  0  0  0  0  0  0  0
  185.8250  178.2270  142.1060 C   0  0  0  0  0  3  0  0  0  0  0  0
  184.0030  178.9560  143.5380 C   0  0  0  0  0  0  0  0  0  0  0  0
  184.7200  178.5050  144.6560 C   0  0  0  0  0  0  0  0  0  0  0  0
  186.6660  177.4670  145.6320 O   0  0  0  0  0  1  0  0  0  0  0  0
  184.0390  178.7000  146.2660 Cl  0  0  0  0  0  0  0  0  0  0  0  0
  185.9810  177.9070  144.5030 C   0  0  0  0  0  0  0  0  0  0  0  0
  182.7430  179.5510  143.7290 O   0  0  0  0  0  0  0  0  0  0  0  0
  181.5290  179.1230  143.1730 C   0  0  0  0  0  0  0  0  0  0  0  0
  180.5210  178.4710  144.0530 C   0  0  0  0  0  1  0  0  0  0  0  0
  181.2700  179.2660  141.9470 O   0  0  0  0  0  0  0  0  0  0  0  0
  1  7  1  0  0  0  0
  1 32  1  0  0  0  0
  2  1  2  0  0  0  0
  3  8  2  0  0  0  0
  3  2  1  0  0  0  0
  4  7  2  0  0  0  0
  5  6  1  0  0  0  0
  5  9  1  0  0  0  0
  6 21  1  1  0  0  0
  6  3  1  0  0  0  0
  8  4  1  0  0  0  0
  9  8  1  0  0  0  0
 10 12  1  0  0  0  0
 10 13  1  1  0  0  0
 10 16  1  0  0  0  0
 11 15  2  0  0  0  0
 12 17  1  6  0  0  0
 12 14  1  0  0  0  0
 14 11  1  0  0  0  0
 15  9  1  0  0  0  0
 16 11  1  0  0  0  0
 17 19  1  0  0  0  0
 18 17  1  0  0  0  0
 21 22  1  0  0  0  0
 22 20  2  0  0  0  0
 23 22  1  6  0  0  0
 24 25  1  0  0  0  0
 24 23  1  0  0  0  0
 25 23  1  0  0  0  0
 25 26  1  0  0  0  0
 26 27  1  0  0  0  0
 27 29  1  0  0  0  0
 28 29  1  0  0  0  0
 30 31  1  0  0  0  0
 31 21  1  0  0  0  0
 32 33  1  0  0  0  0
 33 34  2  0  0  0  0
 33 36  1  0  0  0  0
 35 38  1  0  0  0  0
 36 42  2  0  0  0  0
 37 35  2  0  0  0  0
 37 36  1  0  0  0  0
 38 43  1  0  0  0  0
 38 39  2  0  0  0  0
 39 41  1  0  0  0  0
 42 39  1  0  0  0  0
 42 40  1  0  0  0  0
 44 43  1  0  0  0  0
 44 45  1  0  0  0  0
 46 44  2  0  0  0  0
M  END
>  <MODEL>
2

>  <REMARK>
 VINA RESULT:      -7.6      2.837      7.826
  Name = 
  13 active torsions:
  status: ('A' for Active; 'I' for Inactive)
    1  A    between atoms: C_1  and  C_3
    2  A    between atoms: C_1  and  C_45
    3  A    between atoms: C_4  and  O_38
    4  A    between atoms: C_6  and  C_15
    5  A    between atoms: C_6  and  C_18
    6  A    between atoms: C_8  and  C_45
    7  A    between atoms: C_10  and  O_38
    8  A    between atoms: C_15  and  N_33
    9  A    between atoms: C_16  and  C_31
   10  A    between atoms: C_22  and  C_42
   11  A    between atoms: N_27  and  C_30
   12  A    between atoms: N_27  and  C_44
   13  A    between atoms: C_41  and  N_46
                            x       y       z     vdW  Elec       q    Type
                         _______ _______ _______ _____ _____    ______ ____

>  <TORSDO>
F 13

$$$$
=
 OpenBabel10222417173D

 46 50  0  0  1  0  0  0  0  0999 V2000
  191.2550  177.4000  140.2880 C   0  0  0  0  0  0  0  0  0  0  0  0
  190.4220  177.1460  139.1860 C   0  0  0  0  0  3  0  0  0  0  0  0
  191.0160  176.7070  138.0070 C   0  0  0  0  0  0  0  0  0  0  0  0
  193.1820  176.7800  138.9820 N   0  0  0  0  0  0  0  0  0  0  0  0
  191.5780  175.9600  135.8060 C   0  0  0  0  0  2  0  0  0  0  0  0
  190.3840  176.3990  136.6920 C   0  0  1  0  0  3  0  0  0  0  0  0
  192.6450  177.2060  140.1650 C   0  0  0  0  0  3  0  0  0  0  0  0
  192.3650  176.5420  137.9240 C   0  0  0  0  0  0  0  0  0  0  0  0
  192.7700  176.0800  136.6520 N   0  0  0  0  0  0  0  0  0  0  0  0
  196.7060  173.3520  136.2100 C   0  0  2  0  0  3  0  0  0  0  0  0
  194.8710  174.8430  136.3900 C   0  0  0  0  0  0  0  0  0  0  0  0
  195.6660  172.7270  137.1440 C   0  0  1  0  0  3  0  0  0  0  0  0
  198.0730  173.3570  136.8710 C   0  0  0  0  0  1  0  0  0  0  0  0
  194.4190  173.5990  137.0500 C   0  0  0  0  0  2  0  0  0  0  0  0
  194.1390  175.9500  136.2470 C   0  0  0  0  0  3  0  0  0  0  0  0
  196.2710  174.7770  135.9240 C   0  0  0  0  0  2  0  0  0  0  0  0
  195.3440  171.2790  136.7540 C   0  0  0  0  0  3  0  0  0  0  0  0
  193.9340  171.1910  136.1920 C   0  0  0  0  0  1  0  0  0  0  0  0
  195.4240  170.3540  137.9550 C   0  0  0  0  0  1  0  0  0  0  0  0
  187.5470  176.7250  136.2960 O   0  0  0  0  0  0  0  0  0  0  0  0
  189.3710  175.3440  136.8040 N   0  0  0  0  0  0  0  0  0  0  0  0
  187.9560  175.6020  136.7000 C   0  0  0  0  0  0  0  0  0  0  0  0
  186.9640  174.5440  137.1080 C   0  0  2  0  0  3  0  0  0  0  0  0
  186.3670  173.9240  135.9280 C   0  0  0  0  0  2  0  0  0  0  0  0
  185.5960  174.9140  136.6970 N   0  0  0  0  0  0  0  0  0  0  0  0
  184.7000  174.1670  137.5620 C   0  0  0  0  0  2  0  0  0  0  0  0
  183.2960  174.7450  137.4830 C   0  0  0  0  0  2  0  0  0  0  0  0
  181.6410  175.5430  139.0130 O   0  0  0  0  0  1  0  0  0  0  0  0
  182.9980  175.6200  138.6870 C   0  0  0  0  0  2  0  0  0  0  0  0
  190.0070  173.1660  135.9030 C   0  0  0  0  0  1  0  0  0  0  0  0
  189.8600  174.0170  137.1510 C   0  0  0  0  0  2  0  0  0  0  0  0
  190.6790  177.8590  141.5860 C   0  0  0  0  0  2  0  0  0  0  0  0
  190.1790  176.6960  142.3900 C   0  0  0  0  0  0  0  0  0  0  0  0
  190.6880  175.5590  142.1840 O   0  0  0  0  0  0  0  0  0  0  0  0
  186.7890  177.1470  143.9920 C   0  0  0  0  0  3  0  0  0  0  0  0
  189.1420  176.8930  143.4360 C   0  0  0  0  0  0  0  0  0  0  0  0
  187.7940  176.9260  143.0520 C   0  0  0  0  0  3  0  0  0  0  0  0
  187.1070  177.3490  145.3430 C   0  0  0  0  0  0  0  0  0  0  0  0
  188.4540  177.3320  145.7360 C   0  0  0  0  0  0  0  0  0  0  0  0
  190.7960  177.0900  145.2150 O   0  0  0  0  0  1  0  0  0  0  0  0
  188.8750  177.6110  147.4200 Cl  0  0  0  0  0  0  0  0  0  0  0  0
  189.4700  177.1030  144.7930 C   0  0  0  0  0  0  0  0  0  0  0  0
  186.1160  177.5820  146.3140 O   0  0  0  0  0  0  0  0  0  0  0  0
  185.3170  178.7290  146.4290 C   0  0  0  0  0  0  0  0  0  0  0  0
  184.1350  178.8780  145.5370 C   0  0  0  0  0  1  0  0  0  0  0  0
  185.5780  179.6430  147.2580 O   0  0  0  0  0  0  0  0  0  0  0  0
  1 32  1  0  0  0  0
  2  1  2  0  0  0  0
  3  2  1  0  0  0  0
  4  7  2  0  0  0  0
  5  9  1  0  0  0  0
  5  6  1  0  0  0  0
  6 21  1  1  0  0  0
  6  3  1  0  0  0  0
  7  1  1  0  0  0  0
  8  3  2  0  0  0  0
  8  4  1  0  0  0  0
  9  8  1  0  0  0  0
 10 13  1  1  0  0  0
 10 12  1  0  0  0  0
 11 14  1  0  0  0  0
 12 17  1  6  0  0  0
 14 12  1  0  0  0  0
 15 11  2  0  0  0  0
 15  9  1  0  0  0  0
 16 10  1  0  0  0  0
 16 11  1  0  0  0  0
 17 19  1  0  0  0  0
 18 17  1  0  0  0  0
 20 22  2  0  0  0  0
 21 31  1  0  0  0  0
 22 21  1  0  0  0  0
 23 22  1  6  0  0  0
 24 25  1  0  0  0  0
 24 23  1  0  0  0  0
 25 23  1  0  0  0  0
 25 26  1  0  0  0  0
 27 26  1  0  0  0  0
 27 29  1  0  0  0  0
 29 28  1  0  0  0  0
 30 31  1  0  0  0  0
 32 33  1  0  0  0  0
 33 36  1  0  0  0  0
 34 33  2  0  0  0  0
 35 38  1  0  0  0  0
 36 42  2  0  0  0  0
 37 36  1  0  0  0  0
 37 35  2  0  0  0  0
 38 39  2  0  0  0  0
 38 43  1  0  0  0  0
 39 41  1  0  0  0  0
 42 40  1  0  0  0  0
 42 39  1  0  0  0  0
 43 44  1  0  0  0  0
 44 46  2  0  0  0  0
 45 44  1  0  0  0  0
M  END
>  <MODEL>
3

>  <REMARK>
 VINA RESULT:      -7.6      2.554      8.065
  Name = 
  13 active torsions:
  status: ('A' for Active; 'I' for Inactive)
    1  A    between atoms: C_1  and  C_3
    2  A    between atoms: C_1  and  C_45
    3  A    between atoms: C_4  and  O_38
    4  A    between atoms: C_6  and  C_15
    5  A    between atoms: C_6  and  C_18
    6  A    between atoms: C_8  and  C_45
    7  A    between atoms: C_10  and  O_38
    8  A    between atoms: C_15  and  N_33
    9  A    between atoms: C_16  and  C_31
   10  A    between atoms: C_22  and  C_42
   11  A    between atoms: N_27  and  C_30
   12  A    between atoms: N_27  and  C_44
   13  A    between atoms: C_41  and  N_46
                            x       y       z     vdW  Elec       q    Type
                         _______ _______ _______ _____ _____    ______ ____

>  <TORSDO>
F 13

$$$$
=
 OpenBabel10222417173D

 46 50  0  0  1  0  0  0  0  0999 V2000
  186.2640  177.9120  142.8940 C   0  0  0  0  0  0  0  0  0  0  0  0
  187.4280  177.2320  143.2890 C   0  0  0  0  0  3  0  0  0  0  0  0
  188.5160  177.2450  142.4220 C   0  0  0  0  0  0  0  0  0  0  0  0
  187.3300  178.5530  140.8310 N   0  0  0  0  0  0  0  0  0  0  0  0
  190.5990  176.9870  141.2760 C   0  0  0  0  0  2  0  0  0  0  0  0
  189.8450  176.5860  142.5710 C   0  0  1  0  0  3  0  0  0  0  0  0
  186.2360  178.5750  141.6510 C   0  0  0  0  0  3  0  0  0  0  0  0
  188.4470  177.8870  141.2240 C   0  0  0  0  0  0  0  0  0  0  0  0
  189.6550  177.7950  140.4970 N   0  0  0  0  0  0  0  0  0  0  0  0
  188.5820  177.3850  135.8280 C   0  0  2  0  0  3  0  0  0  0  0  0
  189.2450  177.7030  138.0820 C   0  0  0  0  0  0  0  0  0  0  0  0
  188.1870  176.1400  136.6280 C   0  0  1  0  0  3  0  0  0  0  0  0
  189.3740  176.9890  134.5940 C   0  0  0  0  0  1  0  0  0  0  0  0
  188.4180  176.4770  138.0960 C   0  0  0  0  0  2  0  0  0  0  0  0
  189.8160  178.2620  139.1510 C   0  0  0  0  0  3  0  0  0  0  0  0
  189.4380  178.2580  136.7260 C   0  0  0  0  0  2  0  0  0  0  0  0
  186.7240  175.7470  136.3870 C   0  0  0  0  0  3  0  0  0  0  0  0
  185.8000  176.6770  137.1570 C   0  0  0  0  0  1  0  0  0  0  0  0
  186.4510  174.3280  136.8540 C   0  0  0  0  0  1  0  0  0  0  0  0
  191.8150  175.0830  144.0450 O   0  0  0  0  0  0  0  0  0  0  0  0
  190.5500  177.0370  143.7750 N   0  0  0  0  0  0  0  0  0  0  0  0
  191.4430  176.1890  144.5250 C   0  0  0  0  0  0  0  0  0  0  0  0
  191.9060  176.6070  145.8970 C   0  0  2  0  0  3  0  0  0  0  0  0
  192.0700  175.4360  146.7560 C   0  0  0  0  0  2  0  0  0  0  0  0
  190.8850  176.2950  146.9170 N   0  0  0  0  0  0  0  0  0  0  0  0
  191.1550  177.1760  148.0380 C   0  0  0  0  0  2  0  0  0  0  0  0
  189.9900  178.1310  148.2440 C   0  0  0  0  0  2  0  0  0  0  0  0
  187.8520  177.1450  148.6570 O   0  0  0  0  0  1  0  0  0  0  0  0
  188.7140  177.5710  147.6430 C   0  0  0  0  0  2  0  0  0  0  0  0
  191.2780  179.3670  143.8510 C   0  0  0  0  0  1  0  0  0  0  0  0
  190.2100  178.3680  144.2580 C   0  0  0  0  0  2  0  0  0  0  0  0
  185.0660  177.9500  143.7850 C   0  0  0  0  0  2  0  0  0  0  0  0
  184.2010  179.1320  143.4660 C   0  0  0  0  0  0  0  0  0  0  0  0
  184.5120  180.2540  143.9500 O   0  0  0  0  0  0  0  0  0  0  0  0
  182.1820  178.8460  140.2880 C   0  0  0  0  0  3  0  0  0  0  0  0
  183.0310  178.9850  142.5610 C   0  0  0  0  0  0  0  0  0  0  0  0
  183.2500  178.9430  141.1760 C   0  0  0  0  0  3  0  0  0  0  0  0
  180.8610  178.7950  140.7590 C   0  0  0  0  0  0  0  0  0  0  0  0
  180.6300  178.8500  142.1420 C   0  0  0  0  0  0  0  0  0  0  0  0
  181.4420  178.9930  144.4090 O   0  0  0  0  0  1  0  0  0  0  0  0
  178.9820  178.8170  142.7530 Cl  0  0  0  0  0  0  0  0  0  0  0  0
  181.7040  178.9420  143.0430 C   0  0  0  0  0  0  0  0  0  0  0  0
  179.7620  178.7040  139.8870 O   0  0  0  0  0  0  0  0  0  0  0  0
  179.3790  179.6550  138.9290 C   0  0  0  0  0  0  0  0  0  0  0  0
  179.3060  181.0880  139.3230 C   0  0  0  0  0  1  0  0  0  0  0  0
  179.0850  179.3280  137.7460 O   0  0  0  0  0  0  0  0  0  0  0  0
  1  2  1  0  0  0  0
  1 32  1  0  0  0  0
  3  6  1  0  0  0  0
  3  2  2  0  0  0  0
  4  8  2  0  0  0  0
  4  7  1  0  0  0  0
  5  6  1  0  0  0  0
  6 21  1  1  0  0  0
  7  1  2  0  0  0  0
  8  3  1  0  0  0  0
  9  8  1  0  0  0  0
  9  5  1  0  0  0  0
 10 13  1  6  0  0  0
 10 12  1  0  0  0  0
 10 16  1  0  0  0  0
 11 14  1  0  0  0  0
 11 15  2  0  0  0  0
 12 17  1  1  0  0  0
 12 14  1  0  0  0  0
 15  9  1  0  0  0  0
 16 11  1  0  0  0  0
 17 19  1  0  0  0  0
 17 18  1  0  0  0  0
 20 22  2  0  0  0  0
 21 31  1  0  0  0  0
 21 22  1  0  0  0  0
 23 22  1  6  0  0  0
 23 24  1  0  0  0  0
 23 25  1  0  0  0  0
 24 25  1  0  0  0  0
 25 26  1  0  0  0  0
 26 27  1  0  0  0  0
 29 27  1  0  0  0  0
 29 28  1  0  0  0  0
 30 31  1  0  0  0  0
 33 32  1  0  0  0  0
 33 34  2  0  0  0  0
 35 38  2  0  0  0  0
 35 37  1  0  0  0  0
 36 42  1  0  0  0  0
 36 33  1  0  0  0  0
 37 36  2  0  0  0  0
 38 39  1  0  0  0  0
 39 41  1  0  0  0  0
 39 42  2  0  0  0  0
 42 40  1  0  0  0  0
 43 38  1  0  0  0  0
 44 45  1  0  0  0  0
 44 43  1  0  0  0  0
 46 44  2  0  0  0  0
M  END
>  <MODEL>
4

>  <REMARK>
 VINA RESULT:      -7.6      3.702      8.326
  Name = 
  13 active torsions:
  status: ('A' for Active; 'I' for Inactive)
    1  A    between atoms: C_1  and  C_3
    2  A    between atoms: C_1  and  C_45
    3  A    between atoms: C_4  and  O_38
    4  A    between atoms: C_6  and  C_15
    5  A    between atoms: C_6  and  C_18
    6  A    between atoms: C_8  and  C_45
    7  A    between atoms: C_10  and  O_38
    8  A    between atoms: C_15  and  N_33
    9  A    between atoms: C_16  and  C_31
   10  A    between atoms: C_22  and  C_42
   11  A    between atoms: N_27  and  C_30
   12  A    between atoms: N_27  and  C_44
   13  A    between atoms: C_41  and  N_46
                            x       y       z     vdW  Elec       q    Type
                         _______ _______ _______ _____ _____    ______ ____

>  <TORSDO>
F 13

$$$$
=
 OpenBabel10222417173D

 46 50  0  0  1  0  0  0  0  0999 V2000
  186.3300  178.2750  142.1570 C   0  0  0  0  0  0  0  0  0  0  0  0
  187.1910  178.5330  141.0770 C   0  0  0  0  0  3  0  0  0  0  0  0
  188.4800  178.0120  141.1310 C   0  0  0  0  0  0  0  0  0  0  0  0
  188.0720  177.0230  143.2540 N   0  0  0  0  0  0  0  0  0  0  0  0
  190.7500  177.3430  140.7910 C   0  0  0  0  0  2  0  0  0  0  0  0
  189.5960  178.1580  140.1540 C   0  0  1  0  0  3  0  0  0  0  0  0
  186.7940  177.5070  143.2440 C   0  0  0  0  0  3  0  0  0  0  0  0
  188.8940  177.2850  142.2050 C   0  0  0  0  0  0  0  0  0  0  0  0
  190.2260  176.8350  142.0640 N   0  0  0  0  0  0  0  0  0  0  0  0
  191.0140  176.1030  146.7510 C   0  0  2  0  0  3  0  0  0  0  0  0
  190.7820  176.3730  144.4070 C   0  0  0  0  0  0  0  0  0  0  0  0
  190.1810  177.3610  146.4900 C   0  0  1  0  0  3  0  0  0  0  0  0
  192.1660  176.4190  147.6890 C   0  0  0  0  0  1  0  0  0  0  0  0
  189.8630  177.3690  144.9990 C   0  0  0  0  0  2  0  0  0  0  0  0
  190.9580  176.1660  143.1000 C   0  0  0  0  0  3  0  0  0  0  0  0
  191.5580  175.6250  145.4170 C   0  0  0  0  0  2  0  0  0  0  0  0
  188.8900  177.3740  147.3180 C   0  0  0  0  0  3  0  0  0  0  0  0
  187.7420  177.9190  146.4850 C   0  0  0  0  0  1  0  0  0  0  0  0
  189.0330  178.2540  148.5470 C   0  0  0  0  0  1  0  0  0  0  0  0
  188.9950  179.7540  137.8290 O   0  0  0  0  0  0  0  0  0  0  0  0
  189.2340  177.6470  138.8280 N   0  0  0  0  0  0  0  0  0  0  0  0
  188.8390  178.5050  137.7370 C   0  0  0  0  0  0  0  0  0  0  0  0
  188.2070  177.9150  136.5040 C   0  0  2  0  0  3  0  0  0  0  0  0
  187.1970  178.8240  135.9660 C   0  0  0  0  0  2  0  0  0  0  0  0
  186.7740  177.6360  136.7260 N   0  0  0  0  0  0  0  0  0  0  0  0
  186.4060  176.6250  135.7510 C   0  0  0  0  0  2  0  0  0  0  0  0
  185.0220  176.0800  136.0620 C   0  0  0  0  0  2  0  0  0  0  0  0
  186.4460  174.4400  137.0630 O   0  0  0  0  0  1  0  0  0  0  0  0
  185.1100  174.7560  136.8010 C   0  0  0  0  0  2  0  0  0  0  0  0
  190.3820  175.6910  137.9240 C   0  0  0  0  0  1  0  0  0  0  0  0
  189.1740  176.1990  138.6910 C   0  0  0  0  0  2  0  0  0  0  0  0
  184.9300  178.7930  142.1540 C   0  0  0  0  0  2  0  0  0  0  0  0
  184.3760  178.8270  140.7610 C   0  0  0  0  0  0  0  0  0  0  0  0
  184.9390  179.5650  139.9070 O   0  0  0  0  0  0  0  0  0  0  0  0
  182.3640  176.1030  139.0910 C   0  0  0  0  0  3  0  0  0  0  0  0
  183.2200  177.9700  140.3910 C   0  0  0  0  0  0  0  0  0  0  0  0
  183.4250  176.9080  139.4970 C   0  0  0  0  0  3  0  0  0  0  0  0
  181.0640  176.3400  139.5620 C   0  0  0  0  0  0  0  0  0  0  0  0
  180.8450  177.4080  140.4460 C   0  0  0  0  0  0  0  0  0  0  0  0
  181.6630  179.2700  141.7420 O   0  0  0  0  0  1  0  0  0  0  0  0
  179.2190  177.7420  141.0260 Cl  0  0  0  0  0  0  0  0  0  0  0  0
  181.9130  178.2200  140.8630 C   0  0  0  0  0  0  0  0  0  0  0  0
  179.9710  175.5490  139.1650 O   0  0  0  0  0  0  0  0  0  0  0  0
  179.7110  174.2300  139.5630 C   0  0  0  0  0  0  0  0  0  0  0  0
  179.4820  173.9430  141.0050 C   0  0  0  0  0  1  0  0  0  0  0  0
  179.6760  173.2780  138.7360 O   0  0  0  0  0  0  0  0  0  0  0  0
  1  7  1  0  0  0  0
  2  3  1  0  0  0  0
  2  1  2  0  0  0  0
  3  8  2  0  0  0  0
  5  9  1  0  0  0  0
  6 21  1  6  0  0  0
  6  5  1  0  0  0  0
  6  3  1  0  0  0  0
  7  4  2  0  0  0  0
  8  4  1  0  0  0  0
  9  8  1  0  0  0  0
  9 15  1  0  0  0  0
 10 13  1  1  0  0  0
 11 14  1  0  0  0  0
 11 16  1  0  0  0  0
 12 10  1  0  0  0  0
 12 17  1  1  0  0  0
 14 12  1  0  0  0  0
 15 11  2  0  0  0  0
 16 10  1  0  0  0  0
 17 19  1  0  0  0  0
 18 17  1  0  0  0  0
 22 20  2  0  0  0  0
 22 21  1  0  0  0  0
 23 25  1  0  0  0  0
 23 22  1  1  0  0  0
 24 23  1  0  0  0  0
 24 25  1  0  0  0  0
 26 27  1  0  0  0  0
 26 25  1  0  0  0  0
 27 29  1  0  0  0  0
 29 28  1  0  0  0  0
 30 31  1  0  0  0  0
 31 21  1  0  0  0  0
 32  1  1  0  0  0  0
 33 32  1  0  0  0  0
 34 33  2  0  0  0  0
 35 37  2  0  0  0  0
 35 38  1  0  0  0  0
 36 33  1  0  0  0  0
 36 42  2  0  0  0  0
 37 36  1  0  0  0  0
 38 39  2  0  0  0  0
 39 42  1  0  0  0  0
 39 41  1  0  0  0  0
 42 40  1  0  0  0  0
 43 38  1  0  0  0  0
 43 44  1  0  0  0  0
 44 45  1  0  0  0  0
 46 44  2  0  0  0  0
M  END
>  <MODEL>
5

>  <REMARK>
 VINA RESULT:      -7.4      3.863      7.917
  Name = 
  13 active torsions:
  status: ('A' for Active; 'I' for Inactive)
    1  A    between atoms: C_1  and  C_3
    2  A    between atoms: C_1  and  C_45
    3  A    between atoms: C_4  and  O_38
    4  A    between atoms: C_6  and  C_15
    5  A    between atoms: C_6  and  C_18
    6  A    between atoms: C_8  and  C_45
    7  A    between atoms: C_10  and  O_38
    8  A    between atoms: C_15  and  N_33
    9  A    between atoms: C_16  and  C_31
   10  A    between atoms: C_22  and  C_42
   11  A    between atoms: N_27  and  C_30
   12  A    between atoms: N_27  and  C_44
   13  A    between atoms: C_41  and  N_46
                            x       y       z     vdW  Elec       q    Type
                         _______ _______ _______ _____ _____    ______ ____

>  <TORSDO>
F 13

$$$$
=
 OpenBabel10222417173D

 46 50  0  0  1  0  0  0  0  0999 V2000
  185.1150  178.0940  138.6050 C   0  0  0  0  0  0  0  0  0  0  0  0
  183.7520  177.8610  138.8500 C   0  0  0  0  0  3  0  0  0  0  0  0
  183.2520  178.1760  140.1100 C   0  0  0  0  0  0  0  0  0  0  0  0
  185.3850  178.9190  140.8520 N   0  0  0  0  0  0  0  0  0  0  0  0
  181.9720  178.5460  142.0950 C   0  0  0  0  0  2  0  0  0  0  0  0
  181.8730  178.0020  140.6470 C   0  0  1  0  0  3  0  0  0  0  0  0
  185.9210  178.6320  139.6280 C   0  0  0  0  0  3  0  0  0  0  0  0
  184.0660  178.6830  141.0770 C   0  0  0  0  0  0  0  0  0  0  0  0
  183.3700  178.9490  142.2770 N   0  0  0  0  0  0  0  0  0  0  0  0
  186.8700  178.3350  145.5180 C   0  0  2  0  0  3  0  0  0  0  0  0
  185.0630  178.7520  144.0390 C   0  0  0  0  0  0  0  0  0  0  0  0
  186.7150  177.1250  144.5910 C   0  0  1  0  0  3  0  0  0  0  0  0
  186.8980  177.8870  146.9690 C   0  0  0  0  0  1  0  0  0  0  0  0
  185.7080  177.5260  143.5200 C   0  0  0  0  0  2  0  0  0  0  0  0
  184.0050  179.3570  143.4960 C   0  0  0  0  0  3  0  0  0  0  0  0
  185.6800  179.2470  145.2870 C   0  0  0  0  0  2  0  0  0  0  0  0
  188.0500  176.7190  143.9540 C   0  0  0  0  0  3  0  0  0  0  0  0
  189.2020  177.3790  144.6940 C   0  0  0  0  0  1  0  0  0  0  0  0
  188.1210  177.1530  142.5010 C   0  0  0  0  0  1  0  0  0  0  0  0
  179.9830  176.8410  138.8040 O   0  0  0  0  0  0  0  0  0  0  0  0
  180.8800  178.7340  139.8550 N   0  0  0  0  0  0  0  0  0  0  0  0
  180.0390  178.1000  138.8700 C   0  0  0  0  0  0  0  0  0  0  0  0
  179.2540  178.9380  137.8950 C   0  0  2  0  0  3  0  0  0  0  0  0
  178.9560  178.1690  136.6880 C   0  0  0  0  0  2  0  0  0  0  0  0
  180.0270  179.1780  136.6610 N   0  0  0  0  0  0  0  0  0  0  0  0
  179.4630  180.3730  136.0590 C   0  0  0  0  0  2  0  0  0  0  0  0
  180.5390  181.4350  135.8990 C   0  0  0  0  0  2  0  0  0  0  0  0
  181.1920  182.9670  137.6140 O   0  0  0  0  0  1  0  0  0  0  0  0
  180.1900  182.6880  136.6810 C   0  0  0  0  0  2  0  0  0  0  0  0
  179.6510  180.6010  140.8380 C   0  0  0  0  0  1  0  0  0  0  0  0
  180.8610  180.1800  140.0250 C   0  0  0  0  0  2  0  0  0  0  0  0
  185.7090  177.7920  137.2690 C   0  0  0  0  0  2  0  0  0  0  0  0
  187.0950  178.3550  137.1620 C   0  0  0  0  0  0  0  0  0  0  0  0
  187.2290  179.5690  136.8480 O   0  0  0  0  0  0  0  0  0  0  0  0
  189.5260  175.4680  137.0290 C   0  0  0  0  0  3  0  0  0  0  0  0
  188.2770  177.5070  137.4660 C   0  0  0  0  0  0  0  0  0  0  0  0
  188.4540  176.3140  136.7510 C   0  0  0  0  0  3  0  0  0  0  0  0
  190.4490  175.7900  138.0360 C   0  0  0  0  0  0  0  0  0  0  0  0
  190.2730  176.9750  138.7660 C   0  0  0  0  0  0  0  0  0  0  0  0
  189.0520  179.0030  139.2280 O   0  0  0  0  0  1  0  0  0  0  0  0
  191.4010  177.3830  140.0520 Cl  0  0  0  0  0  0  0  0  0  0  0  0
  189.1970  177.8340  138.4860 C   0  0  0  0  0  0  0  0  0  0  0  0
  191.5360  174.9530  138.3440 O   0  0  0  0  0  0  0  0  0  0  0  0
  192.7080  174.8000  137.5890 C   0  0  0  0  0  0  0  0  0  0  0  0
  193.4440  176.0130  137.1430 C   0  0  0  0  0  1  0  0  0  0  0  0
  193.1490  173.6620  137.2680 O   0  0  0  0  0  0  0  0  0  0  0  0
  1  2  2  0  0  0  0
  1  7  1  0  0  0  0
  2  3  1  0  0  0  0
  3  6  1  0  0  0  0
  3  8  2  0  0  0  0
  4  8  1  0  0  0  0
  5  9  1  0  0  0  0
  6 21  1  6  0  0  0
  6  5  1  0  0  0  0
  7  4  2  0  0  0  0
  8  9  1  0  0  0  0
  9 15  1  0  0  0  0
 10 13  1  1  0  0  0
 11 16  1  0  0  0  0
 12 17  1  6  0  0  0
 12 10  1  0  0  0  0
 14 11  1  0  0  0  0
 14 12  1  0  0  0  0
 15 11  2  0  0  0  0
 16 10  1  0  0  0  0
 17 18  1  0  0  0  0
 19 17  1  0  0  0  0
 20 22  2  0  0  0  0
 21 31  1  0  0  0  0
 22 21  1  0  0  0  0
 23 22  1  1  0  0  0
 24 23  1  0  0  0  0
 25 24  1  0  0  0  0
 25 23  1  0  0  0  0
 26 25  1  0  0  0  0
 27 26  1  0  0  0  0
 27 29  1  0  0  0  0
 29 28  1  0  0  0  0
 31 30  1  0  0  0  0
 32  1  1  0  0  0  0
 33 32  1  0  0  0  0
 33 36  1  0  0  0  0
 34 33  2  0  0  0  0
 35 38  1  0  0  0  0
 36 42  2  0  0  0  0
 37 35  2  0  0  0  0
 37 36  1  0  0  0  0
 38 43  1  0  0  0  0
 38 39  2  0  0  0  0
 39 41  1  0  0  0  0
 42 39  1  0  0  0  0
 42 40  1  0  0  0  0
 44 43  1  0  0  0  0
 45 44  1  0  0  0  0
 46 44  2  0  0  0  0
M  END
>  <MODEL>
6

>  <REMARK>
 VINA RESULT:      -7.4      3.575      9.121
  Name = 
  13 active torsions:
  status: ('A' for Active; 'I' for Inactive)
    1  A    between atoms: C_1  and  C_3
    2  A    between atoms: C_1  and  C_45
    3  A    between atoms: C_4  and  O_38
    4  A    between atoms: C_6  and  C_15
    5  A    between atoms: C_6  and  C_18
    6  A    between atoms: C_8  and  C_45
    7  A    between atoms: C_10  and  O_38
    8  A    between atoms: C_15  and  N_33
    9  A    between atoms: C_16  and  C_31
   10  A    between atoms: C_22  and  C_42
   11  A    between atoms: N_27  and  C_30
   12  A    between atoms: N_27  and  C_44
   13  A    between atoms: C_41  and  N_46
                            x       y       z     vdW  Elec       q    Type
                         _______ _______ _______ _____ _____    ______ ____

>  <TORSDO>
F 13

$$$$
=
 OpenBabel10222417173D

 46 50  0  0  1  0  0  0  0  0999 V2000
  188.7890  176.1840  136.8150 C   0  0  0  0  0  0  0  0  0  0  0  0
  189.2250  176.7690  138.0160 C   0  0  0  0  0  3  0  0  0  0  0  0
  188.2920  177.4630  138.7790 C   0  0  0  0  0  0  0  0  0  0  0  0
  186.5630  177.0180  137.2100 N   0  0  0  0  0  0  0  0  0  0  0  0
  187.0710  178.7420  140.3890 C   0  0  0  0  0  2  0  0  0  0  0  0
  188.4860  178.2010  140.0610 C   0  0  1  0  0  3  0  0  0  0  0  0
  187.4400  176.3190  136.4290 C   0  0  0  0  0  3  0  0  0  0  0  0
  187.0000  177.5820  138.3660 C   0  0  0  0  0  0  0  0  0  0  0  0
  186.2100  178.3100  139.2830 N   0  0  0  0  0  0  0  0  0  0  0  0
  181.7890  179.1730  140.9680 C   0  0  2  0  0  3  0  0  0  0  0  0
  183.8980  178.7540  139.9670 C   0  0  0  0  0  0  0  0  0  0  0  0
  182.6540  178.4020  141.9690 C   0  0  1  0  0  3  0  0  0  0  0  0
  180.4430  178.4910  140.7970 C   0  0  0  0  0  1  0  0  0  0  0  0
  184.0600  178.3570  141.3830 C   0  0  0  0  0  2  0  0  0  0  0  0
  184.8520  178.6990  139.0350 C   0  0  0  0  0  3  0  0  0  0  0  0
  182.5250  179.1910  139.6410 C   0  0  0  0  0  2  0  0  0  0  0  0
  182.6640  179.0710  143.3490 C   0  0  0  0  0  3  0  0  0  0  0  0
  183.9140  178.6670  144.1150 C   0  0  0  0  0  1  0  0  0  0  0  0
  181.4590  178.6540  144.1730 C   0  0  0  0  0  1  0  0  0  0  0  0
  187.3130  177.8430  142.6700 O   0  0  0  0  0  0  0  0  0  0  0  0
  188.9970  177.3290  141.1230 N   0  0  0  0  0  0  0  0  0  0  0  0
  188.4200  177.2810  142.4440 C   0  0  0  0  0  0  0  0  0  0  0  0
  189.1570  176.5940  143.5650 C   0  0  2  0  0  3  0  0  0  0  0  0
  188.7390  177.1360  144.8560 C   0  0  0  0  0  2  0  0  0  0  0  0
  190.0330  177.5410  144.2820 N   0  0  0  0  0  0  0  0  0  0  0  0
  191.0500  176.7340  144.9320 C   0  0  0  0  0  2  0  0  0  0  0  0
  190.9070  176.8310  146.4420 C   0  0  0  0  0  2  0  0  0  0  0  0
  192.4860  176.6010  148.2220 O   0  0  0  0  0  1  0  0  0  0  0  0
  191.9050  175.9280  147.1440 C   0  0  0  0  0  2  0  0  0  0  0  0
  191.4230  177.4950  140.8990 C   0  0  0  0  0  1  0  0  0  0  0  0
  190.2100  176.5850  140.8160 C   0  0  0  0  0  2  0  0  0  0  0  0
  189.7360  175.4130  135.9570 C   0  0  0  0  0  2  0  0  0  0  0  0
  190.5330  174.4450  136.7790 C   0  0  0  0  0  0  0  0  0  0  0  0
  189.9230  173.5140  137.3740 O   0  0  0  0  0  0  0  0  0  0  0  0
  193.9620  175.6240  137.8360 C   0  0  0  0  0  3  0  0  0  0  0  0
  192.0140  174.5570  136.8480 C   0  0  0  0  0  0  0  0  0  0  0  0
  192.5810  175.4570  137.7630 C   0  0  0  0  0  3  0  0  0  0  0  0
  194.8160  174.9000  136.9900 C   0  0  0  0  0  0  0  0  0  0  0  0
  194.2580  174.0070  136.0630 C   0  0  0  0  0  0  0  0  0  0  0  0
  192.3450  172.9350  135.0590 O   0  0  0  0  0  1  0  0  0  0  0  0
  195.3080  173.1110  134.9740 Cl  0  0  0  0  0  0  0  0  0  0  0  0
  192.8670  173.8300  135.9890 C   0  0  0  0  0  0  0  0  0  0  0  0
  196.2130  175.0520  137.0360 O   0  0  0  0  0  0  0  0  0  0  0  0
  197.0870  174.4500  137.9530 C   0  0  0  0  0  0  0  0  0  0  0  0
  197.9590  173.3350  137.4950 C   0  0  0  0  0  1  0  0  0  0  0  0
  197.1450  174.8200  139.1580 O   0  0  0  0  0  0  0  0  0  0  0  0
  1  2  1  0  0  0  0
  2  3  2  0  0  0  0
  3  6  1  0  0  0  0
  4  8  2  0  0  0  0
  6  5  1  0  0  0  0
  6 21  1  1  0  0  0
  7  1  2  0  0  0  0
  7  4  1  0  0  0  0
  8  3  1  0  0  0  0
  8  9  1  0  0  0  0
  9  5  1  0  0  0  0
 10 13  1  6  0  0  0
 10 12  1  0  0  0  0
 11 14  1  0  0  0  0
 12 17  1  1  0  0  0
 14 12  1  0  0  0  0
 15  9  1  0  0  0  0
 15 11  2  0  0  0  0
 16 11  1  0  0  0  0
 16 10  1  0  0  0  0
 17 18  1  0  0  0  0
 17 19  1  0  0  0  0
 21 22  1  0  0  0  0
 22 20  2  0  0  0  0
 23 22  1  6  0  0  0
 23 25  1  0  0  0  0
 23 24  1  0  0  0  0
 25 24  1  0  0  0  0
 25 26  1  0  0  0  0
 26 27  1  0  0  0  0
 27 29  1  0  0  0  0
 29 28  1  0  0  0  0
 31 30  1  0  0  0  0
 31 21  1  0  0  0  0
 32 33  1  0  0  0  0
 32  1  1  0  0  0  0
 33 36  1  0  0  0  0
 33 34  2  0  0  0  0
 36 37  2  0  0  0  0
 37 35  1  0  0  0  0
 38 43  1  0  0  0  0
 38 35  2  0  0  0  0
 39 38  1  0  0  0  0
 40 42  1  0  0  0  0
 41 39  1  0  0  0  0
 42 39  2  0  0  0  0
 42 36  1  0  0  0  0
 43 44  1  0  0  0  0
 44 46  2  0  0  0  0
 45 44  1  0  0  0  0
M  END
>  <MODEL>
7

>  <REMARK>
 VINA RESULT:      -7.2      3.143      8.148
  Name = 
  13 active torsions:
  status: ('A' for Active; 'I' for Inactive)
    1  A    between atoms: C_1  and  C_3
    2  A    between atoms: C_1  and  C_45
    3  A    between atoms: C_4  and  O_38
    4  A    between atoms: C_6  and  C_15
    5  A    between atoms: C_6  and  C_18
    6  A    between atoms: C_8  and  C_45
    7  A    between atoms: C_10  and  O_38
    8  A    between atoms: C_15  and  N_33
    9  A    between atoms: C_16  and  C_31
   10  A    between atoms: C_22  and  C_42
   11  A    between atoms: N_27  and  C_30
   12  A    between atoms: N_27  and  C_44
   13  A    between atoms: C_41  and  N_46
                            x       y       z     vdW  Elec       q    Type
                         _______ _______ _______ _____ _____    ______ ____

>  <TORSDO>
F 13

$$$$
=
 OpenBabel10222417173D

 46 50  0  0  1  0  0  0  0  0999 V2000
  186.8100  178.4770  140.8290 C   0  0  0  0  0  0  0  0  0  0  0  0
  187.3710  177.6930  141.8500 C   0  0  0  0  0  3  0  0  0  0  0  0
  188.6930  177.2840  141.7070 C   0  0  0  0  0  0  0  0  0  0  0  0
  188.8850  178.3860  139.6090 N   0  0  0  0  0  0  0  0  0  0  0  0
  190.8890  176.3550  141.8890 C   0  0  0  0  0  2  0  0  0  0  0  0
  189.5170  176.4290  142.6080 C   0  0  1  0  0  3  0  0  0  0  0  0
  187.5920  178.8190  139.7080 C   0  0  0  0  0  3  0  0  0  0  0  0
  189.4130  177.6250  140.6030 C   0  0  0  0  0  0  0  0  0  0  0  0
  190.7340  177.1260  140.6510 N   0  0  0  0  0  0  0  0  0  0  0  0
  192.2500  175.5560  136.3660 C   0  0  2  0  0  3  0  0  0  0  0  0
  191.6600  176.4240  138.4920 C   0  0  0  0  0  0  0  0  0  0  0  0
  191.2770  174.5790  137.0340 C   0  0  1  0  0  3  0  0  0  0  0  0
  193.4910  174.8220  135.8900 C   0  0  0  0  0  1  0  0  0  0  0  0
  190.7500  175.2780  138.2810 C   0  0  0  0  0  2  0  0  0  0  0  0
  191.6650  177.2200  139.5640 C   0  0  0  0  0  3  0  0  0  0  0  0
  192.6370  176.5990  137.3970 C   0  0  0  0  0  2  0  0  0  0  0  0
  190.1230  174.1940  136.1000 C   0  0  0  0  0  3  0  0  0  0  0  0
  189.4930  175.4440  135.5070 C   0  0  0  0  0  1  0  0  0  0  0  0
  189.0400  173.4370  136.8470 C   0  0  0  0  0  1  0  0  0  0  0  0
  187.5000  176.3550  144.6670 O   0  0  0  0  0  0  0  0  0  0  0  0
  189.6360  177.0040  143.9520 N   0  0  0  0  0  0  0  0  0  0  0  0
  188.5450  177.0260  144.8950 C   0  0  0  0  0  0  0  0  0  0  0  0
  188.6360  177.8770  146.1350 C   0  0  2  0  0  3  0  0  0  0  0  0
  188.9870  177.0550  147.2910 C   0  0  0  0  0  2  0  0  0  0  0  0
  187.5950  177.5010  147.1120 N   0  0  0  0  0  0  0  0  0  0  0  0
  187.4120  178.6590  147.9690 C   0  0  0  0  0  2  0  0  0  0  0  0
  186.0500  179.2850  147.7170 C   0  0  0  0  0  2  0  0  0  0  0  0
  184.2190  178.9640  146.2130 O   0  0  0  0  0  1  0  0  0  0  0  0
  185.6110  179.0740  146.2790 C   0  0  0  0  0  2  0  0  0  0  0  0
  190.8070  179.1460  143.9030 C   0  0  0  0  0  1  0  0  0  0  0  0
  190.8930  177.6720  144.2570 C   0  0  0  0  0  2  0  0  0  0  0  0
  185.4010  178.9610  140.9290 C   0  0  0  0  0  2  0  0  0  0  0  0
  184.7560  179.0110  139.5770 C   0  0  0  0  0  0  0  0  0  0  0  0
  184.5600  180.1380  139.0450 O   0  0  0  0  0  0  0  0  0  0  0  0
  183.0700  175.7240  138.7930 C   0  0  0  0  0  3  0  0  0  0  0  0
  184.4030  177.7560  138.8640 C   0  0  0  0  0  0  0  0  0  0  0  0
  183.4070  176.9300  139.4050 C   0  0  0  0  0  3  0  0  0  0  0  0
  183.7240  175.3080  137.6240 C   0  0  0  0  0  0  0  0  0  0  0  0
  184.7310  176.1200  137.0820 C   0  0  0  0  0  0  0  0  0  0  0  0
  186.0740  178.1240  137.1280 O   0  0  0  0  0  1  0  0  0  0  0  0
  185.5850  175.6040  135.6340 Cl  0  0  0  0  0  0  0  0  0  0  0  0
  185.0710  177.3390  137.6920 C   0  0  0  0  0  0  0  0  0  0  0  0
  183.4110  174.0930  136.9880 O   0  0  0  0  0  0  0  0  0  0  0  0
  184.1520  172.9040  137.0530 C   0  0  0  0  0  0  0  0  0  0  0  0
  183.9830  171.8880  135.9800 C   0  0  0  0  0  1  0  0  0  0  0  0
  184.9500  172.6680  138.0010 O   0  0  0  0  0  0  0  0  0  0  0  0
  1 32  1  0  0  0  0
  1  2  1  0  0  0  0
  3  2  2  0  0  0  0
  3  6  1  0  0  0  0
  4  7  1  0  0  0  0
  4  8  2  0  0  0  0
  5  6  1  0  0  0  0
  6 21  1  1  0  0  0
  7  1  2  0  0  0  0
  8  9  1  0  0  0  0
  8  3  1  0  0  0  0
  9  5  1  0  0  0  0
 10 13  1  1  0  0  0
 10 12  1  0  0  0  0
 10 16  1  0  0  0  0
 11 15  2  0  0  0  0
 12 17  1  6  0  0  0
 12 14  1  0  0  0  0
 14 11  1  0  0  0  0
 15  9  1  0  0  0  0
 16 11  1  0  0  0  0
 17 19  1  0  0  0  0
 18 17  1  0  0  0  0
 20 22  2  0  0  0  0
 21 31  1  0  0  0  0
 21 22  1  0  0  0  0
 23 22  1  6  0  0  0
 23 25  1  0  0  0  0
 23 24  1  0  0  0  0
 25 24  1  0  0  0  0
 25 26  1  0  0  0  0
 27 26  1  0  0  0  0
 28 29  1  0  0  0  0
 29 27  1  0  0  0  0
 30 31  1  0  0  0  0
 33 32  1  0  0  0  0
 34 33  2  0  0  0  0
 35 37  1  0  0  0  0
 36 37  2  0  0  0  0
 36 33  1  0  0  0  0
 38 35  2  0  0  0  0
 39 38  1  0  0  0  0
 39 42  2  0  0  0  0
 40 42  1  0  0  0  0
 41 39  1  0  0  0  0
 42 36  1  0  0  0  0
 43 44  1  0  0  0  0
 43 38  1  0  0  0  0
 44 46  2  0  0  0  0
 45 44  1  0  0  0  0
M  END
>  <MODEL>
8

>  <REMARK>
 VINA RESULT:      -7.2      3.517      9.409
  Name = 
  13 active torsions:
  status: ('A' for Active; 'I' for Inactive)
    1  A    between atoms: C_1  and  C_3
    2  A    between atoms: C_1  and  C_45
    3  A    between atoms: C_4  and  O_38
    4  A    between atoms: C_6  and  C_15
    5  A    between atoms: C_6  and  C_18
    6  A    between atoms: C_8  and  C_45
    7  A    between atoms: C_10  and  O_38
    8  A    between atoms: C_15  and  N_33
    9  A    between atoms: C_16  and  C_31
   10  A    between atoms: C_22  and  C_42
   11  A    between atoms: N_27  and  C_30
   12  A    between atoms: N_27  and  C_44
   13  A    between atoms: C_41  and  N_46
                            x       y       z     vdW  Elec       q    Type
                         _______ _______ _______ _____ _____    ______ ____

>  <TORSDO>
F 13

$$$$
=
 OpenBabel10222417173D

 46 50  0  0  1  0  0  0  0  0999 V2000
  185.8180  178.3700  138.4980 C   0  0  0  0  0  0  0  0  0  0  0  0
  184.5000  177.9110  138.3420 C   0  0  0  0  0  3  0  0  0  0  0  0
  183.6170  178.0910  139.4020 C   0  0  0  0  0  0  0  0  0  0  0  0
  185.2950  179.1390  140.7200 N   0  0  0  0  0  0  0  0  0  0  0  0
  181.7800  178.1710  140.9300 C   0  0  0  0  0  2  0  0  0  0  0  0
  182.1910  177.6750  139.5200 C   0  0  1  0  0  3  0  0  0  0  0  0
  186.1980  178.9910  139.7050 C   0  0  0  0  0  3  0  0  0  0  0  0
  184.0250  178.6840  140.5570 C   0  0  0  0  0  0  0  0  0  0  0  0
  182.9810  178.7860  141.5040 N   0  0  0  0  0  0  0  0  0  0  0  0
  185.5950  178.8000  145.5400 C   0  0  2  0  0  3  0  0  0  0  0  0
  184.1720  178.8750  143.6460 C   0  0  0  0  0  0  0  0  0  0  0  0
  185.9910  177.6640  144.5940 C   0  0  1  0  0  3  0  0  0  0  0  0
  185.3720  178.2650  146.9440 C   0  0  0  0  0  1  0  0  0  0  0  0
  185.2160  177.8870  143.3010 C   0  0  0  0  0  2  0  0  0  0  0  0
  183.1650  179.2440  142.8510 C   0  0  0  0  0  3  0  0  0  0  0  0
  184.3080  179.4100  145.0160 C   0  0  0  0  0  2  0  0  0  0  0  0
  187.5010  177.6450  144.3240 C   0  0  0  0  0  3  0  0  0  0  0  0
  187.8770  176.3900  143.5540 C   0  0  0  0  0  1  0  0  0  0  0  0
  188.2920  177.6490  145.6200 C   0  0  0  0  0  1  0  0  0  0  0  0
  182.1780  180.4480  138.7300 O   0  0  0  0  0  0  0  0  0  0  0  0
  181.3580  178.2680  138.4690 N   0  0  0  0  0  0  0  0  0  0  0  0
  181.3240  179.6850  138.2010 C   0  0  0  0  0  0  0  0  0  0  0  0
  180.2470  180.2610  137.3180 C   0  0  2  0  0  3  0  0  0  0  0  0
  180.6540  180.2020  135.9160 C   0  0  0  0  0  2  0  0  0  0  0  0
  180.7180  181.4830  136.6380 N   0  0  0  0  0  0  0  0  0  0  0  0
  179.5240  182.2280  136.2780 C   0  0  0  0  0  2  0  0  0  0  0  0
  179.6640  183.6790  136.7090 C   0  0  0  0  0  2  0  0  0  0  0  0
  181.8440  184.6410  136.9000 O   0  0  0  0  0  1  0  0  0  0  0  0
  180.8210  184.3510  135.9930 C   0  0  0  0  0  2  0  0  0  0  0  0
  180.6600  175.9380  138.2630 C   0  0  0  0  0  1  0  0  0  0  0  0
  180.4580  177.3600  137.7720 C   0  0  0  0  0  2  0  0  0  0  0  0
  186.8110  178.2210  137.3930 C   0  0  0  0  0  2  0  0  0  0  0  0
  187.6900  177.0280  137.6220 C   0  0  0  0  0  0  0  0  0  0  0  0
  187.5070  175.9990  136.9150 O   0  0  0  0  0  0  0  0  0  0  0  0
  189.4530  177.4900  140.9300 C   0  0  0  0  0  3  0  0  0  0  0  0
  188.7820  177.0800  138.6300 C   0  0  0  0  0  0  0  0  0  0  0  0
  188.4590  177.3910  139.9590 C   0  0  0  0  0  3  0  0  0  0  0  0
  190.8010  177.2870  140.5970 C   0  0  0  0  0  0  0  0  0  0  0  0
  191.1360  176.9880  139.2670 C   0  0  0  0  0  0  0  0  0  0  0  0
  190.5010  176.5830  136.9760 O   0  0  0  0  0  1  0  0  0  0  0  0
  192.8210  176.7580  138.8220 Cl  0  0  0  0  0  0  0  0  0  0  0  0
  190.1370  176.8820  138.2860 C   0  0  0  0  0  0  0  0  0  0  0  0
  191.8270  177.3860  141.5530 O   0  0  0  0  0  0  0  0  0  0  0  0
  191.6760  177.3250  142.9460 C   0  0  0  0  0  0  0  0  0  0  0  0
  191.5260  178.5920  143.7130 C   0  0  0  0  0  1  0  0  0  0  0  0
  191.6730  176.2280  143.5680 O   0  0  0  0  0  0  0  0  0  0  0  0
  1  7  1  0  0  0  0
  2  1  2  0  0  0  0
  2  3  1  0  0  0  0
  3  6  1  0  0  0  0
  3  8  2  0  0  0  0
  5  9  1  0  0  0  0
  6 21  1  6  0  0  0
  6  5  1  0  0  0  0
  7  4  2  0  0  0  0
  8  4  1  0  0  0  0
  8  9  1  0  0  0  0
  9 15  1  0  0  0  0
 10 13  1  1  0  0  0
 11 16  1  0  0  0  0
 12 17  1  6  0  0  0
 12 10  1  0  0  0  0
 14 11  1  0  0  0  0
 14 12  1  0  0  0  0
 15 11  2  0  0  0  0
 16 10  1  0  0  0  0
 17 19  1  0  0  0  0
 18 17  1  0  0  0  0
 22 21  1  0  0  0  0
 22 20  2  0  0  0  0
 23 22  1  1  0  0  0
 24 25  1  0  0  0  0
 24 23  1  0  0  0  0
 25 23  1  0  0  0  0
 26 25  1  0  0  0  0
 26 27  1  0  0  0  0
 29 27  1  0  0  0  0
 29 28  1  0  0  0  0
 31 30  1  0  0  0  0
 31 21  1  0  0  0  0
 32 33  1  0  0  0  0
 32  1  1  0  0  0  0
 33 36  1  0  0  0  0
 34 33  2  0  0  0  0
 36 37  1  0  0  0  0
 37 35  2  0  0  0  0
 38 35  1  0  0  0  0
 38 43  1  0  0  0  0
 39 38  2  0  0  0  0
 40 42  1  0  0  0  0
 41 39  1  0  0  0  0
 42 36  2  0  0  0  0
 42 39  1  0  0  0  0
 43 44  1  0  0  0  0
 44 46  2  0  0  0  0
 44 45  1  0  0  0  0
M  END
>  <MODEL>
9

>  <REMARK>
 VINA RESULT:      -7.0      3.648      8.294
  Name = 
  13 active torsions:
  status: ('A' for Active; 'I' for Inactive)
    1  A    between atoms: C_1  and  C_3
    2  A    between atoms: C_1  and  C_45
    3  A    between atoms: C_4  and  O_38
    4  A    between atoms: C_6  and  C_15
    5  A    between atoms: C_6  and  C_18
    6  A    between atoms: C_8  and  C_45
    7  A    between atoms: C_10  and  O_38
    8  A    between atoms: C_15  and  N_33
    9  A    between atoms: C_16  and  C_31
   10  A    between atoms: C_22  and  C_42
   11  A    between atoms: N_27  and  C_30
   12  A    between atoms: N_27  and  C_44
   13  A    between atoms: C_41  and  N_46
                            x       y       z     vdW  Elec       q    Type
                         _______ _______ _______ _____ _____    ______ ____

>  <TORSDO>
F 13

$$$$
