=
 OpenBabel10222418263D

 26 28  0  0  1  0  0  0  0  0999 V2000
  187.7160  178.2380  144.5010 C   0  0  2  0  0  3  0  0  0  0  0  0
  185.8020  179.4180  141.5100 C   0  0  0  0  0  2  0  0  0  0  0  0
  187.1720  177.5540  143.2200 C   0  0  2  0  0  0  0  0  0  0  0  0
  187.6250  176.1050  143.1270 C   0  0  0  0  0  1  0  0  0  0  0  0
  187.6980  178.3020  141.9760 C   0  0  0  0  0  2  0  0  0  0  0  0
  185.0660  178.9090  142.7590 C   0  0  2  0  0  3  0  0  0  0  0  0
  185.6340  177.5670  143.2300 C   0  0  0  0  0  2  0  0  0  0  0  0
  186.6940  178.4550  141.0020 O   0  0  0  0  0  0  0  0  0  0  0  0
  183.6460  178.7770  142.4710 N   0  0  0  0  0  2  0  0  0  0  0  0
  182.6340  179.0110  143.4570 C   0  0  0  0  0  0  0  0  0  0  0  0
  182.9520  179.3720  144.6220 O   0  0  0  0  0  0  0  0  0  0  0  0
  180.3650  178.2750  143.9720 C   0  0  0  0  0  2  0  0  0  0  0  0
  181.2170  178.8380  143.1270 C   0  0  0  0  0  3  0  0  0  0  0  0
  189.1670  177.9840  144.8130 C   0  0  0  0  0  0  0  0  0  0  0  0
  191.5280  178.2240  144.3060 C   0  0  0  0  0  3  0  0  0  0  0  0
  191.8510  177.4870  145.4490 C   0  0  0  0  0  3  0  0  0  0  0  0
  190.1910  178.4700  143.9860 C   0  0  0  0  0  3  0  0  0  0  0  0
  189.4950  177.2470  145.9560 C   0  0  0  0  0  3  0  0  0  0  0  0
  190.8340  176.9850  146.2720 C   0  0  0  0  0  0  0  0  0  0  0  0
  192.4100  176.6820  148.0240 O   0  0  0  0  0  0  0  0  0  0  0  0
  192.4280  175.4560  147.3390 C   0  0  0  0  0  2  0  0  0  0  0  0
  191.1760  176.2290  147.5170 C   0  0  2  0  0  3  0  0  0  0  0  0
  186.8300  178.1680  145.7190 C   0  0  0  0  0  0  0  0  0  0  0  0
  186.6920  176.8530  146.4090 C   0  0  0  0  0  1  0  0  0  0  0  0
  186.1690  179.2440  146.1510 C   0  0  0  0  0  3  0  0  0  0  0  0
  185.3180  179.1930  147.2930 N   0  0  0  0  0  1  0  0  0  0  0  0
  1 14  1  0  0  0  0
  1 23  1  1  0  0  0
  2  6  1  0  0  0  0
  3  4  1  6  0  0  0
  3  7  1  0  0  0  0
  3  1  1  0  0  0  0
  5  3  1  0  0  0  0
  6  9  1  6  0  0  0
  6  7  1  0  0  0  0
  8  2  1  0  0  0  0
  8  5  1  0  0  0  0
  9 10  1  0  0  0  0
 10 11  2  0  0  0  0
 13 10  1  0  0  0  0
 13 12  2  0  0  0  0
 14 18  1  0  0  0  0
 15 16  2  0  0  0  0
 16 19  1  0  0  0  0
 17 15  1  0  0  0  0
 17 14  2  0  0  0  0
 18 19  2  0  0  0  0
 21 22  1  0  0  0  0
 21 20  1  0  0  0  0
 22 19  1  6  0  0  0
 22 20  1  0  0  0  0
 23 25  2  0  0  0  0
 23 24  1  0  0  0  0
 25 26  1  0  0  0  0
M  END
>  <MODEL>
1

>  <REMARK>
 VINA RESULT:      -7.4      0.000      0.000
  Name = 
  6 active torsions:
  status: ('A' for Active; 'I' for Inactive)
    1  A    between atoms: C_4  and  C_25
    2  A    between atoms: C_5  and  C_25
    3  A    between atoms: C_6  and  C_25
    4  A    between atoms: N_10  and  C_12
    5  A    between atoms: C_15  and  C_18
    6  A    between atoms: C_22  and  C_24
                            x       y       z     vdW  Elec       q    Type
                         _______ _______ _______ _____ _____    ______ ____

>  <TORSDO>
F 6

$$$$
=
 OpenBabel10222418263D

 26 28  0  0  1  0  0  0  0  0999 V2000
  189.6570  176.9290  143.4370 C   0  0  2  0  0  3  0  0  0  0  0  0
  189.2500  177.4230  139.7500 C   0  0  0  0  0  2  0  0  0  0  0  0
  189.9620  178.0910  142.4560 C   0  0  2  0  0  0  0  0  0  0  0  0
  190.4240  179.3370  143.1960 C   0  0  0  0  0  1  0  0  0  0  0  0
  188.6820  178.4470  141.6700 C   0  0  0  0  0  2  0  0  0  0  0  0
  190.5490  176.8330  140.3210 C   0  0  2  0  0  3  0  0  0  0  0  0
  191.0800  177.6790  141.4830 C   0  0  0  0  0  2  0  0  0  0  0  0
  188.9590  178.6810  140.3110 O   0  0  0  0  0  0  0  0  0  0  0  0
  191.5510  176.7440  139.2710 N   0  0  0  0  0  2  0  0  0  0  0  0
  191.5550  175.6960  138.2950 C   0  0  0  0  0  0  0  0  0  0  0  0
  190.6540  174.8150  138.3040 O   0  0  0  0  0  0  0  0  0  0  0  0
  193.6110  174.7770  137.3540 C   0  0  0  0  0  2  0  0  0  0  0  0
  192.6020  175.6330  137.2720 C   0  0  0  0  0  3  0  0  0  0  0  0
  188.5170  177.1590  144.3920 C   0  0  0  0  0  0  0  0  0  0  0  0
  186.1690  177.5720  144.8450 C   0  0  0  0  0  3  0  0  0  0  0  0
  186.4320  177.5750  146.2180 C   0  0  0  0  0  3  0  0  0  0  0  0
  187.2070  177.3670  143.9340 C   0  0  0  0  0  3  0  0  0  0  0  0
  188.7760  177.1640  145.7670 C   0  0  0  0  0  3  0  0  0  0  0  0
  187.7390  177.3830  146.6840 C   0  0  0  0  0  0  0  0  0  0  0  0
  187.8100  178.6270  148.7070 O   0  0  0  0  0  0  0  0  0  0  0  0
  189.1460  178.2470  148.4980 C   0  0  0  0  0  2  0  0  0  0  0  0
  188.0190  177.3480  148.1530 C   0  0  2  0  0  3  0  0  0  0  0  0
  190.8520  176.2810  144.0900 C   0  0  0  0  0  0  0  0  0  0  0  0
  191.6360  177.0870  145.0710 C   0  0  0  0  0  1  0  0  0  0  0  0
  191.2120  175.0330  143.7820 C   0  0  0  0  0  3  0  0  0  0  0  0
  192.3460  174.4100  144.3810 N   0  0  0  0  0  1  0  0  0  0  0  0
  1 23  1  1  0  0  0
  1 14  1  0  0  0  0
  2  8  1  0  0  0  0
  2  6  1  0  0  0  0
  3  4  1  1  0  0  0
  3  1  1  0  0  0  0
  5  3  1  0  0  0  0
  6  9  1  6  0  0  0
  6  7  1  0  0  0  0
  7  3  1  0  0  0  0
  8  5  1  0  0  0  0
 10 11  2  0  0  0  0
 10  9  1  0  0  0  0
 13 12  2  0  0  0  0
 13 10  1  0  0  0  0
 14 18  1  0  0  0  0
 15 16  2  0  0  0  0
 16 19  1  0  0  0  0
 17 14  2  0  0  0  0
 17 15  1  0  0  0  0
 18 19  2  0  0  0  0
 21 20  1  0  0  0  0
 22 19  1  6  0  0  0
 22 21  1  0  0  0  0
 22 20  1  0  0  0  0
 23 24  1  0  0  0  0
 25 23  2  0  0  0  0
 25 26  1  0  0  0  0
M  END
>  <MODEL>
2

>  <REMARK>
 VINA RESULT:      -7.4      4.148      6.704
  Name = 
  6 active torsions:
  status: ('A' for Active; 'I' for Inactive)
    1  A    between atoms: C_4  and  C_25
    2  A    between atoms: C_5  and  C_25
    3  A    between atoms: C_6  and  C_25
    4  A    between atoms: N_10  and  C_12
    5  A    between atoms: C_15  and  C_18
    6  A    between atoms: C_22  and  C_24
                            x       y       z     vdW  Elec       q    Type
                         _______ _______ _______ _____ _____    ______ ____

>  <TORSDO>
F 6

$$$$
=
 OpenBabel10222418263D

 26 28  0  0  1  0  0  0  0  0999 V2000
  189.6550  177.0040  143.7430 C   0  0  2  0  0  3  0  0  0  0  0  0
  189.2360  177.4960  140.0570 C   0  0  0  0  0  2  0  0  0  0  0  0
  189.9590  178.1640  142.7610 C   0  0  2  0  0  0  0  0  0  0  0  0
  190.4280  179.4090  143.4980 C   0  0  0  0  0  1  0  0  0  0  0  0
  188.6770  178.5230  141.9780 C   0  0  0  0  0  2  0  0  0  0  0  0
  190.5350  176.9020  140.6240 C   0  0  2  0  0  3  0  0  0  0  0  0
  191.0730  177.7480  141.7840 C   0  0  0  0  0  2  0  0  0  0  0  0
  188.9500  178.7550  140.6180 O   0  0  0  0  0  0  0  0  0  0  0  0
  191.5330  176.8100  139.5700 N   0  0  0  0  0  2  0  0  0  0  0  0
  191.4330  175.8720  138.4930 C   0  0  0  0  0  0  0  0  0  0  0  0
  190.4400  175.1000  138.4120 O   0  0  0  0  0  0  0  0  0  0  0  0
  193.6390  175.1980  137.6960 C   0  0  0  0  0  2  0  0  0  0  0  0
  192.4780  175.7970  137.4690 C   0  0  0  0  0  3  0  0  0  0  0  0
  188.5780  177.2710  144.7600 C   0  0  0  0  0  0  0  0  0  0  0  0
  187.8280  177.5050  147.0560 C   0  0  0  0  0  3  0  0  0  0  0  0
  186.5340  177.7840  146.6080 C   0  0  0  0  0  3  0  0  0  0  0  0
  188.8470  177.2460  146.1370 C   0  0  0  0  0  3  0  0  0  0  0  0
  187.2810  177.5500  144.3160 C   0  0  0  0  0  3  0  0  0  0  0  0
  186.2530  177.7950  145.2350 C   0  0  0  0  0  0  0  0  0  0  0  0
  184.8890  178.2640  143.3470 O   0  0  0  0  0  0  0  0  0  0  0  0
  184.8600  179.4560  144.0880 C   0  0  0  0  0  2  0  0  0  0  0  0
  184.8780  178.1300  144.7500 C   0  0  2  0  0  3  0  0  0  0  0  0
  190.8530  176.2950  144.3250 C   0  0  0  0  0  0  0  0  0  0  0  0
  191.6280  176.9920  145.3920 C   0  0  0  0  0  1  0  0  0  0  0  0
  191.2220  175.0920  143.8810 C   0  0  0  0  0  3  0  0  0  0  0  0
  192.3580  174.4130  144.4100 N   0  0  0  0  0  1  0  0  0  0  0  0
  1 23  1  1  0  0  0
  1 14  1  0  0  0  0
  2  8  1  0  0  0  0
  2  6  1  0  0  0  0
  3  4  1  1  0  0  0
  3  1  1  0  0  0  0
  5  3  1  0  0  0  0
  6  9  1  6  0  0  0
  6  7  1  0  0  0  0
  7  3  1  0  0  0  0
  8  5  1  0  0  0  0
 10  9  1  0  0  0  0
 11 10  2  0  0  0  0
 13 12  2  0  0  0  0
 13 10  1  0  0  0  0
 14 17  1  0  0  0  0
 16 15  1  0  0  0  0
 17 15  2  0  0  0  0
 18 14  2  0  0  0  0
 18 19  1  0  0  0  0
 19 16  2  0  0  0  0
 20 21  1  0  0  0  0
 20 22  1  0  0  0  0
 21 22  1  0  0  0  0
 22 19  1  1  0  0  0
 23 24  1  0  0  0  0
 25 23  2  0  0  0  0
 25 26  1  0  0  0  0
M  END
>  <MODEL>
3

>  <REMARK>
 VINA RESULT:      -7.2      3.885      7.076
  Name = 
  6 active torsions:
  status: ('A' for Active; 'I' for Inactive)
    1  A    between atoms: C_4  and  C_25
    2  A    between atoms: C_5  and  C_25
    3  A    between atoms: C_6  and  C_25
    4  A    between atoms: N_10  and  C_12
    5  A    between atoms: C_15  and  C_18
    6  A    between atoms: C_22  and  C_24
                            x       y       z     vdW  Elec       q    Type
                         _______ _______ _______ _____ _____    ______ ____

>  <TORSDO>
F 6

$$$$
=
 OpenBabel10222418263D

 26 28  0  0  1  0  0  0  0  0999 V2000
  186.8780  178.2770  144.7830 C   0  0  2  0  0  3  0  0  0  0  0  0
  188.8680  178.7180  147.9210 C   0  0  0  0  0  2  0  0  0  0  0  0
  186.8020  177.6780  146.2120 C   0  0  2  0  0  0  0  0  0  0  0  0
  185.5690  176.8040  146.3830 C   0  0  0  0  0  1  0  0  0  0  0  0
  186.7270  178.8230  147.2440 C   0  0  0  0  0  2  0  0  0  0  0  0
  189.2550  177.6410  146.8950 C   0  0  2  0  0  3  0  0  0  0  0  0
  188.0390  176.8050  146.4830 C   0  0  0  0  0  2  0  0  0  0  0  0
  187.5410  178.5650  148.3620 O   0  0  0  0  0  0  0  0  0  0  0  0
  190.2870  176.7810  147.4520 N   0  0  0  0  0  2  0  0  0  0  0  0
  191.4970  176.4740  146.7500 C   0  0  0  0  0  0  0  0  0  0  0  0
  191.7180  176.9730  145.6150 O   0  0  0  0  0  0  0  0  0  0  0  0
  192.9780  175.7770  148.5610 C   0  0  0  0  0  2  0  0  0  0  0  0
  192.4950  175.5790  147.3420 C   0  0  0  0  0  3  0  0  0  0  0  0
  185.5580  178.5170  144.1020 C   0  0  0  0  0  0  0  0  0  0  0  0
  183.2390  179.2300  144.1430 C   0  0  0  0  0  3  0  0  0  0  0  0
  183.1260  178.9510  142.7780 C   0  0  0  0  0  3  0  0  0  0  0  0
  184.4490  179.0120  144.8040 C   0  0  0  0  0  3  0  0  0  0  0  0
  185.4410  178.2390  142.7350 C   0  0  0  0  0  3  0  0  0  0  0  0
  184.2240  178.4420  142.0710 C   0  0  0  0  0  0  0  0  0  0  0  0
  185.3210  178.5470  139.9670 O   0  0  0  0  0  0  0  0  0  0  0  0
  184.2430  179.4370  139.8300 C   0  0  0  0  0  2  0  0  0  0  0  0
  184.1190  178.1790  140.6030 C   0  0  2  0  0  3  0  0  0  0  0  0
  187.9140  177.6760  143.8670 C   0  0  0  0  0  0  0  0  0  0  0  0
  187.7470  176.2510  143.4580 C   0  0  0  0  0  1  0  0  0  0  0  0
  188.9630  178.3910  143.4530 C   0  0  0  0  0  3  0  0  0  0  0  0
  189.9590  177.8360  142.5970 N   0  0  0  0  0  1  0  0  0  0  0  0
  1 23  1  6  0  0  0
  1  3  1  0  0  0  0
  2  8  1  0  0  0  0
  3  4  1  1  0  0  0
  3  7  1  0  0  0  0
  3  5  1  0  0  0  0
  5  8  1  0  0  0  0
  6  9  1  1  0  0  0
  6  2  1  0  0  0  0
  7  6  1  0  0  0  0
 10 13  1  0  0  0  0
 10  9  1  0  0  0  0
 11 10  2  0  0  0  0
 13 12  2  0  0  0  0
 14  1  1  0  0  0  0
 14 17  1  0  0  0  0
 15 17  2  0  0  0  0
 16 15  1  0  0  0  0
 18 14  2  0  0  0  0
 19 18  1  0  0  0  0
 19 16  2  0  0  0  0
 20 22  1  0  0  0  0
 21 20  1  0  0  0  0
 21 22  1  0  0  0  0
 22 19  1  1  0  0  0
 24 23  1  0  0  0  0
 25 23  2  0  0  0  0
 26 25  1  0  0  0  0
M  END
>  <MODEL>
4

>  <REMARK>
 VINA RESULT:      -6.9      2.418      7.689
  Name = 
  6 active torsions:
  status: ('A' for Active; 'I' for Inactive)
    1  A    between atoms: C_4  and  C_25
    2  A    between atoms: C_5  and  C_25
    3  A    between atoms: C_6  and  C_25
    4  A    between atoms: N_10  and  C_12
    5  A    between atoms: C_15  and  C_18
    6  A    between atoms: C_22  and  C_24
                            x       y       z     vdW  Elec       q    Type
                         _______ _______ _______ _____ _____    ______ ____

>  <TORSDO>
F 6

$$$$
=
 OpenBabel10222418263D

 26 28  0  0  1  0  0  0  0  0999 V2000
  189.2470  177.6910  143.3150 C   0  0  2  0  0  3  0  0  0  0  0  0
  191.8730  177.8890  140.6570 C   0  0  0  0  0  2  0  0  0  0  0  0
  190.1750  176.6570  142.6260 C   0  0  2  0  0  0  0  0  0  0  0  0
  190.0510  175.2840  143.2670 C   0  0  0  0  0  1  0  0  0  0  0  0
  191.6420  177.1190  142.7570 C   0  0  0  0  0  2  0  0  0  0  0  0
  190.4030  177.6390  140.2860 C   0  0  2  0  0  3  0  0  0  0  0  0
  189.7980  176.5200  141.1410 C   0  0  0  0  0  2  0  0  0  0  0  0
  192.3550  176.9230  141.5600 O   0  0  0  0  0  0  0  0  0  0  0  0
  190.3040  177.2990  138.8760 N   0  0  0  0  0  2  0  0  0  0  0  0
  189.5080  178.0530  137.9550 C   0  0  0  0  0  0  0  0  0  0  0  0
  188.8780  179.0720  138.3440 O   0  0  0  0  0  0  0  0  0  0  0  0
  190.0460  176.5840  136.0810 C   0  0  0  0  0  2  0  0  0  0  0  0
  189.4180  177.6540  136.5470 C   0  0  0  0  0  3  0  0  0  0  0  0
  189.1670  177.6020  144.8160 C   0  0  0  0  0  0  0  0  0  0  0  0
  187.9190  177.7280  146.8930 C   0  0  0  0  0  3  0  0  0  0  0  0
  189.0780  177.4180  147.6100 C   0  0  0  0  0  3  0  0  0  0  0  0
  187.9630  177.8230  145.5010 C   0  0  0  0  0  3  0  0  0  0  0  0
  190.3250  177.2930  145.5380 C   0  0  0  0  0  3  0  0  0  0  0  0
  190.2890  177.2110  146.9360 C   0  0  0  0  0  0  0  0  0  0  0  0
  192.4610  176.2550  146.8240 O   0  0  0  0  0  0  0  0  0  0  0  0
  191.7490  175.3770  147.6580 C   0  0  0  0  0  2  0  0  0  0  0  0
  191.5230  176.8410  147.6970 C   0  0  2  0  0  3  0  0  0  0  0  0
  187.9040  177.9140  142.6660 C   0  0  0  0  0  0  0  0  0  0  0  0
  186.7580  177.0750  143.1220 C   0  0  0  0  0  1  0  0  0  0  0  0
  187.7510  178.8170  141.6940 C   0  0  0  0  0  3  0  0  0  0  0  0
  186.4920  179.0320  141.0610 N   0  0  0  0  0  1  0  0  0  0  0  0
  1 23  1  6  0  0  0
  1 14  1  0  0  0  0
  2  8  1  0  0  0  0
  3  5  1  0  0  0  0
  3  4  1  1  0  0  0
  3  1  1  0  0  0  0
  6  9  1  6  0  0  0
  6  2  1  0  0  0  0
  6  7  1  0  0  0  0
  7  3  1  0  0  0  0
  8  5  1  0  0  0  0
 10 11  2  0  0  0  0
 10  9  1  0  0  0  0
 12 13  2  0  0  0  0
 13 10  1  0  0  0  0
 14 17  2  0  0  0  0
 14 18  1  0  0  0  0
 15 16  2  0  0  0  0
 17 15  1  0  0  0  0
 18 19  2  0  0  0  0
 19 16  1  0  0  0  0
 20 21  1  0  0  0  0
 20 22  1  0  0  0  0
 21 22  1  0  0  0  0
 22 19  1  6  0  0  0
 23 24  1  0  0  0  0
 25 23  2  0  0  0  0
 26 25  1  0  0  0  0
M  END
>  <MODEL>
5

>  <REMARK>
 VINA RESULT:      -6.9      3.249      5.492
  Name = 
  6 active torsions:
  status: ('A' for Active; 'I' for Inactive)
    1  A    between atoms: C_4  and  C_25
    2  A    between atoms: C_5  and  C_25
    3  A    between atoms: C_6  and  C_25
    4  A    between atoms: N_10  and  C_12
    5  A    between atoms: C_15  and  C_18
    6  A    between atoms: C_22  and  C_24
                            x       y       z     vdW  Elec       q    Type
                         _______ _______ _______ _____ _____    ______ ____

>  <TORSDO>
F 6

$$$$
=
 OpenBabel10222418263D

 26 28  0  0  1  0  0  0  0  0999 V2000
  189.2940  177.7000  143.2520 C   0  0  2  0  0  3  0  0  0  0  0  0
  191.8400  177.8780  140.5150 C   0  0  0  0  0  2  0  0  0  0  0  0
  190.2120  176.6640  142.5530 C   0  0  2  0  0  0  0  0  0  0  0  0
  190.1200  175.3000  143.2200 C   0  0  0  0  0  1  0  0  0  0  0  0
  191.6780  177.1410  142.6330 C   0  0  0  0  0  2  0  0  0  0  0  0
  190.3610  177.6080  140.1920 C   0  0  2  0  0  3  0  0  0  0  0  0
  189.7920  176.4980  141.0820 C   0  0  0  0  0  2  0  0  0  0  0  0
  192.3570  176.9310  141.4190 O   0  0  0  0  0  0  0  0  0  0  0  0
  190.2240  177.2430  138.7910 N   0  0  0  0  0  2  0  0  0  0  0  0
  189.4970  178.0450  137.8530 C   0  0  0  0  0  0  0  0  0  0  0  0
  188.9660  179.1270  138.2180 O   0  0  0  0  0  0  0  0  0  0  0  0
  188.2290  177.7670  135.7860 C   0  0  0  0  0  2  0  0  0  0  0  0
  189.3640  177.6210  136.4560 C   0  0  0  0  0  3  0  0  0  0  0  0
  189.2440  177.6230  144.7550 C   0  0  0  0  0  0  0  0  0  0  0  0
  190.3150  177.2870  146.9060 C   0  0  0  0  0  3  0  0  0  0  0  0
  189.0930  177.4990  147.5500 C   0  0  0  0  0  3  0  0  0  0  0  0
  190.3910  177.3460  145.5130 C   0  0  0  0  0  3  0  0  0  0  0  0
  188.0220  177.8340  145.4030 C   0  0  0  0  0  3  0  0  0  0  0  0
  187.9380  177.7610  146.8000 C   0  0  0  0  0  0  0  0  0  0  0  0
  185.5990  178.0780  146.5340 O   0  0  0  0  0  0  0  0  0  0  0  0
  186.0520  179.3100  147.0340 C   0  0  0  0  0  2  0  0  0  0  0  0
  186.6360  178.0250  147.4870 C   0  0  2  0  0  3  0  0  0  0  0  0
  187.9380  177.9140  142.6270 C   0  0  0  0  0  0  0  0  0  0  0  0
  186.7870  177.1340  143.1670 C   0  0  0  0  0  1  0  0  0  0  0  0
  187.7770  178.7580  141.6060 C   0  0  0  0  0  3  0  0  0  0  0  0
  186.5060  178.9640  140.9950 N   0  0  0  0  0  1  0  0  0  0  0  0
  1 23  1  6  0  0  0
  1 14  1  0  0  0  0
  2  8  1  0  0  0  0
  3  5  1  0  0  0  0
  3  4  1  1  0  0  0
  3  1  1  0  0  0  0
  6  9  1  6  0  0  0
  6  2  1  0  0  0  0
  6  7  1  0  0  0  0
  7  3  1  0  0  0  0
  8  5  1  0  0  0  0
 10 11  2  0  0  0  0
 10  9  1  0  0  0  0
 12 13  2  0  0  0  0
 13 10  1  0  0  0  0
 14 18  2  0  0  0  0
 14 17  1  0  0  0  0
 15 16  1  0  0  0  0
 17 15  2  0  0  0  0
 18 19  1  0  0  0  0
 19 16  2  0  0  0  0
 20 21  1  0  0  0  0
 20 22  1  0  0  0  0
 21 22  1  0  0  0  0
 22 19  1  6  0  0  0
 23 24  1  0  0  0  0
 25 23  2  0  0  0  0
 26 25  1  0  0  0  0
M  END
>  <MODEL>
6

>  <REMARK>
 VINA RESULT:      -6.6      3.325      5.829
  Name = 
  6 active torsions:
  status: ('A' for Active; 'I' for Inactive)
    1  A    between atoms: C_4  and  C_25
    2  A    between atoms: C_5  and  C_25
    3  A    between atoms: C_6  and  C_25
    4  A    between atoms: N_10  and  C_12
    5  A    between atoms: C_15  and  C_18
    6  A    between atoms: C_22  and  C_24
                            x       y       z     vdW  Elec       q    Type
                         _______ _______ _______ _____ _____    ______ ____

>  <TORSDO>
F 6

$$$$
=
 OpenBabel10222418263D

 26 28  0  0  1  0  0  0  0  0999 V2000
  182.6820  179.1880  139.5720 C   0  0  2  0  0  3  0  0  0  0  0  0
  180.8400  179.4380  142.8190 C   0  0  0  0  0  2  0  0  0  0  0  0
  181.9090  178.1810  140.4620 C   0  0  2  0  0  0  0  0  0  0  0  0
  181.7910  176.8220  139.7910 C   0  0  0  0  0  1  0  0  0  0  0  0
  180.4830  178.7150  140.7200 C   0  0  0  0  0  2  0  0  0  0  0  0
  182.3410  179.1080  142.7950 C   0  0  2  0  0  3  0  0  0  0  0  0
  182.6470  177.9860  141.7970 C   0  0  0  0  0  2  0  0  0  0  0  0
  180.0930  178.5200  142.0570 O   0  0  0  0  0  0  0  0  0  0  0  0
  182.7810  178.7250  144.1270 N   0  0  0  0  0  2  0  0  0  0  0  0
  184.0760  179.0600  144.6380 C   0  0  0  0  0  0  0  0  0  0  0  0
  184.8800  179.7350  143.9410 O   0  0  0  0  0  0  0  0  0  0  0  0
  185.6800  178.9160  146.4720 C   0  0  0  0  0  2  0  0  0  0  0  0
  184.4840  178.6280  145.9780 C   0  0  0  0  0  3  0  0  0  0  0  0
  181.8960  179.8080  138.4470 C   0  0  0  0  0  0  0  0  0  0  0  0
  180.7690  179.6590  136.3030 C   0  0  0  0  0  3  0  0  0  0  0  0
  180.4280  181.0120  136.3860 C   0  0  0  0  0  3  0  0  0  0  0  0
  181.5030  179.0580  137.3280 C   0  0  0  0  0  3  0  0  0  0  0  0
  181.5530  181.1620  138.5260 C   0  0  0  0  0  3  0  0  0  0  0  0
  180.8290  181.7720  137.4930 C   0  0  0  0  0  0  0  0  0  0  0  0
  180.4990  183.8200  136.3360 O   0  0  0  0  0  0  0  0  0  0  0  0
  181.5560  184.0980  137.2190 C   0  0  0  0  0  2  0  0  0  0  0  0
  180.4340  183.2100  137.6040 C   0  0  2  0  0  3  0  0  0  0  0  0
  184.0750  178.7790  139.1620 C   0  0  0  0  0  0  0  0  0  0  0  0
  184.2420  178.0730  137.8580 C   0  0  0  0  0  1  0  0  0  0  0  0
  185.1230  179.0180  139.9530 C   0  0  0  0  0  3  0  0  0  0  0  0
  186.4440  178.6280  139.5880 N   0  0  0  0  0  1  0  0  0  0  0  0
  1 23  1  6  0  0  0
  1  3  1  0  0  0  0
  3  4  1  6  0  0  0
  3  5  1  0  0  0  0
  3  7  1  0  0  0  0
  5  8  1  0  0  0  0
  6  2  1  0  0  0  0
  6  9  1  1  0  0  0
  7  6  1  0  0  0  0
  8  2  1  0  0  0  0
  9 10  1  0  0  0  0
 10 13  1  0  0  0  0
 11 10  2  0  0  0  0
 13 12  2  0  0  0  0
 14 18  1  0  0  0  0
 14  1  1  0  0  0  0
 15 16  2  0  0  0  0
 15 17  1  0  0  0  0
 16 19  1  0  0  0  0
 17 14  2  0  0  0  0
 19 18  2  0  0  0  0
 20 21  1  0  0  0  0
 20 22  1  0  0  0  0
 21 22  1  0  0  0  0
 22 19  1  6  0  0  0
 23 25  2  0  0  0  0
 24 23  1  0  0  0  0
 26 25  1  0  0  0  0
M  END
>  <MODEL>
7

>  <REMARK>
 VINA RESULT:      -6.5      4.576      9.642
  Name = 
  6 active torsions:
  status: ('A' for Active; 'I' for Inactive)
    1  A    between atoms: C_4  and  C_25
    2  A    between atoms: C_5  and  C_25
    3  A    between atoms: C_6  and  C_25
    4  A    between atoms: N_10  and  C_12
    5  A    between atoms: C_15  and  C_18
    6  A    between atoms: C_22  and  C_24
                            x       y       z     vdW  Elec       q    Type
                         _______ _______ _______ _____ _____    ______ ____

>  <TORSDO>
F 6

$$$$
=
 OpenBabel10222418263D

 26 28  0  0  1  0  0  0  0  0999 V2000
  188.3440  177.3060  142.1020 C   0  0  2  0  0  3  0  0  0  0  0  0
  188.8300  176.7340  138.4360 C   0  0  0  0  0  2  0  0  0  0  0  0
  188.6930  178.2180  140.8970 C   0  0  2  0  0  0  0  0  0  0  0  0
  188.7330  179.6830  141.3020 C   0  0  0  0  0  1  0  0  0  0  0  0
  187.6200  178.0510  139.8000 C   0  0  0  0  0  2  0  0  0  0  0  0
  190.0160  176.6300  139.4080 C   0  0  2  0  0  3  0  0  0  0  0  0
  190.0780  177.8450  140.3400 C   0  0  0  0  0  2  0  0  0  0  0  0
  188.1970  177.9890  138.5190 O   0  0  0  0  0  0  0  0  0  0  0  0
  191.2560  176.5140  138.6570 N   0  0  0  0  0  2  0  0  0  0  0  0
  191.6270  175.3190  137.9600 C   0  0  0  0  0  0  0  0  0  0  0  0
  190.8590  174.3210  137.9560 O   0  0  0  0  0  0  0  0  0  0  0  0
  193.0170  175.6350  135.9790 C   0  0  0  0  0  2  0  0  0  0  0  0
  192.9010  175.2410  137.2400 C   0  0  0  0  0  3  0  0  0  0  0  0
  187.1000  177.6760  142.8650 C   0  0  0  0  0  0  0  0  0  0  0  0
  184.7870  178.4050  142.9420 C   0  0  0  0  0  3  0  0  0  0  0  0
  184.8130  178.3470  144.3380 C   0  0  0  0  0  3  0  0  0  0  0  0
  185.9270  178.0740  142.2070 C   0  0  0  0  0  3  0  0  0  0  0  0
  187.1220  177.6190  144.2630 C   0  0  0  0  0  3  0  0  0  0  0  0
  185.9850  177.9650  145.0050 C   0  0  0  0  0  0  0  0  0  0  0  0
  184.8780  178.5190  147.0330 O   0  0  0  0  0  0  0  0  0  0  0  0
  186.0990  179.2080  147.1160 C   0  0  0  0  0  2  0  0  0  0  0  0
  186.0050  177.8640  146.4980 C   0  0  2  0  0  3  0  0  0  0  0  0
  189.4940  176.9220  142.9990 C   0  0  0  0  0  0  0  0  0  0  0  0
  189.9200  175.4920  143.0180 C   0  0  0  0  0  1  0  0  0  0  0  0
  190.0950  177.8280  143.7720 C   0  0  0  0  0  3  0  0  0  0  0  0
  191.1750  177.4810  144.6350 N   0  0  0  0  0  1  0  0  0  0  0  0
  1 14  1  0  0  0  0
  1 23  1  1  0  0  0
  2  8  1  0  0  0  0
  2  6  1  0  0  0  0
  3  4  1  1  0  0  0
  3  1  1  0  0  0  0
  5  3  1  0  0  0  0
  6  9  1  6  0  0  0
  6  7  1  0  0  0  0
  7  3  1  0  0  0  0
  8  5  1  0  0  0  0
 10  9  1  0  0  0  0
 11 10  2  0  0  0  0
 12 13  2  0  0  0  0
 13 10  1  0  0  0  0
 14 18  1  0  0  0  0
 15 16  2  0  0  0  0
 16 19  1  0  0  0  0
 17 14  2  0  0  0  0
 17 15  1  0  0  0  0
 18 19  2  0  0  0  0
 20 21  1  0  0  0  0
 22 19  1  6  0  0  0
 22 20  1  0  0  0  0
 22 21  1  0  0  0  0
 23 24  1  0  0  0  0
 23 25  2  0  0  0  0
 25 26  1  0  0  0  0
M  END
>  <MODEL>
8

>  <REMARK>
 VINA RESULT:      -6.3      4.045      7.090
  Name = 
  6 active torsions:
  status: ('A' for Active; 'I' for Inactive)
    1  A    between atoms: C_4  and  C_25
    2  A    between atoms: C_5  and  C_25
    3  A    between atoms: C_6  and  C_25
    4  A    between atoms: N_10  and  C_12
    5  A    between atoms: C_15  and  C_18
    6  A    between atoms: C_22  and  C_24
                            x       y       z     vdW  Elec       q    Type
                         _______ _______ _______ _____ _____    ______ ____

>  <TORSDO>
F 6

$$$$
=
 OpenBabel10222418263D

 26 28  0  0  1  0  0  0  0  0999 V2000
  191.0720  177.1880  143.2640 C   0  0  2  0  0  3  0  0  0  0  0  0
  189.6730  176.8480  146.7180 C   0  0  0  0  0  2  0  0  0  0  0  0
  190.9650  178.1310  144.4910 C   0  0  2  0  0  0  0  0  0  0  0  0
  191.6970  179.4420  144.2500 C   0  0  0  0  0  1  0  0  0  0  0  0
  191.5980  177.4460  145.7210 C   0  0  0  0  0  2  0  0  0  0  0  0
  188.7910  177.3480  145.5630 C   0  0  2  0  0  3  0  0  0  0  0  0
  189.4890  178.4610  144.7730 C   0  0  0  0  0  2  0  0  0  0  0  0
  190.8230  177.6440  146.8780 O   0  0  0  0  0  0  0  0  0  0  0  0
  187.5230  177.8290  146.0870 N   0  0  0  0  0  2  0  0  0  0  0  0
  186.3210  177.8390  145.3090 C   0  0  0  0  0  0  0  0  0  0  0  0
  186.3230  177.3960  144.1290 O   0  0  0  0  0  0  0  0  0  0  0  0
  184.1540  178.9460  145.1160 C   0  0  0  0  0  2  0  0  0  0  0  0
  185.0710  178.3590  145.8720 C   0  0  0  0  0  3  0  0  0  0  0  0
  190.2270  177.5610  142.0750 C   0  0  0  0  0  0  0  0  0  0  0  0
  188.2430  178.5660  141.1040 C   0  0  0  0  0  3  0  0  0  0  0  0
  188.7000  178.2360  139.8250 C   0  0  0  0  0  3  0  0  0  0  0  0
  189.0020  178.2280  142.2260 C   0  0  0  0  0  3  0  0  0  0  0  0
  190.6810  177.2330  140.7930 C   0  0  0  0  0  3  0  0  0  0  0  0
  189.9160  177.5570  139.6650 C   0  0  0  0  0  0  0  0  0  0  0  0
  189.3760  177.3330  137.3620 O   0  0  0  0  0  0  0  0  0  0  0  0
  189.7520  176.0360  137.7480 C   0  0  0  0  0  2  0  0  0  0  0  0
  190.4270  177.2360  138.2960 C   0  0  2  0  0  3  0  0  0  0  0  0
  191.0540  175.7100  143.5600 C   0  0  0  0  0  0  0  0  0  0  0  0
  189.8490  174.9290  143.1530 C   0  0  0  0  0  1  0  0  0  0  0  0
  192.0730  175.1220  144.1900 C   0  0  0  0  0  3  0  0  0  0  0  0
  192.0680  173.7280  144.4880 N   0  0  0  0  0  1  0  0  0  0  0  0
  1 23  1  1  0  0  0
  1  3  1  0  0  0  0
  2  8  1  0  0  0  0
  3  4  1  6  0  0  0
  3  7  1  0  0  0  0
  3  5  1  0  0  0  0
  5  8  1  0  0  0  0
  6  9  1  1  0  0  0
  6  2  1  0  0  0  0
  7  6  1  0  0  0  0
 10 13  1  0  0  0  0
 10  9  1  0  0  0  0
 11 10  2  0  0  0  0
 12 13  2  0  0  0  0
 14 17  1  0  0  0  0
 14  1  1  0  0  0  0
 15 17  2  0  0  0  0
 16 15  1  0  0  0  0
 18 14  2  0  0  0  0
 19 16  2  0  0  0  0
 19 18  1  0  0  0  0
 20 21  1  0  0  0  0
 20 22  1  0  0  0  0
 21 22  1  0  0  0  0
 22 19  1  1  0  0  0
 23 25  2  0  0  0  0
 24 23  1  0  0  0  0
 25 26  1  0  0  0  0
M  END
>  <MODEL>
9

>  <REMARK>
 VINA RESULT:      -6.2      3.089      6.154
  Name = 
  6 active torsions:
  status: ('A' for Active; 'I' for Inactive)
    1  A    between atoms: C_4  and  C_25
    2  A    between atoms: C_5  and  C_25
    3  A    between atoms: C_6  and  C_25
    4  A    between atoms: N_10  and  C_12
    5  A    between atoms: C_15  and  C_18
    6  A    between atoms: C_22  and  C_24
                            x       y       z     vdW  Elec       q    Type
                         _______ _______ _______ _____ _____    ______ ____

>  <TORSDO>
F 6

$$$$
