=
 OpenBabel10222416113D

 26 29  0  0  1  0  0  0  0  0999 V2000
  190.2260  177.9850  142.4600 C   0  0  1  0  0  3  0  0  0  0  0  0
  189.8690  176.6870  140.3340 N   0  0  0  0  0  0  0  0  0  0  0  0
  191.9380  177.6010  140.6790 N   0  0  0  0  0  2  0  0  0  0  0  0
  190.3760  175.6600  138.1670 C   0  0  0  0  0  3  0  0  0  0  0  0
  190.6760  177.4220  141.1470 C   0  0  0  0  0  0  0  0  0  0  0  0
  192.6780  176.0540  137.4290 C   0  0  0  0  0  3  0  0  0  0  0  0
  190.6790  176.3990  139.3070 C   0  0  0  0  0  0  0  0  0  0  0  0
  191.9100  176.9430  139.5110 C   0  0  0  0  0  0  0  0  0  0  0  0
  191.4000  175.4890  137.2160 C   0  0  0  0  0  3  0  0  0  0  0  0
  192.9480  176.7950  138.5940 C   0  0  0  0  0  3  0  0  0  0  0  0
  188.0950  178.4490  141.1770 C   0  0  0  0  0  3  0  0  0  0  0  0
  188.0340  177.1180  143.2720 C   0  0  0  0  0  3  0  0  0  0  0  0
  186.7450  177.1440  143.6050 C   0  0  0  0  0  3  0  0  0  0  0  0
  184.4080  178.4460  144.2830 Cl  0  0  0  0  0  0  0  0  0  0  0  0
  185.7830  178.2010  143.2280 C   0  0  0  0  0  0  0  0  0  0  0  0
  186.8150  178.7730  141.0020 C   0  0  0  0  0  3  0  0  0  0  0  0
  188.7100  178.2220  142.5250 C   0  0  1  0  0  3  0  0  0  0  0  0
  185.8020  178.8730  142.0710 C   0  0  0  0  0  3  0  0  0  0  0  0
  191.8800  175.9720  145.8960 C   0  0  0  0  0  0  0  0  0  0  0  0
  191.3830  175.9900  143.5220 C   0  0  0  0  0  3  0  0  0  0  0  0
  190.8140  177.2680  143.6450 C   0  0  0  0  0  0  0  0  0  0  0  0
  190.7810  177.8890  144.8980 C   0  0  0  0  0  3  0  0  0  0  0  0
  191.9140  175.3460  144.6420 C   0  0  0  0  0  3  0  0  0  0  0  0
  191.3120  177.2450  146.0180 C   0  0  0  0  0  3  0  0  0  0  0  0
  192.8140  176.0550  148.0870 O   0  0  0  0  0  1  0  0  0  0  0  0
  192.4050  175.3460  147.0250 O   0  0  0  0  0  0  0  0  0  0  0  0
  1  5  1  6  0  0  0
  1 21  1  0  0  0  0
  2  5  2  0  0  0  0
  3  5  1  0  0  0  0
  4  7  1  0  0  0  0
  6 10  2  0  0  0  0
  7  8  2  0  0  0  0
  7  2  1  0  0  0  0
  8  3  1  0  0  0  0
  9  6  1  0  0  0  0
  9  4  2  0  0  0  0
 10  8  1  0  0  0  0
 11 17  1  0  0  0  0
 12 13  2  0  0  0  0
 15 13  1  0  0  0  0
 15 14  1  0  0  0  0
 16 11  2  0  0  0  0
 16 18  1  0  0  0  0
 17  1  1  6  0  0  0
 17 12  1  0  0  0  0
 18 15  2  0  0  0  0
 19 24  1  0  0  0  0
 19 26  1  0  0  0  0
 20 21  2  0  0  0  0
 20 23  1  0  0  0  0
 21 22  1  0  0  0  0
 22 24  2  0  0  0  0
 23 19  2  0  0  0  0
 26 25  1  0  0  0  0
M  END
>  <MODEL>
1

>  <REMARK>
 VINA RESULT:      -8.4      0.000      0.000
  Name = 
  4 active torsions:
  status: ('A' for Active; 'I' for Inactive)
    1  A    between atoms: C_2  and  O_11
    2  A    between atoms: C_7  and  C_24
    3  A    between atoms: C_10  and  C_24
    4  A    between atoms: C_22  and  C_24
                            x       y       z     vdW  Elec       q    Type
                         _______ _______ _______ _____ _____    ______ ____

>  <TORSDO>
F 4

$$$$
=
 OpenBabel10222416113D

 26 29  0  0  1  0  0  0  0  0999 V2000
  188.6580  178.6210  141.6170 C   0  0  1  0  0  3  0  0  0  0  0  0
  188.9640  176.8660  139.8400 N   0  0  0  0  0  0  0  0  0  0  0  0
  188.8100  179.0440  139.1570 N   0  0  0  0  0  2  0  0  0  0  0  0
  189.2390  175.8930  137.6060 C   0  0  0  0  0  3  0  0  0  0  0  0
  188.8090  178.1700  140.1960 C   0  0  0  0  0  0  0  0  0  0  0  0
  189.2230  177.5660  135.8180 C   0  0  0  0  0  3  0  0  0  0  0  0
  189.0650  176.9410  138.5070 C   0  0  0  0  0  0  0  0  0  0  0  0
  188.9740  178.2370  138.0990 C   0  0  0  0  0  0  0  0  0  0  0  0
  189.3190  176.2210  136.2400 C   0  0  0  0  0  3  0  0  0  0  0  0
  189.0480  178.6000  136.7570 C   0  0  0  0  0  3  0  0  0  0  0  0
  186.2270  178.6280  140.9170 C   0  0  0  0  0  3  0  0  0  0  0  0
  186.8890  177.7580  143.1460 C   0  0  0  0  0  3  0  0  0  0  0  0
  185.7370  177.7440  143.8150 C   0  0  0  0  0  3  0  0  0  0  0  0
  183.4970  178.9550  144.8760 Cl  0  0  0  0  0  0  0  0  0  0  0  0
  184.5760  178.6150  143.5410 C   0  0  0  0  0  0  0  0  0  0  0  0
  184.9130  178.7990  141.0510 C   0  0  0  0  0  3  0  0  0  0  0  0
  187.1920  178.7370  142.0580 C   0  0  1  0  0  3  0  0  0  0  0  0
  184.2040  179.0320  142.3250 C   0  0  0  0  0  3  0  0  0  0  0  0
  191.2420  176.5650  144.3900 C   0  0  0  0  0  0  0  0  0  0  0  0
  189.6970  176.4890  142.5220 C   0  0  0  0  0  3  0  0  0  0  0  0
  189.5590  177.8850  142.5710 C   0  0  0  0  0  0  0  0  0  0  0  0
  190.2650  178.6130  143.5350 C   0  0  0  0  0  3  0  0  0  0  0  0
  190.5350  175.8320  143.4260 C   0  0  0  0  0  3  0  0  0  0  0  0
  191.1030  177.9560  144.4400 C   0  0  0  0  0  3  0  0  0  0  0  0
  192.1800  176.3520  146.5700 O   0  0  0  0  0  1  0  0  0  0  0  0
  192.0820  175.9290  145.3020 O   0  0  0  0  0  0  0  0  0  0  0  0
  1  5  1  6  0  0  0
  1 21  1  0  0  0  0
  2  5  2  0  0  0  0
  3  5  1  0  0  0  0
  4  7  1  0  0  0  0
  6  9  1  0  0  0  0
  6 10  2  0  0  0  0
  7  2  1  0  0  0  0
  8  7  2  0  0  0  0
  8  3  1  0  0  0  0
  9  4  2  0  0  0  0
 10  8  1  0  0  0  0
 11 16  2  0  0  0  0
 11 17  1  0  0  0  0
 12 13  2  0  0  0  0
 15 13  1  0  0  0  0
 15 14  1  0  0  0  0
 16 18  1  0  0  0  0
 17  1  1  6  0  0  0
 17 12  1  0  0  0  0
 18 15  2  0  0  0  0
 19 24  1  0  0  0  0
 19 26  1  0  0  0  0
 20 21  2  0  0  0  0
 20 23  1  0  0  0  0
 21 22  1  0  0  0  0
 22 24  2  0  0  0  0
 23 19  2  0  0  0  0
 26 25  1  0  0  0  0
M  END
>  <MODEL>
2

>  <REMARK>
 VINA RESULT:      -8.3      1.792      2.240
  Name = 
  4 active torsions:
  status: ('A' for Active; 'I' for Inactive)
    1  A    between atoms: C_2  and  O_11
    2  A    between atoms: C_7  and  C_24
    3  A    between atoms: C_10  and  C_24
    4  A    between atoms: C_22  and  C_24
                            x       y       z     vdW  Elec       q    Type
                         _______ _______ _______ _____ _____    ______ ____

>  <TORSDO>
F 4

$$$$
=
 OpenBabel10222416113D

 26 29  0  0  1  0  0  0  0  0999 V2000
  189.7600  177.8280  142.3240 C   0  0  1  0  0  3  0  0  0  0  0  0
  191.5700  177.4150  140.6260 N   0  0  0  0  0  0  0  0  0  0  0  0
  189.4500  176.7410  140.0940 N   0  0  0  0  0  2  0  0  0  0  0  0
  192.6280  176.6800  138.5400 C   0  0  0  0  0  3  0  0  0  0  0  0
  190.2680  177.3230  141.0090 C   0  0  0  0  0  0  0  0  0  0  0  0
  191.0540  175.6460  136.9740 C   0  0  0  0  0  3  0  0  0  0  0  0
  191.5540  176.8570  139.4090 C   0  0  0  0  0  0  0  0  0  0  0  0
  190.2930  176.4550  139.0910 C   0  0  0  0  0  0  0  0  0  0  0  0
  192.3640  176.0620  137.3030 C   0  0  0  0  0  3  0  0  0  0  0  0
  189.9930  175.8420  137.8780 C   0  0  0  0  0  3  0  0  0  0  0  0
  187.7280  177.8880  143.8300 C   0  0  0  0  0  3  0  0  0  0  0  0
  187.6420  178.9010  141.5650 C   0  0  0  0  0  3  0  0  0  0  0  0
  186.3350  179.0280  141.3440 C   0  0  0  0  0  3  0  0  0  0  0  0
  183.7810  178.0220  141.0670 Cl  0  0  0  0  0  0  0  0  0  0  0  0
  185.2770  178.1980  141.9570 C   0  0  0  0  0  0  0  0  0  0  0  0
  186.4400  177.7960  144.1560 C   0  0  0  0  0  3  0  0  0  0  0  0
  188.2270  177.8230  142.4190 C   0  0  1  0  0  3  0  0  0  0  0  0
  185.3190  177.7030  143.2000 C   0  0  0  0  0  3  0  0  0  0  0  0
  191.8410  176.0730  145.6680 C   0  0  0  0  0  0  0  0  0  0  0  0
  190.6590  177.9540  144.6950 C   0  0  0  0  0  3  0  0  0  0  0  0
  190.4780  177.2320  143.5050 C   0  0  0  0  0  0  0  0  0  0  0  0
  190.9840  175.9320  143.4050 C   0  0  0  0  0  3  0  0  0  0  0  0
  191.3370  177.3780  145.7710 C   0  0  0  0  0  3  0  0  0  0  0  0
  191.6610  175.3540  144.4820 C   0  0  0  0  0  3  0  0  0  0  0  0
  192.6620  176.1110  147.9050 O   0  0  0  0  0  1  0  0  0  0  0  0
  192.5200  175.4800  146.7310 O   0  0  0  0  0  0  0  0  0  0  0  0
  1  5  1  6  0  0  0
  1 21  1  0  0  0  0
  2  5  2  0  0  0  0
  3  5  1  0  0  0  0
  4  7  1  0  0  0  0
  6  9  1  0  0  0  0
  6 10  2  0  0  0  0
  7  2  1  0  0  0  0
  8  7  2  0  0  0  0
  8  3  1  0  0  0  0
  9  4  2  0  0  0  0
 10  8  1  0  0  0  0
 11 16  2  0  0  0  0
 12 17  1  0  0  0  0
 13 12  2  0  0  0  0
 13 15  1  0  0  0  0
 14 15  1  0  0  0  0
 15 18  2  0  0  0  0
 17  1  1  1  0  0  0
 17 11  1  0  0  0  0
 18 16  1  0  0  0  0
 19 23  1  0  0  0  0
 19 26  1  0  0  0  0
 20 23  2  0  0  0  0
 21 20  1  0  0  0  0
 22 21  2  0  0  0  0
 22 24  1  0  0  0  0
 24 19  2  0  0  0  0
 26 25  1  0  0  0  0
M  END
>  <MODEL>
3

>  <REMARK>
 VINA RESULT:      -8.2      0.832      2.053
  Name = 
  4 active torsions:
  status: ('A' for Active; 'I' for Inactive)
    1  A    between atoms: C_2  and  O_11
    2  A    between atoms: C_7  and  C_24
    3  A    between atoms: C_10  and  C_24
    4  A    between atoms: C_22  and  C_24
                            x       y       z     vdW  Elec       q    Type
                         _______ _______ _______ _____ _____    ______ ____

>  <TORSDO>
F 4

$$$$
=
 OpenBabel10222416113D

 26 29  0  0  1  0  0  0  0  0999 V2000
  186.2800  179.1150  141.6210 C   0  0  1  0  0  3  0  0  0  0  0  0
  184.2430  177.7440  141.0740 N   0  0  0  0  0  0  0  0  0  0  0  0
  184.5420  179.6960  139.9190 N   0  0  0  0  0  2  0  0  0  0  0  0
  182.1530  177.0870  139.9730 C   0  0  0  0  0  3  0  0  0  0  0  0
  185.0110  178.8480  140.8710 C   0  0  0  0  0  0  0  0  0  0  0  0
  181.4100  178.6940  138.2810 C   0  0  0  0  0  3  0  0  0  0  0  0
  183.2440  177.9220  140.2000 C   0  0  0  0  0  0  0  0  0  0  0  0
  183.4210  179.0840  139.5120 C   0  0  0  0  0  0  0  0  0  0  0  0
  181.2250  177.4880  138.9930 C   0  0  0  0  0  3  0  0  0  0  0  0
  182.5250  179.5130  138.5370 C   0  0  0  0  0  3  0  0  0  0  0  0
  184.7470  179.1760  143.6340 C   0  0  0  0  0  3  0  0  0  0  0  0
  186.6280  177.5590  143.5370 C   0  0  0  0  0  3  0  0  0  0  0  0
  186.7580  177.1750  144.8060 C   0  0  0  0  0  3  0  0  0  0  0  0
  187.2180  177.6550  147.4840 Cl  0  0  0  0  0  0  0  0  0  0  0  0
  186.3680  177.9720  145.9870 C   0  0  0  0  0  0  0  0  0  0  0  0
  184.4160  179.1590  144.9240 C   0  0  0  0  0  3  0  0  0  0  0  0
  186.1360  178.9120  143.1370 C   0  0  1  0  0  3  0  0  0  0  0  0
  185.3180  178.8010  146.0360 C   0  0  0  0  0  3  0  0  0  0  0  0
  189.7080  177.2640  139.7750 C   0  0  0  0  0  0  0  0  0  0  0  0
  188.6520  178.2190  141.7380 C   0  0  0  0  0  3  0  0  0  0  0  0
  187.4850  178.4650  140.9980 C   0  0  0  0  0  0  0  0  0  0  0  0
  187.4400  178.1090  139.6460 C   0  0  0  0  0  3  0  0  0  0  0  0
  189.7580  177.6210  141.1300 C   0  0  0  0  0  3  0  0  0  0  0  0
  188.5460  177.5100  139.0370 C   0  0  0  0  0  3  0  0  0  0  0  0
  190.7380  175.4090  138.6900 O   0  0  0  0  0  1  0  0  0  0  0  0
  190.8010  176.6660  139.1500 O   0  0  0  0  0  0  0  0  0  0  0  0
  1  5  1  6  0  0  0
  3  5  1  0  0  0  0
  4  7  1  0  0  0  0
  5  2  2  0  0  0  0
  6 10  2  0  0  0  0
  6  9  1  0  0  0  0
  7  2  1  0  0  0  0
  8  3  1  0  0  0  0
  8  7  2  0  0  0  0
  9  4  2  0  0  0  0
 10  8  1  0  0  0  0
 11 16  2  0  0  0  0
 12 13  2  0  0  0  0
 13 15  1  0  0  0  0
 15 18  2  0  0  0  0
 15 14  1  0  0  0  0
 16 18  1  0  0  0  0
 17  1  1  6  0  0  0
 17 12  1  0  0  0  0
 17 11  1  0  0  0  0
 19 23  1  0  0  0  0
 21  1  1  0  0  0  0
 21 20  1  0  0  0  0
 22 21  2  0  0  0  0
 23 20  2  0  0  0  0
 24 22  1  0  0  0  0
 24 19  2  0  0  0  0
 25 26  1  0  0  0  0
 26 19  1  0  0  0  0
M  END
>  <MODEL>
4

>  <REMARK>
 VINA RESULT:      -8.1      4.065      6.687
  Name = 
  4 active torsions:
  status: ('A' for Active; 'I' for Inactive)
    1  A    between atoms: C_2  and  O_11
    2  A    between atoms: C_7  and  C_24
    3  A    between atoms: C_10  and  C_24
    4  A    between atoms: C_22  and  C_24
                            x       y       z     vdW  Elec       q    Type
                         _______ _______ _______ _____ _____    ______ ____

>  <TORSDO>
F 4

$$$$
=
 OpenBabel10222416113D

 26 29  0  0  1  0  0  0  0  0999 V2000
  187.8220  178.6100  141.6620 C   0  0  1  0  0  3  0  0  0  0  0  0
  189.1570  176.9480  140.3240 N   0  0  0  0  0  0  0  0  0  0  0  0
  188.3490  178.7840  139.2240 N   0  0  0  0  0  2  0  0  0  0  0  0
  190.2710  175.9320  138.3910 C   0  0  0  0  0  3  0  0  0  0  0  0
  188.4450  178.1050  140.3960 C   0  0  0  0  0  0  0  0  0  0  0  0
  190.0250  177.2450  136.3380 C   0  0  0  0  0  3  0  0  0  0  0  0
  189.5170  176.9110  139.0350 C   0  0  0  0  0  0  0  0  0  0  0  0
  189.0370  178.0020  138.3790 C   0  0  0  0  0  0  0  0  0  0  0  0
  190.5240  176.1110  137.0180 C   0  0  0  0  0  3  0  0  0  0  0  0
  189.2680  178.2140  137.0220 C   0  0  0  0  0  3  0  0  0  0  0  0
  185.6470  179.1890  142.8170 C   0  0  0  0  0  3  0  0  0  0  0  0
  185.7070  178.8340  140.3610 C   0  0  0  0  0  3  0  0  0  0  0  0
  184.4240  178.6530  140.0540 C   0  0  0  0  0  3  0  0  0  0  0  0
  182.0120  177.3290  140.2560 Cl  0  0  0  0  0  0  0  0  0  0  0  0
  183.3860  178.1410  140.9720 C   0  0  0  0  0  0  0  0  0  0  0  0
  184.3450  179.1150  143.0890 C   0  0  0  0  0  3  0  0  0  0  0  0
  186.2940  178.4550  141.6820 C   0  0  1  0  0  3  0  0  0  0  0  0
  183.3420  178.3870  142.2870 C   0  0  0  0  0  3  0  0  0  0  0  0
  189.8990  177.3020  145.2070 C   0  0  0  0  0  0  0  0  0  0  0  0
  187.9260  177.2420  143.7980 C   0  0  0  0  0  3  0  0  0  0  0  0
  188.5320  178.1360  142.9020 C   0  0  0  0  0  0  0  0  0  0  0  0
  189.8210  178.6100  143.1670 C   0  0  0  0  0  3  0  0  0  0  0  0
  188.6060  176.8270  144.9450 C   0  0  0  0  0  3  0  0  0  0  0  0
  190.5020  178.1940  144.3140 C   0  0  0  0  0  3  0  0  0  0  0  0
  191.9340  176.9060  146.3810 O   0  0  0  0  0  1  0  0  0  0  0  0
  190.5950  176.9000  146.3460 O   0  0  0  0  0  0  0  0  0  0  0  0
  1  5  1  6  0  0  0
  1 21  1  0  0  0  0
  2  5  2  0  0  0  0
  3  5  1  0  0  0  0
  4  7  1  0  0  0  0
  6  9  1  0  0  0  0
  6 10  2  0  0  0  0
  7  2  1  0  0  0  0
  8  7  2  0  0  0  0
  8  3  1  0  0  0  0
  9  4  2  0  0  0  0
 10  8  1  0  0  0  0
 11 16  2  0  0  0  0
 12 17  1  0  0  0  0
 13 12  2  0  0  0  0
 13 15  1  0  0  0  0
 14 15  1  0  0  0  0
 15 18  2  0  0  0  0
 17  1  1  6  0  0  0
 17 11  1  0  0  0  0
 18 16  1  0  0  0  0
 19 26  1  0  0  0  0
 20 23  2  0  0  0  0
 21 22  2  0  0  0  0
 21 20  1  0  0  0  0
 22 24  1  0  0  0  0
 23 19  1  0  0  0  0
 24 19  2  0  0  0  0
 26 25  1  0  0  0  0
M  END
>  <MODEL>
5

>  <REMARK>
 VINA RESULT:      -8.0      1.944      3.000
  Name = 
  4 active torsions:
  status: ('A' for Active; 'I' for Inactive)
    1  A    between atoms: C_2  and  O_11
    2  A    between atoms: C_7  and  C_24
    3  A    between atoms: C_10  and  C_24
    4  A    between atoms: C_22  and  C_24
                            x       y       z     vdW  Elec       q    Type
                         _______ _______ _______ _____ _____    ______ ____

>  <TORSDO>
F 4

$$$$
=
 OpenBabel10222416113D

 26 29  0  0  1  0  0  0  0  0999 V2000
  188.0760  176.9770  142.8630 C   0  0  1  0  0  3  0  0  0  0  0  0
  188.0710  178.2170  140.6740 N   0  0  0  0  0  0  0  0  0  0  0  0
  189.4210  176.3780  140.8420 N   0  0  0  0  0  2  0  0  0  0  0  0
  188.6420  178.7710  138.3550 C   0  0  0  0  0  3  0  0  0  0  0  0
  188.5260  177.1980  141.4510 C   0  0  0  0  0  0  0  0  0  0  0  0
  190.2640  177.2250  137.3670 C   0  0  0  0  0  3  0  0  0  0  0  0
  188.7240  178.0150  139.5220 C   0  0  0  0  0  0  0  0  0  0  0  0
  189.5270  176.9210  139.6210 C   0  0  0  0  0  0  0  0  0  0  0  0
  189.4300  178.3600  137.2630 C   0  0  0  0  0  3  0  0  0  0  0  0
  190.3200  176.4850  138.5620 C   0  0  0  0  0  3  0  0  0  0  0  0
  190.1040  178.2910  143.6140 C   0  0  0  0  0  3  0  0  0  0  0  0
  188.6760  177.1270  145.2780 C   0  0  0  0  0  3  0  0  0  0  0  0
  189.4500  177.0880  146.3610 C   0  0  0  0  0  3  0  0  0  0  0  0
  191.7410  176.3640  147.7180 Cl  0  0  0  0  0  0  0  0  0  0  0  0
  190.9270  177.1090  146.3600 C   0  0  0  0  0  0  0  0  0  0  0  0
  191.2100  178.5480  144.3100 C   0  0  0  0  0  3  0  0  0  0  0  0
  189.2150  177.1150  143.8840 C   0  0  1  0  0  3  0  0  0  0  0  0
  191.6810  177.7850  145.4840 C   0  0  0  0  0  3  0  0  0  0  0  0
  184.4380  179.1010  143.7820 C   0  0  0  0  0  0  0  0  0  0  0  0
  186.3930  177.8790  144.5350 C   0  0  0  0  0  3  0  0  0  0  0  0
  186.8130  177.7200  143.2060 C   0  0  0  0  0  0  0  0  0  0  0  0
  186.0380  178.2530  142.1700 C   0  0  0  0  0  3  0  0  0  0  0  0
  185.2120  178.5660  144.8220 C   0  0  0  0  0  3  0  0  0  0  0  0
  184.8570  178.9410  142.4570 C   0  0  0  0  0  3  0  0  0  0  0  0
  182.0810  179.3700  143.5570 O   0  0  0  0  0  1  0  0  0  0  0  0
  183.2560  179.7900  144.0470 O   0  0  0  0  0  0  0  0  0  0  0  0
  1  5  1  6  0  0  0
  1 21  1  0  0  0  0
  2  5  2  0  0  0  0
  3  5  1  0  0  0  0
  4  7  1  0  0  0  0
  6 10  2  0  0  0  0
  7  8  2  0  0  0  0
  7  2  1  0  0  0  0
  8  3  1  0  0  0  0
  9  6  1  0  0  0  0
  9  4  2  0  0  0  0
 10  8  1  0  0  0  0
 11 17  1  0  0  0  0
 11 16  2  0  0  0  0
 12 13  2  0  0  0  0
 15 13  1  0  0  0  0
 15 14  1  0  0  0  0
 16 18  1  0  0  0  0
 17  1  1  6  0  0  0
 17 12  1  0  0  0  0
 18 15  2  0  0  0  0
 19 26  1  0  0  0  0
 19 23  1  0  0  0  0
 20 23  2  0  0  0  0
 21 20  1  0  0  0  0
 22 24  1  0  0  0  0
 22 21  2  0  0  0  0
 24 19  2  0  0  0  0
 25 26  1  0  0  0  0
M  END
>  <MODEL>
6

>  <REMARK>
 VINA RESULT:      -7.9      3.793      5.582
  Name = 
  4 active torsions:
  status: ('A' for Active; 'I' for Inactive)
    1  A    between atoms: C_2  and  O_11
    2  A    between atoms: C_7  and  C_24
    3  A    between atoms: C_10  and  C_24
    4  A    between atoms: C_22  and  C_24
                            x       y       z     vdW  Elec       q    Type
                         _______ _______ _______ _____ _____    ______ ____

>  <TORSDO>
F 4

$$$$
=
 OpenBabel10222416113D

 26 29  0  0  1  0  0  0  0  0999 V2000
  185.6980  179.0330  140.9670 C   0  0  1  0  0  3  0  0  0  0  0  0
  188.0730  178.3100  141.3740 N   0  0  0  0  0  0  0  0  0  0  0  0
  187.3070  178.2530  139.2190 N   0  0  0  0  0  2  0  0  0  0  0  0
  190.3360  177.5020  140.8860 C   0  0  0  0  0  3  0  0  0  0  0  0
  187.0350  178.5260  140.5220 C   0  0  0  0  0  0  0  0  0  0  0  0
  190.7040  177.0450  138.5090 C   0  0  0  0  0  3  0  0  0  0  0  0
  189.0380  177.8780  140.5510 C   0  0  0  0  0  0  0  0  0  0  0  0
  188.5830  177.8440  139.2690 C   0  0  0  0  0  0  0  0  0  0  0  0
  191.1770  177.0800  139.8390 C   0  0  0  0  0  3  0  0  0  0  0  0
  189.3850  177.4320  138.2080 C   0  0  0  0  0  3  0  0  0  0  0  0
  183.6180  177.6020  140.8120 C   0  0  0  0  0  3  0  0  0  0  0  0
  183.8120  179.6830  139.4720 C   0  0  0  0  0  3  0  0  0  0  0  0
  182.8630  179.5340  138.5500 C   0  0  0  0  0  3  0  0  0  0  0  0
  181.6670  178.2090  136.4460 Cl  0  0  0  0  0  0  0  0  0  0  0  0
  182.3350  178.2430  138.0630 C   0  0  0  0  0  0  0  0  0  0  0  0
  182.6060  176.9690  140.2200 C   0  0  0  0  0  3  0  0  0  0  0  0
  184.5420  178.5330  140.0880 C   0  0  1  0  0  3  0  0  0  0  0  0
  182.1890  177.1450  138.8150 C   0  0  0  0  0  3  0  0  0  0  0  0
  185.0140  178.6980  145.2110 C   0  0  0  0  0  0  0  0  0  0  0  0
  186.1670  177.9480  143.2130 C   0  0  0  0  0  3  0  0  0  0  0  0
  185.4790  178.9040  142.4500 C   0  0  0  0  0  0  0  0  0  0  0  0
  184.5580  179.7510  143.0750 C   0  0  0  0  0  3  0  0  0  0  0  0
  185.9360  177.8460  144.5870 C   0  0  0  0  0  3  0  0  0  0  0  0
  184.3270  179.6500  144.4500 C   0  0  0  0  0  3  0  0  0  0  0  0
  185.5780  179.2060  147.4700 O   0  0  0  0  0  1  0  0  0  0  0  0
  184.7700  178.6120  146.5800 O   0  0  0  0  0  0  0  0  0  0  0  0
  1  5  1  6  0  0  0
  1 21  1  0  0  0  0
  3  8  1  0  0  0  0
  3  5  1  0  0  0  0
  5  2  2  0  0  0  0
  6  9  1  0  0  0  0
  7  4  1  0  0  0  0
  7  2  1  0  0  0  0
  8  7  2  0  0  0  0
  9  4  2  0  0  0  0
 10  6  2  0  0  0  0
 10  8  1  0  0  0  0
 12 17  1  0  0  0  0
 13 12  2  0  0  0  0
 14 15  1  0  0  0  0
 15 13  1  0  0  0  0
 15 18  2  0  0  0  0
 16 11  2  0  0  0  0
 17 11  1  0  0  0  0
 17  1  1  1  0  0  0
 18 16  1  0  0  0  0
 19 26  1  0  0  0  0
 20 23  2  0  0  0  0
 21 22  2  0  0  0  0
 21 20  1  0  0  0  0
 22 24  1  0  0  0  0
 23 19  1  0  0  0  0
 24 19  2  0  0  0  0
 26 25  1  0  0  0  0
M  END
>  <MODEL>
7

>  <REMARK>
 VINA RESULT:      -7.8      3.749      5.574
  Name = 
  4 active torsions:
  status: ('A' for Active; 'I' for Inactive)
    1  A    between atoms: C_2  and  O_11
    2  A    between atoms: C_7  and  C_24
    3  A    between atoms: C_10  and  C_24
    4  A    between atoms: C_22  and  C_24
                            x       y       z     vdW  Elec       q    Type
                         _______ _______ _______ _____ _____    ______ ____

>  <TORSDO>
F 4

$$$$
=
 OpenBabel10222416113D

 26 29  0  0  1  0  0  0  0  0999 V2000
  188.5410  176.5640  143.5010 C   0  0  1  0  0  3  0  0  0  0  0  0
  186.7640  177.5610  144.9770 N   0  0  0  0  0  0  0  0  0  0  0  0
  186.3800  177.5500  142.7210 N   0  0  0  0  0  2  0  0  0  0  0  0
  184.6550  178.6370  145.6140 C   0  0  0  0  0  3  0  0  0  0  0  0
  187.2220  177.2320  143.7390 C   0  0  0  0  0  0  0  0  0  0  0  0
  183.2240  179.1620  143.6970 C   0  0  0  0  0  3  0  0  0  0  0  0
  185.5740  178.1130  144.7080 C   0  0  0  0  0  0  0  0  0  0  0  0
  185.3440  178.1070  143.3660 C   0  0  0  0  0  0  0  0  0  0  0  0
  183.4620  179.1690  145.0900 C   0  0  0  0  0  3  0  0  0  0  0  0
  184.1760  178.6240  142.8110 C   0  0  0  0  0  3  0  0  0  0  0  0
  188.4740  178.0480  141.4530 C   0  0  0  0  0  3  0  0  0  0  0  0
  190.6180  177.0500  142.2090 C   0  0  0  0  0  3  0  0  0  0  0  0
  191.4020  177.1830  141.1420 C   0  0  0  0  0  3  0  0  0  0  0  0
  192.0490  176.7380  138.4970 Cl  0  0  0  0  0  0  0  0  0  0  0  0
  190.9390  177.2670  139.7410 C   0  0  0  0  0  0  0  0  0  0  0  0
  188.7580  178.4390  140.2110 C   0  0  0  0  0  3  0  0  0  0  0  0
  189.1350  176.8810  142.1200 C   0  0  1  0  0  3  0  0  0  0  0  0
  189.8020  177.8550  139.3470 C   0  0  0  0  0  3  0  0  0  0  0  0
  191.2200  176.9810  146.8530 C   0  0  0  0  0  0  0  0  0  0  0  0
  190.8120  176.2270  144.5840 C   0  0  0  0  0  3  0  0  0  0  0  0
  189.4940  176.7050  144.6570 C   0  0  0  0  0  0  0  0  0  0  0  0
  189.0470  177.3170  145.8330 C   0  0  0  0  0  3  0  0  0  0  0  0
  191.6710  176.3650  145.6770 C   0  0  0  0  0  3  0  0  0  0  0  0
  189.9060  177.4550  146.9260 C   0  0  0  0  0  3  0  0  0  0  0  0
  192.8160  176.1110  148.3940 O   0  0  0  0  0  1  0  0  0  0  0  0
  192.0610  177.1280  147.9550 O   0  0  0  0  0  0  0  0  0  0  0  0
  1  5  1  1  0  0  0
  1 21  1  0  0  0  0
  3  8  1  0  0  0  0
  3  5  1  0  0  0  0
  5  2  2  0  0  0  0
  6  9  2  0  0  0  0
  7  2  1  0  0  0  0
  7  4  2  0  0  0  0
  8  7  1  0  0  0  0
  9  4  1  0  0  0  0
 10  8  2  0  0  0  0
 10  6  1  0  0  0  0
 11 17  1  0  0  0  0
 13 12  2  0  0  0  0
 14 15  1  0  0  0  0
 15 13  1  0  0  0  0
 16 11  2  0  0  0  0
 17 12  1  0  0  0  0
 17  1  1  1  0  0  0
 18 15  2  0  0  0  0
 18 16  1  0  0  0  0
 19 24  1  0  0  0  0
 19 26  1  0  0  0  0
 20 21  2  0  0  0  0
 20 23  1  0  0  0  0
 21 22  1  0  0  0  0
 22 24  2  0  0  0  0
 23 19  2  0  0  0  0
 26 25  1  0  0  0  0
M  END
>  <MODEL>
8

>  <REMARK>
 VINA RESULT:      -7.8      2.798      5.893
  Name = 
  4 active torsions:
  status: ('A' for Active; 'I' for Inactive)
    1  A    between atoms: C_2  and  O_11
    2  A    between atoms: C_7  and  C_24
    3  A    between atoms: C_10  and  C_24
    4  A    between atoms: C_22  and  C_24
                            x       y       z     vdW  Elec       q    Type
                         _______ _______ _______ _____ _____    ______ ____

>  <TORSDO>
F 4

$$$$
=
 OpenBabel10222416113D

 26 29  0  0  1  0  0  0  0  0999 V2000
  189.3510  177.8170  141.8700 C   0  0  1  0  0  3  0  0  0  0  0  0
  190.0660  177.8620  144.2820 N   0  0  0  0  0  0  0  0  0  0  0  0
  190.7700  176.0990  143.0040 N   0  0  0  0  0  2  0  0  0  0  0  0
  191.1570  177.1530  146.3600 C   0  0  0  0  0  3  0  0  0  0  0  0
  190.0630  177.2570  143.0630 C   0  0  0  0  0  0  0  0  0  0  0  0
  192.3970  175.0540  146.1300 C   0  0  0  0  0  3  0  0  0  0  0  0
  190.8150  177.0290  145.0150 C   0  0  0  0  0  0  0  0  0  0  0  0
  191.2350  175.9790  144.2560 C   0  0  0  0  0  0  0  0  0  0  0  0
  191.9620  176.1430  146.9180 C   0  0  0  0  0  3  0  0  0  0  0  0
  192.0320  174.9620  144.7740 C   0  0  0  0  0  3  0  0  0  0  0  0
  188.7250  177.3560  139.4620 C   0  0  0  0  0  3  0  0  0  0  0  0
  191.1090  177.4000  140.1520 C   0  0  0  0  0  3  0  0  0  0  0  0
  191.7240  176.7900  139.1410 C   0  0  0  0  0  3  0  0  0  0  0  0
  192.1740  174.6340  137.4790 Cl  0  0  0  0  0  0  0  0  0  0  0  0
  191.1090  175.7980  138.2350 C   0  0  0  0  0  0  0  0  0  0  0  0
  188.7780  176.7550  138.2740 C   0  0  0  0  0  3  0  0  0  0  0  0
  189.7060  177.0910  140.5630 C   0  0  1  0  0  3  0  0  0  0  0  0
  189.8320  175.8210  137.8330 C   0  0  0  0  0  3  0  0  0  0  0  0
  185.1430  178.4070  142.6010 C   0  0  0  0  0  0  0  0  0  0  0  0
  187.1420  178.9490  141.3390 C   0  0  0  0  0  3  0  0  0  0  0  0
  187.8800  178.0340  142.1040 C   0  0  0  0  0  0  0  0  0  0  0  0
  187.2420  177.3100  143.1180 C   0  0  0  0  0  3  0  0  0  0  0  0
  185.7800  179.1350  141.5860 C   0  0  0  0  0  3  0  0  0  0  0  0
  185.8800  177.4950  143.3640 C   0  0  0  0  0  3  0  0  0  0  0  0
  183.3200  178.6290  144.1190 O   0  0  0  0  0  1  0  0  0  0  0  0
  183.7850  178.5780  142.8620 O   0  0  0  0  0  0  0  0  0  0  0  0
  1 21  1  1  0  0  0
  1  5  1  0  0  0  0
  2  7  1  0  0  0  0
  3  5  1  0  0  0  0
  3  8  1  0  0  0  0
  4  9  1  0  0  0  0
  5  2  2  0  0  0  0
  6  9  2  0  0  0  0
  7  4  2  0  0  0  0
  8 10  2  0  0  0  0
  8  7  1  0  0  0  0
 10  6  1  0  0  0  0
 11 17  1  0  0  0  0
 12 17  1  0  0  0  0
 13 12  2  0  0  0  0
 14 15  1  0  0  0  0
 15 13  1  0  0  0  0
 16 11  2  0  0  0  0
 17  1  1  1  0  0  0
 18 15  2  0  0  0  0
 18 16  1  0  0  0  0
 19 26  1  0  0  0  0
 19 24  1  0  0  0  0
 20 23  1  0  0  0  0
 20 21  2  0  0  0  0
 21 22  1  0  0  0  0
 22 24  2  0  0  0  0
 23 19  2  0  0  0  0
 26 25  1  0  0  0  0
M  END
>  <MODEL>
9

>  <REMARK>
 VINA RESULT:      -7.7      3.777      6.563
  Name = 
  4 active torsions:
  status: ('A' for Active; 'I' for Inactive)
    1  A    between atoms: C_2  and  O_11
    2  A    between atoms: C_7  and  C_24
    3  A    between atoms: C_10  and  C_24
    4  A    between atoms: C_22  and  C_24
                            x       y       z     vdW  Elec       q    Type
                         _______ _______ _______ _____ _____    ______ ____

>  <TORSDO>
F 4

$$$$
