=
 OpenBabel10222416303D

 32 34  0  0  1  0  0  0  0  0999 V2000
  183.1580  179.3990  143.7040 C   0  0  0  0  0  2  0  0  0  0  0  0
  182.0430  178.9500  142.7710 C   0  0  0  0  0  2  0  0  0  0  0  0
  182.6040  178.6940  141.3780 C   0  0  0  0  0  2  0  0  0  0  0  0
  183.7470  177.6730  141.4510 C   0  0  0  0  0  2  0  0  0  0  0  0
  184.8170  178.0960  142.3670 N   0  0  0  0  0  0  0  0  0  0  0  0
  184.2620  178.3390  143.7140 C   0  0  1  0  0  3  0  0  0  0  0  0
  185.4740  179.2880  141.8300 C   0  0  0  0  0  2  0  0  0  0  0  0
  186.8900  178.9460  141.4130 C   0  0  0  0  0  2  0  0  0  0  0  0
  186.9100  178.6080  139.9990 N   0  0  0  0  0  2  0  0  0  0  0  0
  188.1480  177.8870  139.7460 C   0  0  2  0  0  3  0  0  0  0  0  0
  188.8310  177.5610  141.0640 C   0  0  0  0  0  2  0  0  0  0  0  0
  190.2070  176.9720  140.8160 C   0  0  0  0  0  1  0  0  0  0  0  0
  189.0630  178.6970  138.8280 C   0  0  0  0  0  2  0  0  0  0  0  0
  188.4920  178.8120  137.4930 N   0  0  0  0  0  2  0  0  0  0  0  0
  187.9480  176.1150  136.6560 C   0  0  0  0  0  1  0  0  0  0  0  0
  190.4170  177.0550  137.0900 O   0  0  0  0  0  0  0  0  0  0  0  0
  189.2340  177.9010  135.1180 O   0  0  0  0  0  0  0  0  0  0  0  0
  189.0800  177.4830  136.5540 S   0  0  0  0  0  0  0  0  0  0  0  0
  185.3460  178.7010  144.7230 C   0  0  0  0  0  2  0  0  0  0  0  0
  186.3220  177.5490  144.8830 C   0  0  0  0  0  2  0  0  0  0  0  0
  189.5250  178.0240  147.1740 C   0  0  0  0  0  0  0  0  0  0  0  0
  190.4620  176.8900  147.4260 C   0  0  0  0  0  3  0  0  0  0  0  0
  192.5310  175.2670  147.0790 Cl  0  0  0  0  0  0  0  0  0  0  0  0
  189.2490  177.7100  144.7340 C   0  0  0  0  0  3  0  0  0  0  0  0
  188.7250  178.2700  148.3790 N   0  0  0  0  0  0  0  0  0  0  0  0
  190.6970  177.6650  144.4590 C   0  0  0  0  0  3  0  0  0  0  0  0
  191.6390  177.1490  145.2570 C   0  0  0  0  0  3  0  0  0  0  0  0
  188.6820  177.7980  145.9430 C   0  0  0  0  0  0  0  0  0  0  0  0
  187.2090  177.7850  146.0640 C   0  0  1  0  0  3  0  0  0  0  0  0
  191.4190  176.5220  146.5740 C   0  0  0  0  0  0  0  0  0  0  0  0
  186.6490  178.0120  147.2460 C   0  0  0  0  0  3  0  0  0  0  0  0
  187.4490  178.2610  148.4060 N   0  0  0  0  0  0  0  0  0  0  0  0
  1  6  1  0  0  0  0
  2  1  1  0  0  0  0
  3  4  1  0  0  0  0
  3  2  1  0  0  0  0
  4  5  1  0  0  0  0
  5  6  1  0  0  0  0
  6 19  1  1  0  0  0
  7  5  1  0  0  0  0
  8  7  1  0  0  0  0
  9  8  1  0  0  0  0
 10 13  1  6  0  0  0
 10  9  1  0  0  0  0
 10 11  1  0  0  0  0
 12 11  1  0  0  0  0
 14 13  1  0  0  0  0
 17 18  2  0  0  0  0
 18 15  1  0  0  0  0
 18 16  2  0  0  0  0
 18 14  1  0  0  0  0
 19 20  1  0  0  0  0
 21 22  1  0  0  0  0
 21 25  2  0  0  0  0
 24 28  2  0  0  0  0
 25 32  1  0  0  0  0
 26 24  1  0  0  0  0
 26 27  2  0  0  0  0
 27 30  1  0  0  0  0
 28 29  1  0  0  0  0
 28 21  1  0  0  0  0
 29 20  1  6  0  0  0
 29 31  1  0  0  0  0
 30 23  1  0  0  0  0
 30 22  2  0  0  0  0
 31 32  2  0  0  0  0
M  END
>  <MODEL>
1

>  <REMARK>
 VINA RESULT:      -8.4      0.000      0.000
  Name = 
  11 active torsions:
  status: ('A' for Active; 'I' for Inactive)
    1  A    between atoms: C_3  and  N_15
    2  A    between atoms: C_3  and  C_16
    3  A    between atoms: C_7  and  N_12
    4  A    between atoms: C_7  and  C_26
    5  A    between atoms: N_12  and  S_23
    6  A    between atoms: C_14  and  C_26
    7  A    between atoms: C_16  and  N_31
    8  A    between atoms: C_18  and  C_24
    9  A    between atoms: C_18  and  C_27
   10  A    between atoms: C_26  and  N_31
   11  A    between atoms: C_27  and  C_32
                            x       y       z     vdW  Elec       q    Type
                         _______ _______ _______ _____ _____    ______ ____

>  <TORSDO>
F 11

$$$$
=
 OpenBabel10222416303D

 32 34  0  0  1  0  0  0  0  0999 V2000
  183.2730  179.4750  143.5750 C   0  0  0  0  0  2  0  0  0  0  0  0
  181.9810  179.0510  142.8920 C   0  0  0  0  0  2  0  0  0  0  0  0
  182.2530  178.7090  141.4330 C   0  0  0  0  0  2  0  0  0  0  0  0
  183.3410  177.6310  141.3390 C   0  0  0  0  0  2  0  0  0  0  0  0
  184.5850  178.0310  142.0150 N   0  0  0  0  0  0  0  0  0  0  0  0
  184.3090  178.3580  143.4290 C   0  0  1  0  0  3  0  0  0  0  0  0
  185.1810  179.1640  141.3050 C   0  0  0  0  0  2  0  0  0  0  0  0
  186.4450  178.7160  140.6000 C   0  0  0  0  0  2  0  0  0  0  0  0
  186.2120  178.6760  139.1660 N   0  0  0  0  0  2  0  0  0  0  0  0
  187.4330  178.1880  138.5440 C   0  0  2  0  0  3  0  0  0  0  0  0
  187.1050  177.0480  137.5930 C   0  0  0  0  0  2  0  0  0  0  0  0
  185.7410  177.2610  136.9630 C   0  0  0  0  0  1  0  0  0  0  0  0
  188.4410  177.7550  139.6080 C   0  0  0  0  0  2  0  0  0  0  0  0
  189.8070  177.9780  139.1530 N   0  0  0  0  0  2  0  0  0  0  0  0
  192.4280  177.4200  140.1990 C   0  0  0  0  0  1  0  0  0  0  0  0
  190.9290  175.6020  138.9280 O   0  0  0  0  0  0  0  0  0  0  0  0
  190.1890  176.2910  141.1600 O   0  0  0  0  0  0  0  0  0  0  0  0
  190.8070  176.7630  139.8740 S   0  0  0  0  0  0  0  0  0  0  0  0
  185.5810  178.7010  144.1950 C   0  0  0  0  0  2  0  0  0  0  0  0
  186.3000  177.4310  144.6170 C   0  0  0  0  0  2  0  0  0  0  0  0
  189.4110  178.0120  147.0070 C   0  0  0  0  0  0  0  0  0  0  0  0
  190.3840  176.9130  147.2800 C   0  0  0  0  0  3  0  0  0  0  0  0
  192.5240  175.3740  146.9840 Cl  0  0  0  0  0  0  0  0  0  0  0  0
  189.2220  177.7080  144.5580 C   0  0  0  0  0  3  0  0  0  0  0  0
  188.5660  178.2160  148.1890 N   0  0  0  0  0  0  0  0  0  0  0  0
  190.6780  177.7210  144.3270 C   0  0  0  0  0  3  0  0  0  0  0  0
  191.6150  177.2350  145.1490 C   0  0  0  0  0  3  0  0  0  0  0  0
  188.6150  177.7630  145.7490 C   0  0  0  0  0  0  0  0  0  0  0  0
  187.1410  177.6930  145.8250 C   0  0  1  0  0  3  0  0  0  0  0  0
  191.3800  176.5890  146.4550 C   0  0  0  0  0  0  0  0  0  0  0  0
  186.5370  177.8870  146.9910 C   0  0  0  0  0  3  0  0  0  0  0  0
  187.2910  178.1580  148.1770 N   0  0  0  0  0  0  0  0  0  0  0  0
  2  1  1  0  0  0  0
  3  2  1  0  0  0  0
  4  3  1  0  0  0  0
  4  5  1  0  0  0  0
  5  6  1  0  0  0  0
  6  1  1  0  0  0  0
  6 19  1  6  0  0  0
  7  5  1  0  0  0  0
  8  7  1  0  0  0  0
  9  8  1  0  0  0  0
 10 11  1  6  0  0  0
 10  9  1  0  0  0  0
 10 13  1  0  0  0  0
 12 11  1  0  0  0  0
 14 13  1  0  0  0  0
 14 18  1  0  0  0  0
 16 18  2  0  0  0  0
 18 15  1  0  0  0  0
 18 17  2  0  0  0  0
 19 20  1  0  0  0  0
 21 22  1  0  0  0  0
 21 25  2  0  0  0  0
 24 28  2  0  0  0  0
 26 24  1  0  0  0  0
 26 27  2  0  0  0  0
 27 30  1  0  0  0  0
 28 29  1  0  0  0  0
 28 21  1  0  0  0  0
 29 20  1  6  0  0  0
 29 31  1  0  0  0  0
 30 23  1  0  0  0  0
 30 22  2  0  0  0  0
 31 32  2  0  0  0  0
 32 25  1  0  0  0  0
M  END
>  <MODEL>
2

>  <REMARK>
 VINA RESULT:      -8.1      1.416      2.222
  Name = 
  11 active torsions:
  status: ('A' for Active; 'I' for Inactive)
    1  A    between atoms: C_3  and  N_15
    2  A    between atoms: C_3  and  C_16
    3  A    between atoms: C_7  and  N_12
    4  A    between atoms: C_7  and  C_26
    5  A    between atoms: N_12  and  S_23
    6  A    between atoms: C_14  and  C_26
    7  A    between atoms: C_16  and  N_31
    8  A    between atoms: C_18  and  C_24
    9  A    between atoms: C_18  and  C_27
   10  A    between atoms: C_26  and  N_31
   11  A    between atoms: C_27  and  C_32
                            x       y       z     vdW  Elec       q    Type
                         _______ _______ _______ _____ _____    ______ ____

>  <TORSDO>
F 11

$$$$
=
 OpenBabel10222416303D

 32 34  0  0  1  0  0  0  0  0999 V2000
  184.4510  178.0690  141.9510 C   0  0  0  0  0  2  0  0  0  0  0  0
  183.0750  178.6780  142.1790 C   0  0  0  0  0  2  0  0  0  0  0  0
  182.8380  178.8780  143.6700 C   0  0  0  0  0  2  0  0  0  0  0  0
  183.9590  179.7350  144.2720 C   0  0  0  0  0  2  0  0  0  0  0  0
  185.2910  179.1580  144.0370 N   0  0  0  0  0  0  0  0  0  0  0  0
  185.5110  178.9700  142.5880 C   0  0  1  0  0  3  0  0  0  0  0  0
  185.4110  177.8960  144.7690 C   0  0  0  0  0  2  0  0  0  0  0  0
  185.5150  178.1770  146.2540 C   0  0  0  0  0  2  0  0  0  0  0  0
  186.8500  178.6620  146.5630 N   0  0  0  0  0  2  0  0  0  0  0  0
  187.7650  177.5430  146.4000 C   0  0  2  0  0  3  0  0  0  0  0  0
  188.2750  177.0950  147.7610 C   0  0  0  0  0  2  0  0  0  0  0  0
  188.7920  178.2830  148.5490 C   0  0  0  0  0  1  0  0  0  0  0  0
  188.9170  177.9240  145.4710 C   0  0  0  0  0  2  0  0  0  0  0  0
  189.5190  176.7380  144.8750 N   0  0  0  0  0  2  0  0  0  0  0  0
  191.6240  178.4780  143.9720 C   0  0  0  0  0  1  0  0  0  0  0  0
  191.8800  175.8190  144.1420 O   0  0  0  0  0  0  0  0  0  0  0  0
  191.7610  177.0620  146.2500 O   0  0  0  0  0  0  0  0  0  0  0  0
  191.2330  176.9780  144.8450 S   0  0  0  0  0  0  0  0  0  0  0  0
  186.9120  178.4490  142.2850 C   0  0  0  0  0  2  0  0  0  0  0  0
  187.1910  178.5270  140.7940 C   0  0  0  0  0  2  0  0  0  0  0  0
  190.2290  176.9210  138.8140 C   0  0  2  0  0  3  0  0  0  0  0  0
  190.0010  175.8640  137.7860 C   0  0  0  0  0  3  0  0  0  0  0  0
  189.5450  174.7860  135.4050 Cl  0  0  0  0  0  0  0  0  0  0  0  0
  188.4210  178.4670  138.1300 C   0  0  0  0  0  3  0  0  0  0  0  0
  190.7960  176.3090  140.0210 N   0  0  0  0  0  0  0  0  0  0  0  0
  188.8230  178.4940  136.7110 C   0  0  0  0  0  3  0  0  0  0  0  0
  189.3470  177.4770  136.0170 C   0  0  0  0  0  3  0  0  0  0  0  0
  188.9800  177.7210  139.0900 C   0  0  0  0  0  0  0  0  0  0  0  0
  188.4350  177.7660  140.4630 C   0  0  0  0  0  0  0  0  0  0  0  0
  189.6300  176.1230  136.5310 C   0  0  0  0  0  0  0  0  0  0  0  0
  189.0750  177.1350  141.4400 C   0  0  0  0  0  3  0  0  0  0  0  0
  190.2790  176.4050  141.1840 N   0  0  0  0  0  0  0  0  0  0  0  0
  1  2  1  0  0  0  0
  1  6  1  0  0  0  0
  2  3  1  0  0  0  0
  3  4  1  0  0  0  0
  5  4  1  0  0  0  0
  5  7  1  0  0  0  0
  6 19  1  1  0  0  0
  6  5  1  0  0  0  0
  7  8  1  0  0  0  0
  8  9  1  0  0  0  0
 10 13  1  6  0  0  0
 10  9  1  0  0  0  0
 10 11  1  0  0  0  0
 11 12  1  0  0  0  0
 14 13  1  0  0  0  0
 15 18  1  0  0  0  0
 16 18  2  0  0  0  0
 18 14  1  0  0  0  0
 18 17  2  0  0  0  0
 20 19  1  0  0  0  0
 21 22  1  6  0  0  0
 21 28  1  0  0  0  0
 21 25  1  0  0  0  0
 23 30  1  0  0  0  0
 24 28  2  0  0  0  0
 25 32  2  0  0  0  0
 26 24  1  0  0  0  0
 27 30  1  0  0  0  0
 27 26  2  0  0  0  0
 28 29  1  0  0  0  0
 29 20  1  0  0  0  0
 29 31  2  0  0  0  0
 30 22  2  0  0  0  0
 32 31  1  0  0  0  0
M  END
>  <MODEL>
3

>  <REMARK>
 VINA RESULT:      -7.8      3.781      7.083
  Name = 
  11 active torsions:
  status: ('A' for Active; 'I' for Inactive)
    1  A    between atoms: C_3  and  N_15
    2  A    between atoms: C_3  and  C_16
    3  A    between atoms: C_7  and  N_12
    4  A    between atoms: C_7  and  C_26
    5  A    between atoms: N_12  and  S_23
    6  A    between atoms: C_14  and  C_26
    7  A    between atoms: C_16  and  N_31
    8  A    between atoms: C_18  and  C_24
    9  A    between atoms: C_18  and  C_27
   10  A    between atoms: C_26  and  N_31
   11  A    between atoms: C_27  and  C_32
                            x       y       z     vdW  Elec       q    Type
                         _______ _______ _______ _____ _____    ______ ____

>  <TORSDO>
F 11

$$$$
=
 OpenBabel10222416303D

 32 34  0  0  1  0  0  0  0  0999 V2000
  189.3310  176.8000  145.2110 C   0  0  0  0  0  2  0  0  0  0  0  0
  190.5360  177.5200  145.8000 C   0  0  0  0  0  2  0  0  0  0  0  0
  191.5630  177.7880  144.7080 C   0  0  0  0  0  2  0  0  0  0  0  0
  190.9190  178.5760  143.5600 C   0  0  0  0  0  2  0  0  0  0  0  0
  189.7430  177.8910  143.0020 N   0  0  0  0  0  0  0  0  0  0  0  0
  188.7530  177.6380  144.0690 C   0  0  1  0  0  3  0  0  0  0  0  0
  190.1670  176.6490  142.3530 C   0  0  0  0  0  2  0  0  0  0  0  0
  190.6730  176.9510  140.9570 C   0  0  0  0  0  2  0  0  0  0  0  0
  189.5610  177.3610  140.1170 N   0  0  0  0  0  2  0  0  0  0  0  0
  190.0600  177.4490  138.7530 C   0  0  2  0  0  3  0  0  0  0  0  0
  188.8950  177.6330  137.7920 C   0  0  0  0  0  2  0  0  0  0  0  0
  188.9410  179.0130  137.1630 C   0  0  0  0  0  1  0  0  0  0  0  0
  190.8830  176.2100  138.4020 C   0  0  0  0  0  2  0  0  0  0  0  0
  191.6610  176.4290  137.1900 N   0  0  0  0  0  2  0  0  0  0  0  0
  193.6080  174.3700  137.6820 C   0  0  0  0  0  1  0  0  0  0  0  0
  193.6510  176.7580  138.8900 O   0  0  0  0  0  0  0  0  0  0  0  0
  194.2050  176.7080  136.5040 O   0  0  0  0  0  0  0  0  0  0  0  0
  193.3220  176.1220  137.5690 S   0  0  0  0  0  0  0  0  0  0  0  0
  187.4790  177.0020  143.5270 C   0  0  0  0  0  2  0  0  0  0  0  0
  186.2860  177.9050  143.7900 C   0  0  0  0  0  2  0  0  0  0  0  0
  183.7760  179.2480  141.0290 C   0  0  0  0  0  0  0  0  0  0  0  0
  182.6560  178.3960  140.5310 C   0  0  0  0  0  3  0  0  0  0  0  0
  180.2300  177.3340  140.3890 Cl  0  0  0  0  0  0  0  0  0  0  0  0
  183.5090  178.7930  143.4480 C   0  0  0  0  0  3  0  0  0  0  0  0
  184.8200  179.3260  140.0030 N   0  0  0  0  0  0  0  0  0  0  0  0
  182.0680  179.1030  143.4660 C   0  0  0  0  0  3  0  0  0  0  0  0
  181.1940  178.8680  142.4800 C   0  0  0  0  0  3  0  0  0  0  0  0
  184.2950  178.7760  142.3650 C   0  0  0  0  0  0  0  0  0  0  0  0
  185.7170  178.3970  142.4980 C   0  0  0  0  0  0  0  0  0  0  0  0
  181.4970  178.2510  141.1740 C   0  0  2  0  0  3  0  0  0  0  0  0
  186.5250  178.5160  141.4510 C   0  0  0  0  0  3  0  0  0  0  0  0
  186.0390  178.9970  140.1940 N   0  0  0  0  0  0  0  0  0  0  0  0
  1  2  1  0  0  0  0
  3  2  1  0  0  0  0
  4  3  1  0  0  0  0
  5  4  1  0  0  0  0
  5  6  1  0  0  0  0
  6 19  1  6  0  0  0
  6  1  1  0  0  0  0
  7  5  1  0  0  0  0
  8  7  1  0  0  0  0
  9  8  1  0  0  0  0
 10 11  1  6  0  0  0
 10  9  1  0  0  0  0
 12 11  1  0  0  0  0
 13 10  1  0  0  0  0
 14 18  1  0  0  0  0
 14 13  1  0  0  0  0
 17 18  2  0  0  0  0
 18 15  1  0  0  0  0
 18 16  2  0  0  0  0
 19 20  1  0  0  0  0
 21 28  1  0  0  0  0
 22 21  2  0  0  0  0
 22 30  1  0  0  0  0
 24 26  1  0  0  0  0
 25 32  2  0  0  0  0
 25 21  1  0  0  0  0
 27 26  2  0  0  0  0
 28 29  1  0  0  0  0
 28 24  2  0  0  0  0
 29 20  1  0  0  0  0
 30 23  1  6  0  0  0
 30 27  1  0  0  0  0
 31 29  2  0  0  0  0
 32 31  1  0  0  0  0
M  END
>  <MODEL>
4

>  <REMARK>
 VINA RESULT:      -7.6      3.546      6.928
  Name = 
  11 active torsions:
  status: ('A' for Active; 'I' for Inactive)
    1  A    between atoms: C_3  and  N_15
    2  A    between atoms: C_3  and  C_16
    3  A    between atoms: C_7  and  N_12
    4  A    between atoms: C_7  and  C_26
    5  A    between atoms: N_12  and  S_23
    6  A    between atoms: C_14  and  C_26
    7  A    between atoms: C_16  and  N_31
    8  A    between atoms: C_18  and  C_24
    9  A    between atoms: C_18  and  C_27
   10  A    between atoms: C_26  and  N_31
   11  A    between atoms: C_27  and  C_32
                            x       y       z     vdW  Elec       q    Type
                         _______ _______ _______ _____ _____    ______ ____

>  <TORSDO>
F 11

$$$$
=
 OpenBabel10222416303D

 32 34  0  0  1  0  0  0  0  0999 V2000
  189.4130  176.7940  145.3950 C   0  0  0  0  0  2  0  0  0  0  0  0
  190.6240  177.5300  145.9500 C   0  0  0  0  0  2  0  0  0  0  0  0
  191.6230  177.7990  144.8320 C   0  0  0  0  0  2  0  0  0  0  0  0
  190.9450  178.5720  143.6940 C   0  0  0  0  0  2  0  0  0  0  0  0
  189.7630  177.8710  143.1690 N   0  0  0  0  0  0  0  0  0  0  0  0
  188.8000  177.6180  144.2610 C   0  0  1  0  0  3  0  0  0  0  0  0
  190.1830  176.6290  142.5190 C   0  0  0  0  0  2  0  0  0  0  0  0
  190.9440  176.9500  141.2490 C   0  0  0  0  0  2  0  0  0  0  0  0
  190.0040  177.1560  140.1600 N   0  0  0  0  0  2  0  0  0  0  0  0
  190.4230  176.3010  139.0600 C   0  0  2  0  0  3  0  0  0  0  0  0
  191.7450  176.8000  138.4970 C   0  0  0  0  0  2  0  0  0  0  0  0
  192.5520  175.6430  137.9400 C   0  0  0  0  0  1  0  0  0  0  0  0
  189.3420  176.2480  137.9810 C   0  0  0  0  0  2  0  0  0  0  0  0
  188.2180  177.1070  138.3280 N   0  0  0  0  0  2  0  0  0  0  0  0
  188.7150  177.8030  135.5810 C   0  0  0  0  0  1  0  0  0  0  0  0
  189.0550  179.5050  137.6190 O   0  0  0  0  0  0  0  0  0  0  0  0
  186.7500  178.9030  137.0460 O   0  0  0  0  0  0  0  0  0  0  0  0
  188.1580  178.3890  137.1660 S   0  0  0  0  0  0  0  0  0  0  0  0
  187.5200  176.9650  143.7540 C   0  0  0  0  0  2  0  0  0  0  0  0
  186.3330  177.8850  143.9850 C   0  0  0  0  0  2  0  0  0  0  0  0
  183.9060  179.2340  141.1530 C   0  0  0  0  0  0  0  0  0  0  0  0
  182.8020  178.3830  140.6200 C   0  0  0  0  0  3  0  0  0  0  0  0
  180.3810  177.3210  140.4030 Cl  0  0  0  0  0  0  0  0  0  0  0  0
  183.5670  178.7730  143.5620 C   0  0  0  0  0  3  0  0  0  0  0  0
  184.9810  179.3140  140.1580 N   0  0  0  0  0  0  0  0  0  0  0  0
  182.1260  179.0830  143.5370 C   0  0  0  0  0  3  0  0  0  0  0  0
  181.2820  178.8510  142.5260 C   0  0  0  0  0  3  0  0  0  0  0  0
  184.3850  178.7580  142.5020 C   0  0  0  0  0  0  0  0  0  0  0  0
  185.8030  178.3800  142.6770 C   0  0  0  0  0  0  0  0  0  0  0  0
  181.6240  178.2370  141.2280 C   0  0  2  0  0  3  0  0  0  0  0  0
  186.6410  178.5010  141.6540 C   0  0  0  0  0  3  0  0  0  0  0  0
  186.1930  178.9850  140.3850 N   0  0  0  0  0  0  0  0  0  0  0  0
  1  2  1  0  0  0  0
  3  2  1  0  0  0  0
  4  3  1  0  0  0  0
  5  4  1  0  0  0  0
  5  6  1  0  0  0  0
  6 19  1  6  0  0  0
  6  1  1  0  0  0  0
  7  5  1  0  0  0  0
  8  7  1  0  0  0  0
  9  8  1  0  0  0  0
 10 13  1  6  0  0  0
 10  9  1  0  0  0  0
 11 10  1  0  0  0  0
 12 11  1  0  0  0  0
 13 14  1  0  0  0  0
 15 18  1  0  0  0  0
 17 18  2  0  0  0  0
 18 16  2  0  0  0  0
 18 14  1  0  0  0  0
 19 20  1  0  0  0  0
 21 28  1  0  0  0  0
 22 21  2  0  0  0  0
 22 30  1  0  0  0  0
 25 32  2  0  0  0  0
 25 21  1  0  0  0  0
 26 24  1  0  0  0  0
 27 26  2  0  0  0  0
 28 29  1  0  0  0  0
 28 24  2  0  0  0  0
 29 20  1  0  0  0  0
 30 23  1  6  0  0  0
 30 27  1  0  0  0  0
 31 29  2  0  0  0  0
 32 31  1  0  0  0  0
M  END
>  <MODEL>
5

>  <REMARK>
 VINA RESULT:      -7.6      3.293      6.696
  Name = 
  11 active torsions:
  status: ('A' for Active; 'I' for Inactive)
    1  A    between atoms: C_3  and  N_15
    2  A    between atoms: C_3  and  C_16
    3  A    between atoms: C_7  and  N_12
    4  A    between atoms: C_7  and  C_26
    5  A    between atoms: N_12  and  S_23
    6  A    between atoms: C_14  and  C_26
    7  A    between atoms: C_16  and  N_31
    8  A    between atoms: C_18  and  C_24
    9  A    between atoms: C_18  and  C_27
   10  A    between atoms: C_26  and  N_31
   11  A    between atoms: C_27  and  C_32
                            x       y       z     vdW  Elec       q    Type
                         _______ _______ _______ _____ _____    ______ ____

>  <TORSDO>
F 11

$$$$
=
 OpenBabel10222416303D

 32 34  0  0  1  0  0  0  0  0999 V2000
  189.6200  176.7180  138.6010 C   0  0  0  0  0  2  0  0  0  0  0  0
  190.2630  177.1500  137.2920 C   0  0  0  0  0  2  0  0  0  0  0  0
  189.2280  177.8310  136.4060 C   0  0  0  0  0  2  0  0  0  0  0  0
  188.5880  179.0070  137.1540 C   0  0  0  0  0  2  0  0  0  0  0  0
  187.9820  178.5960  138.4290 N   0  0  0  0  0  0  0  0  0  0  0  0
  188.9940  177.9390  139.2800 C   0  0  1  0  0  3  0  0  0  0  0  0
  186.8440  177.7140  138.1650 C   0  0  0  0  0  2  0  0  0  0  0  0
  185.5510  178.4860  138.3320 C   0  0  0  0  0  2  0  0  0  0  0  0
  185.5750  179.2040  139.5950 N   0  0  0  0  0  2  0  0  0  0  0  0
  184.7580  178.4510  140.5350 C   0  0  2  0  0  3  0  0  0  0  0  0
  183.3100  178.4500  140.0690 C   0  0  0  0  0  2  0  0  0  0  0  0
  182.8030  177.0270  139.9240 C   0  0  0  0  0  1  0  0  0  0  0  0
  184.8900  179.0300  141.9430 C   0  0  0  0  0  2  0  0  0  0  0  0
  184.3200  178.1260  142.9330 N   0  0  0  0  0  2  0  0  0  0  0  0
  181.6660  179.0000  143.6150 C   0  0  0  0  0  1  0  0  0  0  0  0
  183.8500  180.5050  143.9680 O   0  0  0  0  0  0  0  0  0  0  0  0
  183.5860  178.5650  145.4410 O   0  0  0  0  0  0  0  0  0  0  0  0
  183.3910  179.0770  144.0410 S   0  0  0  0  0  0  0  0  0  0  0  0
  188.4360  177.5660  140.6490 C   0  0  0  0  0  2  0  0  0  0  0  0
  188.9270  178.5440  141.7020 C   0  0  0  0  0  2  0  0  0  0  0  0
  189.7790  176.7430  145.1310 C   0  0  0  0  0  0  0  0  0  0  0  0
  189.8250  177.5110  146.4100 C   0  0  0  0  0  3  0  0  0  0  0  0
  188.9730  178.6050  148.6710 Cl  0  0  0  0  0  0  0  0  0  0  0  0
  187.6850  177.7030  144.2250 C   0  0  0  0  0  3  0  0  0  0  0  0
  191.1460  176.4150  144.7120 N   0  0  0  0  0  0  0  0  0  0  0  0
  186.9040  177.4540  145.4510 C   0  0  0  0  0  3  0  0  0  0  0  0
  187.3610  177.5090  146.7070 C   0  0  0  0  0  3  0  0  0  0  0  0
  188.9920  177.4650  144.0660 C   0  0  0  0  0  0  0  0  0  0  0  0
  189.6490  177.8130  142.7880 C   0  0  0  0  0  0  0  0  0  0  0  0
  188.7420  177.8280  147.1200 C   0  0  2  0  0  3  0  0  0  0  0  0
  190.9090  177.4490  142.5820 C   0  0  0  0  0  3  0  0  0  0  0  0
  191.6440  176.7330  143.5800 N   0  0  0  0  0  0  0  0  0  0  0  0
  1  6  1  0  0  0  0
  2  1  1  0  0  0  0
  3  4  1  0  0  0  0
  3  2  1  0  0  0  0
  4  5  1  0  0  0  0
  5  6  1  0  0  0  0
  6 19  1  1  0  0  0
  7  8  1  0  0  0  0
  7  5  1  0  0  0  0
  8  9  1  0  0  0  0
  9 10  1  0  0  0  0
 10 11  1  6  0  0  0
 10 13  1  0  0  0  0
 12 11  1  0  0  0  0
 13 14  1  0  0  0  0
 14 18  1  0  0  0  0
 15 18  1  0  0  0  0
 16 18  2  0  0  0  0
 18 17  2  0  0  0  0
 19 20  1  0  0  0  0
 20 29  1  0  0  0  0
 21 22  2  0  0  0  0
 22 30  1  0  0  0  0
 24 26  1  0  0  0  0
 25 21  1  0  0  0  0
 26 27  2  0  0  0  0
 27 30  1  0  0  0  0
 28 24  2  0  0  0  0
 28 21  1  0  0  0  0
 29 28  1  0  0  0  0
 30 23  1  1  0  0  0
 31 29  2  0  0  0  0
 31 32  1  0  0  0  0
 32 25  2  0  0  0  0
M  END
>  <MODEL>
6

>  <REMARK>
 VINA RESULT:      -7.5      3.779      6.239
  Name = 
  11 active torsions:
  status: ('A' for Active; 'I' for Inactive)
    1  A    between atoms: C_3  and  N_15
    2  A    between atoms: C_3  and  C_16
    3  A    between atoms: C_7  and  N_12
    4  A    between atoms: C_7  and  C_26
    5  A    between atoms: N_12  and  S_23
    6  A    between atoms: C_14  and  C_26
    7  A    between atoms: C_16  and  N_31
    8  A    between atoms: C_18  and  C_24
    9  A    between atoms: C_18  and  C_27
   10  A    between atoms: C_26  and  N_31
   11  A    between atoms: C_27  and  C_32
                            x       y       z     vdW  Elec       q    Type
                         _______ _______ _______ _____ _____    ______ ____

>  <TORSDO>
F 11

$$$$
=
 OpenBabel10222416303D

 32 34  0  0  1  0  0  0  0  0999 V2000
  189.3980  176.9000  138.4790 C   0  0  0  0  0  2  0  0  0  0  0  0
  189.9750  177.3580  137.1480 C   0  0  0  0  0  2  0  0  0  0  0  0
  188.8630  177.9020  136.2600 C   0  0  0  0  0  2  0  0  0  0  0  0
  188.1130  179.0270  136.9860 C   0  0  0  0  0  2  0  0  0  0  0  0
  187.5700  178.5920  138.2820 N   0  0  0  0  0  0  0  0  0  0  0  0
  188.6570  178.0690  139.1340 C   0  0  1  0  0  3  0  0  0  0  0  0
  186.5270  177.5890  138.0600 C   0  0  0  0  0  2  0  0  0  0  0  0
  185.1680  178.2000  138.3330 C   0  0  0  0  0  2  0  0  0  0  0  0
  185.2890  179.2100  139.3710 N   0  0  0  0  0  2  0  0  0  0  0  0
  184.1590  179.0430  140.2710 C   0  0  2  0  0  3  0  0  0  0  0  0
  184.6010  178.2900  141.5160 C   0  0  0  0  0  2  0  0  0  0  0  0
  184.9500  179.2640  142.6260 C   0  0  0  0  0  1  0  0  0  0  0  0
  183.0120  178.3220  139.5630 C   0  0  0  0  0  2  0  0  0  0  0  0
  182.2620  177.4930  140.4970 N   0  0  0  0  0  2  0  0  0  0  0  0
  181.0800  178.9890  142.6510 C   0  0  0  0  0  1  0  0  0  0  0  0
  179.6630  177.4890  140.9460 O   0  0  0  0  0  0  0  0  0  0  0  0
  180.6490  179.5490  140.0600 O   0  0  0  0  0  0  0  0  0  0  0  0
  180.8650  178.3880  140.9900 S   0  0  0  0  0  0  0  0  0  0  0  0
  188.1590  177.6790  140.5210 C   0  0  0  0  0  2  0  0  0  0  0  0
  188.7180  178.6290  141.5670 C   0  0  0  0  0  2  0  0  0  0  0  0
  189.6960  176.7460  144.9180 C   0  0  0  0  0  0  0  0  0  0  0  0
  189.8130  177.4880  146.2070 C   0  0  0  0  0  3  0  0  0  0  0  0
  189.0830  178.5490  148.5260 Cl  0  0  0  0  0  0  0  0  0  0  0  0
  187.5780  177.7570  144.1270 C   0  0  0  0  0  3  0  0  0  0  0  0
  191.0360  176.4060  144.4290 N   0  0  0  0  0  0  0  0  0  0  0  0
  186.8500  177.4960  145.3830 C   0  0  0  0  0  3  0  0  0  0  0  0
  187.3650  177.5180  146.6170 C   0  0  0  0  0  3  0  0  0  0  0  0
  188.8730  177.5020  143.9040 C   0  0  0  0  0  0  0  0  0  0  0  0
  189.4770  177.8650  142.6040 C   0  0  0  0  0  0  0  0  0  0  0  0
  188.7680  177.8070  146.9720 C   0  0  2  0  0  3  0  0  0  0  0  0
  190.7200  177.4870  142.3340 C   0  0  0  0  0  3  0  0  0  0  0  0
  191.4870  176.7390  143.2830 N   0  0  0  0  0  0  0  0  0  0  0  0
  1  6  1  0  0  0  0
  2  1  1  0  0  0  0
  3  4  1  0  0  0  0
  3  2  1  0  0  0  0
  4  5  1  0  0  0  0
  5  6  1  0  0  0  0
  6 19  1  1  0  0  0
  7  5  1  0  0  0  0
  7  8  1  0  0  0  0
  8  9  1  0  0  0  0
  9 10  1  0  0  0  0
 10 13  1  6  0  0  0
 10 11  1  0  0  0  0
 11 12  1  0  0  0  0
 13 14  1  0  0  0  0
 14 18  1  0  0  0  0
 16 18  2  0  0  0  0
 17 18  2  0  0  0  0
 18 15  1  0  0  0  0
 19 20  1  0  0  0  0
 20 29  1  0  0  0  0
 21 22  2  0  0  0  0
 22 30  1  0  0  0  0
 24 26  1  0  0  0  0
 25 21  1  0  0  0  0
 26 27  2  0  0  0  0
 27 30  1  0  0  0  0
 28 24  2  0  0  0  0
 28 21  1  0  0  0  0
 29 28  1  0  0  0  0
 30 23  1  1  0  0  0
 31 29  2  0  0  0  0
 31 32  1  0  0  0  0
 32 25  2  0  0  0  0
M  END
>  <MODEL>
7

>  <REMARK>
 VINA RESULT:      -7.4      3.848      6.134
  Name = 
  11 active torsions:
  status: ('A' for Active; 'I' for Inactive)
    1  A    between atoms: C_3  and  N_15
    2  A    between atoms: C_3  and  C_16
    3  A    between atoms: C_7  and  N_12
    4  A    between atoms: C_7  and  C_26
    5  A    between atoms: N_12  and  S_23
    6  A    between atoms: C_14  and  C_26
    7  A    between atoms: C_16  and  N_31
    8  A    between atoms: C_18  and  C_24
    9  A    between atoms: C_18  and  C_27
   10  A    between atoms: C_26  and  N_31
   11  A    between atoms: C_27  and  C_32
                            x       y       z     vdW  Elec       q    Type
                         _______ _______ _______ _____ _____    ______ ____

>  <TORSDO>
F 11

$$$$
=
 OpenBabel10222416303D

 32 34  0  0  1  0  0  0  0  0999 V2000
  183.8380  179.4460  143.5970 C   0  0  0  0  0  2  0  0  0  0  0  0
  182.3360  179.2410  143.4610 C   0  0  0  0  0  2  0  0  0  0  0  0
  181.9790  178.9790  142.0030 C   0  0  0  0  0  2  0  0  0  0  0  0
  182.7790  177.7830  141.4720 C   0  0  0  0  0  2  0  0  0  0  0  0
  184.2300  177.9710  141.6200 N   0  0  0  0  0  0  0  0  0  0  0  0
  184.5650  178.2220  143.0370 C   0  0  1  0  0  3  0  0  0  0  0  0
  184.6690  179.0700  140.7580 C   0  0  0  0  0  2  0  0  0  0  0  0
  184.9680  178.5410  139.3700 C   0  0  0  0  0  2  0  0  0  0  0  0
  186.3960  178.6320  139.1140 N   0  0  0  0  0  2  0  0  0  0  0  0
  186.6680  177.8630  137.9100 C   0  0  2  0  0  3  0  0  0  0  0  0
  187.6270  178.6340  137.0160 C   0  0  0  0  0  2  0  0  0  0  0  0
  189.0320  178.5950  137.5880 C   0  0  0  0  0  1  0  0  0  0  0  0
  185.3680  177.5320  137.1790 C   0  0  0  0  0  2  0  0  0  0  0  0
  185.3610  176.1470  136.7300 N   0  0  0  0  0  2  0  0  0  0  0  0
  182.5960  176.6790  136.1430 C   0  0  0  0  0  1  0  0  0  0  0  0
  183.4170  175.4140  138.3550 O   0  0  0  0  0  0  0  0  0  0  0  0
  183.6300  174.2020  136.2360 O   0  0  0  0  0  0  0  0  0  0  0  0
  183.7460  175.5480  136.8950 S   0  0  0  0  0  0  0  0  0  0  0  0
  186.0680  178.3420  143.2560 C   0  0  0  0  0  2  0  0  0  0  0  0
  186.5970  177.1100  143.9700 C   0  0  0  0  0  2  0  0  0  0  0  0
  189.2030  177.9320  146.8450 C   0  0  0  0  0  0  0  0  0  0  0  0
  190.0830  176.8670  147.4090 C   0  0  0  0  0  3  0  0  0  0  0  0
  192.2090  175.3050  147.6880 Cl  0  0  0  0  0  0  0  0  0  0  0  0
  189.4810  177.3780  144.4480 C   0  0  0  0  0  3  0  0  0  0  0  0
  188.1520  178.2570  147.8150 N   0  0  0  0  0  0  0  0  0  0  0  0
  190.9540  177.3670  144.5020 C   0  0  0  0  0  3  0  0  0  0  0  0
  191.7060  176.9680  145.5340 C   0  0  0  0  0  3  0  0  0  0  0  0
  188.6580  177.5560  145.4890 C   0  0  0  0  0  0  0  0  0  0  0  0
  187.1960  177.4940  145.2860 C   0  0  1  0  0  3  0  0  0  0  0  0
  191.2130  176.4590  146.8290 C   0  0  0  0  0  0  0  0  0  0  0  0
  186.3840  177.8080  146.2880 C   0  0  0  0  0  3  0  0  0  0  0  0
  186.9020  178.1980  147.5630 N   0  0  0  0  0  0  0  0  0  0  0  0
  2  1  1  0  0  0  0
  3  2  1  0  0  0  0
  4  5  1  0  0  0  0
  4  3  1  0  0  0  0
  5  6  1  0  0  0  0
  6 19  1  6  0  0  0
  6  1  1  0  0  0  0
  7  5  1  0  0  0  0
  8  7  1  0  0  0  0
  9  8  1  0  0  0  0
 10 11  1  6  0  0  0
 10  9  1  0  0  0  0
 11 12  1  0  0  0  0
 13 10  1  0  0  0  0
 14 18  1  0  0  0  0
 14 13  1  0  0  0  0
 15 18  1  0  0  0  0
 17 18  2  0  0  0  0
 18 16  2  0  0  0  0
 19 20  1  0  0  0  0
 21 22  1  0  0  0  0
 21 25  2  0  0  0  0
 24 26  1  0  0  0  0
 24 28  2  0  0  0  0
 26 27  2  0  0  0  0
 27 30  1  0  0  0  0
 28 21  1  0  0  0  0
 29 20  1  6  0  0  0
 29 28  1  0  0  0  0
 29 31  1  0  0  0  0
 30 22  2  0  0  0  0
 30 23  1  0  0  0  0
 31 32  2  0  0  0  0
 32 25  1  0  0  0  0
M  END
>  <MODEL>
8

>  <REMARK>
 VINA RESULT:      -7.3      2.619      2.849
  Name = 
  11 active torsions:
  status: ('A' for Active; 'I' for Inactive)
    1  A    between atoms: C_3  and  N_15
    2  A    between atoms: C_3  and  C_16
    3  A    between atoms: C_7  and  N_12
    4  A    between atoms: C_7  and  C_26
    5  A    between atoms: N_12  and  S_23
    6  A    between atoms: C_14  and  C_26
    7  A    between atoms: C_16  and  N_31
    8  A    between atoms: C_18  and  C_24
    9  A    between atoms: C_18  and  C_27
   10  A    between atoms: C_26  and  N_31
   11  A    between atoms: C_27  and  C_32
                            x       y       z     vdW  Elec       q    Type
                         _______ _______ _______ _____ _____    ______ ____

>  <TORSDO>
F 11

$$$$
=
 OpenBabel10222416303D

 32 34  0  0  1  0  0  0  0  0999 V2000
  189.3770  177.0590  140.5260 C   0  0  0  0  0  2  0  0  0  0  0  0
  190.4810  177.1070  139.4810 C   0  0  0  0  0  2  0  0  0  0  0  0
  189.8860  177.4070  138.1110 C   0  0  0  0  0  2  0  0  0  0  0  0
  189.0770  178.7090  138.1620 C   0  0  0  0  0  2  0  0  0  0  0  0
  188.0210  178.6720  139.1850 N   0  0  0  0  0  0  0  0  0  0  0  0
  188.6100  178.3830  140.5090 C   0  0  1  0  0  3  0  0  0  0  0  0
  187.0170  177.6750  138.8110 C   0  0  0  0  0  2  0  0  0  0  0  0
  185.9620  178.3170  137.9330 C   0  0  0  0  0  2  0  0  0  0  0  0
  184.6610  177.7480  138.2420 N   0  0  0  0  0  2  0  0  0  0  0  0
  184.0300  178.6180  139.2210 C   0  0  2  0  0  3  0  0  0  0  0  0
  183.5840  177.8000  140.4230 C   0  0  0  0  0  2  0  0  0  0  0  0
  183.8900  178.5410  141.7110 C   0  0  0  0  0  1  0  0  0  0  0  0
  182.8570  179.3700  138.5930 C   0  0  0  0  0  2  0  0  0  0  0  0
  182.9430  180.7970  138.8740 N   0  0  0  0  0  2  0  0  0  0  0  0
  180.8320  180.6790  136.9240 C   0  0  0  0  0  1  0  0  0  0  0  0
  181.7130  182.9630  138.0060 O   0  0  0  0  0  0  0  0  0  0  0  0
  180.4450  181.4570  139.4650 O   0  0  0  0  0  0  0  0  0  0  0  0
  181.4600  181.5250  138.3570 S   0  0  0  0  0  0  0  0  0  0  0  0
  187.5650  178.4140  141.6180 C   0  0  0  0  0  2  0  0  0  0  0  0
  187.5960  177.1160  142.4060 C   0  0  0  0  0  2  0  0  0  0  0  0
  188.8640  177.8430  146.0940 C   0  0  0  0  0  0  0  0  0  0  0  0
  189.6020  176.8030  146.8690 C   0  0  0  0  0  3  0  0  0  0  0  0
  191.6540  175.4110  147.8110 Cl  0  0  0  0  0  0  0  0  0  0  0  0
  190.0560  177.5800  143.9400 C   0  0  0  0  0  3  0  0  0  0  0  0
  187.5010  177.9670  146.6230 N   0  0  0  0  0  0  0  0  0  0  0  0
  191.3990  177.6910  144.5380 C   0  0  0  0  0  3  0  0  0  0  0  0
  191.7690  177.2490  145.7450 C   0  0  0  0  0  3  0  0  0  0  0  0
  188.8970  177.5710  144.6100 C   0  0  0  0  0  0  0  0  0  0  0  0
  187.6270  177.4040  143.8740 C   0  0  0  0  0  0  0  0  0  0  0  0
  190.9050  176.5610  146.7240 C   0  0  2  0  0  3  0  0  0  0  0  0
  186.4750  177.5350  144.5210 C   0  0  0  0  0  3  0  0  0  0  0  0
  186.4440  177.8270  145.9210 N   0  0  0  0  0  0  0  0  0  0  0  0
  2  1  1  0  0  0  0
  3  4  1  0  0  0  0
  3  2  1  0  0  0  0
  4  5  1  0  0  0  0
  5  6  1  0  0  0  0
  6  1  1  0  0  0  0
  6 19  1  1  0  0  0
  7  5  1  0  0  0  0
  8  9  1  0  0  0  0
  8  7  1  0  0  0  0
  9 10  1  0  0  0  0
 10 13  1  6  0  0  0
 10 11  1  0  0  0  0
 11 12  1  0  0  0  0
 13 14  1  0  0  0  0
 15 18  1  0  0  0  0
 16 18  2  0  0  0  0
 18 14  1  0  0  0  0
 18 17  2  0  0  0  0
 19 20  1  0  0  0  0
 20 29  1  0  0  0  0
 21 25  1  0  0  0  0
 21 22  2  0  0  0  0
 24 26  1  0  0  0  0
 24 28  2  0  0  0  0
 26 27  2  0  0  0  0
 27 30  1  0  0  0  0
 28 21  1  0  0  0  0
 29 31  2  0  0  0  0
 29 28  1  0  0  0  0
 30 22  1  0  0  0  0
 30 23  1  1  0  0  0
 31 32  1  0  0  0  0
 32 25  2  0  0  0  0
M  END
>  <MODEL>
9

>  <REMARK>
 VINA RESULT:      -7.1      3.501      5.366
  Name = 
  11 active torsions:
  status: ('A' for Active; 'I' for Inactive)
    1  A    between atoms: C_3  and  N_15
    2  A    between atoms: C_3  and  C_16
    3  A    between atoms: C_7  and  N_12
    4  A    between atoms: C_7  and  C_26
    5  A    between atoms: N_12  and  S_23
    6  A    between atoms: C_14  and  C_26
    7  A    between atoms: C_16  and  N_31
    8  A    between atoms: C_18  and  C_24
    9  A    between atoms: C_18  and  C_27
   10  A    between atoms: C_26  and  N_31
   11  A    between atoms: C_27  and  C_32
                            x       y       z     vdW  Elec       q    Type
                         _______ _______ _______ _____ _____    ______ ____

>  <TORSDO>
F 11

$$$$
