=
 OpenBabel10222416033D

 67 72  0  0  1  0  0  0  0  0999 V2000
  187.2430  178.2460  144.1460 O   0  0  0  0  0  0  0  0  0  0  0  0
  186.0740  178.0310  144.8860 C   0  0  2  0  0  3  0  0  0  0  0  0
  184.9900  179.4570  143.0290 C   0  0  2  0  0  3  0  0  0  0  0  0
  184.5900  178.2530  142.1960 C   0  0  2  0  0  3  0  0  0  0  0  0
  186.0210  178.7570  142.1300 C   0  0  2  0  0  3  0  0  0  0  0  0
  186.9450  177.7690  142.8590 C   0  0  1  0  0  3  0  0  0  0  0  0
  185.0420  179.1060  144.5280 C   0  0  0  0  0  2  0  0  0  0  0  0
  186.3590  178.0160  146.3940 C   0  0  0  0  0  0  0  0  0  0  0  0
  185.3440  177.3120  147.0190 F   0  0  0  0  0  0  0  0  0  0  0  0
  186.3440  179.3130  146.9050 F   0  0  0  0  0  0  0  0  0  0  0  0
  187.5690  177.3380  146.6630 O   0  0  0  0  0  0  0  0  0  0  0  0
  188.3890  177.8460  148.8420 C   0  0  0  0  0  1  0  0  0  0  0  0
  188.4440  178.1810  147.3650 C   0  0  0  0  0  2  0  0  0  0  0  0
  188.2250  177.5680  142.0410 C   0  0  2  0  0  3  0  0  0  0  0  0
  189.3780  177.2020  142.9690 C   0  0  0  0  0  2  0  0  0  0  0  0
  189.2170  175.8980  143.4440 O   0  0  0  0  0  1  0  0  0  0  0  0
  188.5960  178.8190  141.2580 C   0  0  0  0  0  2  0  0  0  0  0  0
  188.6620  178.4990  139.7780 C   0  0  0  0  0  2  0  0  0  0  0  0
  188.9460  177.0280  139.5910 C   0  0  0  0  0  2  0  0  0  0  0  0
  187.6510  176.6780  137.4590 C   0  0  0  0  0  0  0  0  0  0  0  0
  188.8850  176.7070  138.1790 N   0  0  0  0  0  2  0  0  0  0  0  0
  186.5560  176.8390  138.0670 O   0  0  0  0  0  0  0  0  0  0  0  0
  188.5550  174.3830  135.0850 C   0  0  0  0  0  3  0  0  0  0  0  0
  187.1750  173.8030  134.9350 C   0  0  0  0  0  2  0  0  0  0  0  0
  188.8030  175.6440  135.4810 C   0  0  0  0  0  0  0  0  0  0  0  0
  186.3140  176.1210  135.4440 C   0  0  0  0  0  2  0  0  0  0  0  0
  187.6880  176.5490  135.9620 C   0  0  1  0  0  3  0  0  0  0  0  0
  186.1190  174.6220  135.6790 C   0  0  1  0  0  3  0  0  0  0  0  0
  190.1480  176.1450  135.5440 N   0  0  0  0  0  2  0  0  0  0  0  0
  191.0930  174.5470  136.9870 O   0  0  0  0  0  0  0  0  0  0  0  0
  191.2390  175.5910  136.2950 C   0  0  0  0  0  0  0  0  0  0  0  0
  192.5750  176.2510  136.2540 C   0  0  0  0  0  2  0  0  0  0  0  0
  194.5230  175.6920  137.7820 N   0  0  0  0  0  2  0  0  0  0  0  0
  193.2240  176.2600  137.6020 C   0  0  0  0  0  0  0  0  0  0  0  0
  192.6090  176.7230  138.5970 O   0  0  0  0  0  0  0  0  0  0  0  0
  195.2430  175.2020  136.7410 O   0  0  0  0  0  0  0  0  0  0  0  0
  197.4000  174.2010  136.4510 C   0  0  0  0  0  1  0  0  0  0  0  0
  196.1480  174.2990  137.3080 C   0  0  2  0  0  3  0  0  0  0  0  0
  195.8290  172.3500  138.6760 O   0  0  0  0  0  1  0  0  0  0  0  0
  195.4960  172.9320  137.4530 C   0  0  0  0  0  2  0  0  0  0  0  0
  184.8000  174.1790  135.4360 O   0  0  0  0  0  0  0  0  0  0  0  0
  184.8350  172.8430  134.9930 C   0  0  0  0  0  2  0  0  0  0  0  0
  184.2690  172.2740  137.2390 O   0  0  0  0  0  1  0  0  0  0  0  0
  184.0030  171.9580  135.9060 C   0  0  0  0  0  0  0  0  0  0  0  0
  182.6450  172.1460  135.6450 O   0  0  0  0  0  1  0  0  0  0  0  0
  184.3630  170.5080  135.6550 C   0  0  0  0  0  1  0  0  0  0  0  0
  183.8840  178.6900  141.0010 N   0  0  0  0  0  2  0  0  0  0  0  0
  182.4970  178.9530  141.3650 C   0  0  0  0  0  2  0  0  0  0  0  0
  181.7080  177.6570  141.4890 C   0  0  0  0  0  2  0  0  0  0  0  0
  182.2550  176.5070  139.3610 C   0  0  0  0  0  2  0  0  0  0  0  0
  180.2280  175.5810  138.1610 C   0  0  1  0  0  3  0  0  0  0  0  0
  181.1580  177.2290  140.1410 C   0  0  2  0  0  3  0  0  0  0  0  0
  181.8670  178.1750  136.7390 C   0  0  0  0  0  2  0  0  0  0  0  0
  181.7330  175.8830  138.0660 C   0  0  1  0  0  3  0  0  0  0  0  0
  182.1940  176.6690  136.8250 C   0  0  1  0  0  3  0  0  0  0  0  0
  180.3630  180.1570  136.9200 C   0  0  0  0  0  1  0  0  0  0  0  0
  182.0370  175.9170  135.5180 C   0  0  0  0  0  1  0  0  0  0  0  0
  179.8230  178.1500  138.2460 C   0  0  1  0  0  3  0  0  0  0  0  0
  180.7010  178.4050  139.4120 N   0  0  0  0  0  2  0  0  0  0  0  0
  178.9430  176.8540  136.4240 C   0  0  0  0  0  2  0  0  0  0  0  0
  180.3930  178.6390  136.9330 C   0  0  2  0  0  0  0  0  0  0  0  0
  179.4420  178.1380  135.9300 N   0  0  0  0  0  0  0  0  0  0  0  0
  180.0070  177.9780  134.5940 C   0  0  0  0  0  1  0  0  0  0  0  0
  179.2620  176.7550  137.9210 C   0  0  1  0  0  3  0  0  0  0  0  0
  179.2350  174.1870  136.5050 O   0  0  0  0  0  0  0  0  0  0  0  0
  179.7950  174.2500  137.6310 C   0  0  0  0  0  0  0  0  0  0  0  0
  180.0370  173.0830  138.3460 O   0  0  0  0  0  1  0  0  0  0  0  0
  1  2  1  0  0  0  0
  2  8  1  1  0  0  0
  3  7  1  1  0  0  0
  4 47  1  6  0  0  0
  4  3  1  0  0  0  0
  5  4  1  0  0  0  0
  5  6  1  0  0  0  0
  5  3  1  0  0  0  0
  6  1  1  0  0  0  0
  7  2  1  0  0  0  0
  8 11  1  0  0  0  0
  8 10  1  0  0  0  0
  8  9  1  0  0  0  0
 11 13  1  0  0  0  0
 13 12  1  0  0  0  0
 14  6  1  0  0  0  0
 14 15  1  0  0  0  0
 15 16  1  0  0  0  0
 17 14  1  0  0  0  0
 18 17  1  0  0  0  0
 19 18  1  0  0  0  0
 20 22  2  0  0  0  0
 20 21  1  0  0  0  0
 21 19  1  0  0  0  0
 23 25  2  0  0  0  0
 24 23  1  0  0  0  0
 24 28  1  0  0  0  0
 25 29  1  0  0  0  0
 25 27  1  0  0  0  0
 26 28  1  0  0  0  0
 26 27  1  0  0  0  0
 27 20  1  0  0  0  0
 29 31  1  0  0  0  0
 31 30  2  0  0  0  0
 32 31  1  0  0  0  0
 32 34  1  0  0  0  0
 34 33  1  0  0  0  0
 34 35  2  0  0  0  0
 36 38  1  0  0  0  0
 36 33  1  0  0  0  0
 37 38  1  0  0  0  0
 38 40  1  0  0  0  0
 40 39  1  0  0  0  0
 41 28  1  0  0  0  0
 42 41  1  0  0  0  0
 42 44  1  0  0  0  0
 44 43  1  0  0  0  0
 45 44  1  0  0  0  0
 46 44  1  0  0  0  0
 47 48  1  0  0  0  0
 48 49  1  0  0  0  0
 50 52  1  0  0  0  0
 52 49  1  0  0  0  0
 53 55  1  0  0  0  0
 53 61  1  0  0  0  0
 54 51  1  0  0  0  0
 54 50  1  0  0  0  0
 55 54  1  0  0  0  0
 56 61  1  0  0  0  0
 57 55  1  0  0  0  0
 58 59  1  0  0  0  0
 59 52  1  0  0  0  0
 60 64  1  0  0  0  0
 61 58  1  0  0  0  0
 62 60  1  0  0  0  0
 62 61  1  0  0  0  0
 63 62  1  0  0  0  0
 64 51  1  0  0  0  0
 64 58  1  0  0  0  0
 65 66  2  0  0  0  0
 66 51  1  0  0  0  0
 66 67  1  0  0  0  0
M  END
>  <MODEL>
1

>  <REMARK>
 VINA RESULT:      -6.2      0.000      0.000
  Name = 
  24 active torsions:
  status: ('A' for Active; 'I' for Inactive)
    1  A    between atoms: C_4  and  C_8
    2  A    between atoms: N_5  and  O_43
    3  A    between atoms: C_7  and  C_25
    4  A    between atoms: N_9  and  C_15
    5  A    between atoms: N_9  and  C_29
    6  A    between atoms: C_10  and  C_54
    7  A    between atoms: C_11  and  C_20
    8  A    between atoms: C_13  and  C_62
    9  A    between atoms: C_15  and  C_20
   10  A    between atoms: C_16  and  C_66
   11  A    between atoms: C_16  and  C_67
   12  A    between atoms: C_17  and  C_51
   13  A    between atoms: C_17  and  C_60
   14  A    between atoms: C_17  and  C_66
   15  A    between atoms: N_19  and  C_27
   16  A    between atoms: O_22  and  C_39
   17  A    between atoms: O_22  and  C_55
   18  A    between atoms: C_24  and  C_39
   19  A    between atoms: C_25  and  O_49
   20  A    between atoms: N_30  and  C_67
   21  A    between atoms: C_38  and  C_41
   22  A    between atoms: C_38  and  O_43
   23  A    between atoms: O_49  and  C_59
   24  A    between atoms: C_58  and  C_62
                            x       y       z     vdW  Elec       q    Type
                         _______ _______ _______ _____ _____    ______ ____

>  <TORSDO>
F 24

$$$$
=
 OpenBabel10222416033D

 67 72  0  0  1  0  0  0  0  0999 V2000
  188.3970  177.8370  143.6320 O   0  0  0  0  0  0  0  0  0  0  0  0
  187.0120  177.8460  143.8340 C   0  0  2  0  0  3  0  0  0  0  0  0
  187.0060  179.2680  141.6810 C   0  0  2  0  0  3  0  0  0  0  0  0
  186.7870  178.0730  140.7700 C   0  0  2  0  0  3  0  0  0  0  0  0
  188.1850  178.3640  141.2880 C   0  0  2  0  0  3  0  0  0  0  0  0
  188.5680  177.3120  142.3410 C   0  0  1  0  0  3  0  0  0  0  0  0
  186.3960  179.0260  143.0750 C   0  0  0  0  0  2  0  0  0  0  0  0
  186.6620  177.9040  145.3270 C   0  0  0  0  0  0  0  0  0  0  0  0
  186.5390  179.2340  145.6910 F   0  0  0  0  0  0  0  0  0  0  0  0
  187.6900  177.3550  146.0910 F   0  0  0  0  0  0  0  0  0  0  0  0
  185.4140  177.2850  145.5680 O   0  0  0  0  0  0  0  0  0  0  0  0
  183.6810  178.8660  145.1470 C   0  0  0  0  0  1  0  0  0  0  0  0
  184.5440  178.1920  146.1940 C   0  0  0  0  0  2  0  0  0  0  0  0
  190.0190  176.8710  142.1190 C   0  0  2  0  0  3  0  0  0  0  0  0
  190.9640  177.8130  142.8560 C   0  0  0  0  0  2  0  0  0  0  0  0
  191.5510  177.1520  143.9380 O   0  0  0  0  0  1  0  0  0  0  0  0
  190.3840  176.8590  140.6410 C   0  0  0  0  0  2  0  0  0  0  0  0
  191.6900  177.5970  140.4280 C   0  0  0  0  0  2  0  0  0  0  0  0
  192.7120  176.6580  139.8340 C   0  0  0  0  0  2  0  0  0  0  0  0
  192.0490  175.6720  137.6140 C   0  0  0  0  0  0  0  0  0  0  0  0
  192.6340  176.7200  138.3890 N   0  0  0  0  0  2  0  0  0  0  0  0
  191.6670  174.6060  138.1710 O   0  0  0  0  0  0  0  0  0  0  0  0
  191.6030  173.8450  134.7530 C   0  0  0  0  0  3  0  0  0  0  0  0
  190.1000  173.8520  134.8290 C   0  0  0  0  0  2  0  0  0  0  0  0
  192.3880  174.7990  135.2820 C   0  0  0  0  0  0  0  0  0  0  0  0
  190.3200  176.1310  135.8930 C   0  0  0  0  0  2  0  0  0  0  0  0
  191.8110  175.9010  136.1470 C   0  0  1  0  0  3  0  0  0  0  0  0
  189.5810  174.7920  135.9190 C   0  0  1  0  0  3  0  0  0  0  0  0
  193.8150  174.7540  135.1180 N   0  0  0  0  0  2  0  0  0  0  0  0
  194.3310  177.0030  135.5720 O   0  0  0  0  0  0  0  0  0  0  0  0
  194.7320  175.8500  135.2580 C   0  0  0  0  0  0  0  0  0  0  0  0
  196.1900  175.6260  135.0390 C   0  0  0  0  0  2  0  0  0  0  0  0
  196.5820  173.8750  136.8340 N   0  0  0  0  0  2  0  0  0  0  0  0
  196.6020  174.2500  135.4560 C   0  0  0  0  0  0  0  0  0  0  0  0
  197.0170  173.4270  134.5980 O   0  0  0  0  0  0  0  0  0  0  0  0
  196.1200  174.7120  137.7990 O   0  0  0  0  0  0  0  0  0  0  0  0
  196.1310  175.0060  140.1760 C   0  0  0  0  0  1  0  0  0  0  0  0
  196.7480  174.3010  138.9790 C   0  0  2  0  0  3  0  0  0  0  0  0
  198.4820  175.9630  138.9850 O   0  0  0  0  0  1  0  0  0  0  0  0
  198.2400  174.5930  138.9010 C   0  0  0  0  0  2  0  0  0  0  0  0
  188.1740  174.9240  135.9140 O   0  0  0  0  0  0  0  0  0  0  0  0
  187.6060  173.7950  135.2940 C   0  0  0  0  0  2  0  0  0  0  0  0
  187.8870  172.2450  137.0840 O   0  0  0  0  0  1  0  0  0  0  0  0
  186.9240  172.9090  136.3240 C   0  0  0  0  0  0  0  0  0  0  0  0
  186.1220  173.6840  137.1620 O   0  0  0  0  0  1  0  0  0  0  0  0
  186.0610  171.8900  135.6090 C   0  0  0  0  0  1  0  0  0  0  0  0
  186.6990  178.5150  139.3870 N   0  0  0  0  0  2  0  0  0  0  0  0
  186.6220  177.3330  138.5370 C   0  0  0  0  0  2  0  0  0  0  0  0
  185.6810  177.5630  137.3630 C   0  0  0  0  0  2  0  0  0  0  0  0
  183.2940  177.7130  136.7050 C   0  0  0  0  0  2  0  0  0  0  0  0
  181.9100  175.7330  137.4600 C   0  0  1  0  0  3  0  0  0  0  0  0
  184.2780  177.0900  137.6940 C   0  0  2  0  0  3  0  0  0  0  0  0
  181.3070  178.7320  138.9020 C   0  0  0  0  0  2  0  0  0  0  0  0
  181.8810  177.1460  136.8550 C   0  0  1  0  0  3  0  0  0  0  0  0
  180.9280  178.1550  137.5210 C   0  0  1  0  0  3  0  0  0  0  0  0
  182.1090  178.5670  141.2580 C   0  0  0  0  0  1  0  0  0  0  0  0
  179.4580  177.8180  137.3650 C   0  0  0  0  0  1  0  0  0  0  0  0
  182.7760  176.8060  139.6660 C   0  0  1  0  0  3  0  0  0  0  0  0
  183.9470  177.4810  139.0590 N   0  0  0  0  0  2  0  0  0  0  0  0
  180.6650  175.6590  139.6350 C   0  0  0  0  0  2  0  0  0  0  0  0
  181.6620  177.7510  140.0580 C   0  0  2  0  0  0  0  0  0  0  0  0
  180.5720  176.8550  140.4740 N   0  0  0  0  0  0  0  0  0  0  0  0
  179.2400  177.4410  140.3690 C   0  0  0  0  0  1  0  0  0  0  0  0
  182.0550  175.6280  138.9880 C   0  0  1  0  0  3  0  0  0  0  0  0
  180.5500  173.7780  137.4980 O   0  0  0  0  0  1  0  0  0  0  0  0
  181.0120  174.7280  136.8110 C   0  0  0  0  0  0  0  0  0  0  0  0
  180.6480  174.8490  135.4750 O   0  0  0  0  0  0  0  0  0  0  0  0
  1  2  1  0  0  0  0
  2  8  1  1  0  0  0
  3  7  1  1  0  0  0
  4 47  1  6  0  0  0
  4  5  1  0  0  0  0
  4  3  1  0  0  0  0
  5  3  1  0  0  0  0
  5  6  1  0  0  0  0
  6  1  1  0  0  0  0
  7  2  1  0  0  0  0
  8 11  1  0  0  0  0
  8  9  1  0  0  0  0
  8 10  1  0  0  0  0
 11 13  1  0  0  0  0
 12 13  1  0  0  0  0
 14  6  1  0  0  0  0
 14 15  1  0  0  0  0
 15 16  1  0  0  0  0
 17 14  1  0  0  0  0
 18 17  1  0  0  0  0
 19 18  1  0  0  0  0
 20 22  2  0  0  0  0
 20 21  1  0  0  0  0
 21 19  1  0  0  0  0
 23 24  1  0  0  0  0
 23 25  2  0  0  0  0
 24 28  1  0  0  0  0
 25 27  1  0  0  0  0
 26 28  1  0  0  0  0
 26 27  1  0  0  0  0
 27 20  1  0  0  0  0
 29 31  1  0  0  0  0
 29 25  1  0  0  0  0
 31 30  2  0  0  0  0
 32 31  1  0  0  0  0
 32 34  1  0  0  0  0
 33 36  1  0  0  0  0
 34 33  1  0  0  0  0
 35 34  2  0  0  0  0
 36 38  1  0  0  0  0
 38 37  1  0  0  0  0
 40 38  1  0  0  0  0
 40 39  1  0  0  0  0
 41 28  1  0  0  0  0
 42 41  1  0  0  0  0
 42 44  1  0  0  0  0
 44 43  1  0  0  0  0
 44 45  1  0  0  0  0
 46 44  1  0  0  0  0
 48 47  1  0  0  0  0
 49 52  1  0  0  0  0
 49 48  1  0  0  0  0
 50 54  1  0  0  0  0
 50 52  1  0  0  0  0
 51 64  1  0  0  0  0
 52 59  1  0  0  0  0
 53 61  1  0  0  0  0
 54 51  1  0  0  0  0
 54 55  1  0  0  0  0
 55 53  1  0  0  0  0
 57 55  1  0  0  0  0
 58 61  1  0  0  0  0
 59 58  1  0  0  0  0
 60 62  1  0  0  0  0
 61 62  1  0  0  0  0
 61 56  1  0  0  0  0
 63 62  1  0  0  0  0
 64 60  1  0  0  0  0
 64 58  1  0  0  0  0
 66 51  1  0  0  0  0
 66 65  1  0  0  0  0
 67 66  2  0  0  0  0
M  END
>  <MODEL>
2

>  <REMARK>
 VINA RESULT:      -5.8      1.947      3.530
  Name = 
  24 active torsions:
  status: ('A' for Active; 'I' for Inactive)
    1  A    between atoms: C_4  and  C_8
    2  A    between atoms: N_5  and  O_43
    3  A    between atoms: C_7  and  C_25
    4  A    between atoms: N_9  and  C_15
    5  A    between atoms: N_9  and  C_29
    6  A    between atoms: C_10  and  C_54
    7  A    between atoms: C_11  and  C_20
    8  A    between atoms: C_13  and  C_62
    9  A    between atoms: C_15  and  C_20
   10  A    between atoms: C_16  and  C_66
   11  A    between atoms: C_16  and  C_67
   12  A    between atoms: C_17  and  C_51
   13  A    between atoms: C_17  and  C_60
   14  A    between atoms: C_17  and  C_66
   15  A    between atoms: N_19  and  C_27
   16  A    between atoms: O_22  and  C_39
   17  A    between atoms: O_22  and  C_55
   18  A    between atoms: C_24  and  C_39
   19  A    between atoms: C_25  and  O_49
   20  A    between atoms: N_30  and  C_67
   21  A    between atoms: C_38  and  C_41
   22  A    between atoms: C_38  and  O_43
   23  A    between atoms: O_49  and  C_59
   24  A    between atoms: C_58  and  C_62
                            x       y       z     vdW  Elec       q    Type
                         _______ _______ _______ _____ _____    ______ ____

>  <TORSDO>
F 24

$$$$
=
 OpenBabel10222416033D

 67 72  0  0  1  0  0  0  0  0999 V2000
  188.7290  177.6540  143.1120 O   0  0  0  0  0  0  0  0  0  0  0  0
  187.3320  177.6290  143.1980 C   0  0  2  0  0  3  0  0  0  0  0  0
  187.4720  179.1060  141.0870 C   0  0  2  0  0  3  0  0  0  0  0  0
  187.3560  177.9310  140.1330 C   0  0  2  0  0  3  0  0  0  0  0  0
  188.7000  178.2370  140.7720 C   0  0  2  0  0  3  0  0  0  0  0  0
  189.0170  177.1660  141.8270 C   0  0  1  0  0  3  0  0  0  0  0  0
  186.7550  178.8160  142.4190 C   0  0  0  0  0  2  0  0  0  0  0  0
  186.8580  177.6410  144.6580 C   0  0  0  0  0  0  0  0  0  0  0  0
  186.4130  176.3700  144.9790 F   0  0  0  0  0  0  0  0  0  0  0  0
  185.7810  178.5130  144.8130 F   0  0  0  0  0  0  0  0  0  0  0  0
  187.9330  177.9420  145.5240 O   0  0  0  0  0  0  0  0  0  0  0  0
  188.7130  177.8910  147.7760 C   0  0  0  0  0  1  0  0  0  0  0  0
  187.5060  177.8680  146.8590 C   0  0  0  0  0  2  0  0  0  0  0  0
  190.4920  176.7610  141.7160 C   0  0  2  0  0  3  0  0  0  0  0  0
  191.3290  177.5870  142.6840 C   0  0  0  0  0  2  0  0  0  0  0  0
  190.6910  178.8000  142.9570 O   0  0  0  0  0  1  0  0  0  0  0  0
  191.0250  176.9590  140.3040 C   0  0  0  0  0  2  0  0  0  0  0  0
  192.3580  177.6770  140.3550 C   0  0  0  0  0  2  0  0  0  0  0  0
  193.4650  176.7200  139.9810 C   0  0  0  0  0  2  0  0  0  0  0  0
  193.1260  175.7360  137.6880 C   0  0  0  0  0  0  0  0  0  0  0  0
  193.6560  176.7490  138.5460 N   0  0  0  0  0  2  0  0  0  0  0  0
  192.5530  174.7240  138.1780 O   0  0  0  0  0  0  0  0  0  0  0  0
  193.4060  173.8760  134.8280 C   0  0  0  0  0  3  0  0  0  0  0  0
  191.9230  173.7760  134.5940 C   0  0  0  0  0  2  0  0  0  0  0  0
  193.9980  174.8850  135.4910 C   0  0  0  0  0  0  0  0  0  0  0  0
  191.7600  176.0670  135.6430 C   0  0  0  0  0  2  0  0  0  0  0  0
  193.1790  175.9450  136.2010 C   0  0  1  0  0  3  0  0  0  0  0  0
  191.1270  174.6780  135.5380 C   0  0  1  0  0  3  0  0  0  0  0  0
  195.4270  174.9420  135.6230 N   0  0  0  0  0  2  0  0  0  0  0  0
  195.6760  173.8040  137.6660 O   0  0  0  0  0  0  0  0  0  0  0  0
  196.2140  174.4120  136.7010 C   0  0  0  0  0  0  0  0  0  0  0  0
  197.6960  174.5710  136.6820 C   0  0  0  0  0  2  0  0  0  0  0  0
  198.4370  172.3010  135.8240 N   0  0  0  0  0  2  0  0  0  0  0  0
  198.3270  173.7120  135.6320 C   0  0  0  0  0  0  0  0  0  0  0  0
  198.8090  174.2340  134.5940 O   0  0  0  0  0  0  0  0  0  0  0  0
  197.9120  171.6810  136.9120 O   0  0  0  0  0  0  0  0  0  0  0  0
  196.2950  170.9110  135.3200 C   0  0  0  0  0  1  0  0  0  0  0  0
  197.2790  170.5360  136.4160 C   0  0  2  0  0  3  0  0  0  0  0  0
  195.7630  170.6880  138.2730 O   0  0  0  0  0  1  0  0  0  0  0  0
  196.5640  169.8090  137.5460 C   0  0  0  0  0  2  0  0  0  0  0  0
  189.7450  174.7090  135.2430 O   0  0  0  0  0  0  0  0  0  0  0  0
  189.0140  174.5320  136.4320 C   0  0  0  0  0  2  0  0  0  0  0  0
  186.8760  173.8280  137.2200 O   0  0  0  0  0  1  0  0  0  0  0  0
  187.7960  173.6580  136.1840 C   0  0  0  0  0  0  0  0  0  0  0  0
  187.2000  174.0040  134.9710 O   0  0  0  0  0  1  0  0  0  0  0  0
  188.2270  172.2060  136.1310 C   0  0  0  0  0  1  0  0  0  0  0  0
  187.3730  178.4070  138.7580 N   0  0  0  0  0  2  0  0  0  0  0  0
  187.0180  177.2930  137.8880 C   0  0  0  0  0  2  0  0  0  0  0  0
  185.9370  177.6960  136.8950 C   0  0  0  0  0  2  0  0  0  0  0  0
  183.5850  177.3830  136.1730 C   0  0  0  0  0  2  0  0  0  0  0  0
  182.4560  175.3850  137.2400 C   0  0  1  0  0  3  0  0  0  0  0  0
  184.5990  177.0900  137.2760 C   0  0  2  0  0  3  0  0  0  0  0  0
  181.3780  178.4690  138.1130 C   0  0  0  0  0  2  0  0  0  0  0  0
  182.2590  176.6520  136.3920 C   0  0  1  0  0  3  0  0  0  0  0  0
  181.1460  177.6130  136.8490 C   0  0  1  0  0  3  0  0  0  0  0  0
  182.0880  178.8320  140.4770 C   0  0  0  0  0  1  0  0  0  0  0  0
  179.7450  177.0450  136.7260 C   0  0  0  0  0  1  0  0  0  0  0  0
  183.0640  176.9380  139.2370 C   0  0  1  0  0  3  0  0  0  0  0  0
  184.1560  177.6590  138.5430 N   0  0  0  0  0  2  0  0  0  0  0  0
  181.1360  175.5100  139.3680 C   0  0  0  0  0  2  0  0  0  0  0  0
  181.8130  177.7650  139.4320 C   0  0  2  0  0  0  0  0  0  0  0  0
  180.8400  176.8070  139.9780 N   0  0  0  0  0  0  0  0  0  0  0  0
  179.4460  177.1660  139.7450 C   0  0  0  0  0  1  0  0  0  0  0  0
  182.5450  175.5680  138.7650 C   0  0  1  0  0  3  0  0  0  0  0  0
  181.6840  173.1480  137.5060 O   0  0  0  0  0  1  0  0  0  0  0  0
  181.7360  174.1630  136.7620 C   0  0  0  0  0  0  0  0  0  0  0  0
  181.0930  174.1470  135.5300 O   0  0  0  0  0  0  0  0  0  0  0  0
  1  2  1  0  0  0  0
  2  8  1  1  0  0  0
  3  7  1  1  0  0  0
  4 47  1  6  0  0  0
  4  5  1  0  0  0  0
  4  3  1  0  0  0  0
  5  3  1  0  0  0  0
  5  6  1  0  0  0  0
  6  1  1  0  0  0  0
  7  2  1  0  0  0  0
  8 10  1  0  0  0  0
  8  9  1  0  0  0  0
  8 11  1  0  0  0  0
 11 13  1  0  0  0  0
 13 12  1  0  0  0  0
 14  6  1  0  0  0  0
 14 15  1  0  0  0  0
 15 16  1  0  0  0  0
 17 18  1  0  0  0  0
 17 14  1  0  0  0  0
 19 18  1  0  0  0  0
 20 22  2  0  0  0  0
 20 21  1  0  0  0  0
 21 19  1  0  0  0  0
 23 25  2  0  0  0  0
 24 23  1  0  0  0  0
 24 28  1  0  0  0  0
 25 29  1  0  0  0  0
 25 27  1  0  0  0  0
 26 27  1  0  0  0  0
 27 20  1  0  0  0  0
 28 26  1  0  0  0  0
 29 31  1  0  0  0  0
 31 30  2  0  0  0  0
 32 31  1  0  0  0  0
 33 36  1  0  0  0  0
 34 33  1  0  0  0  0
 34 32  1  0  0  0  0
 35 34  2  0  0  0  0
 37 38  1  0  0  0  0
 38 36  1  0  0  0  0
 38 40  1  0  0  0  0
 40 39  1  0  0  0  0
 41 28  1  0  0  0  0
 41 42  1  0  0  0  0
 44 42  1  0  0  0  0
 44 43  1  0  0  0  0
 45 44  1  0  0  0  0
 46 44  1  0  0  0  0
 48 47  1  0  0  0  0
 49 52  1  0  0  0  0
 49 48  1  0  0  0  0
 50 54  1  0  0  0  0
 50 52  1  0  0  0  0
 51 64  1  0  0  0  0
 52 59  1  0  0  0  0
 53 61  1  0  0  0  0
 54 55  1  0  0  0  0
 54 51  1  0  0  0  0
 55 53  1  0  0  0  0
 57 55  1  0  0  0  0
 58 61  1  0  0  0  0
 59 58  1  0  0  0  0
 60 62  1  0  0  0  0
 61 62  1  0  0  0  0
 61 56  1  0  0  0  0
 63 62  1  0  0  0  0
 64 58  1  0  0  0  0
 64 60  1  0  0  0  0
 66 51  1  0  0  0  0
 66 65  1  0  0  0  0
 67 66  2  0  0  0  0
M  END
>  <MODEL>
3

>  <REMARK>
 VINA RESULT:      -5.8      2.040      4.058
  Name = 
  24 active torsions:
  status: ('A' for Active; 'I' for Inactive)
    1  A    between atoms: C_4  and  C_8
    2  A    between atoms: N_5  and  O_43
    3  A    between atoms: C_7  and  C_25
    4  A    between atoms: N_9  and  C_15
    5  A    between atoms: N_9  and  C_29
    6  A    between atoms: C_10  and  C_54
    7  A    between atoms: C_11  and  C_20
    8  A    between atoms: C_13  and  C_62
    9  A    between atoms: C_15  and  C_20
   10  A    between atoms: C_16  and  C_66
   11  A    between atoms: C_16  and  C_67
   12  A    between atoms: C_17  and  C_51
   13  A    between atoms: C_17  and  C_60
   14  A    between atoms: C_17  and  C_66
   15  A    between atoms: N_19  and  C_27
   16  A    between atoms: O_22  and  C_39
   17  A    between atoms: O_22  and  C_55
   18  A    between atoms: C_24  and  C_39
   19  A    between atoms: C_25  and  O_49
   20  A    between atoms: N_30  and  C_67
   21  A    between atoms: C_38  and  C_41
   22  A    between atoms: C_38  and  O_43
   23  A    between atoms: O_49  and  C_59
   24  A    between atoms: C_58  and  C_62
                            x       y       z     vdW  Elec       q    Type
                         _______ _______ _______ _____ _____    ______ ____

>  <TORSDO>
F 24

$$$$
=
 OpenBabel10222416033D

 67 72  0  0  1  0  0  0  0  0999 V2000
  189.4750  178.5310  142.4710 O   0  0  0  0  0  0  0  0  0  0  0  0
  189.6030  177.7220  143.6060 C   0  0  2  0  0  3  0  0  0  0  0  0
  187.2000  178.5270  144.0870 C   0  0  2  0  0  3  0  0  0  0  0  0
  186.5540  177.3340  143.4060 C   0  0  2  0  0  3  0  0  0  0  0  0
  187.0650  178.4850  142.5570 C   0  0  2  0  0  3  0  0  0  0  0  0
  188.3350  178.0450  141.8120 C   0  0  1  0  0  3  0  0  0  0  0  0
  188.5820  178.1630  144.6600 C   0  0  0  0  0  2  0  0  0  0  0  0
  191.0320  177.7640  144.1670 C   0  0  0  0  0  0  0  0  0  0  0  0
  190.9520  177.8780  145.5440 F   0  0  0  0  0  0  0  0  0  0  0  0
  191.7090  178.8860  143.6930 F   0  0  0  0  0  0  0  0  0  0  0  0
  191.7100  176.5570  143.8830 O   0  0  0  0  0  0  0  0  0  0  0  0
  192.2080  174.3810  144.7160 C   0  0  0  0  0  1  0  0  0  0  0  0
  191.8900  175.8210  145.0650 C   0  0  0  0  0  2  0  0  0  0  0  0
  188.2810  178.5530  140.3670 C   0  0  2  0  0  3  0  0  0  0  0  0
  186.8450  178.5100  139.8570 C   0  0  0  0  0  2  0  0  0  0  0  0
  186.8330  178.4650  138.4600 O   0  0  0  0  0  1  0  0  0  0  0  0
  189.1610  177.7220  139.4440 C   0  0  0  0  0  2  0  0  0  0  0  0
  189.9340  176.7010  140.2530 C   0  0  0  0  0  2  0  0  0  0  0  0
  191.3990  176.7740  139.8950 C   0  0  0  0  0  2  0  0  0  0  0  0
  192.9040  176.0100  138.0260 C   0  0  0  0  0  0  0  0  0  0  0  0
  191.6280  176.0380  138.6690 N   0  0  0  0  0  2  0  0  0  0  0  0
  193.8530  176.7160  138.4660 O   0  0  0  0  0  0  0  0  0  0  0  0
  193.1530  176.0850  134.6120 C   0  0  0  0  0  3  0  0  0  0  0  0
  194.6540  176.1840  134.5950 C   0  0  0  0  0  2  0  0  0  0  0  0
  192.4470  175.5160  135.6050 C   0  0  0  0  0  0  0  0  0  0  0  0
  194.6150  174.7940  136.7030 C   0  0  0  0  0  2  0  0  0  0  0  0
  193.1190  175.0570  136.8830 C   0  0  1  0  0  3  0  0  0  0  0  0
  195.2630  175.9780  135.9840 C   0  0  1  0  0  3  0  0  0  0  0  0
  191.0170  175.4060  135.5230 N   0  0  0  0  0  2  0  0  0  0  0  0
  190.8210  173.0790  135.2390 O   0  0  0  0  0  0  0  0  0  0  0  0
  190.2560  174.2030  135.3350 C   0  0  0  0  0  0  0  0  0  0  0  0
  188.7680  174.2730  135.2620 C   0  0  0  0  0  2  0  0  0  0  0  0
  187.1250  174.6720  137.1540 N   0  0  0  0  0  2  0  0  0  0  0  0
  188.1350  173.8600  136.5520 C   0  0  0  0  0  0  0  0  0  0  0  0
  188.5250  172.8190  137.1430 O   0  0  0  0  0  0  0  0  0  0  0  0
  186.6490  175.7910  136.5500 O   0  0  0  0  0  0  0  0  0  0  0  0
  184.5200  176.7120  135.9520 C   0  0  0  0  0  1  0  0  0  0  0  0
  185.3630  175.4570  136.1120 C   0  0  2  0  0  3  0  0  0  0  0  0
  183.3250  174.4920  136.9420 O   0  0  0  0  0  1  0  0  0  0  0  0
  184.7100  174.5020  137.1020 C   0  0  0  0  0  2  0  0  0  0  0  0
  196.6750  175.9250  135.9680 O   0  0  0  0  0  0  0  0  0  0  0  0
  197.0890  174.8490  135.1610 C   0  0  0  0  0  2  0  0  0  0  0  0
  199.1100  175.0850  136.4030 O   0  0  0  0  0  1  0  0  0  0  0  0
  198.2850  174.1470  135.7820 C   0  0  0  0  0  0  0  0  0  0  0  0
  197.8530  173.2110  136.7230 O   0  0  0  0  0  1  0  0  0  0  0  0
  199.0660  173.4380  134.6940 C   0  0  0  0  0  1  0  0  0  0  0  0
  185.1060  177.4320  143.5050 N   0  0  0  0  0  2  0  0  0  0  0  0
  184.6610  178.4910  142.6070 C   0  0  0  0  0  2  0  0  0  0  0  0
  184.6070  178.0010  141.1670 C   0  0  0  0  0  2  0  0  0  0  0  0
  183.0600  176.9610  139.5310 C   0  0  0  0  0  2  0  0  0  0  0  0
  180.6250  177.1050  140.2070 C   0  0  1  0  0  3  0  0  0  0  0  0
  183.1790  177.9890  140.6540 C   0  0  2  0  0  3  0  0  0  0  0  0
  181.6380  178.9060  137.5290 C   0  0  0  0  0  2  0  0  0  0  0  0
  181.6120  176.7550  139.0810 C   0  0  1  0  0  3  0  0  0  0  0  0
  181.3430  177.4010  137.7110 C   0  0  1  0  0  3  0  0  0  0  0  0
  181.5600  181.3040  138.2100 C   0  0  0  0  0  1  0  0  0  0  0  0
  180.0670  176.9280  137.0400 C   0  0  0  0  0  1  0  0  0  0  0  0
  181.3860  179.5810  139.9640 C   0  0  1  0  0  3  0  0  0  0  0  0
  182.8300  179.3190  140.1690 N   0  0  0  0  0  2  0  0  0  0  0  0
  179.1040  178.9760  139.5200 C   0  0  0  0  0  2  0  0  0  0  0  0
  181.0230  179.9220  138.5360 C   0  0  2  0  0  0  0  0  0  0  0  0
  179.5540  179.9760  138.5510 N   0  0  0  0  0  0  0  0  0  0  0  0
  178.9310  179.7360  137.2540 C   0  0  0  0  0  1  0  0  0  0  0  0
  180.2930  178.5940  140.4100 C   0  0  1  0  0  3  0  0  0  0  0  0
  178.9310  176.0800  141.5300 O   0  0  0  0  0  1  0  0  0  0  0  0
  179.4960  176.1440  140.4070 C   0  0  0  0  0  0  0  0  0  0  0  0
  179.0390  175.3500  139.3610 O   0  0  0  0  0  0  0  0  0  0  0  0
  1  2  1  0  0  0  0
  2  8  1  1  0  0  0
  2  7  1  0  0  0  0
  3  7  1  6  0  0  0
  4 47  1  1  0  0  0
  4  3  1  0  0  0  0
  5  4  1  0  0  0  0
  5  3  1  0  0  0  0
  6  1  1  0  0  0  0
  6  5  1  0  0  0  0
  8  9  1  0  0  0  0
 10  8  1  0  0  0  0
 11  8  1  0  0  0  0
 11 13  1  0  0  0  0
 12 13  1  0  0  0  0
 14  6  1  0  0  0  0
 15 14  1  0  0  0  0
 16 15  1  0  0  0  0
 17 18  1  0  0  0  0
 17 14  1  0  0  0  0
 19 18  1  0  0  0  0
 20 22  2  0  0  0  0
 20 21  1  0  0  0  0
 21 19  1  0  0  0  0
 23 25  2  0  0  0  0
 24 23  1  0  0  0  0
 24 28  1  0  0  0  0
 25 27  1  0  0  0  0
 26 27  1  0  0  0  0
 27 20  1  0  0  0  0
 28 26  1  0  0  0  0
 29 25  1  0  0  0  0
 30 31  2  0  0  0  0
 31 29  1  0  0  0  0
 32 31  1  0  0  0  0
 32 34  1  0  0  0  0
 34 35  2  0  0  0  0
 34 33  1  0  0  0  0
 36 33  1  0  0  0  0
 37 38  1  0  0  0  0
 38 36  1  0  0  0  0
 38 40  1  0  0  0  0
 39 40  1  0  0  0  0
 41 28  1  0  0  0  0
 42 44  1  0  0  0  0
 42 41  1  0  0  0  0
 44 43  1  0  0  0  0
 44 45  1  0  0  0  0
 46 44  1  0  0  0  0
 48 47  1  0  0  0  0
 49 48  1  0  0  0  0
 50 52  1  0  0  0  0
 51 66  1  0  0  0  0
 51 64  1  0  0  0  0
 52 49  1  0  0  0  0
 53 55  1  0  0  0  0
 53 61  1  0  0  0  0
 54 50  1  0  0  0  0
 54 51  1  0  0  0  0
 55 54  1  0  0  0  0
 56 61  1  0  0  0  0
 57 55  1  0  0  0  0
 58 59  1  0  0  0  0
 58 64  1  0  0  0  0
 59 52  1  0  0  0  0
 60 64  1  0  0  0  0
 61 62  1  0  0  0  0
 61 58  1  0  0  0  0
 62 60  1  0  0  0  0
 63 62  1  0  0  0  0
 66 65  1  0  0  0  0
 67 66  2  0  0  0  0
M  END
>  <MODEL>
4

>  <REMARK>
 VINA RESULT:      -5.5      2.274      6.535
  Name = 
  24 active torsions:
  status: ('A' for Active; 'I' for Inactive)
    1  A    between atoms: C_4  and  C_8
    2  A    between atoms: N_5  and  O_43
    3  A    between atoms: C_7  and  C_25
    4  A    between atoms: N_9  and  C_15
    5  A    between atoms: N_9  and  C_29
    6  A    between atoms: C_10  and  C_54
    7  A    between atoms: C_11  and  C_20
    8  A    between atoms: C_13  and  C_62
    9  A    between atoms: C_15  and  C_20
   10  A    between atoms: C_16  and  C_66
   11  A    between atoms: C_16  and  C_67
   12  A    between atoms: C_17  and  C_51
   13  A    between atoms: C_17  and  C_60
   14  A    between atoms: C_17  and  C_66
   15  A    between atoms: N_19  and  C_27
   16  A    between atoms: O_22  and  C_39
   17  A    between atoms: O_22  and  C_55
   18  A    between atoms: C_24  and  C_39
   19  A    between atoms: C_25  and  O_49
   20  A    between atoms: N_30  and  C_67
   21  A    between atoms: C_38  and  C_41
   22  A    between atoms: C_38  and  O_43
   23  A    between atoms: O_49  and  C_59
   24  A    between atoms: C_58  and  C_62
                            x       y       z     vdW  Elec       q    Type
                         _______ _______ _______ _____ _____    ______ ____

>  <TORSDO>
F 24

$$$$
=
 OpenBabel10222416033D

 67 72  0  0  1  0  0  0  0  0999 V2000
  189.4590  177.4670  144.6600 O   0  0  0  0  0  0  0  0  0  0  0  0
  188.3310  177.2400  145.4580 C   0  0  2  0  0  3  0  0  0  0  0  0
  187.1440  178.6660  143.6650 C   0  0  2  0  0  3  0  0  0  0  0  0
  186.7100  177.4620  142.8480 C   0  0  2  0  0  3  0  0  0  0  0  0
  188.1330  177.9770  142.7120 C   0  0  2  0  0  3  0  0  0  0  0  0
  189.0990  176.9930  143.3890 C   0  0  1  0  0  3  0  0  0  0  0  0
  187.2750  178.3090  145.1580 C   0  0  0  0  0  2  0  0  0  0  0  0
  188.6920  177.2220  146.9500 C   0  0  0  0  0  0  0  0  0  0  0  0
  189.6340  178.2100  147.1790 F   0  0  0  0  0  0  0  0  0  0  0  0
  189.2720  176.0030  147.2960 F   0  0  0  0  0  0  0  0  0  0  0  0
  187.5590  177.5300  147.7370 O   0  0  0  0  0  0  0  0  0  0  0  0
  189.4040  178.4510  148.9310 C   0  0  0  0  0  1  0  0  0  0  0  0
  187.9650  177.9810  149.0030 C   0  0  0  0  0  2  0  0  0  0  0  0
  190.3380  176.8040  142.5060 C   0  0  2  0  0  3  0  0  0  0  0  0
  191.5270  176.3950  143.3660 C   0  0  0  0  0  2  0  0  0  0  0  0
  191.4730  175.0260  143.6400 O   0  0  0  0  0  1  0  0  0  0  0  0
  190.6880  178.0750  141.7460 C   0  0  0  0  0  2  0  0  0  0  0  0
  190.4240  177.8800  140.2670 C   0  0  0  0  0  2  0  0  0  0  0  0
  190.5130  176.4110  139.9260 C   0  0  0  0  0  2  0  0  0  0  0  0
  188.7270  176.6960  138.1750 C   0  0  0  0  0  0  0  0  0  0  0  0
  190.0020  176.2000  138.5880 N   0  0  0  0  0  2  0  0  0  0  0  0
  187.9620  177.2560  139.0080 O   0  0  0  0  0  0  0  0  0  0  0  0
  188.8120  174.4490  135.5930 C   0  0  0  0  0  3  0  0  0  0  0  0
  187.4050  173.9600  135.8020 C   0  0  0  0  0  2  0  0  0  0  0  0
  189.2420  175.6760  135.9380 C   0  0  0  0  0  0  0  0  0  0  0  0
  186.8700  176.3040  136.5750 C   0  0  0  0  0  2  0  0  0  0  0  0
  188.3580  176.6270  136.7190 C   0  0  1  0  0  3  0  0  0  0  0  0
  186.6420  174.8110  136.8190 C   0  0  1  0  0  3  0  0  0  0  0  0
  190.5870  176.0920  135.6520 N   0  0  0  0  0  2  0  0  0  0  0  0
  191.7440  174.1520  136.3080 O   0  0  0  0  0  0  0  0  0  0  0  0
  191.7860  175.3280  135.8530 C   0  0  0  0  0  0  0  0  0  0  0  0
  193.1090  175.9240  135.5100 C   0  0  0  0  0  2  0  0  0  0  0  0
  195.1460  175.3980  136.9300 N   0  0  0  0  0  2  0  0  0  0  0  0
  193.9440  176.1450  136.7310 C   0  0  0  0  0  0  0  0  0  0  0  0
  193.5660  176.9560  137.6160 O   0  0  0  0  0  0  0  0  0  0  0  0
  195.6140  174.5300  135.9970 O   0  0  0  0  0  0  0  0  0  0  0  0
  197.3460  173.0720  136.7800 C   0  0  0  0  0  1  0  0  0  0  0  0
  195.8520  173.3370  136.6880 C   0  0  2  0  0  3  0  0  0  0  0  0
  194.5840  171.3090  136.9140 O   0  0  0  0  0  1  0  0  0  0  0  0
  195.1510  172.1830  135.9860 C   0  0  0  0  0  2  0  0  0  0  0  0
  185.2770  174.4580  136.9250 O   0  0  0  0  0  0  0  0  0  0  0  0
  185.1770  173.1410  137.4100 C   0  0  0  0  0  2  0  0  0  0  0  0
  183.2730  171.7050  137.3910 O   0  0  0  0  0  1  0  0  0  0  0  0
  184.2050  172.3350  136.5640 C   0  0  0  0  0  0  0  0  0  0  0  0
  183.5410  173.1750  135.6700 O   0  0  0  0  0  1  0  0  0  0  0  0
  184.9730  171.2860  135.7870 C   0  0  0  0  0  1  0  0  0  0  0  0
  185.9420  177.8990  141.6930 N   0  0  0  0  0  2  0  0  0  0  0  0
  185.1420  179.0510  142.0900 C   0  0  0  0  0  2  0  0  0  0  0  0
  183.7700  178.6190  142.5900 C   0  0  0  0  0  2  0  0  0  0  0  0
  183.6840  178.2150  140.1450 C   0  0  0  0  0  2  0  0  0  0  0  0
  181.7220  176.7880  139.4230 C   0  0  1  0  0  3  0  0  0  0  0  0
  182.8590  178.2660  141.4290 C   0  0  2  0  0  3  0  0  0  0  0  0
  181.7410  180.0410  138.5000 C   0  0  0  0  0  2  0  0  0  0  0  0
  182.8770  177.6880  138.9560 C   0  0  1  0  0  3  0  0  0  0  0  0
  182.5110  178.8130  137.9710 C   0  0  1  0  0  3  0  0  0  0  0  0
  179.9360  181.1650  139.8050 C   0  0  0  0  0  1  0  0  0  0  0  0
  182.0510  178.3230  136.6120 C   0  0  0  0  0  1  0  0  0  0  0  0
  180.6390  178.9020  140.4840 C   0  0  1  0  0  3  0  0  0  0  0  0
  181.8050  179.2680  141.3210 N   0  0  0  0  0  2  0  0  0  0  0  0
  179.5060  177.7290  138.7200 C   0  0  0  0  0  2  0  0  0  0  0  0
  180.4240  179.8190  139.3010 C   0  0  2  0  0  0  0  0  0  0  0  0
  179.3380  179.1730  138.5490 N   0  0  0  0  0  0  0  0  0  0  0  0
  179.3050  179.5110  137.1300 C   0  0  0  0  0  1  0  0  0  0  0  0
  180.4420  177.4880  139.9120 C   0  0  1  0  0  3  0  0  0  0  0  0
  182.2310  175.3110  137.6260 O   0  0  0  0  0  0  0  0  0  0  0  0
  181.5280  175.5220  138.6500 C   0  0  0  0  0  0  0  0  0  0  0  0
  180.6150  174.5600  139.0660 O   0  0  0  0  0  1  0  0  0  0  0  0
  1  2  1  0  0  0  0
  2  8  1  1  0  0  0
  3  7  1  1  0  0  0
  4 47  1  6  0  0  0
  4  3  1  0  0  0  0
  5  4  1  0  0  0  0
  5  6  1  0  0  0  0
  5  3  1  0  0  0  0
  6  1  1  0  0  0  0
  7  2  1  0  0  0  0
  8  9  1  0  0  0  0
  8 10  1  0  0  0  0
  8 11  1  0  0  0  0
 11 13  1  0  0  0  0
 12 13  1  0  0  0  0
 14 15  1  0  0  0  0
 14  6  1  0  0  0  0
 15 16  1  0  0  0  0
 17 14  1  0  0  0  0
 18 17  1  0  0  0  0
 19 18  1  0  0  0  0
 20 21  1  0  0  0  0
 20 22  2  0  0  0  0
 21 19  1  0  0  0  0
 23 24  1  0  0  0  0
 23 25  2  0  0  0  0
 24 28  1  0  0  0  0
 25 27  1  0  0  0  0
 26 27  1  0  0  0  0
 26 28  1  0  0  0  0
 27 20  1  0  0  0  0
 28 41  1  0  0  0  0
 29 31  1  0  0  0  0
 29 25  1  0  0  0  0
 31 30  2  0  0  0  0
 32 31  1  0  0  0  0
 32 34  1  0  0  0  0
 34 33  1  0  0  0  0
 34 35  2  0  0  0  0
 36 38  1  0  0  0  0
 36 33  1  0  0  0  0
 38 37  1  0  0  0  0
 40 38  1  0  0  0  0
 40 39  1  0  0  0  0
 41 42  1  0  0  0  0
 44 43  1  0  0  0  0
 44 42  1  0  0  0  0
 45 44  1  0  0  0  0
 46 44  1  0  0  0  0
 47 48  1  0  0  0  0
 48 49  1  0  0  0  0
 50 52  1  0  0  0  0
 51 64  1  0  0  0  0
 52 49  1  0  0  0  0
 53 61  1  0  0  0  0
 54 51  1  0  0  0  0
 54 50  1  0  0  0  0
 55 53  1  0  0  0  0
 55 54  1  0  0  0  0
 57 55  1  0  0  0  0
 58 59  1  0  0  0  0
 59 52  1  0  0  0  0
 60 64  1  0  0  0  0
 61 56  1  0  0  0  0
 61 58  1  0  0  0  0
 62 60  1  0  0  0  0
 62 61  1  0  0  0  0
 63 62  1  0  0  0  0
 64 58  1  0  0  0  0
 65 66  2  0  0  0  0
 66 67  1  0  0  0  0
 66 51  1  0  0  0  0
M  END
>  <MODEL>
5

>  <REMARK>
 VINA RESULT:      -5.2      1.611      2.127
  Name = 
  24 active torsions:
  status: ('A' for Active; 'I' for Inactive)
    1  A    between atoms: C_4  and  C_8
    2  A    between atoms: N_5  and  O_43
    3  A    between atoms: C_7  and  C_25
    4  A    between atoms: N_9  and  C_15
    5  A    between atoms: N_9  and  C_29
    6  A    between atoms: C_10  and  C_54
    7  A    between atoms: C_11  and  C_20
    8  A    between atoms: C_13  and  C_62
    9  A    between atoms: C_15  and  C_20
   10  A    between atoms: C_16  and  C_66
   11  A    between atoms: C_16  and  C_67
   12  A    between atoms: C_17  and  C_51
   13  A    between atoms: C_17  and  C_60
   14  A    between atoms: C_17  and  C_66
   15  A    between atoms: N_19  and  C_27
   16  A    between atoms: O_22  and  C_39
   17  A    between atoms: O_22  and  C_55
   18  A    between atoms: C_24  and  C_39
   19  A    between atoms: C_25  and  O_49
   20  A    between atoms: N_30  and  C_67
   21  A    between atoms: C_38  and  C_41
   22  A    between atoms: C_38  and  O_43
   23  A    between atoms: O_49  and  C_59
   24  A    between atoms: C_58  and  C_62
                            x       y       z     vdW  Elec       q    Type
                         _______ _______ _______ _____ _____    ______ ____

>  <TORSDO>
F 24

$$$$
=
 OpenBabel10222416033D

 67 72  0  0  1  0  0  0  0  0999 V2000
  190.2140  175.2670  137.6230 O   0  0  0  0  0  0  0  0  0  0  0  0
  190.6430  175.2180  136.2920 C   0  0  2  0  0  3  0  0  0  0  0  0
  188.1690  175.7440  135.7860 C   0  0  2  0  0  3  0  0  0  0  0  0
  188.3940  177.2440  135.7210 C   0  0  2  0  0  3  0  0  0  0  0  0
  188.2610  176.5720  137.0770 C   0  0  2  0  0  3  0  0  0  0  0  0
  189.6340  176.5380  137.7660 C   0  0  1  0  0  3  0  0  0  0  0  0
  189.4370  174.9700  135.3800 C   0  0  0  0  0  2  0  0  0  0  0  0
  191.7210  174.1440  136.0880 C   0  0  0  0  0  0  0  0  0  0  0  0
  191.1390  173.0620  135.4520 F   0  0  0  0  0  0  0  0  0  0  0  0
  192.2030  173.6980  137.3170 F   0  0  0  0  0  0  0  0  0  0  0  0
  192.7460  174.6270  135.2430 O   0  0  0  0  0  0  0  0  0  0  0  0
  194.0480  176.5270  135.8540 C   0  0  0  0  0  1  0  0  0  0  0  0
  193.8480  175.0330  136.0120 C   0  0  0  0  0  2  0  0  0  0  0  0
  189.4720  176.9010  139.2460 C   0  0  2  0  0  3  0  0  0  0  0  0
  189.2620  178.4040  139.3890 C   0  0  0  0  0  2  0  0  0  0  0  0
  187.9050  178.6820  139.5770 O   0  0  0  0  0  1  0  0  0  0  0  0
  190.6880  176.4900  140.0640 C   0  0  0  0  0  2  0  0  0  0  0  0
  190.4960  176.8950  141.5110 C   0  0  0  0  0  2  0  0  0  0  0  0
  191.4400  178.0220  141.8530 C   0  0  0  0  0  2  0  0  0  0  0  0
  189.9730  178.2930  143.8810 C   0  0  0  0  0  0  0  0  0  0  0  0
  191.2430  178.4080  143.2350 N   0  0  0  0  0  2  0  0  0  0  0  0
  188.9550  177.9370  143.2250 O   0  0  0  0  0  0  0  0  0  0  0  0
  188.6810  176.7480  146.6490 C   0  0  0  0  0  3  0  0  0  0  0  0
  189.9480  176.0130  146.9900 C   0  0  0  0  0  2  0  0  0  0  0  0
  188.6420  177.9120  145.9770 C   0  0  0  0  0  0  0  0  0  0  0  0
  191.1750  178.0020  146.0330 C   0  0  0  0  0  2  0  0  0  0  0  0
  189.8940  178.5080  145.3670 C   0  0  1  0  0  3  0  0  0  0  0  0
  191.1320  176.4770  146.1390 C   0  0  1  0  0  3  0  0  0  0  0  0
  187.3950  178.5850  145.7410 N   0  0  0  0  0  2  0  0  0  0  0  0
  186.3000  176.9400  144.4640 O   0  0  0  0  0  0  0  0  0  0  0  0
  186.2770  178.0860  144.9910 C   0  0  0  0  0  0  0  0  0  0  0  0
  185.0560  178.9280  144.8350 C   0  0  0  0  0  2  0  0  0  0  0  0
  183.3430  179.1160  142.9720 N   0  0  0  0  0  2  0  0  0  0  0  0
  184.7080  179.1280  143.3940 C   0  0  0  0  0  0  0  0  0  0  0  0
  185.6200  179.2590  142.5360 O   0  0  0  0  0  0  0  0  0  0  0  0
  182.3190  179.0050  143.8560 O   0  0  0  0  0  0  0  0  0  0  0  0
  181.5320  178.8650  141.5980 C   0  0  0  0  0  1  0  0  0  0  0  0
  181.1710  178.8360  143.0740 C   0  0  2  0  0  3  0  0  0  0  0  0
  179.7710  180.5990  142.2380 O   0  0  0  0  0  1  0  0  0  0  0  0
  180.1600  179.9260  143.3950 C   0  0  0  0  0  2  0  0  0  0  0  0
  192.3610  175.9030  146.5380 O   0  0  0  0  0  0  0  0  0  0  0  0
  192.2140  175.3410  147.8190 C   0  0  0  0  0  2  0  0  0  0  0  0
  194.4610  176.0040  148.2600 O   0  0  0  0  0  1  0  0  0  0  0  0
  193.1750  175.9910  148.8010 C   0  0  0  0  0  0  0  0  0  0  0  0
  192.7690  177.2990  149.0690 O   0  0  0  0  0  1  0  0  0  0  0  0
  193.1830  175.1970  150.0900 C   0  0  0  0  0  1  0  0  0  0  0  0
  187.1440  177.9190  135.4090 N   0  0  0  0  0  2  0  0  0  0  0  0
  186.0490  177.1100  135.9310 C   0  0  0  0  0  2  0  0  0  0  0  0
  184.9590  176.9220  134.8840 C   0  0  0  0  0  2  0  0  0  0  0  0
  183.7520  176.9560  137.0500 C   0  0  0  0  0  2  0  0  0  0  0  0
  181.3560  177.7500  136.8610 C   0  0  1  0  0  3  0  0  0  0  0  0
  183.5880  176.8810  135.5340 C   0  0  2  0  0  3  0  0  0  0  0  0
  181.8950  174.5050  137.6450 C   0  0  0  0  0  2  0  0  0  0  0  0
  182.4120  177.1030  137.7730 C   0  0  1  0  0  3  0  0  0  0  0  0
  181.9970  175.8000  138.4800 C   0  0  1  0  0  3  0  0  0  0  0  0
  181.1900  173.1640  135.6630 C   0  0  0  0  0  1  0  0  0  0  0  0
  180.8950  175.9720  139.5070 C   0  0  0  0  0  1  0  0  0  0  0  0
  181.4510  175.6010  135.3980 C   0  0  1  0  0  3  0  0  0  0  0  0
  182.9110  175.6480  135.1520 N   0  0  0  0  0  2  0  0  0  0  0  0
  179.4080  176.2120  136.5060 C   0  0  0  0  0  2  0  0  0  0  0  0
  181.0270  174.5070  136.3520 C   0  0  2  0  0  0  0  0  0  0  0  0
  179.5940  174.7610  136.5620 N   0  0  0  0  0  0  0  0  0  0  0  0
  179.0670  174.2340  137.8170 C   0  0  0  0  0  1  0  0  0  0  0  0
  180.6480  176.8330  135.8500 C   0  0  1  0  0  3  0  0  0  0  0  0
  180.9540  179.4360  138.4950 O   0  0  0  0  0  1  0  0  0  0  0  0
  180.5130  178.8130  137.4930 C   0  0  0  0  0  0  0  0  0  0  0  0
  179.2720  179.1500  136.9660 O   0  0  0  0  0  0  0  0  0  0  0  0
  1  6  1  0  0  0  0
  2  8  1  1  0  0  0
  2  1  1  0  0  0  0
  3  7  1  1  0  0  0
  3  5  1  0  0  0  0
  4 47  1  6  0  0  0
  4  3  1  0  0  0  0
  4  5  1  0  0  0  0
  5  6  1  0  0  0  0
  6 14  1  0  0  0  0
  7  2  1  0  0  0  0
  8 10  1  0  0  0  0
  9  8  1  0  0  0  0
 11 13  1  0  0  0  0
 11  8  1  0  0  0  0
 12 13  1  0  0  0  0
 14 15  1  0  0  0  0
 14 17  1  0  0  0  0
 15 16  1  0  0  0  0
 17 18  1  0  0  0  0
 18 19  1  0  0  0  0
 19 21  1  0  0  0  0
 20 27  1  0  0  0  0
 21 20  1  0  0  0  0
 22 20  2  0  0  0  0
 23 24  1  0  0  0  0
 25 23  2  0  0  0  0
 26 28  1  0  0  0  0
 27 25  1  0  0  0  0
 27 26  1  0  0  0  0
 28 41  1  0  0  0  0
 28 24  1  0  0  0  0
 29 25  1  0  0  0  0
 30 31  2  0  0  0  0
 31 29  1  0  0  0  0
 32 31  1  0  0  0  0
 33 34  1  0  0  0  0
 33 36  1  0  0  0  0
 34 32  1  0  0  0  0
 35 34  2  0  0  0  0
 37 38  1  0  0  0  0
 38 40  1  0  0  0  0
 38 36  1  0  0  0  0
 39 40  1  0  0  0  0
 41 42  1  0  0  0  0
 42 44  1  0  0  0  0
 43 44  1  0  0  0  0
 44 45  1  0  0  0  0
 44 46  1  0  0  0  0
 47 48  1  0  0  0  0
 49 52  1  0  0  0  0
 49 48  1  0  0  0  0
 50 54  1  0  0  0  0
 51 66  1  0  0  0  0
 51 54  1  0  0  0  0
 52 50  1  0  0  0  0
 53 55  1  0  0  0  0
 54 55  1  0  0  0  0
 55 57  1  0  0  0  0
 56 61  1  0  0  0  0
 58 64  1  0  0  0  0
 58 61  1  0  0  0  0
 59 58  1  0  0  0  0
 59 52  1  0  0  0  0
 60 62  1  0  0  0  0
 61 62  1  0  0  0  0
 61 53  1  0  0  0  0
 62 63  1  0  0  0  0
 64 60  1  0  0  0  0
 64 51  1  0  0  0  0
 66 65  1  0  0  0  0
 67 66  2  0  0  0  0
M  END
>  <MODEL>
6

>  <REMARK>
 VINA RESULT:      -5.0      3.733     10.054
  Name = 
  24 active torsions:
  status: ('A' for Active; 'I' for Inactive)
    1  A    between atoms: C_4  and  C_8
    2  A    between atoms: N_5  and  O_43
    3  A    between atoms: C_7  and  C_25
    4  A    between atoms: N_9  and  C_15
    5  A    between atoms: N_9  and  C_29
    6  A    between atoms: C_10  and  C_54
    7  A    between atoms: C_11  and  C_20
    8  A    between atoms: C_13  and  C_62
    9  A    between atoms: C_15  and  C_20
   10  A    between atoms: C_16  and  C_66
   11  A    between atoms: C_16  and  C_67
   12  A    between atoms: C_17  and  C_51
   13  A    between atoms: C_17  and  C_60
   14  A    between atoms: C_17  and  C_66
   15  A    between atoms: N_19  and  C_27
   16  A    between atoms: O_22  and  C_39
   17  A    between atoms: O_22  and  C_55
   18  A    between atoms: C_24  and  C_39
   19  A    between atoms: C_25  and  O_49
   20  A    between atoms: N_30  and  C_67
   21  A    between atoms: C_38  and  C_41
   22  A    between atoms: C_38  and  O_43
   23  A    between atoms: O_49  and  C_59
   24  A    between atoms: C_58  and  C_62
                            x       y       z     vdW  Elec       q    Type
                         _______ _______ _______ _____ _____    ______ ____

>  <TORSDO>
F 24

$$$$
=
 OpenBabel10222416033D

 67 72  0  0  1  0  0  0  0  0999 V2000
  185.4650  174.5220  136.1850 O   0  0  0  0  0  0  0  0  0  0  0  0
  185.6640  173.2820  136.8050 C   0  0  2  0  0  3  0  0  0  0  0  0
  188.1230  173.6710  136.1290 C   0  0  2  0  0  3  0  0  0  0  0  0
  188.4950  174.3060  137.4560 C   0  0  2  0  0  3  0  0  0  0  0  0
  187.7840  175.1440  136.4070 C   0  0  2  0  0  3  0  0  0  0  0  0
  186.3360  175.3980  136.8520 C   0  0  1  0  0  3  0  0  0  0  0  0
  186.9700  172.6640  136.2950 C   0  0  0  0  0  2  0  0  0  0  0  0
  184.4760  172.3390  136.5690 C   0  0  0  0  0  0  0  0  0  0  0  0
  184.2050  171.6790  137.7550 F   0  0  0  0  0  0  0  0  0  0  0  0
  184.8010  171.3730  135.6180 F   0  0  0  0  0  0  0  0  0  0  0  0
  183.3200  173.0760  136.2240 O   0  0  0  0  0  0  0  0  0  0  0  0
  181.1330  172.9880  135.2810 C   0  0  0  0  0  1  0  0  0  0  0  0
  182.4690  172.2870  135.4340 C   0  0  0  0  0  2  0  0  0  0  0  0
  185.9630  176.8580  136.5690 C   0  0  2  0  0  3  0  0  0  0  0  0
  186.9570  177.7870  137.2550 C   0  0  0  0  0  2  0  0  0  0  0  0
  186.3780  179.0420  137.4600 O   0  0  0  0  0  1  0  0  0  0  0  0
  184.5590  177.1860  137.0570 C   0  0  0  0  0  2  0  0  0  0  0  0
  183.5460  176.8170  135.9930 C   0  0  0  0  0  2  0  0  0  0  0  0
  182.2110  176.5340  136.6400 C   0  0  0  0  0  2  0  0  0  0  0  0
  181.8950  177.2890  139.0220 C   0  0  0  0  0  0  0  0  0  0  0  0
  181.9290  177.5640  137.6190 N   0  0  0  0  0  2  0  0  0  0  0  0
  182.0160  176.1050  139.4410 O   0  0  0  0  0  0  0  0  0  0  0  0
  183.4980  180.2460  139.6600 C   0  0  0  0  0  3  0  0  0  0  0  0
  182.5590  181.0820  138.8340 C   0  0  0  0  0  2  0  0  0  0  0  0
  183.1560  179.0840  140.2450 C   0  0  0  0  0  0  0  0  0  0  0  0
  180.7590  179.4420  139.5030 C   0  0  0  0  0  2  0  0  0  0  0  0
  181.8100  178.4400  139.9840 C   0  0  1  0  0  3  0  0  0  0  0  0
  181.3370  180.2890  138.3680 C   0  0  1  0  0  3  0  0  0  0  0  0
  184.0920  178.3710  141.0680 N   0  0  0  0  0  2  0  0  0  0  0  0
  183.5250  179.2640  143.1690 O   0  0  0  0  0  0  0  0  0  0  0  0
  184.2520  178.4880  142.4900 C   0  0  0  0  0  0  0  0  0  0  0  0
  185.2880  177.6740  143.1880 C   0  0  0  0  0  2  0  0  0  0  0  0
  187.1460  178.1040  144.8620 N   0  0  0  0  0  2  0  0  0  0  0  0
  185.8280  178.3840  144.3880 C   0  0  0  0  0  0  0  0  0  0  0  0
  185.1040  179.1980  145.0190 O   0  0  0  0  0  0  0  0  0  0  0  0
  187.9790  177.2550  144.2070 O   0  0  0  0  0  0  0  0  0  0  0  0
  188.6770  177.3720  146.4950 C   0  0  0  0  0  1  0  0  0  0  0  0
  189.0760  177.0820  145.0570 C   0  0  2  0  0  3  0  0  0  0  0  0
  190.5430  177.7860  143.2890 O   0  0  0  0  0  1  0  0  0  0  0  0
  190.2150  177.9960  144.6280 C   0  0  0  0  0  2  0  0  0  0  0  0
  180.3730  181.0890  137.7130 O   0  0  0  0  0  0  0  0  0  0  0  0
  180.8300  181.3960  136.4180 C   0  0  0  0  0  2  0  0  0  0  0  0
  178.9370  182.8280  136.6510 O   0  0  0  0  0  1  0  0  0  0  0  0
  179.8760  182.3590  135.7310 C   0  0  0  0  0  0  0  0  0  0  0  0
  180.5860  183.4370  135.2010 O   0  0  0  0  0  1  0  0  0  0  0  0
  179.1580  181.6350  134.6100 C   0  0  0  0  0  1  0  0  0  0  0  0
  189.9060  174.6570  137.4590 N   0  0  0  0  0  2  0  0  0  0  0  0
  190.1310  175.6420  136.4070 C   0  0  0  0  0  2  0  0  0  0  0  0
  191.5730  176.1290  136.4110 C   0  0  0  0  0  2  0  0  0  0  0  0
  192.8660  174.3230  137.5140 C   0  0  0  0  0  2  0  0  0  0  0  0
  193.4410  172.4010  135.9710 C   0  0  1  0  0  3  0  0  0  0  0  0
  192.5320  174.9770  136.1750 C   0  0  2  0  0  3  0  0  0  0  0  0
  195.9670  174.3620  137.0700 C   0  0  0  0  0  2  0  0  0  0  0  0
  193.6840  173.0410  137.3480 C   0  0  1  0  0  3  0  0  0  0  0  0
  195.1550  173.2440  137.7560 C   0  0  1  0  0  3  0  0  0  0  0  0
  196.7700  175.6650  135.1000 C   0  0  0  0  0  1  0  0  0  0  0  0
  195.9230  171.9540  137.9730 C   0  0  0  0  0  1  0  0  0  0  0  0
  194.6250  174.4640  134.9170 C   0  0  1  0  0  3  0  0  0  0  0  0
  193.7420  175.4800  135.5350 N   0  0  0  0  0  2  0  0  0  0  0  0
  195.5680  172.2700  134.6500 C   0  0  0  0  0  2  0  0  0  0  0  0
  196.0130  174.4160  135.5140 C   0  0  2  0  0  0  0  0  0  0  0  0
  196.6330  173.2500  134.8670 N   0  0  0  0  0  0  0  0  0  0  0  0
  197.7230  172.6490  135.6290 C   0  0  0  0  0  1  0  0  0  0  0  0
  194.2180  172.9860  134.7790 C   0  0  1  0  0  3  0  0  0  0  0  0
  193.7360  170.2280  136.9000 O   0  0  0  0  0  1  0  0  0  0  0  0
  193.2450  170.9180  135.9670 C   0  0  0  0  0  0  0  0  0  0  0  0
  192.4970  170.2970  134.9740 O   0  0  0  0  0  0  0  0  0  0  0  0
  1  2  1  0  0  0  0
  1  6  1  0  0  0  0
  2  8  1  6  0  0  0
  3  7  1  1  0  0  0
  3  5  1  0  0  0  0
  3  4  1  0  0  0  0
  4 47  1  6  0  0  0
  5  6  1  0  0  0  0
  5  4  1  0  0  0  0
  7  2  1  0  0  0  0
  8  9  1  0  0  0  0
 10  8  1  0  0  0  0
 11  8  1  0  0  0  0
 12 13  1  0  0  0  0
 13 11  1  0  0  0  0
 14  6  1  0  0  0  0
 14 17  1  0  0  0  0
 14 15  1  0  0  0  0
 15 16  1  0  0  0  0
 18 19  1  0  0  0  0
 18 17  1  0  0  0  0
 19 21  1  0  0  0  0
 20 22  2  0  0  0  0
 20 27  1  0  0  0  0
 21 20  1  0  0  0  0
 23 25  2  0  0  0  0
 24 23  1  0  0  0  0
 25 29  1  0  0  0  0
 26 27  1  0  0  0  0
 27 25  1  0  0  0  0
 28 24  1  0  0  0  0
 28 26  1  0  0  0  0
 29 31  1  0  0  0  0
 31 30  2  0  0  0  0
 31 32  1  0  0  0  0
 32 34  1  0  0  0  0
 34 33  1  0  0  0  0
 34 35  2  0  0  0  0
 36 33  1  0  0  0  0
 36 38  1  0  0  0  0
 38 37  1  0  0  0  0
 39 40  1  0  0  0  0
 40 38  1  0  0  0  0
 41 28  1  0  0  0  0
 42 41  1  0  0  0  0
 44 42  1  0  0  0  0
 44 43  1  0  0  0  0
 45 44  1  0  0  0  0
 46 44  1  0  0  0  0
 48 49  1  0  0  0  0
 48 47  1  0  0  0  0
 51 54  1  0  0  0  0
 52 49  1  0  0  0  0
 52 50  1  0  0  0  0
 53 55  1  0  0  0  0
 54 50  1  0  0  0  0
 54 55  1  0  0  0  0
 55 57  1  0  0  0  0
 56 61  1  0  0  0  0
 58 61  1  0  0  0  0
 58 59  1  0  0  0  0
 59 52  1  0  0  0  0
 60 64  1  0  0  0  0
 60 62  1  0  0  0  0
 61 53  1  0  0  0  0
 62 61  1  0  0  0  0
 62 63  1  0  0  0  0
 64 58  1  0  0  0  0
 64 51  1  0  0  0  0
 66 51  1  0  0  0  0
 66 65  1  0  0  0  0
 67 66  2  0  0  0  0
M  END
>  <MODEL>
7

>  <REMARK>
 VINA RESULT:      -4.8      3.480     11.388
  Name = 
  24 active torsions:
  status: ('A' for Active; 'I' for Inactive)
    1  A    between atoms: C_4  and  C_8
    2  A    between atoms: N_5  and  O_43
    3  A    between atoms: C_7  and  C_25
    4  A    between atoms: N_9  and  C_15
    5  A    between atoms: N_9  and  C_29
    6  A    between atoms: C_10  and  C_54
    7  A    between atoms: C_11  and  C_20
    8  A    between atoms: C_13  and  C_62
    9  A    between atoms: C_15  and  C_20
   10  A    between atoms: C_16  and  C_66
   11  A    between atoms: C_16  and  C_67
   12  A    between atoms: C_17  and  C_51
   13  A    between atoms: C_17  and  C_60
   14  A    between atoms: C_17  and  C_66
   15  A    between atoms: N_19  and  C_27
   16  A    between atoms: O_22  and  C_39
   17  A    between atoms: O_22  and  C_55
   18  A    between atoms: C_24  and  C_39
   19  A    between atoms: C_25  and  O_49
   20  A    between atoms: N_30  and  C_67
   21  A    between atoms: C_38  and  C_41
   22  A    between atoms: C_38  and  O_43
   23  A    between atoms: O_49  and  C_59
   24  A    between atoms: C_58  and  C_62
                            x       y       z     vdW  Elec       q    Type
                         _______ _______ _______ _____ _____    ______ ____

>  <TORSDO>
F 24

$$$$
=
 OpenBabel10222416033D

 67 72  0  0  1  0  0  0  0  0999 V2000
  188.8950  176.8710  138.7480 O   0  0  0  0  0  0  0  0  0  0  0  0
  190.2670  176.9330  139.0170 C   0  0  2  0  0  3  0  0  0  0  0  0
  190.3620  174.8740  137.4650 C   0  0  2  0  0  3  0  0  0  0  0  0
  190.6480  175.6970  136.2220 C   0  0  2  0  0  3  0  0  0  0  0  0
  189.2200  175.5930  136.7300 C   0  0  2  0  0  3  0  0  0  0  0  0
  188.8010  176.9350  137.3490 C   0  0  1  0  0  3  0  0  0  0  0  0
  190.9020  175.5680  138.7300 C   0  0  0  0  0  2  0  0  0  0  0  0
  190.5380  177.3770  140.4610 C   0  0  0  0  0  0  0  0  0  0  0  0
  189.6520  178.3930  140.7740 F   0  0  0  0  0  0  0  0  0  0  0  0
  191.8270  177.8950  140.5780 F   0  0  0  0  0  0  0  0  0  0  0  0
  190.2930  176.3140  141.3600 O   0  0  0  0  0  0  0  0  0  0  0  0
  190.0840  177.3670  143.4870 C   0  0  0  0  0  1  0  0  0  0  0  0
  190.9680  176.5460  142.5690 C   0  0  0  0  0  2  0  0  0  0  0  0
  187.3710  177.2730  136.9130 C   0  0  2  0  0  3  0  0  0  0  0  0
  187.3680  177.7250  135.4570 C   0  0  0  0  0  2  0  0  0  0  0  0
  187.3760  176.6130  134.6100 O   0  0  0  0  0  1  0  0  0  0  0  0
  186.7640  178.3720  137.7740 C   0  0  0  0  0  2  0  0  0  0  0  0
  185.3640  177.9780  138.1990 C   0  0  0  0  0  2  0  0  0  0  0  0
  184.9470  178.8010  139.3950 C   0  0  0  0  0  2  0  0  0  0  0  0
  182.5580  178.0200  139.2410 C   0  0  0  0  0  0  0  0  0  0  0  0
  183.5260  179.0690  139.3170 N   0  0  0  0  0  2  0  0  0  0  0  0
  182.9290  176.8180  139.1420 O   0  0  0  0  0  0  0  0  0  0  0  0
  179.6960  176.6710  140.5470 C   0  0  0  0  0  3  0  0  0  0  0  0
  179.8160  177.3710  141.8740 C   0  0  0  0  0  2  0  0  0  0  0  0
  180.2100  177.1410  139.3980 C   0  0  0  0  0  0  0  0  0  0  0  0
  180.8950  179.2650  140.5990 C   0  0  0  0  0  2  0  0  0  0  0  0
  181.1020  178.3660  139.3790 C   0  0  1  0  0  3  0  0  0  0  0  0
  180.9300  178.4200  141.8730 C   0  0  1  0  0  3  0  0  0  0  0  0
  180.0020  176.4450  138.1590 N   0  0  0  0  0  2  0  0  0  0  0  0
  179.4930  178.2700  136.7650 O   0  0  0  0  0  0  0  0  0  0  0  0
  179.6450  177.0250  136.8940 C   0  0  0  0  0  0  0  0  0  0  0  0
  179.4570  176.1460  135.7040 C   0  0  0  0  0  2  0  0  0  0  0  0
  181.2210  174.6330  134.6850 N   0  0  0  0  0  2  0  0  0  0  0  0
  180.7390  175.9500  134.9600 C   0  0  0  0  0  0  0  0  0  0  0  0
  181.4280  176.9440  134.6150 O   0  0  0  0  0  0  0  0  0  0  0  0
  180.5070  173.5250  135.0110 O   0  0  0  0  0  0  0  0  0  0  0  0
  182.4600  173.5140  136.3980 C   0  0  0  0  0  1  0  0  0  0  0  0
  180.9980  173.1210  136.2570 C   0  0  2  0  0  3  0  0  0  0  0  0
  179.4990  171.2440  136.2730 O   0  0  0  0  0  1  0  0  0  0  0  0
  180.8350  171.6160  136.4160 C   0  0  0  0  0  2  0  0  0  0  0  0
  180.9690  179.1880  143.0590 O   0  0  0  0  0  0  0  0  0  0  0  0
  181.7030  178.4920  144.0370 C   0  0  0  0  0  2  0  0  0  0  0  0
  183.0860  180.4270  143.8650 O   0  0  0  0  0  1  0  0  0  0  0  0
  183.1070  179.0620  144.1570 C   0  0  0  0  0  0  0  0  0  0  0  0
  183.5910  178.8700  145.4510 O   0  0  0  0  0  1  0  0  0  0  0  0
  184.0170  178.3550  143.1740 C   0  0  0  0  0  1  0  0  0  0  0  0
  190.8010  174.8180  135.0720 N   0  0  0  0  0  2  0  0  0  0  0  0
  190.6810  173.4410  135.5350 C   0  0  0  0  0  2  0  0  0  0  0  0
  191.5680  172.5090  134.7200 C   0  0  0  0  0  2  0  0  0  0  0  0
  193.0790  172.6350  136.6820 C   0  0  0  0  0  2  0  0  0  0  0  0
  195.4480  171.8940  136.1850 C   0  0  1  0  0  3  0  0  0  0  0  0
  193.0160  172.6250  135.1560 C   0  0  2  0  0  3  0  0  0  0  0  0
  194.9180  175.1640  136.8630 C   0  0  0  0  0  2  0  0  0  0  0  0
  194.5150  172.5650  137.2060 C   0  0  1  0  0  3  0  0  0  0  0  0
  194.9830  173.9190  137.7720 C   0  0  1  0  0  3  0  0  0  0  0  0
  195.2780  176.4050  134.7280 C   0  0  0  0  0  1  0  0  0  0  0  0
  196.2280  173.8350  138.6320 C   0  0  0  0  0  1  0  0  0  0  0  0
  195.0660  173.9500  134.6370 C   0  0  1  0  0  3  0  0  0  0  0  0
  193.5880  173.8510  134.6120 N   0  0  0  0  0  2  0  0  0  0  0  0
  197.2680  173.4600  135.4620 C   0  0  0  0  0  2  0  0  0  0  0  0
  195.5860  175.1090  135.4580 C   0  0  2  0  0  0  0  0  0  0  0  0
  197.0430  174.9060  135.4660 N   0  0  0  0  0  0  0  0  0  0  0  0
  197.7280  175.5190  136.5990 C   0  0  0  0  0  1  0  0  0  0  0  0
  195.9680  172.7680  135.0310 C   0  0  1  0  0  3  0  0  0  0  0  0
  196.0110  169.7220  136.9840 O   0  0  0  0  0  1  0  0  0  0  0  0
  196.4100  170.8920  136.7410 C   0  0  0  0  0  0  0  0  0  0  0  0
  197.7430  171.2220  136.9550 O   0  0  0  0  0  0  0  0  0  0  0  0
  1  2  1  0  0  0  0
  2  8  1  1  0  0  0
  3  7  1  1  0  0  0
  4 47  1  6  0  0  0
  4  5  1  0  0  0  0
  4  3  1  0  0  0  0
  5  6  1  0  0  0  0
  5  3  1  0  0  0  0
  6  1  1  0  0  0  0
  7  2  1  0  0  0  0
  8 10  1  0  0  0  0
  8  9  1  0  0  0  0
  8 11  1  0  0  0  0
 11 13  1  0  0  0  0
 13 12  1  0  0  0  0
 14  6  1  0  0  0  0
 14 17  1  0  0  0  0
 15 14  1  0  0  0  0
 16 15  1  0  0  0  0
 17 18  1  0  0  0  0
 18 19  1  0  0  0  0
 20 21  1  0  0  0  0
 20 27  1  0  0  0  0
 21 19  1  0  0  0  0
 22 20  2  0  0  0  0
 23 24  1  0  0  0  0
 25 23  2  0  0  0  0
 26 28  1  0  0  0  0
 27 25  1  0  0  0  0
 27 26  1  0  0  0  0
 28 24  1  0  0  0  0
 28 41  1  0  0  0  0
 29 25  1  0  0  0  0
 30 31  2  0  0  0  0
 31 29  1  0  0  0  0
 32 31  1  0  0  0  0
 33 34  1  0  0  0  0
 33 36  1  0  0  0  0
 34 32  1  0  0  0  0
 35 34  2  0  0  0  0
 36 38  1  0  0  0  0
 38 37  1  0  0  0  0
 38 40  1  0  0  0  0
 39 40  1  0  0  0  0
 41 42  1  0  0  0  0
 42 44  1  0  0  0  0
 43 44  1  0  0  0  0
 44 45  1  0  0  0  0
 46 44  1  0  0  0  0
 47 48  1  0  0  0  0
 49 52  1  0  0  0  0
 49 48  1  0  0  0  0
 50 54  1  0  0  0  0
 51 66  1  0  0  0  0
 51 54  1  0  0  0  0
 52 50  1  0  0  0  0
 53 55  1  0  0  0  0
 54 55  1  0  0  0  0
 55 57  1  0  0  0  0
 56 61  1  0  0  0  0
 58 64  1  0  0  0  0
 58 61  1  0  0  0  0
 59 58  1  0  0  0  0
 59 52  1  0  0  0  0
 60 62  1  0  0  0  0
 61 62  1  0  0  0  0
 61 53  1  0  0  0  0
 62 63  1  0  0  0  0
 64 60  1  0  0  0  0
 64 51  1  0  0  0  0
 66 67  2  0  0  0  0
 66 65  1  0  0  0  0
M  END
>  <MODEL>
8

>  <REMARK>
 VINA RESULT:      -4.8      2.891     11.808
  Name = 
  24 active torsions:
  status: ('A' for Active; 'I' for Inactive)
    1  A    between atoms: C_4  and  C_8
    2  A    between atoms: N_5  and  O_43
    3  A    between atoms: C_7  and  C_25
    4  A    between atoms: N_9  and  C_15
    5  A    between atoms: N_9  and  C_29
    6  A    between atoms: C_10  and  C_54
    7  A    between atoms: C_11  and  C_20
    8  A    between atoms: C_13  and  C_62
    9  A    between atoms: C_15  and  C_20
   10  A    between atoms: C_16  and  C_66
   11  A    between atoms: C_16  and  C_67
   12  A    between atoms: C_17  and  C_51
   13  A    between atoms: C_17  and  C_60
   14  A    between atoms: C_17  and  C_66
   15  A    between atoms: N_19  and  C_27
   16  A    between atoms: O_22  and  C_39
   17  A    between atoms: O_22  and  C_55
   18  A    between atoms: C_24  and  C_39
   19  A    between atoms: C_25  and  O_49
   20  A    between atoms: N_30  and  C_67
   21  A    between atoms: C_38  and  C_41
   22  A    between atoms: C_38  and  O_43
   23  A    between atoms: O_49  and  C_59
   24  A    between atoms: C_58  and  C_62
                            x       y       z     vdW  Elec       q    Type
                         _______ _______ _______ _____ _____    ______ ____

>  <TORSDO>
F 24

$$$$
=
 OpenBabel10222416033D

 67 72  0  0  1  0  0  0  0  0999 V2000
  188.5740  177.4390  143.2980 O   0  0  0  0  0  0  0  0  0  0  0  0
  187.1860  177.5850  143.4060 C   0  0  2  0  0  3  0  0  0  0  0  0
  187.4710  179.0300  141.2880 C   0  0  2  0  0  3  0  0  0  0  0  0
  187.1980  177.8770  140.3390 C   0  0  2  0  0  3  0  0  0  0  0  0
  188.5790  178.0170  140.9570 C   0  0  2  0  0  3  0  0  0  0  0  0
  188.7800  176.9170  142.0110 C   0  0  1  0  0  3  0  0  0  0  0  0
  186.7460  178.8320  142.6320 C   0  0  0  0  0  2  0  0  0  0  0  0
  186.7410  177.6580  144.8730 C   0  0  0  0  0  0  0  0  0  0  0  0
  186.0870  176.4790  145.1860 F   0  0  0  0  0  0  0  0  0  0  0  0
  185.8340  178.7010  145.0560 F   0  0  0  0  0  0  0  0  0  0  0  0
  187.8640  177.7550  145.7260 O   0  0  0  0  0  0  0  0  0  0  0  0
  188.6360  178.3490  147.9010 C   0  0  0  0  0  1  0  0  0  0  0  0
  187.5270  178.4860  146.8770 C   0  0  0  0  0  2  0  0  0  0  0  0
  190.1920  176.3340  141.8770 C   0  0  2  0  0  3  0  0  0  0  0  0
  191.0360  176.7480  143.0770 C   0  0  0  0  0  2  0  0  0  0  0  0
  191.8050  175.6670  143.5170 O   0  0  0  0  0  1  0  0  0  0  0  0
  190.8770  176.8040  140.6020 C   0  0  0  0  0  2  0  0  0  0  0  0
  191.9610  177.8080  140.9410 C   0  0  0  0  0  2  0  0  0  0  0  0
  193.3100  177.2410  140.5690 C   0  0  0  0  0  2  0  0  0  0  0  0
  193.3250  176.2300  138.2630 C   0  0  0  0  0  0  0  0  0  0  0  0
  193.4940  177.3480  139.1360 N   0  0  0  0  0  2  0  0  0  0  0  0
  193.1030  175.0810  138.7370 O   0  0  0  0  0  0  0  0  0  0  0  0
  193.4030  174.4120  135.3630 C   0  0  0  0  0  3  0  0  0  0  0  0
  191.9080  174.3750  135.1940 C   0  0  0  0  0  2  0  0  0  0  0  0
  194.0630  175.3850  136.0150 C   0  0  0  0  0  0  0  0  0  0  0  0
  191.8840  176.6510  136.2870 C   0  0  0  0  0  2  0  0  0  0  0  0
  193.3200  176.4630  136.7780 C   0  0  1  0  0  3  0  0  0  0  0  0
  191.1910  175.2910  136.1880 C   0  0  1  0  0  3  0  0  0  0  0  0
  195.4980  175.3830  136.0830 N   0  0  0  0  0  2  0  0  0  0  0  0
  195.7830  174.5900  138.2790 O   0  0  0  0  0  0  0  0  0  0  0  0
  196.3060  174.9970  137.2060 C   0  0  0  0  0  0  0  0  0  0  0  0
  197.7920  175.0670  137.1070 C   0  0  0  0  0  2  0  0  0  0  0  0
  198.7620  173.1030  135.8260 N   0  0  0  0  0  2  0  0  0  0  0  0
  198.2860  174.4500  135.8380 C   0  0  0  0  0  0  0  0  0  0  0  0
  198.3330  175.1310  134.7800 O   0  0  0  0  0  0  0  0  0  0  0  0
  198.7110  172.3150  136.9300 O   0  0  0  0  0  0  0  0  0  0  0  0
  197.5730  170.2740  137.4580 C   0  0  0  0  0  1  0  0  0  0  0  0
  197.4700  171.6720  136.8700 C   0  0  2  0  0  3  0  0  0  0  0  0
  195.5960  171.6010  135.3680 O   0  0  0  0  0  1  0  0  0  0  0  0
  196.9890  171.6060  135.4270 C   0  0  0  0  0  2  0  0  0  0  0  0
  189.8000  175.3810  135.9550 O   0  0  0  0  0  0  0  0  0  0  0  0
  189.1290  174.4910  136.8140 C   0  0  0  0  0  2  0  0  0  0  0  0
  188.3250  172.8530  135.2780 O   0  0  0  0  0  1  0  0  0  0  0  0
  187.9180  173.8910  136.1180 C   0  0  0  0  0  0  0  0  0  0  0  0
  187.0200  173.3980  137.0650 O   0  0  0  0  0  1  0  0  0  0  0  0
  187.2360  174.9630  135.2930 C   0  0  0  0  0  1  0  0  0  0  0  0
  187.2510  178.3450  138.9630 N   0  0  0  0  0  2  0  0  0  0  0  0
  186.5800  177.3600  138.1230 C   0  0  0  0  0  2  0  0  0  0  0  0
  185.7220  178.0370  137.0630 C   0  0  0  0  0  2  0  0  0  0  0  0
  184.0760  176.8420  138.4820 C   0  0  0  0  0  2  0  0  0  0  0  0
  181.9080  178.1090  138.8040 C   0  0  1  0  0  3  0  0  0  0  0  0
  184.2470  177.9000  137.3940 C   0  0  2  0  0  3  0  0  0  0  0  0
  181.8270  175.2650  136.9750 C   0  0  0  0  0  2  0  0  0  0  0  0
  182.6390  176.7700  139.0030 C   0  0  1  0  0  3  0  0  0  0  0  0
  181.9100  175.5120  138.4970 C   0  0  1  0  0  3  0  0  0  0  0  0
  181.4140  175.9470  134.6110 C   0  0  0  0  0  1  0  0  0  0  0  0
  180.6380  175.1840  139.2550 C   0  0  0  0  0  1  0  0  0  0  0  0
  182.0450  177.6860  136.2410 C   0  0  1  0  0  3  0  0  0  0  0  0
  183.5170  177.5210  136.1910 N   0  0  0  0  0  2  0  0  0  0  0  0
  179.9050  177.8300  137.3220 C   0  0  0  0  0  2  0  0  0  0  0  0
  181.2790  176.3960  136.0550 C   0  0  2  0  0  0  0  0  0  0  0  0
  179.8810  176.7800  136.3030 N   0  0  0  0  0  0  0  0  0  0  0  0
  179.0230  175.6810  136.7320 C   0  0  0  0  0  1  0  0  0  0  0  0
  181.3300  178.3910  137.4070 C   0  0  1  0  0  3  0  0  0  0  0  0
  180.8010  177.7770  140.8860 O   0  0  0  0  0  1  0  0  0  0  0  0
  181.0930  178.5840  139.9650 C   0  0  0  0  0  0  0  0  0  0  0  0
  180.6880  179.9100  140.0600 O   0  0  0  0  0  0  0  0  0  0  0  0
  1  2  1  0  0  0  0
  2  8  1  1  0  0  0
  3  7  1  1  0  0  0
  4 47  1  6  0  0  0
  4  5  1  0  0  0  0
  4  3  1  0  0  0  0
  5  3  1  0  0  0  0
  5  6  1  0  0  0  0
  6  1  1  0  0  0  0
  7  2  1  0  0  0  0
  8 10  1  0  0  0  0
  8  9  1  0  0  0  0
  8 11  1  0  0  0  0
 11 13  1  0  0  0  0
 13 12  1  0  0  0  0
 14  6  1  0  0  0  0
 14 15  1  0  0  0  0
 15 16  1  0  0  0  0
 17 18  1  0  0  0  0
 17 14  1  0  0  0  0
 19 18  1  0  0  0  0
 20 22  2  0  0  0  0
 20 21  1  0  0  0  0
 21 19  1  0  0  0  0
 23 25  2  0  0  0  0
 24 23  1  0  0  0  0
 24 28  1  0  0  0  0
 25 29  1  0  0  0  0
 25 27  1  0  0  0  0
 26 27  1  0  0  0  0
 27 20  1  0  0  0  0
 28 26  1  0  0  0  0
 29 31  1  0  0  0  0
 31 30  2  0  0  0  0
 32 31  1  0  0  0  0
 33 34  1  0  0  0  0
 33 36  1  0  0  0  0
 34 32  1  0  0  0  0
 35 34  2  0  0  0  0
 38 36  1  0  0  0  0
 38 37  1  0  0  0  0
 39 40  1  0  0  0  0
 40 38  1  0  0  0  0
 41 28  1  0  0  0  0
 41 42  1  0  0  0  0
 43 44  1  0  0  0  0
 44 42  1  0  0  0  0
 44 45  1  0  0  0  0
 46 44  1  0  0  0  0
 48 47  1  0  0  0  0
 49 52  1  0  0  0  0
 49 48  1  0  0  0  0
 50 54  1  0  0  0  0
 51 54  1  0  0  0  0
 51 66  1  0  0  0  0
 52 50  1  0  0  0  0
 53 55  1  0  0  0  0
 55 54  1  0  0  0  0
 55 57  1  0  0  0  0
 56 61  1  0  0  0  0
 58 64  1  0  0  0  0
 59 58  1  0  0  0  0
 59 52  1  0  0  0  0
 60 64  1  0  0  0  0
 61 58  1  0  0  0  0
 61 62  1  0  0  0  0
 61 53  1  0  0  0  0
 62 63  1  0  0  0  0
 62 60  1  0  0  0  0
 64 51  1  0  0  0  0
 66 67  2  0  0  0  0
 66 65  1  0  0  0  0
M  END
>  <MODEL>
9

>  <REMARK>
 VINA RESULT:      -4.7      2.277      4.142
  Name = 
  24 active torsions:
  status: ('A' for Active; 'I' for Inactive)
    1  A    between atoms: C_4  and  C_8
    2  A    between atoms: N_5  and  O_43
    3  A    between atoms: C_7  and  C_25
    4  A    between atoms: N_9  and  C_15
    5  A    between atoms: N_9  and  C_29
    6  A    between atoms: C_10  and  C_54
    7  A    between atoms: C_11  and  C_20
    8  A    between atoms: C_13  and  C_62
    9  A    between atoms: C_15  and  C_20
   10  A    between atoms: C_16  and  C_66
   11  A    between atoms: C_16  and  C_67
   12  A    between atoms: C_17  and  C_51
   13  A    between atoms: C_17  and  C_60
   14  A    between atoms: C_17  and  C_66
   15  A    between atoms: N_19  and  C_27
   16  A    between atoms: O_22  and  C_39
   17  A    between atoms: O_22  and  C_55
   18  A    between atoms: C_24  and  C_39
   19  A    between atoms: C_25  and  O_49
   20  A    between atoms: N_30  and  C_67
   21  A    between atoms: C_38  and  C_41
   22  A    between atoms: C_38  and  O_43
   23  A    between atoms: O_49  and  C_59
   24  A    between atoms: C_58  and  C_62
                            x       y       z     vdW  Elec       q    Type
                         _______ _______ _______ _____ _____    ______ ____

>  <TORSDO>
F 24

$$$$
