=
 OpenBabel10222418023D

 58 61  0  0  1  0  0  0  0  0999 V2000
  188.8910  178.5760  139.8190 C   0  0  2  0  0  3  0  0  0  0  0  0
  188.1860  178.5310  141.1620 C   0  0  0  0  0  2  0  0  0  0  0  0
  186.6810  178.5440  140.9730 C   0  0  0  0  0  2  0  0  0  0  0  0
  186.0310  179.0530  142.2420 C   0  0  0  0  0  2  0  0  0  0  0  0
  185.0390  178.0270  142.7550 C   0  0  0  0  0  2  0  0  0  0  0  0
  183.6460  178.6230  142.7260 C   0  0  0  0  0  2  0  0  0  0  0  0
  183.3580  179.0760  141.4350 O   0  0  0  0  0  0  0  0  0  0  0  0
  181.3370  179.9950  137.0780 O   0  0  0  0  0  0  0  0  0  0  0  0
  181.2760  178.7940  137.2930 C   0  0  0  0  0  0  0  0  0  0  0  0
  179.9520  176.8010  137.1940 O   0  0  0  0  0  1  0  0  0  0  0  0
  182.5360  177.9740  137.2670 C   0  0  0  0  0  2  0  0  0  0  0  0
  183.6770  179.5990  138.7010 O   0  0  0  0  0  1  0  0  0  0  0  0
  182.5230  178.0950  140.8860 C   0  0  2  0  0  3  0  0  0  0  0  0
  183.1900  177.3930  139.6870 C   0  0  0  0  0  2  0  0  0  0  0  0
  181.1880  179.9160  140.0420 O   0  0  0  0  0  1  0  0  0  0  0  0
  180.3900  177.6930  139.8420 O   0  0  0  0  0  0  0  0  0  0  0  0
  179.4860  178.3340  138.9800 C   0  0  0  0  0  2  0  0  0  0  0  0
  181.1140  178.6360  140.6150 C   0  0  1  0  0  3  0  0  0  0  0  0
  179.9330  178.1570  137.5290 C   0  0  1  0  0  3  0  0  0  0  0  0
  183.4930  178.2370  138.4380 C   0  0  1  0  0  3  0  0  0  0  0  0
  187.9350  178.2600  138.7630 N   0  0  0  0  0  2  0  0  0  0  0  0
  189.3320  176.2070  134.9710 C   0  0  0  0  0  3  0  0  0  0  0  0
  189.4170  175.1930  136.0650 C   0  0  1  0  0  3  0  0  0  0  0  0
  189.1290  177.5040  135.2010 C   0  0  0  0  0  3  0  0  0  0  0  0
  188.8990  178.1240  136.5250 C   0  0  0  0  0  0  0  0  0  0  0  0
  188.2170  177.5420  137.5490 C   0  0  0  0  0  0  0  0  0  0  0  0
  189.3360  179.4080  136.6350 F   0  0  0  0  0  0  0  0  0  0  0  0
  188.1300  175.1360  136.8140 C   0  0  0  0  0  3  0  0  0  0  0  0
  187.6360  176.1790  137.4820 C   0  0  0  0  0  3  0  0  0  0  0  0
  189.7080  173.8250  135.4720 C   0  0  0  0  0  2  0  0  0  0  0  0
  191.9580  173.6820  136.1940 N   0  0  0  0  0  0  0  0  0  0  0  0
  191.1320  173.6750  135.2240 N   0  0  0  0  0  0  0  0  0  0  0  0
  193.3250  173.5580  136.0020 O   0  0  0  0  0  0  0  0  0  0  0  0
  194.2960  174.5050  136.4810 C   0  0  2  0  0  0  0  0  0  0  0  0
  194.5420  174.2910  137.9810 C   0  0  0  0  0  1  0  0  0  0  0  0
  193.5570  176.7510  137.3400 O   0  0  0  0  0  1  0  0  0  0  0  0
  193.6430  176.3490  135.0860 O   0  0  0  0  0  0  0  0  0  0  0  0
  193.7970  175.9090  136.2590 C   0  0  0  0  0  0  0  0  0  0  0  0
  195.5090  174.3710  135.7640 O   0  0  0  0  0  0  0  0  0  0  0  0
  196.5910  174.3990  136.6610 C   0  0  0  0  0  2  0  0  0  0  0  0
  197.5940  175.4000  136.2060 C   0  0  0  0  0  0  0  0  0  0  0  0
  197.2310  176.5760  135.9300 O   0  0  0  0  0  0  0  0  0  0  0  0
  198.9220  175.0280  136.0390 O   0  0  0  0  0  1  0  0  0  0  0  0
  190.0430  177.5770  139.8040 C   0  0  0  0  0  2  0  0  0  0  0  0
  191.0980  176.5150  143.8270 C   0  0  0  0  0  0  0  0  0  0  0  0
  191.7340  177.5880  143.1900 C   0  0  0  0  0  3  0  0  0  0  0  0
  191.3970  177.9260  141.8760 C   0  0  0  0  0  3  0  0  0  0  0  0
  190.4290  177.1820  141.1910 C   0  0  0  0  0  0  0  0  0  0  0  0
  190.1300  175.7690  143.1410 C   0  0  0  0  0  3  0  0  0  0  0  0
  189.7930  176.1060  141.8260 C   0  0  0  0  0  3  0  0  0  0  0  0
  191.4730  176.1580  145.2230 C   0  0  0  0  0  2  0  0  0  0  0  0
  191.2580  177.3470  146.1430 C   0  0  0  0  0  2  0  0  0  0  0  0
  189.8120  177.4890  146.4650 C   0  0  0  0  0  0  0  0  0  0  0  0
  189.3760  177.3360  147.7850 C   0  0  0  0  0  3  0  0  0  0  0  0
  188.8920  177.8000  145.4580 C   0  0  0  0  0  3  0  0  0  0  0  0
  187.1040  177.7900  147.0910 C   0  0  0  0  0  3  0  0  0  0  0  0
  188.0220  177.4840  148.0980 C   0  0  0  0  0  3  0  0  0  0  0  0
  187.5380  177.9490  145.7710 C   0  0  0  0  0  3  0  0  0  0  0  0
  1 44  1  1  0  0  0
  1  2  1  0  0  0  0
  3  2  1  0  0  0  0
  3  4  1  0  0  0  0
  4  5  1  0  0  0  0
  6  5  1  0  0  0  0
  7  6  1  0  0  0  0
  8  9  2  0  0  0  0
  9 19  1  0  0  0  0
 11  9  1  0  0  0  0
 11 20  1  0  0  0  0
 13  7  1  6  0  0  0
 14 13  1  0  0  0  0
 16 18  1  0  0  0  0
 17 16  1  0  0  0  0
 18 15  1  6  0  0  0
 18 13  1  0  0  0  0
 19 10  1  1  0  0  0
 19 17  1  0  0  0  0
 20 12  1  1  0  0  0
 20 14  1  0  0  0  0
 21  1  1  0  0  0  0
 22 24  2  0  0  0  0
 22 23  1  0  0  0  0
 23 30  1  6  0  0  0
 23 28  1  0  0  0  0
 24 25  1  0  0  0  0
 25 27  1  0  0  0  0
 25 26  2  0  0  0  0
 26 21  1  0  0  0  0
 28 29  2  0  0  0  0
 29 26  1  0  0  0  0
 32 30  1  0  0  0  0
 32 31  2  0  0  0  0
 33 31  1  0  0  0  0
 33 34  1  0  0  0  0
 34 35  1  1  0  0  0
 37 38  2  0  0  0  0
 38 34  1  0  0  0  0
 38 36  1  0  0  0  0
 39 34  1  0  0  0  0
 39 40  1  0  0  0  0
 41 40  1  0  0  0  0
 42 41  2  0  0  0  0
 43 41  1  0  0  0  0
 44 48  1  0  0  0  0
 45 51  1  0  0  0  0
 46 45  1  0  0  0  0
 47 46  2  0  0  0  0
 48 50  2  0  0  0  0
 48 47  1  0  0  0  0
 49 45  2  0  0  0  0
 50 49  1  0  0  0  0
 51 52  1  0  0  0  0
 52 53  1  0  0  0  0
 53 54  1  0  0  0  0
 54 57  2  0  0  0  0
 55 58  1  0  0  0  0
 55 53  2  0  0  0  0
 56 57  1  0  0  0  0
 58 56  2  0  0  0  0
M  END
>  <MODEL>
1

>  <REMARK>
 VINA RESULT:      -7.9      0.000      0.000
  Name = 
  22 active torsions:
  status: ('A' for Active; 'I' for Inactive)
    1  A    between atoms: C_3  and  C_5
    2  A    between atoms: C_3  and  C_27
    3  A    between atoms: C_4  and  C_5
    4  A    between atoms: C_4  and  C_40
    5  A    between atoms: C_6  and  C_32
    6  A    between atoms: N_7  and  O_10
    7  A    between atoms: C_8  and  O_10
    8  A    between atoms: C_8  and  O_37
    9  A    between atoms: C_8  and  C_43
   10  A    between atoms: C_12  and  C_24
   11  A    between atoms: C_13  and  O_37
   12  A    between atoms: C_13  and  C_39
   13  A    between atoms: C_15  and  C_17
   14  A    between atoms: C_17  and  C_24
   15  A    between atoms: C_25  and  C_33
   16  A    between atoms: C_25  and  C_54
   17  A    between atoms: N_26  and  C_41
   18  A    between atoms: N_26  and  C_54
   19  A    between atoms: C_27  and  O_56
   20  A    between atoms: C_28  and  O_56
   21  A    between atoms: N_31  and  C_32
   22  A    between atoms: C_40  and  C_54
                            x       y       z     vdW  Elec       q    Type
                         _______ _______ _______ _____ _____    ______ ____

>  <TORSDO>
F 22

$$$$
=
 OpenBabel10222418023D

 58 61  0  0  1  0  0  0  0  0999 V2000
  188.2250  178.5110  140.4240 C   0  0  2  0  0  3  0  0  0  0  0  0
  187.3240  178.4580  141.6420 C   0  0  0  0  0  2  0  0  0  0  0  0
  185.9040  178.8430  141.2700 C   0  0  0  0  0  2  0  0  0  0  0  0
  185.1180  179.1060  142.5370 C   0  0  0  0  0  2  0  0  0  0  0  0
  183.9660  178.1240  142.6380 C   0  0  0  0  0  2  0  0  0  0  0  0
  182.6890  178.8070  142.1920 C   0  0  0  0  0  2  0  0  0  0  0  0
  182.6620  178.8810  140.7960 O   0  0  0  0  0  0  0  0  0  0  0  0
  181.7350  178.3360  136.0250 O   0  0  0  0  0  0  0  0  0  0  0  0
  181.7140  177.2360  136.5570 C   0  0  0  0  0  0  0  0  0  0  0  0
  180.6140  175.1170  136.7460 O   0  0  0  0  0  1  0  0  0  0  0  0
  182.9990  176.6270  137.0450 C   0  0  0  0  0  2  0  0  0  0  0  0
  183.6160  178.7150  138.1670 O   0  0  0  0  0  1  0  0  0  0  0  0
  182.0690  177.6820  140.3810 C   0  0  2  0  0  3  0  0  0  0  0  0
  183.0680  176.7960  139.6120 C   0  0  0  0  0  2  0  0  0  0  0  0
  180.8540  179.0100  138.7790 O   0  0  0  0  0  1  0  0  0  0  0  0
  180.3040  176.7210  139.0550 O   0  0  0  0  0  0  0  0  0  0  0  0
  179.5980  176.9790  137.8690 C   0  0  0  0  0  2  0  0  0  0  0  0
  180.7360  177.9260  139.6640 C   0  0  1  0  0  3  0  0  0  0  0  0
  180.4080  176.4960  136.6650 C   0  0  1  0  0  3  0  0  0  0  0  0
  183.6080  177.3200  138.2710 C   0  0  1  0  0  3  0  0  0  0  0  0
  187.4220  178.3140  139.2210 N   0  0  0  0  0  2  0  0  0  0  0  0
  189.2770  176.3880  135.5600 C   0  0  0  0  0  3  0  0  0  0  0  0
  189.0300  175.2910  136.5450 C   0  0  1  0  0  3  0  0  0  0  0  0
  189.1850  177.6790  135.8780 C   0  0  0  0  0  3  0  0  0  0  0  0
  188.7780  178.2210  137.1930 C   0  0  0  0  0  0  0  0  0  0  0  0
  187.8480  177.6590  138.0130 C   0  0  0  0  0  0  0  0  0  0  0  0
  189.3310  179.4240  137.5090 F   0  0  0  0  0  0  0  0  0  0  0  0
  187.6250  175.3490  137.0380 C   0  0  0  0  0  3  0  0  0  0  0  0
  187.1370  176.3950  137.7060 C   0  0  0  0  0  3  0  0  0  0  0  0
  189.2690  173.9460  135.8810 C   0  0  0  0  0  2  0  0  0  0  0  0
  191.5530  173.4170  136.2140 N   0  0  0  0  0  0  0  0  0  0  0  0
  190.6470  173.8450  135.4280 N   0  0  0  0  0  0  0  0  0  0  0  0
  192.8800  173.3180  135.8280 O   0  0  0  0  0  0  0  0  0  0  0  0
  193.9950  173.5290  136.7130 C   0  0  2  0  0  0  0  0  0  0  0  0
  195.0800  174.3500  136.0050 C   0  0  0  0  0  1  0  0  0  0  0  0
  195.3030  172.0970  138.3150 O   0  0  0  0  0  1  0  0  0  0  0  0
  194.3600  171.1700  136.4440 O   0  0  0  0  0  0  0  0  0  0  0  0
  194.5750  172.2040  137.1340 C   0  0  0  0  0  0  0  0  0  0  0  0
  193.5700  174.1940  137.8890 O   0  0  0  0  0  0  0  0  0  0  0  0
  194.0990  175.4960  137.9100 C   0  0  0  0  0  2  0  0  0  0  0  0
  193.1160  176.4270  138.5280 C   0  0  0  0  0  0  0  0  0  0  0  0
  191.9320  176.4710  138.0980 O   0  0  0  0  0  0  0  0  0  0  0  0
  193.5150  177.2820  139.5480 O   0  0  0  0  0  1  0  0  0  0  0  0
  189.2980  177.4310  140.5240 C   0  0  0  0  0  2  0  0  0  0  0  0
  190.8640  177.2840  144.5180 C   0  0  0  0  0  0  0  0  0  0  0  0
  190.5930  178.5170  143.9110 C   0  0  0  0  0  3  0  0  0  0  0  0
  190.0930  178.5630  142.6060 C   0  0  0  0  0  3  0  0  0  0  0  0
  189.8740  177.3740  141.9000 C   0  0  0  0  0  0  0  0  0  0  0  0
  190.6470  176.0940  143.8120 C   0  0  0  0  0  3  0  0  0  0  0  0
  190.1470  176.1400  142.5060 C   0  0  0  0  0  3  0  0  0  0  0  0
  191.4060  177.2480  145.9040 C   0  0  0  0  0  2  0  0  0  0  0  0
  190.4860  176.4450  146.8060 C   0  0  0  0  0  2  0  0  0  0  0  0
  189.2060  177.1770  147.0120 C   0  0  0  0  0  0  0  0  0  0  0  0
  188.1780  177.0600  146.0710 C   0  0  0  0  0  3  0  0  0  0  0  0
  189.0190  177.9590  148.1570 C   0  0  0  0  0  3  0  0  0  0  0  0
  186.7850  178.5170  147.4070 C   0  0  0  0  0  3  0  0  0  0  0  0
  186.9700  177.7320  146.2670 C   0  0  0  0  0  3  0  0  0  0  0  0
  187.8090  178.6310  148.3530 C   0  0  0  0  0  3  0  0  0  0  0  0
  1 44  1  1  0  0  0
  1  2  1  0  0  0  0
  3  2  1  0  0  0  0
  3  4  1  0  0  0  0
  4  5  1  0  0  0  0
  6  5  1  0  0  0  0
  7  6  1  0  0  0  0
  8  9  2  0  0  0  0
  9 19  1  0  0  0  0
  9 11  1  0  0  0  0
 11 20  1  0  0  0  0
 13  7  1  6  0  0  0
 14 13  1  0  0  0  0
 16 18  1  0  0  0  0
 17 16  1  0  0  0  0
 18 15  1  6  0  0  0
 18 13  1  0  0  0  0
 19 10  1  1  0  0  0
 19 17  1  0  0  0  0
 20 12  1  6  0  0  0
 20 14  1  0  0  0  0
 21  1  1  0  0  0  0
 22 24  2  0  0  0  0
 22 23  1  0  0  0  0
 23 30  1  6  0  0  0
 23 28  1  0  0  0  0
 24 25  1  0  0  0  0
 25 27  1  0  0  0  0
 25 26  2  0  0  0  0
 26 21  1  0  0  0  0
 28 29  2  0  0  0  0
 29 26  1  0  0  0  0
 32 30  1  0  0  0  0
 32 31  2  0  0  0  0
 33 31  1  0  0  0  0
 33 34  1  0  0  0  0
 34 35  1  6  0  0  0
 34 38  1  0  0  0  0
 34 39  1  0  0  0  0
 37 38  2  0  0  0  0
 38 36  1  0  0  0  0
 39 40  1  0  0  0  0
 40 41  1  0  0  0  0
 41 43  1  0  0  0  0
 42 41  2  0  0  0  0
 44 48  1  0  0  0  0
 45 51  1  0  0  0  0
 46 45  1  0  0  0  0
 47 46  2  0  0  0  0
 48 50  2  0  0  0  0
 48 47  1  0  0  0  0
 49 45  2  0  0  0  0
 50 49  1  0  0  0  0
 51 52  1  0  0  0  0
 52 53  1  0  0  0  0
 53 55  1  0  0  0  0
 54 57  1  0  0  0  0
 54 53  2  0  0  0  0
 55 58  2  0  0  0  0
 56 58  1  0  0  0  0
 57 56  2  0  0  0  0
M  END
>  <MODEL>
2

>  <REMARK>
 VINA RESULT:      -7.8      1.545      2.185
  Name = 
  22 active torsions:
  status: ('A' for Active; 'I' for Inactive)
    1  A    between atoms: C_3  and  C_5
    2  A    between atoms: C_3  and  C_27
    3  A    between atoms: C_4  and  C_5
    4  A    between atoms: C_4  and  C_40
    5  A    between atoms: C_6  and  C_32
    6  A    between atoms: N_7  and  O_10
    7  A    between atoms: C_8  and  O_10
    8  A    between atoms: C_8  and  O_37
    9  A    between atoms: C_8  and  C_43
   10  A    between atoms: C_12  and  C_24
   11  A    between atoms: C_13  and  O_37
   12  A    between atoms: C_13  and  C_39
   13  A    between atoms: C_15  and  C_17
   14  A    between atoms: C_17  and  C_24
   15  A    between atoms: C_25  and  C_33
   16  A    between atoms: C_25  and  C_54
   17  A    between atoms: N_26  and  C_41
   18  A    between atoms: N_26  and  C_54
   19  A    between atoms: C_27  and  O_56
   20  A    between atoms: C_28  and  O_56
   21  A    between atoms: N_31  and  C_32
   22  A    between atoms: C_40  and  C_54
                            x       y       z     vdW  Elec       q    Type
                         _______ _______ _______ _____ _____    ______ ____

>  <TORSDO>
F 22

$$$$
=
 OpenBabel10222418023D

 58 61  0  0  1  0  0  0  0  0999 V2000
  183.3550  178.5970  143.3070 C   0  0  2  0  0  3  0  0  0  0  0  0
  184.5780  179.2010  142.6440 C   0  0  0  0  0  2  0  0  0  0  0  0
  185.1370  178.2540  141.5980 C   0  0  0  0  0  2  0  0  0  0  0  0
  186.2970  178.9280  140.8960 C   0  0  0  0  0  2  0  0  0  0  0  0
  187.6010  178.2920  141.3360 C   0  0  0  0  0  2  0  0  0  0  0  0
  188.6460  178.5020  140.2600 C   0  0  0  0  0  2  0  0  0  0  0  0
  188.9600  177.2760  139.6660 O   0  0  0  0  0  0  0  0  0  0  0  0
  189.6440  173.9730  136.1250 O   0  0  0  0  0  0  0  0  0  0  0  0
  190.0600  175.0550  135.7390 C   0  0  0  0  0  0  0  0  0  0  0  0
  191.7970  176.2480  134.6000 O   0  0  0  0  0  1  0  0  0  0  0  0
  189.0830  176.1530  135.4250 C   0  0  0  0  0  2  0  0  0  0  0  0
  187.9120  175.7780  137.5440 O   0  0  0  0  0  1  0  0  0  0  0  0
  189.8750  177.5880  138.6530 C   0  0  2  0  0  3  0  0  0  0  0  0
  189.1610  177.8910  137.3220 C   0  0  0  0  0  2  0  0  0  0  0  0
  190.4690  175.2530  138.6740 O   0  0  0  0  0  1  0  0  0  0  0  0
  191.7490  176.7720  137.3800 O   0  0  0  0  0  0  0  0  0  0  0  0
  192.2390  175.5640  136.8580 C   0  0  0  0  0  2  0  0  0  0  0  0
  190.9990  176.5490  138.5620 C   0  0  1  0  0  3  0  0  0  0  0  0
  191.5390  175.2440  135.5370 C   0  0  1  0  0  3  0  0  0  0  0  0
  188.3780  176.7490  136.6510 C   0  0  1  0  0  3  0  0  0  0  0  0
  182.1530  179.2010  142.7420 N   0  0  0  0  0  2  0  0  0  0  0  0
  180.3280  177.5890  138.9170 C   0  0  0  0  0  3  0  0  0  0  0  0
  180.2820  176.4800  139.9170 C   0  0  1  0  0  3  0  0  0  0  0  0
  181.0230  178.7100  139.1130 C   0  0  0  0  0  3  0  0  0  0  0  0
  181.7850  179.0560  140.3330 C   0  0  0  0  0  0  0  0  0  0  0  0
  181.4190  178.7240  141.6010 C   0  0  0  0  0  0  0  0  0  0  0  0
  182.8700  179.8510  140.1200 F   0  0  0  0  0  0  0  0  0  0  0  0
  179.6710  176.9590  141.1890 C   0  0  0  0  0  3  0  0  0  0  0  0
  180.2070  177.9320  141.9260 C   0  0  0  0  0  3  0  0  0  0  0  0
  179.4510  175.3320  139.3670 C   0  0  0  0  0  2  0  0  0  0  0  0
  180.9640  174.0330  138.0910 N   0  0  0  0  0  0  0  0  0  0  0  0
  180.0030  174.8700  138.1050 N   0  0  0  0  0  0  0  0  0  0  0  0
  181.5290  173.5770  136.9110 O   0  0  0  0  0  0  0  0  0  0  0  0
  182.9370  173.6280  136.6190 C   0  0  2  0  0  0  0  0  0  0  0  0
  183.1560  174.0100  135.1500 C   0  0  0  0  0  1  0  0  0  0  0  0
  184.9310  172.0950  136.6930 O   0  0  0  0  0  0  0  0  0  0  0  0
  182.8630  171.3290  137.3140 O   0  0  0  0  0  1  0  0  0  0  0  0
  183.5650  172.2830  136.8780 C   0  0  0  0  0  0  0  0  0  0  0  0
  183.5810  174.5610  137.4670 O   0  0  0  0  0  0  0  0  0  0  0  0
  184.2150  175.5450  136.6870 C   0  0  0  0  0  2  0  0  0  0  0  0
  183.7740  176.8960  137.1300 C   0  0  0  0  0  0  0  0  0  0  0  0
  183.0070  177.5790  136.3990 O   0  0  0  0  0  0  0  0  0  0  0  0
  184.2450  177.4240  138.3250 O   0  0  0  0  0  1  0  0  0  0  0  0
  183.4080  178.8390  144.8130 C   0  0  0  0  0  2  0  0  0  0  0  0
  187.3640  178.1050  146.3090 C   0  0  0  0  0  0  0  0  0  0  0  0
  186.9840  177.6240  145.0500 C   0  0  0  0  0  3  0  0  0  0  0  0
  185.6920  177.8540  144.5680 C   0  0  0  0  0  3  0  0  0  0  0  0
  184.7710  178.5590  145.3530 C   0  0  0  0  0  0  0  0  0  0  0  0
  186.4410  178.8080  147.0960 C   0  0  0  0  0  3  0  0  0  0  0  0
  185.1480  179.0380  146.6150 C   0  0  0  0  0  3  0  0  0  0  0  0
  188.7390  177.8440  146.8160 C   0  0  0  0  0  2  0  0  0  0  0  0
  189.3360  176.6390  146.1100 C   0  0  0  0  0  2  0  0  0  0  0  0
  190.0900  177.0760  144.9030 C   0  0  0  0  0  0  0  0  0  0  0  0
  190.1200  176.2590  143.7680 C   0  0  0  0  0  3  0  0  0  0  0  0
  190.7460  178.3120  144.8900 C   0  0  0  0  0  3  0  0  0  0  0  0
  191.4720  177.9010  142.6170 C   0  0  0  0  0  3  0  0  0  0  0  0
  190.8130  176.6690  142.6270 C   0  0  0  0  0  3  0  0  0  0  0  0
  191.4390  178.7230  143.7480 C   0  0  0  0  0  3  0  0  0  0  0  0
  1  2  1  6  0  0  0
  1 44  1  0  0  0  0
  3  2  1  0  0  0  0
  4  5  1  0  0  0  0
  4  3  1  0  0  0  0
  6  5  1  0  0  0  0
  7  6  1  0  0  0  0
  9  8  2  0  0  0  0
 11  9  1  0  0  0  0
 11 20  1  0  0  0  0
 13  7  1  1  0  0  0
 14 13  1  0  0  0  0
 16 18  1  0  0  0  0
 17 16  1  0  0  0  0
 18 13  1  0  0  0  0
 18 15  1  6  0  0  0
 19 10  1  6  0  0  0
 19  9  1  0  0  0  0
 19 17  1  0  0  0  0
 20 14  1  0  0  0  0
 20 12  1  1  0  0  0
 21  1  1  0  0  0  0
 22 24  2  0  0  0  0
 22 23  1  0  0  0  0
 23 30  1  6  0  0  0
 23 28  1  0  0  0  0
 24 25  1  0  0  0  0
 25 26  2  0  0  0  0
 26 29  1  0  0  0  0
 26 21  1  0  0  0  0
 27 25  1  0  0  0  0
 28 29  2  0  0  0  0
 31 32  2  0  0  0  0
 32 30  1  0  0  0  0
 33 31  1  0  0  0  0
 34 35  1  6  0  0  0
 34 38  1  0  0  0  0
 34 33  1  0  0  0  0
 34 39  1  0  0  0  0
 36 38  2  0  0  0  0
 38 37  1  0  0  0  0
 40 41  1  0  0  0  0
 40 39  1  0  0  0  0
 41 43  1  0  0  0  0
 42 41  2  0  0  0  0
 44 48  1  0  0  0  0
 45 51  1  0  0  0  0
 45 49  1  0  0  0  0
 46 45  2  0  0  0  0
 47 46  1  0  0  0  0
 47 48  2  0  0  0  0
 48 50  1  0  0  0  0
 50 49  2  0  0  0  0
 52 51  1  0  0  0  0
 53 52  1  0  0  0  0
 54 53  2  0  0  0  0
 55 53  1  0  0  0  0
 56 57  2  0  0  0  0
 56 58  1  0  0  0  0
 57 54  1  0  0  0  0
 58 55  2  0  0  0  0
M  END
>  <MODEL>
3

>  <REMARK>
 VINA RESULT:      -7.6      3.377      8.883
  Name = 
  22 active torsions:
  status: ('A' for Active; 'I' for Inactive)
    1  A    between atoms: C_3  and  C_5
    2  A    between atoms: C_3  and  C_27
    3  A    between atoms: C_4  and  C_5
    4  A    between atoms: C_4  and  C_40
    5  A    between atoms: C_6  and  C_32
    6  A    between atoms: N_7  and  O_10
    7  A    between atoms: C_8  and  O_10
    8  A    between atoms: C_8  and  O_37
    9  A    between atoms: C_8  and  C_43
   10  A    between atoms: C_12  and  C_24
   11  A    between atoms: C_13  and  O_37
   12  A    between atoms: C_13  and  C_39
   13  A    between atoms: C_15  and  C_17
   14  A    between atoms: C_17  and  C_24
   15  A    between atoms: C_25  and  C_33
   16  A    between atoms: C_25  and  C_54
   17  A    between atoms: N_26  and  C_41
   18  A    between atoms: N_26  and  C_54
   19  A    between atoms: C_27  and  O_56
   20  A    between atoms: C_28  and  O_56
   21  A    between atoms: N_31  and  C_32
   22  A    between atoms: C_40  and  C_54
                            x       y       z     vdW  Elec       q    Type
                         _______ _______ _______ _____ _____    ______ ____

>  <TORSDO>
F 22

$$$$
=
 OpenBabel10222418023D

 58 61  0  0  1  0  0  0  0  0999 V2000
  190.6520  176.6770  138.5720 C   0  0  2  0  0  3  0  0  0  0  0  0
  191.4220  175.8160  137.5890 C   0  0  0  0  0  2  0  0  0  0  0  0
  190.5980  174.6090  137.1810 C   0  0  0  0  0  2  0  0  0  0  0  0
  190.6200  174.4870  135.6720 C   0  0  0  0  0  2  0  0  0  0  0  0
  191.7590  175.3130  135.1080 C   0  0  0  0  0  2  0  0  0  0  0  0
  192.9560  174.4150  134.8700 C   0  0  0  0  0  2  0  0  0  0  0  0
  194.1240  175.0830  135.2500 O   0  0  0  0  0  0  0  0  0  0  0  0
  197.7440  175.4690  138.5160 O   0  0  0  0  0  0  0  0  0  0  0  0
  197.7250  174.3260  138.0830 C   0  0  0  0  0  0  0  0  0  0  0  0
  198.9980  172.4610  137.2840 O   0  0  0  0  0  1  0  0  0  0  0  0
  196.5980  173.4090  138.4660 C   0  0  0  0  0  2  0  0  0  0  0  0
  194.9480  175.1380  137.9270 O   0  0  0  0  0  1  0  0  0  0  0  0
  195.1230  174.1020  135.2320 C   0  0  2  0  0  3  0  0  0  0  0  0
  195.0150  173.1650  136.4510 C   0  0  0  0  0  2  0  0  0  0  0  0
  196.6640  175.8730  135.7800 O   0  0  0  0  0  1  0  0  0  0  0  0
  197.5010  173.7210  135.2410 O   0  0  0  0  0  0  0  0  0  0  0  0
  198.6710  174.2920  135.7660 C   0  0  0  0  0  2  0  0  0  0  0  0
  196.5120  174.7100  135.0060 C   0  0  1  0  0  3  0  0  0  0  0  0
  198.8610  173.8500  137.2180 C   0  0  1  0  0  3  0  0  0  0  0  0
  195.2420  173.7720  137.8460 C   0  0  1  0  0  3  0  0  0  0  0  0
  190.0220  177.7810  137.8560 N   0  0  0  0  0  2  0  0  0  0  0  0
  186.3130  177.2560  135.3010 C   0  0  0  0  0  3  0  0  0  0  0  0
  186.1280  176.3970  136.5100 C   0  0  1  0  0  3  0  0  0  0  0  0
  187.4790  177.8240  134.9890 C   0  0  0  0  0  3  0  0  0  0  0  0
  188.7200  177.7520  135.7910 C   0  0  0  0  0  0  0  0  0  0  0  0
  188.7690  177.7310  137.1510 C   0  0  0  0  0  0  0  0  0  0  0  0
  189.8700  177.8170  135.0650 F   0  0  0  0  0  0  0  0  0  0  0  0
  186.3840  177.1880  137.7460 C   0  0  0  0  0  3  0  0  0  0  0  0
  187.5660  177.7430  138.0180 C   0  0  0  0  0  3  0  0  0  0  0  0
  184.7060  175.8650  136.5440 C   0  0  0  0  0  2  0  0  0  0  0  0
  183.3010  177.2320  137.8720 N   0  0  0  0  0  0  0  0  0  0  0  0
  183.7630  176.9580  136.7170 N   0  0  0  0  0  0  0  0  0  0  0  0
  182.3900  178.2550  138.0790 O   0  0  0  0  0  0  0  0  0  0  0  0
  182.3310  179.0520  139.2760 C   0  0  2  0  0  0  0  0  0  0  0  0
  183.7490  179.4010  139.7450 C   0  0  0  0  0  1  0  0  0  0  0  0
  181.7720  178.6640  141.6980 O   0  0  0  0  0  1  0  0  0  0  0  0
  180.8520  177.3340  140.0750 O   0  0  0  0  0  0  0  0  0  0  0  0
  181.6240  178.2890  140.3660 C   0  0  0  0  0  0  0  0  0  0  0  0
  181.5880  180.2350  139.0430 O   0  0  0  0  0  0  0  0  0  0  0  0
  180.8100  180.0800  137.8820 C   0  0  0  0  0  2  0  0  0  0  0  0
  180.8900  181.3160  137.0560 C   0  0  0  0  0  0  0  0  0  0  0  0
  180.8050  181.2420  135.8010 O   0  0  0  0  0  0  0  0  0  0  0  0
  181.1070  182.5460  137.6650 O   0  0  0  0  0  1  0  0  0  0  0  0
  191.5970  177.2150  139.6420 C   0  0  0  0  0  2  0  0  0  0  0  0
  189.5660  177.5930  143.4050 C   0  0  0  0  0  0  0  0  0  0  0  0
  188.8570  177.2320  142.2530 C   0  0  0  0  0  3  0  0  0  0  0  0
  189.5180  177.1200  141.0260 C   0  0  0  0  0  3  0  0  0  0  0  0
  190.8910  177.3810  140.9470 C   0  0  0  0  0  0  0  0  0  0  0  0
  190.9400  177.8570  143.3260 C   0  0  0  0  0  3  0  0  0  0  0  0
  191.6020  177.7450  142.0990 C   0  0  0  0  0  3  0  0  0  0  0  0
  188.8490  177.7200  144.7030 C   0  0  0  0  0  2  0  0  0  0  0  0
  187.6430  176.7990  144.7270 C   0  0  0  0  0  2  0  0  0  0  0  0
  186.3940  177.5940  144.8770 C   0  0  0  0  0  0  0  0  0  0  0  0
  185.6800  177.9880  143.7420 C   0  0  0  0  0  3  0  0  0  0  0  0
  185.9180  177.9260  146.1510 C   0  0  0  0  0  3  0  0  0  0  0  0
  184.0270  179.0570  145.1470 C   0  0  0  0  0  3  0  0  0  0  0  0
  184.4990  178.7220  143.8760 C   0  0  0  0  0  3  0  0  0  0  0  0
  184.7360  178.6590  146.2850 C   0  0  0  0  0  3  0  0  0  0  0  0
  1  2  1  6  0  0  0
  1 44  1  0  0  0  0
  3  2  1  0  0  0  0
  4  3  1  0  0  0  0
  5  4  1  0  0  0  0
  6  5  1  0  0  0  0
  6  7  1  0  0  0  0
  9 11  1  0  0  0  0
  9  8  2  0  0  0  0
 13  7  1  1  0  0  0
 13 14  1  0  0  0  0
 14 20  1  0  0  0  0
 16 17  1  0  0  0  0
 17 19  1  0  0  0  0
 18 13  1  0  0  0  0
 18 16  1  0  0  0  0
 18 15  1  1  0  0  0
 19 10  1  6  0  0  0
 19  9  1  0  0  0  0
 20 12  1  6  0  0  0
 20 11  1  0  0  0  0
 21  1  1  0  0  0  0
 22 23  1  0  0  0  0
 23 30  1  1  0  0  0
 23 28  1  0  0  0  0
 24 22  2  0  0  0  0
 24 25  1  0  0  0  0
 25 26  2  0  0  0  0
 26 21  1  0  0  0  0
 26 29  1  0  0  0  0
 27 25  1  0  0  0  0
 28 29  2  0  0  0  0
 30 32  1  0  0  0  0
 31 33  1  0  0  0  0
 32 31  2  0  0  0  0
 33 34  1  0  0  0  0
 34 35  1  1  0  0  0
 34 38  1  0  0  0  0
 37 38  2  0  0  0  0
 38 36  1  0  0  0  0
 39 34  1  0  0  0  0
 40 39  1  0  0  0  0
 41 43  1  0  0  0  0
 41 40  1  0  0  0  0
 42 41  2  0  0  0  0
 44 48  1  0  0  0  0
 45 51  1  0  0  0  0
 46 45  2  0  0  0  0
 47 46  1  0  0  0  0
 48 47  2  0  0  0  0
 48 50  1  0  0  0  0
 49 45  1  0  0  0  0
 50 49  2  0  0  0  0
 51 52  1  0  0  0  0
 52 53  1  0  0  0  0
 53 55  1  0  0  0  0
 54 57  1  0  0  0  0
 54 53  2  0  0  0  0
 55 58  2  0  0  0  0
 56 58  1  0  0  0  0
 57 56  2  0  0  0  0
M  END
>  <MODEL>
4

>  <REMARK>
 VINA RESULT:      -7.5      1.988     11.012
  Name = 
  22 active torsions:
  status: ('A' for Active; 'I' for Inactive)
    1  A    between atoms: C_3  and  C_5
    2  A    between atoms: C_3  and  C_27
    3  A    between atoms: C_4  and  C_5
    4  A    between atoms: C_4  and  C_40
    5  A    between atoms: C_6  and  C_32
    6  A    between atoms: N_7  and  O_10
    7  A    between atoms: C_8  and  O_10
    8  A    between atoms: C_8  and  O_37
    9  A    between atoms: C_8  and  C_43
   10  A    between atoms: C_12  and  C_24
   11  A    between atoms: C_13  and  O_37
   12  A    between atoms: C_13  and  C_39
   13  A    between atoms: C_15  and  C_17
   14  A    between atoms: C_17  and  C_24
   15  A    between atoms: C_25  and  C_33
   16  A    between atoms: C_25  and  C_54
   17  A    between atoms: N_26  and  C_41
   18  A    between atoms: N_26  and  C_54
   19  A    between atoms: C_27  and  O_56
   20  A    between atoms: C_28  and  O_56
   21  A    between atoms: N_31  and  C_32
   22  A    between atoms: C_40  and  C_54
                            x       y       z     vdW  Elec       q    Type
                         _______ _______ _______ _____ _____    ______ ____

>  <TORSDO>
F 22

$$$$
=
 OpenBabel10222418023D

 58 61  0  0  1  0  0  0  0  0999 V2000
  183.0740  178.6880  141.6570 C   0  0  2  0  0  3  0  0  0  0  0  0
  183.0050  179.4850  142.9460 C   0  0  0  0  0  2  0  0  0  0  0  0
  183.4500  178.6350  144.1210 C   0  0  0  0  0  2  0  0  0  0  0  0
  184.8300  179.0800  144.5550 C   0  0  0  0  0  2  0  0  0  0  0  0
  185.0200  178.7910  146.0310 C   0  0  0  0  0  2  0  0  0  0  0  0
  186.2940  177.9950  146.2240 C   0  0  0  0  0  2  0  0  0  0  0  0
  187.1700  178.2510  145.1640 O   0  0  0  0  0  0  0  0  0  0  0  0
  191.8910  178.4500  143.9040 O   0  0  0  0  0  0  0  0  0  0  0  0
  191.6380  177.3230  144.3040 C   0  0  0  0  0  0  0  0  0  0  0  0
  191.9210  174.9680  143.9780 O   0  0  0  0  0  1  0  0  0  0  0  0
  191.3630  177.1010  145.7650 C   0  0  0  0  0  2  0  0  0  0  0  0
  189.7970  178.9850  145.8020 O   0  0  0  0  0  1  0  0  0  0  0  0
  187.8370  177.0390  144.9460 C   0  0  2  0  0  3  0  0  0  0  0  0
  188.8350  176.7330  146.0790 C   0  0  0  0  0  2  0  0  0  0  0  0
  189.0230  178.1800  143.1860 O   0  0  0  0  0  1  0  0  0  0  0  0
  189.2840  175.8370  143.4420 O   0  0  0  0  0  0  0  0  0  0  0  0
  190.3440  176.0850  142.5560 C   0  0  0  0  0  2  0  0  0  0  0  0
  188.4200  176.9590  143.5300 C   0  0  1  0  0  3  0  0  0  0  0  0
  191.6600  176.1770  143.3290 C   0  0  1  0  0  3  0  0  0  0  0  0
  190.0310  177.6830  146.2580 C   0  0  1  0  0  3  0  0  0  0  0  0
  183.9850  179.3500  140.7290 N   0  0  0  0  0  2  0  0  0  0  0  0
  187.1950  177.7430  137.9600 C   0  0  0  0  0  3  0  0  0  0  0  0
  187.8870  178.6010  138.9690 C   0  0  1  0  0  3  0  0  0  0  0  0
  185.8690  177.7230  137.8160 C   0  0  0  0  0  3  0  0  0  0  0  0
  184.8960  178.4700  138.6420 C   0  0  0  0  0  0  0  0  0  0  0  0
  185.0340  178.7200  139.9730 C   0  0  0  0  0  0  0  0  0  0  0  0
  183.7510  178.8210  137.9950 F   0  0  0  0  0  0  0  0  0  0  0  0
  187.4710  178.2120  140.3460 C   0  0  0  0  0  3  0  0  0  0  0  0
  186.2100  178.3000  140.7720 C   0  0  0  0  0  3  0  0  0  0  0  0
  189.3910  178.4320  138.8370 C   0  0  0  0  0  2  0  0  0  0  0  0
  190.8330  176.6210  138.3370 N   0  0  0  0  0  0  0  0  0  0  0  0
  189.7430  177.0220  138.8630 N   0  0  0  0  0  0  0  0  0  0  0  0
  191.2010  175.2850  138.3280 O   0  0  0  0  0  0  0  0  0  0  0  0
  191.9790  174.6710  137.2850 C   0  0  2  0  0  0  0  0  0  0  0  0
  192.4160  175.7290  136.2630 C   0  0  0  0  0  1  0  0  0  0  0  0
  189.7700  173.6830  136.5970 O   0  0  0  0  0  1  0  0  0  0  0  0
  191.7300  172.6990  135.9350 O   0  0  0  0  0  0  0  0  0  0  0  0
  191.1600  173.6190  136.5840 C   0  0  0  0  0  0  0  0  0  0  0  0
  193.1120  174.0250  137.8330 O   0  0  0  0  0  0  0  0  0  0  0  0
  194.1630  174.9500  137.9640 C   0  0  0  0  0  2  0  0  0  0  0  0
  195.2400  174.3680  138.8130 C   0  0  0  0  0  0  0  0  0  0  0  0
  196.0820  175.1240  139.3680 O   0  0  0  0  0  1  0  0  0  0  0  0
  195.3450  172.9910  138.9540 O   0  0  0  0  0  0  0  0  0  0  0  0
  181.6830  178.5760  141.0410 C   0  0  0  0  0  2  0  0  0  0  0  0
  181.6920  175.7230  137.8340 C   0  0  0  0  0  0  0  0  0  0  0  0
  180.9800  176.9230  137.7100 C   0  0  0  0  0  3  0  0  0  0  0  0
  180.9690  177.8460  138.7590 C   0  0  0  0  0  3  0  0  0  0  0  0
  181.6630  177.5650  139.9420 C   0  0  0  0  0  0  0  0  0  0  0  0
  182.3840  175.4400  139.0180 C   0  0  0  0  0  3  0  0  0  0  0  0
  182.3730  176.3640  140.0690 C   0  0  0  0  0  3  0  0  0  0  0  0
  181.6870  174.7430  136.7130 C   0  0  0  0  0  2  0  0  0  0  0  0
  181.8800  173.3350  137.2490 C   0  0  0  0  0  2  0  0  0  0  0  0
  183.1560  172.7640  136.7380 C   0  0  0  0  0  0  0  0  0  0  0  0
  183.1390  171.8960  135.6410 C   0  0  0  0  0  3  0  0  0  0  0  0
  184.3730  173.1120  137.3340 C   0  0  0  0  0  3  0  0  0  0  0  0
  185.5490  171.7130  135.7450 C   0  0  0  0  0  3  0  0  0  0  0  0
  184.3340  171.3690  135.1460 C   0  0  0  0  0  3  0  0  0  0  0  0
  185.5680  172.5850  136.8380 C   0  0  0  0  0  3  0  0  0  0  0  0
  1 44  1  6  0  0  0
  1  2  1  0  0  0  0
  2  3  1  0  0  0  0
  3  4  1  0  0  0  0
  4  5  1  0  0  0  0
  5  6  1  0  0  0  0
  7  6  1  0  0  0  0
  8  9  2  0  0  0  0
  9 11  1  0  0  0  0
 11 20  1  0  0  0  0
 13  7  1  1  0  0  0
 13 14  1  0  0  0  0
 14 20  1  0  0  0  0
 16 18  1  0  0  0  0
 17 19  1  0  0  0  0
 17 16  1  0  0  0  0
 18 15  1  1  0  0  0
 18 13  1  0  0  0  0
 19 10  1  1  0  0  0
 19  9  1  0  0  0  0
 20 12  1  6  0  0  0
 21  1  1  0  0  0  0
 22 23  1  0  0  0  0
 23 30  1  1  0  0  0
 23 28  1  0  0  0  0
 24 22  2  0  0  0  0
 24 25  1  0  0  0  0
 25 26  2  0  0  0  0
 26 21  1  0  0  0  0
 26 29  1  0  0  0  0
 27 25  1  0  0  0  0
 28 29  2  0  0  0  0
 30 32  1  0  0  0  0
 31 32  2  0  0  0  0
 33 31  1  0  0  0  0
 34 35  1  6  0  0  0
 34 39  1  0  0  0  0
 34 33  1  0  0  0  0
 37 38  2  0  0  0  0
 38 36  1  0  0  0  0
 38 34  1  0  0  0  0
 39 40  1  0  0  0  0
 40 41  1  0  0  0  0
 41 43  2  0  0  0  0
 41 42  1  0  0  0  0
 45 49  1  0  0  0  0
 46 45  2  0  0  0  0
 46 47  1  0  0  0  0
 47 48  2  0  0  0  0
 48 50  1  0  0  0  0
 48 44  1  0  0  0  0
 49 50  2  0  0  0  0
 51 52  1  0  0  0  0
 51 45  1  0  0  0  0
 53 52  1  0  0  0  0
 53 55  1  0  0  0  0
 54 53  2  0  0  0  0
 56 58  1  0  0  0  0
 57 54  1  0  0  0  0
 57 56  2  0  0  0  0
 58 55  2  0  0  0  0
M  END
>  <MODEL>
5

>  <REMARK>
 VINA RESULT:      -7.5      3.466      8.413
  Name = 
  22 active torsions:
  status: ('A' for Active; 'I' for Inactive)
    1  A    between atoms: C_3  and  C_5
    2  A    between atoms: C_3  and  C_27
    3  A    between atoms: C_4  and  C_5
    4  A    between atoms: C_4  and  C_40
    5  A    between atoms: C_6  and  C_32
    6  A    between atoms: N_7  and  O_10
    7  A    between atoms: C_8  and  O_10
    8  A    between atoms: C_8  and  O_37
    9  A    between atoms: C_8  and  C_43
   10  A    between atoms: C_12  and  C_24
   11  A    between atoms: C_13  and  O_37
   12  A    between atoms: C_13  and  C_39
   13  A    between atoms: C_15  and  C_17
   14  A    between atoms: C_17  and  C_24
   15  A    between atoms: C_25  and  C_33
   16  A    between atoms: C_25  and  C_54
   17  A    between atoms: N_26  and  C_41
   18  A    between atoms: N_26  and  C_54
   19  A    between atoms: C_27  and  O_56
   20  A    between atoms: C_28  and  O_56
   21  A    between atoms: N_31  and  C_32
   22  A    between atoms: C_40  and  C_54
                            x       y       z     vdW  Elec       q    Type
                         _______ _______ _______ _____ _____    ______ ____

>  <TORSDO>
F 22

$$$$
=
 OpenBabel10222418023D

 58 61  0  0  1  0  0  0  0  0999 V2000
  190.0180  177.8830  139.7350 C   0  0  2  0  0  3  0  0  0  0  0  0
  188.7350  177.2850  140.2780 C   0  0  0  0  0  2  0  0  0  0  0  0
  187.6270  178.3210  140.2860 C   0  0  0  0  0  2  0  0  0  0  0  0
  187.2010  178.5750  141.7160 C   0  0  0  0  0  2  0  0  0  0  0  0
  185.8900  179.3370  141.7330 C   0  0  0  0  0  2  0  0  0  0  0  0
  184.7440  178.3550  141.8710 C   0  0  0  0  0  2  0  0  0  0  0  0
  183.5450  178.9850  141.5260 O   0  0  0  0  0  0  0  0  0  0  0  0
  180.4530  180.3190  137.9790 O   0  0  0  0  0  0  0  0  0  0  0  0
  180.6320  179.1120  137.9110 C   0  0  0  0  0  0  0  0  0  0  0  0
  179.6500  176.9510  137.5950 O   0  0  0  0  0  1  0  0  0  0  0  0
  181.9630  178.5880  137.4510 C   0  0  0  0  0  2  0  0  0  0  0  0
  183.1370  180.0940  138.9850 O   0  0  0  0  0  1  0  0  0  0  0  0
  182.7690  177.9840  140.9290 C   0  0  2  0  0  3  0  0  0  0  0  0
  183.2430  177.6850  139.4930 C   0  0  0  0  0  2  0  0  0  0  0  0
  181.0080  179.6250  140.8120 O   0  0  0  0  0  1  0  0  0  0  0  0
  180.5430  177.3700  140.2460 O   0  0  0  0  0  0  0  0  0  0  0  0
  179.3750  177.9710  139.7500 C   0  0  0  0  0  2  0  0  0  0  0  0
  181.2690  178.2690  141.0680 C   0  0  1  0  0  3  0  0  0  0  0  0
  179.4970  178.1800  138.2400 C   0  0  1  0  0  3  0  0  0  0  0  0
  183.1120  178.8030  138.4460 C   0  0  1  0  0  3  0  0  0  0  0  0
  190.1600  177.5240  138.3280 N   0  0  0  0  0  2  0  0  0  0  0  0
  188.2780  174.1860  135.9040 C   0  0  0  0  0  3  0  0  0  0  0  0
  189.7480  174.1260  135.6490 C   0  0  1  0  0  3  0  0  0  0  0  0
  187.6920  175.2110  136.5240 C   0  0  0  0  0  3  0  0  0  0  0  0
  188.3840  176.3870  137.0970 C   0  0  0  0  0  0  0  0  0  0  0  0
  189.6090  176.3580  137.6890 C   0  0  0  0  0  0  0  0  0  0  0  0
  187.6520  177.5350  137.0950 F   0  0  0  0  0  0  0  0  0  0  0  0
  190.4950  174.1240  136.9390 C   0  0  0  0  0  3  0  0  0  0  0  0
  190.4370  175.1330  137.8090 C   0  0  0  0  0  3  0  0  0  0  0  0
  190.0820  172.8600  134.8790 C   0  0  0  0  0  2  0  0  0  0  0  0
  192.1770  171.7560  134.8720 N   0  0  0  0  0  0  0  0  0  0  0  0
  191.5060  172.8030  134.5940 N   0  0  0  0  0  0  0  0  0  0  0  0
  193.5380  171.6660  134.6300 O   0  0  0  0  0  0  0  0  0  0  0  0
  194.5480  171.8080  135.6450 C   0  0  2  0  0  0  0  0  0  0  0  0
  195.7890  172.4920  135.0580 C   0  0  0  0  0  1  0  0  0  0  0  0
  195.9320  169.7090  135.5490 O   0  0  0  0  0  0  0  0  0  0  0  0
  194.3990  170.0040  137.2260 O   0  0  0  0  0  1  0  0  0  0  0  0
  194.9370  170.4530  136.1760 C   0  0  0  0  0  0  0  0  0  0  0  0
  194.0460  172.5580  136.7360 O   0  0  0  0  0  0  0  0  0  0  0  0
  194.7380  173.7790  136.8230 C   0  0  0  0  0  2  0  0  0  0  0  0
  195.0600  174.0720  138.2470 C   0  0  0  0  0  0  0  0  0  0  0  0
  195.0050  175.2560  138.6750 O   0  0  0  0  0  0  0  0  0  0  0  0
  195.4670  173.0470  139.0920 O   0  0  0  0  0  1  0  0  0  0  0  0
  191.2110  177.3660  140.5340 C   0  0  0  0  0  2  0  0  0  0  0  0
  190.3070  176.9190  144.7060 C   0  0  0  0  0  0  0  0  0  0  0  0
  190.0180  175.8860  143.8060 C   0  0  0  0  0  3  0  0  0  0  0  0
  190.3030  176.0370  142.4460 C   0  0  0  0  0  3  0  0  0  0  0  0
  190.8680  177.2300  141.9800 C   0  0  0  0  0  0  0  0  0  0  0  0
  190.8700  178.1150  144.2400 C   0  0  0  0  0  3  0  0  0  0  0  0
  191.1550  178.2670  142.8790 C   0  0  0  0  0  3  0  0  0  0  0  0
  189.9880  176.7510  146.1510 C   0  0  0  0  0  2  0  0  0  0  0  0
  189.4280  178.0440  146.7170 C   0  0  0  0  0  2  0  0  0  0  0  0
  187.9550  178.0970  146.5130 C   0  0  0  0  0  0  0  0  0  0  0  0
  187.1290  178.5800  147.5320 C   0  0  0  0  0  3  0  0  0  0  0  0
  187.3970  177.6900  145.2960 C   0  0  0  0  0  3  0  0  0  0  0  0
  185.1890  178.2360  146.1280 C   0  0  0  0  0  3  0  0  0  0  0  0
  185.7470  178.6470  147.3410 C   0  0  0  0  0  3  0  0  0  0  0  0
  186.0140  177.7570  145.1050 C   0  0  0  0  0  3  0  0  0  0  0  0
  1  2  1  1  0  0  0
  1 44  1  0  0  0  0
  2  3  1  0  0  0  0
  3  4  1  0  0  0  0
  4  5  1  0  0  0  0
  5  6  1  0  0  0  0
  7  6  1  0  0  0  0
  9  8  2  0  0  0  0
  9 19  1  0  0  0  0
 11  9  1  0  0  0  0
 11 20  1  0  0  0  0
 13 18  1  0  0  0  0
 13  7  1  6  0  0  0
 14 13  1  0  0  0  0
 16 18  1  0  0  0  0
 17 16  1  0  0  0  0
 18 15  1  6  0  0  0
 19 10  1  6  0  0  0
 19 17  1  0  0  0  0
 20 12  1  1  0  0  0
 20 14  1  0  0  0  0
 21  1  1  0  0  0  0
 22 24  2  0  0  0  0
 23 30  1  1  0  0  0
 23 22  1  0  0  0  0
 23 28  1  0  0  0  0
 24 25  1  0  0  0  0
 25 26  2  0  0  0  0
 26 29  1  0  0  0  0
 26 21  1  0  0  0  0
 27 25  1  0  0  0  0
 28 29  2  0  0  0  0
 32 31  2  0  0  0  0
 32 30  1  0  0  0  0
 33 31  1  0  0  0  0
 33 34  1  0  0  0  0
 34 35  1  6  0  0  0
 34 38  1  0  0  0  0
 34 39  1  0  0  0  0
 36 38  2  0  0  0  0
 38 37  1  0  0  0  0
 39 40  1  0  0  0  0
 40 41  1  0  0  0  0
 41 42  2  0  0  0  0
 41 43  1  0  0  0  0
 44 48  1  0  0  0  0
 45 51  1  0  0  0  0
 46 45  2  0  0  0  0
 47 46  1  0  0  0  0
 48 47  2  0  0  0  0
 48 50  1  0  0  0  0
 49 45  1  0  0  0  0
 50 49  2  0  0  0  0
 51 52  1  0  0  0  0
 53 52  1  0  0  0  0
 53 54  1  0  0  0  0
 55 53  2  0  0  0  0
 56 57  1  0  0  0  0
 57 54  2  0  0  0  0
 58 55  1  0  0  0  0
 58 56  2  0  0  0  0
M  END
>  <MODEL>
6

>  <REMARK>
 VINA RESULT:      -7.2      1.677      2.525
  Name = 
  22 active torsions:
  status: ('A' for Active; 'I' for Inactive)
    1  A    between atoms: C_3  and  C_5
    2  A    between atoms: C_3  and  C_27
    3  A    between atoms: C_4  and  C_5
    4  A    between atoms: C_4  and  C_40
    5  A    between atoms: C_6  and  C_32
    6  A    between atoms: N_7  and  O_10
    7  A    between atoms: C_8  and  O_10
    8  A    between atoms: C_8  and  O_37
    9  A    between atoms: C_8  and  C_43
   10  A    between atoms: C_12  and  C_24
   11  A    between atoms: C_13  and  O_37
   12  A    between atoms: C_13  and  C_39
   13  A    between atoms: C_15  and  C_17
   14  A    between atoms: C_17  and  C_24
   15  A    between atoms: C_25  and  C_33
   16  A    between atoms: C_25  and  C_54
   17  A    between atoms: N_26  and  C_41
   18  A    between atoms: N_26  and  C_54
   19  A    between atoms: C_27  and  O_56
   20  A    between atoms: C_28  and  O_56
   21  A    between atoms: N_31  and  C_32
   22  A    between atoms: C_40  and  C_54
                            x       y       z     vdW  Elec       q    Type
                         _______ _______ _______ _____ _____    ______ ____

>  <TORSDO>
F 22

$$$$
=
 OpenBabel10222418023D

 58 61  0  0  1  0  0  0  0  0999 V2000
  190.2000  176.8430  140.9520 C   0  0  2  0  0  3  0  0  0  0  0  0
  189.2230  178.0020  140.8880 C   0  0  0  0  0  2  0  0  0  0  0  0
  188.3320  177.8790  139.6660 C   0  0  0  0  0  2  0  0  0  0  0  0
  188.9740  178.6230  138.5140 C   0  0  0  0  0  2  0  0  0  0  0  0
  187.9100  179.0360  137.5150 C   0  0  0  0  0  2  0  0  0  0  0  0
  187.9700  178.1160  136.3130 C   0  0  0  0  0  2  0  0  0  0  0  0
  186.7800  177.3880  136.2200 O   0  0  0  0  0  0  0  0  0  0  0  0
  185.6070  173.0020  138.0380 O   0  0  0  0  0  0  0  0  0  0  0  0
  185.8110  172.8880  136.8390 C   0  0  0  0  0  0  0  0  0  0  0  0
  186.8170  171.6020  135.0860 O   0  0  0  0  0  1  0  0  0  0  0  0
  184.8290  173.4730  135.8630 C   0  0  0  0  0  2  0  0  0  0  0  0
  184.8090  175.5960  137.0860 O   0  0  0  0  0  1  0  0  0  0  0  0
  187.1040  176.2600  135.4570 C   0  0  2  0  0  3  0  0  0  0  0  0
  185.8460  175.6090  134.8500 C   0  0  0  0  0  2  0  0  0  0  0  0
  187.5820  175.1650  137.5500 O   0  0  0  0  0  1  0  0  0  0  0  0
  188.1190  174.0770  135.5130 O   0  0  0  0  0  0  0  0  0  0  0  0
  188.2720  172.9940  136.3930 C   0  0  0  0  0  2  0  0  0  0  0  0
  188.0230  175.3010  136.2230 C   0  0  1  0  0  3  0  0  0  0  0  0
  187.0170  172.1200  136.3680 C   0  0  1  0  0  3  0  0  0  0  0  0
  184.8120  175.0070  135.8160 C   0  0  1  0  0  3  0  0  0  0  0  0
  190.3040  176.3770  142.3310 N   0  0  0  0  0  2  0  0  0  0  0  0
  187.7810  177.8840  145.7830 C   0  0  0  0  0  3  0  0  0  0  0  0
  187.0340  178.2100  144.5300 C   0  0  1  0  0  3  0  0  0  0  0  0
  189.0480  177.4700  145.7830 C   0  0  0  0  0  3  0  0  0  0  0  0
  189.8760  177.2150  144.5840 C   0  0  0  0  0  0  0  0  0  0  0  0
  189.4110  176.7080  143.4090 C   0  0  0  0  0  0  0  0  0  0  0  0
  191.2100  177.4240  144.7580 F   0  0  0  0  0  0  0  0  0  0  0  0
  186.9240  177.0000  143.6680 C   0  0  0  0  0  3  0  0  0  0  0  0
  187.9880  176.3720  143.1640 C   0  0  0  0  0  3  0  0  0  0  0  0
  185.6400  178.7010  144.8800 C   0  0  0  0  0  2  0  0  0  0  0  0
  184.0000  178.9060  143.1840 N   0  0  0  0  0  0  0  0  0  0  0  0
  184.6640  178.1430  143.9590 N   0  0  0  0  0  0  0  0  0  0  0  0
  183.0500  178.4180  142.3020 O   0  0  0  0  0  0  0  0  0  0  0  0
  183.1420  178.5390  140.8710 C   0  0  2  0  0  0  0  0  0  0  0  0
  183.0550  177.1520  140.2190 C   0  0  0  0  0  1  0  0  0  0  0  0
  184.5030  180.1340  139.4800 O   0  0  0  0  0  0  0  0  0  0  0  0
  185.5050  178.8940  141.1260 O   0  0  0  0  0  1  0  0  0  0  0  0
  184.4510  179.1800  140.4920 C   0  0  0  0  0  0  0  0  0  0  0  0
  182.1080  179.3740  140.3810 O   0  0  0  0  0  0  0  0  0  0  0  0
  180.8770  178.7020  140.4780 C   0  0  0  0  0  2  0  0  0  0  0  0
  180.1010  179.2420  141.6280 C   0  0  0  0  0  0  0  0  0  0  0  0
  180.0890  180.4830  141.8530 O   0  0  0  0  0  0  0  0  0  0  0  0
  179.4280  178.3760  142.4800 O   0  0  0  0  0  1  0  0  0  0  0  0
  191.5670  177.2880  140.4410 C   0  0  0  0  0  2  0  0  0  0  0  0
  192.6960  175.1060  136.9210 C   0  0  0  0  0  0  0  0  0  0  0  0
  193.5800  176.0290  137.4940 C   0  0  0  0  0  3  0  0  0  0  0  0
  193.2070  176.7460  138.6340 C   0  0  0  0  0  3  0  0  0  0  0  0
  191.9400  176.5500  139.1980 C   0  0  0  0  0  0  0  0  0  0  0  0
  191.4270  174.9120  137.4830 C   0  0  0  0  0  3  0  0  0  0  0  0
  191.0530  175.6300  138.6240 C   0  0  0  0  0  3  0  0  0  0  0  0
  193.1000  174.3560  135.7000 C   0  0  0  0  0  2  0  0  0  0  0  0
  193.1290  172.8660  135.9870 C   0  0  0  0  0  2  0  0  0  0  0  0
  194.5130  172.4390  136.3320 C   0  0  0  0  0  0  0  0  0  0  0  0
  194.7150  171.2770  137.0840 C   0  0  0  0  0  3  0  0  0  0  0  0
  195.6120  173.1790  135.8830 C   0  0  0  0  0  3  0  0  0  0  0  0
  197.1080  171.6050  136.9540 C   0  0  0  0  0  3  0  0  0  0  0  0
  196.0110  170.8620  137.3980 C   0  0  0  0  0  3  0  0  0  0  0  0
  196.9090  172.7630  136.1960 C   0  0  0  0  0  3  0  0  0  0  0  0
  1 44  1  1  0  0  0
  1 21  1  0  0  0  0
  2  1  1  0  0  0  0
  3  2  1  0  0  0  0
  4  3  1  0  0  0  0
  5  4  1  0  0  0  0
  6  5  1  0  0  0  0
  7  6  1  0  0  0  0
  9  8  2  0  0  0  0
 11  9  1  0  0  0  0
 13  7  1  1  0  0  0
 13 18  1  0  0  0  0
 14 13  1  0  0  0  0
 14 20  1  0  0  0  0
 16 18  1  0  0  0  0
 16 17  1  0  0  0  0
 18 15  1  1  0  0  0
 19 10  1  6  0  0  0
 19 17  1  0  0  0  0
 19  9  1  0  0  0  0
 20 11  1  0  0  0  0
 20 12  1  1  0  0  0
 21 26  1  0  0  0  0
 23 30  1  1  0  0  0
 23 22  1  0  0  0  0
 24 22  2  0  0  0  0
 25 27  1  0  0  0  0
 25 24  1  0  0  0  0
 26 25  2  0  0  0  0
 28 23  1  0  0  0  0
 29 26  1  0  0  0  0
 29 28  2  0  0  0  0
 31 32  2  0  0  0  0
 32 30  1  0  0  0  0
 33 31  1  0  0  0  0
 34 35  1  6  0  0  0
 34 33  1  0  0  0  0
 36 38  2  0  0  0  0
 38 34  1  0  0  0  0
 38 37  1  0  0  0  0
 39 40  1  0  0  0  0
 39 34  1  0  0  0  0
 40 41  1  0  0  0  0
 41 42  2  0  0  0  0
 41 43  1  0  0  0  0
 45 49  2  0  0  0  0
 45 46  1  0  0  0  0
 46 47  2  0  0  0  0
 47 48  1  0  0  0  0
 48 44  1  0  0  0  0
 49 50  1  0  0  0  0
 50 48  2  0  0  0  0
 51 52  1  0  0  0  0
 51 45  1  0  0  0  0
 52 53  1  0  0  0  0
 53 54  1  0  0  0  0
 54 57  2  0  0  0  0
 55 58  1  0  0  0  0
 55 53  2  0  0  0  0
 56 57  1  0  0  0  0
 58 56  2  0  0  0  0
M  END
>  <MODEL>
7

>  <REMARK>
 VINA RESULT:      -7.0      3.582     10.130
  Name = 
  22 active torsions:
  status: ('A' for Active; 'I' for Inactive)
    1  A    between atoms: C_3  and  C_5
    2  A    between atoms: C_3  and  C_27
    3  A    between atoms: C_4  and  C_5
    4  A    between atoms: C_4  and  C_40
    5  A    between atoms: C_6  and  C_32
    6  A    between atoms: N_7  and  O_10
    7  A    between atoms: C_8  and  O_10
    8  A    between atoms: C_8  and  O_37
    9  A    between atoms: C_8  and  C_43
   10  A    between atoms: C_12  and  C_24
   11  A    between atoms: C_13  and  O_37
   12  A    between atoms: C_13  and  C_39
   13  A    between atoms: C_15  and  C_17
   14  A    between atoms: C_17  and  C_24
   15  A    between atoms: C_25  and  C_33
   16  A    between atoms: C_25  and  C_54
   17  A    between atoms: N_26  and  C_41
   18  A    between atoms: N_26  and  C_54
   19  A    between atoms: C_27  and  O_56
   20  A    between atoms: C_28  and  O_56
   21  A    between atoms: N_31  and  C_32
   22  A    between atoms: C_40  and  C_54
                            x       y       z     vdW  Elec       q    Type
                         _______ _______ _______ _____ _____    ______ ____

>  <TORSDO>
F 22

$$$$
=
 OpenBabel10222418023D

 58 61  0  0  1  0  0  0  0  0999 V2000
  183.1760  178.6730  142.0560 C   0  0  2  0  0  3  0  0  0  0  0  0
  183.1100  179.3970  143.3870 C   0  0  0  0  0  2  0  0  0  0  0  0
  183.7690  178.5700  144.4750 C   0  0  0  0  0  2  0  0  0  0  0  0
  184.9480  179.3390  145.0320 C   0  0  0  0  0  2  0  0  0  0  0  0
  185.1220  179.0150  146.5030 C   0  0  0  0  0  2  0  0  0  0  0  0
  186.0560  177.8310  146.6450 C   0  0  0  0  0  2  0  0  0  0  0  0
  187.3460  178.2040  146.2550 O   0  0  0  0  0  0  0  0  0  0  0  0
  192.0370  178.3850  144.8830 O   0  0  0  0  0  0  0  0  0  0  0  0
  191.7090  177.2140  145.0090 C   0  0  0  0  0  0  0  0  0  0  0  0
  191.8050  174.9950  144.1130 O   0  0  0  0  0  1  0  0  0  0  0  0
  191.4540  176.6620  146.3830 C   0  0  0  0  0  2  0  0  0  0  0  0
  190.0370  178.5810  146.9400 O   0  0  0  0  0  1  0  0  0  0  0  0
  187.9140  177.0390  145.7230 C   0  0  2  0  0  3  0  0  0  0  0  0
  188.9140  176.4000  146.7050 C   0  0  0  0  0  2  0  0  0  0  0  0
  189.1400  178.4920  144.2420 O   0  0  0  0  0  1  0  0  0  0  0  0
  189.2280  176.1450  143.9140 O   0  0  0  0  0  0  0  0  0  0  0  0
  190.2830  176.5300  143.0700 C   0  0  0  0  0  2  0  0  0  0  0  0
  188.4550  177.2670  144.3070 C   0  0  1  0  0  3  0  0  0  0  0  0
  191.6200  176.3410  143.7860 C   0  0  1  0  0  3  0  0  0  0  0  0
  190.1820  177.1940  147.0580 C   0  0  1  0  0  3  0  0  0  0  0  0
  184.1240  179.3570  141.1830 N   0  0  0  0  0  2  0  0  0  0  0  0
  187.5960  177.8760  138.6720 C   0  0  0  0  0  3  0  0  0  0  0  0
  188.1870  178.5960  139.8400 C   0  0  1  0  0  3  0  0  0  0  0  0
  186.2990  177.9330  138.3680 C   0  0  0  0  0  3  0  0  0  0  0  0
  185.2570  178.6420  139.1420 C   0  0  0  0  0  0  0  0  0  0  0  0
  185.2370  178.7540  140.4990 C   0  0  0  0  0  0  0  0  0  0  0  0
  184.2150  179.1080  138.4010 F   0  0  0  0  0  0  0  0  0  0  0  0
  187.5880  178.0960  141.1090 C   0  0  0  0  0  3  0  0  0  0  0  0
  186.2880  178.2020  141.3860 C   0  0  0  0  0  3  0  0  0  0  0  0
  189.6880  178.3690  139.8740 C   0  0  0  0  0  2  0  0  0  0  0  0
  191.1120  176.7810  138.8440 N   0  0  0  0  0  0  0  0  0  0  0  0
  190.0040  177.0230  139.4260 N   0  0  0  0  0  0  0  0  0  0  0  0
  191.4470  175.5170  138.3890 O   0  0  0  0  0  0  0  0  0  0  0  0
  191.6670  175.1910  137.0040 C   0  0  2  0  0  0  0  0  0  0  0  0
  191.4940  173.6820  136.7860 C   0  0  0  0  0  1  0  0  0  0  0  0
  193.9690  176.0470  137.5470 O   0  0  0  0  0  1  0  0  0  0  0  0
  193.4320  175.4670  135.3970 O   0  0  0  0  0  0  0  0  0  0  0  0
  193.0610  175.5910  136.5970 C   0  0  0  0  0  0  0  0  0  0  0  0
  190.7660  175.9100  136.1820 O   0  0  0  0  0  0  0  0  0  0  0  0
  189.6220  175.1280  135.9420 C   0  0  0  0  0  2  0  0  0  0  0  0
  188.4670  176.0130  135.6310 C   0  0  0  0  0  0  0  0  0  0  0  0
  187.2930  175.6310  135.8880 O   0  0  0  0  0  1  0  0  0  0  0  0
  188.6770  177.2400  135.0150 O   0  0  0  0  0  0  0  0  0  0  0  0
  181.7930  178.6440  141.4120 C   0  0  0  0  0  2  0  0  0  0  0  0
  181.8460  176.2050  137.8800 C   0  0  0  0  0  0  0  0  0  0  0  0
  181.2020  177.4490  137.8700 C   0  0  0  0  0  3  0  0  0  0  0  0
  181.1760  178.2370  139.0240 C   0  0  0  0  0  3  0  0  0  0  0  0
  181.7870  177.7760  140.1970 C   0  0  0  0  0  0  0  0  0  0  0  0
  182.4550  175.7420  139.0540 C   0  0  0  0  0  3  0  0  0  0  0  0
  182.4290  176.5300  140.2090 C   0  0  0  0  0  3  0  0  0  0  0  0
  181.8560  175.3690  136.6480 C   0  0  0  0  0  2  0  0  0  0  0  0
  183.1670  175.5510  135.9040 C   0  0  0  0  0  2  0  0  0  0  0  0
  183.9590  174.2920  135.9460 C   0  0  0  0  0  0  0  0  0  0  0  0
  184.2750  173.6280  134.7570 C   0  0  0  0  0  3  0  0  0  0  0  0
  184.4100  173.7830  137.1690 C   0  0  0  0  0  3  0  0  0  0  0  0
  185.4760  171.9440  136.0100 C   0  0  0  0  0  3  0  0  0  0  0  0
  185.0310  172.4540  134.7880 C   0  0  0  0  0  3  0  0  0  0  0  0
  185.1660  172.6090  137.2010 C   0  0  0  0  0  3  0  0  0  0  0  0
  1 44  1  6  0  0  0
  1  2  1  0  0  0  0
  2  3  1  0  0  0  0
  3  4  1  0  0  0  0
  4  5  1  0  0  0  0
  5  6  1  0  0  0  0
  7  6  1  0  0  0  0
  8  9  2  0  0  0  0
  9 11  1  0  0  0  0
 11 20  1  0  0  0  0
 13  7  1  1  0  0  0
 13 14  1  0  0  0  0
 14 20  1  0  0  0  0
 16 18  1  0  0  0  0
 17 19  1  0  0  0  0
 17 16  1  0  0  0  0
 18 15  1  1  0  0  0
 18 13  1  0  0  0  0
 19 10  1  1  0  0  0
 19  9  1  0  0  0  0
 20 12  1  6  0  0  0
 21  1  1  0  0  0  0
 22 23  1  0  0  0  0
 23 30  1  1  0  0  0
 23 28  1  0  0  0  0
 24 22  2  0  0  0  0
 24 25  1  0  0  0  0
 25 26  2  0  0  0  0
 26 21  1  0  0  0  0
 26 29  1  0  0  0  0
 27 25  1  0  0  0  0
 28 29  2  0  0  0  0
 31 32  2  0  0  0  0
 32 30  1  0  0  0  0
 33 31  1  0  0  0  0
 34 35  1  6  0  0  0
 34 33  1  0  0  0  0
 37 38  2  0  0  0  0
 38 34  1  0  0  0  0
 38 36  1  0  0  0  0
 39 34  1  0  0  0  0
 40 39  1  0  0  0  0
 41 42  1  0  0  0  0
 41 40  1  0  0  0  0
 43 41  2  0  0  0  0
 45 49  1  0  0  0  0
 46 45  2  0  0  0  0
 46 47  1  0  0  0  0
 47 48  2  0  0  0  0
 48 50  1  0  0  0  0
 48 44  1  0  0  0  0
 49 50  2  0  0  0  0
 51 45  1  0  0  0  0
 52 53  1  0  0  0  0
 52 51  1  0  0  0  0
 53 55  1  0  0  0  0
 54 57  1  0  0  0  0
 54 53  2  0  0  0  0
 55 58  2  0  0  0  0
 56 58  1  0  0  0  0
 57 56  2  0  0  0  0
M  END
>  <MODEL>
8

>  <REMARK>
 VINA RESULT:      -6.9      3.386      8.758
  Name = 
  22 active torsions:
  status: ('A' for Active; 'I' for Inactive)
    1  A    between atoms: C_3  and  C_5
    2  A    between atoms: C_3  and  C_27
    3  A    between atoms: C_4  and  C_5
    4  A    between atoms: C_4  and  C_40
    5  A    between atoms: C_6  and  C_32
    6  A    between atoms: N_7  and  O_10
    7  A    between atoms: C_8  and  O_10
    8  A    between atoms: C_8  and  O_37
    9  A    between atoms: C_8  and  C_43
   10  A    between atoms: C_12  and  C_24
   11  A    between atoms: C_13  and  O_37
   12  A    between atoms: C_13  and  C_39
   13  A    between atoms: C_15  and  C_17
   14  A    between atoms: C_17  and  C_24
   15  A    between atoms: C_25  and  C_33
   16  A    between atoms: C_25  and  C_54
   17  A    between atoms: N_26  and  C_41
   18  A    between atoms: N_26  and  C_54
   19  A    between atoms: C_27  and  O_56
   20  A    between atoms: C_28  and  O_56
   21  A    between atoms: N_31  and  C_32
   22  A    between atoms: C_40  and  C_54
                            x       y       z     vdW  Elec       q    Type
                         _______ _______ _______ _____ _____    ______ ____

>  <TORSDO>
F 22

$$$$
=
 OpenBabel10222418023D

 58 61  0  0  1  0  0  0  0  0999 V2000
  190.8280  177.0720  139.8590 C   0  0  2  0  0  3  0  0  0  0  0  0
  191.8180  177.3070  138.7350 C   0  0  0  0  0  2  0  0  0  0  0  0
  192.3000  175.9860  138.1660 C   0  0  0  0  0  2  0  0  0  0  0  0
  191.1880  175.3710  137.3420 C   0  0  0  0  0  2  0  0  0  0  0  0
  191.7640  174.7680  136.0750 C   0  0  0  0  0  2  0  0  0  0  0  0
  192.2640  173.3690  136.3710 C   0  0  0  0  0  2  0  0  0  0  0  0
  193.5660  173.2260  135.8830 O   0  0  0  0  0  0  0  0  0  0  0  0
  198.2920  172.3560  136.7930 O   0  0  0  0  0  0  0  0  0  0  0  0
  198.0950  173.5610  136.8580 C   0  0  0  0  0  0  0  0  0  0  0  0
  198.5140  175.6040  138.0350 O   0  0  0  0  0  1  0  0  0  0  0  0
  197.8050  174.3310  135.6000 C   0  0  0  0  0  2  0  0  0  0  0  0
  196.1370  172.6720  134.9150 O   0  0  0  0  0  1  0  0  0  0  0  0
  194.3030  174.2340  136.5160 C   0  0  2  0  0  3  0  0  0  0  0  0
  195.2960  174.9010  135.5440 C   0  0  0  0  0  2  0  0  0  0  0  0
  195.4580  172.4610  137.6700 O   0  0  0  0  0  1  0  0  0  0  0  0
  195.8430  174.7130  138.3050 O   0  0  0  0  0  0  0  0  0  0  0  0
  196.9040  174.1020  138.9910 C   0  0  0  0  0  2  0  0  0  0  0  0
  194.9170  173.7470  137.8340 C   0  0  1  0  0  3  0  0  0  0  0  0
  198.1980  174.2520  138.1910 C   0  0  1  0  0  3  0  0  0  0  0  0
  196.4340  174.0380  134.9750 C   0  0  1  0  0  3  0  0  0  0  0  0
  189.6090  177.8290  139.5940 N   0  0  0  0  0  2  0  0  0  0  0  0
  187.3470  177.5630  135.6740 C   0  0  0  0  0  3  0  0  0  0  0  0
  187.8290  176.1840  135.9860 C   0  0  1  0  0  3  0  0  0  0  0  0
  187.7670  178.6430  136.3330 C   0  0  0  0  0  3  0  0  0  0  0  0
  188.6990  178.6490  137.4820 C   0  0  0  0  0  0  0  0  0  0  0  0
  188.7550  177.6880  138.4440 C   0  0  0  0  0  0  0  0  0  0  0  0
  189.4620  179.7710  137.5900 F   0  0  0  0  0  0  0  0  0  0  0  0
  187.4570  175.8120  137.3800 C   0  0  0  0  0  3  0  0  0  0  0  0
  187.9010  176.4760  138.4480 C   0  0  0  0  0  3  0  0  0  0  0  0
  187.2010  175.1930  135.0210 C   0  0  0  0  0  2  0  0  0  0  0  0
  184.8640  175.5720  135.0820 N   0  0  0  0  0  0  0  0  0  0  0  0
  185.8530  174.8580  135.4510 N   0  0  0  0  0  0  0  0  0  0  0  0
  183.5660  175.2960  135.4790 O   0  0  0  0  0  0  0  0  0  0  0  0
  182.9930  175.7380  136.7230 C   0  0  2  0  0  0  0  0  0  0  0  0
  183.5840  174.9320  137.8880 C   0  0  0  0  0  1  0  0  0  0  0  0
  180.9530  174.2650  136.7070 O   0  0  0  0  0  0  0  0  0  0  0  0
  180.7300  176.5460  136.7220 O   0  0  0  0  0  1  0  0  0  0  0  0
  181.4990  175.5450  136.6980 C   0  0  0  0  0  0  0  0  0  0  0  0
  183.2350  177.1200  136.9130 O   0  0  0  0  0  0  0  0  0  0  0  0
  184.0690  177.3010  138.0310 C   0  0  0  0  0  2  0  0  0  0  0  0
  183.4520  178.2870  138.9610 C   0  0  0  0  0  0  0  0  0  0  0  0
  182.3340  178.0400  139.4900 O   0  0  0  0  0  1  0  0  0  0  0  0
  184.0840  179.4980  139.2090 O   0  0  0  0  0  0  0  0  0  0  0  0
  191.4390  177.5070  141.1880 C   0  0  0  0  0  2  0  0  0  0  0  0
  188.6040  177.0070  144.3720 C   0  0  0  0  0  0  0  0  0  0  0  0
  189.4060  178.1540  144.3140 C   0  0  0  0  0  3  0  0  0  0  0  0
  190.3360  178.3100  143.2820 C   0  0  0  0  0  3  0  0  0  0  0  0
  190.4750  177.3120  142.3110 C   0  0  0  0  0  0  0  0  0  0  0  0
  188.7440  176.0060  143.4010 C   0  0  0  0  0  3  0  0  0  0  0  0
  189.6750  176.1620  142.3690 C   0  0  0  0  0  3  0  0  0  0  0  0
  187.6240  176.8460  145.4820 C   0  0  0  0  0  2  0  0  0  0  0  0
  186.9820  178.1820  145.8090 C   0  0  0  0  0  2  0  0  0  0  0  0
  185.7410  178.3630  145.0080 C   0  0  0  0  0  0  0  0  0  0  0  0
  184.5660  178.7930  145.6330 C   0  0  0  0  0  3  0  0  0  0  0  0
  185.7520  178.1300  143.6290 C   0  0  0  0  0  3  0  0  0  0  0  0
  183.4120  178.7420  143.5080 C   0  0  0  0  0  3  0  0  0  0  0  0
  183.4010  178.9800  144.8850 C   0  0  0  0  0  3  0  0  0  0  0  0
  184.5870  178.3170  142.8800 C   0  0  0  0  0  3  0  0  0  0  0  0
  1  2  1  6  0  0  0
  1 44  1  0  0  0  0
  3  2  1  0  0  0  0
  4  3  1  0  0  0  0
  5  6  1  0  0  0  0
  5  4  1  0  0  0  0
  7  6  1  0  0  0  0
  8  9  2  0  0  0  0
  9 19  1  0  0  0  0
 11  9  1  0  0  0  0
 13  7  1  6  0  0  0
 13 18  1  0  0  0  0
 14 13  1  0  0  0  0
 16 17  1  0  0  0  0
 18 15  1  6  0  0  0
 18 16  1  0  0  0  0
 19 10  1  6  0  0  0
 19 17  1  0  0  0  0
 20 12  1  1  0  0  0
 20 14  1  0  0  0  0
 20 11  1  0  0  0  0
 21  1  1  0  0  0  0
 22 23  1  0  0  0  0
 22 24  2  0  0  0  0
 23 30  1  6  0  0  0
 23 28  1  0  0  0  0
 24 25  1  0  0  0  0
 25 27  1  0  0  0  0
 25 26  2  0  0  0  0
 26 29  1  0  0  0  0
 26 21  1  0  0  0  0
 28 29  2  0  0  0  0
 30 32  1  0  0  0  0
 31 32  2  0  0  0  0
 31 33  1  0  0  0  0
 33 34  1  0  0  0  0
 34 39  1  0  0  0  0
 34 35  1  1  0  0  0
 38 36  2  0  0  0  0
 38 37  1  0  0  0  0
 38 34  1  0  0  0  0
 39 40  1  0  0  0  0
 40 41  1  0  0  0  0
 41 43  2  0  0  0  0
 41 42  1  0  0  0  0
 44 48  1  0  0  0  0
 45 51  1  0  0  0  0
 46 45  1  0  0  0  0
 47 46  2  0  0  0  0
 48 50  2  0  0  0  0
 48 47  1  0  0  0  0
 49 45  2  0  0  0  0
 50 49  1  0  0  0  0
 51 52  1  0  0  0  0
 53 54  1  0  0  0  0
 53 52  1  0  0  0  0
 55 53  2  0  0  0  0
 56 57  1  0  0  0  0
 57 54  2  0  0  0  0
 58 56  2  0  0  0  0
 58 55  1  0  0  0  0
M  END
>  <MODEL>
9

>  <REMARK>
 VINA RESULT:      -6.9      2.211     10.295
  Name = 
  22 active torsions:
  status: ('A' for Active; 'I' for Inactive)
    1  A    between atoms: C_3  and  C_5
    2  A    between atoms: C_3  and  C_27
    3  A    between atoms: C_4  and  C_5
    4  A    between atoms: C_4  and  C_40
    5  A    between atoms: C_6  and  C_32
    6  A    between atoms: N_7  and  O_10
    7  A    between atoms: C_8  and  O_10
    8  A    between atoms: C_8  and  O_37
    9  A    between atoms: C_8  and  C_43
   10  A    between atoms: C_12  and  C_24
   11  A    between atoms: C_13  and  O_37
   12  A    between atoms: C_13  and  C_39
   13  A    between atoms: C_15  and  C_17
   14  A    between atoms: C_17  and  C_24
   15  A    between atoms: C_25  and  C_33
   16  A    between atoms: C_25  and  C_54
   17  A    between atoms: N_26  and  C_41
   18  A    between atoms: N_26  and  C_54
   19  A    between atoms: C_27  and  O_56
   20  A    between atoms: C_28  and  O_56
   21  A    between atoms: N_31  and  C_32
   22  A    between atoms: C_40  and  C_54
                            x       y       z     vdW  Elec       q    Type
                         _______ _______ _______ _____ _____    ______ ____

>  <TORSDO>
F 22

$$$$
