=
 OpenBabel10222420483D

 39 43  0  0  1  0  0  0  0  0999 V2000
  191.5890  176.9510  141.1530 N   0  0  0  0  0  2  0  0  0  0  0  0
  189.7350  176.8270  142.7580 C   0  0  0  0  0  2  0  0  0  0  0  0
  188.4240  179.0150  142.3880 C   0  0  2  0  0  3  0  0  0  0  0  0
  191.2360  176.8330  138.6750 C   0  0  2  0  0  3  0  0  0  0  0  0
  192.1450  177.0310  139.8380 C   0  0  0  0  0  0  0  0  0  0  0  0
  189.9290  177.6040  138.8730 C   0  0  2  0  0  3  0  0  0  0  0  0
  187.9790  177.4060  140.4230 O   0  0  0  0  0  0  0  0  0  0  0  0
  190.1750  176.6410  141.3000 C   0  0  1  0  0  3  0  0  0  0  0  0
  188.9890  180.0150  141.6230 F   0  0  0  0  0  0  0  0  0  0  0  0
  189.3850  177.5480  140.3330 C   0  0  1  0  0  3  0  0  0  0  0  0
  189.5150  178.2750  143.1800 C   0  0  0  0  0  2  0  0  0  0  0  0
  187.4400  178.1190  141.5550 C   0  0  2  0  0  3  0  0  0  0  0  0
  193.3450  177.3470  139.6840 O   0  0  0  0  0  0  0  0  0  0  0  0
  185.1020  179.0540  143.6560 C   0  0  2  0  0  3  0  0  0  0  0  0
  185.0340  177.9700  140.6820 C   0  0  0  0  0  2  0  0  0  0  0  0
  184.1210  179.2600  142.6900 C   0  0  1  0  0  3  0  0  0  0  0  0
  185.4400  179.3530  142.2900 C   0  0  2  0  0  3  0  0  0  0  0  0
  183.8620  178.0750  141.7460 C   0  0  0  0  0  2  0  0  0  0  0  0
  186.1700  178.9020  141.1460 C   0  0  1  0  0  3  0  0  0  0  0  0
  185.5210  178.5010  144.9460 C   0  0  0  0  0  0  0  0  0  0  0  0
  186.4090  177.5580  145.0890 N   0  0  0  0  0  0  0  0  0  0  0  0
  185.5660  178.2670  147.1030 C   0  0  0  0  0  3  0  0  0  0  0  0
  184.9740  178.9350  146.1770 N   0  0  0  0  0  0  0  0  0  0  0  0
  186.5730  177.3320  146.5230 C   0  0  2  0  0  3  0  0  0  0  0  0
  188.0760  178.6360  147.8130 O   0  0  0  0  0  0  0  0  0  0  0  0
  187.9540  177.7520  146.9650 C   0  0  0  0  0  0  0  0  0  0  0  0
  189.1680  177.1600  146.3180 C   0  0  0  0  0  2  0  0  0  0  0  0
  190.2580  176.9910  147.3550 C   0  0  0  0  0  2  0  0  0  0  0  0
  191.5370  176.8570  146.6920 N   0  0  0  0  0  2  0  0  0  0  0  0
  192.2260  175.7550  147.3410 C   0  0  0  0  0  1  0  0  0  0  0  0
  188.9760  177.2250  137.8990 O   0  0  0  0  0  0  0  0  0  0  0  0
  189.0360  178.1660  136.8600 C   0  0  0  0  0  2  0  0  0  0  0  0
  187.6580  178.7820  136.6800 C   0  0  0  0  0  1  0  0  0  0  0  0
  190.9860  175.4070  138.5050 N   0  0  0  0  0  2  0  0  0  0  0  0
  190.8410  173.7110  136.7450 C   0  0  0  0  0  1  0  0  0  0  0  0
  191.6580  174.8760  137.3020 C   0  0  1  0  0  0  0  0  0  0  0  0
  191.7910  175.8620  136.2930 O   0  0  0  0  0  1  0  0  0  0  0  0
  192.9930  174.4220  137.6760 N   0  0  0  0  0  0  0  0  0  0  0  0
  194.0490  174.8570  137.0860 C   0  0  0  0  0  2  0  0  0  0  0  0
  1  8  1  0  0  0  0
  2 11  1  0  0  0  0
  3  9  1  6  0  0  0
  3 11  1  0  0  0  0
  4 34  1  1  0  0  0
  4  6  1  0  0  0  0
  4  5  1  0  0  0  0
  5  1  1  0  0  0  0
  6 31  1  6  0  0  0
  6 10  1  0  0  0  0
  8  2  1  1  0  0  0
 10  7  1  6  0  0  0
 10  8  1  0  0  0  0
 12  7  1  6  0  0  0
 12  3  1  0  0  0  0
 13  5  2  0  0  0  0
 14 20  1  6  0  0  0
 15 19  1  0  0  0  0
 15 18  1  0  0  0  0
 16 18  1  6  0  0  0
 16 14  1  0  0  0  0
 17 16  1  0  0  0  0
 17 14  1  0  0  0  0
 19 12  1  0  0  0  0
 19 17  1  0  0  0  0
 20 21  2  0  0  0  0
 20 23  1  0  0  0  0
 21 24  1  0  0  0  0
 23 22  2  0  0  0  0
 24 26  1  0  0  0  0
 24 22  1  0  0  0  0
 26 25  2  0  0  0  0
 27 26  1  0  0  0  0
 27 28  1  0  0  0  0
 29 30  1  0  0  0  0
 29 28  1  0  0  0  0
 32 31  1  0  0  0  0
 33 32  1  0  0  0  0
 35 36  1  0  0  0  0
 36 38  1  0  0  0  0
 36 34  1  0  0  0  0
 37 36  1  0  0  0  0
 39 38  2  0  0  0  0
M  END
>  <MODEL>
1

>  <REMARK>
 VINA RESULT:      -7.3      0.000      0.000
  Name = 
  11 active torsions:
  status: ('A' for Active; 'I' for Inactive)
    1  A    between atoms: N_1  and  C_21
    2  A    between atoms: C_2  and  C_3
    3  A    between atoms: C_12  and  N_31
    4  A    between atoms: C_16  and  O_28
    5  A    between atoms: N_18  and  C_33
    6  A    between atoms: C_21  and  N_31
    7  A    between atoms: C_27  and  C_36
    8  A    between atoms: O_28  and  C_32
    9  A    between atoms: C_30  and  C_35
   10  A    between atoms: C_33  and  C_34
   11  A    between atoms: C_34  and  C_36
                            x       y       z     vdW  Elec       q    Type
                         _______ _______ _______ _____ _____    ______ ____

>  <TORSDO>
F 11

$$$$
=
 OpenBabel10222420483D

 39 43  0  0  1  0  0  0  0  0999 V2000
  183.3890  177.8110  136.8940 N   0  0  0  0  0  2  0  0  0  0  0  0
  183.6280  179.3900  138.7590 C   0  0  0  0  0  2  0  0  0  0  0  0
  181.2060  180.0140  139.3810 C   0  0  2  0  0  3  0  0  0  0  0  0
  182.4110  175.5230  137.1830 C   0  0  2  0  0  3  0  0  0  0  0  0
  182.9480  176.5900  136.2940 C   0  0  0  0  0  0  0  0  0  0  0  0
  181.4570  176.1150  138.2220 C   0  0  2  0  0  3  0  0  0  0  0  0
  181.7120  177.6220  140.1990 O   0  0  0  0  0  0  0  0  0  0  0  0
  183.3320  177.9440  138.3420 C   0  0  1  0  0  3  0  0  0  0  0  0
  180.1800  179.6550  138.5300 F   0  0  0  0  0  0  0  0  0  0  0  0
  181.9370  177.4770  138.8080 C   0  0  1  0  0  3  0  0  0  0  0  0
  182.4670  180.3610  138.5720 C   0  0  0  0  0  2  0  0  0  0  0  0
  181.3910  178.9830  140.5500 C   0  0  2  0  0  3  0  0  0  0  0  0
  182.9390  176.4720  135.0490 O   0  0  0  0  0  0  0  0  0  0  0  0
  181.6920  179.0500  143.8160 C   0  0  2  0  0  3  0  0  0  0  0  0
  179.6630  177.6100  141.8570 C   0  0  0  0  0  2  0  0  0  0  0  0
  180.3930  178.6290  144.0840 C   0  0  1  0  0  3  0  0  0  0  0  0
  180.6240  179.2560  142.8740 C   0  0  2  0  0  3  0  0  0  0  0  0
  179.9610  177.3280  143.3890 C   0  0  0  0  0  2  0  0  0  0  0  0
  180.1950  179.0200  141.5310 C   0  0  1  0  0  3  0  0  0  0  0  0
  183.1340  178.9590  144.0550 C   0  0  0  0  0  0  0  0  0  0  0  0
  183.7570  179.5520  145.0350 N   0  0  0  0  0  0  0  0  0  0  0  0
  185.1850  178.3350  143.7110 C   0  0  0  0  0  3  0  0  0  0  0  0
  184.0030  178.2230  143.2150 N   0  0  0  0  0  0  0  0  0  0  0  0
  185.1650  179.1700  144.9470 C   0  0  2  0  0  3  0  0  0  0  0  0
  185.0370  178.5320  147.2280 O   0  0  0  0  0  0  0  0  0  0  0  0
  185.5500  178.3150  146.1300 C   0  0  0  0  0  0  0  0  0  0  0  0
  186.6110  177.2660  145.9910 C   0  0  0  0  0  2  0  0  0  0  0  0
  187.9740  177.9240  146.0220 C   0  0  0  0  0  2  0  0  0  0  0  0
  188.9530  177.0300  145.4410 N   0  0  0  0  0  2  0  0  0  0  0  0
  188.7420  177.0650  144.0040 C   0  0  0  0  0  1  0  0  0  0  0  0
  181.1410  175.1540  139.2110 O   0  0  0  0  0  0  0  0  0  0  0  0
  179.8270  174.7210  138.9760 C   0  0  0  0  0  2  0  0  0  0  0  0
  179.0060  175.9010  138.4800 C   0  0  0  0  0  1  0  0  0  0  0  0
  183.5240  174.8320  137.8220 N   0  0  0  0  0  2  0  0  0  0  0  0
  182.6210  172.7260  136.9600 C   0  0  0  0  0  1  0  0  0  0  0  0
  183.8750  173.5880  137.1070 C   0  0  1  0  0  0  0  0  0  0  0  0
  184.4000  173.8490  135.8180 O   0  0  0  0  0  1  0  0  0  0  0  0
  184.8870  172.8770  137.8790 N   0  0  0  0  0  0  0  0  0  0  0  0
  186.1210  172.8490  137.5180 C   0  0  0  0  0  2  0  0  0  0  0  0
  1  8  1  0  0  0  0
  3  9  1  6  0  0  0
  3 12  1  0  0  0  0
  4 34  1  1  0  0  0
  4  6  1  0  0  0  0
  5  1  1  0  0  0  0
  5  4  1  0  0  0  0
  6 10  1  0  0  0  0
  6 31  1  1  0  0  0
  8  2  1  6  0  0  0
  8 10  1  0  0  0  0
 10  7  1  1  0  0  0
 11  2  1  0  0  0  0
 11  3  1  0  0  0  0
 12  7  1  6  0  0  0
 12 19  1  0  0  0  0
 13  5  2  0  0  0  0
 14 20  1  6  0  0  0
 14 16  1  0  0  0  0
 15 18  1  0  0  0  0
 16 18  1  6  0  0  0
 17 14  1  0  0  0  0
 17 16  1  0  0  0  0
 19 15  1  0  0  0  0
 19 17  1  0  0  0  0
 20 21  2  0  0  0  0
 22 24  1  0  0  0  0
 23 22  2  0  0  0  0
 23 20  1  0  0  0  0
 24 21  1  0  0  0  0
 24 26  1  0  0  0  0
 26 25  2  0  0  0  0
 27 28  1  0  0  0  0
 27 26  1  0  0  0  0
 29 28  1  0  0  0  0
 30 29  1  0  0  0  0
 32 31  1  0  0  0  0
 33 32  1  0  0  0  0
 35 36  1  0  0  0  0
 36 34  1  0  0  0  0
 36 38  1  0  0  0  0
 37 36  1  0  0  0  0
 39 38  2  0  0  0  0
M  END
>  <MODEL>
2

>  <REMARK>
 VINA RESULT:      -6.2      4.741      6.853
  Name = 
  11 active torsions:
  status: ('A' for Active; 'I' for Inactive)
    1  A    between atoms: N_1  and  C_21
    2  A    between atoms: C_2  and  C_3
    3  A    between atoms: C_12  and  N_31
    4  A    between atoms: C_16  and  O_28
    5  A    between atoms: N_18  and  C_33
    6  A    between atoms: C_21  and  N_31
    7  A    between atoms: C_27  and  C_36
    8  A    between atoms: O_28  and  C_32
    9  A    between atoms: C_30  and  C_35
   10  A    between atoms: C_33  and  C_34
   11  A    between atoms: C_34  and  C_36
                            x       y       z     vdW  Elec       q    Type
                         _______ _______ _______ _____ _____    ______ ____

>  <TORSDO>
F 11

$$$$
=
 OpenBabel10222420483D

 39 43  0  0  1  0  0  0  0  0999 V2000
  183.3370  176.7260  136.8350 N   0  0  0  0  0  2  0  0  0  0  0  0
  185.0860  177.2210  138.4850 C   0  0  0  0  0  2  0  0  0  0  0  0
  184.3380  179.4390  139.5630 C   0  0  2  0  0  3  0  0  0  0  0  0
  180.9960  176.1230  137.4930 C   0  0  2  0  0  3  0  0  0  0  0  0
  181.9950  176.4380  136.4340 C   0  0  0  0  0  0  0  0  0  0  0  0
  181.1260  177.0970  138.6660 C   0  0  2  0  0  3  0  0  0  0  0  0
  182.8480  177.5200  140.4270 O   0  0  0  0  0  0  0  0  0  0  0  0
  183.6780  176.6610  138.2480 C   0  0  1  0  0  3  0  0  0  0  0  0
  183.3150  180.1580  138.9790 F   0  0  0  0  0  0  0  0  0  0  0  0
  182.6020  177.4370  139.0350 C   0  0  1  0  0  3  0  0  0  0  0  0
  185.1790  178.7420  138.4810 C   0  0  0  0  0  2  0  0  0  0  0  0
  183.8270  178.5320  140.7380 C   0  0  2  0  0  3  0  0  0  0  0  0
  181.6660  176.5400  135.2320 O   0  0  0  0  0  0  0  0  0  0  0  0
  185.5160  178.8240  143.5350 C   0  0  2  0  0  3  0  0  0  0  0  0
  182.4250  178.5950  142.8850 C   0  0  0  0  0  2  0  0  0  0  0  0
  184.4420  179.2730  144.2990 C   0  0  1  0  0  3  0  0  0  0  0  0
  184.3900  179.4900  142.9360 C   0  0  2  0  0  3  0  0  0  0  0  0
  183.1860  178.3880  144.2610 C   0  0  0  0  0  2  0  0  0  0  0  0
  183.3640  179.3790  141.9460 C   0  0  1  0  0  3  0  0  0  0  0  0
  186.6740  177.9450  143.3610 C   0  0  0  0  0  0  0  0  0  0  0  0
  187.3460  177.8240  142.2510 N   0  0  0  0  0  0  0  0  0  0  0  0
  188.1870  176.4940  143.9230 C   0  0  0  0  0  3  0  0  0  0  0  0
  187.1650  177.1150  144.3970 N   0  0  0  0  0  0  0  0  0  0  0  0
  188.4430  176.8940  142.5090 C   0  0  2  0  0  3  0  0  0  0  0  0
  190.4640  177.4920  141.4200 O   0  0  0  0  0  0  0  0  0  0  0  0
  189.7690  177.6120  142.4280 C   0  0  0  0  0  0  0  0  0  0  0  0
  190.2750  178.3990  143.5990 C   0  0  0  0  0  2  0  0  0  0  0  0
  191.6900  177.9670  143.9190 C   0  0  0  0  0  2  0  0  0  0  0  0
  191.6680  176.6460  144.5100 N   0  0  0  0  0  2  0  0  0  0  0  0
  191.4320  176.8340  145.9320 C   0  0  0  0  0  1  0  0  0  0  0  0
  180.3560  176.6530  139.7660 O   0  0  0  0  0  0  0  0  0  0  0  0
  179.1830  177.4240  139.8000 C   0  0  0  0  0  2  0  0  0  0  0  0
  179.4650  178.7080  140.5630 C   0  0  0  0  0  1  0  0  0  0  0  0
  181.1850  174.7440  137.9280 N   0  0  0  0  0  2  0  0  0  0  0  0
  179.5840  172.9320  138.3130 C   0  0  0  0  0  1  0  0  0  0  0  0
  180.2360  173.8290  137.2610 C   0  0  1  0  0  0  0  0  0  0  0  0
  179.2200  174.5330  136.5710 O   0  0  0  0  0  1  0  0  0  0  0  0
  180.9710  173.0210  136.2950 N   0  0  0  0  0  0  0  0  0  0  0  0
  180.6290  172.9640  135.0570 C   0  0  0  0  0  2  0  0  0  0  0  0
  1  8  1  0  0  0  0
  3  9  1  6  0  0  0
  3 12  1  0  0  0  0
  4 34  1  1  0  0  0
  4  6  1  0  0  0  0
  5  1  1  0  0  0  0
  5  4  1  0  0  0  0
  6 10  1  0  0  0  0
  6 31  1  1  0  0  0
  8  2  1  6  0  0  0
  8 10  1  0  0  0  0
 10  7  1  1  0  0  0
 11  2  1  0  0  0  0
 11  3  1  0  0  0  0
 12  7  1  6  0  0  0
 12 19  1  0  0  0  0
 13  5  2  0  0  0  0
 14 20  1  6  0  0  0
 14 16  1  0  0  0  0
 15 18  1  0  0  0  0
 16 18  1  6  0  0  0
 17 14  1  0  0  0  0
 17 16  1  0  0  0  0
 19 15  1  0  0  0  0
 19 17  1  0  0  0  0
 20 23  1  0  0  0  0
 21 24  1  0  0  0  0
 21 20  2  0  0  0  0
 22 23  2  0  0  0  0
 24 22  1  0  0  0  0
 25 26  2  0  0  0  0
 26 24  1  0  0  0  0
 26 27  1  0  0  0  0
 27 28  1  0  0  0  0
 28 29  1  0  0  0  0
 29 30  1  0  0  0  0
 31 32  1  0  0  0  0
 32 33  1  0  0  0  0
 36 34  1  0  0  0  0
 36 35  1  0  0  0  0
 37 36  1  0  0  0  0
 38 36  1  0  0  0  0
 39 38  2  0  0  0  0
M  END
>  <MODEL>
3

>  <REMARK>
 VINA RESULT:      -5.5      4.911      7.426
  Name = 
  11 active torsions:
  status: ('A' for Active; 'I' for Inactive)
    1  A    between atoms: N_1  and  C_21
    2  A    between atoms: C_2  and  C_3
    3  A    between atoms: C_12  and  N_31
    4  A    between atoms: C_16  and  O_28
    5  A    between atoms: N_18  and  C_33
    6  A    between atoms: C_21  and  N_31
    7  A    between atoms: C_27  and  C_36
    8  A    between atoms: O_28  and  C_32
    9  A    between atoms: C_30  and  C_35
   10  A    between atoms: C_33  and  C_34
   11  A    between atoms: C_34  and  C_36
                            x       y       z     vdW  Elec       q    Type
                         _______ _______ _______ _____ _____    ______ ____

>  <TORSDO>
F 11

$$$$
=
 OpenBabel10222420483D

 39 43  0  0  1  0  0  0  0  0999 V2000
  181.1700  179.7210  140.1100 N   0  0  0  0  0  2  0  0  0  0  0  0
  183.3520  178.6110  140.2970 C   0  0  0  0  0  2  0  0  0  0  0  0
  183.0360  176.3700  139.0650 C   0  0  2  0  0  3  0  0  0  0  0  0
  180.2630  180.5500  137.9260 C   0  0  2  0  0  3  0  0  0  0  0  0
  180.0840  180.3030  139.3840 C   0  0  0  0  0  0  0  0  0  0  0  0
  180.9200  179.3430  137.2510 C   0  0  2  0  0  3  0  0  0  0  0  0
  183.1810  178.2830  137.3420 O   0  0  0  0  0  0  0  0  0  0  0  0
  182.4100  179.4320  139.4060 C   0  0  1  0  0  3  0  0  0  0  0  0
  181.7610  175.9680  138.7190 F   0  0  0  0  0  0  0  0  0  0  0  0
  182.0560  178.6950  138.0980 C   0  0  1  0  0  3  0  0  0  0  0  0
  183.0050  177.1300  140.4010 C   0  0  0  0  0  2  0  0  0  0  0  0
  183.7740  177.0820  137.8760 C   0  0  2  0  0  3  0  0  0  0  0  0
  178.9910  180.5120  139.9540 O   0  0  0  0  0  0  0  0  0  0  0  0
  186.8120  176.1580  137.0560 C   0  0  2  0  0  3  0  0  0  0  0  0
  184.2090  176.7850  135.3660 C   0  0  0  0  0  2  0  0  0  0  0  0
  186.4780  175.6880  135.7890 C   0  0  1  0  0  3  0  0  0  0  0  0
  185.4800  175.7130  136.7450 C   0  0  2  0  0  3  0  0  0  0  0  0
  185.7190  176.6810  134.8930 C   0  0  0  0  0  2  0  0  0  0  0  0
  184.1000  176.0870  136.7370 C   0  0  1  0  0  3  0  0  0  0  0  0
  187.6860  176.9410  137.9330 C   0  0  0  0  0  0  0  0  0  0  0  0
  187.3340  178.0470  138.5250 N   0  0  0  0  0  0  0  0  0  0  0  0
  189.4980  177.4540  139.0130 C   0  0  0  0  0  3  0  0  0  0  0  0
  189.0250  176.5720  138.2040 N   0  0  0  0  0  0  0  0  0  0  0  0
  188.4670  178.4820  139.3390 C   0  0  2  0  0  3  0  0  0  0  0  0
  187.0430  178.8280  141.2040 O   0  0  0  0  0  0  0  0  0  0  0  0
  188.1240  178.3930  140.8060 C   0  0  0  0  0  0  0  0  0  0  0  0
  189.1230  177.8590  141.7860 C   0  0  0  0  0  2  0  0  0  0  0  0
  188.4250  177.5380  143.0900 C   0  0  0  0  0  2  0  0  0  0  0  0
  188.8800  176.2530  143.5770 N   0  0  0  0  0  2  0  0  0  0  0  0
  190.0720  175.9220  142.8150 C   0  0  0  0  0  1  0  0  0  0  0  0
  181.3130  179.6660  135.9310 O   0  0  0  0  0  0  0  0  0  0  0  0
  180.3790  179.0860  135.0580 C   0  0  0  0  0  2  0  0  0  0  0  0
  180.1520  177.6420  135.4760 C   0  0  0  0  0  1  0  0  0  0  0  0
  181.0610  181.7560  137.7430 N   0  0  0  0  0  2  0  0  0  0  0  0
  179.0910  182.3490  136.4150 C   0  0  0  0  0  1  0  0  0  0  0  0
  180.2350  182.8880  137.2730 C   0  0  1  0  0  0  0  0  0  0  0  0
  179.6880  183.6250  138.3510 O   0  0  0  0  0  1  0  0  0  0  0  0
  181.0770  183.7820  136.4860 N   0  0  0  0  0  0  0  0  0  0  0  0
  180.8170  185.0360  136.3750 C   0  0  0  0  0  2  0  0  0  0  0  0
  2 11  1  0  0  0  0
  3  9  1  6  0  0  0
  3 11  1  0  0  0  0
  4 34  1  1  0  0  0
  4  5  1  0  0  0  0
  5 13  2  0  0  0  0
  5  1  1  0  0  0  0
  6 31  1  6  0  0  0
  6  4  1  0  0  0  0
  6 10  1  0  0  0  0
  8  1  1  0  0  0  0
  8  2  1  1  0  0  0
 10  7  1  6  0  0  0
 10  8  1  0  0  0  0
 12  7  1  6  0  0  0
 12  3  1  0  0  0  0
 14 20  1  6  0  0  0
 15 19  1  0  0  0  0
 16 18  1  6  0  0  0
 16 17  1  0  0  0  0
 16 14  1  0  0  0  0
 17 14  1  0  0  0  0
 18 15  1  0  0  0  0
 19 17  1  0  0  0  0
 19 12  1  0  0  0  0
 20 23  1  0  0  0  0
 20 21  2  0  0  0  0
 21 24  1  0  0  0  0
 22 24  1  0  0  0  0
 23 22  2  0  0  0  0
 24 26  1  0  0  0  0
 26 25  2  0  0  0  0
 26 27  1  0  0  0  0
 27 28  1  0  0  0  0
 28 29  1  0  0  0  0
 30 29  1  0  0  0  0
 32 33  1  0  0  0  0
 32 31  1  0  0  0  0
 35 36  1  0  0  0  0
 36 34  1  0  0  0  0
 36 37  1  0  0  0  0
 38 36  1  0  0  0  0
 39 38  2  0  0  0  0
M  END
>  <MODEL>
4

>  <REMARK>
 VINA RESULT:      -5.5      5.663      9.304
  Name = 
  11 active torsions:
  status: ('A' for Active; 'I' for Inactive)
    1  A    between atoms: N_1  and  C_21
    2  A    between atoms: C_2  and  C_3
    3  A    between atoms: C_12  and  N_31
    4  A    between atoms: C_16  and  O_28
    5  A    between atoms: N_18  and  C_33
    6  A    between atoms: C_21  and  N_31
    7  A    between atoms: C_27  and  C_36
    8  A    between atoms: O_28  and  C_32
    9  A    between atoms: C_30  and  C_35
   10  A    between atoms: C_33  and  C_34
   11  A    between atoms: C_34  and  C_36
                            x       y       z     vdW  Elec       q    Type
                         _______ _______ _______ _____ _____    ______ ____

>  <TORSDO>
F 11

$$$$
=
 OpenBabel10222420483D

 39 43  0  0  1  0  0  0  0  0999 V2000
  187.1610  178.2540  139.4830 N   0  0  0  0  0  2  0  0  0  0  0  0
  186.9460  177.0050  137.3800 C   0  0  0  0  0  2  0  0  0  0  0  0
  188.8930  177.8630  135.9260 C   0  0  2  0  0  3  0  0  0  0  0  0
  189.0730  177.9080  141.0660 C   0  0  2  0  0  3  0  0  0  0  0  0
  187.8430  178.6510  140.6760 C   0  0  0  0  0  0  0  0  0  0  0  0
  189.9750  177.6800  139.8500 C   0  0  2  0  0  3  0  0  0  0  0  0
  189.8170  176.3120  137.7660 O   0  0  0  0  0  0  0  0  0  0  0  0
  187.6730  177.1210  138.7260 C   0  0  1  0  0  3  0  0  0  0  0  0
  189.5880  178.9860  136.3280 F   0  0  0  0  0  0  0  0  0  0  0  0
  189.1940  177.3100  138.5530 C   0  0  1  0  0  3  0  0  0  0  0  0
  187.4110  177.9920  136.3150 C   0  0  0  0  0  2  0  0  0  0  0  0
  189.6130  176.5370  136.3560 C   0  0  2  0  0  3  0  0  0  0  0  0
  187.4540  179.6540  141.3140 O   0  0  0  0  0  0  0  0  0  0  0  0
  190.5440  173.6880  135.0230 C   0  0  2  0  0  3  0  0  0  0  0  0
  192.1150  175.9980  136.5130 C   0  0  0  0  0  2  0  0  0  0  0  0
  191.8900  174.0210  134.9100 C   0  0  1  0  0  3  0  0  0  0  0  0
  190.9770  175.0580  134.9370 C   0  0  2  0  0  3  0  0  0  0  0  0
  192.5640  174.5090  136.2030 C   0  0  0  0  0  2  0  0  0  0  0  0
  190.9350  176.3340  135.5790 C   0  0  1  0  0  3  0  0  0  0  0  0
  189.4950  172.7400  135.4070 C   0  0  0  0  0  0  0  0  0  0  0  0
  188.8160  172.8040  136.5170 N   0  0  0  0  0  0  0  0  0  0  0  0
  188.1810  171.0240  135.2140 C   0  0  0  0  0  3  0  0  0  0  0  0
  189.1330  171.6350  134.6010 N   0  0  0  0  0  0  0  0  0  0  0  0
  187.8440  171.7130  136.4940 C   0  0  2  0  0  3  0  0  0  0  0  0
  185.6420  171.7660  135.6130 O   0  0  0  0  0  0  0  0  0  0  0  0
  186.4410  172.2630  136.4070 C   0  0  0  0  0  0  0  0  0  0  0  0
  186.0450  173.4580  137.2190 C   0  0  0  0  0  2  0  0  0  0  0  0
  184.5860  173.3440  137.6020 C   0  0  0  0  0  2  0  0  0  0  0  0
  183.9380  174.6250  137.4190 N   0  0  0  0  0  2  0  0  0  0  0  0
  183.4550  174.6510  136.0490 C   0  0  0  0  0  1  0  0  0  0  0  0
  191.0110  176.7710  140.1650 O   0  0  0  0  0  0  0  0  0  0  0  0
  192.1070  177.5210  140.6210 C   0  0  0  0  0  2  0  0  0  0  0  0
  193.3220  177.1720  139.7750 C   0  0  0  0  0  1  0  0  0  0  0  0
  188.6880  176.6440  141.6810 N   0  0  0  0  0  2  0  0  0  0  0  0
  189.6540  177.9480  143.5140 C   0  0  0  0  0  1  0  0  0  0  0  0
  189.0660  176.5970  143.1090 C   0  0  1  0  0  0  0  0  0  0  0  0
  187.9550  176.3170  143.9400 O   0  0  0  0  0  1  0  0  0  0  0  0
  190.0550  175.5410  143.2940 N   0  0  0  0  0  0  0  0  0  0  0  0
  191.2780  175.8010  143.5950 C   0  0  0  0  0  2  0  0  0  0  0  0
  1  5  1  0  0  0  0
  3 11  1  0  0  0  0
  3  9  1  1  0  0  0
  3 12  1  0  0  0  0
  4 34  1  6  0  0  0
  5  4  1  0  0  0  0
  5 13  2  0  0  0  0
  6 31  1  1  0  0  0
  6  4  1  0  0  0  0
  8  2  1  6  0  0  0
  8  1  1  0  0  0  0
 10  7  1  1  0  0  0
 10  8  1  0  0  0  0
 10  6  1  0  0  0  0
 11  2  1  0  0  0  0
 12  7  1  1  0  0  0
 14 20  1  1  0  0  0
 16 17  1  0  0  0  0
 16 14  1  0  0  0  0
 16 18  1  1  0  0  0
 17 14  1  0  0  0  0
 17 19  1  0  0  0  0
 18 15  1  0  0  0  0
 19 12  1  0  0  0  0
 19 15  1  0  0  0  0
 20 21  2  0  0  0  0
 22 24  1  0  0  0  0
 23 22  2  0  0  0  0
 23 20  1  0  0  0  0
 24 21  1  0  0  0  0
 25 26  2  0  0  0  0
 26 24  1  0  0  0  0
 26 27  1  0  0  0  0
 27 28  1  0  0  0  0
 29 28  1  0  0  0  0
 30 29  1  0  0  0  0
 31 32  1  0  0  0  0
 33 32  1  0  0  0  0
 34 36  1  0  0  0  0
 36 38  1  0  0  0  0
 36 35  1  0  0  0  0
 36 37  1  0  0  0  0
 38 39  2  0  0  0  0
M  END
>  <MODEL>
5

>  <REMARK>
 VINA RESULT:      -5.5      3.344      8.853
  Name = 
  11 active torsions:
  status: ('A' for Active; 'I' for Inactive)
    1  A    between atoms: N_1  and  C_21
    2  A    between atoms: C_2  and  C_3
    3  A    between atoms: C_12  and  N_31
    4  A    between atoms: C_16  and  O_28
    5  A    between atoms: N_18  and  C_33
    6  A    between atoms: C_21  and  N_31
    7  A    between atoms: C_27  and  C_36
    8  A    between atoms: O_28  and  C_32
    9  A    between atoms: C_30  and  C_35
   10  A    between atoms: C_33  and  C_34
   11  A    between atoms: C_34  and  C_36
                            x       y       z     vdW  Elec       q    Type
                         _______ _______ _______ _____ _____    ______ ____

>  <TORSDO>
F 11

$$$$
=
 OpenBabel10222420483D

 39 43  0  0  1  0  0  0  0  0999 V2000
  184.0110  172.8040  137.2760 N   0  0  0  0  0  2  0  0  0  0  0  0
  186.3580  173.1540  137.9080 C   0  0  0  0  0  2  0  0  0  0  0  0
  187.4470  174.1510  135.7950 C   0  0  2  0  0  3  0  0  0  0  0  0
  182.4390  174.7030  136.8310 C   0  0  2  0  0  3  0  0  0  0  0  0
  182.7190  173.2400  136.8470 C   0  0  0  0  0  0  0  0  0  0  0  0
  183.6150  175.4720  136.2240 C   0  0  2  0  0  3  0  0  0  0  0  0
  185.9680  175.9380  136.9230 O   0  0  0  0  0  0  0  0  0  0  0  0
  184.9800  173.7990  137.7120 C   0  0  1  0  0  3  0  0  0  0  0  0
  186.7490  174.1250  134.6040 F   0  0  0  0  0  0  0  0  0  0  0  0
  185.0090  174.9290  136.6630 C   0  0  1  0  0  3  0  0  0  0  0  0
  187.1310  172.8920  136.6200 C   0  0  0  0  0  2  0  0  0  0  0  0
  187.2960  175.5260  136.5380 C   0  0  2  0  0  3  0  0  0  0  0  0
  181.8890  172.4100  136.4180 O   0  0  0  0  0  0  0  0  0  0  0  0
  188.9330  177.9680  137.9920 C   0  0  2  0  0  3  0  0  0  0  0  0
  187.0670  177.8310  135.4380 C   0  0  0  0  0  2  0  0  0  0  0  0
  188.9240  178.8170  136.8900 C   0  0  1  0  0  3  0  0  0  0  0  0
  188.8150  177.4610  136.6510 C   0  0  2  0  0  3  0  0  0  0  0  0
  187.5410  179.0910  136.2750 C   0  0  0  0  0  2  0  0  0  0  0  0
  188.0150  176.6630  135.7750 C   0  0  1  0  0  3  0  0  0  0  0  0
  188.7360  177.7420  139.4260 C   0  0  0  0  0  0  0  0  0  0  0  0
  189.4180  176.8880  140.1370 N   0  0  0  0  0  0  0  0  0  0  0  0
  187.8590  178.0130  141.3930 C   0  0  0  0  0  3  0  0  0  0  0  0
  187.7540  178.4290  140.1790 N   0  0  0  0  0  0  0  0  0  0  0  0
  188.9510  177.0050  141.5170 C   0  0  2  0  0  3  0  0  0  0  0  0
  191.2220  177.4140  142.0660 O   0  0  0  0  0  0  0  0  0  0  0  0
  190.0450  177.5630  142.3950 C   0  0  0  0  0  0  0  0  0  0  0  0
  189.7080  178.2210  143.6980 C   0  0  0  0  0  2  0  0  0  0  0  0
  189.4720  177.1580  144.7500 C   0  0  0  0  0  2  0  0  0  0  0  0
  188.4830  177.6280  145.6960 N   0  0  0  0  0  2  0  0  0  0  0  0
  187.1990  177.5600  145.0190 C   0  0  0  0  0  1  0  0  0  0  0  0
  183.4590  176.8620  136.4310 O   0  0  0  0  0  0  0  0  0  0  0  0
  182.8390  177.3930  135.2890 C   0  0  0  0  0  2  0  0  0  0  0  0
  181.7220  178.3260  135.7300 C   0  0  0  0  0  1  0  0  0  0  0  0
  182.1620  175.1490  138.1910 N   0  0  0  0  0  2  0  0  0  0  0  0
  179.9990  175.5500  137.1170 C   0  0  0  0  0  1  0  0  0  0  0  0
  180.7110  175.2680  138.4390 C   0  0  1  0  0  0  0  0  0  0  0  0
  180.1730  174.0850  139.0020 O   0  0  0  0  0  1  0  0  0  0  0  0
  180.4880  176.3640  139.3760 N   0  0  0  0  0  0  0  0  0  0  0  0
  181.3250  177.3310  139.5010 C   0  0  0  0  0  2  0  0  0  0  0  0
  1  8  1  0  0  0  0
  3  9  1  6  0  0  0
  3 12  1  0  0  0  0
  3 11  1  0  0  0  0
  4  5  1  0  0  0  0
  4 34  1  1  0  0  0
  5  1  1  0  0  0  0
  6 31  1  1  0  0  0
  6 10  1  0  0  0  0
  6  4  1  0  0  0  0
  8  2  1  6  0  0  0
 10  7  1  1  0  0  0
 10  8  1  0  0  0  0
 11  2  1  0  0  0  0
 12  7  1  6  0  0  0
 13  5  2  0  0  0  0
 14 20  1  1  0  0  0
 15 19  1  0  0  0  0
 15 18  1  0  0  0  0
 16 18  1  1  0  0  0
 16 14  1  0  0  0  0
 17 16  1  0  0  0  0
 17 14  1  0  0  0  0
 19 12  1  0  0  0  0
 19 17  1  0  0  0  0
 20 21  2  0  0  0  0
 20 23  1  0  0  0  0
 21 24  1  0  0  0  0
 22 24  1  0  0  0  0
 23 22  2  0  0  0  0
 24 26  1  0  0  0  0
 25 26  2  0  0  0  0
 26 27  1  0  0  0  0
 27 28  1  0  0  0  0
 28 29  1  0  0  0  0
 30 29  1  0  0  0  0
 32 33  1  0  0  0  0
 32 31  1  0  0  0  0
 34 36  1  0  0  0  0
 35 36  1  0  0  0  0
 36 37  1  0  0  0  0
 36 38  1  0  0  0  0
 38 39  2  0  0  0  0
M  END
>  <MODEL>
6

>  <REMARK>
 VINA RESULT:      -5.5      4.787      7.881
  Name = 
  11 active torsions:
  status: ('A' for Active; 'I' for Inactive)
    1  A    between atoms: N_1  and  C_21
    2  A    between atoms: C_2  and  C_3
    3  A    between atoms: C_12  and  N_31
    4  A    between atoms: C_16  and  O_28
    5  A    between atoms: N_18  and  C_33
    6  A    between atoms: C_21  and  N_31
    7  A    between atoms: C_27  and  C_36
    8  A    between atoms: O_28  and  C_32
    9  A    between atoms: C_30  and  C_35
   10  A    between atoms: C_33  and  C_34
   11  A    between atoms: C_34  and  C_36
                            x       y       z     vdW  Elec       q    Type
                         _______ _______ _______ _____ _____    ______ ____

>  <TORSDO>
F 11

$$$$
=
 OpenBabel10222420483D

 39 43  0  0  1  0  0  0  0  0999 V2000
  186.2500  178.8700  137.9160 N   0  0  0  0  0  2  0  0  0  0  0  0
  184.5620  178.9530  139.6970 C   0  0  0  0  0  2  0  0  0  0  0  0
  182.3100  178.8660  138.4460 C   0  0  2  0  0  3  0  0  0  0  0  0
  186.6170  176.8350  136.5010 C   0  0  2  0  0  3  0  0  0  0  0  0
  186.9190  178.2610  136.8090 C   0  0  0  0  0  0  0  0  0  0  0  0
  185.1100  176.5750  136.5710 C   0  0  2  0  0  3  0  0  0  0  0  0
  183.4080  176.5340  138.3990 O   0  0  0  0  0  0  0  0  0  0  0  0
  185.3390  178.0660  138.7160 C   0  0  1  0  0  3  0  0  0  0  0  0
  182.2960  179.0400  137.0770 F   0  0  0  0  0  0  0  0  0  0  0  0
  184.4040  177.3050  137.7520 C   0  0  1  0  0  3  0  0  0  0  0  0
  183.4100  179.7360  139.0770 C   0  0  0  0  0  2  0  0  0  0  0  0
  182.3070  177.3490  138.8490 C   0  0  2  0  0  3  0  0  0  0  0  0
  187.6660  178.9450  136.0760 O   0  0  0  0  0  0  0  0  0  0  0  0
  179.6200  177.5390  140.7210 C   0  0  2  0  0  3  0  0  0  0  0  0
  180.8930  175.2140  138.9890 C   0  0  0  0  0  2  0  0  0  0  0  0
  178.9790  176.4400  140.1560 C   0  0  1  0  0  3  0  0  0  0  0  0
  179.9160  177.0990  139.3830 C   0  0  2  0  0  3  0  0  0  0  0  0
  179.7950  175.1370  140.1310 C   0  0  0  0  0  2  0  0  0  0  0  0
  180.9580  176.6750  138.5010 C   0  0  1  0  0  3  0  0  0  0  0  0
  180.0440  178.2970  141.9000 C   0  0  0  0  0  0  0  0  0  0  0  0
  180.5030  177.7600  142.9950 N   0  0  0  0  0  0  0  0  0  0  0  0
  180.4330  180.0520  143.1180 C   0  0  0  0  0  3  0  0  0  0  0  0
  179.9730  179.7090  141.9660 N   0  0  0  0  0  0  0  0  0  0  0  0
  180.8550  178.8530  143.8990 C   0  0  2  0  0  3  0  0  0  0  0  0
  182.7960  179.1130  145.2370 O   0  0  0  0  0  0  0  0  0  0  0  0
  182.3490  178.8980  144.1100 C   0  0  0  0  0  0  0  0  0  0  0  0
  183.2820  178.7670  142.9450 C   0  0  0  0  0  2  0  0  0  0  0  0
  184.6920  179.0840  143.3930 C   0  0  0  0  0  2  0  0  0  0  0  0
  185.5100  177.8940  143.2870 N   0  0  0  0  0  2  0  0  0  0  0  0
  186.7460  178.2990  142.6390 C   0  0  0  0  0  1  0  0  0  0  0  0
  184.8440  175.1870  136.5240 O   0  0  0  0  0  0  0  0  0  0  0  0
  184.5590  174.8560  135.1900 C   0  0  0  0  0  2  0  0  0  0  0  0
  183.0800  174.5240  135.0750 C   0  0  0  0  0  1  0  0  0  0  0  0
  187.3430  175.9840  137.4350 N   0  0  0  0  0  2  0  0  0  0  0  0
  188.1800  173.7590  136.8510 C   0  0  0  0  0  1  0  0  0  0  0  0
  188.4460  175.2620  136.7690 C   0  0  1  0  0  0  0  0  0  0  0  0
  188.5690  175.6270  135.4060 O   0  0  0  0  0  1  0  0  0  0  0  0
  189.6950  175.5910  137.4460 N   0  0  0  0  0  0  0  0  0  0  0  0
  190.2840  176.7200  137.2720 C   0  0  0  0  0  2  0  0  0  0  0  0
  1  8  1  0  0  0  0
  3  9  1  6  0  0  0
  3 12  1  0  0  0  0
  3 11  1  0  0  0  0
  4  6  1  0  0  0  0
  4  5  1  0  0  0  0
  4 34  1  1  0  0  0
  5  1  1  0  0  0  0
  6 31  1  1  0  0  0
  6 10  1  0  0  0  0
  8  2  1  1  0  0  0
 10  7  1  1  0  0  0
 10  8  1  0  0  0  0
 11  2  1  0  0  0  0
 12  7  1  6  0  0  0
 13  5  2  0  0  0  0
 14 20  1  1  0  0  0
 15 18  1  0  0  0  0
 16 18  1  1  0  0  0
 16 14  1  0  0  0  0
 17 16  1  0  0  0  0
 17 14  1  0  0  0  0
 19 12  1  0  0  0  0
 19 15  1  0  0  0  0
 19 17  1  0  0  0  0
 20 23  1  0  0  0  0
 20 21  2  0  0  0  0
 21 24  1  0  0  0  0
 22 24  1  0  0  0  0
 23 22  2  0  0  0  0
 24 26  1  0  0  0  0
 26 25  2  0  0  0  0
 27 28  1  0  0  0  0
 27 26  1  0  0  0  0
 29 28  1  0  0  0  0
 30 29  1  0  0  0  0
 32 31  1  0  0  0  0
 33 32  1  0  0  0  0
 36 35  1  0  0  0  0
 36 34  1  0  0  0  0
 36 38  1  0  0  0  0
 37 36  1  0  0  0  0
 39 38  2  0  0  0  0
M  END
>  <MODEL>
7

>  <REMARK>
 VINA RESULT:      -5.3      4.064      6.010
  Name = 
  11 active torsions:
  status: ('A' for Active; 'I' for Inactive)
    1  A    between atoms: N_1  and  C_21
    2  A    between atoms: C_2  and  C_3
    3  A    between atoms: C_12  and  N_31
    4  A    between atoms: C_16  and  O_28
    5  A    between atoms: N_18  and  C_33
    6  A    between atoms: C_21  and  N_31
    7  A    between atoms: C_27  and  C_36
    8  A    between atoms: O_28  and  C_32
    9  A    between atoms: C_30  and  C_35
   10  A    between atoms: C_33  and  C_34
   11  A    between atoms: C_34  and  C_36
                            x       y       z     vdW  Elec       q    Type
                         _______ _______ _______ _____ _____    ______ ____

>  <TORSDO>
F 11

$$$$
=
 OpenBabel10222420483D

 39 43  0  0  1  0  0  0  0  0999 V2000
  183.7900  178.7530  139.8590 N   0  0  0  0  0  2  0  0  0  0  0  0
  185.5770  177.9260  141.3260 C   0  0  0  0  0  2  0  0  0  0  0  0
  185.7130  179.6740  143.2140 C   0  0  2  0  0  3  0  0  0  0  0  0
  181.3880  178.8170  140.5670 C   0  0  2  0  0  3  0  0  0  0  0  0
  182.4440  179.1360  139.5660 C   0  0  0  0  0  0  0  0  0  0  0  0
  181.8640  179.1550  141.9810 C   0  0  2  0  0  3  0  0  0  0  0  0
  183.5970  178.2350  143.5280 O   0  0  0  0  0  0  0  0  0  0  0  0
  184.0640  178.0380  141.0960 C   0  0  1  0  0  3  0  0  0  0  0  0
  185.0460  180.8730  143.0680 F   0  0  0  0  0  0  0  0  0  0  0  0
  183.3540  178.7820  142.2450 C   0  0  1  0  0  3  0  0  0  0  0  0
  186.2400  179.1940  141.8520 C   0  0  0  0  0  2  0  0  0  0  0  0
  184.8830  178.6330  144.0450 C   0  0  2  0  0  3  0  0  0  0  0  0
  182.1910  179.7970  138.5360 O   0  0  0  0  0  0  0  0  0  0  0  0
  187.3110  178.3820  146.2370 C   0  0  2  0  0  3  0  0  0  0  0  0
  184.1800  177.9400  146.4120 C   0  0  0  0  0  2  0  0  0  0  0  0
  186.4940  178.4690  147.3600 C   0  0  1  0  0  3  0  0  0  0  0  0
  186.0290  179.0340  146.1880 C   0  0  2  0  0  3  0  0  0  0  0  0
  185.3240  177.4730  147.4070 C   0  0  0  0  0  2  0  0  0  0  0  0
  184.7610  179.0600  145.5270 C   0  0  1  0  0  3  0  0  0  0  0  0
  188.4040  177.7370  145.5050 C   0  0  0  0  0  0  0  0  0  0  0  0
  188.4210  177.5590  144.2140 N   0  0  0  0  0  0  0  0  0  0  0  0
  190.3130  176.7430  145.2270 C   0  0  0  0  0  3  0  0  0  0  0  0
  189.5520  177.2190  146.1490 N   0  0  0  0  0  0  0  0  0  0  0  0
  189.6970  176.9300  143.8810 C   0  0  2  0  0  3  0  0  0  0  0  0
  190.8450  178.9770  143.5350 O   0  0  0  0  0  0  0  0  0  0  0  0
  190.5520  177.8750  143.0710 C   0  0  0  0  0  0  0  0  0  0  0  0
  190.9700  177.5120  141.6790 C   0  0  0  0  0  2  0  0  0  0  0  0
  189.7410  177.2030  140.8500 C   0  0  0  0  0  2  0  0  0  0  0  0
  189.9130  177.7390  139.5170 N   0  0  0  0  0  2  0  0  0  0  0  0
  188.5990  178.1690  139.0720 C   0  0  0  0  0  1  0  0  0  0  0  0
  180.9710  178.6300  142.9440 O   0  0  0  0  0  0  0  0  0  0  0  0
  179.8890  179.5190  143.0460 C   0  0  0  0  0  2  0  0  0  0  0  0
  179.1490  179.2390  144.3450 C   0  0  0  0  0  1  0  0  0  0  0  0
  181.0340  177.4070  140.4520 N   0  0  0  0  0  2  0  0  0  0  0  0
  178.9310  176.1630  140.6050 C   0  0  0  0  0  1  0  0  0  0  0  0
  179.7060  177.2280  139.8300 C   0  0  1  0  0  0  0  0  0  0  0  0
  178.9560  178.4290  139.8330 O   0  0  0  0  0  1  0  0  0  0  0  0
  179.8940  176.8080  138.4460 N   0  0  0  0  0  0  0  0  0  0  0  0
  179.0000  177.0170  137.5460 C   0  0  0  0  0  2  0  0  0  0  0  0
  1  8  1  0  0  0  0
  2 11  1  0  0  0  0
  3  9  1  6  0  0  0
  3 12  1  0  0  0  0
  4 34  1  1  0  0  0
  4  6  1  0  0  0  0
  5  1  1  0  0  0  0
  5  4  1  0  0  0  0
  6 10  1  0  0  0  0
  6 31  1  1  0  0  0
  8  2  1  1  0  0  0
  8 10  1  0  0  0  0
 10  7  1  1  0  0  0
 11  3  1  0  0  0  0
 12  7  1  6  0  0  0
 12 19  1  0  0  0  0
 13  5  2  0  0  0  0
 14 20  1  6  0  0  0
 14 16  1  0  0  0  0
 15 18  1  0  0  0  0
 16 18  1  6  0  0  0
 17 14  1  0  0  0  0
 17 16  1  0  0  0  0
 19 17  1  0  0  0  0
 19 15  1  0  0  0  0
 20 23  1  0  0  0  0
 21 20  2  0  0  0  0
 22 23  2  0  0  0  0
 24 21  1  0  0  0  0
 24 22  1  0  0  0  0
 26 25  2  0  0  0  0
 26 24  1  0  0  0  0
 27 26  1  0  0  0  0
 28 27  1  0  0  0  0
 29 28  1  0  0  0  0
 30 29  1  0  0  0  0
 31 32  1  0  0  0  0
 32 33  1  0  0  0  0
 36 37  1  0  0  0  0
 36 34  1  0  0  0  0
 36 35  1  0  0  0  0
 38 36  1  0  0  0  0
 39 38  2  0  0  0  0
M  END
>  <MODEL>
8

>  <REMARK>
 VINA RESULT:      -5.2      3.996      8.025
  Name = 
  11 active torsions:
  status: ('A' for Active; 'I' for Inactive)
    1  A    between atoms: N_1  and  C_21
    2  A    between atoms: C_2  and  C_3
    3  A    between atoms: C_12  and  N_31
    4  A    between atoms: C_16  and  O_28
    5  A    between atoms: N_18  and  C_33
    6  A    between atoms: C_21  and  N_31
    7  A    between atoms: C_27  and  C_36
    8  A    between atoms: O_28  and  C_32
    9  A    between atoms: C_30  and  C_35
   10  A    between atoms: C_33  and  C_34
   11  A    between atoms: C_34  and  C_36
                            x       y       z     vdW  Elec       q    Type
                         _______ _______ _______ _____ _____    ______ ____

>  <TORSDO>
F 11

$$$$
=
 OpenBabel10222420483D

 39 43  0  0  1  0  0  0  0  0999 V2000
  192.5770  176.7660  137.1830 N   0  0  0  0  0  2  0  0  0  0  0  0
  190.2380  176.8460  137.9250 C   0  0  0  0  0  2  0  0  0  0  0  0
  188.8970  175.9760  135.9030 C   0  0  2  0  0  3  0  0  0  0  0  0
  193.7810  174.6100  136.7560 C   0  0  2  0  0  3  0  0  0  0  0  0
  193.7550  176.0990  136.7210 C   0  0  0  0  0  0  0  0  0  0  0  0
  192.4640  174.0340  136.2320 C   0  0  2  0  0  3  0  0  0  0  0  0
  190.1020  174.0040  137.0460 O   0  0  0  0  0  0  0  0  0  0  0  0
  191.4760  175.9680  137.7010 C   0  0  1  0  0  3  0  0  0  0  0  0
  189.5310  175.8400  134.6850 F   0  0  0  0  0  0  0  0  0  0  0  0
  191.2050  174.8230  136.7030 C   0  0  1  0  0  3  0  0  0  0  0  0
  189.4610  177.1910  136.6590 C   0  0  0  0  0  2  0  0  0  0  0  0
  188.8470  174.6240  136.6980 C   0  0  2  0  0  3  0  0  0  0  0  0
  194.6930  176.7590  136.2220 O   0  0  0  0  0  0  0  0  0  0  0  0
  185.6020  175.0060  136.4140 C   0  0  2  0  0  3  0  0  0  0  0  0
  187.4450  172.4960  136.9840 C   0  0  0  0  0  2  0  0  0  0  0  0
  185.3250  173.6650  136.1670 C   0  0  1  0  0  3  0  0  0  0  0  0
  186.5890  174.1230  135.8520 C   0  0  2  0  0  3  0  0  0  0  0  0
  185.8830  172.6720  137.2000 C   0  0  0  0  0  2  0  0  0  0  0  0
  187.9100  173.6000  136.0150 C   0  0  1  0  0  3  0  0  0  0  0  0
  185.3140  176.2560  137.1210 C   0  0  0  0  0  0  0  0  0  0  0  0
  184.1240  176.7710  137.2510 N   0  0  0  0  0  0  0  0  0  0  0  0
  185.7380  178.0510  138.2660 C   0  0  0  0  0  3  0  0  0  0  0  0
  186.3250  177.0440  137.7210 N   0  0  0  0  0  0  0  0  0  0  0  0
  184.2620  177.9820  138.0580 C   0  0  2  0  0  3  0  0  0  0  0  0
  182.8580  176.8240  139.5790 O   0  0  0  0  0  0  0  0  0  0  0  0
  183.5810  177.8030  139.3930 C   0  0  0  0  0  0  0  0  0  0  0  0
  183.7120  178.8510  140.4560 C   0  0  0  0  0  2  0  0  0  0  0  0
  184.6990  178.3820  141.5040 C   0  0  0  0  0  2  0  0  0  0  0  0
  185.7370  179.3770  141.6670 N   0  0  0  0  0  2  0  0  0  0  0  0
  186.9930  178.6520  141.7520 C   0  0  0  0  0  1  0  0  0  0  0  0
  192.3920  172.6460  136.4920 O   0  0  0  0  0  0  0  0  0  0  0  0
  193.0630  171.9850  135.4520 C   0  0  0  0  0  2  0  0  0  0  0  0
  193.6690  170.7020  135.9990 C   0  0  0  0  0  1  0  0  0  0  0  0
  194.0430  174.1720  138.1210 N   0  0  0  0  0  2  0  0  0  0  0  0
  196.1760  174.5090  139.2760 C   0  0  0  0  0  1  0  0  0  0  0  0
  195.4150  173.6450  138.2700 C   0  0  1  0  0  0  0  0  0  0  0  0
  195.4180  172.3050  138.7290 O   0  0  0  0  0  1  0  0  0  0  0  0
  196.0730  173.6870  136.9700 N   0  0  0  0  0  0  0  0  0  0  0  0
  196.7840  172.7070  136.5370 C   0  0  0  0  0  2  0  0  0  0  0  0
  1  8  1  0  0  0  0
  3  9  1  6  0  0  0
  3 11  1  0  0  0  0
  3 12  1  0  0  0  0
  4 34  1  1  0  0  0
  5  4  1  0  0  0  0
  5  1  1  0  0  0  0
  6 31  1  1  0  0  0
  6 10  1  0  0  0  0
  6  4  1  0  0  0  0
  8  2  1  6  0  0  0
 10  7  1  1  0  0  0
 10  8  1  0  0  0  0
 11  2  1  0  0  0  0
 12  7  1  6  0  0  0
 13  5  2  0  0  0  0
 14 20  1  1  0  0  0
 15 18  1  0  0  0  0
 16 14  1  0  0  0  0
 16 18  1  1  0  0  0
 17 19  1  0  0  0  0
 17 16  1  0  0  0  0
 17 14  1  0  0  0  0
 19 12  1  0  0  0  0
 19 15  1  0  0  0  0
 20 21  2  0  0  0  0
 20 23  1  0  0  0  0
 21 24  1  0  0  0  0
 23 22  2  0  0  0  0
 24 22  1  0  0  0  0
 24 26  1  0  0  0  0
 26 25  2  0  0  0  0
 26 27  1  0  0  0  0
 27 28  1  0  0  0  0
 28 29  1  0  0  0  0
 29 30  1  0  0  0  0
 32 33  1  0  0  0  0
 32 31  1  0  0  0  0
 34 36  1  0  0  0  0
 36 37  1  0  0  0  0
 36 35  1  0  0  0  0
 38 36  1  0  0  0  0
 39 38  2  0  0  0  0
M  END
>  <MODEL>
9

>  <REMARK>
 VINA RESULT:      -5.1      4.115      6.920
  Name = 
  11 active torsions:
  status: ('A' for Active; 'I' for Inactive)
    1  A    between atoms: N_1  and  C_21
    2  A    between atoms: C_2  and  C_3
    3  A    between atoms: C_12  and  N_31
    4  A    between atoms: C_16  and  O_28
    5  A    between atoms: N_18  and  C_33
    6  A    between atoms: C_21  and  N_31
    7  A    between atoms: C_27  and  C_36
    8  A    between atoms: O_28  and  C_32
    9  A    between atoms: C_30  and  C_35
   10  A    between atoms: C_33  and  C_34
   11  A    between atoms: C_34  and  C_36
                            x       y       z     vdW  Elec       q    Type
                         _______ _______ _______ _____ _____    ______ ____

>  <TORSDO>
F 11

$$$$
