=
 OpenBabel10222416343D

 32 35  0  0  1  0  0  0  0  0999 V2000
  191.6160  176.7040  138.9850 C   0  0  0  0  0  2  0  0  0  0  0  0
  188.1980  177.6520  138.7810 N   0  0  0  0  0  0  0  0  0  0  0  0
  190.4870  175.3290  137.4370 N   0  0  0  0  0  2  0  0  0  0  0  0
  187.5770  176.1100  137.0730 O   0  0  0  0  0  0  0  0  0  0  0  0
  191.8230  175.5780  137.9920 C   0  0  1  0  0  3  0  0  0  0  0  0
  188.3860  176.4970  137.9580 C   0  0  0  0  0  0  0  0  0  0  0  0
  189.4250  177.9060  139.5600 C   0  0  2  0  0  3  0  0  0  0  0  0
  189.6740  175.9240  138.2350 C   0  0  2  0  0  3  0  0  0  0  0  0
  190.3120  176.7630  139.1680 C   0  0  1  0  0  3  0  0  0  0  0  0
  191.1400  177.4990  145.0850 C   0  0  0  0  0  1  0  0  0  0  0  0
  191.3810  177.7810  141.9970 O   0  0  0  0  0  0  0  0  0  0  0  0
  189.7080  177.5720  144.6700 C   0  0  0  0  0  0  0  0  0  0  0  0
  186.9970  177.6830  143.8340 C   0  0  0  0  0  3  0  0  0  0  0  0
  187.3150  177.5520  145.1970 C   0  0  0  0  0  0  0  0  0  0  0  0
  190.1270  177.7880  142.1080 C   0  0  0  0  0  0  0  0  0  0  0  0
  188.0430  177.7600  142.9190 C   0  0  0  0  0  0  0  0  0  0  0  0
  188.6670  177.4960  145.6190 C   0  0  0  0  0  0  0  0  0  0  0  0
  187.9240  177.8610  141.4990 N   0  0  0  0  0  0  0  0  0  0  0  0
  188.9690  177.3640  146.9720 O   0  0  0  0  0  1  0  0  0  0  0  0
  189.1360  177.8850  141.0300 C   0  0  0  0  0  0  0  0  0  0  0  0
  186.2060  177.4660  146.1890 C   0  0  0  0  0  1  0  0  0  0  0  0
  189.3540  177.7070  143.3270 C   0  0  0  0  0  0  0  0  0  0  0  0
  192.5540  175.5620  135.6100 O   0  0  0  0  0  0  0  0  0  0  0  0
  192.7740  175.9850  136.9140 C   0  0  0  0  0  0  0  0  0  0  0  0
  193.7810  176.6940  137.1800 O   0  0  0  0  0  1  0  0  0  0  0  0
  187.1600  178.6490  138.5490 C   0  0  0  0  0  2  0  0  0  0  0  0
  185.7780  178.0280  138.6900 C   0  0  0  0  0  2  0  0  0  0  0  0
  184.5460  180.0100  139.2890 O   0  0  0  0  0  1  0  0  0  0  0  0
  184.9490  178.7520  139.7440 C   0  0  1  0  0  3  0  0  0  0  0  0
  183.7340  177.9270  140.1660 C   0  0  0  0  0  2  0  0  0  0  0  0
  183.7850  178.6500  142.5550 C   0  0  0  0  0  1  0  0  0  0  0  0
  182.9420  178.5730  141.2980 C   0  0  0  0  0  2  0  0  0  0  0  0
  2  7  1  0  0  0  0
  3  5  1  0  0  0  0
  4  6  2  0  0  0  0
  5 24  1  6  0  0  0
  5  1  1  0  0  0  0
  6  8  1  0  0  0  0
  6  2  1  0  0  0  0
  7 20  1  1  0  0  0
  8  3  1  6  0  0  0
  8  9  1  0  0  0  0
  9  1  1  6  0  0  0
  9  7  1  0  0  0  0
 11 15  2  0  0  0  0
 12 10  1  0  0  0  0
 12 17  1  0  0  0  0
 13 14  1  0  0  0  0
 14 17  2  0  0  0  0
 14 21  1  0  0  0  0
 15 22  1  0  0  0  0
 16 22  1  0  0  0  0
 16 13  2  0  0  0  0
 17 19  1  0  0  0  0
 18 16  1  0  0  0  0
 20 18  2  0  0  0  0
 20 15  1  0  0  0  0
 22 12  2  0  0  0  0
 23 24  2  0  0  0  0
 24 25  1  0  0  0  0
 26 27  1  0  0  0  0
 26  2  1  0  0  0  0
 27 29  1  0  0  0  0
 29 28  1  6  0  0  0
 29 30  1  0  0  0  0
 30 32  1  0  0  0  0
 32 31  1  0  0  0  0
M  END
>  <MODEL>
1

>  <REMARK>
 VINA RESULT:      -8.2      0.000      0.000
  Name = 
  7 active torsions:
  status: ('A' for Active; 'I' for Inactive)
    1  A    between atoms: C_5  and  N_9
    2  A    between atoms: C_5  and  C_25
    3  A    between atoms: C_8  and  C_18
    4  A    between atoms: C_8  and  C_29
    5  A    between atoms: CA_19  and  C_23
    6  A    between atoms: C_22  and  C_30
    7  A    between atoms: C_25  and  C_29
                            x       y       z     vdW  Elec       q    Type
                         _______ _______ _______ _____ _____    ______ ____

>  <TORSDO>
F 7

$$$$
=
 OpenBabel10222416343D

 32 35  0  0  1  0  0  0  0  0999 V2000
  189.1190  177.8860  143.7730 C   0  0  0  0  0  2  0  0  0  0  0  0
  188.9110  177.9900  140.2280 N   0  0  0  0  0  0  0  0  0  0  0  0
  190.3620  176.1130  142.8380 N   0  0  0  0  0  2  0  0  0  0  0  0
  190.3700  176.1540  139.8040 O   0  0  0  0  0  0  0  0  0  0  0  0
  190.0280  176.7280  144.1290 C   0  0  1  0  0  3  0  0  0  0  0  0
  189.6480  176.8200  140.5930 C   0  0  0  0  0  0  0  0  0  0  0  0
  188.3420  178.6110  141.4390 C   0  0  2  0  0  3  0  0  0  0  0  0
  189.5100  176.5950  142.0050 C   0  0  2  0  0  3  0  0  0  0  0  0
  188.7560  177.6640  142.5250 C   0  0  1  0  0  3  0  0  0  0  0  0
  183.0700  178.6490  143.8550 C   0  0  0  0  0  1  0  0  0  0  0  0
  186.1750  178.6960  143.6940 O   0  0  0  0  0  0  0  0  0  0  0  0
  183.3010  178.6740  142.3810 C   0  0  0  0  0  0  0  0  0  0  0  0
  183.7860  178.6910  139.5830 C   0  0  0  0  0  3  0  0  0  0  0  0
  182.4690  178.6690  140.0760 C   0  0  0  0  0  0  0  0  0  0  0  0
  185.9040  178.6980  142.4640 C   0  0  0  0  0  0  0  0  0  0  0  0
  184.8320  178.7100  140.5020 C   0  0  0  0  0  0  0  0  0  0  0  0
  182.2230  178.6610  141.4720 C   0  0  0  0  0  0  0  0  0  0  0  0
  186.2280  178.6990  140.2010 N   0  0  0  0  0  0  0  0  0  0  0  0
  180.9140  178.6360  141.9470 O   0  0  0  0  0  1  0  0  0  0  0  0
  186.8500  178.7000  141.3410 C   0  0  0  0  0  0  0  0  0  0  0  0
  181.3390  178.6480  139.1050 C   0  0  0  0  0  1  0  0  0  0  0  0
  184.5930  178.7020  141.8550 C   0  0  0  0  0  0  0  0  0  0  0  0
  191.7540  176.5150  145.9140 O   0  0  0  0  0  1  0  0  0  0  0  0
  191.2640  177.2100  144.8170 C   0  0  0  0  0  0  0  0  0  0  0  0
  191.8550  178.2500  144.4210 O   0  0  0  0  0  0  0  0  0  0  0  0
  189.0780  178.6870  138.9580 C   0  0  0  0  0  2  0  0  0  0  0  0
  188.7150  177.7760  137.7950 C   0  0  0  0  0  2  0  0  0  0  0  0
  187.6710  179.7330  136.8550 O   0  0  0  0  0  1  0  0  0  0  0  0
  187.5600  178.3470  136.9810 C   0  0  1  0  0  3  0  0  0  0  0  0
  187.4690  177.6950  135.6020 C   0  0  0  0  0  2  0  0  0  0  0  0
  185.2110  177.1690  136.5290 C   0  0  0  0  0  1  0  0  0  0  0  0
  186.1970  176.8750  135.4150 C   0  0  0  0  0  2  0  0  0  0  0  0
  1  5  1  0  0  0  0
  2  6  1  0  0  0  0
  2  7  1  0  0  0  0
  3  5  1  0  0  0  0
  4  6  2  0  0  0  0
  5 24  1  6  0  0  0
  7 20  1  6  0  0  0
  7  9  1  0  0  0  0
  8  6  1  6  0  0  0
  8  9  1  0  0  0  0
  8  3  1  0  0  0  0
  9  1  1  1  0  0  0
 12 10  1  0  0  0  0
 13 14  2  0  0  0  0
 13 16  1  0  0  0  0
 14 17  1  0  0  0  0
 15 11  2  0  0  0  0
 16 22  2  0  0  0  0
 17 19  1  0  0  0  0
 17 12  2  0  0  0  0
 18 16  1  0  0  0  0
 18 20  2  0  0  0  0
 20 15  1  0  0  0  0
 21 14  1  0  0  0  0
 22 12  1  0  0  0  0
 22 15  1  0  0  0  0
 24 23  1  0  0  0  0
 25 24  2  0  0  0  0
 26  2  1  0  0  0  0
 27 26  1  0  0  0  0
 29 28  1  6  0  0  0
 29 27  1  0  0  0  0
 30 29  1  0  0  0  0
 32 30  1  0  0  0  0
 32 31  1  0  0  0  0
M  END
>  <MODEL>
2

>  <REMARK>
 VINA RESULT:      -7.8      2.511      5.836
  Name = 
  7 active torsions:
  status: ('A' for Active; 'I' for Inactive)
    1  A    between atoms: C_5  and  N_9
    2  A    between atoms: C_5  and  C_25
    3  A    between atoms: C_8  and  C_18
    4  A    between atoms: C_8  and  C_29
    5  A    between atoms: CA_19  and  C_23
    6  A    between atoms: C_22  and  C_30
    7  A    between atoms: C_25  and  C_29
                            x       y       z     vdW  Elec       q    Type
                         _______ _______ _______ _____ _____    ______ ____

>  <TORSDO>
F 7

$$$$
=
 OpenBabel10222416343D

 32 35  0  0  1  0  0  0  0  0999 V2000
  185.8510  178.7240  141.9950 C   0  0  0  0  0  2  0  0  0  0  0  0
  189.1170  178.0900  143.2430 N   0  0  0  0  0  0  0  0  0  0  0  0
  185.7230  177.5380  144.0300 N   0  0  0  0  0  2  0  0  0  0  0  0
  188.4460  177.0360  145.2720 O   0  0  0  0  0  0  0  0  0  0  0  0
  184.8740  178.1650  143.0090 C   0  0  1  0  0  3  0  0  0  0  0  0
  188.1800  177.4480  144.1110 C   0  0  0  0  0  0  0  0  0  0  0  0
  188.4130  178.6050  142.0530 C   0  0  2  0  0  3  0  0  0  0  0  0
  186.8850  177.4420  143.4890 C   0  0  2  0  0  3  0  0  0  0  0  0
  187.0030  178.1460  142.2760 C   0  0  1  0  0  3  0  0  0  0  0  0
  188.1710  177.5290  136.3590 C   0  0  0  0  0  1  0  0  0  0  0  0
  187.3990  178.7830  139.0990 O   0  0  0  0  0  0  0  0  0  0  0  0
  189.2310  176.9840  137.2560 C   0  0  0  0  0  0  0  0  0  0  0  0
  191.2130  175.9450  139.0050 C   0  0  0  0  0  3  0  0  0  0  0  0
  191.2180  175.6020  137.6410 C   0  0  0  0  0  0  0  0  0  0  0  0
  188.4110  178.1200  139.4520 C   0  0  0  0  0  0  0  0  0  0  0  0
  190.2190  176.8060  139.4630 C   0  0  0  0  0  0  0  0  0  0  0  0
  190.2310  176.1180  136.7650 C   0  0  0  0  0  0  0  0  0  0  0  0
  190.0270  177.2420  140.8090 N   0  0  0  0  0  0  0  0  0  0  0  0
  190.2450  175.7680  135.4180 O   0  0  0  0  0  1  0  0  0  0  0  0
  188.9810  178.0120  140.8000 C   0  0  0  0  0  0  0  0  0  0  0  0
  192.2740  174.6800  137.1360 C   0  0  0  0  0  1  0  0  0  0  0  0
  189.2620  177.3070  138.6140 C   0  0  0  0  0  0  0  0  0  0  0  0
  182.6620  179.1970  143.5100 O   0  0  0  0  0  0  0  0  0  0  0  0
  184.0460  179.2550  143.6090 C   0  0  0  0  0  0  0  0  0  0  0  0
  184.5910  180.2310  144.1880 O   0  0  0  0  0  1  0  0  0  0  0  0
  190.4320  178.5500  143.6720 C   0  0  0  0  0  2  0  0  0  0  0  0
  191.4830  177.4780  143.4220 C   0  0  0  0  0  2  0  0  0  0  0  0
  192.0520  175.1990  143.9560 O   0  0  0  0  0  1  0  0  0  0  0  0
  191.3290  176.3120  144.3910 C   0  0  1  0  0  3  0  0  0  0  0  0
  191.7530  176.7000  145.8070 C   0  0  0  0  0  2  0  0  0  0  0  0
  192.5780  175.9410  148.0380 C   0  0  0  0  0  1  0  0  0  0  0  0
  192.0610  175.4920  146.6860 C   0  0  0  0  0  2  0  0  0  0  0  0
  1  5  1  0  0  0  0
  2 26  1  0  0  0  0
  2  6  1  0  0  0  0
  5 24  1  1  0  0  0
  5  3  1  0  0  0  0
  6  4  2  0  0  0  0
  7 20  1  6  0  0  0
  7  9  1  0  0  0  0
  7  2  1  0  0  0  0
  8  3  1  1  0  0  0
  8  6  1  0  0  0  0
  9  1  1  1  0  0  0
  9  8  1  0  0  0  0
 10 12  1  0  0  0  0
 11 15  2  0  0  0  0
 12 22  1  0  0  0  0
 13 16  1  0  0  0  0
 14 13  2  0  0  0  0
 15 20  1  0  0  0  0
 16 18  1  0  0  0  0
 17 12  2  0  0  0  0
 17 14  1  0  0  0  0
 19 17  1  0  0  0  0
 20 18  2  0  0  0  0
 21 14  1  0  0  0  0
 22 15  1  0  0  0  0
 22 16  2  0  0  0  0
 23 24  2  0  0  0  0
 24 25  1  0  0  0  0
 27 26  1  0  0  0  0
 27 29  1  0  0  0  0
 29 28  1  6  0  0  0
 29 30  1  0  0  0  0
 30 32  1  0  0  0  0
 32 31  1  0  0  0  0
M  END
>  <MODEL>
3

>  <REMARK>
 VINA RESULT:      -7.7      2.175      8.157
  Name = 
  7 active torsions:
  status: ('A' for Active; 'I' for Inactive)
    1  A    between atoms: C_5  and  N_9
    2  A    between atoms: C_5  and  C_25
    3  A    between atoms: C_8  and  C_18
    4  A    between atoms: C_8  and  C_29
    5  A    between atoms: CA_19  and  C_23
    6  A    between atoms: C_22  and  C_30
    7  A    between atoms: C_25  and  C_29
                            x       y       z     vdW  Elec       q    Type
                         _______ _______ _______ _____ _____    ______ ____

>  <TORSDO>
F 7

$$$$
=
 OpenBabel10222416343D

 32 35  0  0  1  0  0  0  0  0999 V2000
  190.9140  177.2330  139.3560 C   0  0  0  0  0  2  0  0  0  0  0  0
  187.5830  177.4400  138.1370 N   0  0  0  0  0  0  0  0  0  0  0  0
  190.4790  175.4420  137.8840 N   0  0  0  0  0  2  0  0  0  0  0  0
  187.7010  175.5660  136.6700 O   0  0  0  0  0  0  0  0  0  0  0  0
  191.5550  176.0330  138.6890 C   0  0  1  0  0  3  0  0  0  0  0  0
  188.1640  176.2350  137.6310 C   0  0  0  0  0  0  0  0  0  0  0  0
  188.4930  178.0480  139.1270 C   0  0  2  0  0  3  0  0  0  0  0  0
  189.3970  175.9770  138.3230 C   0  0  2  0  0  3  0  0  0  0  0  0
  189.6160  177.0580  139.1980 C   0  0  1  0  0  3  0  0  0  0  0  0
  188.1710  177.0090  144.8230 C   0  0  0  0  0  1  0  0  0  0  0  0
  189.3920  177.0850  141.9640 O   0  0  0  0  0  0  0  0  0  0  0  0
  187.1110  177.7240  144.0550 C   0  0  0  0  0  0  0  0  0  0  0  0
  185.1050  179.0550  142.5490 C   0  0  0  0  0  3  0  0  0  0  0  0
  184.9230  178.8200  143.9230 C   0  0  0  0  0  0  0  0  0  0  0  0
  188.3000  177.6720  141.7380 C   0  0  0  0  0  0  0  0  0  0  0  0
  186.2900  178.6230  141.9590 C   0  0  0  0  0  0  0  0  0  0  0  0
  185.9210  178.1570  144.6790 C   0  0  0  0  0  0  0  0  0  0  0  0
  186.6430  178.7380  140.5800 N   0  0  0  0  0  0  0  0  0  0  0  0
  185.7280  177.9270  146.0380 O   0  0  0  0  0  1  0  0  0  0  0  0
  187.8150  178.1920  140.4550 C   0  0  0  0  0  0  0  0  0  0  0  0
  183.6590  179.2750  144.5690 C   0  0  0  0  0  1  0  0  0  0  0  0
  187.2580  177.9810  142.6910 C   0  0  0  0  0  0  0  0  0  0  0  0
  192.6210  176.2520  136.4470 O   0  0  0  0  0  0  0  0  0  0  0  0
  192.6950  176.4530  137.8190 C   0  0  0  0  0  0  0  0  0  0  0  0
  193.7280  176.9730  138.3190 O   0  0  0  0  0  1  0  0  0  0  0  0
  186.5120  178.1640  137.4640 C   0  0  0  0  0  2  0  0  0  0  0  0
  185.1580  177.7820  138.0450 C   0  0  0  0  0  2  0  0  0  0  0  0
  184.9630  176.9420  135.7960 O   0  0  0  0  0  1  0  0  0  0  0  0
  184.2970  177.0570  137.0180 C   0  0  1  0  0  3  0  0  0  0  0  0
  183.8670  175.6790  137.5190 C   0  0  0  0  0  2  0  0  0  0  0  0
  184.8430  173.3840  137.6430 C   0  0  0  0  0  1  0  0  0  0  0  0
  184.4910  174.5370  136.7240 C   0  0  0  0  0  2  0  0  0  0  0  0
  2  7  1  0  0  0  0
  3  8  1  0  0  0  0
  3  5  1  0  0  0  0
  4  6  2  0  0  0  0
  5 24  1  6  0  0  0
  5  1  1  0  0  0  0
  6  2  1  0  0  0  0
  7  9  1  0  0  0  0
  7 20  1  1  0  0  0
  8  6  1  6  0  0  0
  8  9  1  0  0  0  0
  9  1  1  6  0  0  0
 12 17  1  0  0  0  0
 12 10  1  0  0  0  0
 13 14  1  0  0  0  0
 14 21  1  0  0  0  0
 14 17  2  0  0  0  0
 15 11  2  0  0  0  0
 15 22  1  0  0  0  0
 16 13  2  0  0  0  0
 16 22  1  0  0  0  0
 17 19  1  0  0  0  0
 18 16  1  0  0  0  0
 20 18  2  0  0  0  0
 20 15  1  0  0  0  0
 22 12  2  0  0  0  0
 23 24  2  0  0  0  0
 24 25  1  0  0  0  0
 26 27  1  0  0  0  0
 26  2  1  0  0  0  0
 29 28  1  6  0  0  0
 29 30  1  0  0  0  0
 29 27  1  0  0  0  0
 32 30  1  0  0  0  0
 32 31  1  0  0  0  0
M  END
>  <MODEL>
4

>  <REMARK>
 VINA RESULT:      -7.5      1.918      2.721
  Name = 
  7 active torsions:
  status: ('A' for Active; 'I' for Inactive)
    1  A    between atoms: C_5  and  N_9
    2  A    between atoms: C_5  and  C_25
    3  A    between atoms: C_8  and  C_18
    4  A    between atoms: C_8  and  C_29
    5  A    between atoms: CA_19  and  C_23
    6  A    between atoms: C_22  and  C_30
    7  A    between atoms: C_25  and  C_29
                            x       y       z     vdW  Elec       q    Type
                         _______ _______ _______ _____ _____    ______ ____

>  <TORSDO>
F 7

$$$$
=
 OpenBabel10222416343D

 32 35  0  0  1  0  0  0  0  0999 V2000
  186.3310  178.3850  145.7110 C   0  0  0  0  0  2  0  0  0  0  0  0
  187.3910  178.1450  142.3280 N   0  0  0  0  0  0  0  0  0  0  0  0
  188.0200  176.7510  145.5060 N   0  0  0  0  0  2  0  0  0  0  0  0
  189.1050  176.5290  142.6810 O   0  0  0  0  0  0  0  0  0  0  0  0
  187.1800  177.4170  146.5090 C   0  0  1  0  0  3  0  0  0  0  0  0
  188.0780  177.1410  143.0780 C   0  0  0  0  0  0  0  0  0  0  0  0
  186.3600  178.7740  143.1760 C   0  0  2  0  0  3  0  0  0  0  0  0
  187.4720  177.0210  144.3760 C   0  0  2  0  0  3  0  0  0  0  0  0
  186.4650  178.0020  144.4560 C   0  0  1  0  0  3  0  0  0  0  0  0
  180.5990  179.4270  143.3280 C   0  0  0  0  0  1  0  0  0  0  0  0
  183.5690  179.7530  144.1940 O   0  0  0  0  0  0  0  0  0  0  0  0
  181.3190  178.7150  142.2330 C   0  0  0  0  0  0  0  0  0  0  0  0
  182.7260  177.3410  140.1840 C   0  0  0  0  0  3  0  0  0  0  0  0
  181.3230  177.4200  140.1520 C   0  0  0  0  0  0  0  0  0  0  0  0
  183.7330  179.0870  143.1380 C   0  0  0  0  0  0  0  0  0  0  0  0
  183.3960  177.9560  141.2390 C   0  0  0  0  0  0  0  0  0  0  0  0
  180.6170  178.1050  141.1720 C   0  0  0  0  0  0  0  0  0  0  0  0
  184.8060  177.9570  141.4650 N   0  0  0  0  0  0  0  0  0  0  0  0
  179.2270  178.1730  141.1300 O   0  0  0  0  0  1  0  0  0  0  0  0
  185.0010  178.6220  142.5640 C   0  0  0  0  0  0  0  0  0  0  0  0
  180.5920  176.7660  139.0300 C   0  0  0  0  0  1  0  0  0  0  0  0
  182.7110  178.6200  142.2280 C   0  0  0  0  0  0  0  0  0  0  0  0
  189.3930  177.9110  147.5440 O   0  0  0  0  0  0  0  0  0  0  0  0
  188.0250  178.1440  147.5050 C   0  0  0  0  0  0  0  0  0  0  0  0
  187.5050  178.9540  148.3190 O   0  0  0  0  0  1  0  0  0  0  0  0
  187.9190  178.7460  141.1090 C   0  0  0  0  0  2  0  0  0  0  0  0
  187.8930  177.7450  139.9630 C   0  0  0  0  0  2  0  0  0  0  0  0
  189.0550  179.3780  138.6270 O   0  0  0  0  0  1  0  0  0  0  0  0
  189.0040  178.0220  138.9580 C   0  0  1  0  0  3  0  0  0  0  0  0
  190.3610  177.5520  139.4780 C   0  0  0  0  0  2  0  0  0  0  0  0
  190.6190  176.4670  137.2440 C   0  0  0  0  0  1  0  0  0  0  0  0
  190.8940  176.3350  138.7280 C   0  0  0  0  0  2  0  0  0  0  0  0
  1  5  1  0  0  0  0
  2  6  1  0  0  0  0
  2  7  1  0  0  0  0
  3  5  1  0  0  0  0
  4  6  2  0  0  0  0
  5 24  1  1  0  0  0
  7 20  1  6  0  0  0
  7  9  1  0  0  0  0
  8  6  1  6  0  0  0
  8  9  1  0  0  0  0
  8  3  1  0  0  0  0
  9  1  1  1  0  0  0
 12 10  1  0  0  0  0
 13 16  1  0  0  0  0
 14 13  2  0  0  0  0
 14 17  1  0  0  0  0
 15 11  2  0  0  0  0
 16 18  1  0  0  0  0
 16 22  2  0  0  0  0
 17 12  2  0  0  0  0
 18 20  2  0  0  0  0
 19 17  1  0  0  0  0
 20 15  1  0  0  0  0
 21 14  1  0  0  0  0
 22 12  1  0  0  0  0
 22 15  1  0  0  0  0
 24 23  2  0  0  0  0
 24 25  1  0  0  0  0
 26  2  1  0  0  0  0
 27 26  1  0  0  0  0
 29 28  1  1  0  0  0
 29 30  1  0  0  0  0
 29 27  1  0  0  0  0
 31 32  1  0  0  0  0
 32 30  1  0  0  0  0
M  END
>  <MODEL>
5

>  <REMARK>
 VINA RESULT:      -7.4      2.708      7.805
  Name = 
  7 active torsions:
  status: ('A' for Active; 'I' for Inactive)
    1  A    between atoms: C_5  and  N_9
    2  A    between atoms: C_5  and  C_25
    3  A    between atoms: C_8  and  C_18
    4  A    between atoms: C_8  and  C_29
    5  A    between atoms: CA_19  and  C_23
    6  A    between atoms: C_22  and  C_30
    7  A    between atoms: C_25  and  C_29
                            x       y       z     vdW  Elec       q    Type
                         _______ _______ _______ _____ _____    ______ ____

>  <TORSDO>
F 7

$$$$
=
 OpenBabel10222416343D

 32 35  0  0  1  0  0  0  0  0999 V2000
  192.2280  176.5850  138.7020 C   0  0  0  0  0  2  0  0  0  0  0  0
  188.7140  176.9900  138.3690 N   0  0  0  0  0  0  0  0  0  0  0  0
  191.3520  174.9120  137.2890 N   0  0  0  0  0  2  0  0  0  0  0  0
  188.3690  175.2140  136.8190 O   0  0  0  0  0  0  0  0  0  0  0  0
  192.6220  175.4110  137.8300 C   0  0  1  0  0  3  0  0  0  0  0  0
  189.0900  175.8020  137.6690 C   0  0  0  0  0  0  0  0  0  0  0  0
  189.8700  177.4990  139.1310 C   0  0  2  0  0  3  0  0  0  0  0  0
  190.4410  175.4550  138.0150 C   0  0  2  0  0  3  0  0  0  0  0  0
  190.9250  176.4670  138.8650 C   0  0  1  0  0  3  0  0  0  0  0  0
  191.4840  177.6360  144.7000 C   0  0  0  0  0  1  0  0  0  0  0  0
  191.7770  177.6830  141.6040 O   0  0  0  0  0  0  0  0  0  0  0  0
  190.0610  177.5930  144.2560 C   0  0  0  0  0  0  0  0  0  0  0  0
  187.3660  177.4800  143.3660 C   0  0  0  0  0  3  0  0  0  0  0  0
  187.6610  177.4780  144.7410 C   0  0  0  0  0  0  0  0  0  0  0  0
  190.5220  177.6270  141.6920 C   0  0  0  0  0  0  0  0  0  0  0  0
  188.4260  177.5440  142.4660 C   0  0  0  0  0  0  0  0  0  0  0  0
  189.0040  177.5340  145.1890 C   0  0  0  0  0  0  0  0  0  0  0  0
  188.3330  177.5230  141.0410 N   0  0  0  0  0  0  0  0  0  0  0  0
  189.2830  177.5280  146.5530 O   0  0  0  0  0  1  0  0  0  0  0  0
  189.5510  177.5790  140.5930 C   0  0  0  0  0  0  0  0  0  0  0  0
  186.5380  177.4080  145.7170 C   0  0  0  0  0  1  0  0  0  0  0  0
  189.7290  177.6000  142.9000 C   0  0  0  0  0  0  0  0  0  0  0  0
  193.0180  176.0330  135.4500 O   0  0  0  0  0  0  0  0  0  0  0  0
  193.5300  175.8460  136.7270 C   0  0  0  0  0  0  0  0  0  0  0  0
  194.7580  176.0310  136.9400 O   0  0  0  0  0  1  0  0  0  0  0  0
  187.5470  177.7950  138.0270 C   0  0  0  0  0  2  0  0  0  0  0  0
  187.5870  178.2010  136.5610 C   0  0  0  0  0  2  0  0  0  0  0  0
  186.5470  177.2760  134.5940 O   0  0  0  0  0  1  0  0  0  0  0  0
  186.2900  177.8360  135.8480 C   0  0  1  0  0  3  0  0  0  0  0  0
  185.4370  176.8860  136.6870 C   0  0  0  0  0  2  0  0  0  0  0  0
  183.1820  176.7270  135.6260 C   0  0  0  0  0  1  0  0  0  0  0  0
  183.9770  177.3190  136.7730 C   0  0  0  0  0  2  0  0  0  0  0  0
  2  7  1  0  0  0  0
  3  5  1  0  0  0  0
  4  6  2  0  0  0  0
  5 24  1  6  0  0  0
  5  1  1  0  0  0  0
  6  8  1  0  0  0  0
  6  2  1  0  0  0  0
  7 20  1  1  0  0  0
  8  3  1  6  0  0  0
  8  9  1  0  0  0  0
  9  1  1  6  0  0  0
  9  7  1  0  0  0  0
 11 15  2  0  0  0  0
 12 10  1  0  0  0  0
 12 17  1  0  0  0  0
 13 14  1  0  0  0  0
 14 17  2  0  0  0  0
 14 21  1  0  0  0  0
 15 22  1  0  0  0  0
 16 22  1  0  0  0  0
 16 13  2  0  0  0  0
 17 19  1  0  0  0  0
 18 16  1  0  0  0  0
 20 18  2  0  0  0  0
 20 15  1  0  0  0  0
 22 12  2  0  0  0  0
 23 24  2  0  0  0  0
 24 25  1  0  0  0  0
 26  2  1  0  0  0  0
 27 26  1  0  0  0  0
 29 28  1  6  0  0  0
 29 27  1  0  0  0  0
 29 30  1  0  0  0  0
 30 32  1  0  0  0  0
 31 32  1  0  0  0  0
M  END
>  <MODEL>
6

>  <REMARK>
 VINA RESULT:      -7.3      1.882      2.279
  Name = 
  7 active torsions:
  status: ('A' for Active; 'I' for Inactive)
    1  A    between atoms: C_5  and  N_9
    2  A    between atoms: C_5  and  C_25
    3  A    between atoms: C_8  and  C_18
    4  A    between atoms: C_8  and  C_29
    5  A    between atoms: CA_19  and  C_23
    6  A    between atoms: C_22  and  C_30
    7  A    between atoms: C_25  and  C_29
                            x       y       z     vdW  Elec       q    Type
                         _______ _______ _______ _____ _____    ______ ____

>  <TORSDO>
F 7

$$$$
=
 OpenBabel10222416343D

 32 35  0  0  1  0  0  0  0  0999 V2000
  183.4640  180.5400  138.7180 C   0  0  0  0  0  2  0  0  0  0  0  0
  184.2190  178.3160  141.3850 N   0  0  0  0  0  0  0  0  0  0  0  0
  181.5470  179.2930  139.2990 N   0  0  0  0  0  2  0  0  0  0  0  0
  182.0200  177.4360  141.6520 O   0  0  0  0  0  0  0  0  0  0  0  0
  181.9920  180.3670  138.4020 C   0  0  1  0  0  3  0  0  0  0  0  0
  182.8720  178.0710  140.9730 C   0  0  0  0  0  0  0  0  0  0  0  0
  184.8610  179.2470  140.4380 C   0  0  2  0  0  3  0  0  0  0  0  0
  182.6270  178.7440  139.7270 C   0  0  2  0  0  3  0  0  0  0  0  0
  183.7930  179.4650  139.4090 C   0  0  1  0  0  3  0  0  0  0  0  0
  190.3840  177.5030  140.7330 C   0  0  0  0  0  1  0  0  0  0  0  0
  187.6280  178.5520  141.7200 O   0  0  0  0  0  0  0  0  0  0  0  0
  189.5730  177.4610  139.4810 C   0  0  0  0  0  0  0  0  0  0  0  0
  188.0020  177.4290  137.1160 C   0  0  0  0  0  3  0  0  0  0  0  0
  189.3450  177.0150  137.0830 C   0  0  0  0  0  0  0  0  0  0  0  0
  187.3560  178.3710  140.5040 C   0  0  0  0  0  0  0  0  0  0  0  0
  187.4720  177.8450  138.3340 C   0  0  0  0  0  0  0  0  0  0  0  0
  190.1330  177.0300  138.2600 C   0  0  0  0  0  0  0  0  0  0  0  0
  186.1490  178.3310  138.5630 N   0  0  0  0  0  0  0  0  0  0  0  0
  191.4620  176.6200  138.2130 O   0  0  0  0  0  1  0  0  0  0  0  0
  186.0800  178.6280  139.8260 C   0  0  0  0  0  0  0  0  0  0  0  0
  189.9280  176.5680  135.7860 C   0  0  0  0  0  1  0  0  0  0  0  0
  188.2350  177.8590  139.4770 C   0  0  0  0  0  0  0  0  0  0  0  0
  180.0850  181.5830  139.4480 O   0  0  0  0  0  1  0  0  0  0  0  0
  181.2370  181.6270  138.6740 C   0  0  0  0  0  0  0  0  0  0  0  0
  181.6260  182.7260  138.1950 O   0  0  0  0  0  0  0  0  0  0  0  0
  184.7110  178.0580  142.7320 C   0  0  0  0  0  2  0  0  0  0  0  0
  184.5170  179.2810  143.6180 C   0  0  0  0  0  2  0  0  0  0  0  0
  184.0680  179.0010  145.9680 O   0  0  0  0  0  1  0  0  0  0  0  0
  185.0860  179.0530  145.0130 C   0  0  1  0  0  3  0  0  0  0  0  0
  185.9340  177.7840  145.0720 C   0  0  0  0  0  2  0  0  0  0  0  0
  188.3400  177.1270  144.9460 C   0  0  0  0  0  1  0  0  0  0  0  0
  187.3320  178.0300  145.6300 C   0  0  0  0  0  2  0  0  0  0  0  0
  2 26  1  0  0  0  0
  5 24  1  1  0  0  0
  5  1  1  0  0  0  0
  5  3  1  0  0  0  0
  6  2  1  0  0  0  0
  6  4  2  0  0  0  0
  7 20  1  6  0  0  0
  7  2  1  0  0  0  0
  8  3  1  1  0  0  0
  8  6  1  0  0  0  0
  9  1  1  1  0  0  0
  9  8  1  0  0  0  0
  9  7  1  0  0  0  0
 12 10  1  0  0  0  0
 13 16  1  0  0  0  0
 14 13  2  0  0  0  0
 14 17  1  0  0  0  0
 15 11  2  0  0  0  0
 16 18  1  0  0  0  0
 16 22  2  0  0  0  0
 17 12  2  0  0  0  0
 18 20  2  0  0  0  0
 19 17  1  0  0  0  0
 20 15  1  0  0  0  0
 21 14  1  0  0  0  0
 22 12  1  0  0  0  0
 22 15  1  0  0  0  0
 24 23  1  0  0  0  0
 25 24  2  0  0  0  0
 26 27  1  0  0  0  0
 27 29  1  0  0  0  0
 29 30  1  0  0  0  0
 29 28  1  1  0  0  0
 30 32  1  0  0  0  0
 31 32  1  0  0  0  0
M  END
>  <MODEL>
7

>  <REMARK>
 VINA RESULT:      -7.3      2.778      7.592
  Name = 
  7 active torsions:
  status: ('A' for Active; 'I' for Inactive)
    1  A    between atoms: C_5  and  N_9
    2  A    between atoms: C_5  and  C_25
    3  A    between atoms: C_8  and  C_18
    4  A    between atoms: C_8  and  C_29
    5  A    between atoms: CA_19  and  C_23
    6  A    between atoms: C_22  and  C_30
    7  A    between atoms: C_25  and  C_29
                            x       y       z     vdW  Elec       q    Type
                         _______ _______ _______ _____ _____    ______ ____

>  <TORSDO>
F 7

$$$$
=
 OpenBabel10222416343D

 32 35  0  0  1  0  0  0  0  0999 V2000
  185.3770  179.1180  145.2600 C   0  0  0  0  0  2  0  0  0  0  0  0
  187.1340  177.8280  142.4540 N   0  0  0  0  0  0  0  0  0  0  0  0
  186.5560  177.1690  145.8710 N   0  0  0  0  0  2  0  0  0  0  0  0
  188.2040  176.0280  143.5920 O   0  0  0  0  0  0  0  0  0  0  0  0
  185.7070  178.2240  146.4370 C   0  0  1  0  0  3  0  0  0  0  0  0
  187.3160  176.9210  143.5440 C   0  0  0  0  0  0  0  0  0  0  0  0
  186.1360  178.8490  142.8240 C   0  0  2  0  0  3  0  0  0  0  0  0
  186.3990  177.2570  144.5980 C   0  0  2  0  0  3  0  0  0  0  0  0
  185.7080  178.4150  144.1940 C   0  0  1  0  0  3  0  0  0  0  0  0
  180.4820  178.2670  141.6710 C   0  0  0  0  0  1  0  0  0  0  0  0
  183.0700  178.5580  143.3710 O   0  0  0  0  0  0  0  0  0  0  0  0
  181.5230  178.4500  140.6180 C   0  0  0  0  0  0  0  0  0  0  0  0
  183.5410  178.7680  138.6450 C   0  0  0  0  0  3  0  0  0  0  0  0
  182.1970  178.6020  138.2670 C   0  0  0  0  0  0  0  0  0  0  0  0
  183.5680  178.6570  142.2190 C   0  0  0  0  0  0  0  0  0  0  0  0
  183.8450  178.7760  140.0040 C   0  0  0  0  0  0  0  0  0  0  0  0
  181.1870  178.4430  139.2480 C   0  0  0  0  0  0  0  0  0  0  0  0
  185.1460  178.8980  140.5820 N   0  0  0  0  0  0  0  0  0  0  0  0
  179.8600  178.2760  138.8590 O   0  0  0  0  0  1  0  0  0  0  0  0
  184.9810  178.8360  141.8690 C   0  0  0  0  0  0  0  0  0  0  0  0
  181.8550  178.5900  136.8160 C   0  0  0  0  0  1  0  0  0  0  0  0
  182.8660  178.6230  140.9550 C   0  0  0  0  0  0  0  0  0  0  0  0
  187.5540  178.4120  148.0990 O   0  0  0  0  0  1  0  0  0  0  0  0
  186.4430  178.9820  147.4930 C   0  0  0  0  0  0  0  0  0  0  0  0
  186.0550  180.1270  147.8500 O   0  0  0  0  0  0  0  0  0  0  0  0
  188.0900  177.9820  141.3640 C   0  0  0  0  0  2  0  0  0  0  0  0
  189.4430  178.4320  141.8960 C   0  0  0  0  0  2  0  0  0  0  0  0
  190.9990  177.4970  140.3120 O   0  0  0  0  0  1  0  0  0  0  0  0
  190.5220  177.3910  141.6200 C   0  0  1  0  0  3  0  0  0  0  0  0
  191.6750  177.5030  142.6160 C   0  0  0  0  0  2  0  0  0  0  0  0
  191.2630  177.2820  145.0680 C   0  0  0  0  0  1  0  0  0  0  0  0
  191.2870  178.2390  143.8940 C   0  0  0  0  0  2  0  0  0  0  0  0
  1  5  1  0  0  0  0
  2  7  1  0  0  0  0
  2  6  1  0  0  0  0
  3  5  1  0  0  0  0
  5 24  1  1  0  0  0
  6  4  2  0  0  0  0
  7 20  1  6  0  0  0
  7  9  1  0  0  0  0
  8  6  1  6  0  0  0
  8  3  1  0  0  0  0
  9  8  1  0  0  0  0
  9  1  1  1  0  0  0
 12 22  1  0  0  0  0
 12 10  1  0  0  0  0
 13 16  1  0  0  0  0
 14 13  2  0  0  0  0
 14 17  1  0  0  0  0
 15 11  2  0  0  0  0
 16 18  1  0  0  0  0
 16 22  2  0  0  0  0
 17 12  2  0  0  0  0
 18 20  2  0  0  0  0
 19 17  1  0  0  0  0
 20 15  1  0  0  0  0
 21 14  1  0  0  0  0
 22 15  1  0  0  0  0
 24 25  2  0  0  0  0
 24 23  1  0  0  0  0
 26 27  1  0  0  0  0
 26  2  1  0  0  0  0
 29 28  1  6  0  0  0
 29 27  1  0  0  0  0
 29 30  1  0  0  0  0
 30 32  1  0  0  0  0
 32 31  1  0  0  0  0
M  END
>  <MODEL>
8

>  <REMARK>
 VINA RESULT:      -7.3      2.999      8.419
  Name = 
  7 active torsions:
  status: ('A' for Active; 'I' for Inactive)
    1  A    between atoms: C_5  and  N_9
    2  A    between atoms: C_5  and  C_25
    3  A    between atoms: C_8  and  C_18
    4  A    between atoms: C_8  and  C_29
    5  A    between atoms: CA_19  and  C_23
    6  A    between atoms: C_22  and  C_30
    7  A    between atoms: C_25  and  C_29
                            x       y       z     vdW  Elec       q    Type
                         _______ _______ _______ _____ _____    ______ ____

>  <TORSDO>
F 7

$$$$
=
 OpenBabel10222416343D

 32 35  0  0  1  0  0  0  0  0999 V2000
  185.3670  178.8080  145.0230 C   0  0  0  0  0  2  0  0  0  0  0  0
  187.4230  178.1800  142.1940 N   0  0  0  0  0  0  0  0  0  0  0  0
  186.9020  177.0840  145.5050 N   0  0  0  0  0  2  0  0  0  0  0  0
  188.8070  176.5270  143.2090 O   0  0  0  0  0  0  0  0  0  0  0  0
  185.8420  177.8860  146.1270 C   0  0  1  0  0  3  0  0  0  0  0  0
  187.7570  177.2240  143.2030 C   0  0  0  0  0  0  0  0  0  0  0  0
  186.2280  178.9400  142.6100 C   0  0  2  0  0  3  0  0  0  0  0  0
  186.7640  177.2650  144.2410 C   0  0  2  0  0  3  0  0  0  0  0  0
  185.8620  178.2950  143.9140 C   0  0  1  0  0  3  0  0  0  0  0  0
  180.6520  178.1080  141.2500 C   0  0  0  0  0  1  0  0  0  0  0  0
  183.1430  178.6500  143.0330 O   0  0  0  0  0  0  0  0  0  0  0  0
  181.7440  178.1880  140.2370 C   0  0  0  0  0  0  0  0  0  0  0  0
  183.8580  178.3160  138.3440 C   0  0  0  0  0  3  0  0  0  0  0  0
  182.5380  178.0790  137.9210 C   0  0  0  0  0  0  0  0  0  0  0  0
  183.6990  178.6240  141.9030 C   0  0  0  0  0  0  0  0  0  0  0  0
  184.0900  178.4890  139.7060 C   0  0  0  0  0  0  0  0  0  0  0  0
  181.4810  178.0140  138.8620 C   0  0  0  0  0  0  0  0  0  0  0  0
  185.3570  178.7050  140.3310 N   0  0  0  0  0  0  0  0  0  0  0  0
  180.1790  177.7750  138.4300 O   0  0  0  0  0  1  0  0  0  0  0  0
  185.1260  178.7910  141.6070 C   0  0  0  0  0  0  0  0  0  0  0  0
  182.2730  177.8890  136.4670 C   0  0  0  0  0  1  0  0  0  0  0  0
  183.0650  178.4270  140.6190 C   0  0  0  0  0  0  0  0  0  0  0  0
  187.4740  178.1840  147.9860 O   0  0  0  0  0  1  0  0  0  0  0  0
  186.3800  178.6680  147.2810 C   0  0  0  0  0  0  0  0  0  0  0  0
  185.8420  179.7530  147.6290 O   0  0  0  0  0  0  0  0  0  0  0  0
  188.3550  178.6300  141.1670 C   0  0  0  0  0  2  0  0  0  0  0  0
  188.6700  177.5010  140.1960 C   0  0  0  0  0  2  0  0  0  0  0  0
  189.0550  179.2120  138.5460 O   0  0  0  0  0  1  0  0  0  0  0  0
  188.5000  177.9470  138.7490 C   0  0  1  0  0  3  0  0  0  0  0  0
  189.1070  176.9380  137.7760 C   0  0  0  0  0  2  0  0  0  0  0  0
  191.5740  176.7380  138.1100 C   0  0  0  0  0  1  0  0  0  0  0  0
  190.2250  176.1100  138.4010 C   0  0  0  0  0  2  0  0  0  0  0  0
  1  5  1  0  0  0  0
  2  7  1  0  0  0  0
  2  6  1  0  0  0  0
  3  5  1  0  0  0  0
  5 24  1  1  0  0  0
  6  4  2  0  0  0  0
  7 20  1  6  0  0  0
  7  9  1  0  0  0  0
  8  6  1  1  0  0  0
  8  3  1  0  0  0  0
  9  8  1  0  0  0  0
  9  1  1  1  0  0  0
 12 22  1  0  0  0  0
 12 10  1  0  0  0  0
 13 16  1  0  0  0  0
 14 13  2  0  0  0  0
 14 17  1  0  0  0  0
 15 11  2  0  0  0  0
 16 18  1  0  0  0  0
 16 22  2  0  0  0  0
 17 12  2  0  0  0  0
 18 20  2  0  0  0  0
 19 17  1  0  0  0  0
 20 15  1  0  0  0  0
 21 14  1  0  0  0  0
 22 15  1  0  0  0  0
 24 25  2  0  0  0  0
 24 23  1  0  0  0  0
 26  2  1  0  0  0  0
 27 26  1  0  0  0  0
 29 28  1  1  0  0  0
 29 27  1  0  0  0  0
 30 32  1  0  0  0  0
 30 29  1  0  0  0  0
 31 32  1  0  0  0  0
M  END
>  <MODEL>
9

>  <REMARK>
 VINA RESULT:      -7.2      2.610      8.139
  Name = 
  7 active torsions:
  status: ('A' for Active; 'I' for Inactive)
    1  A    between atoms: C_5  and  N_9
    2  A    between atoms: C_5  and  C_25
    3  A    between atoms: C_8  and  C_18
    4  A    between atoms: C_8  and  C_29
    5  A    between atoms: CA_19  and  C_23
    6  A    between atoms: C_22  and  C_30
    7  A    between atoms: C_25  and  C_29
                            x       y       z     vdW  Elec       q    Type
                         _______ _______ _______ _____ _____    ______ ____

>  <TORSDO>
F 7

$$$$
