=
 OpenBabel10222417273D

 28 31  0  0  1  0  0  0  0  0999 V2000
  186.8970  178.5570  142.4540 C   0  0  0  0  0  3  0  0  0  0  0  0
  190.9230  177.3790  141.7780 O   0  0  0  0  0  0  0  0  0  0  0  0
  190.5590  176.2230  143.8790 C   0  0  0  0  0  2  0  0  0  0  0  0
  187.7180  177.7600  143.1410 C   0  0  0  0  0  0  0  0  0  0  0  0
  187.7820  178.3740  140.0900 C   0  0  0  0  0  0  0  0  0  0  0  0
  189.2320  175.7110  143.3380 C   0  0  0  0  0  2  0  0  0  0  0  0
  186.8050  178.6190  140.9830 C   0  0  0  0  0  3  0  0  0  0  0  0
  191.4930  176.4550  142.7030 C   0  0  0  0  0  2  0  0  0  0  0  0
  189.1430  178.1200  140.4830 N   0  0  0  0  0  0  0  0  0  0  0  0
  189.5500  177.4350  141.5100 C   0  0  0  0  0  0  0  0  0  0  0  0
  188.5670  176.7450  142.4190 C   0  0  2  0  0  3  0  0  0  0  0  0
  188.9280  177.7420  145.3290 C   0  0  0  0  0  3  0  0  0  0  0  0
  185.2410  178.3140  144.9980 C   0  0  0  0  0  0  0  0  0  0  0  0
  186.5720  178.2440  146.7040 C   0  0  0  0  0  0  0  0  0  0  0  0
  184.5170  178.5370  146.1180 N   0  0  0  0  0  0  0  0  0  0  0  0
  187.7490  178.1210  147.4390 C   0  0  0  0  0  0  0  0  0  0  0  0
  188.9400  177.8660  146.7360 C   0  0  0  0  0  3  0  0  0  0  0  0
  185.3330  178.4950  147.1680 N   0  0  0  0  0  2  0  0  0  0  0  0
  187.7520  178.2450  148.8220 O   0  0  0  0  0  1  0  0  0  0  0  0
  187.7240  177.8710  144.6080 C   0  0  0  0  0  0  0  0  0  0  0  0
  186.5600  178.1230  145.3420 C   0  0  0  0  0  0  0  0  0  0  0  0
  184.7110  178.2830  143.6660 N   0  0  0  0  0  2  0  0  0  0  0  0
  182.9980  178.6750  141.9960 C   0  0  0  0  0  2  0  0  0  0  0  0
  183.4010  178.6990  143.2600 C   0  0  0  0  0  3  0  0  0  0  0  0
  187.5250  178.5340  138.6870 N   0  0  0  0  0  2  0  0  0  0  0  0
  187.1980  177.8740  136.2770 C   0  0  0  0  0  1  0  0  0  0  0  0
  187.5510  177.5170  137.6760 C   0  0  0  0  0  0  0  0  0  0  0  0
  187.8810  176.3330  137.9450 O   0  0  0  0  0  0  0  0  0  0  0  0
  1  4  2  0  0  0  0
  2  8  1  0  0  0  0
  4 20  1  0  0  0  0
  5  9  1  0  0  0  0
  5  7  2  0  0  0  0
  6  3  1  0  0  0  0
  7  1  1  0  0  0  0
  8  3  1  0  0  0  0
  9 10  2  0  0  0  0
 10  2  1  0  0  0  0
 10 11  1  0  0  0  0
 11  4  1  0  0  0  0
 11  6  1  1  0  0  0
 12 17  1  0  0  0  0
 13 21  1  0  0  0  0
 13 15  2  0  0  0  0
 14 18  1  0  0  0  0
 14 16  1  0  0  0  0
 15 18  1  0  0  0  0
 16 19  1  0  0  0  0
 17 16  2  0  0  0  0
 20 12  2  0  0  0  0
 20 21  1  0  0  0  0
 21 14  2  0  0  0  0
 22 13  1  0  0  0  0
 23 24  2  0  0  0  0
 24 22  1  0  0  0  0
 25  5  1  0  0  0  0
 26 27  1  0  0  0  0
 27 28  2  0  0  0  0
 27 25  1  0  0  0  0
M  END
>  <MODEL>
1

>  <REMARK>
 VINA RESULT:      -9.4      0.000      0.000
  Name = 
  4 active torsions:
  status: ('A' for Active; 'I' for Inactive)
    1  A    between atoms: N_3  and  C_15
    2  A    between atoms: C_5  and  N_19
    3  A    between atoms: C_9  and  C_22
    4  A    between atoms: C_14  and  N_19
                            x       y       z     vdW  Elec       q    Type
                         _______ _______ _______ _____ _____    ______ ____

>  <TORSDO>
F 4

$$$$
=
 OpenBabel10222417273D

 28 31  0  0  1  0  0  0  0  0999 V2000
  187.0930  178.6970  143.8140 C   0  0  0  0  0  3  0  0  0  0  0  0
  189.6220  177.7170  140.5440 O   0  0  0  0  0  0  0  0  0  0  0  0
  190.5400  176.1790  142.1810 C   0  0  0  0  0  2  0  0  0  0  0  0
  188.0670  177.7940  143.6820 C   0  0  0  0  0  0  0  0  0  0  0  0
  186.2580  178.9760  141.4410 C   0  0  0  0  0  0  0  0  0  0  0  0
  189.1220  175.7630  142.5460 C   0  0  0  0  0  2  0  0  0  0  0  0
  186.1000  179.0360  142.7760 C   0  0  0  0  0  3  0  0  0  0  0  0
  190.5400  176.6400  140.7330 C   0  0  0  0  0  2  0  0  0  0  0  0
  187.5220  178.6680  140.8250 N   0  0  0  0  0  0  0  0  0  0  0  0
  188.4060  177.8060  141.2310 C   0  0  0  0  0  0  0  0  0  0  0  0
  188.1480  176.9450  142.4400 C   0  0  2  0  0  3  0  0  0  0  0  0
  190.3990  177.5900  144.5600 C   0  0  0  0  0  3  0  0  0  0  0  0
  187.3470  177.5160  146.7310 C   0  0  0  0  0  0  0  0  0  0  0  0
  189.4640  177.3750  147.1630 C   0  0  0  0  0  0  0  0  0  0  0  0
  187.5060  177.3840  148.0670 N   0  0  0  0  0  0  0  0  0  0  0  0
  190.8400  177.3360  146.9530 C   0  0  0  0  0  0  0  0  0  0  0  0
  191.3080  177.4460  145.6310 C   0  0  0  0  0  3  0  0  0  0  0  0
  188.8060  177.2970  148.3350 N   0  0  0  0  0  2  0  0  0  0  0  0
  191.7280  177.1960  148.0120 O   0  0  0  0  0  1  0  0  0  0  0  0
  189.0110  177.6260  144.7980 C   0  0  0  0  0  0  0  0  0  0  0  0
  188.5830  177.5120  146.1260 C   0  0  0  0  0  0  0  0  0  0  0  0
  186.0870  177.6380  146.0580 N   0  0  0  0  0  2  0  0  0  0  0  0
  183.9850  178.7950  145.7130 C   0  0  0  0  0  2  0  0  0  0  0  0
  184.9380  178.3560  146.5250 C   0  0  0  0  0  3  0  0  0  0  0  0
  185.1930  179.3960  140.5750 N   0  0  0  0  0  2  0  0  0  0  0  0
  182.9380  179.3610  139.4520 C   0  0  0  0  0  1  0  0  0  0  0  0
  183.9420  178.7320  140.3490 C   0  0  0  0  0  0  0  0  0  0  0  0
  183.6830  177.6220  140.8830 O   0  0  0  0  0  0  0  0  0  0  0  0
  2  8  1  0  0  0  0
  2 10  1  0  0  0  0
  3  6  1  0  0  0  0
  4  1  2  0  0  0  0
  4 20  1  0  0  0  0
  5  7  2  0  0  0  0
  7  1  1  0  0  0  0
  8  3  1  0  0  0  0
  9 10  2  0  0  0  0
  9  5  1  0  0  0  0
 10 11  1  0  0  0  0
 11  6  1  1  0  0  0
 11  4  1  0  0  0  0
 12 20  2  0  0  0  0
 12 17  1  0  0  0  0
 13 15  2  0  0  0  0
 14 18  1  0  0  0  0
 15 18  1  0  0  0  0
 16 14  1  0  0  0  0
 16 19  1  0  0  0  0
 17 16  2  0  0  0  0
 20 21  1  0  0  0  0
 21 13  1  0  0  0  0
 21 14  2  0  0  0  0
 22 24  1  0  0  0  0
 22 13  1  0  0  0  0
 23 24  2  0  0  0  0
 25  5  1  0  0  0  0
 26 27  1  0  0  0  0
 27 25  1  0  0  0  0
 27 28  2  0  0  0  0
M  END
>  <MODEL>
2

>  <REMARK>
 VINA RESULT:      -9.2      2.110      2.951
  Name = 
  4 active torsions:
  status: ('A' for Active; 'I' for Inactive)
    1  A    between atoms: N_3  and  C_15
    2  A    between atoms: C_5  and  N_19
    3  A    between atoms: C_9  and  C_22
    4  A    between atoms: C_14  and  N_19
                            x       y       z     vdW  Elec       q    Type
                         _______ _______ _______ _____ _____    ______ ____

>  <TORSDO>
F 4

$$$$
=
 OpenBabel10222417273D

 28 31  0  0  1  0  0  0  0  0999 V2000
  184.0360  179.2080  139.9850 C   0  0  0  0  0  3  0  0  0  0  0  0
  180.9450  179.3140  142.8980 O   0  0  0  0  0  0  0  0  0  0  0  0
  179.5670  179.0210  140.9230 C   0  0  0  0  0  2  0  0  0  0  0  0
  182.7120  179.0760  139.8820 C   0  0  0  0  0  0  0  0  0  0  0  0
  184.4980  178.4320  142.3490 C   0  0  0  0  0  0  0  0  0  0  0  0
  180.5090  177.9180  140.4610 C   0  0  0  0  0  2  0  0  0  0  0  0
  184.8650  178.6560  141.0740 C   0  0  0  0  0  3  0  0  0  0  0  0
  179.6140  179.0800  142.4410 C   0  0  0  0  0  2  0  0  0  0  0  0
  183.2170  178.8340  142.8680 N   0  0  0  0  0  0  0  0  0  0  0  0
  182.0720  178.7880  142.2550 C   0  0  0  0  0  0  0  0  0  0  0  0
  181.9590  178.2170  140.8650 C   0  0  2  0  0  3  0  0  0  0  0  0
  181.6080  181.0830  138.8810 C   0  0  0  0  0  3  0  0  0  0  0  0
  182.0740  177.8430  137.0600 C   0  0  0  0  0  0  0  0  0  0  0  0
  181.1860  179.7340  136.4940 C   0  0  0  0  0  0  0  0  0  0  0  0
  181.6350  177.7470  135.7850 N   0  0  0  0  0  0  0  0  0  0  0  0
  180.7550  181.0550  136.5880 C   0  0  0  0  0  0  0  0  0  0  0  0
  180.9720  181.7340  137.8010 C   0  0  0  0  0  3  0  0  0  0  0  0
  181.0890  178.9090  135.4350 N   0  0  0  0  0  2  0  0  0  0  0  0
  180.1320  181.6890  135.5210 O   0  0  0  0  0  1  0  0  0  0  0  0
  182.0340  179.7450  138.7610 C   0  0  0  0  0  0  0  0  0  0  0  0
  181.8000  179.1030  137.5410 C   0  0  0  0  0  0  0  0  0  0  0  0
  182.7220  176.7920  137.7900 N   0  0  0  0  0  2  0  0  0  0  0  0
  185.0400  177.0770  137.1430 C   0  0  0  0  0  2  0  0  0  0  0  0
  184.0550  176.3070  137.5840 C   0  0  0  0  0  3  0  0  0  0  0  0
  185.4590  177.9340  143.2930 N   0  0  0  0  0  2  0  0  0  0  0  0
  186.7050  177.7210  145.4720 C   0  0  0  0  0  1  0  0  0  0  0  0
  185.7000  178.4120  144.6230 C   0  0  0  0  0  0  0  0  0  0  0  0
  185.0880  179.4120  145.0820 O   0  0  0  0  0  0  0  0  0  0  0  0
  1  7  1  0  0  0  0
  3  8  1  0  0  0  0
  4  1  2  0  0  0  0
  4 11  1  0  0  0  0
  5  9  1  0  0  0  0
  5 25  1  0  0  0  0
  6  3  1  0  0  0  0
  7  5  2  0  0  0  0
  8  2  1  0  0  0  0
 10  9  2  0  0  0  0
 10  2  1  0  0  0  0
 11  6  1  6  0  0  0
 11 10  1  0  0  0  0
 13 21  1  0  0  0  0
 13 22  1  0  0  0  0
 14 16  2  0  0  0  0
 14 21  1  0  0  0  0
 15 13  2  0  0  0  0
 16 17  1  0  0  0  0
 17 12  2  0  0  0  0
 18 15  1  0  0  0  0
 18 14  1  0  0  0  0
 19 16  1  0  0  0  0
 20 12  1  0  0  0  0
 20  4  1  0  0  0  0
 21 20  2  0  0  0  0
 23 24  2  0  0  0  0
 24 22  1  0  0  0  0
 25 27  1  0  0  0  0
 27 28  2  0  0  0  0
 27 26  1  0  0  0  0
M  END
>  <MODEL>
3

>  <REMARK>
 VINA RESULT:      -8.7      4.560      9.183
  Name = 
  4 active torsions:
  status: ('A' for Active; 'I' for Inactive)
    1  A    between atoms: N_3  and  C_15
    2  A    between atoms: C_5  and  N_19
    3  A    between atoms: C_9  and  C_22
    4  A    between atoms: C_14  and  N_19
                            x       y       z     vdW  Elec       q    Type
                         _______ _______ _______ _____ _____    ______ ____

>  <TORSDO>
F 4

$$$$
=
 OpenBabel10222417273D

 28 31  0  0  1  0  0  0  0  0999 V2000
  182.4280  176.3950  139.5820 C   0  0  0  0  0  3  0  0  0  0  0  0
  181.2670  179.3420  136.7510 O   0  0  0  0  0  0  0  0  0  0  0  0
  181.3500  180.7530  138.7230 C   0  0  0  0  0  2  0  0  0  0  0  0
  182.2140  177.7070  139.7000 C   0  0  0  0  0  0  0  0  0  0  0  0
  183.0990  176.1500  137.1540 C   0  0  0  0  0  0  0  0  0  0  0  0
  182.6970  180.1370  139.0740 C   0  0  0  0  0  2  0  0  0  0  0  0
  183.0860  175.7400  138.4360 C   0  0  0  0  0  3  0  0  0  0  0  0
  181.1800  180.6890  137.2140 C   0  0  0  0  0  2  0  0  0  0  0  0
  182.3310  177.2780  136.6960 N   0  0  0  0  0  0  0  0  0  0  0  0
  182.1240  178.3960  137.3260 C   0  0  0  0  0  0  0  0  0  0  0  0
  182.7590  178.6580  138.6670 C   0  0  2  0  0  3  0  0  0  0  0  0
  180.0780  178.2660  140.8740 C   0  0  0  0  0  3  0  0  0  0  0  0
  183.4630  178.6050  142.4440 C   0  0  0  0  0  0  0  0  0  0  0  0
  181.4590  178.9880  143.1690 C   0  0  0  0  0  0  0  0  0  0  0  0
  183.5440  179.0410  143.7220 N   0  0  0  0  0  0  0  0  0  0  0  0
  180.0690  179.0770  143.1830 C   0  0  0  0  0  0  0  0  0  0  0  0
  179.3750  178.7100  142.0160 C   0  0  0  0  0  3  0  0  0  0  0  0
  182.3130  179.2780  144.1690 N   0  0  0  0  0  2  0  0  0  0  0  0
  179.3850  179.5120  144.3100 O   0  0  0  0  0  1  0  0  0  0  0  0
  181.4850  178.1860  140.8850 C   0  0  0  0  0  0  0  0  0  0  0  0
  182.1410  178.5610  142.0630 C   0  0  0  0  0  0  0  0  0  0  0  0
  184.5820  178.2470  141.6230 N   0  0  0  0  0  2  0  0  0  0  0  0
  186.9740  178.6280  141.5240 C   0  0  0  0  0  2  0  0  0  0  0  0
  185.7310  179.0570  141.3470 C   0  0  0  0  0  3  0  0  0  0  0  0
  183.7520  175.3540  136.1540 N   0  0  0  0  0  2  0  0  0  0  0  0
  185.6420  174.4060  134.7850 C   0  0  0  0  0  1  0  0  0  0  0  0
  185.1460  175.3520  135.8180 C   0  0  0  0  0  0  0  0  0  0  0  0
  185.9550  176.1440  136.3690 O   0  0  0  0  0  0  0  0  0  0  0  0
  1  4  2  0  0  0  0
  2  8  1  0  0  0  0
  2 10  1  0  0  0  0
  3  6  1  0  0  0  0
  4 20  1  0  0  0  0
  5  7  2  0  0  0  0
  7  1  1  0  0  0  0
  8  3  1  0  0  0  0
  9  5  1  0  0  0  0
  9 10  2  0  0  0  0
 10 11  1  0  0  0  0
 11  6  1  1  0  0  0
 11  4  1  0  0  0  0
 12 20  2  0  0  0  0
 12 17  1  0  0  0  0
 13 15  2  0  0  0  0
 14 16  1  0  0  0  0
 14 18  1  0  0  0  0
 15 18  1  0  0  0  0
 16 19  1  0  0  0  0
 17 16  2  0  0  0  0
 20 21  1  0  0  0  0
 21 13  1  0  0  0  0
 21 14  2  0  0  0  0
 22 13  1  0  0  0  0
 24 23  2  0  0  0  0
 24 22  1  0  0  0  0
 25  5  1  0  0  0  0
 26 27  1  0  0  0  0
 27 25  1  0  0  0  0
 27 28  2  0  0  0  0
M  END
>  <MODEL>
4

>  <REMARK>
 VINA RESULT:      -8.2      4.152      7.203
  Name = 
  4 active torsions:
  status: ('A' for Active; 'I' for Inactive)
    1  A    between atoms: N_3  and  C_15
    2  A    between atoms: C_5  and  N_19
    3  A    between atoms: C_9  and  C_22
    4  A    between atoms: C_14  and  N_19
                            x       y       z     vdW  Elec       q    Type
                         _______ _______ _______ _____ _____    ______ ____

>  <TORSDO>
F 4

$$$$
=
 OpenBabel10222417273D

 28 31  0  0  1  0  0  0  0  0999 V2000
  182.5040  178.0410  142.2670 C   0  0  0  0  0  3  0  0  0  0  0  0
  186.3460  178.3030  140.4720 O   0  0  0  0  0  0  0  0  0  0  0  0
  184.9990  178.4860  138.4630 C   0  0  0  0  0  2  0  0  0  0  0  0
  182.8840  178.2180  140.9990 C   0  0  0  0  0  0  0  0  0  0  0  0
  184.4490  178.9920  143.5760 C   0  0  0  0  0  0  0  0  0  0  0  0
  184.1230  179.5080  139.1750 C   0  0  0  0  0  2  0  0  0  0  0  0
  183.1550  178.6470  143.4430 C   0  0  0  0  0  3  0  0  0  0  0  0
  186.3910  178.5520  139.0680 C   0  0  0  0  0  2  0  0  0  0  0  0
  185.4370  178.6860  142.5750 N   0  0  0  0  0  0  0  0  0  0  0  0
  185.2880  178.7280  141.2850 C   0  0  0  0  0  0  0  0  0  0  0  0
  183.9910  179.1850  140.6700 C   0  0  2  0  0  3  0  0  0  0  0  0
  182.6210  176.2310  139.5040 C   0  0  0  0  0  3  0  0  0  0  0  0
  180.2470  179.1280  139.5480 C   0  0  0  0  0  0  0  0  0  0  0  0
  180.3040  177.2900  138.4060 C   0  0  0  0  0  0  0  0  0  0  0  0
  179.1770  179.1010  138.7210 N   0  0  0  0  0  0  0  0  0  0  0  0
  180.7410  176.0490  137.9490 C   0  0  0  0  0  0  0  0  0  0  0  0
  181.9170  175.5180  138.5090 C   0  0  0  0  0  3  0  0  0  0  0  0
  179.2100  177.9720  138.0180 N   0  0  0  0  0  2  0  0  0  0  0  0
  180.0430  175.3530  136.9710 O   0  0  0  0  0  1  0  0  0  0  0  0
  182.1580  177.4850  139.9500 C   0  0  0  0  0  0  0  0  0  0  0  0
  180.9860  177.9810  139.3680 C   0  0  0  0  0  0  0  0  0  0  0  0
  180.5540  180.1870  140.4640 N   0  0  0  0  0  2  0  0  0  0  0  0
  179.5700  180.2920  142.6760 C   0  0  0  0  0  2  0  0  0  0  0  0
  179.6700  180.7560  141.4380 C   0  0  0  0  0  3  0  0  0  0  0  0
  184.9230  179.5270  144.8210 N   0  0  0  0  0  2  0  0  0  0  0  0
  186.0990  179.5820  147.0480 C   0  0  0  0  0  1  0  0  0  0  0  0
  185.6420  178.8330  145.8490 C   0  0  0  0  0  0  0  0  0  0  0  0
  185.8810  177.6000  145.7650 O   0  0  0  0  0  0  0  0  0  0  0  0
  1  7  1  0  0  0  0
  2 10  1  0  0  0  0
  3  8  1  0  0  0  0
  3  6  1  0  0  0  0
  4  1  2  0  0  0  0
  5 25  1  0  0  0  0
  7  5  2  0  0  0  0
  8  2  1  0  0  0  0
  9  5  1  0  0  0  0
 10  9  2  0  0  0  0
 11  6  1  6  0  0  0
 11  4  1  0  0  0  0
 11 10  1  0  0  0  0
 12 20  1  0  0  0  0
 13 22  1  0  0  0  0
 14 21  1  0  0  0  0
 15 13  2  0  0  0  0
 16 14  2  0  0  0  0
 16 17  1  0  0  0  0
 17 12  2  0  0  0  0
 18 14  1  0  0  0  0
 18 15  1  0  0  0  0
 19 16  1  0  0  0  0
 20  4  1  0  0  0  0
 21 13  1  0  0  0  0
 21 20  2  0  0  0  0
 22 24  1  0  0  0  0
 24 23  2  0  0  0  0
 25 27  1  0  0  0  0
 27 26  1  0  0  0  0
 28 27  2  0  0  0  0
M  END
>  <MODEL>
5

>  <REMARK>
 VINA RESULT:      -8.2      3.893      7.930
  Name = 
  4 active torsions:
  status: ('A' for Active; 'I' for Inactive)
    1  A    between atoms: N_3  and  C_15
    2  A    between atoms: C_5  and  N_19
    3  A    between atoms: C_9  and  C_22
    4  A    between atoms: C_14  and  N_19
                            x       y       z     vdW  Elec       q    Type
                         _______ _______ _______ _____ _____    ______ ____

>  <TORSDO>
F 4

$$$$
=
 OpenBabel10222417273D

 28 31  0  0  1  0  0  0  0  0999 V2000
  189.4950  177.8720  143.5260 C   0  0  0  0  0  3  0  0  0  0  0  0
  187.2080  178.5300  147.0450 O   0  0  0  0  0  0  0  0  0  0  0  0
  185.3930  177.9630  145.5390 C   0  0  0  0  0  2  0  0  0  0  0  0
  188.1870  177.7620  143.7710 C   0  0  0  0  0  0  0  0  0  0  0  0
  190.5300  177.4720  145.8010 C   0  0  0  0  0  0  0  0  0  0  0  0
  186.2060  176.7750  145.0480 C   0  0  0  0  0  2  0  0  0  0  0  0
  190.5710  177.4780  144.4550 C   0  0  0  0  0  3  0  0  0  0  0  0
  185.8080  178.2630  146.9700 C   0  0  0  0  0  2  0  0  0  0  0  0
  189.4090  177.9870  146.5420 N   0  0  0  0  0  0  0  0  0  0  0  0
  188.1500  177.8760  146.2420 C   0  0  0  0  0  0  0  0  0  0  0  0
  187.7080  177.0930  145.0330 C   0  0  2  0  0  3  0  0  0  0  0  0
  186.0530  178.9020  143.1410 C   0  0  0  0  0  3  0  0  0  0  0  0
  188.5330  177.6100  140.6490 C   0  0  0  0  0  0  0  0  0  0  0  0
  186.6340  178.6270  140.4420 C   0  0  0  0  0  0  0  0  0  0  0  0
  188.2750  177.7750  139.3320 N   0  0  0  0  0  0  0  0  0  0  0  0
  185.4460  179.2630  140.7980 C   0  0  0  0  0  0  0  0  0  0  0  0
  185.1570  179.3980  142.1680 C   0  0  0  0  0  3  0  0  0  0  0  0
  187.1080  178.4010  139.2030 N   0  0  0  0  0  2  0  0  0  0  0  0
  184.5720  179.7500  139.8360 O   0  0  0  0  0  1  0  0  0  0  0  0
  187.2480  178.2620  142.7550 C   0  0  0  0  0  0  0  0  0  0  0  0
  187.5000  178.1450  141.3840 C   0  0  0  0  0  0  0  0  0  0  0  0
  189.7010  176.9750  141.1860 N   0  0  0  0  0  2  0  0  0  0  0  0
  192.0170  177.5030  140.7020 C   0  0  0  0  0  2  0  0  0  0  0  0
  190.9420  176.7530  140.5030 C   0  0  0  0  0  3  0  0  0  0  0  0
  191.6980  177.1040  146.5500 N   0  0  0  0  0  2  0  0  0  0  0  0
  193.1580  175.7480  148.0910 C   0  0  0  0  0  1  0  0  0  0  0  0
  191.8410  175.9970  147.4500 C   0  0  0  0  0  0  0  0  0  0  0  0
  190.8710  175.2400  147.7190 O   0  0  0  0  0  0  0  0  0  0  0  0
  1  4  2  0  0  0  0
  1  7  1  0  0  0  0
  3  8  1  0  0  0  0
  4 11  1  0  0  0  0
  5  9  1  0  0  0  0
  5 25  1  0  0  0  0
  6  3  1  0  0  0  0
  7  5  2  0  0  0  0
  8  2  1  0  0  0  0
 10  9  2  0  0  0  0
 10  2  1  0  0  0  0
 11  6  1  6  0  0  0
 11 10  1  0  0  0  0
 13 22  1  0  0  0  0
 13 21  1  0  0  0  0
 14 16  2  0  0  0  0
 14 21  1  0  0  0  0
 15 13  2  0  0  0  0
 16 17  1  0  0  0  0
 17 12  2  0  0  0  0
 18 15  1  0  0  0  0
 18 14  1  0  0  0  0
 19 16  1  0  0  0  0
 20 12  1  0  0  0  0
 20  4  1  0  0  0  0
 21 20  2  0  0  0  0
 24 23  2  0  0  0  0
 24 22  1  0  0  0  0
 25 27  1  0  0  0  0
 27 28  2  0  0  0  0
 27 26  1  0  0  0  0
M  END
>  <MODEL>
6

>  <REMARK>
 VINA RESULT:      -8.1      2.699      6.995
  Name = 
  4 active torsions:
  status: ('A' for Active; 'I' for Inactive)
    1  A    between atoms: N_3  and  C_15
    2  A    between atoms: C_5  and  N_19
    3  A    between atoms: C_9  and  C_22
    4  A    between atoms: C_14  and  N_19
                            x       y       z     vdW  Elec       q    Type
                         _______ _______ _______ _____ _____    ______ ____

>  <TORSDO>
F 4

$$$$
=
 OpenBabel10222417273D

 28 31  0  0  1  0  0  0  0  0999 V2000
  187.6000  177.2300  144.5180 C   0  0  0  0  0  3  0  0  0  0  0  0
  189.5600  176.7530  140.7790 O   0  0  0  0  0  0  0  0  0  0  0  0
  187.9670  178.4640  140.1330 C   0  0  0  0  0  2  0  0  0  0  0  0
  187.4430  177.8490  143.3460 C   0  0  0  0  0  0  0  0  0  0  0  0
  190.0170  176.4860  144.4440 C   0  0  0  0  0  0  0  0  0  0  0  0
  188.3270  179.2390  141.3920 C   0  0  0  0  0  2  0  0  0  0  0  0
  188.8930  176.8260  145.1010 C   0  0  0  0  0  3  0  0  0  0  0  0
  189.1740  177.6340  139.7260 C   0  0  0  0  0  2  0  0  0  0  0  0
  190.0650  176.3540  143.0110 N   0  0  0  0  0  0  0  0  0  0  0  0
  189.4650  177.1000  142.1320 C   0  0  0  0  0  0  0  0  0  0  0  0
  188.6480  178.2920  142.5580 C   0  0  2  0  0  3  0  0  0  0  0  0
  185.7060  177.8780  141.5470 C   0  0  0  0  0  3  0  0  0  0  0  0
  185.0630  178.9590  145.0760 C   0  0  0  0  0  0  0  0  0  0  0  0
  183.8060  178.8560  143.3160 C   0  0  0  0  0  0  0  0  0  0  0  0
  183.8210  179.3780  145.4090 N   0  0  0  0  0  0  0  0  0  0  0  0
  183.4190  178.6210  141.9990 C   0  0  0  0  0  0  0  0  0  0  0  0
  184.3870  178.1250  141.1070 C   0  0  0  0  0  3  0  0  0  0  0  0
  183.0470  179.3150  144.3290 N   0  0  0  0  0  2  0  0  0  0  0  0
  182.1200  178.8640  141.5740 O   0  0  0  0  0  1  0  0  0  0  0  0
  186.0730  178.1240  142.8850 C   0  0  0  0  0  0  0  0  0  0  0  0
  185.0830  178.6180  143.7430 C   0  0  0  0  0  0  0  0  0  0  0  0
  186.1760  178.8840  145.9760 N   0  0  0  0  0  0  0  0  0  0  0  0
  187.1960  178.2730  148.0880 C   0  0  0  0  0  1  0  0  0  0  0  0
  186.1220  178.5900  147.3770 C   0  0  0  0  0  3  0  0  0  0  0  0
  191.1770  176.0660  145.1790 N   0  0  0  0  0  2  0  0  0  0  0  0
  192.6500  175.6280  147.1750 C   0  0  0  0  0  1  0  0  0  0  0  0
  191.3990  176.1780  146.5910 C   0  0  0  0  0  0  0  0  0  0  0  0
  190.5650  176.7450  147.3430 O   0  0  0  0  0  0  0  0  0  0  0  0
  1  7  1  0  0  0  0
  2 10  1  0  0  0  0
  3  6  1  0  0  0  0
  4  1  2  0  0  0  0
  5  7  2  0  0  0  0
  5 25  1  0  0  0  0
  8  3  1  0  0  0  0
  8  2  1  0  0  0  0
  9  5  1  0  0  0  0
 10 11  1  0  0  0  0
 10  9  2  0  0  0  0
 11  6  1  6  0  0  0
 11  4  1  0  0  0  0
 12 20  1  0  0  0  0
 13 15  2  0  0  0  0
 13 22  1  0  0  0  0
 14 21  1  0  0  0  0
 14 18  1  0  0  0  0
 16 14  2  0  0  0  0
 17 12  2  0  0  0  0
 17 16  1  0  0  0  0
 18 15  1  0  0  0  0
 19 16  1  0  0  0  0
 20  4  1  0  0  0  0
 20 21  2  0  0  0  0
 21 13  1  0  0  0  0
 22 24  2  0  0  0  0
 24 23  1  0  0  0  0
 25 27  1  0  0  0  0
 27 26  1  0  0  0  0
 27 28  2  0  0  0  0
M  END
>  <MODEL>
7

>  <REMARK>
 VINA RESULT:      -8.0      2.396      5.620
  Name = 
  4 active torsions:
  status: ('A' for Active; 'I' for Inactive)
    1  A    between atoms: N_3  and  C_15
    2  A    between atoms: C_5  and  N_19
    3  A    between atoms: C_9  and  C_22
    4  A    between atoms: C_14  and  N_19
                            x       y       z     vdW  Elec       q    Type
                         _______ _______ _______ _____ _____    ______ ____

>  <TORSDO>
F 4

$$$$
=
 OpenBabel10222417273D

 28 31  0  0  1  0  0  0  0  0999 V2000
  185.3290  178.5870  138.3570 C   0  0  0  0  0  3  0  0  0  0  0  0
  185.3050  179.6580  142.4680 O   0  0  0  0  0  0  0  0  0  0  0  0
  182.9800  179.0030  142.2550 C   0  0  0  0  0  2  0  0  0  0  0  0
  184.3680  178.5420  139.2830 C   0  0  0  0  0  0  0  0  0  0  0  0
  187.4450  178.3800  139.7310 C   0  0  0  0  0  0  0  0  0  0  0  0
  183.4280  177.7470  141.5210 C   0  0  0  0  0  2  0  0  0  0  0  0
  186.7480  178.2530  138.5860 C   0  0  0  0  0  3  0  0  0  0  0  0
  184.0980  179.4280  143.1920 C   0  0  0  0  0  2  0  0  0  0  0  0
  186.8940  179.0000  140.9070 N   0  0  0  0  0  0  0  0  0  0  0  0
  185.6770  178.8990  141.3520 C   0  0  0  0  0  0  0  0  0  0  0  0
  184.6710  178.0160  140.6620 C   0  0  2  0  0  3  0  0  0  0  0  0
  182.6560  180.3320  138.9420 C   0  0  0  0  0  3  0  0  0  0  0  0
  182.0280  176.6990  138.2750 C   0  0  0  0  0  0  0  0  0  0  0  0
  180.7910  178.4650  138.0820 C   0  0  0  0  0  0  0  0  0  0  0  0
  180.8130  176.3260  137.8120 N   0  0  0  0  0  0  0  0  0  0  0  0
  180.4120  179.8060  138.1190 C   0  0  0  0  0  0  0  0  0  0  0  0
  181.3620  180.7470  138.5560 C   0  0  0  0  0  3  0  0  0  0  0  0
  180.0520  177.4100  137.6930 N   0  0  0  0  0  2  0  0  0  0  0  0
  179.1390  180.2060  137.7360 O   0  0  0  0  0  1  0  0  0  0  0  0
  183.0150  178.9700  138.8970 C   0  0  0  0  0  0  0  0  0  0  0  0
  182.0430  178.0630  138.4580 C   0  0  0  0  0  0  0  0  0  0  0  0
  183.1210  175.8090  138.5330 N   0  0  0  0  0  2  0  0  0  0  0  0
  184.9430  175.1180  137.0910 C   0  0  0  0  0  2  0  0  0  0  0  0
  183.7330  174.9150  137.5940 C   0  0  0  0  0  3  0  0  0  0  0  0
  188.8420  178.0510  139.7580 N   0  0  0  0  0  2  0  0  0  0  0  0
  190.9870  177.0160  140.5780 C   0  0  0  0  0  1  0  0  0  0  0  0
  189.5400  177.3010  140.7610 C   0  0  0  0  0  0  0  0  0  0  0  0
  188.9570  176.8920  141.7990 O   0  0  0  0  0  0  0  0  0  0  0  0
  1  7  1  0  0  0  0
  1  4  2  0  0  0  0
  2  8  1  0  0  0  0
  3  8  1  0  0  0  0
  4 11  1  0  0  0  0
  5 25  1  0  0  0  0
  5  9  1  0  0  0  0
  6  3  1  0  0  0  0
  7  5  2  0  0  0  0
  9 10  2  0  0  0  0
 10  2  1  0  0  0  0
 11 10  1  0  0  0  0
 11  6  1  1  0  0  0
 13 21  1  0  0  0  0
 13 22  1  0  0  0  0
 14 16  2  0  0  0  0
 14 21  1  0  0  0  0
 15 13  2  0  0  0  0
 16 17  1  0  0  0  0
 17 12  2  0  0  0  0
 18 15  1  0  0  0  0
 18 14  1  0  0  0  0
 19 16  1  0  0  0  0
 20 12  1  0  0  0  0
 20  4  1  0  0  0  0
 21 20  2  0  0  0  0
 23 24  2  0  0  0  0
 24 22  1  0  0  0  0
 25 27  1  0  0  0  0
 26 27  1  0  0  0  0
 27 28  2  0  0  0  0
M  END
>  <MODEL>
8

>  <REMARK>
 VINA RESULT:      -8.0      4.034      7.449
  Name = 
  4 active torsions:
  status: ('A' for Active; 'I' for Inactive)
    1  A    between atoms: N_3  and  C_15
    2  A    between atoms: C_5  and  N_19
    3  A    between atoms: C_9  and  C_22
    4  A    between atoms: C_14  and  N_19
                            x       y       z     vdW  Elec       q    Type
                         _______ _______ _______ _____ _____    ______ ____

>  <TORSDO>
F 4

$$$$
=
 OpenBabel10222417273D

 28 31  0  0  1  0  0  0  0  0999 V2000
  189.0860  176.8550  146.4660 C   0  0  0  0  0  3  0  0  0  0  0  0
  191.9030  176.6640  143.2910 O   0  0  0  0  0  0  0  0  0  0  0  0
  190.3450  178.2320  142.2930 C   0  0  0  0  0  2  0  0  0  0  0  0
  189.1480  177.4870  145.2910 C   0  0  0  0  0  0  0  0  0  0  0  0
  191.5160  176.3460  146.9590 C   0  0  0  0  0  0  0  0  0  0  0  0
  190.3230  179.0050  143.6050 C   0  0  0  0  0  2  0  0  0  0  0  0
  190.2410  176.5600  147.3350 C   0  0  0  0  0  3  0  0  0  0  0  0
  191.6880  177.5310  142.1790 C   0  0  0  0  0  2  0  0  0  0  0  0
  191.9100  176.2560  145.5780 N   0  0  0  0  0  0  0  0  0  0  0  0
  191.4600  176.9650  144.5850 C   0  0  0  0  0  0  0  0  0  0  0  0
  190.4540  178.0630  144.8100 C   0  0  2  0  0  3  0  0  0  0  0  0
  187.8240  177.1870  143.1910 C   0  0  0  0  0  3  0  0  0  0  0  0
  186.4560  178.7570  146.3050 C   0  0  0  0  0  0  0  0  0  0  0  0
  185.5940  178.3500  144.3620 C   0  0  0  0  0  0  0  0  0  0  0  0
  185.1700  179.1780  146.3080 N   0  0  0  0  0  0  0  0  0  0  0  0
  185.4900  177.9080  143.0440 C   0  0  0  0  0  0  0  0  0  0  0  0
  186.6250  177.3200  142.4570 C   0  0  0  0  0  3  0  0  0  0  0  0
  184.6390  178.9280  145.1140 N   0  0  0  0  0  2  0  0  0  0  0  0
  184.3070  178.0410  142.3290 O   0  0  0  0  0  1  0  0  0  0  0  0
  187.9030  177.6420  144.5220 C   0  0  0  0  0  0  0  0  0  0  0  0
  186.7550  178.2230  145.0720 C   0  0  0  0  0  0  0  0  0  0  0  0
  187.3580  178.8560  147.4150 N   0  0  0  0  0  0  0  0  0  0  0  0
  188.1750  178.1380  149.5810 C   0  0  0  0  0  1  0  0  0  0  0  0
  187.1830  178.2680  148.7100 C   0  0  0  0  0  3  0  0  0  0  0  0
  192.5070  176.0190  147.9450 N   0  0  0  0  0  2  0  0  0  0  0  0
  193.9290  176.2770  150.0080 C   0  0  0  0  0  1  0  0  0  0  0  0
  192.9220  176.8200  149.0600 C   0  0  0  0  0  0  0  0  0  0  0  0
  192.4610  177.9770  149.2440 O   0  0  0  0  0  0  0  0  0  0  0  0
  1  7  1  0  0  0  0
  2 10  1  0  0  0  0
  3  6  1  0  0  0  0
  4  1  2  0  0  0  0
  5  7  2  0  0  0  0
  5 25  1  0  0  0  0
  8  3  1  0  0  0  0
  8  2  1  0  0  0  0
  9  5  1  0  0  0  0
 10 11  1  0  0  0  0
 10  9  2  0  0  0  0
 11  6  1  6  0  0  0
 11  4  1  0  0  0  0
 12 20  1  0  0  0  0
 13 15  2  0  0  0  0
 13 22  1  0  0  0  0
 14 21  1  0  0  0  0
 14 18  1  0  0  0  0
 16 14  2  0  0  0  0
 17 16  1  0  0  0  0
 17 12  2  0  0  0  0
 18 15  1  0  0  0  0
 19 16  1  0  0  0  0
 20 21  2  0  0  0  0
 20  4  1  0  0  0  0
 21 13  1  0  0  0  0
 22 24  2  0  0  0  0
 24 23  1  0  0  0  0
 25 27  1  0  0  0  0
 27 28  2  0  0  0  0
 27 26  1  0  0  0  0
M  END
>  <MODEL>
9

>  <REMARK>
 VINA RESULT:      -8.0      3.072      6.480
  Name = 
  4 active torsions:
  status: ('A' for Active; 'I' for Inactive)
    1  A    between atoms: N_3  and  C_15
    2  A    between atoms: C_5  and  N_19
    3  A    between atoms: C_9  and  C_22
    4  A    between atoms: C_14  and  N_19
                            x       y       z     vdW  Elec       q    Type
                         _______ _______ _______ _____ _____    ______ ____

>  <TORSDO>
F 4

$$$$
