=
 OpenBabel10222416553D

 28 33  0  0  1  0  0  0  0  0999 V2000
  185.9230  178.2940  146.1460 C   0  0  0  0  0  3  0  0  0  0  0  0
  184.6880  178.6170  146.6130 N   0  0  0  0  0  0  0  0  0  0  0  0
  183.6660  178.8500  145.7840 N   0  0  0  0  0  0  0  0  0  0  0  0
  183.8200  178.7750  144.4370 C   0  0  0  0  0  0  0  0  0  0  0  0
  186.1400  178.2040  144.7710 C   0  0  0  0  0  3  0  0  0  0  0  0
  180.3590  179.2540  141.9570 C   0  0  0  0  0  2  0  0  0  0  0  0
  184.3980  179.8200  139.6220 O   0  0  0  0  0  1  0  0  0  0  0  0
  182.7440  179.0240  143.5850 C   0  0  0  0  0  3  0  0  0  0  0  0
  182.8970  178.9320  142.1910 C   0  0  0  0  0  0  0  0  0  0  0  0
  181.1330  178.9560  138.6380 O   0  0  0  0  0  0  0  0  0  0  0  0
  181.7350  179.2700  141.2750 C   0  0  1  0  0  3  0  0  0  0  0  0
  185.2530  178.3760  142.5220 C   0  0  0  0  0  3  0  0  0  0  0  0
  184.4300  178.5390  140.1810 C   0  0  2  0  0  3  0  0  0  0  0  0
  180.6310  176.7760  140.2120 C   0  0  0  0  0  2  0  0  0  0  0  0
  179.9350  177.8910  142.2750 N   0  0  0  0  0  2  0  0  0  0  0  0
  185.0780  178.4470  143.9040 C   0  0  0  0  0  0  0  0  0  0  0  0
  181.6980  178.1870  139.8090 P   0  0  1  0  0  0  0  0  0  0  0  0
  183.4090  177.6170  139.5150 C   0  0  1  0  0  3  0  0  0  0  0  0
  179.4560  177.2650  141.0460 C   0  0  0  0  0  2  0  0  0  0  0  0
  184.1780  178.6190  141.6610 C   0  0  0  0  0  0  0  0  0  0  0  0
  183.1290  175.8920  137.6000 C   0  0  0  0  0  2  0  0  0  0  0  0
  185.1550  174.7260  136.7260 C   0  0  0  0  0  3  0  0  0  0  0  0
  185.5480  177.2250  136.2980 C   0  0  1  0  0  3  0  0  0  0  0  0
  183.7590  177.2180  138.0750 C   0  0  2  0  0  3  0  0  0  0  0  0
  185.2570  177.3630  137.7920 C   0  0  0  0  0  2  0  0  0  0  0  0
  184.0970  174.7430  137.5480 C   0  0  0  0  0  3  0  0  0  0  0  0
  186.6940  176.4320  136.1140 O   0  0  0  0  0  0  0  0  0  0  0  0
  185.4740  175.8310  135.7480 C   0  0  1  0  0  3  0  0  0  0  0  0
  1  2  1  0  0  0  0
  3  2  2  0  0  0  0
  4  3  1  0  0  0  0
  5  1  2  0  0  0  0
  6 15  1  0  0  0  0
  8  4  2  0  0  0  0
  9  8  1  0  0  0  0
 11  6  1  1  0  0  0
 11  9  1  0  0  0  0
 12 16  2  0  0  0  0
 13  7  1  6  0  0  0
 13 20  1  0  0  0  0
 14 19  1  0  0  0  0
 16  4  1  0  0  0  0
 16  5  1  0  0  0  0
 17 10  2  6  0  0  0
 17 14  1  0  0  0  0
 17 11  1  0  0  0  0
 18 24  1  6  0  0  0
 18 17  1  0  0  0  0
 18 13  1  0  0  0  0
 19 15  1  0  0  0  0
 20  9  2  0  0  0  0
 20 12  1  0  0  0  0
 22 26  2  0  0  0  0
 23 25  1  1  0  0  0
 24 21  1  1  0  0  0
 25 24  1  0  0  0  0
 26 21  1  0  0  0  0
 27 23  1  0  0  0  0
 28 27  1  0  0  0  0
 28 23  1  0  0  0  0
 28 22  1  1  0  0  0
M  END
>  <MODEL>
1

>  <REMARK>
 VINA RESULT:      -8.8      0.000      0.000
  Name = 
  1 active torsions:
  status: ('A' for Active; 'I' for Inactive)
    1  A    between atoms: C_8  and  C_26
                            x       y       z     vdW  Elec       q    Type
                         _______ _______ _______ _____ _____    ______ ____

>  <TORSDO>
F 1

$$$$
=
 OpenBabel10222416553D

 28 33  0  0  1  0  0  0  0  0999 V2000
  185.8800  178.3720  146.0720 C   0  0  0  0  0  3  0  0  0  0  0  0
  184.6960  178.8330  146.5560 N   0  0  0  0  0  0  0  0  0  0  0  0
  183.6490  179.0460  145.7540 N   0  0  0  0  0  0  0  0  0  0  0  0
  183.7250  178.8110  144.4180 C   0  0  0  0  0  0  0  0  0  0  0  0
  186.0170  178.1150  144.7090 C   0  0  0  0  0  3  0  0  0  0  0  0
  180.1740  179.2600  142.0620 C   0  0  0  0  0  2  0  0  0  0  0  0
  184.1110  179.2720  139.4940 O   0  0  0  0  0  1  0  0  0  0  0  0
  182.6230  179.0410  143.5940 C   0  0  0  0  0  3  0  0  0  0  0  0
  182.6950  178.7840  142.2150 C   0  0  0  0  0  0  0  0  0  0  0  0
  180.7470  178.5420  138.7670 O   0  0  0  0  0  0  0  0  0  0  0  0
  181.5100  179.1020  141.3200 C   0  0  1  0  0  3  0  0  0  0  0  0
  185.0230  178.1000  142.4980 C   0  0  0  0  0  3  0  0  0  0  0  0
  184.0880  178.0620  140.1940 C   0  0  2  0  0  3  0  0  0  0  0  0
  180.1880  176.5910  140.6000 C   0  0  0  0  0  2  0  0  0  0  0  0
  179.6790  177.9750  142.5520 N   0  0  0  0  0  2  0  0  0  0  0  0
  184.9280  178.3360  143.8690 C   0  0  0  0  0  0  0  0  0  0  0  0
  181.3230  177.8680  139.9910 P   0  0  1  0  0  0  0  0  0  0  0  0
  182.9740  177.1480  139.6850 C   0  0  1  0  0  3  0  0  0  0  0  0
  179.0940  177.2530  141.4260 C   0  0  0  0  0  2  0  0  0  0  0  0
  183.9210  178.3240  141.6650 C   0  0  0  0  0  0  0  0  0  0  0  0
  183.4880  177.6170  137.1880 C   0  0  0  0  0  2  0  0  0  0  0  0
  181.8380  176.8900  135.4620 C   0  0  0  0  0  3  0  0  0  0  0  0
  182.5910  174.7470  136.6570 C   0  0  1  0  0  3  0  0  0  0  0  0
  183.2180  176.5680  138.2860 C   0  0  2  0  0  3  0  0  0  0  0  0
  182.1820  175.5000  137.9230 C   0  0  0  0  0  2  0  0  0  0  0  0
  182.3230  177.8460  136.2660 C   0  0  0  0  0  3  0  0  0  0  0  0
  181.4660  174.5700  135.8320 O   0  0  0  0  0  0  0  0  0  0  0  0
  182.4190  175.4990  135.3700 C   0  0  1  0  0  3  0  0  0  0  0  0
  1  2  1  0  0  0  0
  3  2  2  0  0  0  0
  4  3  1  0  0  0  0
  5  1  2  0  0  0  0
  6 15  1  0  0  0  0
  8  4  2  0  0  0  0
  9  8  1  0  0  0  0
 11  6  1  1  0  0  0
 11  9  1  0  0  0  0
 12 16  2  0  0  0  0
 13  7  1  6  0  0  0
 13 20  1  0  0  0  0
 14 19  1  0  0  0  0
 16  4  1  0  0  0  0
 16  5  1  0  0  0  0
 17 10  2  6  0  0  0
 17 14  1  0  0  0  0
 17 11  1  0  0  0  0
 18 24  1  6  0  0  0
 18 17  1  0  0  0  0
 18 13  1  0  0  0  0
 19 15  1  0  0  0  0
 20  9  2  0  0  0  0
 20 12  1  0  0  0  0
 22 26  2  0  0  0  0
 23 25  1  1  0  0  0
 24 21  1  6  0  0  0
 25 24  1  0  0  0  0
 26 21  1  0  0  0  0
 27 23  1  0  0  0  0
 28 22  1  1  0  0  0
 28 27  1  0  0  0  0
 28 23  1  0  0  0  0
M  END
>  <MODEL>
2

>  <REMARK>
 VINA RESULT:      -7.6      1.448      1.959
  Name = 
  1 active torsions:
  status: ('A' for Active; 'I' for Inactive)
    1  A    between atoms: C_8  and  C_26
                            x       y       z     vdW  Elec       q    Type
                         _______ _______ _______ _____ _____    ______ ____

>  <TORSDO>
F 1

$$$$
=
 OpenBabel10222416553D

 28 33  0  0  1  0  0  0  0  0999 V2000
  186.3860  177.8480  145.3430 C   0  0  0  0  0  3  0  0  0  0  0  0
  185.1350  178.2510  144.9950 N   0  0  0  0  0  0  0  0  0  0  0  0
  184.8100  178.4990  143.7230 N   0  0  0  0  0  0  0  0  0  0  0  0
  185.7200  178.3580  142.7230 C   0  0  0  0  0  0  0  0  0  0  0  0
  187.3610  177.6880  144.3590 C   0  0  0  0  0  3  0  0  0  0  0  0
  184.4060  178.9010  138.6800 C   0  0  0  0  0  2  0  0  0  0  0  0
  189.0740  179.1640  139.1590 O   0  0  0  0  0  1  0  0  0  0  0  0
  185.3650  178.6230  141.4000 C   0  0  0  0  0  3  0  0  0  0  0  0
  186.2990  178.4630  140.3620 C   0  0  0  0  0  0  0  0  0  0  0  0
  186.9550  178.4210  136.4500 O   0  0  0  0  0  0  0  0  0  0  0  0
  185.9180  178.8190  138.9360 C   0  0  1  0  0  3  0  0  0  0  0  0
  187.9720  177.8060  142.0160 C   0  0  0  0  0  3  0  0  0  0  0  0
  188.6890  177.9090  139.6370 C   0  0  2  0  0  3  0  0  0  0  0  0
  185.4860  176.3390  137.4420 C   0  0  0  0  0  2  0  0  0  0  0  0
  183.7880  177.5760  138.6960 N   0  0  0  0  0  2  0  0  0  0  0  0
  187.0270  177.9450  143.0320 C   0  0  0  0  0  0  0  0  0  0  0  0
  186.6760  177.6770  137.7340 P   0  0  1  0  0  0  0  0  0  0  0  0
  188.1940  177.0100  138.5040 C   0  0  1  0  0  3  0  0  0  0  0  0
  184.0800  176.9220  137.4240 C   0  0  0  0  0  2  0  0  0  0  0  0
  187.6230  178.0650  140.6860 C   0  0  0  0  0  0  0  0  0  0  0  0
  188.8510  175.4450  136.5450 C   0  0  0  0  0  2  0  0  0  0  0  0
  190.6450  173.7490  136.9110 C   0  0  0  0  0  3  0  0  0  0  0  0
  191.7520  176.0310  137.2970 C   0  0  1  0  0  3  0  0  0  0  0  0
  189.2930  176.5320  137.5460 C   0  0  2  0  0  3  0  0  0  0  0  0
  190.6040  176.2420  138.2830 C   0  0  0  0  0  2  0  0  0  0  0  0
  189.3430  174.0660  136.8870 C   0  0  0  0  0  3  0  0  0  0  0  0
  192.5370  174.9420  137.7160 O   0  0  0  0  0  0  0  0  0  0  0  0
  191.7500  174.7190  136.5690 C   0  0  1  0  0  3  0  0  0  0  0  0
  2  1  1  0  0  0  0
  3  2  2  0  0  0  0
  4 16  1  0  0  0  0
  4  3  1  0  0  0  0
  5  1  2  0  0  0  0
  6 15  1  0  0  0  0
  8  4  2  0  0  0  0
  9 20  2  0  0  0  0
  9  8  1  0  0  0  0
 11  6  1  1  0  0  0
 11  9  1  0  0  0  0
 12 16  2  0  0  0  0
 13  7  1  6  0  0  0
 13 20  1  0  0  0  0
 14 17  1  0  0  0  0
 16  5  1  0  0  0  0
 17 10  2  6  0  0  0
 17 18  1  0  0  0  0
 17 11  1  0  0  0  0
 18 24  1  6  0  0  0
 18 13  1  0  0  0  0
 19 14  1  0  0  0  0
 19 15  1  0  0  0  0
 20 12  1  0  0  0  0
 21 26  1  0  0  0  0
 23 27  1  0  0  0  0
 23 25  1  1  0  0  0
 24 21  1  1  0  0  0
 24 25  1  0  0  0  0
 26 22  2  0  0  0  0
 28 22  1  1  0  0  0
 28 23  1  0  0  0  0
 28 27  1  0  0  0  0
M  END
>  <MODEL>
3

>  <REMARK>
 VINA RESULT:      -7.5      3.693      4.727
  Name = 
  1 active torsions:
  status: ('A' for Active; 'I' for Inactive)
    1  A    between atoms: C_8  and  C_26
                            x       y       z     vdW  Elec       q    Type
                         _______ _______ _______ _____ _____    ______ ____

>  <TORSDO>
F 1

$$$$
=
 OpenBabel10222416553D

 28 33  0  0  1  0  0  0  0  0999 V2000
  181.8140  178.0050  139.0010 C   0  0  0  0  0  3  0  0  0  0  0  0
  182.7460  178.2280  138.0370 N   0  0  0  0  0  0  0  0  0  0  0  0
  184.0340  178.4150  138.3400 N   0  0  0  0  0  0  0  0  0  0  0  0
  184.4650  178.3900  139.6280 C   0  0  0  0  0  0  0  0  0  0  0  0
  182.1990  177.9710  140.3410 C   0  0  0  0  0  3  0  0  0  0  0  0
  188.6730  178.7020  140.3750 C   0  0  0  0  0  2  0  0  0  0  0  0
  186.0500  179.6130  144.1670 O   0  0  0  0  0  1  0  0  0  0  0  0
  185.8130  178.5890  139.9280 C   0  0  0  0  0  3  0  0  0  0  0  0
  186.2650  178.5490  141.2580 C   0  0  0  0  0  0  0  0  0  0  0  0
  189.3750  178.5550  143.7200 O   0  0  0  0  0  0  0  0  0  0  0  0
  187.7230  178.8330  141.5740 C   0  0  1  0  0  3  0  0  0  0  0  0
  183.9690  178.1470  141.9880 C   0  0  0  0  0  3  0  0  0  0  0  0
  185.7190  178.3220  143.7470 C   0  0  2  0  0  3  0  0  0  0  0  0
  189.0480  176.3010  142.2070 C   0  0  0  0  0  2  0  0  0  0  0  0
  188.8530  177.3050  139.9850 N   0  0  0  0  0  2  0  0  0  0  0  0
  183.5400  178.1650  140.6620 C   0  0  0  0  0  0  0  0  0  0  0  0
  188.3270  177.7930  142.9440 P   0  0  1  0  0  0  0  0  0  0  0  0
  186.8790  177.3520  143.9680 C   0  0  1  0  0  3  0  0  0  0  0  0
  189.7790  176.6840  140.9280 C   0  0  0  0  0  2  0  0  0  0  0  0
  185.3190  178.3410  142.2980 C   0  0  0  0  0  0  0  0  0  0  0  0
  186.0510  177.4570  146.4220 C   0  0  0  0  0  2  0  0  0  0  0  0
  187.4140  178.7060  148.0990 C   0  0  0  0  0  3  0  0  0  0  0  0
  188.9300  176.8300  147.2230 C   0  0  1  0  0  3  0  0  0  0  0  0
  187.1570  177.0200  145.4400 C   0  0  2  0  0  3  0  0  0  0  0  0
  188.5810  177.4060  145.8520 C   0  0  0  0  0  2  0  0  0  0  0  0
  186.3990  178.6800  147.2250 C   0  0  0  0  0  3  0  0  0  0  0  0
  189.6100  177.8010  147.9810 O   0  0  0  0  0  0  0  0  0  0  0  0
  188.2940  177.5160  148.3960 C   0  0  1  0  0  3  0  0  0  0  0  0
  1  5  1  0  0  0  0
  2  3  1  0  0  0  0
  2  1  2  0  0  0  0
  3  4  2  0  0  0  0
  4  8  1  0  0  0  0
  4 16  1  0  0  0  0
  5 16  2  0  0  0  0
  8  9  2  0  0  0  0
  9 11  1  0  0  0  0
  9 20  1  0  0  0  0
 11  6  1  6  0  0  0
 11 17  1  0  0  0  0
 12 20  2  0  0  0  0
 13 18  1  0  0  0  0
 13  7  1  6  0  0  0
 14 17  1  0  0  0  0
 15  6  1  0  0  0  0
 15 19  1  0  0  0  0
 16 12  1  0  0  0  0
 17 10  2  1  0  0  0
 17 18  1  0  0  0  0
 18 24  1  1  0  0  0
 19 14  1  0  0  0  0
 20 13  1  0  0  0  0
 21 26  1  0  0  0  0
 23 25  1  6  0  0  0
 23 27  1  0  0  0  0
 23 28  1  0  0  0  0
 24 25  1  1  0  0  0
 24 21  1  0  0  0  0
 26 22  2  0  0  0  0
 27 28  1  0  0  0  0
 28 22  1  6  0  0  0
M  END
>  <MODEL>
4

>  <REMARK>
 VINA RESULT:      -7.2      4.137      8.136
  Name = 
  1 active torsions:
  status: ('A' for Active; 'I' for Inactive)
    1  A    between atoms: C_8  and  C_26
                            x       y       z     vdW  Elec       q    Type
                         _______ _______ _______ _____ _____    ______ ____

>  <TORSDO>
F 1

$$$$
=
 OpenBabel10222416553D

 28 33  0  0  1  0  0  0  0  0999 V2000
  179.2860  173.0070  138.5640 C   0  0  0  0  0  3  0  0  0  0  0  0
  179.7130  173.1520  137.2820 N   0  0  0  0  0  0  0  0  0  0  0  0
  180.5090  174.1630  136.9210 N   0  0  0  0  0  0  0  0  0  0  0  0
  180.9230  175.0910  137.8230 C   0  0  0  0  0  0  0  0  0  0  0  0
  179.6780  173.9300  139.5330 C   0  0  0  0  0  3  0  0  0  0  0  0
  183.7150  178.0780  136.5430 C   0  0  0  0  0  2  0  0  0  0  0  0
  181.5010  179.2060  140.5320 O   0  0  0  0  0  1  0  0  0  0  0  0
  181.7520  176.1410  137.4300 C   0  0  0  0  0  3  0  0  0  0  0  0
  182.1940  177.0930  138.3650 C   0  0  0  0  0  0  0  0  0  0  0  0
  184.5560  180.1970  139.0940 O   0  0  0  0  0  0  0  0  0  0  0  0
  183.0420  178.2680  137.9090 C   0  0  1  0  0  3  0  0  0  0  0  0
  180.9170  175.9350  140.0960 C   0  0  0  0  0  3  0  0  0  0  0  0
  182.1520  177.9900  140.7600 C   0  0  2  0  0  3  0  0  0  0  0  0
  185.8110  177.7940  138.7320 C   0  0  0  0  0  2  0  0  0  0  0  0
  184.8020  177.1020  136.6130 N   0  0  0  0  0  2  0  0  0  0  0  0
  180.5070  174.9850  139.1610 C   0  0  0  0  0  0  0  0  0  0  0  0
  184.3010  178.7090  139.1510 P   0  0  1  0  0  0  0  0  0  0  0  0
  183.6700  178.1670  140.7780 C   0  0  1  0  0  3  0  0  0  0  0  0
  185.9610  177.7530  137.2170 C   0  0  0  0  0  2  0  0  0  0  0  0
  181.7520  176.9900  139.7110 C   0  0  0  0  0  0  0  0  0  0  0  0
  185.7330  178.8140  142.2090 C   0  0  0  0  0  2  0  0  0  0  0  0
  185.8140  178.0930  144.5970 C   0  0  0  0  0  3  0  0  0  0  0  0
  183.7420  179.5930  144.3890 C   0  0  1  0  0  3  0  0  0  0  0  0
  184.2070  178.9160  142.0040 C   0  0  2  0  0  3  0  0  0  0  0  0
  183.3650  178.6410  143.2540 C   0  0  0  0  0  2  0  0  0  0  0  0
  186.1370  177.8780  143.3140 C   0  0  0  0  0  3  0  0  0  0  0  0
  183.8060  178.8780  145.5990 O   0  0  0  0  0  0  0  0  0  0  0  0
  185.0440  179.3000  145.0760 C   0  0  1  0  0  3  0  0  0  0  0  0
  1  5  1  0  0  0  0
  2  1  2  0  0  0  0
  3  2  1  0  0  0  0
  3  4  2  0  0  0  0
  4 16  1  0  0  0  0
  6 15  1  0  0  0  0
  8  4  1  0  0  0  0
  8  9  2  0  0  0  0
  9 20  1  0  0  0  0
 11  6  1  6  0  0  0
 11  9  1  0  0  0  0
 11 17  1  0  0  0  0
 13  7  1  6  0  0  0
 13 18  1  0  0  0  0
 14 17  1  0  0  0  0
 15 19  1  0  0  0  0
 16  5  2  0  0  0  0
 16 12  1  0  0  0  0
 17 10  2  6  0  0  0
 17 18  1  0  0  0  0
 18 24  1  1  0  0  0
 19 14  1  0  0  0  0
 20 12  2  0  0  0  0
 20 13  1  0  0  0  0
 21 26  1  0  0  0  0
 23 25  1  6  0  0  0
 23 28  1  0  0  0  0
 23 27  1  0  0  0  0
 24 21  1  1  0  0  0
 24 25  1  0  0  0  0
 26 22  2  0  0  0  0
 28 22  1  6  0  0  0
 28 27  1  0  0  0  0
M  END
>  <MODEL>
5

>  <REMARK>
 VINA RESULT:      -7.1      3.416      7.136
  Name = 
  1 active torsions:
  status: ('A' for Active; 'I' for Inactive)
    1  A    between atoms: C_8  and  C_26
                            x       y       z     vdW  Elec       q    Type
                         _______ _______ _______ _____ _____    ______ ____

>  <TORSDO>
F 1

$$$$
=
 OpenBabel10222416553D

 28 33  0  0  1  0  0  0  0  0999 V2000
  190.4210  175.9220  136.3300 C   0  0  0  0  0  3  0  0  0  0  0  0
  191.6940  175.9490  136.8060 N   0  0  0  0  0  0  0  0  0  0  0  0
  191.9670  176.3510  138.0500 N   0  0  0  0  0  0  0  0  0  0  0  0
  190.9800  176.7500  138.8940 C   0  0  0  0  0  0  0  0  0  0  0  0
  189.3670  176.3230  137.1510 C   0  0  0  0  0  3  0  0  0  0  0  0
  192.0180  177.7080  142.9400 C   0  0  0  0  0  2  0  0  0  0  0  0
  187.8310  179.4110  141.6530 O   0  0  0  0  0  1  0  0  0  0  0  0
  191.2810  177.1690  140.1900 C   0  0  0  0  0  3  0  0  0  0  0  0
  190.2610  177.5680  141.0700 C   0  0  0  0  0  0  0  0  0  0  0  0
  189.2730  178.6240  144.7640 O   0  0  0  0  0  0  0  0  0  0  0  0
  190.6100  178.0840  142.4550 C   0  0  1  0  0  3  0  0  0  0  0  0
  188.6250  177.1590  139.3020 C   0  0  0  0  0  3  0  0  0  0  0  0
  187.7770  178.0260  141.4730 C   0  0  2  0  0  3  0  0  0  0  0  0
  189.9710  176.0030  144.4120 C   0  0  0  0  0  2  0  0  0  0  0  0
  192.1110  176.2840  143.2600 N   0  0  0  0  0  2  0  0  0  0  0  0
  189.6470  176.7430  138.4490 C   0  0  0  0  0  0  0  0  0  0  0  0
  189.3810  177.5620  143.6950 P   0  0  1  0  0  0  0  0  0  0  0  0
  187.8040  177.2900  142.8130 C   0  0  1  0  0  3  0  0  0  0  0  0
  191.4850  176.0680  144.5610 C   0  0  0  0  0  2  0  0  0  0  0  0
  188.9190  177.5770  140.6050 C   0  0  0  0  0  0  0  0  0  0  0  0
  185.2790  177.8780  142.8430 C   0  0  0  0  0  2  0  0  0  0  0  0
  184.5070  179.7940  144.2440 C   0  0  0  0  0  3  0  0  0  0  0  0
  185.5620  178.1170  145.8740 C   0  0  1  0  0  3  0  0  0  0  0  0
  186.5220  177.4360  143.6430 C   0  0  2  0  0  3  0  0  0  0  0  0
  186.7680  178.2130  144.9400 C   0  0  0  0  0  2  0  0  0  0  0  0
  184.9000  179.3170  143.0540 C   0  0  0  0  0  3  0  0  0  0  0  0
  185.3080  179.3780  146.4430 O   0  0  0  0  0  0  0  0  0  0  0  0
  184.3720  178.9430  145.4840 C   0  0  1  0  0  3  0  0  0  0  0  0
  1  2  2  0  0  0  0
  1  5  1  0  0  0  0
  2  3  1  0  0  0  0
  3  4  2  0  0  0  0
  4  8  1  0  0  0  0
  5 16  2  0  0  0  0
  6 15  1  0  0  0  0
  8  9  2  0  0  0  0
  9 11  1  0  0  0  0
 11  6  1  1  0  0  0
 11 17  1  0  0  0  0
 12 20  2  0  0  0  0
 13  7  1  1  0  0  0
 13 18  1  0  0  0  0
 14 19  1  0  0  0  0
 15 19  1  0  0  0  0
 16  4  1  0  0  0  0
 16 12  1  0  0  0  0
 17 14  1  0  0  0  0
 17 10  2  1  0  0  0
 18 24  1  1  0  0  0
 18 17  1  0  0  0  0
 20  9  1  0  0  0  0
 20 13  1  0  0  0  0
 21 26  1  0  0  0  0
 23 25  1  6  0  0  0
 23 27  1  0  0  0  0
 24 21  1  6  0  0  0
 24 25  1  0  0  0  0
 26 22  2  0  0  0  0
 28 22  1  6  0  0  0
 28 23  1  0  0  0  0
 28 27  1  0  0  0  0
M  END
>  <MODEL>
6

>  <REMARK>
 VINA RESULT:      -6.9      5.609      8.999
  Name = 
  1 active torsions:
  status: ('A' for Active; 'I' for Inactive)
    1  A    between atoms: C_8  and  C_26
                            x       y       z     vdW  Elec       q    Type
                         _______ _______ _______ _____ _____    ______ ____

>  <TORSDO>
F 1

$$$$
=
 OpenBabel10222416553D

 28 33  0  0  1  0  0  0  0  0999 V2000
  184.3370  178.9290  145.2080 C   0  0  0  0  0  3  0  0  0  0  0  0
  182.9790  178.9590  145.2390 N   0  0  0  0  0  0  0  0  0  0  0  0
  182.2520  178.8930  144.1200 N   0  0  0  0  0  0  0  0  0  0  0  0
  182.8440  178.7940  142.9010 C   0  0  0  0  0  0  0  0  0  0  0  0
  184.9990  178.8300  143.9850 C   0  0  0  0  0  3  0  0  0  0  0  0
  180.3470  178.2860  139.4560 C   0  0  0  0  0  2  0  0  0  0  0  0
  184.6960  179.7190  138.3920 O   0  0  0  0  0  1  0  0  0  0  0  0
  182.0720  178.7290  141.7410 C   0  0  0  0  0  3  0  0  0  0  0  0
  182.6820  178.6110  140.4800 C   0  0  0  0  0  0  0  0  0  0  0  0
  182.1930  178.0300  136.5860 O   0  0  0  0  0  0  0  0  0  0  0  0
  181.8310  178.6080  139.2220 C   0  0  1  0  0  3  0  0  0  0  0  0
  184.8670  178.6700  141.5700 C   0  0  0  0  0  3  0  0  0  0  0  0
  184.8260  178.5140  139.0880 C   0  0  2  0  0  3  0  0  0  0  0  0
  181.7020  175.8710  138.1920 C   0  0  0  0  0  2  0  0  0  0  0  0
  180.1530  176.8770  139.7960 N   0  0  0  0  0  2  0  0  0  0  0  0
  184.2470  178.7620  142.8150 C   0  0  0  0  0  0  0  0  0  0  0  0
  182.5060  177.4810  137.9590 P   0  0  1  0  0  0  0  0  0  0  0  0
  184.3010  177.3370  138.2650 C   0  0  1  0  0  3  0  0  0  0  0  0
  180.2440  176.0950  138.5670 C   0  0  0  0  0  2  0  0  0  0  0  0
  184.1000  178.6000  140.4020 C   0  0  0  0  0  0  0  0  0  0  0  0
  185.3140  175.4540  136.7990 C   0  0  0  0  0  2  0  0  0  0  0  0
  187.7970  175.2590  136.6380 C   0  0  0  0  0  3  0  0  0  0  0  0
  187.2160  177.5810  135.7110 C   0  0  1  0  0  3  0  0  0  0  0  0
  185.1730  176.9690  137.0580 C   0  0  2  0  0  3  0  0  0  0  0  0
  186.4880  177.7540  137.0440 C   0  0  0  0  0  2  0  0  0  0  0  0
  186.6440  174.8880  137.2110 C   0  0  0  0  0  3  0  0  0  0  0  0
  188.5900  177.3920  135.9470 O   0  0  0  0  0  0  0  0  0  0  0  0
  187.8860  176.2540  135.5060 C   0  0  1  0  0  3  0  0  0  0  0  0
  1  2  1  0  0  0  0
  3  2  2  0  0  0  0
  4  3  1  0  0  0  0
  5  1  2  0  0  0  0
  6 15  1  0  0  0  0
  8  4  2  0  0  0  0
  9  8  1  0  0  0  0
 11  6  1  1  0  0  0
 11  9  1  0  0  0  0
 12 16  2  0  0  0  0
 13  7  1  6  0  0  0
 13 20  1  0  0  0  0
 14 19  1  0  0  0  0
 16  4  1  0  0  0  0
 16  5  1  0  0  0  0
 17 10  2  6  0  0  0
 17 14  1  0  0  0  0
 17 18  1  0  0  0  0
 17 11  1  0  0  0  0
 18 24  1  6  0  0  0
 18 13  1  0  0  0  0
 19 15  1  0  0  0  0
 20  9  2  0  0  0  0
 20 12  1  0  0  0  0
 21 26  1  0  0  0  0
 22 26  2  0  0  0  0
 23 27  1  0  0  0  0
 23 25  1  1  0  0  0
 24 21  1  1  0  0  0
 25 24  1  0  0  0  0
 28 23  1  0  0  0  0
 28 27  1  0  0  0  0
 28 22  1  1  0  0  0
M  END
>  <MODEL>
7

>  <REMARK>
 VINA RESULT:      -6.7      1.592      2.061
  Name = 
  1 active torsions:
  status: ('A' for Active; 'I' for Inactive)
    1  A    between atoms: C_8  and  C_26
                            x       y       z     vdW  Elec       q    Type
                         _______ _______ _______ _____ _____    ______ ____

>  <TORSDO>
F 1

$$$$
=
 OpenBabel10222416553D

 28 33  0  0  1  0  0  0  0  0999 V2000
  190.2920  178.0080  142.9760 C   0  0  0  0  0  3  0  0  0  0  0  0
  189.0770  178.0570  142.3690 N   0  0  0  0  0  0  0  0  0  0  0  0
  188.9260  177.7310  141.0820 N   0  0  0  0  0  0  0  0  0  0  0  0
  189.9830  177.3350  140.3260 C   0  0  0  0  0  0  0  0  0  0  0  0
  191.4140  177.6110  142.2490 C   0  0  0  0  0  3  0  0  0  0  0  0
  189.2470  176.0340  136.3100 C   0  0  0  0  0  2  0  0  0  0  0  0
  193.7490  177.1280  137.1030 O   0  0  0  0  0  1  0  0  0  0  0  0
  189.8090  176.9990  138.9840 C   0  0  0  0  0  3  0  0  0  0  0  0
  190.8980  176.5760  138.2040 C   0  0  0  0  0  0  0  0  0  0  0  0
  192.1340  175.0770  134.7440 O   0  0  0  0  0  0  0  0  0  0  0  0
  190.7050  176.2770  136.7270 C   0  0  1  0  0  3  0  0  0  0  0  0
  192.3560  176.8750  140.1410 C   0  0  0  0  0  3  0  0  0  0  0  0
  193.4090  176.1250  138.0160 C   0  0  2  0  0  3  0  0  0  0  0  0
  190.7240  173.3740  136.3540 C   0  0  0  0  0  2  0  0  0  0  0  0
  188.7540  174.7510  136.8090 N   0  0  0  0  0  2  0  0  0  0  0  0
  191.2610  177.2700  140.9070 C   0  0  0  0  0  0  0  0  0  0  0  0
  191.7330  174.8720  136.1870 P   0  0  1  0  0  0  0  0  0  0  0  0
  193.1720  174.7900  137.3100 C   0  0  1  0  0  3  0  0  0  0  0  0
  189.2910  173.6950  135.9560 C   0  0  0  0  0  2  0  0  0  0  0  0
  192.1890  176.5320  138.7940 C   0  0  0  0  0  0  0  0  0  0  0  0
  194.2870  172.6450  136.3760 C   0  0  0  0  0  2  0  0  0  0  0  0
  196.2400  171.6770  137.5930 C   0  0  0  0  0  3  0  0  0  0  0  0
  196.9570  174.0370  136.8840 C   0  0  1  0  0  3  0  0  0  0  0  0
  194.4400  174.1330  136.7510 C   0  0  2  0  0  3  0  0  0  0  0  0
  195.6740  174.4660  137.5950 C   0  0  0  0  0  2  0  0  0  0  0  0
  194.9200  171.7010  137.3610 C   0  0  0  0  0  3  0  0  0  0  0  0
  197.8270  173.4340  137.8100 O   0  0  0  0  0  0  0  0  0  0  0  0
  197.2320  172.5620  136.8770 C   0  0  1  0  0  3  0  0  0  0  0  0
  2  1  1  0  0  0  0
  3  2  2  0  0  0  0
  4 16  1  0  0  0  0
  4  3  1  0  0  0  0
  5  1  2  0  0  0  0
  6 15  1  0  0  0  0
  8  4  2  0  0  0  0
  9 20  2  0  0  0  0
  9  8  1  0  0  0  0
 11  6  1  1  0  0  0
 11  9  1  0  0  0  0
 12 16  2  0  0  0  0
 13  7  1  6  0  0  0
 13 20  1  0  0  0  0
 16  5  1  0  0  0  0
 17 10  2  6  0  0  0
 17 14  1  0  0  0  0
 17 11  1  0  0  0  0
 17 18  1  0  0  0  0
 18 24  1  6  0  0  0
 18 13  1  0  0  0  0
 19 14  1  0  0  0  0
 19 15  1  0  0  0  0
 20 12  1  0  0  0  0
 21 26  1  0  0  0  0
 23 25  1  1  0  0  0
 23 27  1  0  0  0  0
 24 21  1  1  0  0  0
 24 25  1  0  0  0  0
 26 22  2  0  0  0  0
 28 23  1  0  0  0  0
 28 22  1  1  0  0  0
 28 27  1  0  0  0  0
M  END
>  <MODEL>
8

>  <REMARK>
 VINA RESULT:      -6.2      8.155     10.013
  Name = 
  1 active torsions:
  status: ('A' for Active; 'I' for Inactive)
    1  A    between atoms: C_8  and  C_26
                            x       y       z     vdW  Elec       q    Type
                         _______ _______ _______ _____ _____    ______ ____

>  <TORSDO>
F 1

$$$$
=
 OpenBabel10222416553D

 28 33  0  0  1  0  0  0  0  0999 V2000
  181.3510  178.6120  140.3140 C   0  0  0  0  0  3  0  0  0  0  0  0
  181.4530  178.6690  138.9590 N   0  0  0  0  0  0  0  0  0  0  0  0
  182.6410  178.6680  138.3470 N   0  0  0  0  0  0  0  0  0  0  0  0
  183.7980  178.6110  139.0570 C   0  0  0  0  0  0  0  0  0  0  0  0
  182.5060  178.5550  141.0930 C   0  0  0  0  0  3  0  0  0  0  0  0
  187.4930  178.3080  136.9080 C   0  0  0  0  0  2  0  0  0  0  0  0
  188.0540  179.6970  141.3630 O   0  0  0  0  0  1  0  0  0  0  0  0
  185.0300  178.6130  138.4030 C   0  0  0  0  0  3  0  0  0  0  0  0
  186.2290  178.5400  139.1330 C   0  0  0  0  0  0  0  0  0  0  0  0
  190.1750  178.1420  139.0260 O   0  0  0  0  0  0  0  0  0  0  0  0
  187.5640  178.6100  138.4120 C   0  0  1  0  0  3  0  0  0  0  0  0
  184.9270  178.5050  141.2000 C   0  0  0  0  0  3  0  0  0  0  0  0
  187.4050  178.4600  141.4030 C   0  0  2  0  0  3  0  0  0  0  0  0
  188.7270  175.9250  138.3430 C   0  0  0  0  0  2  0  0  0  0  0  0
  187.2390  176.8900  136.6580 N   0  0  0  0  0  2  0  0  0  0  0  0
  183.7460  178.5540  140.4590 C   0  0  0  0  0  0  0  0  0  0  0  0
  188.8050  177.5260  139.1920 P   0  0  1  0  0  0  0  0  0  0  0  0
  188.3300  177.3330  140.9450 C   0  0  1  0  0  3  0  0  0  0  0  0
  188.4880  176.1610  136.8590 C   0  0  0  0  0  2  0  0  0  0  0  0
  186.1670  178.5020  140.5520 C   0  0  0  0  0  0  0  0  0  0  0  0
  189.0590  176.0580  143.0810 C   0  0  0  0  0  2  0  0  0  0  0  0
  189.8970  177.3650  145.0350 C   0  0  0  0  0  3  0  0  0  0  0  0
  191.5090  177.8790  143.1060 C   0  0  1  0  0  3  0  0  0  0  0  0
  189.4600  177.0000  141.9270 C   0  0  2  0  0  3  0  0  0  0  0  0
  190.2340  178.2520  142.3520 C   0  0  0  0  0  2  0  0  0  0  0  0
  188.8860  176.7530  144.4030 C   0  0  0  0  0  3  0  0  0  0  0  0
  191.6640  178.7300  144.2160 O   0  0  0  0  0  0  0  0  0  0  0  0
  191.3140  177.3980  144.5130 C   0  0  1  0  0  3  0  0  0  0  0  0
  1  5  1  0  0  0  0
  2  1  2  0  0  0  0
  3  2  1  0  0  0  0
  3  4  2  0  0  0  0
  4 16  1  0  0  0  0
  8  4  1  0  0  0  0
  8  9  2  0  0  0  0
  9 20  1  0  0  0  0
 11  6  1  6  0  0  0
 11  9  1  0  0  0  0
 11 17  1  0  0  0  0
 13  7  1  6  0  0  0
 14 17  1  0  0  0  0
 15 19  1  0  0  0  0
 15  6  1  0  0  0  0
 16  5  2  0  0  0  0
 16 12  1  0  0  0  0
 17 10  2  6  0  0  0
 17 18  1  0  0  0  0
 18 13  1  0  0  0  0
 18 24  1  1  0  0  0
 19 14  1  0  0  0  0
 20 12  2  0  0  0  0
 20 13  1  0  0  0  0
 21 26  1  0  0  0  0
 23 25  1  6  0  0  0
 23 27  1  0  0  0  0
 23 28  1  0  0  0  0
 24 25  1  1  0  0  0
 24 21  1  0  0  0  0
 26 22  2  0  0  0  0
 27 28  1  0  0  0  0
 28 22  1  6  0  0  0
M  END
>  <MODEL>
9

>  <REMARK>
 VINA RESULT:      -6.2      4.236      7.308
  Name = 
  1 active torsions:
  status: ('A' for Active; 'I' for Inactive)
    1  A    between atoms: C_8  and  C_26
                            x       y       z     vdW  Elec       q    Type
                         _______ _______ _______ _____ _____    ______ ____

>  <TORSDO>
F 1

$$$$
