=
 OpenBabel10222421133D

 37 41  0  0  1  0  0  0  0  0999 V2000
  183.7600  175.1730  136.1250 C   0  0  0  0  0  0  0  0  0  0  0  0
  182.3380  174.8530  135.8430 C   0  0  0  0  0  1  0  0  0  0  0  0
  186.0900  174.5420  136.0150 N   0  0  0  0  0  0  0  0  0  0  0  0
  185.4460  176.6220  136.9960 C   0  0  0  0  0  0  0  0  0  0  0  0
  187.6370  176.1320  136.9680 N   0  0  0  0  0  0  0  0  0  0  0  0
  184.0970  176.3820  136.7560 C   0  0  0  0  0  3  0  0  0  0  0  0
  184.7760  174.2630  135.7550 C   0  0  0  0  0  3  0  0  0  0  0  0
  186.4030  175.7080  136.6360 C   0  0  0  0  0  0  0  0  0  0  0  0
  186.1140  177.6820  137.5810 C   0  0  0  0  0  0  0  0  0  0  0  0
  188.8860  175.4420  136.6700 C   0  0  0  0  0  1  0  0  0  0  0  0
  187.4600  177.3510  137.5480 C   0  0  0  0  0  0  0  0  0  0  0  0
  188.4720  178.1860  138.0310 O   0  0  0  0  0  0  0  0  0  0  0  0
  188.7660  178.3290  139.4120 C   0  0  0  0  0  2  0  0  0  0  0  0
  189.6590  177.1860  139.8530 C   0  0  0  0  0  2  0  0  0  0  0  0
  189.6590  177.0700  141.3370 C   0  0  0  0  0  0  0  0  0  0  0  0
  189.4420  177.3310  143.7500 C   0  0  0  0  0  0  0  0  0  0  0  0
  190.1920  176.0200  142.0040 N   0  0  0  0  0  0  0  0  0  0  0  0
  188.9930  178.2080  142.3810 S   0  0  0  0  0  0  0  0  0  0  0  0
  190.0740  176.1580  143.3520 C   0  0  0  0  0  3  0  0  0  0  0  0
  189.1450  176.6770  147.5610 C   0  0  0  0  0  2  0  0  0  0  0  0
  189.1610  177.7060  145.1720 C   0  0  1  0  0  3  0  0  0  0  0  0
  188.1780  177.8410  147.8010 C   0  0  0  0  0  2  0  0  0  0  0  0
  187.6820  177.8750  145.4040 C   0  0  0  0  0  3  0  0  0  0  0  0
  187.2150  177.9460  146.6560 C   0  0  0  0  0  3  0  0  0  0  0  0
  189.7900  176.6960  146.1570 C   0  0  1  0  0  3  0  0  0  0  0  0
  191.2740  176.8820  146.2570 C   0  0  0  0  0  0  0  0  0  0  0  0
  192.0980  175.8630  146.9630 C   0  0  0  0  0  1  0  0  0  0  0  0
  191.8110  177.8630  145.7690 O   0  0  0  0  0  0  0  0  0  0  0  0
  185.5860  178.8520  138.1360 O   0  0  0  0  0  0  0  0  0  0  0  0
  184.6590  178.8470  139.2110 C   0  0  0  0  0  2  0  0  0  0  0  0
  185.4000  178.8410  140.5450 C   0  0  0  0  0  2  0  0  0  0  0  0
  184.4700  178.8770  141.6640 N   0  0  0  0  0  0  0  0  0  0  0  0
  183.0720  178.5120  141.4190 C   0  0  0  0  0  2  0  0  0  0  0  0
  182.1940  178.8010  142.6080 C   0  0  0  0  0  3  0  0  0  0  0  0
  182.7040  179.0050  143.8240 C   0  0  0  0  0  3  0  0  0  0  0  0
  184.1580  179.0220  144.0390 C   0  0  0  0  0  3  0  0  0  0  0  0
  184.9880  178.9630  143.0000 C   0  0  0  0  0  3  0  0  0  0  0  0
  1  6  1  0  0  0  0
  2  1  1  0  0  0  0
  3  8  2  0  0  0  0
  4  9  1  0  0  0  0
  5 11  1  0  0  0  0
  6  4  2  0  0  0  0
  7  3  1  0  0  0  0
  7  1  2  0  0  0  0
  8  5  1  0  0  0  0
  8  4  1  0  0  0  0
  9 29  1  0  0  0  0
 10  5  1  0  0  0  0
 11  9  2  0  0  0  0
 11 12  1  0  0  0  0
 12 13  1  0  0  0  0
 13 14  1  0  0  0  0
 14 15  1  0  0  0  0
 15 17  2  0  0  0  0
 15 18  1  0  0  0  0
 17 19  1  0  0  0  0
 18 16  1  0  0  0  0
 19 16  2  0  0  0  0
 20 22  1  0  0  0  0
 21 16  1  6  0  0  0
 21 23  1  0  0  0  0
 21 25  1  0  0  0  0
 23 24  2  0  0  0  0
 24 22  1  0  0  0  0
 25 26  1  1  0  0  0
 25 20  1  0  0  0  0
 26 27  1  0  0  0  0
 28 26  2  0  0  0  0
 29 30  1  0  0  0  0
 30 31  1  0  0  0  0
 31 32  1  0  0  0  0
 32 37  1  0  0  0  0
 33 32  1  0  0  0  0
 33 34  1  0  0  0  0
 34 35  2  0  0  0  0
 35 36  1  0  0  0  0
 37 36  2  0  0  0  0
M  END
>  <MODEL>
1

>  <REMARK>
 VINA RESULT:      -8.8      0.000      0.000
  Name = 
  10 active torsions:
  status: ('A' for Active; 'I' for Inactive)
    1  A    between atoms: C_3  and  C_26
    2  A    between atoms: O_4  and  C_18
    3  A    between atoms: O_4  and  C_37
    4  A    between atoms: C_5  and  C_13
    5  A    between atoms: N_8  and  C_23
    6  A    between atoms: C_9  and  C_34
    7  A    between atoms: C_18  and  C_26
    8  A    between atoms: C_19  and  C_23
    9  A    between atoms: C_19  and  O_36
   10  A    between atoms: C_32  and  O_36
                            x       y       z     vdW  Elec       q    Type
                         _______ _______ _______ _____ _____    ______ ____

>  <TORSDO>
F 10

$$$$
=
 OpenBabel10222421133D

 37 41  0  0  1  0  0  0  0  0999 V2000
  187.6640  177.8750  146.9390 C   0  0  0  0  0  0  0  0  0  0  0  0
  188.7440  177.5890  147.9180 C   0  0  0  0  0  1  0  0  0  0  0  0
  185.4520  178.7330  146.4830 N   0  0  0  0  0  0  0  0  0  0  0  0
  186.7910  177.8430  144.7170 C   0  0  0  0  0  0  0  0  0  0  0  0
  184.7450  178.5920  144.1790 N   0  0  0  0  0  0  0  0  0  0  0  0
  187.8410  177.5550  145.5830 C   0  0  0  0  0  3  0  0  0  0  0  0
  186.4580  178.4710  147.3720 C   0  0  0  0  0  3  0  0  0  0  0  0
  185.6290  178.4090  145.1760 C   0  0  0  0  0  0  0  0  0  0  0  0
  186.6320  177.6670  143.3550 C   0  0  0  0  0  0  0  0  0  0  0  0
  183.4410  179.2320  144.3010 C   0  0  0  0  0  1  0  0  0  0  0  0
  185.3630  178.1390  143.0540 C   0  0  0  0  0  0  0  0  0  0  0  0
  184.8320  178.1520  141.7610 O   0  0  0  0  0  0  0  0  0  0  0  0
  184.9350  179.2700  140.8920 C   0  0  0  0  0  2  0  0  0  0  0  0
  183.9240  179.1260  139.7720 C   0  0  0  0  0  2  0  0  0  0  0  0
  184.5040  178.3410  138.6480 C   0  0  0  0  0  0  0  0  0  0  0  0
  185.8910  177.2240  136.9840 C   0  0  0  0  0  0  0  0  0  0  0  0
  183.7570  177.6640  137.7460 N   0  0  0  0  0  0  0  0  0  0  0  0
  186.1510  178.1770  138.3520 S   0  0  0  0  0  0  0  0  0  0  0  0
  184.5230  177.0370  136.8140 C   0  0  0  0  0  3  0  0  0  0  0  0
  188.9090  174.9130  136.2180 C   0  0  0  0  0  2  0  0  0  0  0  0
  186.9480  176.6170  136.1140 C   0  0  1  0  0  3  0  0  0  0  0  0
  189.3710  175.7280  135.0060 C   0  0  0  0  0  2  0  0  0  0  0  0
  188.0360  177.6140  135.8120 C   0  0  0  0  0  3  0  0  0  0  0  0
  189.1880  177.1920  135.2780 C   0  0  0  0  0  3  0  0  0  0  0  0
  187.5080  175.3160  136.7290 C   0  0  1  0  0  3  0  0  0  0  0  0
  186.5400  174.1820  136.5820 C   0  0  0  0  0  0  0  0  0  0  0  0
  186.0240  173.8260  135.2320 C   0  0  0  0  0  1  0  0  0  0  0  0
  186.1690  173.5510  137.5580 O   0  0  0  0  0  0  0  0  0  0  0  0
  187.5210  177.1040  142.4340 O   0  0  0  0  0  0  0  0  0  0  0  0
  188.3190  177.8830  141.5560 C   0  0  0  0  0  2  0  0  0  0  0  0
  189.7310  177.3100  141.4780 C   0  0  0  0  0  2  0  0  0  0  0  0
  190.3800  177.3250  142.7800 N   0  0  0  0  0  0  0  0  0  0  0  0
  190.9650  176.0790  143.2810 C   0  0  0  0  0  2  0  0  0  0  0  0
  191.4030  176.1950  144.7170 C   0  0  0  0  0  3  0  0  0  0  0  0
  191.5720  177.3810  145.3060 C   0  0  0  0  0  3  0  0  0  0  0  0
  191.2680  178.6280  144.5900 C   0  0  0  0  0  3  0  0  0  0  0  0
  190.6970  178.5860  143.3880 C   0  0  0  0  0  3  0  0  0  0  0  0
  1  7  1  0  0  0  0
  1  2  1  0  0  0  0
  3  7  2  0  0  0  0
  4  8  2  0  0  0  0
  4  6  1  0  0  0  0
  5 10  1  0  0  0  0
  5  8  1  0  0  0  0
  6  1  2  0  0  0  0
  8  3  1  0  0  0  0
  9  4  1  0  0  0  0
 11  9  2  0  0  0  0
 11  5  1  0  0  0  0
 12 11  1  0  0  0  0
 13 12  1  0  0  0  0
 14 13  1  0  0  0  0
 15 14  1  0  0  0  0
 16 18  1  0  0  0  0
 17 15  2  0  0  0  0
 18 15  1  0  0  0  0
 19 16  2  0  0  0  0
 19 17  1  0  0  0  0
 20 25  1  0  0  0  0
 21 25  1  0  0  0  0
 21 16  1  1  0  0  0
 22 24  1  0  0  0  0
 22 20  1  0  0  0  0
 23 21  1  0  0  0  0
 24 23  2  0  0  0  0
 25 26  1  6  0  0  0
 26 28  2  0  0  0  0
 27 26  1  0  0  0  0
 29  9  1  0  0  0  0
 30 29  1  0  0  0  0
 31 30  1  0  0  0  0
 31 32  1  0  0  0  0
 32 33  1  0  0  0  0
 32 37  1  0  0  0  0
 33 34  1  0  0  0  0
 34 35  2  0  0  0  0
 36 35  1  0  0  0  0
 37 36  2  0  0  0  0
M  END
>  <MODEL>
2

>  <REMARK>
 VINA RESULT:      -8.8      2.308      9.004
  Name = 
  10 active torsions:
  status: ('A' for Active; 'I' for Inactive)
    1  A    between atoms: C_3  and  C_26
    2  A    between atoms: O_4  and  C_18
    3  A    between atoms: O_4  and  C_37
    4  A    between atoms: C_5  and  C_13
    5  A    between atoms: N_8  and  C_23
    6  A    between atoms: C_9  and  C_34
    7  A    between atoms: C_18  and  C_26
    8  A    between atoms: C_19  and  C_23
    9  A    between atoms: C_19  and  O_36
   10  A    between atoms: C_32  and  O_36
                            x       y       z     vdW  Elec       q    Type
                         _______ _______ _______ _____ _____    ______ ____

>  <TORSDO>
F 10

$$$$
=
 OpenBabel10222421133D

 37 41  0  0  1  0  0  0  0  0999 V2000
  188.2400  177.7960  146.8990 C   0  0  0  0  0  0  0  0  0  0  0  0
  187.3710  178.3600  147.9640 C   0  0  0  0  0  1  0  0  0  0  0  0
  190.3340  176.7810  146.2520 N   0  0  0  0  0  0  0  0  0  0  0  0
  188.6490  177.2220  144.6180 C   0  0  0  0  0  0  0  0  0  0  0  0
  190.5620  176.2960  143.8980 N   0  0  0  0  0  0  0  0  0  0  0  0
  187.7880  177.7580  145.5690 C   0  0  0  0  0  3  0  0  0  0  0  0
  189.5210  177.2960  147.2230 C   0  0  0  0  0  3  0  0  0  0  0  0
  189.8920  176.7600  144.9680 C   0  0  0  0  0  0  0  0  0  0  0  0
  188.5280  177.0330  143.2540 C   0  0  0  0  0  0  0  0  0  0  0  0
  191.8790  175.6700  143.9200 C   0  0  0  0  0  1  0  0  0  0  0  0
  189.7210  176.4600  142.8400 C   0  0  0  0  0  0  0  0  0  0  0  0
  189.9830  176.0940  141.5160 O   0  0  0  0  0  0  0  0  0  0  0  0
  190.6910  176.9240  140.6080 C   0  0  0  0  0  2  0  0  0  0  0  0
  190.1830  176.6710  139.2020 C   0  0  0  0  0  2  0  0  0  0  0  0
  191.2020  175.9330  138.4080 C   0  0  0  0  0  0  0  0  0  0  0  0
  193.1400  175.1410  137.1600 C   0  0  0  0  0  0  0  0  0  0  0  0
  191.0060  174.6880  137.9140 N   0  0  0  0  0  0  0  0  0  0  0  0
  192.7280  176.5290  138.0270 S   0  0  0  0  0  0  0  0  0  0  0  0
  192.0840  174.2380  137.2170 C   0  0  0  0  0  3  0  0  0  0  0  0
  196.9840  174.6540  137.0140 C   0  0  0  0  0  2  0  0  0  0  0  0
  194.4490  174.8770  136.4820 C   0  0  1  0  0  3  0  0  0  0  0  0
  197.0880  175.0120  135.5280 C   0  0  0  0  0  2  0  0  0  0  0  0
  194.8840  176.0670  135.6670 C   0  0  0  0  0  3  0  0  0  0  0  0
  196.1380  176.1290  135.2070 C   0  0  0  0  0  3  0  0  0  0  0  0
  195.5310  174.4400  137.4930 C   0  0  1  0  0  3  0  0  0  0  0  0
  195.3210  173.0260  137.9400 C   0  0  0  0  0  0  0  0  0  0  0  0
  195.2510  171.9370  136.9280 C   0  0  0  0  0  1  0  0  0  0  0  0
  195.2030  172.7600  139.1250 O   0  0  0  0  0  0  0  0  0  0  0  0
  187.4600  177.3640  142.4140 O   0  0  0  0  0  0  0  0  0  0  0  0
  187.2020  178.6910  141.9800 C   0  0  0  0  0  2  0  0  0  0  0  0
  185.8320  178.7690  141.3130 C   0  0  0  0  0  2  0  0  0  0  0  0
  184.7670  178.8290  142.3020 N   0  0  0  0  0  0  0  0  0  0  0  0
  185.0910  179.3150  143.6450 C   0  0  0  0  0  2  0  0  0  0  0  0
  183.9510  179.1180  144.6100 C   0  0  0  0  0  3  0  0  0  0  0  0
  182.7070  178.8820  144.1890 C   0  0  0  0  0  3  0  0  0  0  0  0
  182.4120  178.7370  142.7560 C   0  0  0  0  0  3  0  0  0  0  0  0
  183.4040  178.7110  141.8680 C   0  0  0  0  0  3  0  0  0  0  0  0
  1  7  1  0  0  0  0
  1  2  1  0  0  0  0
  3  7  2  0  0  0  0
  4  8  2  0  0  0  0
  4  6  1  0  0  0  0
  5 10  1  0  0  0  0
  5  8  1  0  0  0  0
  6  1  2  0  0  0  0
  8  3  1  0  0  0  0
  9  4  1  0  0  0  0
 11  9  2  0  0  0  0
 11  5  1  0  0  0  0
 12 11  1  0  0  0  0
 13 12  1  0  0  0  0
 14 13  1  0  0  0  0
 15 14  1  0  0  0  0
 16 19  2  0  0  0  0
 16 18  1  0  0  0  0
 17 15  2  0  0  0  0
 18 15  1  0  0  0  0
 19 17  1  0  0  0  0
 20 25  1  0  0  0  0
 21 16  1  1  0  0  0
 21 25  1  0  0  0  0
 22 20  1  0  0  0  0
 23 21  1  0  0  0  0
 24 22  1  0  0  0  0
 24 23  2  0  0  0  0
 25 26  1  6  0  0  0
 26 28  2  0  0  0  0
 27 26  1  0  0  0  0
 29  9  1  0  0  0  0
 30 29  1  0  0  0  0
 31 30  1  0  0  0  0
 31 32  1  0  0  0  0
 32 33  1  0  0  0  0
 33 34  1  0  0  0  0
 35 34  2  0  0  0  0
 36 35  1  0  0  0  0
 37 32  1  0  0  0  0
 37 36  2  0  0  0  0
M  END
>  <MODEL>
3

>  <REMARK>
 VINA RESULT:      -8.7      4.198      8.434
  Name = 
  10 active torsions:
  status: ('A' for Active; 'I' for Inactive)
    1  A    between atoms: C_3  and  C_26
    2  A    between atoms: O_4  and  C_18
    3  A    between atoms: O_4  and  C_37
    4  A    between atoms: C_5  and  C_13
    5  A    between atoms: N_8  and  C_23
    6  A    between atoms: C_9  and  C_34
    7  A    between atoms: C_18  and  C_26
    8  A    between atoms: C_19  and  C_23
    9  A    between atoms: C_19  and  O_36
   10  A    between atoms: C_32  and  O_36
                            x       y       z     vdW  Elec       q    Type
                         _______ _______ _______ _____ _____    ______ ____

>  <TORSDO>
F 10

$$$$
=
 OpenBabel10222421133D

 37 41  0  0  1  0  0  0  0  0999 V2000
  187.6420  178.0050  146.9970 C   0  0  0  0  0  0  0  0  0  0  0  0
  188.7570  177.7850  147.9530 C   0  0  0  0  0  1  0  0  0  0  0  0
  185.3810  178.7470  146.5820 N   0  0  0  0  0  0  0  0  0  0  0  0
  186.7230  177.9030  144.7960 C   0  0  0  0  0  0  0  0  0  0  0  0
  184.6300  178.5430  144.2960 N   0  0  0  0  0  0  0  0  0  0  0  0
  187.8050  177.6770  145.6400 C   0  0  0  0  0  3  0  0  0  0  0  0
  186.4180  178.5460  147.4500 C   0  0  0  0  0  3  0  0  0  0  0  0
  185.5450  178.4160  145.2750 C   0  0  0  0  0  0  0  0  0  0  0  0
  186.5420  177.7020  143.4400 C   0  0  0  0  0  0  0  0  0  0  0  0
  183.2990  179.1190  144.4410 C   0  0  0  0  0  1  0  0  0  0  0  0
  185.2450  178.1070  143.1630 C   0  0  0  0  0  0  0  0  0  0  0  0
  184.6850  178.0790  141.8820 O   0  0  0  0  0  0  0  0  0  0  0  0
  184.7890  179.1580  140.9660 C   0  0  0  0  0  2  0  0  0  0  0  0
  183.6480  179.0800  139.9710 C   0  0  0  0  0  2  0  0  0  0  0  0
  183.8750  177.9690  139.0080 C   0  0  0  0  0  0  0  0  0  0  0  0
  183.8910  175.9160  137.6930 C   0  0  0  0  0  0  0  0  0  0  0  0
  184.8140  178.0050  138.0340 N   0  0  0  0  0  0  0  0  0  0  0  0
  183.0010  176.5320  138.9880 S   0  0  0  0  0  0  0  0  0  0  0  0
  184.8280  176.8630  137.2950 C   0  0  0  0  0  3  0  0  0  0  0  0
  181.9770  172.6320  136.9280 C   0  0  0  0  0  2  0  0  0  0  0  0
  183.6830  174.5920  137.0270 C   0  0  1  0  0  3  0  0  0  0  0  0
  183.2270  171.8780  136.4650 C   0  0  0  0  0  2  0  0  0  0  0  0
  184.6110  173.5500  137.5950 C   0  0  0  0  0  3  0  0  0  0  0  0
  184.3980  172.2580  137.3230 C   0  0  0  0  0  3  0  0  0  0  0  0
  182.2050  174.1510  137.0950 C   0  0  1  0  0  3  0  0  0  0  0  0
  181.3590  174.9250  136.1300 C   0  0  0  0  0  0  0  0  0  0  0  0
  181.6990  174.9140  134.6810 C   0  0  0  0  0  1  0  0  0  0  0  0
  180.3990  175.5680  136.5210 O   0  0  0  0  0  0  0  0  0  0  0  0
  187.4370  177.1730  142.5050 O   0  0  0  0  0  0  0  0  0  0  0  0
  188.1860  177.9810  141.6100 C   0  0  0  0  0  2  0  0  0  0  0  0
  189.6040  177.4350  141.4670 C   0  0  0  0  0  2  0  0  0  0  0  0
  190.2850  177.3940  142.7520 N   0  0  0  0  0  0  0  0  0  0  0  0
  190.8630  176.1220  143.1920 C   0  0  0  0  0  2  0  0  0  0  0  0
  191.3400  176.1800  144.6210 C   0  0  0  0  0  3  0  0  0  0  0  0
  191.5410  177.3410  145.2470 C   0  0  0  0  0  3  0  0  0  0  0  0
  191.2380  178.6180  144.5840 C   0  0  0  0  0  3  0  0  0  0  0  0
  190.6370  178.6280  143.3960 C   0  0  0  0  0  3  0  0  0  0  0  0
  1  7  1  0  0  0  0
  1  2  1  0  0  0  0
  3  7  2  0  0  0  0
  4  8  2  0  0  0  0
  4  6  1  0  0  0  0
  5 10  1  0  0  0  0
  5  8  1  0  0  0  0
  6  1  2  0  0  0  0
  8  3  1  0  0  0  0
  9  4  1  0  0  0  0
 11  9  2  0  0  0  0
 11  5  1  0  0  0  0
 12 11  1  0  0  0  0
 13 12  1  0  0  0  0
 14 13  1  0  0  0  0
 15 14  1  0  0  0  0
 16 18  1  0  0  0  0
 17 15  2  0  0  0  0
 18 15  1  0  0  0  0
 19 16  2  0  0  0  0
 19 17  1  0  0  0  0
 20 25  1  0  0  0  0
 21 25  1  0  0  0  0
 21 23  1  0  0  0  0
 21 16  1  1  0  0  0
 22 20  1  0  0  0  0
 22 24  1  0  0  0  0
 24 23  2  0  0  0  0
 25 26  1  6  0  0  0
 26 28  2  0  0  0  0
 27 26  1  0  0  0  0
 29  9  1  0  0  0  0
 30 29  1  0  0  0  0
 31 30  1  0  0  0  0
 31 32  1  0  0  0  0
 32 33  1  0  0  0  0
 32 37  1  0  0  0  0
 33 34  1  0  0  0  0
 34 35  2  0  0  0  0
 36 35  1  0  0  0  0
 37 36  2  0  0  0  0
M  END
>  <MODEL>
4

>  <REMARK>
 VINA RESULT:      -8.7      2.560      9.625
  Name = 
  10 active torsions:
  status: ('A' for Active; 'I' for Inactive)
    1  A    between atoms: C_3  and  C_26
    2  A    between atoms: O_4  and  C_18
    3  A    between atoms: O_4  and  C_37
    4  A    between atoms: C_5  and  C_13
    5  A    between atoms: N_8  and  C_23
    6  A    between atoms: C_9  and  C_34
    7  A    between atoms: C_18  and  C_26
    8  A    between atoms: C_19  and  C_23
    9  A    between atoms: C_19  and  O_36
   10  A    between atoms: C_32  and  O_36
                            x       y       z     vdW  Elec       q    Type
                         _______ _______ _______ _____ _____    ______ ____

>  <TORSDO>
F 10

$$$$
=
 OpenBabel10222421133D

 37 41  0  0  1  0  0  0  0  0999 V2000
  190.2420  176.9450  147.0870 C   0  0  0  0  0  0  0  0  0  0  0  0
  191.6240  176.5400  147.4500 C   0  0  0  0  0  1  0  0  0  0  0  0
  188.1130  177.8790  147.7450 N   0  0  0  0  0  0  0  0  0  0  0  0
  188.4760  177.1640  145.4960 C   0  0  0  0  0  0  0  0  0  0  0  0
  186.4520  177.9970  145.9970 N   0  0  0  0  0  0  0  0  0  0  0  0
  189.7800  176.7700  145.7720 C   0  0  0  0  0  3  0  0  0  0  0  0
  189.3910  177.5090  148.0640 C   0  0  0  0  0  3  0  0  0  0  0  0
  187.6740  177.6950  146.4740 C   0  0  0  0  0  0  0  0  0  0  0  0
  187.7200  177.1380  144.3390 C   0  0  0  0  0  0  0  0  0  0  0  0
  185.3790  178.6390  146.7450 C   0  0  0  0  0  1  0  0  0  0  0  0
  186.4800  177.6580  144.6790 C   0  0  0  0  0  0  0  0  0  0  0  0
  185.4340  177.8180  143.7660 O   0  0  0  0  0  0  0  0  0  0  0  0
  185.3190  178.9420  142.9070 C   0  0  0  0  0  2  0  0  0  0  0  0
  183.9150  178.9930  142.3370 C   0  0  0  0  0  2  0  0  0  0  0  0
  183.9400  178.7190  140.8740 C   0  0  0  0  0  0  0  0  0  0  0  0
  183.6920  177.8790  138.6000 C   0  0  0  0  0  0  0  0  0  0  0  0
  184.6410  179.4610  139.9870 N   0  0  0  0  0  0  0  0  0  0  0  0
  183.1000  177.4690  140.1260 S   0  0  0  0  0  0  0  0  0  0  0  0
  184.5070  178.9990  138.7140 C   0  0  0  0  0  3  0  0  0  0  0  0
  184.3410  176.7860  134.9360 C   0  0  0  0  0  2  0  0  0  0  0  0
  183.3590  177.1980  137.3090 C   0  0  1  0  0  3  0  0  0  0  0  0
  182.8570  176.5840  134.6130 C   0  0  0  0  0  2  0  0  0  0  0  0
  182.2850  177.9470  136.5640 C   0  0  0  0  0  3  0  0  0  0  0  0
  182.0410  177.6510  135.2830 C   0  0  0  0  0  3  0  0  0  0  0  0
  184.6190  176.9790  136.4430 C   0  0  1  0  0  3  0  0  0  0  0  0
  185.4600  175.8600  136.9770 C   0  0  0  0  0  0  0  0  0  0  0  0
  184.8930  174.4850  137.0520 C   0  0  0  0  0  1  0  0  0  0  0  0
  186.6020  176.0650  137.3540 O   0  0  0  0  0  0  0  0  0  0  0  0
  188.0740  176.6640  143.0710 O   0  0  0  0  0  0  0  0  0  0  0  0
  189.1570  177.1950  142.3230 C   0  0  0  0  0  2  0  0  0  0  0  0
  188.6360  178.1040  141.2140 C   0  0  0  0  0  2  0  0  0  0  0  0
  189.2170  177.7510  139.9270 N   0  0  0  0  0  0  0  0  0  0  0  0
  188.9550  178.6280  138.7820 C   0  0  0  0  0  2  0  0  0  0  0  0
  189.4340  178.0260  137.4870 C   0  0  0  0  0  3  0  0  0  0  0  0
  190.3050  177.0160  137.4620 C   0  0  0  0  0  3  0  0  0  0  0  0
  190.7830  176.4010  138.7090 C   0  0  0  0  0  3  0  0  0  0  0  0
  190.2530  176.7590  139.8760 C   0  0  0  0  0  3  0  0  0  0  0  0
  1  2  1  0  0  0  0
  1  7  1  0  0  0  0
  3  7  2  0  0  0  0
  4  6  1  0  0  0  0
  4  8  2  0  0  0  0
  5  8  1  0  0  0  0
  5 10  1  0  0  0  0
  6  1  2  0  0  0  0
  8  3  1  0  0  0  0
  9 11  2  0  0  0  0
  9  4  1  0  0  0  0
 11  5  1  0  0  0  0
 12 11  1  0  0  0  0
 13 12  1  0  0  0  0
 14 13  1  0  0  0  0
 15 14  1  0  0  0  0
 16 19  2  0  0  0  0
 16 18  1  0  0  0  0
 17 15  2  0  0  0  0
 18 15  1  0  0  0  0
 19 17  1  0  0  0  0
 20 25  1  0  0  0  0
 21 16  1  1  0  0  0
 22 20  1  0  0  0  0
 22 24  1  0  0  0  0
 23 21  1  0  0  0  0
 24 23  2  0  0  0  0
 25 26  1  1  0  0  0
 25 21  1  0  0  0  0
 26 27  1  0  0  0  0
 26 28  2  0  0  0  0
 29  9  1  0  0  0  0
 30 29  1  0  0  0  0
 31 30  1  0  0  0  0
 32 31  1  0  0  0  0
 33 32  1  0  0  0  0
 34 33  1  0  0  0  0
 35 34  2  0  0  0  0
 35 36  1  0  0  0  0
 36 37  2  0  0  0  0
 37 32  1  0  0  0  0
M  END
>  <MODEL>
5

>  <REMARK>
 VINA RESULT:      -8.5      2.552      9.555
  Name = 
  10 active torsions:
  status: ('A' for Active; 'I' for Inactive)
    1  A    between atoms: C_3  and  C_26
    2  A    between atoms: O_4  and  C_18
    3  A    between atoms: O_4  and  C_37
    4  A    between atoms: C_5  and  C_13
    5  A    between atoms: N_8  and  C_23
    6  A    between atoms: C_9  and  C_34
    7  A    between atoms: C_18  and  C_26
    8  A    between atoms: C_19  and  C_23
    9  A    between atoms: C_19  and  O_36
   10  A    between atoms: C_32  and  O_36
                            x       y       z     vdW  Elec       q    Type
                         _______ _______ _______ _____ _____    ______ ____

>  <TORSDO>
F 10

$$$$
=
 OpenBabel10222421133D

 37 41  0  0  1  0  0  0  0  0999 V2000
  185.1990  177.0110  135.7340 C   0  0  0  0  0  0  0  0  0  0  0  0
  183.7730  177.1370  135.3380 C   0  0  0  0  0  1  0  0  0  0  0  0
  187.4100  176.1520  135.2780 N   0  0  0  0  0  0  0  0  0  0  0  0
  187.0020  177.4600  137.2330 C   0  0  0  0  0  0  0  0  0  0  0  0
  189.0900  176.6970  136.9230 N   0  0  0  0  0  0  0  0  0  0  0  0
  185.6570  177.6180  136.9160 C   0  0  0  0  0  3  0  0  0  0  0  0
  186.0960  176.2820  134.9220 C   0  0  0  0  0  3  0  0  0  0  0  0
  187.8390  176.7330  136.4270 C   0  0  0  0  0  0  0  0  0  0  0  0
  187.7680  177.9130  138.2910 C   0  0  0  0  0  0  0  0  0  0  0  0
  190.2440  176.0730  136.2880 C   0  0  0  0  0  1  0  0  0  0  0  0
  189.0490  177.4280  138.0710 C   0  0  0  0  0  0  0  0  0  0  0  0
  190.1290  177.6900  138.9190 O   0  0  0  0  0  0  0  0  0  0  0  0
  190.6170  176.7520  139.8650 C   0  0  0  0  0  2  0  0  0  0  0  0
  191.3230  177.4930  140.9840 C   0  0  0  0  0  2  0  0  0  0  0  0
  190.5660  177.3520  142.2570 C   0  0  0  0  0  0  0  0  0  0  0  0
  189.5990  177.5130  144.4890 C   0  0  0  0  0  0  0  0  0  0  0  0
  189.6600  176.3720  142.4830 N   0  0  0  0  0  0  0  0  0  0  0  0
  190.7200  178.3840  143.5760 S   0  0  0  0  0  0  0  0  0  0  0  0
  189.1150  176.4560  143.7260 C   0  0  0  0  0  3  0  0  0  0  0  0
  188.6310  176.6960  148.1540 C   0  0  0  0  0  2  0  0  0  0  0  0
  189.1410  177.8420  145.8760 C   0  0  1  0  0  3  0  0  0  0  0  0
  187.7750  177.9540  148.3280 C   0  0  0  0  0  2  0  0  0  0  0  0
  187.6720  178.1780  145.8930 C   0  0  0  0  0  3  0  0  0  0  0  0
  187.0230  178.2380  147.0610 C   0  0  0  0  0  3  0  0  0  0  0  0
  189.4890  176.7120  146.8690 C   0  0  1  0  0  3  0  0  0  0  0  0
  190.9490  176.7100  147.2040 C   0  0  0  0  0  0  0  0  0  0  0  0
  191.7960  175.5560  146.7970 C   0  0  0  0  0  1  0  0  0  0  0  0
  191.4490  177.6430  147.8110 O   0  0  0  0  0  0  0  0  0  0  0  0
  187.3750  178.6750  139.3950 O   0  0  0  0  0  0  0  0  0  0  0  0
  186.0900  178.5690  139.9900 C   0  0  0  0  0  2  0  0  0  0  0  0
  186.2050  178.6320  141.5100 C   0  0  0  0  0  2  0  0  0  0  0  0
  184.8950  178.7350  142.1340 N   0  0  0  0  0  0  0  0  0  0  0  0
  183.7180  178.3550  141.3480 C   0  0  0  0  0  2  0  0  0  0  0  0
  182.4310  178.7170  142.0430 C   0  0  0  0  0  3  0  0  0  0  0  0
  182.3920  178.9940  143.3480 C   0  0  0  0  0  3  0  0  0  0  0  0
  183.6240  179.0250  144.1490 C   0  0  0  0  0  3  0  0  0  0  0  0
  184.8100  178.9030  143.5570 C   0  0  0  0  0  3  0  0  0  0  0  0
  1  6  1  0  0  0  0
  2  1  1  0  0  0  0
  3  8  2  0  0  0  0
  4  9  1  0  0  0  0
  5 11  1  0  0  0  0
  6  4  2  0  0  0  0
  7  3  1  0  0  0  0
  7  1  2  0  0  0  0
  8  5  1  0  0  0  0
  8  4  1  0  0  0  0
  9 29  1  0  0  0  0
 10  5  1  0  0  0  0
 11  9  2  0  0  0  0
 11 12  1  0  0  0  0
 12 13  1  0  0  0  0
 13 14  1  0  0  0  0
 14 15  1  0  0  0  0
 15 17  2  0  0  0  0
 15 18  1  0  0  0  0
 17 19  1  0  0  0  0
 18 16  1  0  0  0  0
 19 16  2  0  0  0  0
 20 22  1  0  0  0  0
 21 16  1  6  0  0  0
 21 23  1  0  0  0  0
 21 25  1  0  0  0  0
 23 24  2  0  0  0  0
 24 22  1  0  0  0  0
 25 26  1  1  0  0  0
 25 20  1  0  0  0  0
 26 28  2  0  0  0  0
 27 26  1  0  0  0  0
 29 30  1  0  0  0  0
 30 31  1  0  0  0  0
 31 32  1  0  0  0  0
 32 37  1  0  0  0  0
 33 34  1  0  0  0  0
 33 32  1  0  0  0  0
 34 35  2  0  0  0  0
 35 36  1  0  0  0  0
 37 36  2  0  0  0  0
M  END
>  <MODEL>
6

>  <REMARK>
 VINA RESULT:      -8.5      1.380      1.544
  Name = 
  10 active torsions:
  status: ('A' for Active; 'I' for Inactive)
    1  A    between atoms: C_3  and  C_26
    2  A    between atoms: O_4  and  C_18
    3  A    between atoms: O_4  and  C_37
    4  A    between atoms: C_5  and  C_13
    5  A    between atoms: N_8  and  C_23
    6  A    between atoms: C_9  and  C_34
    7  A    between atoms: C_18  and  C_26
    8  A    between atoms: C_19  and  C_23
    9  A    between atoms: C_19  and  O_36
   10  A    between atoms: C_32  and  O_36
                            x       y       z     vdW  Elec       q    Type
                         _______ _______ _______ _____ _____    ______ ____

>  <TORSDO>
F 10

$$$$
=
 OpenBabel10222421133D

 37 41  0  0  1  0  0  0  0  0999 V2000
  187.1490  177.7430  146.7470 C   0  0  0  0  0  0  0  0  0  0  0  0
  188.1700  177.2480  147.7060 C   0  0  0  0  0  1  0  0  0  0  0  0
  184.9980  178.7700  146.3550 N   0  0  0  0  0  0  0  0  0  0  0  0
  186.3800  178.1190  144.5190 C   0  0  0  0  0  0  0  0  0  0  0  0
  184.3930  179.0450  144.0330 N   0  0  0  0  0  0  0  0  0  0  0  0
  187.3760  177.6420  145.3640 C   0  0  0  0  0  3  0  0  0  0  0  0
  185.9500  178.3170  147.2260 C   0  0  0  0  0  3  0  0  0  0  0  0
  185.2220  178.6570  145.0200 C   0  0  0  0  0  0  0  0  0  0  0  0
  186.2770  178.1780  143.1420 C   0  0  0  0  0  0  0  0  0  0  0  0
  183.1120  179.7180  144.2090 C   0  0  0  0  0  1  0  0  0  0  0  0
  185.0440  178.7540  142.8740 C   0  0  0  0  0  0  0  0  0  0  0  0
  184.5750  179.0060  141.5810 O   0  0  0  0  0  0  0  0  0  0  0  0
  183.7440  178.1020  140.8680 C   0  0  0  0  0  2  0  0  0  0  0  0
  183.4870  178.6520  139.4790 C   0  0  0  0  0  2  0  0  0  0  0  0
  184.3690  177.9820  138.4850 C   0  0  0  0  0  0  0  0  0  0  0  0
  186.1840  177.0700  137.1370 C   0  0  0  0  0  0  0  0  0  0  0  0
  183.9040  177.3160  137.4030 N   0  0  0  0  0  0  0  0  0  0  0  0
  186.0480  177.9480  138.5720 S   0  0  0  0  0  0  0  0  0  0  0  0
  184.9110  176.8030  136.6460 C   0  0  0  0  0  3  0  0  0  0  0  0
  189.3190  177.3880  134.8770 C   0  0  0  0  0  2  0  0  0  0  0  0
  187.4560  176.5930  136.5090 C   0  0  1  0  0  3  0  0  0  0  0  0
  189.4950  175.8750  134.7140 C   0  0  0  0  0  2  0  0  0  0  0  0
  187.1800  175.5640  135.4450 C   0  0  0  0  0  3  0  0  0  0  0  0
  188.1520  175.2170  134.5940 C   0  0  0  0  0  3  0  0  0  0  0  0
  188.2970  177.7720  135.9710 C   0  0  1  0  0  3  0  0  0  0  0  0
  188.9660  178.5180  137.0850 C   0  0  0  0  0  0  0  0  0  0  0  0
  189.8270  177.7830  138.0510 C   0  0  0  0  0  1  0  0  0  0  0  0
  188.8070  179.7210  137.2100 O   0  0  0  0  0  0  0  0  0  0  0  0
  187.1850  177.7330  142.1750 O   0  0  0  0  0  0  0  0  0  0  0  0
  188.2310  178.5450  141.6650 C   0  0  0  0  0  2  0  0  0  0  0  0
  189.5090  177.7260  141.5140 C   0  0  0  0  0  2  0  0  0  0  0  0
  190.1450  177.4990  142.8020 N   0  0  0  0  0  0  0  0  0  0  0  0
  190.5790  176.1380  143.1340 C   0  0  0  0  0  2  0  0  0  0  0  0
  191.0170  176.0180  144.5710 C   0  0  0  0  0  3  0  0  0  0  0  0
  191.3180  177.0910  145.3050 C   0  0  0  0  0  3  0  0  0  0  0  0
  191.1650  178.4460  144.7570 C   0  0  0  0  0  3  0  0  0  0  0  0
  190.6020  178.6260  143.5640 C   0  0  0  0  0  3  0  0  0  0  0  0
  1  7  1  0  0  0  0
  1  2  1  0  0  0  0
  3  7  2  0  0  0  0
  4  8  2  0  0  0  0
  4  6  1  0  0  0  0
  5 10  1  0  0  0  0
  5  8  1  0  0  0  0
  6  1  2  0  0  0  0
  8  3  1  0  0  0  0
  9  4  1  0  0  0  0
 11  9  2  0  0  0  0
 11  5  1  0  0  0  0
 12 11  1  0  0  0  0
 13 12  1  0  0  0  0
 14 13  1  0  0  0  0
 15 18  1  0  0  0  0
 15 14  1  0  0  0  0
 16 18  1  0  0  0  0
 17 15  2  0  0  0  0
 19 16  2  0  0  0  0
 19 17  1  0  0  0  0
 20 25  1  0  0  0  0
 21 16  1  6  0  0  0
 22 20  1  0  0  0  0
 23 21  1  0  0  0  0
 24 22  1  0  0  0  0
 24 23  2  0  0  0  0
 25 21  1  0  0  0  0
 25 26  1  1  0  0  0
 26 28  2  0  0  0  0
 26 27  1  0  0  0  0
 29  9  1  0  0  0  0
 30 29  1  0  0  0  0
 31 30  1  0  0  0  0
 31 32  1  0  0  0  0
 32 33  1  0  0  0  0
 32 37  1  0  0  0  0
 33 34  1  0  0  0  0
 34 35  2  0  0  0  0
 36 35  1  0  0  0  0
 37 36  2  0  0  0  0
M  END
>  <MODEL>
7

>  <REMARK>
 VINA RESULT:      -8.4      2.201      8.796
  Name = 
  10 active torsions:
  status: ('A' for Active; 'I' for Inactive)
    1  A    between atoms: C_3  and  C_26
    2  A    between atoms: O_4  and  C_18
    3  A    between atoms: O_4  and  C_37
    4  A    between atoms: C_5  and  C_13
    5  A    between atoms: N_8  and  C_23
    6  A    between atoms: C_9  and  C_34
    7  A    between atoms: C_18  and  C_26
    8  A    between atoms: C_19  and  C_23
    9  A    between atoms: C_19  and  O_36
   10  A    between atoms: C_32  and  O_36
                            x       y       z     vdW  Elec       q    Type
                         _______ _______ _______ _____ _____    ______ ____

>  <TORSDO>
F 10

$$$$
=
 OpenBabel10222421133D

 37 41  0  0  1  0  0  0  0  0999 V2000
  187.0150  177.9590  146.5460 C   0  0  0  0  0  0  0  0  0  0  0  0
  185.8000  178.3820  147.2860 C   0  0  0  0  0  1  0  0  0  0  0  0
  189.3250  177.2490  146.5820 N   0  0  0  0  0  0  0  0  0  0  0  0
  188.1650  177.4840  144.5080 C   0  0  0  0  0  0  0  0  0  0  0  0
  190.3130  176.8380  144.4180 N   0  0  0  0  0  0  0  0  0  0  0  0
  186.9930  177.8820  145.1430 C   0  0  0  0  0  3  0  0  0  0  0  0
  188.1950  177.6330  147.2520 C   0  0  0  0  0  3  0  0  0  0  0  0
  189.2950  177.1890  145.2260 C   0  0  0  0  0  0  0  0  0  0  0  0
  188.4860  177.3020  143.1760 C   0  0  0  0  0  0  0  0  0  0  0  0
  191.6330  176.3970  144.8500 C   0  0  0  0  0  1  0  0  0  0  0  0
  189.8140  176.9040  143.1530 C   0  0  0  0  0  0  0  0  0  0  0  0
  190.5080  176.5990  141.9780 O   0  0  0  0  0  0  0  0  0  0  0  0
  191.0420  177.5900  141.1140 C   0  0  0  0  0  2  0  0  0  0  0  0
  191.7050  176.9140  139.9290 C   0  0  0  0  0  2  0  0  0  0  0  0
  190.6770  176.3960  138.9860 C   0  0  0  0  0  0  0  0  0  0  0  0
  188.7180  175.9280  137.6140 C   0  0  0  0  0  0  0  0  0  0  0  0
  190.8490  175.2880  138.2290 N   0  0  0  0  0  0  0  0  0  0  0  0
  189.1790  177.1130  138.7230 S   0  0  0  0  0  0  0  0  0  0  0  0
  189.7600  175.0200  137.4590 C   0  0  0  0  0  3  0  0  0  0  0  0
  185.0810  177.0010  136.8020 C   0  0  0  0  0  2  0  0  0  0  0  0
  187.4250  175.8750  136.8610 C   0  0  1  0  0  3  0  0  0  0  0  0
  184.7230  175.6780  136.1170 C   0  0  0  0  0  2  0  0  0  0  0  0
  186.6480  174.6330  137.2100 C   0  0  0  0  0  3  0  0  0  0  0  0
  185.3630  174.5360  136.8500 C   0  0  0  0  0  3  0  0  0  0  0  0
  186.5930  177.1590  137.0760 C   0  0  1  0  0  3  0  0  0  0  0  0
  187.1570  178.3110  136.3010 C   0  0  0  0  0  0  0  0  0  0  0  0
  187.4510  178.1480  134.8510 C   0  0  0  0  0  1  0  0  0  0  0  0
  187.3810  179.3780  136.8480 O   0  0  0  0  0  0  0  0  0  0  0  0
  187.6850  177.4990  142.0460 O   0  0  0  0  0  0  0  0  0  0  0  0
  187.1190  178.7560  141.7090 C   0  0  0  0  0  2  0  0  0  0  0  0
  185.8800  178.5610  140.8410 C   0  0  0  0  0  2  0  0  0  0  0  0
  184.6610  178.6880  141.6260 N   0  0  0  0  0  0  0  0  0  0  0  0
  183.3960  178.2630  141.0200 C   0  0  0  0  0  2  0  0  0  0  0  0
  182.2070  178.6510  141.8590 C   0  0  0  0  0  3  0  0  0  0  0  0
  182.3350  178.9930  143.1420 C   0  0  0  0  0  3  0  0  0  0  0  0
  183.6600  179.0700  143.7740 C   0  0  0  0  0  3  0  0  0  0  0  0
  184.7600  178.9250  143.0380 C   0  0  0  0  0  3  0  0  0  0  0  0
  1  7  1  0  0  0  0
  1  2  1  0  0  0  0
  3  7  2  0  0  0  0
  4  6  1  0  0  0  0
  4  8  2  0  0  0  0
  5 10  1  0  0  0  0
  5  8  1  0  0  0  0
  6  1  2  0  0  0  0
  8  3  1  0  0  0  0
  9  4  1  0  0  0  0
 11  9  2  0  0  0  0
 11  5  1  0  0  0  0
 12 11  1  0  0  0  0
 13 12  1  0  0  0  0
 14 13  1  0  0  0  0
 15 14  1  0  0  0  0
 16 18  1  0  0  0  0
 17 15  2  0  0  0  0
 18 15  1  0  0  0  0
 19 16  2  0  0  0  0
 19 17  1  0  0  0  0
 20 25  1  0  0  0  0
 21 25  1  0  0  0  0
 21 23  1  0  0  0  0
 21 16  1  1  0  0  0
 22 20  1  0  0  0  0
 22 24  1  0  0  0  0
 24 23  2  0  0  0  0
 25 26  1  6  0  0  0
 26 28  2  0  0  0  0
 27 26  1  0  0  0  0
 29  9  1  0  0  0  0
 30 29  1  0  0  0  0
 31 32  1  0  0  0  0
 31 30  1  0  0  0  0
 32 37  1  0  0  0  0
 33 32  1  0  0  0  0
 33 34  1  0  0  0  0
 34 35  2  0  0  0  0
 35 36  1  0  0  0  0
 37 36  2  0  0  0  0
M  END
>  <MODEL>
8

>  <REMARK>
 VINA RESULT:      -8.4      1.946      7.765
  Name = 
  10 active torsions:
  status: ('A' for Active; 'I' for Inactive)
    1  A    between atoms: C_3  and  C_26
    2  A    between atoms: O_4  and  C_18
    3  A    between atoms: O_4  and  C_37
    4  A    between atoms: C_5  and  C_13
    5  A    between atoms: N_8  and  C_23
    6  A    between atoms: C_9  and  C_34
    7  A    between atoms: C_18  and  C_26
    8  A    between atoms: C_19  and  C_23
    9  A    between atoms: C_19  and  O_36
   10  A    between atoms: C_32  and  O_36
                            x       y       z     vdW  Elec       q    Type
                         _______ _______ _______ _____ _____    ______ ____

>  <TORSDO>
F 10

$$$$
=
 OpenBabel10222421133D

 37 41  0  0  1  0  0  0  0  0999 V2000
  184.6530  178.6400  145.2100 C   0  0  0  0  0  0  0  0  0  0  0  0
  185.0020  178.5220  146.6480 C   0  0  0  0  0  1  0  0  0  0  0  0
  182.9640  178.8770  143.4980 N   0  0  0  0  0  0  0  0  0  0  0  0
  185.2730  178.7310  142.9060 C   0  0  0  0  0  0  0  0  0  0  0  0
  183.7930  178.9290  141.2310 N   0  0  0  0  0  0  0  0  0  0  0  0
  185.6650  178.6210  144.2360 C   0  0  0  0  0  3  0  0  0  0  0  0
  183.3010  178.7740  144.8200 C   0  0  0  0  0  3  0  0  0  0  0  0
  183.9500  178.8460  142.5650 C   0  0  0  0  0  0  0  0  0  0  0  0
  185.9890  178.7500  141.7230 C   0  0  0  0  0  0  0  0  0  0  0  0
  182.5300  179.1280  140.5300 C   0  0  0  0  0  1  0  0  0  0  0  0
  185.0500  178.8740  140.7100 C   0  0  0  0  0  0  0  0  0  0  0  0
  185.3830  178.9500  139.3550 O   0  0  0  0  0  0  0  0  0  0  0  0
  185.1050  177.9120  138.4280 C   0  0  0  0  0  2  0  0  0  0  0  0
  185.9610  178.1030  137.1920 C   0  0  0  0  0  2  0  0  0  0  0  0
  187.1240  177.1750  137.2180 C   0  0  0  0  0  0  0  0  0  0  0  0
  189.2990  176.0750  137.2470 C   0  0  0  0  0  0  0  0  0  0  0  0
  187.0040  175.8270  137.2110 N   0  0  0  0  0  0  0  0  0  0  0  0
  188.7320  177.6640  137.2700 S   0  0  0  0  0  0  0  0  0  0  0  0
  188.2130  175.2060  137.2280 C   0  0  0  0  0  3  0  0  0  0  0  0
  193.1170  176.6250  137.6400 C   0  0  0  0  0  2  0  0  0  0  0  0
  190.7320  175.6460  137.2990 C   0  0  1  0  0  3  0  0  0  0  0  0
  193.4940  175.3490  136.8800 C   0  0  0  0  0  2  0  0  0  0  0  0
  191.2410  175.2960  135.9250 C   0  0  0  0  0  3  0  0  0  0  0  0
  192.5550  175.1490  135.7260 C   0  0  0  0  0  3  0  0  0  0  0  0
  191.6150  176.7070  137.9920 C   0  0  1  0  0  3  0  0  0  0  0  0
  191.4150  176.6980  139.4770 C   0  0  0  0  0  0  0  0  0  0  0  0
  192.3420  177.4700  140.3480 C   0  0  0  0  0  1  0  0  0  0  0  0
  190.5030  176.0610  139.9780 O   0  0  0  0  0  0  0  0  0  0  0  0
  187.3690  178.6370  141.5320 O   0  0  0  0  0  0  0  0  0  0  0  0
  188.1600  177.6500  142.1750 C   0  0  0  0  0  2  0  0  0  0  0  0
  189.4970  178.2450  142.6080 C   0  0  0  0  0  2  0  0  0  0  0  0
  189.8970  177.7460  143.9150 N   0  0  0  0  0  0  0  0  0  0  0  0
  188.8600  177.5460  144.9310 C   0  0  0  0  0  2  0  0  0  0  0  0
  189.4450  177.2370  146.2840 C   0  0  0  0  0  3  0  0  0  0  0  0
  190.7090  176.8350  146.4280 C   0  0  0  0  0  3  0  0  0  0  0  0
  191.6070  176.7440  145.2680 C   0  0  0  0  0  3  0  0  0  0  0  0
  191.2080  177.1840  144.0770 C   0  0  0  0  0  3  0  0  0  0  0  0
  1  2  1  0  0  0  0
  3  7  2  0  0  0  0
  4  6  1  0  0  0  0
  5  8  1  0  0  0  0
  6  1  2  0  0  0  0
  7  1  1  0  0  0  0
  8  4  2  0  0  0  0
  8  3  1  0  0  0  0
  9  4  1  0  0  0  0
 10  5  1  0  0  0  0
 11  5  1  0  0  0  0
 11  9  2  0  0  0  0
 12 11  1  0  0  0  0
 13 12  1  0  0  0  0
 14 15  1  0  0  0  0
 14 13  1  0  0  0  0
 15 18  1  0  0  0  0
 16 18  1  0  0  0  0
 17 15  2  0  0  0  0
 17 19  1  0  0  0  0
 19 16  2  0  0  0  0
 20 25  1  0  0  0  0
 21 16  1  6  0  0  0
 21 25  1  0  0  0  0
 22 20  1  0  0  0  0
 23 21  1  0  0  0  0
 24 23  2  0  0  0  0
 24 22  1  0  0  0  0
 25 26  1  1  0  0  0
 26 28  2  0  0  0  0
 26 27  1  0  0  0  0
 29  9  1  0  0  0  0
 29 30  1  0  0  0  0
 30 31  1  0  0  0  0
 31 32  1  0  0  0  0
 32 37  1  0  0  0  0
 32 33  1  0  0  0  0
 33 34  1  0  0  0  0
 34 35  2  0  0  0  0
 36 35  1  0  0  0  0
 37 36  2  0  0  0  0
M  END
>  <MODEL>
9

>  <REMARK>
 VINA RESULT:      -8.3      2.340      7.590
  Name = 
  10 active torsions:
  status: ('A' for Active; 'I' for Inactive)
    1  A    between atoms: C_3  and  C_26
    2  A    between atoms: O_4  and  C_18
    3  A    between atoms: O_4  and  C_37
    4  A    between atoms: C_5  and  C_13
    5  A    between atoms: N_8  and  C_23
    6  A    between atoms: C_9  and  C_34
    7  A    between atoms: C_18  and  C_26
    8  A    between atoms: C_19  and  C_23
    9  A    between atoms: C_19  and  O_36
   10  A    between atoms: C_32  and  O_36
                            x       y       z     vdW  Elec       q    Type
                         _______ _______ _______ _____ _____    ______ ____

>  <TORSDO>
F 10

$$$$
