=
 OpenBabel10222419143D

 35 37  0  0  1  0  0  0  0  0999 V2000
  192.2620  176.9910  139.4350 O   0  0  0  0  0  1  0  0  0  0  0  0
  189.9370  176.5370  139.1050 C   0  0  0  0  0  0  0  0  0  0  0  0
  190.7080  175.4800  136.6570 N   0  0  0  0  0  0  0  0  0  0  0  0
  189.5530  177.3510  140.2350 N   0  0  0  0  0  0  0  0  0  0  0  0
  191.3620  176.0440  138.9370 C   0  0  1  0  0  3  0  0  0  0  0  0
  189.0380  176.2070  138.2220 N   0  0  0  0  0  0  0  0  0  0  0  0
  189.3320  175.3010  137.1130 C   0  0  0  0  0  2  0  0  0  0  0  0
  191.6660  175.7900  137.4800 C   0  0  0  0  0  0  0  0  0  0  0  0
  188.4280  178.2790  140.1550 C   0  0  2  0  0  3  0  0  0  0  0  0
  188.6360  179.1990  139.1250 O   0  0  0  0  0  1  0  0  0  0  0  0
  188.2740  178.9500  141.3700 O   0  0  0  0  0  0  0  0  0  0  0  0
  186.9290  178.7830  141.7060 C   0  0  0  0  0  2  0  0  0  0  0  0
  186.7630  177.5920  142.6390 C   0  0  0  0  0  2  0  0  0  0  0  0
  186.3390  178.3150  146.3680 C   0  0  0  0  0  0  0  0  0  0  0  0
  186.9390  177.9390  145.1500 C   0  0  0  0  0  0  0  0  0  0  0  0
  186.1910  178.0140  143.9570 C   0  0  0  0  0  0  0  0  0  0  0  0
  188.3590  177.4700  145.1270 C   0  0  0  0  0  1  0  0  0  0  0  0
  184.8650  178.4610  143.9930 C   0  0  0  0  0  3  0  0  0  0  0  0
  185.0130  178.7600  146.3850 C   0  0  0  0  0  3  0  0  0  0  0  0
  184.2780  178.8340  145.2030 C   0  0  0  0  0  3  0  0  0  0  0  0
  187.2140  178.2360  147.8900 Cl  0  0  0  0  0  0  0  0  0  0  0  0
  193.8780  174.9320  137.1500 C   0  0  0  0  0  3  0  0  0  0  0  0
  193.0180  175.8910  137.0160 N   0  0  0  0  0  0  0  0  0  0  0  0
  195.2690  175.0290  136.6680 C   0  0  0  0  0  0  0  0  0  0  0  0
  196.2490  173.5070  138.4740 C   0  0  0  0  0  1  0  0  0  0  0  0
  195.4830  175.8310  135.5410 C   0  0  0  0  0  3  0  0  0  0  0  0
  196.7660  175.9970  135.0140 C   0  0  0  0  0  3  0  0  0  0  0  0
  196.3760  174.3780  137.2700 C   0  0  0  0  0  0  0  0  0  0  0  0
  197.8510  175.3570  135.6110 C   0  0  0  0  0  0  0  0  0  0  0  0
  197.6560  174.5530  136.7350 C   0  0  0  0  0  3  0  0  0  0  0  0
  199.1270  175.5240  135.0910 O   0  0  0  0  0  1  0  0  0  0  0  0
  190.3070  177.3300  141.4830 C   0  0  0  0  0  2  0  0  0  0  0  0
  190.0280  176.0490  142.2600 C   0  0  0  0  0  2  0  0  0  0  0  0
  191.0190  175.8550  143.3050 N   0  0  0  0  0  2  0  0  0  0  0  0
  191.7150  177.1180  143.4750 C   0  0  0  0  0  1  0  0  0  0  0  0
  2  4  1  0  0  0  0
  3  7  1  0  0  0  0
  3  8  2  0  0  0  0
  4 32  1  0  0  0  0
  5  2  1  0  0  0  0
  5  1  1  6  0  0  0
  6  2  2  0  0  0  0
  7  6  1  0  0  0  0
  8  5  1  0  0  0  0
  9 10  1  6  0  0  0
  9  4  1  0  0  0  0
  9 11  1  0  0  0  0
 11 12  1  0  0  0  0
 12 13  1  0  0  0  0
 13 16  1  0  0  0  0
 14 19  1  0  0  0  0
 14 21  1  0  0  0  0
 15 14  2  0  0  0  0
 16 18  2  0  0  0  0
 16 15  1  0  0  0  0
 17 15  1  0  0  0  0
 18 20  1  0  0  0  0
 20 19  2  0  0  0  0
 23 22  2  0  0  0  0
 23  8  1  0  0  0  0
 24 22  1  0  0  0  0
 24 28  1  0  0  0  0
 26 24  2  0  0  0  0
 27 26  1  0  0  0  0
 27 29  2  0  0  0  0
 28 25  1  0  0  0  0
 29 30  1  0  0  0  0
 30 28  2  0  0  0  0
 31 29  1  0  0  0  0
 32 33  1  0  0  0  0
 33 34  1  0  0  0  0
 34 35  1  0  0  0  0
M  END
>  <MODEL>
1

>  <REMARK>
 VINA RESULT:      -8.0      0.000      0.000
  Name = 
  10 active torsions:
  status: ('A' for Active; 'I' for Inactive)
    1  A    between atoms: C_3  and  C_7
    2  A    between atoms: C_5  and  N_6
    3  A    between atoms: C_5  and  O_8
    4  A    between atoms: N_6  and  C_12
    5  A    between atoms: O_8  and  C_17
    6  A    between atoms: N_10  and  C_28
    7  A    between atoms: C_12  and  C_19
    8  A    between atoms: C_14  and  C_16
    9  A    between atoms: C_14  and  C_17
   10  A    between atoms: C_19  and  N_21
                            x       y       z     vdW  Elec       q    Type
                         _______ _______ _______ _____ _____    ______ ____

>  <TORSDO>
F 10

$$$$
=
 OpenBabel10222419143D

 35 37  0  0  1  0  0  0  0  0999 V2000
  190.4820  176.4540  140.8970 O   0  0  0  0  0  1  0  0  0  0  0  0
  189.4810  176.8110  138.7530 C   0  0  0  0  0  0  0  0  0  0  0  0
  187.6170  178.3530  140.1160 N   0  0  0  0  0  0  0  0  0  0  0  0
  190.2800  175.7780  138.1380 N   0  0  0  0  0  0  0  0  0  0  0  0
  189.8690  177.4170  140.0900 C   0  0  1  0  0  3  0  0  0  0  0  0
  188.4130  177.2410  138.1420 N   0  0  0  0  0  0  0  0  0  0  0  0
  187.6180  178.3540  138.6560 C   0  0  0  0  0  2  0  0  0  0  0  0
  188.6510  177.9570  140.7990 C   0  0  0  0  0  0  0  0  0  0  0  0
  189.6920  174.8100  137.2160 C   0  0  2  0  0  3  0  0  0  0  0  0
  190.3800  173.5970  137.2880 O   0  0  0  0  0  1  0  0  0  0  0  0
  189.7340  175.3060  135.9110 O   0  0  0  0  0  0  0  0  0  0  0  0
  188.7470  174.5960  135.2240 C   0  0  0  0  0  2  0  0  0  0  0  0
  187.4300  175.3600  135.2570 C   0  0  0  0  0  2  0  0  0  0  0  0
  184.4080  174.6010  137.4720 C   0  0  0  0  0  0  0  0  0  0  0  0
  185.3160  175.3170  136.6670 C   0  0  0  0  0  0  0  0  0  0  0  0
  186.4120  174.6430  136.0890 C   0  0  0  0  0  0  0  0  0  0  0  0
  185.1120  176.7790  136.4250 C   0  0  0  0  0  1  0  0  0  0  0  0
  186.5860  173.2730  136.3180 C   0  0  0  0  0  3  0  0  0  0  0  0
  184.5980  173.2320  137.6890 C   0  0  0  0  0  3  0  0  0  0  0  0
  185.6820  172.5690  137.1150 C   0  0  0  0  0  3  0  0  0  0  0  0
  183.0280  175.3840  138.2270 Cl  0  0  0  0  0  0  0  0  0  0  0  0
  187.7130  177.5080  142.9580 C   0  0  0  0  0  3  0  0  0  0  0  0
  188.6480  178.0320  142.2310 N   0  0  0  0  0  0  0  0  0  0  0  0
  187.7100  177.5770  144.4320 C   0  0  0  0  0  0  0  0  0  0  0  0
  185.2930  178.3910  144.6220 C   0  0  0  0  0  1  0  0  0  0  0  0
  188.9000  177.2170  145.0750 C   0  0  0  0  0  3  0  0  0  0  0  0
  189.0010  177.2590  146.4670 C   0  0  0  0  0  3  0  0  0  0  0  0
  186.6000  177.9850  145.2150 C   0  0  0  0  0  0  0  0  0  0  0  0
  187.9090  177.6640  147.2320 C   0  0  0  0  0  0  0  0  0  0  0  0
  186.7140  178.0260  146.6080 C   0  0  0  0  0  3  0  0  0  0  0  0
  188.0090  177.7110  148.6160 O   0  0  0  0  0  1  0  0  0  0  0  0
  191.6940  175.6140  138.4570 C   0  0  0  0  0  2  0  0  0  0  0  0
  192.5570  176.4610  137.5280 C   0  0  0  0  0  2  0  0  0  0  0  0
  193.9570  176.0900  137.6460 N   0  0  0  0  0  2  0  0  0  0  0  0
  194.0110  174.6420  137.7290 C   0  0  0  0  0  1  0  0  0  0  0  0
  2  5  1  0  0  0  0
  3  8  2  0  0  0  0
  4 32  1  0  0  0  0
  4  2  1  0  0  0  0
  5  8  1  0  0  0  0
  5  1  1  1  0  0  0
  6  7  1  0  0  0  0
  6  2  2  0  0  0  0
  7  3  1  0  0  0  0
  8 23  1  0  0  0  0
  9 10  1  6  0  0  0
  9  4  1  0  0  0  0
 11  9  1  0  0  0  0
 12 13  1  0  0  0  0
 12 11  1  0  0  0  0
 13 16  1  0  0  0  0
 14 19  1  0  0  0  0
 14 21  1  0  0  0  0
 15 14  2  0  0  0  0
 16 18  2  0  0  0  0
 16 15  1  0  0  0  0
 17 15  1  0  0  0  0
 18 20  1  0  0  0  0
 20 19  2  0  0  0  0
 22 24  1  0  0  0  0
 23 22  2  0  0  0  0
 24 26  2  0  0  0  0
 24 28  1  0  0  0  0
 25 28  1  0  0  0  0
 26 27  1  0  0  0  0
 27 29  2  0  0  0  0
 28 30  2  0  0  0  0
 29 31  1  0  0  0  0
 30 29  1  0  0  0  0
 33 34  1  0  0  0  0
 33 32  1  0  0  0  0
 34 35  1  0  0  0  0
M  END
>  <MODEL>
2

>  <REMARK>
 VINA RESULT:      -8.0      3.360      9.134
  Name = 
  10 active torsions:
  status: ('A' for Active; 'I' for Inactive)
    1  A    between atoms: C_3  and  C_7
    2  A    between atoms: C_5  and  N_6
    3  A    between atoms: C_5  and  O_8
    4  A    between atoms: N_6  and  C_12
    5  A    between atoms: O_8  and  C_17
    6  A    between atoms: N_10  and  C_28
    7  A    between atoms: C_12  and  C_19
    8  A    between atoms: C_14  and  C_16
    9  A    between atoms: C_14  and  C_17
   10  A    between atoms: C_19  and  N_21
                            x       y       z     vdW  Elec       q    Type
                         _______ _______ _______ _____ _____    ______ ____

>  <TORSDO>
F 10

$$$$
=
 OpenBabel10222419143D

 35 37  0  0  1  0  0  0  0  0999 V2000
  187.8930  176.0560  137.8840 O   0  0  0  0  0  1  0  0  0  0  0  0
  190.1680  176.2770  138.5890 C   0  0  0  0  0  0  0  0  0  0  0  0
  190.6240  173.9580  137.1320 N   0  0  0  0  0  0  0  0  0  0  0  0
  189.8340  177.2930  139.5590 N   0  0  0  0  0  0  0  0  0  0  0  0
  189.2180  175.9240  137.4590 C   0  0  1  0  0  3  0  0  0  0  0  0
  191.3140  175.6620  138.6770 N   0  0  0  0  0  0  0  0  0  0  0  0
  191.7600  174.7010  137.6700 C   0  0  0  0  0  2  0  0  0  0  0  0
  189.4520  174.5070  136.9940 C   0  0  0  0  0  0  0  0  0  0  0  0
  190.3950  177.2690  140.9080 C   0  0  2  0  0  3  0  0  0  0  0  0
  191.7640  177.5420  140.8650 O   0  0  0  0  0  1  0  0  0  0  0  0
  190.1760  176.0210  141.4940 O   0  0  0  0  0  0  0  0  0  0  0  0
  190.5320  176.1850  142.8350 C   0  0  0  0  0  2  0  0  0  0  0  0
  189.5490  177.1150  143.5310 C   0  0  0  0  0  2  0  0  0  0  0  0
  188.9890  177.4640  147.2970 C   0  0  0  0  0  0  0  0  0  0  0  0
  188.7260  177.4490  145.9120 C   0  0  0  0  0  0  0  0  0  0  0  0
  189.7590  177.1100  145.0140 C   0  0  0  0  0  0  0  0  0  0  0  0
  187.3600  177.7870  145.4050 C   0  0  0  0  0  1  0  0  0  0  0  0
  191.0300  176.7890  145.5040 C   0  0  0  0  0  3  0  0  0  0  0  0
  190.2650  177.1400  147.7680 C   0  0  0  0  0  3  0  0  0  0  0  0
  191.2830  176.8030  146.8770 C   0  0  0  0  0  3  0  0  0  0  0  0
  187.7480  177.8860  148.4660 Cl  0  0  0  0  0  0  0  0  0  0  0  0
  187.5680  173.0300  137.0860 C   0  0  0  0  0  3  0  0  0  0  0  0
  188.3730  173.7750  136.3980 N   0  0  0  0  0  0  0  0  0  0  0  0
  186.4510  172.2810  136.4770 C   0  0  0  0  0  0  0  0  0  0  0  0
  184.6250  173.4230  137.8560 C   0  0  0  0  0  1  0  0  0  0  0  0
  186.7930  171.3410  135.4980 C   0  0  0  0  0  3  0  0  0  0  0  0
  185.8100  170.5740  134.8690 C   0  0  0  0  0  3  0  0  0  0  0  0
  185.0870  172.4500  136.8230 C   0  0  0  0  0  0  0  0  0  0  0  0
  184.4700  170.7410  135.2150 C   0  0  0  0  0  0  0  0  0  0  0  0
  184.1110  171.6750  136.1890 C   0  0  0  0  0  3  0  0  0  0  0  0
  183.4920  169.9770  134.5950 O   0  0  0  0  0  1  0  0  0  0  0  0
  188.8770  178.3520  139.2590 C   0  0  0  0  0  2  0  0  0  0  0  0
  187.9840  178.6280  140.4640 C   0  0  0  0  0  2  0  0  0  0  0  0
  186.5830  178.6280  140.0770 N   0  0  0  0  0  2  0  0  0  0  0  0
  185.8150  179.0000  141.2520 C   0  0  0  0  0  1  0  0  0  0  0  0
  2  6  2  0  0  0  0
  2  4  1  0  0  0  0
  3  7  1  0  0  0  0
  4  9  1  0  0  0  0
  5  1  1  1  0  0  0
  5  2  1  0  0  0  0
  7  6  1  0  0  0  0
  8  3  2  0  0  0  0
  8  5  1  0  0  0  0
  9 10  1  6  0  0  0
  9 11  1  0  0  0  0
 11 12  1  0  0  0  0
 12 13  1  0  0  0  0
 13 16  1  0  0  0  0
 14 19  1  0  0  0  0
 14 21  1  0  0  0  0
 15 14  2  0  0  0  0
 16 18  2  0  0  0  0
 16 15  1  0  0  0  0
 17 15  1  0  0  0  0
 18 20  1  0  0  0  0
 20 19  2  0  0  0  0
 23  8  1  0  0  0  0
 23 22  2  0  0  0  0
 24 28  1  0  0  0  0
 24 22  1  0  0  0  0
 26 24  2  0  0  0  0
 27 29  2  0  0  0  0
 27 26  1  0  0  0  0
 28 25  1  0  0  0  0
 29 30  1  0  0  0  0
 30 28  2  0  0  0  0
 31 29  1  0  0  0  0
 32  4  1  0  0  0  0
 32 33  1  0  0  0  0
 34 33  1  0  0  0  0
 34 35  1  0  0  0  0
M  END
>  <MODEL>
3

>  <REMARK>
 VINA RESULT:      -7.8      3.629      6.997
  Name = 
  10 active torsions:
  status: ('A' for Active; 'I' for Inactive)
    1  A    between atoms: C_3  and  C_7
    2  A    between atoms: C_5  and  N_6
    3  A    between atoms: C_5  and  O_8
    4  A    between atoms: N_6  and  C_12
    5  A    between atoms: O_8  and  C_17
    6  A    between atoms: N_10  and  C_28
    7  A    between atoms: C_12  and  C_19
    8  A    between atoms: C_14  and  C_16
    9  A    between atoms: C_14  and  C_17
   10  A    between atoms: C_19  and  N_21
                            x       y       z     vdW  Elec       q    Type
                         _______ _______ _______ _____ _____    ______ ____

>  <TORSDO>
F 10

$$$$
=
 OpenBabel10222419143D

 35 37  0  0  1  0  0  0  0  0999 V2000
  182.4930  178.5670  143.0720 O   0  0  0  0  0  1  0  0  0  0  0  0
  182.5460  178.8860  140.7020 C   0  0  0  0  0  0  0  0  0  0  0  0
  185.2890  179.1780  141.0160 N   0  0  0  0  0  0  0  0  0  0  0  0
  181.1110  179.0220  140.6250 N   0  0  0  0  0  0  0  0  0  0  0  0
  183.2150  178.2630  141.9140 C   0  0  1  0  0  3  0  0  0  0  0  0
  183.2800  179.2910  139.7050 N   0  0  0  0  0  0  0  0  0  0  0  0
  184.7280  179.0870  139.6710 C   0  0  0  0  0  2  0  0  0  0  0  0
  184.6270  178.7760  142.0610 C   0  0  0  0  0  0  0  0  0  0  0  0
  180.4900  180.0660  139.8140 C   0  0  2  0  0  3  0  0  0  0  0  0
  179.2870  180.4740  140.3940 O   0  0  0  0  0  1  0  0  0  0  0  0
  180.2600  179.5940  138.5200 O   0  0  0  0  0  0  0  0  0  0  0  0
  180.7430  180.5990  137.6780 C   0  0  0  0  0  2  0  0  0  0  0  0
  179.5850  181.3630  137.0520 C   0  0  0  0  0  2  0  0  0  0  0  0
  179.9540  185.1460  137.4590 C   0  0  0  0  0  0  0  0  0  0  0  0
  179.6220  183.8070  137.7470 C   0  0  0  0  0  0  0  0  0  0  0  0
  179.9490  182.7970  136.8180 C   0  0  0  0  0  0  0  0  0  0  0  0
  178.9320  183.4650  139.0290 C   0  0  0  0  0  1  0  0  0  0  0  0
  180.6000  183.1320  135.6260 C   0  0  0  0  0  3  0  0  0  0  0  0
  180.6060  185.4620  136.2630 C   0  0  0  0  0  3  0  0  0  0  0  0
  180.9290  184.4590  135.3490 C   0  0  0  0  0  3  0  0  0  0  0  0
  179.5670  186.4510  138.5700 Cl  0  0  0  0  0  0  0  0  0  0  0  0
  186.0760  177.9190  143.7660 C   0  0  0  0  0  3  0  0  0  0  0  0
  185.2300  178.8120  143.3610 N   0  0  0  0  0  0  0  0  0  0  0  0
  186.7030  177.9560  145.1010 C   0  0  0  0  0  0  0  0  0  0  0  0
  188.9140  176.9130  144.3480 C   0  0  0  0  0  1  0  0  0  0  0  0
  185.9270  178.4830  146.1400 C   0  0  0  0  0  3  0  0  0  0  0  0
  186.4260  178.5510  147.4420 C   0  0  0  0  0  3  0  0  0  0  0  0
  188.0130  177.4940  145.3860 C   0  0  0  0  0  0  0  0  0  0  0  0
  187.7140  178.0920  147.7180 C   0  0  0  0  0  0  0  0  0  0  0  0
  188.5020  177.5650  146.6940 C   0  0  0  0  0  3  0  0  0  0  0  0
  188.2100  178.1560  149.0130 O   0  0  0  0  0  1  0  0  0  0  0  0
  180.2190  178.1670  141.3990 C   0  0  0  0  0  2  0  0  0  0  0  0
  179.6090  177.0840  140.5160 C   0  0  0  0  0  2  0  0  0  0  0  0
  179.3090  175.8940  141.2940 N   0  0  0  0  0  2  0  0  0  0  0  0
  179.4450  174.7550  140.4030 C   0  0  0  0  0  1  0  0  0  0  0  0
  2  5  1  0  0  0  0
  3  8  2  0  0  0  0
  4  2  1  0  0  0  0
  4 32  1  0  0  0  0
  5  8  1  0  0  0  0
  5  1  1  1  0  0  0
  6  2  2  0  0  0  0
  7  6  1  0  0  0  0
  7  3  1  0  0  0  0
  8 23  1  0  0  0  0
  9 10  1  1  0  0  0
  9  4  1  0  0  0  0
 11  9  1  0  0  0  0
 12 11  1  0  0  0  0
 13 12  1  0  0  0  0
 14 15  1  0  0  0  0
 14 21  1  0  0  0  0
 15 17  1  0  0  0  0
 16 13  1  0  0  0  0
 16 15  2  0  0  0  0
 18 16  1  0  0  0  0
 19 14  2  0  0  0  0
 20 18  2  0  0  0  0
 20 19  1  0  0  0  0
 22 24  1  0  0  0  0
 23 22  2  0  0  0  0
 24 28  2  0  0  0  0
 24 26  1  0  0  0  0
 25 28  1  0  0  0  0
 26 27  2  0  0  0  0
 27 29  1  0  0  0  0
 28 30  1  0  0  0  0
 29 31  1  0  0  0  0
 30 29  2  0  0  0  0
 33 34  1  0  0  0  0
 33 32  1  0  0  0  0
 35 34  1  0  0  0  0
M  END
>  <MODEL>
4

>  <REMARK>
 VINA RESULT:      -7.7      7.853     11.397
  Name = 
  10 active torsions:
  status: ('A' for Active; 'I' for Inactive)
    1  A    between atoms: C_3  and  C_7
    2  A    between atoms: C_5  and  N_6
    3  A    between atoms: C_5  and  O_8
    4  A    between atoms: N_6  and  C_12
    5  A    between atoms: O_8  and  C_17
    6  A    between atoms: N_10  and  C_28
    7  A    between atoms: C_12  and  C_19
    8  A    between atoms: C_14  and  C_16
    9  A    between atoms: C_14  and  C_17
   10  A    between atoms: C_19  and  N_21
                            x       y       z     vdW  Elec       q    Type
                         _______ _______ _______ _____ _____    ______ ____

>  <TORSDO>
F 10

$$$$
=
 OpenBabel10222419143D

 35 37  0  0  1  0  0  0  0  0999 V2000
  190.7960  177.0350  140.5350 O   0  0  0  0  0  1  0  0  0  0  0  0
  189.7840  177.1550  138.3710 C   0  0  0  0  0  0  0  0  0  0  0  0
  187.5990  178.2520  139.6860 N   0  0  0  0  0  0  0  0  0  0  0  0
  190.8040  176.3230  137.7780 N   0  0  0  0  0  0  0  0  0  0  0  0
  190.0020  177.8360  139.7090 C   0  0  1  0  0  3  0  0  0  0  0  0
  188.6600  177.3380  137.7360 N   0  0  0  0  0  0  0  0  0  0  0  0
  187.6290  178.2500  138.2270 C   0  0  0  0  0  2  0  0  0  0  0  0
  188.6800  178.0960  140.3920 C   0  0  0  0  0  0  0  0  0  0  0  0
  190.4620  175.2460  136.8510 C   0  0  2  0  0  3  0  0  0  0  0  0
  189.9150  175.7750  135.6810 O   0  0  0  0  0  1  0  0  0  0  0  0
  189.5540  174.3710  137.4500 O   0  0  0  0  0  0  0  0  0  0  0  0
  188.6630  174.0240  136.4310 C   0  0  0  0  0  2  0  0  0  0  0  0
  188.2910  172.5520  136.5350 C   0  0  0  0  0  2  0  0  0  0  0  0
  184.7270  171.4390  135.7150 C   0  0  0  0  0  0  0  0  0  0  0  0
  186.1310  171.5420  135.6560 C   0  0  0  0  0  0  0  0  0  0  0  0
  186.8040  172.3730  136.5750 C   0  0  0  0  0  0  0  0  0  0  0  0
  186.8960  170.7700  134.6280 C   0  0  0  0  0  1  0  0  0  0  0  0
  186.0750  173.0840  137.5350 C   0  0  0  0  0  3  0  0  0  0  0  0
  184.0150  172.1550  136.6820 C   0  0  0  0  0  3  0  0  0  0  0  0
  184.6850  172.9750  137.5900 C   0  0  0  0  0  3  0  0  0  0  0  0
  183.8280  170.4280  134.5950 Cl  0  0  0  0  0  0  0  0  0  0  0  0
  187.8810  177.3980  142.5410 C   0  0  0  0  0  3  0  0  0  0  0  0
  188.6320  178.1720  141.8230 N   0  0  0  0  0  0  0  0  0  0  0  0
  187.8340  177.4700  144.0140 C   0  0  0  0  0  0  0  0  0  0  0  0
  185.4010  178.2470  144.1310 C   0  0  0  0  0  1  0  0  0  0  0  0
  189.0100  177.1270  144.6920 C   0  0  0  0  0  3  0  0  0  0  0  0
  189.0700  177.1730  146.0870 C   0  0  0  0  0  3  0  0  0  0  0  0
  186.6960  177.8610  144.7630 C   0  0  0  0  0  0  0  0  0  0  0  0
  187.9490  177.5620  146.8190 C   0  0  0  0  0  0  0  0  0  0  0  0
  186.7680  177.9050  146.1590 C   0  0  0  0  0  3  0  0  0  0  0  0
  188.0080  177.6120  148.2050 O   0  0  0  0  0  1  0  0  0  0  0  0
  192.2120  176.4760  138.1240 C   0  0  0  0  0  2  0  0  0  0  0  0
  192.9950  175.2160  137.7700 C   0  0  0  0  0  2  0  0  0  0  0  0
  194.3120  175.5550  137.2590 N   0  0  0  0  0  2  0  0  0  0  0  0
  194.1140  176.3770  136.0780 C   0  0  0  0  0  1  0  0  0  0  0  0
  2  5  1  0  0  0  0
  3  8  2  0  0  0  0
  4 32  1  0  0  0  0
  4  2  1  0  0  0  0
  5  8  1  0  0  0  0
  5  1  1  1  0  0  0
  6  7  1  0  0  0  0
  6  2  2  0  0  0  0
  7  3  1  0  0  0  0
  8 23  1  0  0  0  0
  9 10  1  6  0  0  0
  9 11  1  0  0  0  0
  9  4  1  0  0  0  0
 12 13  1  0  0  0  0
 12 11  1  0  0  0  0
 13 16  1  0  0  0  0
 14 19  1  0  0  0  0
 15 14  2  0  0  0  0
 15 16  1  0  0  0  0
 16 18  2  0  0  0  0
 17 15  1  0  0  0  0
 18 20  1  0  0  0  0
 19 20  2  0  0  0  0
 21 14  1  0  0  0  0
 22 24  1  0  0  0  0
 23 22  2  0  0  0  0
 24 26  2  0  0  0  0
 24 28  1  0  0  0  0
 25 28  1  0  0  0  0
 26 27  1  0  0  0  0
 27 29  2  0  0  0  0
 28 30  2  0  0  0  0
 29 31  1  0  0  0  0
 30 29  1  0  0  0  0
 33 32  1  0  0  0  0
 34 33  1  0  0  0  0
 35 34  1  0  0  0  0
M  END
>  <MODEL>
5

>  <REMARK>
 VINA RESULT:      -7.5      4.081      9.501
  Name = 
  10 active torsions:
  status: ('A' for Active; 'I' for Inactive)
    1  A    between atoms: C_3  and  C_7
    2  A    between atoms: C_5  and  N_6
    3  A    between atoms: C_5  and  O_8
    4  A    between atoms: N_6  and  C_12
    5  A    between atoms: O_8  and  C_17
    6  A    between atoms: N_10  and  C_28
    7  A    between atoms: C_12  and  C_19
    8  A    between atoms: C_14  and  C_16
    9  A    between atoms: C_14  and  C_17
   10  A    between atoms: C_19  and  N_21
                            x       y       z     vdW  Elec       q    Type
                         _______ _______ _______ _____ _____    ______ ____

>  <TORSDO>
F 10

$$$$
=
 OpenBabel10222419143D

 35 37  0  0  1  0  0  0  0  0999 V2000
  191.0640  177.0110  140.7800 O   0  0  0  0  0  1  0  0  0  0  0  0
  190.0380  177.0580  138.6190 C   0  0  0  0  0  0  0  0  0  0  0  0
  187.7720  177.9570  139.9490 N   0  0  0  0  0  0  0  0  0  0  0  0
  191.1230  176.3190  138.0190 N   0  0  0  0  0  0  0  0  0  0  0  0
  190.2020  177.7470  139.9620 C   0  0  1  0  0  3  0  0  0  0  0  0
  188.9010  177.1480  137.9900 N   0  0  0  0  0  0  0  0  0  0  0  0
  187.7970  177.9660  138.4890 C   0  0  0  0  0  2  0  0  0  0  0  0
  188.8660  177.8890  140.6500 C   0  0  0  0  0  0  0  0  0  0  0  0
  190.8710  175.2230  137.0860 C   0  0  2  0  0  3  0  0  0  0  0  0
  190.5710  175.7290  135.8200 O   0  0  0  0  0  1  0  0  0  0  0  0
  189.8150  174.4360  137.5490 O   0  0  0  0  0  0  0  0  0  0  0  0
  189.3410  173.7680  136.4170 C   0  0  0  0  0  2  0  0  0  0  0  0
  187.9500  173.2100  136.6790 C   0  0  0  0  0  2  0  0  0  0  0  0
  184.6620  175.1560  136.8250 C   0  0  0  0  0  0  0  0  0  0  0  0
  185.6240  174.1570  137.0740 C   0  0  0  0  0  0  0  0  0  0  0  0
  186.9000  174.2600  136.4810 C   0  0  0  0  0  0  0  0  0  0  0  0
  185.2930  173.0020  137.9640 C   0  0  0  0  0  1  0  0  0  0  0  0
  187.1990  175.3500  135.6570 C   0  0  0  0  0  3  0  0  0  0  0  0
  184.9790  176.2390  135.9990 C   0  0  0  0  0  3  0  0  0  0  0  0
  186.2420  176.3380  135.4160 C   0  0  0  0  0  3  0  0  0  0  0  0
  183.0530  175.0810  137.5260 Cl  0  0  0  0  0  0  0  0  0  0  0  0
  187.8530  177.4310  142.7730 C   0  0  0  0  0  3  0  0  0  0  0  0
  188.8160  177.9530  142.0820 N   0  0  0  0  0  0  0  0  0  0  0  0
  187.8020  177.4890  144.2460 C   0  0  0  0  0  0  0  0  0  0  0  0
  185.3700  178.2690  144.3650 C   0  0  0  0  0  1  0  0  0  0  0  0
  188.9750  177.1380  144.9250 C   0  0  0  0  0  3  0  0  0  0  0  0
  189.0320  177.1700  146.3190 C   0  0  0  0  0  3  0  0  0  0  0  0
  186.6630  177.8750  144.9960 C   0  0  0  0  0  0  0  0  0  0  0  0
  187.9100  177.5550  147.0520 C   0  0  0  0  0  0  0  0  0  0  0  0
  186.7310  177.9060  146.3920 C   0  0  0  0  0  3  0  0  0  0  0  0
  187.9650  177.5920  148.4390 O   0  0  0  0  0  1  0  0  0  0  0  0
  192.5150  176.5900  138.3620 C   0  0  0  0  0  2  0  0  0  0  0  0
  193.4540  175.7320  137.5210 C   0  0  0  0  0  2  0  0  0  0  0  0
  194.5830  175.2760  138.3140 N   0  0  0  0  0  2  0  0  0  0  0  0
  194.7920  173.8750  137.9950 C   0  0  0  0  0  1  0  0  0  0  0  0
  2  5  1  0  0  0  0
  3  8  2  0  0  0  0
  4 32  1  0  0  0  0
  4  2  1  0  0  0  0
  5  8  1  0  0  0  0
  5  1  1  1  0  0  0
  6  7  1  0  0  0  0
  6  2  2  0  0  0  0
  7  3  1  0  0  0  0
  8 23  1  0  0  0  0
  9 10  1  6  0  0  0
  9 11  1  0  0  0  0
  9  4  1  0  0  0  0
 12 13  1  0  0  0  0
 12 11  1  0  0  0  0
 14 15  1  0  0  0  0
 14 21  1  0  0  0  0
 15 17  1  0  0  0  0
 16 13  1  0  0  0  0
 16 15  2  0  0  0  0
 18 16  1  0  0  0  0
 19 14  2  0  0  0  0
 20 18  2  0  0  0  0
 20 19  1  0  0  0  0
 22 24  1  0  0  0  0
 23 22  2  0  0  0  0
 24 26  2  0  0  0  0
 24 28  1  0  0  0  0
 25 28  1  0  0  0  0
 26 27  1  0  0  0  0
 27 29  2  0  0  0  0
 28 30  2  0  0  0  0
 29 31  1  0  0  0  0
 30 29  1  0  0  0  0
 33 34  1  0  0  0  0
 33 32  1  0  0  0  0
 35 34  1  0  0  0  0
M  END
>  <MODEL>
6

>  <REMARK>
 VINA RESULT:      -7.4      3.291      9.046
  Name = 
  10 active torsions:
  status: ('A' for Active; 'I' for Inactive)
    1  A    between atoms: C_3  and  C_7
    2  A    between atoms: C_5  and  N_6
    3  A    between atoms: C_5  and  O_8
    4  A    between atoms: N_6  and  C_12
    5  A    between atoms: O_8  and  C_17
    6  A    between atoms: N_10  and  C_28
    7  A    between atoms: C_12  and  C_19
    8  A    between atoms: C_14  and  C_16
    9  A    between atoms: C_14  and  C_17
   10  A    between atoms: C_19  and  N_21
                            x       y       z     vdW  Elec       q    Type
                         _______ _______ _______ _____ _____    ______ ____

>  <TORSDO>
F 10

$$$$
=
 OpenBabel10222419143D

 35 37  0  0  1  0  0  0  0  0999 V2000
  188.8240  177.3320  140.2050 O   0  0  0  0  0  1  0  0  0  0  0  0
  187.2530  177.7690  138.4550 C   0  0  0  0  0  0  0  0  0  0  0  0
  185.6450  178.8320  140.4540 N   0  0  0  0  0  0  0  0  0  0  0  0
  187.9800  176.9520  137.5130 N   0  0  0  0  0  0  0  0  0  0  0  0
  187.9060  178.2720  139.7300 C   0  0  1  0  0  3  0  0  0  0  0  0
  186.0170  178.0930  138.1990 N   0  0  0  0  0  0  0  0  0  0  0  0
  185.2580  179.0020  139.0560 C   0  0  0  0  0  2  0  0  0  0  0  0
  186.8640  178.5290  140.7920 C   0  0  0  0  0  0  0  0  0  0  0  0
  187.2910  176.0170  136.6280 C   0  0  2  0  0  3  0  0  0  0  0  0
  186.5920  176.7140  135.6410 O   0  0  0  0  0  1  0  0  0  0  0  0
  186.4100  175.2220  137.3660 O   0  0  0  0  0  0  0  0  0  0  0  0
  185.3170  175.0160  136.5210 C   0  0  0  0  0  2  0  0  0  0  0  0
  184.0350  174.9140  137.3340 C   0  0  0  0  0  2  0  0  0  0  0  0
  181.6070  177.7940  137.9830 C   0  0  0  0  0  0  0  0  0  0  0  0
  182.4180  176.6660  138.2150 C   0  0  0  0  0  0  0  0  0  0  0  0
  183.1850  176.1340  137.1570 C   0  0  0  0  0  0  0  0  0  0  0  0
  182.4650  176.0420  139.5740 C   0  0  0  0  0  1  0  0  0  0  0  0
  183.1360  176.7320  135.8930 C   0  0  0  0  0  3  0  0  0  0  0  0
  181.5710  178.3790  136.7140 C   0  0  0  0  0  3  0  0  0  0  0  0
  182.3330  177.8520  135.6710 C   0  0  0  0  0  3  0  0  0  0  0  0
  180.6210  178.4990  139.2560 Cl  0  0  0  0  0  0  0  0  0  0  0  0
  186.4220  178.0090  143.0890 C   0  0  0  0  0  3  0  0  0  0  0  0
  187.2330  178.4370  142.1750 N   0  0  0  0  0  0  0  0  0  0  0  0
  186.8010  177.9070  144.5120 C   0  0  0  0  0  0  0  0  0  0  0  0
  184.5460  178.7110  145.4110 C   0  0  0  0  0  1  0  0  0  0  0  0
  188.1020  177.4660  144.7810 C   0  0  0  0  0  3  0  0  0  0  0  0
  188.5590  177.3460  146.0950 C   0  0  0  0  0  3  0  0  0  0  0  0
  185.9450  178.2290  145.5960 C   0  0  0  0  0  0  0  0  0  0  0  0
  187.7160  177.6680  147.1570 C   0  0  0  0  0  0  0  0  0  0  0  0
  186.4150  178.1080  146.9070 C   0  0  0  0  0  3  0  0  0  0  0  0
  188.1700  177.5540  148.4630 O   0  0  0  0  0  1  0  0  0  0  0  0
  189.4370  176.9780  137.4430 C   0  0  0  0  0  2  0  0  0  0  0  0
  189.9950  175.5650  137.3170 C   0  0  0  0  0  2  0  0  0  0  0  0
  190.9800  175.3070  138.3540 N   0  0  0  0  0  2  0  0  0  0  0  0
  192.0480  176.2750  138.1810 C   0  0  0  0  0  1  0  0  0  0  0  0
  2  5  1  0  0  0  0
  3  8  2  0  0  0  0
  4  2  1  0  0  0  0
  5  1  1  1  0  0  0
  5  8  1  0  0  0  0
  6  2  2  0  0  0  0
  6  7  1  0  0  0  0
  7  3  1  0  0  0  0
  8 23  1  0  0  0  0
  9 10  1  6  0  0  0
  9 11  1  0  0  0  0
  9  4  1  0  0  0  0
 12 13  1  0  0  0  0
 12 11  1  0  0  0  0
 14 15  1  0  0  0  0
 14 21  1  0  0  0  0
 15 17  1  0  0  0  0
 16 13  1  0  0  0  0
 16 15  2  0  0  0  0
 18 16  1  0  0  0  0
 19 14  2  0  0  0  0
 20 18  2  0  0  0  0
 20 19  1  0  0  0  0
 22 24  1  0  0  0  0
 23 22  2  0  0  0  0
 24 26  2  0  0  0  0
 24 28  1  0  0  0  0
 25 28  1  0  0  0  0
 26 27  1  0  0  0  0
 27 29  2  0  0  0  0
 28 30  2  0  0  0  0
 29 31  1  0  0  0  0
 30 29  1  0  0  0  0
 32  4  1  0  0  0  0
 33 32  1  0  0  0  0
 33 34  1  0  0  0  0
 35 34  1  0  0  0  0
M  END
>  <MODEL>
7

>  <REMARK>
 VINA RESULT:      -7.3      4.292      9.197
  Name = 
  10 active torsions:
  status: ('A' for Active; 'I' for Inactive)
    1  A    between atoms: C_3  and  C_7
    2  A    between atoms: C_5  and  N_6
    3  A    between atoms: C_5  and  O_8
    4  A    between atoms: N_6  and  C_12
    5  A    between atoms: O_8  and  C_17
    6  A    between atoms: N_10  and  C_28
    7  A    between atoms: C_12  and  C_19
    8  A    between atoms: C_14  and  C_16
    9  A    between atoms: C_14  and  C_17
   10  A    between atoms: C_19  and  N_21
                            x       y       z     vdW  Elec       q    Type
                         _______ _______ _______ _____ _____    ______ ____

>  <TORSDO>
F 10

$$$$
=
 OpenBabel10222419143D

 35 37  0  0  1  0  0  0  0  0999 V2000
  190.7690  175.0880  137.7620 O   0  0  0  0  0  1  0  0  0  0  0  0
  191.0290  176.8910  139.3110 C   0  0  0  0  0  0  0  0  0  0  0  0
  193.7540  176.4050  139.0930 N   0  0  0  0  0  0  0  0  0  0  0  0
  189.6190  176.9130  139.6190 N   0  0  0  0  0  0  0  0  0  0  0  0
  191.5530  176.2050  138.0630 C   0  0  1  0  0  3  0  0  0  0  0  0
  191.8670  177.4840  140.1140 N   0  0  0  0  0  0  0  0  0  0  0  0
  193.2930  177.5910  139.8100 C   0  0  0  0  0  2  0  0  0  0  0  0
  192.9840  175.7680  138.2600 C   0  0  0  0  0  0  0  0  0  0  0  0
  189.1430  177.0310  140.9950 C   0  0  2  0  0  3  0  0  0  0  0  0
  189.0180  178.3760  141.3480 O   0  0  0  0  0  1  0  0  0  0  0  0
  190.0290  176.3890  141.8640 O   0  0  0  0  0  0  0  0  0  0  0  0
  189.2580  176.0490  142.9780 C   0  0  0  0  0  2  0  0  0  0  0  0
  189.8420  176.6800  144.2340 C   0  0  0  0  0  2  0  0  0  0  0  0
  187.8830  177.8070  147.3180 C   0  0  0  0  0  0  0  0  0  0  0  0
  188.9480  177.3450  146.5190 C   0  0  0  0  0  0  0  0  0  0  0  0
  188.7600  177.2030  145.1280 C   0  0  0  0  0  0  0  0  0  0  0  0
  190.2650  177.0120  147.1440 C   0  0  0  0  0  1  0  0  0  0  0  0
  187.5240  177.5240  144.5560 C   0  0  0  0  0  3  0  0  0  0  0  0
  186.6550  178.1240  146.7290 C   0  0  0  0  0  3  0  0  0  0  0  0
  186.4740  177.9840  145.3530 C   0  0  0  0  0  3  0  0  0  0  0  0
  188.0500  177.9960  149.0560 Cl  0  0  0  0  0  0  0  0  0  0  0  0
  194.7330  174.3020  137.5310 C   0  0  0  0  0  3  0  0  0  0  0  0
  193.4860  174.6490  137.5180 N   0  0  0  0  0  0  0  0  0  0  0  0
  195.2520  173.1460  136.7740 C   0  0  0  0  0  0  0  0  0  0  0  0
  197.5070  174.2200  136.2260 C   0  0  0  0  0  1  0  0  0  0  0  0
  194.3990  172.0420  136.6610 C   0  0  0  0  0  3  0  0  0  0  0  0
  194.7930  170.9040  135.9550 C   0  0  0  0  0  3  0  0  0  0  0  0
  196.5310  173.0940  136.1640 C   0  0  0  0  0  0  0  0  0  0  0  0
  196.0500  170.8580  135.3540 C   0  0  0  0  0  0  0  0  0  0  0  0
  196.9140  171.9500  135.4580 C   0  0  0  0  0  3  0  0  0  0  0  0
  196.4420  169.7290  134.6480 O   0  0  0  0  0  1  0  0  0  0  0  0
  188.6070  176.7570  138.5800 C   0  0  0  0  0  2  0  0  0  0  0  0
  188.2710  178.1030  137.9480 C   0  0  0  0  0  2  0  0  0  0  0  0
  186.9290  178.5220  138.3140 N   0  0  0  0  0  2  0  0  0  0  0  0
  186.0130  177.8850  137.3850 C   0  0  0  0  0  1  0  0  0  0  0  0
  2  4  1  0  0  0  0
  2  6  2  0  0  0  0
  3  7  1  0  0  0  0
  4  9  1  0  0  0  0
  5  1  1  1  0  0  0
  5  8  1  0  0  0  0
  5  2  1  0  0  0  0
  7  6  1  0  0  0  0
  8  3  2  0  0  0  0
  9 10  1  1  0  0  0
  9 11  1  0  0  0  0
 11 12  1  0  0  0  0
 12 13  1  0  0  0  0
 13 16  1  0  0  0  0
 14 21  1  0  0  0  0
 15 17  1  0  0  0  0
 15 14  2  0  0  0  0
 16 15  1  0  0  0  0
 18 16  2  0  0  0  0
 18 20  1  0  0  0  0
 19 14  1  0  0  0  0
 20 19  2  0  0  0  0
 23 22  2  0  0  0  0
 23  8  1  0  0  0  0
 24 22  1  0  0  0  0
 26 24  1  0  0  0  0
 27 26  2  0  0  0  0
 28 25  1  0  0  0  0
 28 24  2  0  0  0  0
 29 30  2  0  0  0  0
 29 27  1  0  0  0  0
 30 28  1  0  0  0  0
 31 29  1  0  0  0  0
 32  4  1  0  0  0  0
 33 34  1  0  0  0  0
 33 32  1  0  0  0  0
 35 34  1  0  0  0  0
M  END
>  <MODEL>
8

>  <REMARK>
 VINA RESULT:      -7.3      2.363      3.613
  Name = 
  10 active torsions:
  status: ('A' for Active; 'I' for Inactive)
    1  A    between atoms: C_3  and  C_7
    2  A    between atoms: C_5  and  N_6
    3  A    between atoms: C_5  and  O_8
    4  A    between atoms: N_6  and  C_12
    5  A    between atoms: O_8  and  C_17
    6  A    between atoms: N_10  and  C_28
    7  A    between atoms: C_12  and  C_19
    8  A    between atoms: C_14  and  C_16
    9  A    between atoms: C_14  and  C_17
   10  A    between atoms: C_19  and  N_21
                            x       y       z     vdW  Elec       q    Type
                         _______ _______ _______ _____ _____    ______ ____

>  <TORSDO>
F 10

$$$$
=
 OpenBabel10222419143D

 35 37  0  0  1  0  0  0  0  0999 V2000
  186.5060  178.2020  141.6860 O   0  0  0  0  0  1  0  0  0  0  0  0
  184.1800  178.7190  141.8980 C   0  0  0  0  0  0  0  0  0  0  0  0
  184.5330  178.2220  144.6060 N   0  0  0  0  0  0  0  0  0  0  0  0
  183.9760  178.6770  140.4690 N   0  0  0  0  0  0  0  0  0  0  0  0
  185.5700  178.8560  142.4920 C   0  0  1  0  0  3  0  0  0  0  0  0
  183.1490  178.6530  142.6920 N   0  0  0  0  0  0  0  0  0  0  0  0
  183.2730  178.7940  144.1410 C   0  0  0  0  0  2  0  0  0  0  0  0
  185.6120  178.2660  143.8810 C   0  0  0  0  0  0  0  0  0  0  0  0
  182.8190  178.0040  139.8860 C   0  0  2  0  0  3  0  0  0  0  0  0
  181.6390  178.6020  140.3330 O   0  0  0  0  0  1  0  0  0  0  0  0
  182.8280  176.6510  140.2310 O   0  0  0  0  0  0  0  0  0  0  0  0
  181.8440  176.0670  139.4300 C   0  0  0  0  0  2  0  0  0  0  0  0
  182.3570  175.8930  138.0080 C   0  0  0  0  0  2  0  0  0  0  0  0
  183.3120  172.4120  136.7490 C   0  0  0  0  0  0  0  0  0  0  0  0
  183.4390  173.7490  137.1750 C   0  0  0  0  0  0  0  0  0  0  0  0
  182.2900  174.4580  137.5830 C   0  0  0  0  0  0  0  0  0  0  0  0
  184.7830  174.4050  137.1980 C   0  0  0  0  0  1  0  0  0  0  0  0
  181.0400  173.8300  137.5620 C   0  0  0  0  0  3  0  0  0  0  0  0
  182.0550  171.8000  136.7360 C   0  0  0  0  0  3  0  0  0  0  0  0
  180.9220  172.5040  137.1420 C   0  0  0  0  0  3  0  0  0  0  0  0
  184.7030  171.4770  136.2210 Cl  0  0  0  0  0  0  0  0  0  0  0  0
  187.4320  178.2510  145.4390 C   0  0  0  0  0  3  0  0  0  0  0  0
  186.8520  177.7580  144.3910 N   0  0  0  0  0  0  0  0  0  0  0  0
  188.7040  177.7260  145.9710 C   0  0  0  0  0  0  0  0  0  0  0  0
  188.0700  178.0250  148.4300 C   0  0  0  0  0  1  0  0  0  0  0  0
  189.6550  177.3220  145.0270 C   0  0  0  0  0  3  0  0  0  0  0  0
  190.8950  176.8220  145.4290 C   0  0  0  0  0  3  0  0  0  0  0  0
  189.0150  177.6180  147.3500 C   0  0  0  0  0  0  0  0  0  0  0  0
  191.1970  176.7200  146.7860 C   0  0  0  0  0  0  0  0  0  0  0  0
  190.2600  177.1170  147.7420 C   0  0  0  0  0  3  0  0  0  0  0  0
  192.4310  176.2280  147.1880 O   0  0  0  0  0  1  0  0  0  0  0  0
  184.9460  179.2490  139.5410 C   0  0  0  0  0  2  0  0  0  0  0  0
  185.1600  178.3250  138.3480 C   0  0  0  0  0  2  0  0  0  0  0  0
  186.4280  178.6100  137.6980 N   0  0  0  0  0  2  0  0  0  0  0  0
  187.4540  177.8860  138.4260 C   0  0  0  0  0  1  0  0  0  0  0  0
  2  5  1  0  0  0  0
  2  6  2  0  0  0  0
  4  2  1  0  0  0  0
  5  1  1  6  0  0  0
  5  8  1  0  0  0  0
  6  7  1  0  0  0  0
  7  3  1  0  0  0  0
  8 23  1  0  0  0  0
  8  3  2  0  0  0  0
  9 11  1  0  0  0  0
  9 10  1  1  0  0  0
  9  4  1  0  0  0  0
 12 11  1  0  0  0  0
 13 12  1  0  0  0  0
 14 15  1  0  0  0  0
 15 17  1  0  0  0  0
 15 16  2  0  0  0  0
 16 13  1  0  0  0  0
 18 16  1  0  0  0  0
 19 14  2  0  0  0  0
 19 20  1  0  0  0  0
 20 18  2  0  0  0  0
 21 14  1  0  0  0  0
 22 24  1  0  0  0  0
 23 22  2  0  0  0  0
 24 28  1  0  0  0  0
 26 27  1  0  0  0  0
 26 24  2  0  0  0  0
 27 29  2  0  0  0  0
 28 30  2  0  0  0  0
 28 25  1  0  0  0  0
 29 31  1  0  0  0  0
 29 30  1  0  0  0  0
 32  4  1  0  0  0  0
 33 32  1  0  0  0  0
 34 33  1  0  0  0  0
 34 35  1  0  0  0  0
M  END
>  <MODEL>
9

>  <REMARK>
 VINA RESULT:      -7.2      6.337      9.779
  Name = 
  10 active torsions:
  status: ('A' for Active; 'I' for Inactive)
    1  A    between atoms: C_3  and  C_7
    2  A    between atoms: C_5  and  N_6
    3  A    between atoms: C_5  and  O_8
    4  A    between atoms: N_6  and  C_12
    5  A    between atoms: O_8  and  C_17
    6  A    between atoms: N_10  and  C_28
    7  A    between atoms: C_12  and  C_19
    8  A    between atoms: C_14  and  C_16
    9  A    between atoms: C_14  and  C_17
   10  A    between atoms: C_19  and  N_21
                            x       y       z     vdW  Elec       q    Type
                         _______ _______ _______ _____ _____    ______ ____

>  <TORSDO>
F 10

$$$$
