=
 OpenBabel10222421083D

 29 34  0  0  1  0  0  0  0  0999 V2000
  184.4480  179.4750  144.6170 S   0  0  0  0  0  0  0  0  0  0  0  0
  180.5360  178.1090  139.5860 N   0  0  0  0  0  0  0  0  0  0  0  0
  183.0400  178.5860  142.3660 C   0  0  0  0  0  0  0  0  0  0  0  0
  185.5530  178.2190  143.9470 C   0  0  0  0  0  0  0  0  0  0  0  0
  184.1900  178.0870  141.8810 C   0  0  0  0  0  2  0  0  0  0  0  0
  181.8350  178.5670  141.5910 C   0  0  0  0  0  0  0  0  0  0  0  0
  179.2800  178.6980  141.5880 C   0  0  0  0  0  3  0  0  0  0  0  0
  181.7920  178.3370  140.2440 C   0  0  0  0  0  0  0  0  0  0  0  0
  182.9790  178.9630  143.7210 C   0  0  0  0  0  0  0  0  0  0  0  0
  185.3900  177.8040  142.6860 C   0  0  0  0  0  3  0  0  0  0  0  0
  180.6040  179.0130  143.6160 N   0  0  0  0  0  0  0  0  0  0  0  0
  180.6090  178.7380  142.2860 C   0  0  0  0  0  0  0  0  0  0  0  0
  179.3870  178.2400  140.1710 C   0  0  0  0  0  3  0  0  0  0  0  0
  181.7460  179.1530  144.3290 C   0  0  0  0  0  3  0  0  0  0  0  0
  185.3700  177.1670  137.1210 O   0  0  0  0  0  0  0  0  0  0  0  0
  183.2280  177.1680  138.5290 C   0  0  2  0  0  3  0  0  0  0  0  0
  182.9670  178.3440  139.4250 N   0  0  0  0  0  0  0  0  0  0  0  0
  183.7180  179.6290  139.2440 C   0  0  0  0  0  2  0  0  0  0  0  0
  184.9590  178.3650  137.8970 C   0  0  0  0  0  0  0  0  0  0  0  0
  183.8230  176.1400  139.2430 F   0  0  0  0  0  0  0  0  0  0  0  0
  184.0570  177.5510  137.2700 C   0  0  1  0  0  3  0  0  0  0  0  0
  185.0520  179.3620  138.6900 N   0  0  0  0  0  0  0  0  0  0  0  0
  189.5320  177.1540  145.9540 C   0  0  0  0  0  3  0  0  0  0  0  0
  187.8560  177.4080  144.1210 C   0  0  0  0  0  3  0  0  0  0  0  0
  186.7160  177.7570  144.7530 C   0  0  0  0  0  0  0  0  0  0  0  0
  189.0970  176.8840  144.7240 C   0  0  0  0  0  3  0  0  0  0  0  0
  187.4460  177.6720  147.1530 C   0  0  0  0  0  3  0  0  0  0  0  0
  186.5130  177.5550  146.2080 C   0  0  0  0  0  3  0  0  0  0  0  0
  188.8410  178.1090  146.8680 C   0  0  0  0  0  2  0  0  0  0  0  0
  2 13  2  0  0  0  0
  2  8  1  0  0  0  0
  3  9  2  0  0  0  0
  4  1  1  0  0  0  0
  4 25  1  0  0  0  0
  5  3  1  0  0  0  0
  5 10  1  0  0  0  0
  6 12  1  0  0  0  0
  6  3  1  0  0  0  0
  7 12  2  0  0  0  0
  8  6  2  0  0  0  0
  9 14  1  0  0  0  0
  9  1  1  0  0  0  0
 10  4  2  0  0  0  0
 11 14  2  0  0  0  0
 12 11  1  0  0  0  0
 13  7  1  0  0  0  0
 15 19  1  0  0  0  0
 16 20  1  1  0  0  0
 16 17  1  0  0  0  0
 17  8  1  0  0  0  0
 18 17  1  0  0  0  0
 19 22  2  0  0  0  0
 21 15  1  1  0  0  0
 21 19  1  0  0  0  0
 21 16  1  0  0  0  0
 22 18  1  0  0  0  0
 23 29  1  0  0  0  0
 24 26  1  0  0  0  0
 24 25  2  0  0  0  0
 25 28  1  0  0  0  0
 26 23  2  0  0  0  0
 28 27  2  0  0  0  0
 29 27  1  0  0  0  0
M  END
>  <MODEL>
1

>  <REMARK>
 VINA RESULT:      -8.6      0.000      0.000
  Name = 
  2 active torsions:
  status: ('A' for Active; 'I' for Inactive)
    1  A    between atoms: C_8  and  C_9
    2  A    between atoms: N_10  and  C_16
                            x       y       z     vdW  Elec       q    Type
                         _______ _______ _______ _____ _____    ______ ____

>  <TORSDO>
F 2

$$$$
=
 OpenBabel10222421083D

 29 34  0  0  1  0  0  0  0  0999 V2000
  188.5200  176.4650  142.8850 S   0  0  0  0  0  0  0  0  0  0  0  0
  186.9040  178.9790  137.0920 N   0  0  0  0  0  0  0  0  0  0  0  0
  187.5660  177.7910  140.6100 C   0  0  0  0  0  0  0  0  0  0  0  0
  187.2250  177.5140  143.5700 C   0  0  0  0  0  0  0  0  0  0  0  0
  186.4410  178.0780  141.2870 C   0  0  0  0  0  2  0  0  0  0  0  0
  187.7020  178.1150  139.2220 C   0  0  0  0  0  0  0  0  0  0  0  0
  189.2890  178.5130  137.2540 C   0  0  0  0  0  3  0  0  0  0  0  0
  186.6590  178.4490  138.4050 C   0  0  0  0  0  0  0  0  0  0  0  0
  188.6910  177.3340  141.3230 C   0  0  0  0  0  0  0  0  0  0  0  0
  186.3090  178.0470  142.7530 C   0  0  0  0  0  3  0  0  0  0  0  0
  190.0800  177.7810  139.4450 N   0  0  0  0  0  0  0  0  0  0  0  0
  189.0170  178.1480  138.6850 C   0  0  0  0  0  0  0  0  0  0  0  0
  188.0800  179.0440  136.5550 C   0  0  0  0  0  3  0  0  0  0  0  0
  189.9430  177.3560  140.7230 C   0  0  0  0  0  3  0  0  0  0  0  0
  182.0480  179.1100  139.8990 O   0  0  0  0  0  0  0  0  0  0  0  0
  184.4720  179.4680  139.1480 C   0  0  2  0  0  3  0  0  0  0  0  0
  185.2920  178.2620  138.7900 N   0  0  0  0  0  0  0  0  0  0  0  0
  184.6350  176.9410  138.5210 C   0  0  0  0  0  2  0  0  0  0  0  0
  182.8640  177.9880  139.3670 C   0  0  0  0  0  0  0  0  0  0  0  0
  184.7120  179.8420  140.4610 F   0  0  0  0  0  0  0  0  0  0  0  0
  182.9550  179.2610  138.8750 C   0  0  1  0  0  3  0  0  0  0  0  0
  183.3910  176.8270  139.2920 N   0  0  0  0  0  0  0  0  0  0  0  0
  187.5060  178.2740  148.0790 C   0  0  0  0  0  3  0  0  0  0  0  0
  188.1960  177.4750  145.8160 C   0  0  0  0  0  3  0  0  0  0  0  0
  187.1050  177.6660  145.0450 C   0  0  0  0  0  0  0  0  0  0  0  0
  188.2800  177.5300  147.2890 C   0  0  0  0  0  3  0  0  0  0  0  0
  185.4600  178.5260  146.7350 C   0  0  0  0  0  3  0  0  0  0  0  0
  185.7490  177.8690  145.6110 C   0  0  0  0  0  3  0  0  0  0  0  0
  186.4880  179.2280  147.5540 C   0  0  0  0  0  2  0  0  0  0  0  0
  1  4  1  0  0  0  0
  2  8  1  0  0  0  0
  3  5  1  0  0  0  0
  3  9  2  0  0  0  0
  4 25  1  0  0  0  0
  5 10  1  0  0  0  0
  6  3  1  0  0  0  0
  7 12  2  0  0  0  0
  8 17  1  0  0  0  0
  8  6  2  0  0  0  0
  9  1  1  0  0  0  0
 10  4  2  0  0  0  0
 11 14  2  0  0  0  0
 12  6  1  0  0  0  0
 12 11  1  0  0  0  0
 13  2  2  0  0  0  0
 13  7  1  0  0  0  0
 14  9  1  0  0  0  0
 16 20  1  1  0  0  0
 17 16  1  0  0  0  0
 18 17  1  0  0  0  0
 18 22  1  0  0  0  0
 19 15  1  0  0  0  0
 21 16  1  0  0  0  0
 21 19  1  6  0  0  0
 21 15  1  0  0  0  0
 22 19  2  0  0  0  0
 24 26  1  0  0  0  0
 25 28  1  0  0  0  0
 25 24  2  0  0  0  0
 26 23  2  0  0  0  0
 27 29  1  0  0  0  0
 28 27  2  0  0  0  0
 29 23  1  0  0  0  0
M  END
>  <MODEL>
2

>  <REMARK>
 VINA RESULT:      -8.2      2.815      5.317
  Name = 
  2 active torsions:
  status: ('A' for Active; 'I' for Inactive)
    1  A    between atoms: C_8  and  C_9
    2  A    between atoms: N_10  and  C_16
                            x       y       z     vdW  Elec       q    Type
                         _______ _______ _______ _____ _____    ______ ____

>  <TORSDO>
F 2

$$$$
=
 OpenBabel10222421083D

 29 34  0  0  1  0  0  0  0  0999 V2000
  188.1040  176.5990  143.6090 S   0  0  0  0  0  0  0  0  0  0  0  0
  192.1020  177.3610  138.5170 N   0  0  0  0  0  0  0  0  0  0  0  0
  189.5550  177.2220  141.2960 C   0  0  0  0  0  0  0  0  0  0  0  0
  187.0280  177.7930  142.7930 C   0  0  0  0  0  0  0  0  0  0  0  0
  188.4200  177.6830  140.7440 C   0  0  0  0  0  2  0  0  0  0  0  0
  190.7690  177.1400  140.5410 C   0  0  0  0  0  0  0  0  0  0  0  0
  193.3210  176.9720  140.5890 C   0  0  0  0  0  3  0  0  0  0  0  0
  190.8330  177.2230  139.1780 C   0  0  0  0  0  0  0  0  0  0  0  0
  189.5920  176.9910  142.6850 C   0  0  0  0  0  0  0  0  0  0  0  0
  187.2140  178.0680  141.4970 C   0  0  0  0  0  3  0  0  0  0  0  0
  191.9670  176.8950  142.6190 N   0  0  0  0  0  0  0  0  0  0  0  0
  191.9840  177.0260  141.2680 C   0  0  0  0  0  0  0  0  0  0  0  0
  193.2400  177.2770  139.1290 C   0  0  0  0  0  3  0  0  0  0  0  0
  190.8150  176.8490  143.3270 C   0  0  0  0  0  3  0  0  0  0  0  0
  187.2200  178.1790  136.0230 O   0  0  0  0  0  0  0  0  0  0  0  0
  189.3440  178.3060  137.4520 C   0  0  2  0  0  3  0  0  0  0  0  0
  189.6690  177.1460  138.3480 N   0  0  0  0  0  0  0  0  0  0  0  0
  189.0000  175.8180  138.1560 C   0  0  0  0  0  2  0  0  0  0  0  0
  187.6960  177.0070  136.8010 C   0  0  0  0  0  0  0  0  0  0  0  0
  188.6800  179.2940  138.1620 F   0  0  0  0  0  0  0  0  0  0  0  0
  188.5530  177.8760  136.1840 C   0  0  1  0  0  3  0  0  0  0  0  0
  187.6580  176.0030  137.5900 N   0  0  0  0  0  0  0  0  0  0  0  0
  183.0570  179.0270  144.7160 C   0  0  0  0  0  3  0  0  0  0  0  0
  184.6700  178.4380  142.9030 C   0  0  0  0  0  3  0  0  0  0  0  0
  185.8630  178.3560  143.5280 C   0  0  0  0  0  0  0  0  0  0  0  0
  183.4120  179.0030  143.4310 C   0  0  0  0  0  3  0  0  0  0  0  0
  185.2310  179.0030  145.8690 C   0  0  0  0  0  3  0  0  0  0  0  0
  186.1080  178.9430  144.8670 C   0  0  0  0  0  3  0  0  0  0  0  0
  183.8700  178.3990  145.7960 C   0  0  0  0  0  2  0  0  0  0  0  0
  2 13  2  0  0  0  0
  2  8  1  0  0  0  0
  3  9  2  0  0  0  0
  4 25  1  0  0  0  0
  4  1  1  0  0  0  0
  5  3  1  0  0  0  0
  5 10  1  0  0  0  0
  6 12  1  0  0  0  0
  6  3  1  0  0  0  0
  7 12  2  0  0  0  0
  8  6  2  0  0  0  0
  9 14  1  0  0  0  0
  9  1  1  0  0  0  0
 10  4  2  0  0  0  0
 11 14  2  0  0  0  0
 12 11  1  0  0  0  0
 13  7  1  0  0  0  0
 15 19  1  0  0  0  0
 16 20  1  1  0  0  0
 16 17  1  0  0  0  0
 17  8  1  0  0  0  0
 18 17  1  0  0  0  0
 19 22  2  0  0  0  0
 21 15  1  1  0  0  0
 21 19  1  0  0  0  0
 21 16  1  0  0  0  0
 22 18  1  0  0  0  0
 23 29  1  0  0  0  0
 24 26  1  0  0  0  0
 24 25  2  0  0  0  0
 25 28  1  0  0  0  0
 26 23  2  0  0  0  0
 28 27  2  0  0  0  0
 29 27  1  0  0  0  0
M  END
>  <MODEL>
3

>  <REMARK>
 VINA RESULT:      -7.6      4.198      7.335
  Name = 
  2 active torsions:
  status: ('A' for Active; 'I' for Inactive)
    1  A    between atoms: C_8  and  C_9
    2  A    between atoms: N_10  and  C_16
                            x       y       z     vdW  Elec       q    Type
                         _______ _______ _______ _____ _____    ______ ____

>  <TORSDO>
F 2

$$$$
=
 OpenBabel10222421083D

 29 34  0  0  1  0  0  0  0  0999 V2000
  188.4600  176.4230  143.0190 S   0  0  0  0  0  0  0  0  0  0  0  0
  186.9840  179.0040  137.2180 N   0  0  0  0  0  0  0  0  0  0  0  0
  187.5810  177.7940  140.7400 C   0  0  0  0  0  0  0  0  0  0  0  0
  187.2310  177.5500  143.7020 C   0  0  0  0  0  0  0  0  0  0  0  0
  186.4760  178.1500  141.4170 C   0  0  0  0  0  2  0  0  0  0  0  0
  187.7340  178.1030  139.3500 C   0  0  0  0  0  0  0  0  0  0  0  0
  189.3370  178.3970  137.3780 C   0  0  0  0  0  3  0  0  0  0  0  0
  186.7110  178.4950  138.5330 C   0  0  0  0  0  0  0  0  0  0  0  0
  188.6790  177.2740  141.4530 C   0  0  0  0  0  0  0  0  0  0  0  0
  186.3460  178.1330  142.8840 C   0  0  0  0  0  3  0  0  0  0  0  0
  190.0880  177.6290  139.5710 N   0  0  0  0  0  0  0  0  0  0  0  0
  189.0470  178.0560  138.8110 C   0  0  0  0  0  0  0  0  0  0  0  0
  188.1620  178.9960  136.6790 C   0  0  0  0  0  3  0  0  0  0  0  0
  189.9290  177.2190  140.8510 C   0  0  0  0  0  3  0  0  0  0  0  0
  182.1100  176.9880  139.2340 O   0  0  0  0  0  0  0  0  0  0  0  0
  184.5870  177.1310  138.5920 C   0  0  2  0  0  3  0  0  0  0  0  0
  185.3350  178.3910  138.9210 N   0  0  0  0  0  0  0  0  0  0  0  0
  184.7810  179.3780  139.9040 C   0  0  0  0  0  2  0  0  0  0  0  0
  182.9560  178.1260  139.6770 C   0  0  0  0  0  0  0  0  0  0  0  0
  184.1360  177.1660  137.2820 F   0  0  0  0  0  0  0  0  0  0  0  0
  183.4310  176.8460  139.5920 C   0  0  1  0  0  3  0  0  0  0  0  0
  183.3140  179.3330  139.8950 N   0  0  0  0  0  0  0  0  0  0  0  0
  187.5560  178.3340  148.2040 C   0  0  0  0  0  3  0  0  0  0  0  0
  188.2120  177.5030  145.9430 C   0  0  0  0  0  3  0  0  0  0  0  0
  187.1220  177.7150  145.1760 C   0  0  0  0  0  0  0  0  0  0  0  0
  188.3060  177.5650  147.4150 C   0  0  0  0  0  3  0  0  0  0  0  0
  185.5090  178.6280  146.8690 C   0  0  0  0  0  3  0  0  0  0  0  0
  185.7760  177.9560  145.7480 C   0  0  0  0  0  3  0  0  0  0  0  0
  186.5590  179.3100  147.6770 C   0  0  0  0  0  2  0  0  0  0  0  0
  1  4  1  0  0  0  0
  2  8  1  0  0  0  0
  3  5  1  0  0  0  0
  3  9  2  0  0  0  0
  4 25  1  0  0  0  0
  5 10  1  0  0  0  0
  6  3  1  0  0  0  0
  7 12  2  0  0  0  0
  8 17  1  0  0  0  0
  8  6  2  0  0  0  0
  9  1  1  0  0  0  0
 10  4  2  0  0  0  0
 11 14  2  0  0  0  0
 12  6  1  0  0  0  0
 12 11  1  0  0  0  0
 13  2  2  0  0  0  0
 13  7  1  0  0  0  0
 14  9  1  0  0  0  0
 15 19  1  0  0  0  0
 16 20  1  6  0  0  0
 16 17  1  0  0  0  0
 16 21  1  0  0  0  0
 17 18  1  0  0  0  0
 19 22  2  0  0  0  0
 21 15  1  6  0  0  0
 21 19  1  0  0  0  0
 22 18  1  0  0  0  0
 24 26  1  0  0  0  0
 25 28  1  0  0  0  0
 25 24  2  0  0  0  0
 26 23  2  0  0  0  0
 27 29  1  0  0  0  0
 28 27  2  0  0  0  0
 29 23  1  0  0  0  0
M  END
>  <MODEL>
4

>  <REMARK>
 VINA RESULT:      -7.6      2.641      5.199
  Name = 
  2 active torsions:
  status: ('A' for Active; 'I' for Inactive)
    1  A    between atoms: C_8  and  C_9
    2  A    between atoms: N_10  and  C_16
                            x       y       z     vdW  Elec       q    Type
                         _______ _______ _______ _____ _____    ______ ____

>  <TORSDO>
F 2

$$$$
=
 OpenBabel10222421083D

 29 34  0  0  1  0  0  0  0  0999 V2000
  188.8410  176.5580  142.7290 S   0  0  0  0  0  0  0  0  0  0  0  0
  186.6790  179.0030  137.0860 N   0  0  0  0  0  0  0  0  0  0  0  0
  187.6900  177.8720  140.5390 C   0  0  0  0  0  0  0  0  0  0  0  0
  187.6820  177.6840  143.5250 C   0  0  0  0  0  0  0  0  0  0  0  0
  186.6650  178.2290  141.3310 C   0  0  0  0  0  2  0  0  0  0  0  0
  187.6790  178.1550  139.1350 C   0  0  0  0  0  0  0  0  0  0  0  0
  189.0440  178.4270  136.9880 C   0  0  0  0  0  3  0  0  0  0  0  0
  186.5640  178.5180  138.4330 C   0  0  0  0  0  0  0  0  0  0  0  0
  188.8690  177.3790  141.1320 C   0  0  0  0  0  0  0  0  0  0  0  0
  186.7020  178.2400  142.8030 C   0  0  0  0  0  3  0  0  0  0  0  0
  190.0500  177.7120  139.0950 N   0  0  0  0  0  0  0  0  0  0  0  0
  188.9230  178.1110  138.4510 C   0  0  0  0  0  0  0  0  0  0  0  0
  187.7880  178.9980  136.4160 C   0  0  0  0  0  3  0  0  0  0  0  0
  190.0430  177.3270  140.3920 C   0  0  0  0  0  3  0  0  0  0  0  0
  182.0770  176.9940  139.6430 O   0  0  0  0  0  0  0  0  0  0  0  0
  184.4620  177.1500  138.7190 C   0  0  2  0  0  3  0  0  0  0  0  0
  185.2440  178.4060  138.9770 N   0  0  0  0  0  0  0  0  0  0  0  0
  184.8080  179.3780  140.0330 C   0  0  0  0  0  2  0  0  0  0  0  0
  182.9690  178.1270  140.0010 C   0  0  0  0  0  0  0  0  0  0  0  0
  183.8620  177.2030  137.4710 F   0  0  0  0  0  0  0  0  0  0  0  0
  183.4310  176.8490  139.8440 C   0  0  1  0  0  3  0  0  0  0  0  0
  183.3490  179.3300  140.1940 N   0  0  0  0  0  0  0  0  0  0  0  0
  187.2250  177.9540  148.0760 C   0  0  0  0  0  3  0  0  0  0  0  0
  186.6080  178.1820  145.6680 C   0  0  0  0  0  3  0  0  0  0  0  0
  187.7400  177.8780  145.0000 C   0  0  0  0  0  0  0  0  0  0  0  0
  186.4580  178.4590  147.1100 C   0  0  0  0  0  3  0  0  0  0  0  0
  189.3400  177.5090  146.8990 C   0  0  0  0  0  3  0  0  0  0  0  0
  189.0750  177.8780  145.6450 C   0  0  0  0  0  3  0  0  0  0  0  0
  188.3050  176.9590  147.8200 C   0  0  0  0  0  2  0  0  0  0  0  0
  1  4  1  0  0  0  0
  2  8  1  0  0  0  0
  3  9  2  0  0  0  0
  3  5  1  0  0  0  0
  4 25  1  0  0  0  0
  5 10  1  0  0  0  0
  6  3  1  0  0  0  0
  7 12  2  0  0  0  0
  8 17  1  0  0  0  0
  8  6  2  0  0  0  0
  9  1  1  0  0  0  0
 10  4  2  0  0  0  0
 11 14  2  0  0  0  0
 12 11  1  0  0  0  0
 12  6  1  0  0  0  0
 13  7  1  0  0  0  0
 13  2  2  0  0  0  0
 14  9  1  0  0  0  0
 15 19  1  0  0  0  0
 16 20  1  6  0  0  0
 16 17  1  0  0  0  0
 16 21  1  0  0  0  0
 17 18  1  0  0  0  0
 18 22  1  0  0  0  0
 19 22  2  0  0  0  0
 21 15  1  6  0  0  0
 21 19  1  0  0  0  0
 24 26  1  0  0  0  0
 25 28  1  0  0  0  0
 25 24  2  0  0  0  0
 26 23  2  0  0  0  0
 27 29  1  0  0  0  0
 28 27  2  0  0  0  0
 29 23  1  0  0  0  0
M  END
>  <MODEL>
5

>  <REMARK>
 VINA RESULT:      -7.2      2.650      5.273
  Name = 
  2 active torsions:
  status: ('A' for Active; 'I' for Inactive)
    1  A    between atoms: C_8  and  C_9
    2  A    between atoms: N_10  and  C_16
                            x       y       z     vdW  Elec       q    Type
                         _______ _______ _______ _____ _____    ______ ____

>  <TORSDO>
F 2

$$$$
=
 OpenBabel10222421083D

 29 34  0  0  1  0  0  0  0  0999 V2000
  185.7010  179.3780  140.4770 S   0  0  0  0  0  0  0  0  0  0  0  0
  191.5470  176.4950  140.3690 N   0  0  0  0  0  0  0  0  0  0  0  0
  188.0780  177.9240  140.7620 C   0  0  0  0  0  0  0  0  0  0  0  0
  185.4030  178.4510  141.9940 C   0  0  0  0  0  0  0  0  0  0  0  0
  187.7800  177.7480  142.0600 C   0  0  0  0  0  2  0  0  0  0  0  0
  189.3300  177.4840  140.2200 C   0  0  0  0  0  0  0  0  0  0  0  0
  190.6620  176.8540  138.1290 C   0  0  0  0  0  3  0  0  0  0  0  0
  190.4150  177.1390  140.9750 C   0  0  0  0  0  0  0  0  0  0  0  0
  187.0730  178.3800  139.8870 C   0  0  0  0  0  0  0  0  0  0  0  0
  186.4360  177.9010  142.6430 C   0  0  0  0  0  3  0  0  0  0  0  0
  188.3810  177.7180  138.0150 N   0  0  0  0  0  0  0  0  0  0  0  0
  189.4170  177.3440  138.8090 C   0  0  0  0  0  0  0  0  0  0  0  0
  191.6760  176.3300  139.0910 C   0  0  0  0  0  3  0  0  0  0  0  0
  187.2410  178.2480  138.5150 C   0  0  0  0  0  3  0  0  0  0  0  0
  190.6370  176.8010  145.8500 O   0  0  0  0  0  0  0  0  0  0  0  0
  190.5580  176.2750  143.3430 C   0  0  2  0  0  3  0  0  0  0  0  0
  190.4970  177.4230  142.3770 N   0  0  0  0  0  0  0  0  0  0  0  0
  190.8380  178.8150  142.8170 C   0  0  0  0  0  2  0  0  0  0  0  0
  190.7480  177.8780  144.8330 C   0  0  0  0  0  0  0  0  0  0  0  0
  189.2850  175.7870  143.5940 F   0  0  0  0  0  0  0  0  0  0  0  0
  191.3050  176.6410  144.6570 C   0  0  1  0  0  3  0  0  0  0  0  0
  190.5250  178.9880  144.2410 N   0  0  0  0  0  0  0  0  0  0  0  0
  181.4200  178.9090  144.2110 C   0  0  0  0  0  3  0  0  0  0  0  0
  183.8850  178.6560  143.9020 C   0  0  0  0  0  3  0  0  0  0  0  0
  184.0370  178.4240  142.5820 C   0  0  0  0  0  0  0  0  0  0  0  0
  182.6330  178.6280  144.6850 C   0  0  0  0  0  3  0  0  0  0  0  0
  181.6450  178.3710  141.8200 C   0  0  0  0  0  3  0  0  0  0  0  0
  182.9180  177.9880  141.7110 C   0  0  0  0  0  3  0  0  0  0  0  0
  181.1820  179.3780  142.8150 C   0  0  0  0  0  2  0  0  0  0  0  0
  1  4  1  0  0  0  0
  2  8  1  0  0  0  0
  3  5  1  0  0  0  0
  4 25  1  0  0  0  0
  4 10  2  0  0  0  0
  5 10  1  0  0  0  0
  6  3  1  0  0  0  0
  6  8  2  0  0  0  0
  7 12  2  0  0  0  0
  7 13  1  0  0  0  0
  8 17  1  0  0  0  0
  9  1  1  0  0  0  0
  9  3  2  0  0  0  0
 11 14  2  0  0  0  0
 11 12  1  0  0  0  0
 12  6  1  0  0  0  0
 13  2  2  0  0  0  0
 14  9  1  0  0  0  0
 16 20  1  1  0  0  0
 16 21  1  0  0  0  0
 17 18  1  0  0  0  0
 17 16  1  0  0  0  0
 18 22  1  0  0  0  0
 19 15  1  0  0  0  0
 21 19  1  6  0  0  0
 21 15  1  0  0  0  0
 22 19  2  0  0  0  0
 23 26  2  0  0  0  0
 24 26  1  0  0  0  0
 25 24  2  0  0  0  0
 27 29  1  0  0  0  0
 28 27  2  0  0  0  0
 28 25  1  0  0  0  0
 29 23  1  0  0  0  0
M  END
>  <MODEL>
6

>  <REMARK>
 VINA RESULT:      -7.1      4.294      7.962
  Name = 
  2 active torsions:
  status: ('A' for Active; 'I' for Inactive)
    1  A    between atoms: C_8  and  C_9
    2  A    between atoms: N_10  and  C_16
                            x       y       z     vdW  Elec       q    Type
                         _______ _______ _______ _____ _____    ______ ____

>  <TORSDO>
F 2

$$$$
=
 OpenBabel10222421083D

 29 34  0  0  1  0  0  0  0  0999 V2000
  190.4520  176.7280  141.6320 S   0  0  0  0  0  0  0  0  0  0  0  0
  192.2760  175.9200  135.4260 N   0  0  0  0  0  0  0  0  0  0  0  0
  190.8690  176.5540  138.8680 C   0  0  0  0  0  0  0  0  0  0  0  0
  188.8760  177.3000  140.9710 C   0  0  0  0  0  0  0  0  0  0  0  0
  189.5360  176.5680  138.6960 C   0  0  0  0  0  2  0  0  0  0  0  0
  191.7590  176.3540  137.7630 C   0  0  0  0  0  0  0  0  0  0  0  0
  194.1320  176.6100  136.8430 C   0  0  0  0  0  3  0  0  0  0  0  0
  191.3730  175.8770  136.5420 C   0  0  0  0  0  0  0  0  0  0  0  0
  191.3990  176.9250  140.1190 C   0  0  0  0  0  0  0  0  0  0  0  0
  188.5640  177.0420  139.6970 C   0  0  0  0  0  3  0  0  0  0  0  0
  193.5560  177.1720  139.1490 N   0  0  0  0  0  0  0  0  0  0  0  0
  193.1150  176.7350  137.9410 C   0  0  0  0  0  0  0  0  0  0  0  0
  193.5190  176.2700  135.5250 C   0  0  0  0  0  3  0  0  0  0  0  0
  192.7450  177.2480  140.2290 C   0  0  0  0  0  3  0  0  0  0  0  0
  186.8450  174.8940  134.9750 O   0  0  0  0  0  0  0  0  0  0  0  0
  189.1690  175.9200  135.3120 C   0  0  2  0  0  3  0  0  0  0  0  0
  190.0860  175.2880  136.3200 N   0  0  0  0  0  0  0  0  0  0  0  0
  189.8170  173.9090  136.8430 C   0  0  0  0  0  2  0  0  0  0  0  0
  187.8650  174.2270  135.8230 C   0  0  0  0  0  0  0  0  0  0  0  0
  188.4970  176.9930  135.8770 F   0  0  0  0  0  0  0  0  0  0  0  0
  188.1880  174.8960  134.6750 C   0  0  1  0  0  3  0  0  0  0  0  0
  188.3740  173.6360  136.8350 N   0  0  0  0  0  0  0  0  0  0  0  0
  185.3350  179.0660  143.2800 C   0  0  0  0  0  3  0  0  0  0  0  0
  186.8640  178.6400  141.3530 C   0  0  0  0  0  3  0  0  0  0  0  0
  187.8830  177.9320  141.8820 C   0  0  0  0  0  0  0  0  0  0  0  0
  185.8080  179.3780  142.0740 C   0  0  0  0  0  3  0  0  0  0  0  0
  187.2320  177.8800  144.3060 C   0  0  0  0  0  3  0  0  0  0  0  0
  188.1510  177.8810  143.3400 C   0  0  0  0  0  3  0  0  0  0  0  0
  185.7670  177.8540  144.0340 C   0  0  0  0  0  2  0  0  0  0  0  0
  2 13  2  0  0  0  0
  2  8  1  0  0  0  0
  3  9  2  0  0  0  0
  4  1  1  0  0  0  0
  4 25  1  0  0  0  0
  5  3  1  0  0  0  0
  5 10  1  0  0  0  0
  6 12  1  0  0  0  0
  6  3  1  0  0  0  0
  7 12  2  0  0  0  0
  8  6  2  0  0  0  0
  9 14  1  0  0  0  0
  9  1  1  0  0  0  0
 10  4  2  0  0  0  0
 11 14  2  0  0  0  0
 12 11  1  0  0  0  0
 13  7  1  0  0  0  0
 15 19  1  0  0  0  0
 16 20  1  1  0  0  0
 16 17  1  0  0  0  0
 17  8  1  0  0  0  0
 17 18  1  0  0  0  0
 19 22  2  0  0  0  0
 21 15  1  1  0  0  0
 21 16  1  0  0  0  0
 21 19  1  0  0  0  0
 22 18  1  0  0  0  0
 23 29  1  0  0  0  0
 24 25  2  0  0  0  0
 24 26  1  0  0  0  0
 25 28  1  0  0  0  0
 26 23  2  0  0  0  0
 28 27  2  0  0  0  0
 29 27  1  0  0  0  0
M  END
>  <MODEL>
7

>  <REMARK>
 VINA RESULT:      -7.1      5.808      8.568
  Name = 
  2 active torsions:
  status: ('A' for Active; 'I' for Inactive)
    1  A    between atoms: C_8  and  C_9
    2  A    between atoms: N_10  and  C_16
                            x       y       z     vdW  Elec       q    Type
                         _______ _______ _______ _____ _____    ______ ____

>  <TORSDO>
F 2

$$$$
=
 OpenBabel10222421083D

 29 34  0  0  1  0  0  0  0  0999 V2000
  188.5640  178.6530  140.9380 S   0  0  0  0  0  0  0  0  0  0  0  0
  190.1680  175.7870  135.3070 N   0  0  0  0  0  0  0  0  0  0  0  0
  189.3920  177.1070  138.7540 C   0  0  0  0  0  0  0  0  0  0  0  0
  189.3640  177.2530  141.7420 C   0  0  0  0  0  0  0  0  0  0  0  0
  190.2650  176.4840  139.5640 C   0  0  0  0  0  2  0  0  0  0  0  0
  189.3680  176.8460  137.3460 C   0  0  0  0  0  0  0  0  0  0  0  0
  188.0410  176.9650  135.1620 C   0  0  0  0  0  3  0  0  0  0  0  0
  190.3680  176.2100  136.6650 C   0  0  0  0  0  0  0  0  0  0  0  0
  188.3670  177.8850  139.3260 C   0  0  0  0  0  0  0  0  0  0  0  0
  190.1830  176.4670  141.0350 C   0  0  0  0  0  3  0  0  0  0  0  0
  187.1980  177.8960  137.2560 N   0  0  0  0  0  0  0  0  0  0  0  0
  188.1990  177.2220  136.6320 C   0  0  0  0  0  0  0  0  0  0  0  0
  189.1190  176.0900  134.6110 C   0  0  0  0  0  3  0  0  0  0  0  0
  187.2700  178.2520  138.5590 C   0  0  0  0  0  3  0  0  0  0  0  0
  194.5610  174.1740  138.1470 O   0  0  0  0  0  0  0  0  0  0  0  0
  192.2880  174.6170  137.0490 C   0  0  2  0  0  3  0  0  0  0  0  0
  191.6550  175.9660  137.2440 N   0  0  0  0  0  0  0  0  0  0  0  0
  192.4630  177.1280  137.7380 C   0  0  0  0  0  2  0  0  0  0  0  0
  193.9560  175.5310  138.1500 C   0  0  0  0  0  0  0  0  0  0  0  0
  191.7860  173.7110  137.9700 F   0  0  0  0  0  0  0  0  0  0  0  0
  193.8420  174.6770  137.0870 C   0  0  1  0  0  3  0  0  0  0  0  0
  193.5540  176.6570  138.6000 N   0  0  0  0  0  0  0  0  0  0  0  0
  189.4580  177.1270  146.3210 C   0  0  0  0  0  3  0  0  0  0  0  0
  190.3220  177.0080  143.9810 C   0  0  0  0  0  3  0  0  0  0  0  0
  189.2150  177.0660  143.2110 C   0  0  0  0  0  0  0  0  0  0  0  0
  190.3950  176.7820  145.4380 C   0  0  0  0  0  3  0  0  0  0  0  0
  187.4110  177.1150  144.9560 C   0  0  0  0  0  3  0  0  0  0  0  0
  187.8560  176.7960  143.7400 C   0  0  0  0  0  3  0  0  0  0  0  0
  188.2240  177.8750  145.9460 C   0  0  0  0  0  2  0  0  0  0  0  0
  1  4  1  0  0  0  0
  2  8  1  0  0  0  0
  3  9  2  0  0  0  0
  3  5  1  0  0  0  0
  4 25  1  0  0  0  0
  5 10  1  0  0  0  0
  6  3  1  0  0  0  0
  7 12  2  0  0  0  0
  8 17  1  0  0  0  0
  8  6  2  0  0  0  0
  9  1  1  0  0  0  0
 10  4  2  0  0  0  0
 11 14  2  0  0  0  0
 12 11  1  0  0  0  0
 12  6  1  0  0  0  0
 13  7  1  0  0  0  0
 13  2  2  0  0  0  0
 14  9  1  0  0  0  0
 15 19  1  0  0  0  0
 16 21  1  0  0  0  0
 16 17  1  0  0  0  0
 16 20  1  1  0  0  0
 17 18  1  0  0  0  0
 18 22  1  0  0  0  0
 19 22  2  0  0  0  0
 21 15  1  1  0  0  0
 21 19  1  0  0  0  0
 24 26  1  0  0  0  0
 25 28  1  0  0  0  0
 25 24  2  0  0  0  0
 26 23  2  0  0  0  0
 27 29  1  0  0  0  0
 28 27  2  0  0  0  0
 29 23  1  0  0  0  0
M  END
>  <MODEL>
8

>  <REMARK>
 VINA RESULT:      -7.0      5.561      7.744
  Name = 
  2 active torsions:
  status: ('A' for Active; 'I' for Inactive)
    1  A    between atoms: C_8  and  C_9
    2  A    between atoms: N_10  and  C_16
                            x       y       z     vdW  Elec       q    Type
                         _______ _______ _______ _____ _____    ______ ____

>  <TORSDO>
F 2

$$$$
=
 OpenBabel10222421083D

 29 34  0  0  1  0  0  0  0  0999 V2000
  185.5970  179.2990  142.4390 S   0  0  0  0  0  0  0  0  0  0  0  0
  184.7960  177.5000  136.2250 N   0  0  0  0  0  0  0  0  0  0  0  0
  185.5620  178.2550  139.8400 C   0  0  0  0  0  0  0  0  0  0  0  0
  187.0030  178.1720  142.4610 C   0  0  0  0  0  0  0  0  0  0  0  0
  186.8440  177.8860  140.0030 C   0  0  0  0  0  2  0  0  0  0  0  0
  184.8990  178.1010  138.5800 C   0  0  0  0  0  0  0  0  0  0  0  0
  182.6720  177.9480  137.3290 C   0  0  0  0  0  3  0  0  0  0  0  0
  185.5420  177.8670  137.3970 C   0  0  0  0  0  0  0  0  0  0  0  0
  184.8100  178.6250  140.9720 C   0  0  0  0  0  0  0  0  0  0  0  0
  187.5190  177.7400  141.3040 C   0  0  0  0  0  3  0  0  0  0  0  0
  182.7980  178.4110  139.7230 N   0  0  0  0  0  0  0  0  0  0  0  0
  183.4790  178.1360  138.5810 C   0  0  0  0  0  0  0  0  0  0  0  0
  183.5020  177.5030  136.1700 C   0  0  0  0  0  3  0  0  0  0  0  0
  183.4250  178.6780  140.8920 C   0  0  0  0  0  3  0  0  0  0  0  0
  190.3090  177.0420  136.6770 O   0  0  0  0  0  0  0  0  0  0  0  0
  187.7650  176.7960  136.8640 C   0  0  2  0  0  3  0  0  0  0  0  0
  186.9600  178.0030  137.2530 N   0  0  0  0  0  0  0  0  0  0  0  0
  187.5540  179.3780  137.1790 C   0  0  0  0  0  2  0  0  0  0  0  0
  189.4350  178.2240  136.8880 C   0  0  0  0  0  0  0  0  0  0  0  0
  188.0290  176.0120  137.9750 F   0  0  0  0  0  0  0  0  0  0  0  0
  189.0670  177.1700  136.0990 C   0  0  1  0  0  3  0  0  0  0  0  0
  189.0050  179.3150  137.3950 N   0  0  0  0  0  0  0  0  0  0  0  0
  189.4970  177.6720  146.2710 C   0  0  0  0  0  3  0  0  0  0  0  0
  189.0080  177.8680  143.8310 C   0  0  0  0  0  3  0  0  0  0  0  0
  187.6620  177.8430  143.7540 C   0  0  0  0  0  0  0  0  0  0  0  0
  189.8520  177.5310  144.9940 C   0  0  0  0  0  3  0  0  0  0  0  0
  187.0450  177.5030  146.1630 C   0  0  0  0  0  3  0  0  0  0  0  0
  186.8050  177.3510  144.8600 C   0  0  0  0  0  3  0  0  0  0  0  0
  188.2020  178.2780  146.6930 C   0  0  0  0  0  2  0  0  0  0  0  0
  1  4  1  0  0  0  0
  2  8  1  0  0  0  0
  3  5  1  0  0  0  0
  3  9  2  0  0  0  0
  4 25  1  0  0  0  0
  5 10  1  0  0  0  0
  6 12  1  0  0  0  0
  6  3  1  0  0  0  0
  7 12  2  0  0  0  0
  8  6  2  0  0  0  0
  9  1  1  0  0  0  0
 10  4  2  0  0  0  0
 11 14  2  0  0  0  0
 12 11  1  0  0  0  0
 13  2  2  0  0  0  0
 13  7  1  0  0  0  0
 14  9  1  0  0  0  0
 15 19  1  0  0  0  0
 16 17  1  0  0  0  0
 16 20  1  1  0  0  0
 17  8  1  0  0  0  0
 18 17  1  0  0  0  0
 18 22  1  0  0  0  0
 19 22  2  0  0  0  0
 21 15  1  1  0  0  0
 21 16  1  0  0  0  0
 21 19  1  0  0  0  0
 23 29  1  0  0  0  0
 24 26  1  0  0  0  0
 25 24  2  0  0  0  0
 25 28  1  0  0  0  0
 26 23  2  0  0  0  0
 27 29  1  0  0  0  0
 28 27  2  0  0  0  0
M  END
>  <MODEL>
9

>  <REMARK>
 VINA RESULT:      -6.8      2.507      3.825
  Name = 
  2 active torsions:
  status: ('A' for Active; 'I' for Inactive)
    1  A    between atoms: C_8  and  C_9
    2  A    between atoms: N_10  and  C_16
                            x       y       z     vdW  Elec       q    Type
                         _______ _______ _______ _____ _____    ______ ____

>  <TORSDO>
F 2

$$$$
