=
 OpenBabel10222420113D

 27 31  0  0  1  0  0  0  0  0999 V2000
  184.2160  179.3540  142.9010 C   0  0  0  0  0  3  0  0  0  0  0  0
  188.5040  177.9840  144.8430 N   0  0  0  0  0  0  0  0  0  0  0  0
  186.2380  178.5480  144.1230 C   0  0  2  0  0  3  0  0  0  0  0  0
  189.2740  177.8610  143.6080 C   0  0  0  0  0  2  0  0  0  0  0  0
  185.3930  178.4140  142.8520 C   0  0  2  0  0  3  0  0  0  0  0  0
  185.8740  178.4280  146.4710 O   0  0  0  0  0  0  0  0  0  0  0  0
  187.6790  178.3050  141.7810 N   0  0  0  0  0  0  0  0  0  0  0  0
  183.8700  178.6190  145.2380 C   0  0  0  0  0  2  0  0  0  0  0  0
  186.2790  178.6400  141.6680 C   0  0  0  0  0  0  0  0  0  0  0  0
  185.7880  179.0180  140.5690 O   0  0  0  0  0  0  0  0  0  0  0  0
  187.3340  177.4750  144.1360 C   0  0  1  0  0  3  0  0  0  0  0  0
  183.5000  179.4450  144.0310 C   0  0  0  0  0  3  0  0  0  0  0  0
  185.3690  178.5140  145.3630 C   0  0  0  0  0  0  0  0  0  0  0  0
  188.0950  177.3360  142.8090 C   0  0  2  0  0  3  0  0  0  0  0  0
  188.3070  177.0100  138.5890 C   0  0  2  0  0  0  0  0  0  0  0  0
  189.4050  177.8950  138.2410 C   0  0  1  0  0  0  0  0  0  0  0  0
  188.7530  178.0510  139.6110 C   0  0  0  0  0  0  0  0  0  0  0  0
  188.6470  178.6710  140.7820 C   0  0  0  0  0  3  0  0  0  0  0  0
  189.2570  176.6480  137.6350 O   0  0  0  0  0  0  0  0  0  0  0  0
  189.0390  179.0320  137.2910 C   0  0  0  0  0  1  0  0  0  0  0  0
  187.0460  177.3850  137.9580 N   0  0  0  0  0  1  0  0  0  0  0  0
  188.9530  176.9340  145.7450 C   0  0  0  0  0  2  0  0  0  0  0  0
  189.3060  177.5350  147.0930 C   0  0  0  0  0  2  0  0  0  0  0  0
  190.6590  177.0270  147.5550 C   0  0  0  0  0  2  0  0  0  0  0  0
  191.5330  176.8290  146.4110 N   0  0  0  0  0  2  0  0  0  0  0  0
  192.7410  175.6530  148.1490 C   0  0  0  0  0  1  0  0  0  0  0  0
  192.3290  175.6500  146.6920 C   0  0  0  0  0  2  0  0  0  0  0  0
  1 12  2  0  0  0  0
  2 22  1  0  0  0  0
  3 11  1  0  0  0  0
  3 13  1  1  0  0  0
  4  2  1  0  0  0  0
  5  1  1  1  0  0  0
  5  3  1  0  0  0  0
  7 14  1  0  0  0  0
  8 13  1  0  0  0  0
  9  7  1  0  0  0  0
  9  5  1  0  0  0  0
 10  9  2  0  0  0  0
 11  2  1  1  0  0  0
 12  8  1  0  0  0  0
 13  6  2  0  0  0  0
 14  4  1  1  0  0  0
 14 11  1  0  0  0  0
 15 21  1  6  0  0  0
 15 17  1  0  0  0  0
 16 20  1  6  0  0  0
 16 15  1  0  0  0  0
 16 17  1  0  0  0  0
 17 18  2  0  0  0  0
 18  7  1  0  0  0  0
 19 16  1  0  0  0  0
 19 15  1  0  0  0  0
 22 23  1  0  0  0  0
 23 24  1  0  0  0  0
 25 27  1  0  0  0  0
 25 24  1  0  0  0  0
 27 26  1  0  0  0  0
M  END
>  <MODEL>
1

>  <REMARK>
 VINA RESULT:      -8.4      0.000      0.000
  Name = 
  6 active torsions:
  status: ('A' for Active; 'I' for Inactive)
    1  A    between atoms: N_2  and  C_25
    2  A    between atoms: C_6  and  N_14
    3  A    between atoms: C_6  and  C_21
    4  A    between atoms: N_10  and  C_18
    5  A    between atoms: N_14  and  C_15
    6  A    between atoms: C_21  and  C_25
                            x       y       z     vdW  Elec       q    Type
                         _______ _______ _______ _____ _____    ______ ____

>  <TORSDO>
F 6

$$$$
=
 OpenBabel10222420113D

 27 31  0  0  1  0  0  0  0  0999 V2000
  185.4640  179.0020  143.7140 C   0  0  0  0  0  3  0  0  0  0  0  0
  189.9200  177.0370  143.1540 N   0  0  0  0  0  0  0  0  0  0  0  0
  187.6710  177.8380  143.6780 C   0  0  2  0  0  3  0  0  0  0  0  0
  190.0650  177.2310  141.7140 C   0  0  0  0  0  2  0  0  0  0  0  0
  186.3570  178.0780  142.9280 C   0  0  2  0  0  3  0  0  0  0  0  0
  188.3270  177.0970  145.8410 O   0  0  0  0  0  0  0  0  0  0  0  0
  187.9280  178.1980  140.9530 N   0  0  0  0  0  0  0  0  0  0  0  0
  186.0400  177.6720  145.7190 C   0  0  0  0  0  2  0  0  0  0  0  0
  186.6790  178.5910  141.5600 C   0  0  0  0  0  0  0  0  0  0  0  0
  185.8290  179.2660  140.9180 O   0  0  0  0  0  0  0  0  0  0  0  0
  188.5010  176.7710  142.9510 C   0  0  1  0  0  3  0  0  0  0  0  0
  185.3170  178.8030  145.0320 C   0  0  0  0  0  3  0  0  0  0  0  0
  187.4170  177.4940  145.1310 C   0  0  0  0  0  0  0  0  0  0  0  0
  188.5960  176.9760  141.4310 C   0  0  2  0  0  3  0  0  0  0  0  0
  188.5930  176.8150  137.8050 C   0  0  2  0  0  0  0  0  0  0  0  0
  189.0490  178.0340  137.1590 C   0  0  1  0  0  0  0  0  0  0  0  0
  188.6300  178.1030  138.6230 C   0  0  0  0  0  0  0  0  0  0  0  0
  188.4230  178.7940  139.7400 C   0  0  0  0  0  3  0  0  0  0  0  0
  189.4340  176.7770  136.6940 O   0  0  0  0  0  0  0  0  0  0  0  0
  188.0290  178.6910  136.2320 C   0  0  0  0  0  1  0  0  0  0  0  0
  187.2280  176.4510  137.4440 N   0  0  0  0  0  1  0  0  0  0  0  0
  190.5510  175.7690  143.4900 C   0  0  0  0  0  2  0  0  0  0  0  0
  191.7470  176.0170  144.3910 C   0  0  0  0  0  2  0  0  0  0  0  0
  191.6100  177.3580  145.0880 C   0  0  0  0  0  2  0  0  0  0  0  0
  191.6860  177.1800  146.5280 N   0  0  0  0  0  2  0  0  0  0  0  0
  192.6990  175.6790  148.1350 C   0  0  0  0  0  1  0  0  0  0  0  0
  192.0790  175.8040  146.7590 C   0  0  0  0  0  2  0  0  0  0  0  0
  1 12  2  0  0  0  0
  2 22  1  0  0  0  0
  3 13  1  1  0  0  0
  4  2  1  0  0  0  0
  5  3  1  0  0  0  0
  5  1  1  1  0  0  0
  7 14  1  0  0  0  0
  7  9  1  0  0  0  0
  9  5  1  0  0  0  0
 10  9  2  0  0  0  0
 11  2  1  1  0  0  0
 11  3  1  0  0  0  0
 12  8  1  0  0  0  0
 13  8  1  0  0  0  0
 13  6  2  0  0  0  0
 14  4  1  1  0  0  0
 14 11  1  0  0  0  0
 15 21  1  6  0  0  0
 15 17  1  0  0  0  0
 16 20  1  6  0  0  0
 16 15  1  0  0  0  0
 16 17  1  0  0  0  0
 17 18  2  0  0  0  0
 18  7  1  0  0  0  0
 19 16  1  0  0  0  0
 19 15  1  0  0  0  0
 22 23  1  0  0  0  0
 23 24  1  0  0  0  0
 24 25  1  0  0  0  0
 25 27  1  0  0  0  0
 27 26  1  0  0  0  0
M  END
>  <MODEL>
2

>  <REMARK>
 VINA RESULT:      -7.9      1.401      1.802
  Name = 
  6 active torsions:
  status: ('A' for Active; 'I' for Inactive)
    1  A    between atoms: N_2  and  C_25
    2  A    between atoms: C_6  and  N_14
    3  A    between atoms: C_6  and  C_21
    4  A    between atoms: N_10  and  C_18
    5  A    between atoms: N_14  and  C_15
    6  A    between atoms: C_21  and  C_25
                            x       y       z     vdW  Elec       q    Type
                         _______ _______ _______ _____ _____    ______ ____

>  <TORSDO>
F 6

$$$$
=
 OpenBabel10222420113D

 27 31  0  0  1  0  0  0  0  0999 V2000
  185.1830  178.9140  146.0500 C   0  0  0  0  0  3  0  0  0  0  0  0
  189.1080  177.9040  143.2920 N   0  0  0  0  0  0  0  0  0  0  0  0
  187.2830  178.2390  144.8820 C   0  0  2  0  0  3  0  0  0  0  0  0
  188.4970  178.0630  141.9750 C   0  0  0  0  0  2  0  0  0  0  0  0
  185.7520  178.1650  144.8730 C   0  0  2  0  0  3  0  0  0  0  0  0
  189.0370  177.7460  146.4110 O   0  0  0  0  0  0  0  0  0  0  0  0
  186.1120  178.5260  142.3980 N   0  0  0  0  0  0  0  0  0  0  0  0
  186.9130  177.8220  147.4400 C   0  0  0  0  0  2  0  0  0  0  0  0
  185.2610  178.6740  143.5550 C   0  0  0  0  0  0  0  0  0  0  0  0
  184.0890  179.1270  143.4450 O   0  0  0  0  0  0  0  0  0  0  0  0
  187.8560  177.3390  143.7790 C   0  0  1  0  0  3  0  0  0  0  0  0
  185.7350  178.7460  147.2600 C   0  0  0  0  0  3  0  0  0  0  0  0
  187.8380  177.9120  146.2530 C   0  0  0  0  0  0  0  0  0  0  0  0
  187.1610  177.4930  142.4170 C   0  0  2  0  0  3  0  0  0  0  0  0
  183.7850  177.7500  139.9000 C   0  0  2  0  0  0  0  0  0  0  0  0
  184.1210  178.8310  138.9900 C   0  0  1  0  0  0  0  0  0  0  0  0
  184.9000  178.7140  140.2950 C   0  0  0  0  0  0  0  0  0  0  0  0
  185.8270  179.1590  141.1390 C   0  0  0  0  0  3  0  0  0  0  0  0
  183.5130  177.6610  138.5350 O   0  0  0  0  0  0  0  0  0  0  0  0
  183.1480  180.0070  138.9990 C   0  0  0  0  0  1  0  0  0  0  0  0
  182.5670  178.0010  140.6630 N   0  0  0  0  0  1  0  0  0  0  0  0
  190.0670  176.8130  143.2010 C   0  0  0  0  0  2  0  0  0  0  0  0
  191.3370  177.1860  143.9440 C   0  0  0  0  0  2  0  0  0  0  0  0
  191.7040  176.0960  144.9340 C   0  0  0  0  0  2  0  0  0  0  0  0
  192.0320  176.6840  146.2210 N   0  0  0  0  0  2  0  0  0  0  0  0
  192.8130  175.7920  148.3320 C   0  0  0  0  0  1  0  0  0  0  0  0
  191.7930  175.6610  147.2210 C   0  0  0  0  0  2  0  0  0  0  0  0
  1 12  2  0  0  0  0
  3 13  1  1  0  0  0
  4  2  1  0  0  0  0
  5  3  1  0  0  0  0
  5  1  1  1  0  0  0
  7 14  1  0  0  0  0
  7  9  1  0  0  0  0
  9  5  1  0  0  0  0
 10  9  2  0  0  0  0
 11  2  1  6  0  0  0
 11  3  1  0  0  0  0
 12  8  1  0  0  0  0
 13  6  2  0  0  0  0
 13  8  1  0  0  0  0
 14  4  1  6  0  0  0
 14 11  1  0  0  0  0
 15 17  1  0  0  0  0
 15 21  1  1  0  0  0
 16 20  1  1  0  0  0
 16 15  1  0  0  0  0
 16 17  1  0  0  0  0
 17 18  2  0  0  0  0
 18  7  1  0  0  0  0
 19 16  1  0  0  0  0
 19 15  1  0  0  0  0
 22  2  1  0  0  0  0
 22 23  1  0  0  0  0
 23 24  1  0  0  0  0
 24 25  1  0  0  0  0
 25 27  1  0  0  0  0
 27 26  1  0  0  0  0
M  END
>  <MODEL>
3

>  <REMARK>
 VINA RESULT:      -7.7      2.481      3.337
  Name = 
  6 active torsions:
  status: ('A' for Active; 'I' for Inactive)
    1  A    between atoms: N_2  and  C_25
    2  A    between atoms: C_6  and  N_14
    3  A    between atoms: C_6  and  C_21
    4  A    between atoms: N_10  and  C_18
    5  A    between atoms: N_14  and  C_15
    6  A    between atoms: C_21  and  C_25
                            x       y       z     vdW  Elec       q    Type
                         _______ _______ _______ _____ _____    ______ ____

>  <TORSDO>
F 6

$$$$
=
 OpenBabel10222420113D

 27 31  0  0  1  0  0  0  0  0999 V2000
  183.5860  179.1070  142.5170 C   0  0  0  0  0  3  0  0  0  0  0  0
  187.2600  178.2670  145.6520 N   0  0  0  0  0  0  0  0  0  0  0  0
  185.2440  178.5840  144.3080 C   0  0  2  0  0  3  0  0  0  0  0  0
  188.3340  178.0710  144.6830 C   0  0  0  0  0  2  0  0  0  0  0  0
  184.7730  178.2560  142.8870 C   0  0  2  0  0  3  0  0  0  0  0  0
  184.2760  178.6870  146.4780 O   0  0  0  0  0  0  0  0  0  0  0  0
  187.2640  178.2010  142.4650 N   0  0  0  0  0  0  0  0  0  0  0  0
  182.6640  178.5990  144.7550 C   0  0  0  0  0  2  0  0  0  0  0  0
  185.9310  178.4200  141.9550 C   0  0  0  0  0  0  0  0  0  0  0  0
  185.7340  178.6420  140.7290 O   0  0  0  0  0  0  0  0  0  0  0  0
  186.3430  177.6020  144.7340 C   0  0  1  0  0  3  0  0  0  0  0  0
  182.5930  179.2630  143.4030 C   0  0  0  0  0  3  0  0  0  0  0  0
  184.0800  178.6180  145.2760 C   0  0  0  0  0  0  0  0  0  0  0  0
  187.4340  177.3800  143.6750 C   0  0  2  0  0  3  0  0  0  0  0  0
  190.5480  177.0060  142.6890 C   0  0  2  0  0  0  0  0  0  0  0  0
  191.1130  177.8130  141.6210 C   0  0  1  0  0  0  0  0  0  0  0  0
  189.6320  177.9760  141.9480 C   0  0  0  0  0  0  0  0  0  0  0  0
  188.4460  178.5290  141.7140 C   0  0  0  0  0  3  0  0  0  0  0  0
  191.9100  177.3010  142.6440 O   0  0  0  0  0  0  0  0  0  0  0  0
  191.3380  177.0710  140.3050 C   0  0  0  0  0  1  0  0  0  0  0  0
  190.2960  175.6260  142.2940 N   0  0  0  0  0  1  0  0  0  0  0  0
  187.4980  177.3540  146.7590 C   0  0  0  0  0  2  0  0  0  0  0  0
  187.8760  178.1420  148.0000 C   0  0  0  0  0  2  0  0  0  0  0  0
  189.3120  177.8480  148.3910 C   0  0  0  0  0  2  0  0  0  0  0  0
  189.8750  176.8480  147.5000 N   0  0  0  0  0  2  0  0  0  0  0  0
  191.9590  175.7180  147.0050 C   0  0  0  0  0  1  0  0  0  0  0  0
  191.3170  176.9440  147.6210 C   0  0  0  0  0  2  0  0  0  0  0  0
  1 12  2  0  0  0  0
  2 22  1  0  0  0  0
  3 11  1  0  0  0  0
  3 13  1  1  0  0  0
  4  2  1  0  0  0  0
  5  1  1  6  0  0  0
  5  3  1  0  0  0  0
  7 14  1  0  0  0  0
  8 13  1  0  0  0  0
  9  7  1  0  0  0  0
  9  5  1  0  0  0  0
 10  9  2  0  0  0  0
 11  2  1  1  0  0  0
 12  8  1  0  0  0  0
 13  6  2  0  0  0  0
 14  4  1  1  0  0  0
 14 11  1  0  0  0  0
 15 21  1  6  0  0  0
 16 20  1  6  0  0  0
 16 17  1  0  0  0  0
 16 19  1  0  0  0  0
 16 15  1  0  0  0  0
 17 15  1  0  0  0  0
 18 17  2  0  0  0  0
 18  7  1  0  0  0  0
 19 15  1  0  0  0  0
 22 23  1  0  0  0  0
 23 24  1  0  0  0  0
 25 27  1  0  0  0  0
 25 24  1  0  0  0  0
 26 27  1  0  0  0  0
M  END
>  <MODEL>
4

>  <REMARK>
 VINA RESULT:      -7.6      2.079      2.457
  Name = 
  6 active torsions:
  status: ('A' for Active; 'I' for Inactive)
    1  A    between atoms: N_2  and  C_25
    2  A    between atoms: C_6  and  N_14
    3  A    between atoms: C_6  and  C_21
    4  A    between atoms: N_10  and  C_18
    5  A    between atoms: N_14  and  C_15
    6  A    between atoms: C_21  and  C_25
                            x       y       z     vdW  Elec       q    Type
                         _______ _______ _______ _____ _____    ______ ____

>  <TORSDO>
F 6

$$$$
=
 OpenBabel10222420113D

 27 31  0  0  1  0  0  0  0  0999 V2000
  191.8310  176.1170  146.0040 C   0  0  0  0  0  3  0  0  0  0  0  0
  187.2030  177.5550  145.2660 N   0  0  0  0  0  0  0  0  0  0  0  0
  189.4970  176.9930  145.8940 C   0  0  2  0  0  3  0  0  0  0  0  0
  187.1820  177.4850  143.8080 C   0  0  0  0  0  2  0  0  0  0  0  0
  190.8790  176.9950  145.2340 C   0  0  2  0  0  3  0  0  0  0  0  0
  188.6050  177.4310  148.0560 O   0  0  0  0  0  0  0  0  0  0  0  0
  189.4750  176.8730  143.1360 N   0  0  0  0  0  0  0  0  0  0  0  0
  190.9510  177.1620  148.0660 C   0  0  0  0  0  2  0  0  0  0  0  0
  190.7210  176.5820  143.8040 C   0  0  0  0  0  0  0  0  0  0  0  0
  191.6950  176.0850  143.1750 O   0  0  0  0  0  0  0  0  0  0  0  0
  188.5850  178.0140  145.2010 C   0  0  1  0  0  3  0  0  0  0  0  0
  191.8610  176.2020  147.3420 C   0  0  0  0  0  3  0  0  0  0  0  0
  189.6050  177.2220  147.3880 C   0  0  0  0  0  0  0  0  0  0  0  0
  188.6210  177.9490  143.6660 C   0  0  2  0  0  3  0  0  0  0  0  0
  190.4140  177.8870  139.9200 C   0  0  2  0  0  0  0  0  0  0  0  0
  189.6860  176.8690  139.1830 C   0  0  1  0  0  0  0  0  0  0  0  0
  189.5910  176.8710  140.7050 C   0  0  0  0  0  0  0  0  0  0  0  0
  189.1460  176.3420  141.8410 C   0  0  0  0  0  3  0  0  0  0  0  0
  190.0340  178.0840  138.5920 O   0  0  0  0  0  0  0  0  0  0  0  0
  190.5420  175.7190  138.6560 C   0  0  0  0  0  1  0  0  0  0  0  0
  191.8430  177.6110  140.0210 N   0  0  0  0  0  1  0  0  0  0  0  0
  186.3890  178.6940  145.6620 C   0  0  0  0  0  2  0  0  0  0  0  0
  185.0790  178.2050  146.2520 C   0  0  0  0  0  2  0  0  0  0  0  0
  183.9070  178.8130  145.5030 C   0  0  0  0  0  2  0  0  0  0  0  0
  184.3770  179.4730  144.2970 N   0  0  0  0  0  2  0  0  0  0  0  0
  182.1320  178.9350  143.5660 C   0  0  0  0  0  1  0  0  0  0  0  0
  183.6010  178.9340  143.1970 C   0  0  0  0  0  2  0  0  0  0  0  0
  1 12  2  0  0  0  0
  2 22  1  0  0  0  0
  3 13  1  1  0  0  0
  4  2  1  0  0  0  0
  5  3  1  0  0  0  0
  5  1  1  1  0  0  0
  7 14  1  0  0  0  0
  7  9  1  0  0  0  0
  9  5  1  0  0  0  0
 10  9  2  0  0  0  0
 11  2  1  1  0  0  0
 11  3  1  0  0  0  0
 12  8  1  0  0  0  0
 13  6  2  0  0  0  0
 13  8  1  0  0  0  0
 14  4  1  1  0  0  0
 14 11  1  0  0  0  0
 15 21  1  1  0  0  0
 15 17  1  0  0  0  0
 16 20  1  6  0  0  0
 16 15  1  0  0  0  0
 16 17  1  0  0  0  0
 17 18  2  0  0  0  0
 18  7  1  0  0  0  0
 19 16  1  0  0  0  0
 19 15  1  0  0  0  0
 22 23  1  0  0  0  0
 24 23  1  0  0  0  0
 25 24  1  0  0  0  0
 27 26  1  0  0  0  0
 27 25  1  0  0  0  0
M  END
>  <MODEL>
5

>  <REMARK>
 VINA RESULT:      -7.5      2.224      5.671
  Name = 
  6 active torsions:
  status: ('A' for Active; 'I' for Inactive)
    1  A    between atoms: N_2  and  C_25
    2  A    between atoms: C_6  and  N_14
    3  A    between atoms: C_6  and  C_21
    4  A    between atoms: N_10  and  C_18
    5  A    between atoms: N_14  and  C_15
    6  A    between atoms: C_21  and  C_25
                            x       y       z     vdW  Elec       q    Type
                         _______ _______ _______ _____ _____    ______ ____

>  <TORSDO>
F 6

$$$$
=
 OpenBabel10222420113D

 27 31  0  0  1  0  0  0  0  0999 V2000
  186.0170  178.5150  146.4710 C   0  0  0  0  0  3  0  0  0  0  0  0
  189.0580  177.8730  142.6800 N   0  0  0  0  0  0  0  0  0  0  0  0
  187.7160  177.9930  144.7180 C   0  0  2  0  0  3  0  0  0  0  0  0
  188.1410  178.2280  141.6010 C   0  0  0  0  0  2  0  0  0  0  0  0
  186.2320  177.9390  145.0960 C   0  0  2  0  0  3  0  0  0  0  0  0
  189.7750  177.2640  145.6590 O   0  0  0  0  0  0  0  0  0  0  0  0
  185.9670  178.6520  142.6860 N   0  0  0  0  0  0  0  0  0  0  0  0
  187.9890  177.2130  147.2030 C   0  0  0  0  0  2  0  0  0  0  0  0
  185.4470  178.6400  144.0320 C   0  0  0  0  0  0  0  0  0  0  0  0
  184.3090  179.1170  144.2930 O   0  0  0  0  0  0  0  0  0  0  0  0
  187.9450  177.2570  143.3920 C   0  0  1  0  0  3  0  0  0  0  0  0
  186.8500  178.1670  147.4620 C   0  0  0  0  0  3  0  0  0  0  0  0
  188.5850  177.4650  145.8400 C   0  0  0  0  0  0  0  0  0  0  0  0
  186.9350  177.6160  142.2900 C   0  0  2  0  0  3  0  0  0  0  0  0
  184.2800  177.7850  139.7430 C   0  0  2  0  0  0  0  0  0  0  0  0
  184.0470  179.1340  139.2570 C   0  0  1  0  0  0  0  0  0  0  0  0
  184.7970  178.9560  140.5730 C   0  0  0  0  0  0  0  0  0  0  0  0
  185.4010  179.4640  141.6420 C   0  0  0  0  0  3  0  0  0  0  0  0
  184.0730  178.0440  138.3880 O   0  0  0  0  0  0  0  0  0  0  0  0
  182.6270  179.6560  139.4650 C   0  0  0  0  0  1  0  0  0  0  0  0
  183.0990  177.1810  140.3480 N   0  0  0  0  0  1  0  0  0  0  0  0
  189.9080  176.7970  142.1950 C   0  0  0  0  0  2  0  0  0  0  0  0
  191.2720  177.3500  141.8220 C   0  0  0  0  0  2  0  0  0  0  0  0
  191.4510  177.3310  140.3160 C   0  0  0  0  0  2  0  0  0  0  0  0
  190.6370  176.2790  139.7310 N   0  0  0  0  0  2  0  0  0  0  0  0
  189.5660  177.7570  138.1400 C   0  0  0  0  0  1  0  0  0  0  0  0
  190.5080  176.5850  138.3190 C   0  0  0  0  0  2  0  0  0  0  0  0
  1 12  2  0  0  0  0
  3  5  1  0  0  0  0
  3 13  1  1  0  0  0
  4  2  1  0  0  0  0
  5  1  1  1  0  0  0
  6 13  2  0  0  0  0
  7  9  1  0  0  0  0
  8 12  1  0  0  0  0
  9 10  2  0  0  0  0
  9  5  1  0  0  0  0
 11  2  1  6  0  0  0
 11  3  1  0  0  0  0
 13  8  1  0  0  0  0
 14  4  1  6  0  0  0
 14  7  1  0  0  0  0
 14 11  1  0  0  0  0
 15 21  1  1  0  0  0
 15 17  1  0  0  0  0
 16 20  1  1  0  0  0
 16 15  1  0  0  0  0
 16 17  1  0  0  0  0
 17 18  2  0  0  0  0
 18  7  1  0  0  0  0
 19 16  1  0  0  0  0
 19 15  1  0  0  0  0
 22  2  1  0  0  0  0
 23 22  1  0  0  0  0
 24 23  1  0  0  0  0
 25 24  1  0  0  0  0
 26 27  1  0  0  0  0
 27 25  1  0  0  0  0
M  END
>  <MODEL>
6

>  <REMARK>
 VINA RESULT:      -7.4      2.538      4.906
  Name = 
  6 active torsions:
  status: ('A' for Active; 'I' for Inactive)
    1  A    between atoms: N_2  and  C_25
    2  A    between atoms: C_6  and  N_14
    3  A    between atoms: C_6  and  C_21
    4  A    between atoms: N_10  and  C_18
    5  A    between atoms: N_14  and  C_15
    6  A    between atoms: C_21  and  C_25
                            x       y       z     vdW  Elec       q    Type
                         _______ _______ _______ _____ _____    ______ ____

>  <TORSDO>
F 6

$$$$
=
 OpenBabel10222420113D

 27 31  0  0  1  0  0  0  0  0999 V2000
  191.5610  176.7160  145.9810 C   0  0  0  0  0  3  0  0  0  0  0  0
  187.0180  177.1150  144.1840 N   0  0  0  0  0  0  0  0  0  0  0  0
  189.1780  177.0600  145.3260 C   0  0  2  0  0  3  0  0  0  0  0  0
  187.3410  177.0680  142.7610 C   0  0  0  0  0  2  0  0  0  0  0  0
  190.6390  177.3760  144.9900 C   0  0  2  0  0  3  0  0  0  0  0  0
  187.7500  177.2540  147.2190 O   0  0  0  0  0  0  0  0  0  0  0  0
  189.8020  176.9850  142.6380 N   0  0  0  0  0  0  0  0  0  0  0  0
  190.0340  177.5070  147.7600 C   0  0  0  0  0  2  0  0  0  0  0  0
  190.8990  176.9640  143.5760 C   0  0  0  0  0  0  0  0  0  0  0  0
  192.0740  176.7040  143.1950 O   0  0  0  0  0  0  0  0  0  0  0  0
  188.2450  177.8680  144.4140 C   0  0  1  0  0  3  0  0  0  0  0  0
  191.2710  176.7830  147.2890 C   0  0  0  0  0  3  0  0  0  0  0  0
  188.8950  177.2820  146.7970 C   0  0  0  0  0  0  0  0  0  0  0  0
  188.6380  177.8390  142.9280 C   0  0  2  0  0  3  0  0  0  0  0  0
  188.3790  177.9690  139.5930 C   0  0  2  0  0  0  0  0  0  0  0  0
  188.9420  176.9090  138.7740 C   0  0  1  0  0  0  0  0  0  0  0  0
  189.2690  176.9250  140.2630 C   0  0  0  0  0  0  0  0  0  0  0  0
  189.8970  176.4180  141.3200 C   0  0  0  0  0  3  0  0  0  0  0  0
  187.7770  177.5770  138.3980 O   0  0  0  0  0  0  0  0  0  0  0  0
  190.1330  177.3240  137.9140 C   0  0  0  0  0  1  0  0  0  0  0  0
  189.0730  179.2420  139.4390 N   0  0  0  0  0  1  0  0  0  0  0  0
  185.9080  178.0410  144.3510 C   0  0  0  0  0  2  0  0  0  0  0  0
  185.2000  178.2350  143.0220 C   0  0  0  0  0  2  0  0  0  0  0  0
  183.8500  178.8920  143.2390 C   0  0  0  0  0  2  0  0  0  0  0  0
  183.0930  178.8940  141.9980 N   0  0  0  0  0  2  0  0  0  0  0  0
  181.4930  178.9590  143.8140 C   0  0  0  0  0  1  0  0  0  0  0  0
  181.7110  178.6350  142.3510 C   0  0  0  0  0  2  0  0  0  0  0  0
  1 12  2  0  0  0  0
  2 22  1  0  0  0  0
  3 13  1  1  0  0  0
  4  2  1  0  0  0  0
  5  3  1  0  0  0  0
  5  1  1  1  0  0  0
  7 14  1  0  0  0  0
  7  9  1  0  0  0  0
  9  5  1  0  0  0  0
 10  9  2  0  0  0  0
 11  2  1  6  0  0  0
 11  3  1  0  0  0  0
 12  8  1  0  0  0  0
 13  6  2  0  0  0  0
 13  8  1  0  0  0  0
 14  4  1  6  0  0  0
 14 11  1  0  0  0  0
 15 21  1  6  0  0  0
 15 17  1  0  0  0  0
 16 20  1  6  0  0  0
 16 15  1  0  0  0  0
 16 17  1  0  0  0  0
 17 18  2  0  0  0  0
 18  7  1  0  0  0  0
 19 16  1  0  0  0  0
 19 15  1  0  0  0  0
 23 24  1  0  0  0  0
 23 22  1  0  0  0  0
 25 27  1  0  0  0  0
 25 24  1  0  0  0  0
 27 26  1  0  0  0  0
M  END
>  <MODEL>
7

>  <REMARK>
 VINA RESULT:      -6.9      2.136      5.755
  Name = 
  6 active torsions:
  status: ('A' for Active; 'I' for Inactive)
    1  A    between atoms: N_2  and  C_25
    2  A    between atoms: C_6  and  N_14
    3  A    between atoms: C_6  and  C_21
    4  A    between atoms: N_10  and  C_18
    5  A    between atoms: N_14  and  C_15
    6  A    between atoms: C_21  and  C_25
                            x       y       z     vdW  Elec       q    Type
                         _______ _______ _______ _____ _____    ______ ____

>  <TORSDO>
F 6

$$$$
=
 OpenBabel10222420113D

 27 31  0  0  1  0  0  0  0  0999 V2000
  187.6120  178.2610  138.7610 C   0  0  0  0  0  3  0  0  0  0  0  0
  190.0410  176.3620  142.5730 N   0  0  0  0  0  0  0  0  0  0  0  0
  189.1030  177.3680  140.5530 C   0  0  2  0  0  3  0  0  0  0  0  0
  189.0200  176.5510  143.5990 C   0  0  0  0  0  2  0  0  0  0  0  0
  188.0260  178.4010  140.2030 C   0  0  2  0  0  3  0  0  0  0  0  0
  191.2280  176.7200  139.7050 O   0  0  0  0  0  0  0  0  0  0  0  0
  187.1690  177.7430  142.4880 N   0  0  0  0  0  0  0  0  0  0  0  0
  190.0150  178.0800  138.2040 C   0  0  0  0  0  2  0  0  0  0  0  0
  186.8890  178.2430  141.1620 C   0  0  0  0  0  0  0  0  0  0  0  0
  185.7330  178.6370  140.8480 O   0  0  0  0  0  0  0  0  0  0  0  0
  189.6340  177.6250  141.9690 C   0  0  1  0  0  3  0  0  0  0  0  0
  188.5560  178.1110  137.8220 C   0  0  0  0  0  3  0  0  0  0  0  0
  190.2000  177.3470  139.5090 C   0  0  0  0  0  0  0  0  0  0  0  0
  188.5370  177.8670  143.0180 C   0  0  2  0  0  3  0  0  0  0  0  0
  185.6090  179.5210  145.0680 C   0  0  2  0  0  0  0  0  0  0  0  0
  184.7080  178.4670  145.5030 C   0  0  1  0  0  0  0  0  0  0  0  0
  185.6610  178.1770  144.3480 C   0  0  0  0  0  0  0  0  0  0  0  0
  186.1320  177.3630  143.4090 C   0  0  0  0  0  3  0  0  0  0  0  0
  185.0880  179.4990  146.3620 O   0  0  0  0  0  0  0  0  0  0  0  0
  183.2620  178.6230  145.0370 C   0  0  0  0  0  1  0  0  0  0  0  0
  184.9510  180.5380  144.2550 N   0  0  0  0  0  1  0  0  0  0  0  0
  191.3360  176.5820  143.1980 C   0  0  0  0  0  2  0  0  0  0  0  0
  191.3210  176.0300  144.6120 C   0  0  0  0  0  2  0  0  0  0  0  0
  191.5700  177.1430  145.6130 C   0  0  0  0  0  2  0  0  0  0  0  0
  191.1770  176.7130  146.9430 N   0  0  0  0  0  2  0  0  0  0  0  0
  189.3900  177.8910  148.0750 C   0  0  0  0  0  1  0  0  0  0  0  0
  189.7360  176.8590  147.0220 C   0  0  0  0  0  2  0  0  0  0  0  0
  2 22  1  0  0  0  0
  2  4  1  0  0  0  0
  3 13  1  6  0  0  0
  3 11  1  0  0  0  0
  5  1  1  6  0  0  0
  5  3  1  0  0  0  0
  5  9  1  0  0  0  0
  7 14  1  0  0  0  0
  7 18  1  0  0  0  0
  8 13  1  0  0  0  0
  9  7  1  0  0  0  0
 10  9  2  0  0  0  0
 11  2  1  1  0  0  0
 11 14  1  0  0  0  0
 12  8  1  0  0  0  0
 12  1  2  0  0  0  0
 13  6  2  0  0  0  0
 14  4  1  1  0  0  0
 15 21  1  6  0  0  0
 15 16  1  0  0  0  0
 15 19  1  0  0  0  0
 16 20  1  6  0  0  0
 16 19  1  0  0  0  0
 17 15  1  0  0  0  0
 17 16  1  0  0  0  0
 18 17  2  0  0  0  0
 22 23  1  0  0  0  0
 23 24  1  0  0  0  0
 24 25  1  0  0  0  0
 25 27  1  0  0  0  0
 27 26  1  0  0  0  0
M  END
>  <MODEL>
8

>  <REMARK>
 VINA RESULT:      -6.6      1.700      5.649
  Name = 
  6 active torsions:
  status: ('A' for Active; 'I' for Inactive)
    1  A    between atoms: N_2  and  C_25
    2  A    between atoms: C_6  and  N_14
    3  A    between atoms: C_6  and  C_21
    4  A    between atoms: N_10  and  C_18
    5  A    between atoms: N_14  and  C_15
    6  A    between atoms: C_21  and  C_25
                            x       y       z     vdW  Elec       q    Type
                         _______ _______ _______ _____ _____    ______ ____

>  <TORSDO>
F 6

$$$$
=
 OpenBabel10222420113D

 27 31  0  0  1  0  0  0  0  0999 V2000
  191.4830  176.6980  143.2680 C   0  0  0  0  0  3  0  0  0  0  0  0
  186.8460  177.9210  142.2510 N   0  0  0  0  0  0  0  0  0  0  0  0
  189.1220  177.4670  143.0160 C   0  0  2  0  0  3  0  0  0  0  0  0
  186.9140  177.8430  140.7940 C   0  0  0  0  0  2  0  0  0  0  0  0
  190.5390  177.5270  142.4360 C   0  0  2  0  0  3  0  0  0  0  0  0
  188.0860  177.8740  145.1180 O   0  0  0  0  0  0  0  0  0  0  0  0
  189.2670  177.3310  140.2620 N   0  0  0  0  0  0  0  0  0  0  0  0
  190.4370  177.7120  145.2670 C   0  0  0  0  0  2  0  0  0  0  0  0
  190.4840  177.1000  141.0040 C   0  0  0  0  0  0  0  0  0  0  0  0
  191.5140  176.6450  140.4360 O   0  0  0  0  0  0  0  0  0  0  0  0
  188.2080  178.4420  142.2630 C   0  0  1  0  0  3  0  0  0  0  0  0
  191.4310  176.7910  144.6040 C   0  0  0  0  0  3  0  0  0  0  0  0
  189.1320  177.7080  144.5110 C   0  0  0  0  0  0  0  0  0  0  0  0
  188.3360  178.3700  140.7330 C   0  0  2  0  0  3  0  0  0  0  0  0
  187.9240  178.7550  137.3580 C   0  0  2  0  0  0  0  0  0  0  0  0
  188.0320  177.5810  136.5080 C   0  0  1  0  0  0  0  0  0  0  0  0
  188.4990  177.4740  137.9560 C   0  0  0  0  0  0  0  0  0  0  0  0
  189.0390  176.7800  138.9530 C   0  0  0  0  0  3  0  0  0  0  0  0
  187.1080  178.5900  136.2390 O   0  0  0  0  0  0  0  0  0  0  0  0
  189.1980  177.6050  135.5230 C   0  0  0  0  0  1  0  0  0  0  0  0
  188.9670  179.7420  137.1070 N   0  0  0  0  0  1  0  0  0  0  0  0
  185.9600  179.0240  142.5890 C   0  0  0  0  0  2  0  0  0  0  0  0
  184.8110  178.5140  143.4400 C   0  0  0  0  0  2  0  0  0  0  0  0
  184.2700  179.6300  144.3140 C   0  0  0  0  0  2  0  0  0  0  0  0
  183.7460  179.0810  145.5530 N   0  0  0  0  0  2  0  0  0  0  0  0
  185.6790  179.1950  147.0070 C   0  0  0  0  0  1  0  0  0  0  0  0
  184.8120  178.2980  146.1480 C   0  0  0  0  0  2  0  0  0  0  0  0
  1 12  2  0  0  0  0
  2 22  1  0  0  0  0
  3 13  1  1  0  0  0
  4  2  1  0  0  0  0
  5  3  1  0  0  0  0
  5  1  1  1  0  0  0
  7 14  1  0  0  0  0
  7  9  1  0  0  0  0
  9  5  1  0  0  0  0
 10  9  2  0  0  0  0
 11  2  1  6  0  0  0
 11  3  1  0  0  0  0
 12  8  1  0  0  0  0
 13  6  2  0  0  0  0
 13  8  1  0  0  0  0
 14  4  1  6  0  0  0
 14 11  1  0  0  0  0
 15 21  1  6  0  0  0
 15 17  1  0  0  0  0
 16 20  1  6  0  0  0
 16 15  1  0  0  0  0
 16 17  1  0  0  0  0
 17 18  2  0  0  0  0
 18  7  1  0  0  0  0
 19 16  1  0  0  0  0
 19 15  1  0  0  0  0
 22 23  1  0  0  0  0
 23 24  1  0  0  0  0
 24 25  1  0  0  0  0
 25 27  1  0  0  0  0
 27 26  1  0  0  0  0
M  END
>  <MODEL>
9

>  <REMARK>
 VINA RESULT:      -6.5      2.378      5.050
  Name = 
  6 active torsions:
  status: ('A' for Active; 'I' for Inactive)
    1  A    between atoms: N_2  and  C_25
    2  A    between atoms: C_6  and  N_14
    3  A    between atoms: C_6  and  C_21
    4  A    between atoms: N_10  and  C_18
    5  A    between atoms: N_14  and  C_15
    6  A    between atoms: C_21  and  C_25
                            x       y       z     vdW  Elec       q    Type
                         _______ _______ _______ _____ _____    ______ ____

>  <TORSDO>
F 6

$$$$
