=
 OpenBabel10222416433D

 45 47  0  0  1  0  0  0  0  0999 V2000
  186.3620  178.0400  141.9290 C   0  0  0  0  0  2  0  0  0  0  0  0
  185.2480  178.3040  146.6280 O   0  0  0  0  0  0  0  0  0  0  0  0
  185.9250  178.1190  144.3800 C   0  0  0  0  0  2  0  0  0  0  0  0
  183.5780  178.3780  141.4260 N   0  0  0  0  0  2  0  0  0  0  0  0
  181.7110  178.8540  143.5080 C   0  0  0  0  0  1  0  0  0  0  0  0
  185.5390  178.7110  143.0230 C   0  0  2  0  0  3  0  0  0  0  0  0
  183.6640  179.2050  145.1320 C   0  0  0  0  0  2  0  0  0  0  0  0
  184.4640  177.9650  140.3390 C   0  0  2  0  0  3  0  0  0  0  0  0
  184.9610  178.5200  145.4620 C   0  0  0  0  0  0  0  0  0  0  0  0
  183.1820  178.8440  143.7560 C   0  0  0  0  0  0  0  0  0  0  0  0
  184.0510  178.5990  142.7610 C   0  0  0  0  0  0  0  0  0  0  0  0
  185.8830  178.4890  140.5510 C   0  0  2  0  0  3  0  0  0  0  0  0
  186.7380  177.9600  139.5420 O   0  0  0  0  0  0  0  0  0  0  0  0
  188.6310  179.2890  139.4890 O   0  0  0  0  0  0  0  0  0  0  0  0
  188.1220  178.1370  139.5560 C   0  0  0  0  0  0  0  0  0  0  0  0
  189.0040  176.9420  139.6430 C   0  0  0  0  0  2  0  0  0  0  0  0
  191.6810  177.7300  140.2080 O   0  0  0  0  0  0  0  0  0  0  0  0
  190.9960  177.2770  141.1630 C   0  0  0  0  0  0  0  0  0  0  0  0
  189.6330  176.8970  140.9550 N   0  0  0  0  0  2  0  0  0  0  0  0
  191.5910  177.1640  142.4600 N   0  0  0  0  0  2  0  0  0  0  0  0
  190.9320  176.5860  143.6280 C   0  0  1  0  0  3  0  0  0  0  0  0
  191.5390  175.2390  143.9820 C   0  0  0  0  0  1  0  0  0  0  0  0
  191.0030  177.5290  144.8220 C   0  0  0  0  0  2  0  0  0  0  0  0
  190.6180  176.8220  146.0440 N   0  0  0  0  0  0  0  0  0  0  0  0
  191.6450  176.9140  147.0910 C   0  0  0  0  0  2  0  0  0  0  0  0
  192.2180  175.5640  147.5130 C   0  0  0  0  0  1  0  0  0  0  0  0
  189.2890  177.2230  146.5340 C   0  0  0  0  0  2  0  0  0  0  0  0
  189.3010  177.8550  147.9280 C   0  0  0  0  0  2  0  0  0  0  0  0
  187.9290  177.7480  148.5650 C   0  0  0  0  0  1  0  0  0  0  0  0
  183.9000  178.3710  138.9670 C   0  0  1  0  0  3  0  0  0  0  0  0
  183.4660  176.0080  138.4670 N   0  0  0  0  0  2  0  0  0  0  0  0
  182.6310  176.0280  136.2250 C   0  0  0  0  0  2  0  0  0  0  0  0
  182.8900  177.3470  138.4360 C   0  0  2  0  0  3  0  0  0  0  0  0
  182.3990  177.7470  136.7220 S   0  0  0  0  0  0  0  0  0  0  0  0
  182.7300  175.2190  137.4990 C   0  0  1  0  0  3  0  0  0  0  0  0
  183.4530  173.9070  137.2550 C   0  0  0  0  0  2  0  0  0  0  0  0
  184.9260  174.0330  137.6160 C   0  0  0  0  0  2  0  0  0  0  0  0
  185.7530  173.6910  136.4700 N   0  0  0  0  0  0  0  0  0  0  0  0
  186.5810  171.8190  135.1730 C   0  0  0  0  0  2  0  0  0  0  0  0
  186.2550  172.3520  136.3470 C   0  0  0  0  0  3  0  0  0  0  0  0
  186.1610  174.7650  135.5700 C   0  0  0  0  0  2  0  0  0  0  0  0
  186.4000  176.0460  136.3540 C   0  0  0  0  0  1  0  0  0  0  0  0
  182.0420  179.9530  139.1590 C   0  0  0  0  0  2  0  0  0  0  0  0
  183.3400  179.7660  138.9740 C   0  0  0  0  0  0  0  0  0  0  0  0
  184.1680  180.8640  138.7680 O   0  0  0  0  0  1  0  0  0  0  0  0
  3  9  1  0  0  0  0
  4 11  1  0  0  0  0
  5 10  1  0  0  0  0
  6  1  1  6  0  0  0
  6  3  1  0  0  0  0
  7  9  1  0  0  0  0
  8 30  1  6  0  0  0
  8 12  1  0  0  0  0
  8  4  1  0  0  0  0
  9  2  2  0  0  0  0
 10  7  1  0  0  0  0
 11  6  1  0  0  0  0
 11 10  2  0  0  0  0
 12 13  1  6  0  0  0
 12  1  1  0  0  0  0
 13 15  1  0  0  0  0
 14 15  2  0  0  0  0
 15 16  1  0  0  0  0
 16 19  1  0  0  0  0
 17 18  2  0  0  0  0
 18 20  1  0  0  0  0
 19 18  1  0  0  0  0
 20 21  1  0  0  0  0
 21 22  1  1  0  0  0
 21 23  1  0  0  0  0
 23 24  1  0  0  0  0
 24 27  1  0  0  0  0
 24 25  1  0  0  0  0
 25 26  1  0  0  0  0
 27 28  1  0  0  0  0
 28 29  1  0  0  0  0
 30 44  1  1  0  0  0
 32 34  1  0  0  0  0
 32 35  1  0  0  0  0
 33 31  1  0  0  0  0
 33 30  1  6  0  0  0
 34 33  1  0  0  0  0
 35 36  1  6  0  0  0
 35 31  1  0  0  0  0
 36 37  1  0  0  0  0
 38 37  1  0  0  0  0
 39 40  2  0  0  0  0
 40 38  1  0  0  0  0
 41 42  1  0  0  0  0
 41 38  1  0  0  0  0
 44 43  2  0  0  0  0
 45 44  1  0  0  0  0
M  END
>  <MODEL>
1

>  <REMARK>
 VINA RESULT:      -7.0      0.000      0.000
  Name = 
  18 active torsions:
  status: ('A' for Active; 'I' for Inactive)
    1  A    between atoms: C_1  and  C_11
    2  A    between atoms: C_1  and  N_14
    3  A    between atoms: C_3  and  C_27
    4  A    between atoms: C_3  and  C_30
    5  A    between atoms: C_3  and  C_33
    6  A    between atoms: C_7  and  C_12
    7  A    between atoms: C_7  and  N_14
    8  A    between atoms: N_10  and  C_18
    9  A    between atoms: C_12  and  N_23
   10  A    between atoms: N_14  and  C_17
   11  A    between atoms: C_15  and  C_24
   12  A    between atoms: C_15  and  C_42
   13  A    between atoms: N_16  and  C_24
   14  A    between atoms: N_16  and  C_26
   15  A    between atoms: N_16  and  C_43
   16  A    between atoms: C_18  and  C_45
   17  A    between atoms: C_38  and  O_41
   18  A    between atoms: O_41  and  C_45
                            x       y       z     vdW  Elec       q    Type
                         _______ _______ _______ _____ _____    ______ ____

>  <TORSDO>
F 18

$$$$
=
 OpenBabel10222416433D

 45 47  0  0  1  0  0  0  0  0999 V2000
  186.4360  178.2850  142.0200 C   0  0  0  0  0  2  0  0  0  0  0  0
  185.2380  178.2460  146.7060 O   0  0  0  0  0  0  0  0  0  0  0  0
  185.9580  178.2130  144.4640 C   0  0  0  0  0  2  0  0  0  0  0  0
  183.6470  178.5240  141.4870 N   0  0  0  0  0  2  0  0  0  0  0  0
  181.7280  178.8040  143.5570 C   0  0  0  0  0  1  0  0  0  0  0  0
  185.5660  178.8580  143.1340 C   0  0  2  0  0  3  0  0  0  0  0  0
  183.6390  179.1540  145.2320 C   0  0  0  0  0  2  0  0  0  0  0  0
  184.5670  178.2110  140.3950 C   0  0  2  0  0  3  0  0  0  0  0  0
  184.9600  178.5110  145.5490 C   0  0  0  0  0  0  0  0  0  0  0  0
  183.1940  178.8470  143.8300 C   0  0  0  0  0  0  0  0  0  0  0  0
  184.0890  178.6950  142.8400 C   0  0  0  0  0  0  0  0  0  0  0  0
  185.9580  178.7860  140.6600 C   0  0  2  0  0  3  0  0  0  0  0  0
  186.8520  178.3500  139.6400 O   0  0  0  0  0  0  0  0  0  0  0  0
  188.9130  179.3940  139.5140 O   0  0  0  0  0  0  0  0  0  0  0  0
  188.2390  178.3650  139.7940 C   0  0  0  0  0  0  0  0  0  0  0  0
  188.9250  177.1420  140.2890 C   0  0  0  0  0  2  0  0  0  0  0  0
  191.7640  177.0020  140.4480 O   0  0  0  0  0  0  0  0  0  0  0  0
  191.1410  177.3450  141.4870 C   0  0  0  0  0  0  0  0  0  0  0  0
  189.7170  177.4700  141.4650 N   0  0  0  0  0  2  0  0  0  0  0  0
  191.8750  177.6250  142.6840 N   0  0  0  0  0  2  0  0  0  0  0  0
  191.2700  177.9590  143.9710 C   0  0  1  0  0  3  0  0  0  0  0  0
  190.8410  179.4150  144.0070 C   0  0  0  0  0  1  0  0  0  0  0  0
  190.0860  177.0500  144.2740 C   0  0  0  0  0  2  0  0  0  0  0  0
  190.1280  176.6190  145.6720 N   0  0  0  0  0  0  0  0  0  0  0  0
  191.4130  176.9300  146.3140 C   0  0  0  0  0  2  0  0  0  0  0  0
  192.1210  175.7110  146.8990 C   0  0  0  0  0  1  0  0  0  0  0  0
  188.9830  177.1150  146.4520 C   0  0  0  0  0  2  0  0  0  0  0  0
  189.3730  177.9140  147.6970 C   0  0  0  0  0  2  0  0  0  0  0  0
  188.2060  177.9850  148.6630 C   0  0  0  0  0  1  0  0  0  0  0  0
  184.0070  178.6640  139.0360 C   0  0  1  0  0  3  0  0  0  0  0  0
  184.7970  176.9140  137.5080 N   0  0  0  0  0  2  0  0  0  0  0  0
  183.3630  177.1120  135.6020 C   0  0  0  0  0  2  0  0  0  0  0  0
  183.6150  177.4750  138.1520 C   0  0  2  0  0  3  0  0  0  0  0  0
  182.4200  177.9860  136.8680 S   0  0  0  0  0  0  0  0  0  0  0  0
  184.3290  176.2070  136.3330 C   0  0  1  0  0  3  0  0  0  0  0  0
  185.5110  175.8490  135.4490 C   0  0  0  0  0  2  0  0  0  0  0  0
  186.5330  175.0330  136.2270 C   0  0  0  0  0  2  0  0  0  0  0  0
  187.8680  175.5720  136.0170 N   0  0  0  0  0  0  0  0  0  0  0  0
  189.0350  177.6850  136.2270 C   0  0  0  0  0  2  0  0  0  0  0  0
  188.0200  176.9730  135.7470 C   0  0  0  0  0  3  0  0  0  0  0  0
  188.9840  174.6360  135.9430 C   0  0  0  0  0  2  0  0  0  0  0  0
  188.6980  173.4060  136.7920 C   0  0  0  0  0  1  0  0  0  0  0  0
  181.7060  179.2440  139.6370 C   0  0  0  0  0  2  0  0  0  0  0  0
  182.8830  179.6510  139.1880 C   0  0  0  0  0  0  0  0  0  0  0  0
  183.0600  180.9860  138.8420 O   0  0  0  0  0  1  0  0  0  0  0  0
  3  9  1  0  0  0  0
  4 11  1  0  0  0  0
  5 10  1  0  0  0  0
  6  1  1  6  0  0  0
  6  3  1  0  0  0  0
  7  9  1  0  0  0  0
  8 30  1  6  0  0  0
  8 12  1  0  0  0  0
  8  4  1  0  0  0  0
  9  2  2  0  0  0  0
 10  7  1  0  0  0  0
 11  6  1  0  0  0  0
 11 10  2  0  0  0  0
 12 13  1  6  0  0  0
 12  1  1  0  0  0  0
 13 15  1  0  0  0  0
 14 15  2  0  0  0  0
 15 16  1  0  0  0  0
 16 19  1  0  0  0  0
 17 18  2  0  0  0  0
 18 20  1  0  0  0  0
 19 18  1  0  0  0  0
 20 21  1  0  0  0  0
 21 22  1  6  0  0  0
 21 23  1  0  0  0  0
 23 24  1  0  0  0  0
 24 25  1  0  0  0  0
 24 27  1  0  0  0  0
 25 26  1  0  0  0  0
 27 28  1  0  0  0  0
 28 29  1  0  0  0  0
 30 44  1  1  0  0  0
 31 33  1  0  0  0  0
 32 35  1  0  0  0  0
 32 34  1  0  0  0  0
 33 30  1  6  0  0  0
 34 33  1  0  0  0  0
 35 36  1  6  0  0  0
 35 31  1  0  0  0  0
 36 37  1  0  0  0  0
 38 37  1  0  0  0  0
 40 38  1  0  0  0  0
 40 39  2  0  0  0  0
 41 38  1  0  0  0  0
 41 42  1  0  0  0  0
 44 43  2  0  0  0  0
 45 44  1  0  0  0  0
M  END
>  <MODEL>
2

>  <REMARK>
 VINA RESULT:      -6.8      1.205      1.836
  Name = 
  18 active torsions:
  status: ('A' for Active; 'I' for Inactive)
    1  A    between atoms: C_1  and  C_11
    2  A    between atoms: C_1  and  N_14
    3  A    between atoms: C_3  and  C_27
    4  A    between atoms: C_3  and  C_30
    5  A    between atoms: C_3  and  C_33
    6  A    between atoms: C_7  and  C_12
    7  A    between atoms: C_7  and  N_14
    8  A    between atoms: N_10  and  C_18
    9  A    between atoms: C_12  and  N_23
   10  A    between atoms: N_14  and  C_17
   11  A    between atoms: C_15  and  C_24
   12  A    between atoms: C_15  and  C_42
   13  A    between atoms: N_16  and  C_24
   14  A    between atoms: N_16  and  C_26
   15  A    between atoms: N_16  and  C_43
   16  A    between atoms: C_18  and  C_45
   17  A    between atoms: C_38  and  O_41
   18  A    between atoms: O_41  and  C_45
                            x       y       z     vdW  Elec       q    Type
                         _______ _______ _______ _____ _____    ______ ____

>  <TORSDO>
F 18

$$$$
=
 OpenBabel10222416433D

 45 47  0  0  1  0  0  0  0  0999 V2000
  186.4050  178.2890  141.5890 C   0  0  0  0  0  2  0  0  0  0  0  0
  185.3040  178.4020  146.2980 O   0  0  0  0  0  0  0  0  0  0  0  0
  185.9780  178.2980  144.0430 C   0  0  0  0  0  2  0  0  0  0  0  0
  183.6030  178.4790  141.1060 N   0  0  0  0  0  2  0  0  0  0  0  0
  181.7240  178.8110  143.2050 C   0  0  0  0  0  1  0  0  0  0  0  0
  185.5520  178.8920  142.7000 C   0  0  2  0  0  3  0  0  0  0  0  0
  183.6640  179.2400  144.8270 C   0  0  0  0  0  2  0  0  0  0  0  0
  184.5040  178.1380  140.0070 C   0  0  2  0  0  3  0  0  0  0  0  0
  184.9990  178.6230  145.1380 C   0  0  0  0  0  0  0  0  0  0  0  0
  183.1950  178.8790  143.4470 C   0  0  0  0  0  0  0  0  0  0  0  0
  184.0710  178.7020  142.4440 C   0  0  0  0  0  0  0  0  0  0  0  0
  185.8940  178.7360  140.2230 C   0  0  2  0  0  3  0  0  0  0  0  0
  186.7710  178.2750  139.2000 O   0  0  0  0  0  0  0  0  0  0  0  0
  188.8060  179.3680  139.0890 O   0  0  0  0  0  0  0  0  0  0  0  0
  188.1600  178.3110  139.3240 C   0  0  0  0  0  0  0  0  0  0  0  0
  188.8830  177.0760  139.7320 C   0  0  0  0  0  2  0  0  0  0  0  0
  191.7280  177.0380  139.8020 O   0  0  0  0  0  0  0  0  0  0  0  0
  191.1250  177.2850  140.8790 C   0  0  0  0  0  0  0  0  0  0  0  0
  189.6970  177.3550  140.9060 N   0  0  0  0  0  2  0  0  0  0  0  0
  191.8840  177.5110  142.0720 N   0  0  0  0  0  2  0  0  0  0  0  0
  191.3060  177.7310  143.3950 C   0  0  1  0  0  3  0  0  0  0  0  0
  190.6760  179.1100  143.4890 C   0  0  0  0  0  1  0  0  0  0  0  0
  190.2810  176.6570  143.7340 C   0  0  0  0  0  2  0  0  0  0  0  0
  190.1800  176.4990  145.1860 N   0  0  0  0  0  0  0  0  0  0  0  0
  191.3880  176.9610  145.8840 C   0  0  0  0  0  2  0  0  0  0  0  0
  192.0810  175.8740  146.7010 C   0  0  0  0  0  1  0  0  0  0  0  0
  188.9560  177.1020  145.7360 C   0  0  0  0  0  2  0  0  0  0  0  0
  189.1730  177.8840  147.0340 C   0  0  0  0  0  2  0  0  0  0  0  0
  188.2650  177.3510  148.1260 C   0  0  0  0  0  1  0  0  0  0  0  0
  183.9100  178.5370  138.6460 C   0  0  1  0  0  3  0  0  0  0  0  0
  183.7510  176.0940  138.4680 N   0  0  0  0  0  2  0  0  0  0  0  0
  183.9520  175.6650  136.1230 C   0  0  0  0  0  2  0  0  0  0  0  0
  183.2320  177.3530  137.9460 C   0  0  2  0  0  3  0  0  0  0  0  0
  183.5150  177.4150  136.1430 S   0  0  0  0  0  0  0  0  0  0  0  0
  183.5050  175.0930  137.4500 C   0  0  1  0  0  3  0  0  0  0  0  0
  184.2750  173.8270  137.7820 C   0  0  0  0  0  2  0  0  0  0  0  0
  185.1520  173.4120  136.6110 C   0  0  0  0  0  2  0  0  0  0  0  0
  184.8660  172.0370  136.2340 N   0  0  0  0  0  0  0  0  0  0  0  0
  182.9160  170.6080  136.0610 C   0  0  0  0  0  2  0  0  0  0  0  0
  183.7110  171.3890  136.7870 C   0  0  0  0  0  3  0  0  0  0  0  0
  185.8490  171.3250  135.4240 C   0  0  0  0  0  2  0  0  0  0  0  0
  187.1570  172.1010  135.3810 C   0  0  0  0  0  1  0  0  0  0  0  0
  181.6890  179.5640  138.6660 C   0  0  0  0  0  2  0  0  0  0  0  0
  183.0000  179.7290  138.7520 C   0  0  0  0  0  0  0  0  0  0  0  0
  183.5210  181.0060  138.9190 O   0  0  0  0  0  1  0  0  0  0  0  0
  3  9  1  0  0  0  0
  4 11  1  0  0  0  0
  5 10  1  0  0  0  0
  6  1  1  6  0  0  0
  6  3  1  0  0  0  0
  7  9  1  0  0  0  0
  8 30  1  6  0  0  0
  8 12  1  0  0  0  0
  8  4  1  0  0  0  0
  9  2  2  0  0  0  0
 10  7  1  0  0  0  0
 11  6  1  0  0  0  0
 11 10  2  0  0  0  0
 12 13  1  6  0  0  0
 12  1  1  0  0  0  0
 13 15  1  0  0  0  0
 14 15  2  0  0  0  0
 15 16  1  0  0  0  0
 16 19  1  0  0  0  0
 17 18  2  0  0  0  0
 18 19  1  0  0  0  0
 18 20  1  0  0  0  0
 20 21  1  0  0  0  0
 21 22  1  6  0  0  0
 21 23  1  0  0  0  0
 23 24  1  0  0  0  0
 24 27  1  0  0  0  0
 24 25  1  0  0  0  0
 25 26  1  0  0  0  0
 27 28  1  0  0  0  0
 28 29  1  0  0  0  0
 30 44  1  1  0  0  0
 32 34  1  0  0  0  0
 32 35  1  0  0  0  0
 33 31  1  0  0  0  0
 33 30  1  1  0  0  0
 34 33  1  0  0  0  0
 35 36  1  1  0  0  0
 35 31  1  0  0  0  0
 37 36  1  0  0  0  0
 38 37  1  0  0  0  0
 38 40  1  0  0  0  0
 39 40  2  0  0  0  0
 41 38  1  0  0  0  0
 42 41  1  0  0  0  0
 43 44  2  0  0  0  0
 44 45  1  0  0  0  0
M  END
>  <MODEL>
3

>  <REMARK>
 VINA RESULT:      -6.8      1.021      1.437
  Name = 
  18 active torsions:
  status: ('A' for Active; 'I' for Inactive)
    1  A    between atoms: C_1  and  C_11
    2  A    between atoms: C_1  and  N_14
    3  A    between atoms: C_3  and  C_27
    4  A    between atoms: C_3  and  C_30
    5  A    between atoms: C_3  and  C_33
    6  A    between atoms: C_7  and  C_12
    7  A    between atoms: C_7  and  N_14
    8  A    between atoms: N_10  and  C_18
    9  A    between atoms: C_12  and  N_23
   10  A    between atoms: N_14  and  C_17
   11  A    between atoms: C_15  and  C_24
   12  A    between atoms: C_15  and  C_42
   13  A    between atoms: N_16  and  C_24
   14  A    between atoms: N_16  and  C_26
   15  A    between atoms: N_16  and  C_43
   16  A    between atoms: C_18  and  C_45
   17  A    between atoms: C_38  and  O_41
   18  A    between atoms: O_41  and  C_45
                            x       y       z     vdW  Elec       q    Type
                         _______ _______ _______ _____ _____    ______ ____

>  <TORSDO>
F 18

$$$$
=
 OpenBabel10222416433D

 45 47  0  0  1  0  0  0  0  0999 V2000
  185.3150  178.7450  140.5600 C   0  0  0  0  0  2  0  0  0  0  0  0
  186.0130  178.0980  145.3020 O   0  0  0  0  0  0  0  0  0  0  0  0
  185.8180  178.3720  142.9710 C   0  0  0  0  0  2  0  0  0  0  0  0
  182.5260  178.7350  141.1440 N   0  0  0  0  0  2  0  0  0  0  0  0
  181.5360  178.5940  143.7990 C   0  0  0  0  0  1  0  0  0  0  0  0
  184.9070  179.1040  141.9840 C   0  0  2  0  0  3  0  0  0  0  0  0
  183.9180  178.9750  144.6700 C   0  0  0  0  0  2  0  0  0  0  0  0
  182.9740  178.6360  139.7560 C   0  0  2  0  0  3  0  0  0  0  0  0
  185.2960  178.4490  144.3800 C   0  0  0  0  0  0  0  0  0  0  0  0
  182.9890  178.7660  143.5080 C   0  0  0  0  0  0  0  0  0  0  0  0
  183.4430  178.8130  142.2440 C   0  0  0  0  0  0  0  0  0  0  0  0
  184.3220  179.3270  139.5580 C   0  0  2  0  0  3  0  0  0  0  0  0
  184.7800  179.0980  138.2290 O   0  0  0  0  0  0  0  0  0  0  0  0
  184.9820  176.7950  138.1470 O   0  0  0  0  0  0  0  0  0  0  0  0
  185.4440  177.9300  137.8500 C   0  0  0  0  0  0  0  0  0  0  0  0
  186.7200  178.0350  137.0930 C   0  0  0  0  0  2  0  0  0  0  0  0
  188.8920  179.7190  137.8360 O   0  0  0  0  0  0  0  0  0  0  0  0
  188.9070  178.5320  138.2580 C   0  0  0  0  0  0  0  0  0  0  0  0
  187.8280  177.6450  137.9510 N   0  0  0  0  0  2  0  0  0  0  0  0
  190.0050  178.0880  139.0610 N   0  0  0  0  0  2  0  0  0  0  0  0
  190.1800  176.7220  139.5480 C   0  0  1  0  0  3  0  0  0  0  0  0
  191.0640  175.9200  138.6090 C   0  0  0  0  0  1  0  0  0  0  0  0
  190.7560  176.7100  140.9570 C   0  0  0  0  0  2  0  0  0  0  0  0
  189.6800  176.8280  141.9420 N   0  0  0  0  0  0  0  0  0  0  0  0
  189.8490  175.9020  143.0700 C   0  0  0  0  0  2  0  0  0  0  0  0
  191.3060  175.5750  143.3860 C   0  0  0  0  0  1  0  0  0  0  0  0
  189.4730  178.2150  142.3890 C   0  0  0  0  0  2  0  0  0  0  0  0
  189.7500  178.4400  143.8780 C   0  0  0  0  0  2  0  0  0  0  0  0
  191.0350  179.2250  144.0610 C   0  0  0  0  0  1  0  0  0  0  0  0
  181.9080  179.1630  138.7800 C   0  0  1  0  0  3  0  0  0  0  0  0
  181.6640  176.7400  138.4780 N   0  0  0  0  0  2  0  0  0  0  0  0
  182.2690  176.3720  136.1920 C   0  0  0  0  0  2  0  0  0  0  0  0
  181.3120  178.0410  137.9220 C   0  0  2  0  0  3  0  0  0  0  0  0
  181.9230  178.1430  136.2040 S   0  0  0  0  0  0  0  0  0  0  0  0
  181.5590  175.7860  137.3920 C   0  0  1  0  0  3  0  0  0  0  0  0
  182.1920  174.4690  137.8070 C   0  0  0  0  0  2  0  0  0  0  0  0
  183.0120  173.8870  136.6650 C   0  0  0  0  0  2  0  0  0  0  0  0
  183.8280  172.7830  137.1460 N   0  0  0  0  0  0  0  0  0  0  0  0
  186.2190  173.1400  137.3010 C   0  0  0  0  0  2  0  0  0  0  0  0
  185.0260  173.0720  137.8820 C   0  0  0  0  0  3  0  0  0  0  0  0
  183.4710  171.4310  136.7310 C   0  0  0  0  0  2  0  0  0  0  0  0
  183.6800  171.2680  135.2330 C   0  0  0  0  0  1  0  0  0  0  0  0
  180.7790  181.2750  139.2870 C   0  0  0  0  0  2  0  0  0  0  0  0
  180.8470  179.9660  139.4790 C   0  0  0  0  0  0  0  0  0  0  0  0
  179.9460  179.3520  140.3420 O   0  0  0  0  0  1  0  0  0  0  0  0
  3  9  1  0  0  0  0
  4 11  1  0  0  0  0
  6  1  1  6  0  0  0
  6 11  1  0  0  0  0
  6  3  1  0  0  0  0
  8 30  1  6  0  0  0
  8  4  1  0  0  0  0
  9  7  1  0  0  0  0
  9  2  2  0  0  0  0
 10  5  1  0  0  0  0
 10  7  1  0  0  0  0
 11 10  2  0  0  0  0
 12 13  1  6  0  0  0
 12  8  1  0  0  0  0
 12  1  1  0  0  0  0
 15 14  2  0  0  0  0
 15 13  1  0  0  0  0
 16 15  1  0  0  0  0
 16 19  1  0  0  0  0
 17 18  2  0  0  0  0
 18 20  1  0  0  0  0
 19 18  1  0  0  0  0
 20 21  1  0  0  0  0
 21 22  1  6  0  0  0
 21 23  1  0  0  0  0
 23 24  1  0  0  0  0
 24 27  1  0  0  0  0
 24 25  1  0  0  0  0
 25 26  1  0  0  0  0
 27 28  1  0  0  0  0
 28 29  1  0  0  0  0
 30 44  1  1  0  0  0
 32 34  1  0  0  0  0
 32 35  1  0  0  0  0
 33 31  1  0  0  0  0
 33 30  1  1  0  0  0
 34 33  1  0  0  0  0
 35 36  1  1  0  0  0
 35 31  1  0  0  0  0
 37 38  1  0  0  0  0
 37 36  1  0  0  0  0
 38 40  1  0  0  0  0
 39 40  2  0  0  0  0
 41 38  1  0  0  0  0
 42 41  1  0  0  0  0
 43 44  2  0  0  0  0
 44 45  1  0  0  0  0
M  END
>  <MODEL>
4

>  <REMARK>
 VINA RESULT:      -6.5      2.074      3.118
  Name = 
  18 active torsions:
  status: ('A' for Active; 'I' for Inactive)
    1  A    between atoms: C_1  and  C_11
    2  A    between atoms: C_1  and  N_14
    3  A    between atoms: C_3  and  C_27
    4  A    between atoms: C_3  and  C_30
    5  A    between atoms: C_3  and  C_33
    6  A    between atoms: C_7  and  C_12
    7  A    between atoms: C_7  and  N_14
    8  A    between atoms: N_10  and  C_18
    9  A    between atoms: C_12  and  N_23
   10  A    between atoms: N_14  and  C_17
   11  A    between atoms: C_15  and  C_24
   12  A    between atoms: C_15  and  C_42
   13  A    between atoms: N_16  and  C_24
   14  A    between atoms: N_16  and  C_26
   15  A    between atoms: N_16  and  C_43
   16  A    between atoms: C_18  and  C_45
   17  A    between atoms: C_38  and  O_41
   18  A    between atoms: O_41  and  C_45
                            x       y       z     vdW  Elec       q    Type
                         _______ _______ _______ _____ _____    ______ ____

>  <TORSDO>
F 18

$$$$
=
 OpenBabel10222416433D

 45 47  0  0  1  0  0  0  0  0999 V2000
  187.7240  177.8530  140.7850 C   0  0  0  0  0  2  0  0  0  0  0  0
  191.1180  176.0270  143.7070 O   0  0  0  0  0  0  0  0  0  0  0  0
  189.5470  176.8680  142.1670 C   0  0  0  0  0  2  0  0  0  0  0  0
  186.0530  177.9820  143.0910 N   0  0  0  0  0  2  0  0  0  0  0  0
  186.9940  177.3110  145.6810 C   0  0  0  0  0  1  0  0  0  0  0  0
  188.4200  177.9010  142.1410 C   0  0  2  0  0  3  0  0  0  0  0  0
  189.3850  177.2330  144.7540 C   0  0  0  0  0  2  0  0  0  0  0  0
  185.4700  178.1730  141.7640 C   0  0  2  0  0  3  0  0  0  0  0  0
  190.0850  176.6570  143.5560 C   0  0  0  0  0  0  0  0  0  0  0  0
  187.9120  177.4010  144.5090 C   0  0  0  0  0  0  0  0  0  0  0  0
  187.4470  177.7030  143.2850 C   0  0  0  0  0  0  0  0  0  0  0  0
  186.4920  178.7540  140.7870 C   0  0  2  0  0  3  0  0  0  0  0  0
  185.9230  178.8030  139.4820 O   0  0  0  0  0  0  0  0  0  0  0  0
  187.7250  178.8680  138.0340 O   0  0  0  0  0  0  0  0  0  0  0  0
  186.6070  178.3750  138.3440 C   0  0  0  0  0  0  0  0  0  0  0  0
  185.9940  177.3280  137.4830 C   0  0  0  0  0  2  0  0  0  0  0  0
  186.8690  176.3970  134.9380 O   0  0  0  0  0  0  0  0  0  0  0  0
  187.3250  175.8140  135.9580 C   0  0  0  0  0  0  0  0  0  0  0  0
  186.9540  176.2550  137.2660 N   0  0  0  0  0  2  0  0  0  0  0  0
  188.2290  174.7170  135.7910 N   0  0  0  0  0  2  0  0  0  0  0  0
  188.7670  173.9110  136.8840 C   0  0  1  0  0  3  0  0  0  0  0  0
  188.0120  172.5990  137.0130 C   0  0  0  0  0  1  0  0  0  0  0  0
  190.2550  173.6480  136.6930 C   0  0  0  0  0  2  0  0  0  0  0  0
  191.0310  174.8090  137.1330 N   0  0  0  0  0  0  0  0  0  0  0  0
  190.3580  175.5580  138.2030 C   0  0  0  0  0  2  0  0  0  0  0  0
  190.7380  177.0360  138.2540 C   0  0  0  0  0  1  0  0  0  0  0  0
  192.4170  174.4620  137.4850 C   0  0  0  0  0  2  0  0  0  0  0  0
  193.4250  174.6930  136.3570 C   0  0  0  0  0  2  0  0  0  0  0  0
  193.6920  176.1760  136.1870 C   0  0  0  0  0  1  0  0  0  0  0  0
  184.1880  179.0210  141.8280 C   0  0  1  0  0  3  0  0  0  0  0  0
  183.4200  177.0500  140.5830 N   0  0  0  0  0  2  0  0  0  0  0  0
  182.5560  177.9490  138.5410 C   0  0  0  0  0  2  0  0  0  0  0  0
  183.0360  178.3780  141.0470 C   0  0  2  0  0  3  0  0  0  0  0  0
  182.5750  179.4050  139.6070 S   0  0  0  0  0  0  0  0  0  0  0  0
  182.5640  176.7440  139.4540 C   0  0  1  0  0  3  0  0  0  0  0  0
  183.0920  175.5180  138.7310 C   0  0  0  0  0  2  0  0  0  0  0  0
  182.4040  175.3540  137.3840 C   0  0  0  0  0  2  0  0  0  0  0  0
  183.3010  174.7070  136.4390 N   0  0  0  0  0  0  0  0  0  0  0  0
  184.0320  172.4340  136.8480 C   0  0  0  0  0  2  0  0  0  0  0  0
  184.2470  173.7440  136.9250 C   0  0  0  0  0  3  0  0  0  0  0  0
  183.3010  175.1760  135.0580 C   0  0  0  0  0  2  0  0  0  0  0  0
  183.3090  176.6970  135.0180 C   0  0  0  0  0  1  0  0  0  0  0  0
  182.6870  178.8450  143.7530 C   0  0  0  0  0  2  0  0  0  0  0  0
  183.7980  179.3530  143.2410 C   0  0  0  0  0  0  0  0  0  0  0  0
  184.5810  180.2040  144.0120 O   0  0  0  0  0  1  0  0  0  0  0  0
  1 12  1  0  0  0  0
  3  9  1  0  0  0  0
  4 11  1  0  0  0  0
  6  1  1  6  0  0  0
  6  3  1  0  0  0  0
  6 11  1  0  0  0  0
  8 30  1  1  0  0  0
  8  4  1  0  0  0  0
  9  2  2  0  0  0  0
  9  7  1  0  0  0  0
 10  7  1  0  0  0  0
 10  5  1  0  0  0  0
 11 10  2  0  0  0  0
 12 13  1  6  0  0  0
 12  8  1  0  0  0  0
 14 15  2  0  0  0  0
 15 13  1  0  0  0  0
 16 15  1  0  0  0  0
 17 18  2  0  0  0  0
 18 19  1  0  0  0  0
 19 16  1  0  0  0  0
 20 18  1  0  0  0  0
 20 21  1  0  0  0  0
 21 22  1  6  0  0  0
 23 21  1  0  0  0  0
 23 24  1  0  0  0  0
 24 27  1  0  0  0  0
 24 25  1  0  0  0  0
 25 26  1  0  0  0  0
 28 27  1  0  0  0  0
 29 28  1  0  0  0  0
 30 44  1  1  0  0  0
 31 33  1  0  0  0  0
 32 35  1  0  0  0  0
 32 34  1  0  0  0  0
 33 30  1  6  0  0  0
 34 33  1  0  0  0  0
 35 36  1  6  0  0  0
 35 31  1  0  0  0  0
 37 36  1  0  0  0  0
 38 40  1  0  0  0  0
 38 37  1  0  0  0  0
 39 40  2  0  0  0  0
 41 38  1  0  0  0  0
 42 41  1  0  0  0  0
 44 43  2  0  0  0  0
 44 45  1  0  0  0  0
M  END
>  <MODEL>
5

>  <REMARK>
 VINA RESULT:      -6.2      2.594      5.818
  Name = 
  18 active torsions:
  status: ('A' for Active; 'I' for Inactive)
    1  A    between atoms: C_1  and  C_11
    2  A    between atoms: C_1  and  N_14
    3  A    between atoms: C_3  and  C_27
    4  A    between atoms: C_3  and  C_30
    5  A    between atoms: C_3  and  C_33
    6  A    between atoms: C_7  and  C_12
    7  A    between atoms: C_7  and  N_14
    8  A    between atoms: N_10  and  C_18
    9  A    between atoms: C_12  and  N_23
   10  A    between atoms: N_14  and  C_17
   11  A    between atoms: C_15  and  C_24
   12  A    between atoms: C_15  and  C_42
   13  A    between atoms: N_16  and  C_24
   14  A    between atoms: N_16  and  C_26
   15  A    between atoms: N_16  and  C_43
   16  A    between atoms: C_18  and  C_45
   17  A    between atoms: C_38  and  O_41
   18  A    between atoms: O_41  and  C_45
                            x       y       z     vdW  Elec       q    Type
                         _______ _______ _______ _____ _____    ______ ____

>  <TORSDO>
F 18

$$$$
=
 OpenBabel10222416433D

 45 47  0  0  1  0  0  0  0  0999 V2000
  190.0430  177.5040  138.8430 C   0  0  0  0  0  2  0  0  0  0  0  0
  194.4780  175.8080  137.9230 O   0  0  0  0  0  0  0  0  0  0  0  0
  192.3830  176.7620  138.4210 C   0  0  0  0  0  2  0  0  0  0  0  0
  189.0800  175.3950  137.1860 N   0  0  0  0  0  2  0  0  0  0  0  0
  190.8030  173.4310  136.0820 C   0  0  0  0  0  1  0  0  0  0  0  0
  190.9500  176.2900  138.6730 C   0  0  2  0  0  3  0  0  0  0  0  0
  192.6970  174.3040  137.5740 C   0  0  0  0  0  2  0  0  0  0  0  0
  188.1760  176.4730  137.5830 C   0  0  2  0  0  3  0  0  0  0  0  0
  193.2710  175.6380  137.9610 C   0  0  0  0  0  0  0  0  0  0  0  0
  191.2850  174.4310  137.0790 C   0  0  0  0  0  0  0  0  0  0  0  0
  190.4590  175.3650  137.5780 C   0  0  0  0  0  0  0  0  0  0  0  0
  188.5830  177.0710  138.9300 C   0  0  2  0  0  3  0  0  0  0  0  0
  187.7570  178.1950  139.2170 O   0  0  0  0  0  0  0  0  0  0  0  0
  188.4510  178.9510  141.2890 O   0  0  0  0  0  0  0  0  0  0  0  0
  187.5060  178.6350  140.5170 C   0  0  0  0  0  0  0  0  0  0  0  0
  186.1000  178.7210  140.9930 C   0  0  0  0  0  2  0  0  0  0  0  0
  183.7900  178.1080  142.5410 O   0  0  0  0  0  0  0  0  0  0  0  0
  184.8640  178.3200  143.1620 C   0  0  0  0  0  0  0  0  0  0  0  0
  186.0690  178.5980  142.4430 N   0  0  0  0  0  2  0  0  0  0  0  0
  184.8700  178.2640  144.5920 N   0  0  0  0  0  2  0  0  0  0  0  0
  186.0270  178.5640  145.4310 C   0  0  1  0  0  3  0  0  0  0  0  0
  185.5910  179.0220  146.8120 C   0  0  0  0  0  1  0  0  0  0  0  0
  186.9540  177.3600  145.5410 C   0  0  0  0  0  2  0  0  0  0  0  0
  188.3440  177.8050  145.6590 N   0  0  0  0  0  0  0  0  0  0  0  0
  189.0520  177.1380  146.7600 C   0  0  0  0  0  2  0  0  0  0  0  0
  188.6880  177.6740  148.1410 C   0  0  0  0  0  1  0  0  0  0  0  0
  189.0770  177.7090  144.3870 C   0  0  0  0  0  2  0  0  0  0  0  0
  188.7680  176.4460  143.5800 C   0  0  0  0  0  2  0  0  0  0  0  0
  190.0100  175.9700  142.8520 C   0  0  0  0  0  1  0  0  0  0  0  0
  186.7090  176.0090  137.5800 C   0  0  1  0  0  3  0  0  0  0  0  0
  184.5580  177.1170  137.9850 N   0  0  0  0  0  2  0  0  0  0  0  0
  183.5340  177.2150  135.8250 C   0  0  0  0  0  2  0  0  0  0  0  0
  185.7540  177.1290  137.1520 C   0  0  2  0  0  3  0  0  0  0  0  0
  185.2650  176.9320  135.4020 S   0  0  0  0  0  0  0  0  0  0  0  0
  183.5190  177.7840  137.2260 C   0  0  1  0  0  3  0  0  0  0  0  0
  182.1730  177.5540  137.8910 C   0  0  0  0  0  2  0  0  0  0  0  0
  181.4100  176.4450  137.1830 C   0  0  0  0  0  2  0  0  0  0  0  0
  181.1490  175.3500  138.1030 N   0  0  0  0  0  0  0  0  0  0  0  0
  179.9310  175.3690  140.1980 C   0  0  0  0  0  2  0  0  0  0  0  0
  181.0360  175.6310  139.5060 C   0  0  0  0  0  3  0  0  0  0  0  0
  181.1610  173.9890  137.5770 C   0  0  0  0  0  2  0  0  0  0  0  0
  182.3100  173.8140  136.5950 C   0  0  0  0  0  1  0  0  0  0  0  0
  185.8310  173.7430  137.2820 C   0  0  0  0  0  2  0  0  0  0  0  0
  186.5130  174.7570  136.7710 C   0  0  0  0  0  0  0  0  0  0  0  0
  187.0560  174.6440  135.4960 O   0  0  0  0  0  1  0  0  0  0  0  0
  1 12  1  0  0  0  0
  2  9  2  0  0  0  0
  4 11  1  0  0  0  0
  4  8  1  0  0  0  0
  5 10  1  0  0  0  0
  6  3  1  6  0  0  0
  6  1  1  0  0  0  0
  7  9  1  0  0  0  0
  8 30  1  1  0  0  0
  8 12  1  0  0  0  0
  9  3  1  0  0  0  0
 10  7  1  0  0  0  0
 10 11  2  0  0  0  0
 11  6  1  0  0  0  0
 12 13  1  6  0  0  0
 13 15  1  0  0  0  0
 15 16  1  0  0  0  0
 15 14  2  0  0  0  0
 16 19  1  0  0  0  0
 17 18  2  0  0  0  0
 18 20  1  0  0  0  0
 19 18  1  0  0  0  0
 20 21  1  0  0  0  0
 21 23  1  0  0  0  0
 21 22  1  1  0  0  0
 23 24  1  0  0  0  0
 24 25  1  0  0  0  0
 25 26  1  0  0  0  0
 27 24  1  0  0  0  0
 28 27  1  0  0  0  0
 29 28  1  0  0  0  0
 30 44  1  6  0  0  0
 32 35  1  0  0  0  0
 33 30  1  1  0  0  0
 33 31  1  0  0  0  0
 34 32  1  0  0  0  0
 34 33  1  0  0  0  0
 35 36  1  1  0  0  0
 35 31  1  0  0  0  0
 37 36  1  0  0  0  0
 37 38  1  0  0  0  0
 38 40  1  0  0  0  0
 40 39  2  0  0  0  0
 41 38  1  0  0  0  0
 42 41  1  0  0  0  0
 44 43  2  0  0  0  0
 45 44  1  0  0  0  0
M  END
>  <MODEL>
6

>  <REMARK>
 VINA RESULT:      -6.1      2.587      6.555
  Name = 
  18 active torsions:
  status: ('A' for Active; 'I' for Inactive)
    1  A    between atoms: C_1  and  C_11
    2  A    between atoms: C_1  and  N_14
    3  A    between atoms: C_3  and  C_27
    4  A    between atoms: C_3  and  C_30
    5  A    between atoms: C_3  and  C_33
    6  A    between atoms: C_7  and  C_12
    7  A    between atoms: C_7  and  N_14
    8  A    between atoms: N_10  and  C_18
    9  A    between atoms: C_12  and  N_23
   10  A    between atoms: N_14  and  C_17
   11  A    between atoms: C_15  and  C_24
   12  A    between atoms: C_15  and  C_42
   13  A    between atoms: N_16  and  C_24
   14  A    between atoms: N_16  and  C_26
   15  A    between atoms: N_16  and  C_43
   16  A    between atoms: C_18  and  C_45
   17  A    between atoms: C_38  and  O_41
   18  A    between atoms: O_41  and  C_45
                            x       y       z     vdW  Elec       q    Type
                         _______ _______ _______ _____ _____    ______ ____

>  <TORSDO>
F 18

$$$$
=
 OpenBabel10222416433D

 45 47  0  0  1  0  0  0  0  0999 V2000
  189.0550  177.4930  141.0430 C   0  0  0  0  0  2  0  0  0  0  0  0
  192.0570  175.6690  144.3670 O   0  0  0  0  0  0  0  0  0  0  0  0
  190.6820  176.4930  142.6420 C   0  0  0  0  0  2  0  0  0  0  0  0
  187.2330  177.9460  143.1860 N   0  0  0  0  0  2  0  0  0  0  0  0
  187.9180  177.4290  145.8900 C   0  0  0  0  0  1  0  0  0  0  0  0
  189.6490  177.6030  142.4430 C   0  0  2  0  0  3  0  0  0  0  0  0
  190.3570  177.0900  145.1710 C   0  0  0  0  0  2  0  0  0  0  0  0
  186.7690  178.0660  141.8050 C   0  0  2  0  0  3  0  0  0  0  0  0
  191.0940  176.3610  144.0830 C   0  0  0  0  0  0  0  0  0  0  0  0
  188.9250  177.3480  144.7930 C   0  0  0  0  0  0  0  0  0  0  0  0
  188.5800  177.5790  143.5150 C   0  0  0  0  0  0  0  0  0  0  0  0
  187.9050  178.4820  140.8720 C   0  0  2  0  0  3  0  0  0  0  0  0
  187.4420  178.4630  139.5250 O   0  0  0  0  0  0  0  0  0  0  0  0
  188.9930  179.2980  138.0260 O   0  0  0  0  0  0  0  0  0  0  0  0
  188.3010  178.3260  138.4340 C   0  0  0  0  0  0  0  0  0  0  0  0
  188.3870  177.0130  137.7400 C   0  0  0  0  0  2  0  0  0  0  0  0
  187.3330  177.8790  135.2420 O   0  0  0  0  0  0  0  0  0  0  0  0
  186.5970  177.1540  135.9620 C   0  0  0  0  0  0  0  0  0  0  0  0
  187.0790  176.6550  137.2120 N   0  0  0  0  0  2  0  0  0  0  0  0
  185.2810  176.8210  135.5070 N   0  0  0  0  0  2  0  0  0  0  0  0
  184.3050  176.0550  136.2770 C   0  0  1  0  0  3  0  0  0  0  0  0
  183.0890  176.9030  136.6080 C   0  0  0  0  0  1  0  0  0  0  0  0
  183.8840  174.7950  135.5330 C   0  0  0  0  0  2  0  0  0  0  0  0
  183.9120  173.6440  136.4370 N   0  0  0  0  0  0  0  0  0  0  0  0
  184.7970  173.8600  137.5900 C   0  0  0  0  0  2  0  0  0  0  0  0
  186.0600  173.0020  137.5660 C   0  0  0  0  0  1  0  0  0  0  0  0
  182.5650  173.2130  136.8450 C   0  0  0  0  0  2  0  0  0  0  0  0
  182.3710  171.6950  136.8600 C   0  0  0  0  0  2  0  0  0  0  0  0
  181.3560  171.2840  135.8110 C   0  0  0  0  0  1  0  0  0  0  0  0
  185.5610  179.0120  141.6970 C   0  0  1  0  0  3  0  0  0  0  0  0
  184.3260  179.9380  139.7890 N   0  0  0  0  0  2  0  0  0  0  0  0
  182.1760  178.8960  139.9220 C   0  0  0  0  0  2  0  0  0  0  0  0
  184.6980  178.7030  140.4680 C   0  0  2  0  0  3  0  0  0  0  0  0
  183.1820  177.8040  140.9480 S   0  0  0  0  0  0  0  0  0  0  0  0
  183.1330  179.6430  139.0210 C   0  0  1  0  0  3  0  0  0  0  0  0
  182.5120  180.9380  138.5250 C   0  0  0  0  0  2  0  0  0  0  0  0
  181.1280  180.6810  137.9490 C   0  0  0  0  0  2  0  0  0  0  0  0
  180.6270  181.8790  137.2940 N   0  0  0  0  0  0  0  0  0  0  0  0
  180.8050  181.2310  134.9660 C   0  0  0  0  0  2  0  0  0  0  0  0
  180.1100  181.7780  135.9590 C   0  0  0  0  0  3  0  0  0  0  0  0
  180.8100  183.1600  137.9680 C   0  0  0  0  0  2  0  0  0  0  0  0
  181.3370  184.1990  136.9900 C   0  0  0  0  0  1  0  0  0  0  0  0
  184.5590  180.1950  143.5920 C   0  0  0  0  0  2  0  0  0  0  0  0
  184.7500  179.0450  142.9630 C   0  0  0  0  0  0  0  0  0  0  0  0
  184.2150  177.8770  143.4920 O   0  0  0  0  0  1  0  0  0  0  0  0
  3  9  1  0  0  0  0
  4 11  1  0  0  0  0
  6  1  1  6  0  0  0
  6  3  1  0  0  0  0
  6 11  1  0  0  0  0
  8 30  1  1  0  0  0
  8  4  1  0  0  0  0
  9  2  2  0  0  0  0
  9  7  1  0  0  0  0
 10  7  1  0  0  0  0
 10  5  1  0  0  0  0
 11 10  2  0  0  0  0
 12 13  1  6  0  0  0
 12  1  1  0  0  0  0
 12  8  1  0  0  0  0
 14 15  2  0  0  0  0
 15 13  1  0  0  0  0
 16 15  1  0  0  0  0
 17 18  2  0  0  0  0
 18 19  1  0  0  0  0
 19 16  1  0  0  0  0
 20 18  1  0  0  0  0
 20 21  1  0  0  0  0
 21 22  1  6  0  0  0
 23 21  1  0  0  0  0
 23 24  1  0  0  0  0
 24 27  1  0  0  0  0
 24 25  1  0  0  0  0
 26 25  1  0  0  0  0
 27 28  1  0  0  0  0
 29 28  1  0  0  0  0
 30 44  1  1  0  0  0
 31 33  1  0  0  0  0
 32 34  1  0  0  0  0
 33 34  1  0  0  0  0
 33 30  1  1  0  0  0
 35 36  1  1  0  0  0
 35 31  1  0  0  0  0
 35 32  1  0  0  0  0
 37 36  1  0  0  0  0
 38 37  1  0  0  0  0
 38 41  1  0  0  0  0
 39 40  2  0  0  0  0
 40 38  1  0  0  0  0
 42 41  1  0  0  0  0
 44 45  1  0  0  0  0
 44 43  2  0  0  0  0
M  END
>  <MODEL>
7

>  <REMARK>
 VINA RESULT:      -6.1      2.584      7.879
  Name = 
  18 active torsions:
  status: ('A' for Active; 'I' for Inactive)
    1  A    between atoms: C_1  and  C_11
    2  A    between atoms: C_1  and  N_14
    3  A    between atoms: C_3  and  C_27
    4  A    between atoms: C_3  and  C_30
    5  A    between atoms: C_3  and  C_33
    6  A    between atoms: C_7  and  C_12
    7  A    between atoms: C_7  and  N_14
    8  A    between atoms: N_10  and  C_18
    9  A    between atoms: C_12  and  N_23
   10  A    between atoms: N_14  and  C_17
   11  A    between atoms: C_15  and  C_24
   12  A    between atoms: C_15  and  C_42
   13  A    between atoms: N_16  and  C_24
   14  A    between atoms: N_16  and  C_26
   15  A    between atoms: N_16  and  C_43
   16  A    between atoms: C_18  and  C_45
   17  A    between atoms: C_38  and  O_41
   18  A    between atoms: O_41  and  C_45
                            x       y       z     vdW  Elec       q    Type
                         _______ _______ _______ _____ _____    ______ ____

>  <TORSDO>
F 18

$$$$
=
 OpenBabel10222416433D

 45 47  0  0  1  0  0  0  0  0999 V2000
  188.3900  177.7440  141.5170 C   0  0  0  0  0  2  0  0  0  0  0  0
  191.7600  175.9870  144.5070 O   0  0  0  0  0  0  0  0  0  0  0  0
  190.2030  176.7940  142.9350 C   0  0  0  0  0  2  0  0  0  0  0  0
  186.6790  177.8660  143.7930 N   0  0  0  0  0  2  0  0  0  0  0  0
  187.5870  177.2260  146.4030 C   0  0  0  0  0  1  0  0  0  0  0  0
  189.0620  177.8110  142.8830 C   0  0  2  0  0  3  0  0  0  0  0  0
  189.9930  177.1760  145.5170 C   0  0  0  0  0  2  0  0  0  0  0  0
  186.1160  178.0380  142.4550 C   0  0  2  0  0  3  0  0  0  0  0  0
  190.7210  176.6010  144.3350 C   0  0  0  0  0  0  0  0  0  0  0  0
  188.5220  177.3210  145.2460 C   0  0  0  0  0  0  0  0  0  0  0  0
  188.0730  177.6080  144.0130 C   0  0  0  0  0  0  0  0  0  0  0  0
  187.1450  178.6270  141.4910 C   0  0  2  0  0  3  0  0  0  0  0  0
  186.5970  178.6590  140.1770 O   0  0  0  0  0  0  0  0  0  0  0  0
  188.5390  178.8700  138.9380 O   0  0  0  0  0  0  0  0  0  0  0  0
  187.3630  178.4250  139.0340 C   0  0  0  0  0  0  0  0  0  0  0  0
  186.7720  177.6470  137.9130 C   0  0  0  0  0  2  0  0  0  0  0  0
  187.4830  176.9390  135.2490 O   0  0  0  0  0  0  0  0  0  0  0  0
  187.9610  176.2410  136.1820 C   0  0  0  0  0  0  0  0  0  0  0  0
  187.6730  176.5650  137.5440 N   0  0  0  0  0  2  0  0  0  0  0  0
  188.8090  175.1330  135.8630 N   0  0  0  0  0  2  0  0  0  0  0  0
  189.3640  174.2030  136.8430 C   0  0  1  0  0  3  0  0  0  0  0  0
  188.6000  172.8900  136.8380 C   0  0  0  0  0  1  0  0  0  0  0  0
  190.8450  173.9540  136.5890 C   0  0  0  0  0  2  0  0  0  0  0  0
  191.6460  174.5500  137.6600 N   0  0  0  0  0  0  0  0  0  0  0  0
  193.0610  174.1610  137.5820 C   0  0  0  0  0  2  0  0  0  0  0  0
  193.9790  175.2740  137.0840 C   0  0  0  0  0  1  0  0  0  0  0  0
  191.4750  176.0080  137.7490 C   0  0  0  0  0  2  0  0  0  0  0  0
  191.0090  176.5000  139.1220 C   0  0  0  0  0  2  0  0  0  0  0  0
  192.1640  177.1350  139.8720 C   0  0  0  0  0  1  0  0  0  0  0  0
  184.8210  178.8690  142.4920 C   0  0  1  0  0  3  0  0  0  0  0  0
  183.8520  178.3510  140.2970 N   0  0  0  0  0  2  0  0  0  0  0  0
  181.5610  179.0110  140.5000 C   0  0  0  0  0  2  0  0  0  0  0  0
  183.6780  178.1820  141.7350 C   0  0  2  0  0  3  0  0  0  0  0  0
  182.0630  178.8780  142.2280 S   0  0  0  0  0  0  0  0  0  0  0  0
  182.5420  178.1830  139.7010 C   0  0  1  0  0  3  0  0  0  0  0  0
  182.5790  178.6340  138.2520 C   0  0  0  0  0  2  0  0  0  0  0  0
  181.4310  178.0150  137.4690 C   0  0  0  0  0  2  0  0  0  0  0  0
  181.8860  176.8250  136.7690 N   0  0  0  0  0  0  0  0  0  0  0  0
  180.5590  175.3940  138.2060 C   0  0  0  0  0  2  0  0  0  0  0  0
  181.4460  175.5370  137.2260 C   0  0  0  0  0  3  0  0  0  0  0  0
  182.8910  176.9820  135.7230 C   0  0  0  0  0  2  0  0  0  0  0  0
  184.1020  176.1110  136.0210 C   0  0  0  0  0  1  0  0  0  0  0  0
  184.6150  180.4840  144.3200 C   0  0  0  0  0  2  0  0  0  0  0  0
  184.4270  179.2440  143.8930 C   0  0  0  0  0  0  0  0  0  0  0  0
  183.8850  178.2970  144.7550 O   0  0  0  0  0  1  0  0  0  0  0  0
  3  9  1  0  0  0  0
  4 11  1  0  0  0  0
  6  1  1  6  0  0  0
  6  3  1  0  0  0  0
  6 11  1  0  0  0  0
  8 30  1  1  0  0  0
  8  4  1  0  0  0  0
  9  2  2  0  0  0  0
  9  7  1  0  0  0  0
 10  7  1  0  0  0  0
 10  5  1  0  0  0  0
 11 10  2  0  0  0  0
 12 13  1  6  0  0  0
 12  1  1  0  0  0  0
 12  8  1  0  0  0  0
 14 15  2  0  0  0  0
 15 13  1  0  0  0  0
 16 15  1  0  0  0  0
 17 18  2  0  0  0  0
 18 19  1  0  0  0  0
 19 16  1  0  0  0  0
 20 18  1  0  0  0  0
 20 21  1  0  0  0  0
 21 22  1  6  0  0  0
 23 21  1  0  0  0  0
 23 24  1  0  0  0  0
 24 27  1  0  0  0  0
 25 24  1  0  0  0  0
 26 25  1  0  0  0  0
 27 28  1  0  0  0  0
 28 29  1  0  0  0  0
 30 44  1  1  0  0  0
 31 33  1  0  0  0  0
 32 34  1  0  0  0  0
 33 34  1  0  0  0  0
 33 30  1  1  0  0  0
 35 36  1  6  0  0  0
 35 31  1  0  0  0  0
 35 32  1  0  0  0  0
 37 36  1  0  0  0  0
 38 40  1  0  0  0  0
 38 37  1  0  0  0  0
 40 39  2  0  0  0  0
 41 42  1  0  0  0  0
 41 38  1  0  0  0  0
 44 43  2  0  0  0  0
 44 45  1  0  0  0  0
M  END
>  <MODEL>
8

>  <REMARK>
 VINA RESULT:      -5.8      2.681      5.973
  Name = 
  18 active torsions:
  status: ('A' for Active; 'I' for Inactive)
    1  A    between atoms: C_1  and  C_11
    2  A    between atoms: C_1  and  N_14
    3  A    between atoms: C_3  and  C_27
    4  A    between atoms: C_3  and  C_30
    5  A    between atoms: C_3  and  C_33
    6  A    between atoms: C_7  and  C_12
    7  A    between atoms: C_7  and  N_14
    8  A    between atoms: N_10  and  C_18
    9  A    between atoms: C_12  and  N_23
   10  A    between atoms: N_14  and  C_17
   11  A    between atoms: C_15  and  C_24
   12  A    between atoms: C_15  and  C_42
   13  A    between atoms: N_16  and  C_24
   14  A    between atoms: N_16  and  C_26
   15  A    between atoms: N_16  and  C_43
   16  A    between atoms: C_18  and  C_45
   17  A    between atoms: C_38  and  O_41
   18  A    between atoms: O_41  and  C_45
                            x       y       z     vdW  Elec       q    Type
                         _______ _______ _______ _____ _____    ______ ____

>  <TORSDO>
F 18

$$$$
=
 OpenBabel10222416433D

 45 47  0  0  1  0  0  0  0  0999 V2000
  185.1940  178.6290  140.6370 C   0  0  0  0  0  2  0  0  0  0  0  0
  186.3910  178.0340  145.2850 O   0  0  0  0  0  0  0  0  0  0  0  0
  185.9480  178.2780  142.9850 C   0  0  0  0  0  2  0  0  0  0  0  0
  182.4860  178.7010  141.5220 N   0  0  0  0  0  2  0  0  0  0  0  0
  181.7900  178.6250  144.2710 C   0  0  0  0  0  1  0  0  0  0  0  0
  184.9530  179.0200  142.0910 C   0  0  2  0  0  3  0  0  0  0  0  0
  184.2620  178.9560  144.8700 C   0  0  0  0  0  2  0  0  0  0  0  0
  182.7770  178.5690  140.0960 C   0  0  2  0  0  3  0  0  0  0  0  0
  185.5860  178.3890  144.4410 C   0  0  0  0  0  0  0  0  0  0  0  0
  183.2060  178.7540  143.8210 C   0  0  0  0  0  0  0  0  0  0  0  0
  183.5200  178.7710  142.5140 C   0  0  0  0  0  0  0  0  0  0  0  0
  184.1120  179.2220  139.7390 C   0  0  2  0  0  3  0  0  0  0  0  0
  184.4160  178.9610  138.3720 O   0  0  0  0  0  0  0  0  0  0  0  0
  186.6800  178.7790  137.9340 O   0  0  0  0  0  0  0  0  0  0  0  0
  185.5420  178.2380  137.9740 C   0  0  0  0  0  0  0  0  0  0  0  0
  185.3850  176.8110  137.5840 C   0  0  0  0  0  2  0  0  0  0  0  0
  185.9950  176.0010  134.9240 O   0  0  0  0  0  0  0  0  0  0  0  0
  186.8960  175.8650  135.7930 C   0  0  0  0  0  0  0  0  0  0  0  0
  186.6680  176.2850  137.1400 N   0  0  0  0  0  2  0  0  0  0  0  0
  188.1560  175.3010  135.4130 N   0  0  0  0  0  2  0  0  0  0  0  0
  189.2530  175.0200  136.3360 C   0  0  1  0  0  3  0  0  0  0  0  0
  189.7150  173.5790  136.2070 C   0  0  0  0  0  1  0  0  0  0  0  0
  190.4200  175.9720  136.1100 C   0  0  0  0  0  2  0  0  0  0  0  0
  190.9390  176.4450  137.3940 N   0  0  0  0  0  0  0  0  0  0  0  0
  189.8960  176.5190  138.4260 C   0  0  0  0  0  2  0  0  0  0  0  0
  189.8090  177.8770  139.1170 C   0  0  0  0  0  1  0  0  0  0  0  0
  192.1130  175.6790  137.8450 C   0  0  0  0  0  2  0  0  0  0  0  0
  193.4460  176.4030  137.6430 C   0  0  0  0  0  2  0  0  0  0  0  0
  194.1440  175.8820  136.4010 C   0  0  0  0  0  1  0  0  0  0  0  0
  181.6240  179.1100  139.2330 C   0  0  1  0  0  3  0  0  0  0  0  0
  181.6060  176.7310  138.6290 N   0  0  0  0  0  2  0  0  0  0  0  0
  182.0330  176.7230  136.2750 C   0  0  0  0  0  2  0  0  0  0  0  0
  181.0710  178.0420  138.2810 C   0  0  2  0  0  3  0  0  0  0  0  0
  181.5080  178.4270  136.5500 S   0  0  0  0  0  0  0  0  0  0  0  0
  181.5010  175.9140  137.4360 C   0  0  1  0  0  3  0  0  0  0  0  0
  182.3030  174.6370  137.6210 C   0  0  0  0  0  2  0  0  0  0  0  0
  183.0870  174.3110  136.3590 C   0  0  0  0  0  2  0  0  0  0  0  0
  183.9170  173.1370  136.5740 N   0  0  0  0  0  0  0  0  0  0  0  0
  183.1200  170.8630  136.3230 C   0  0  0  0  0  2  0  0  0  0  0  0
  183.6680  171.9550  135.7990 C   0  0  0  0  0  3  0  0  0  0  0  0
  184.8730  173.1630  137.6760 C   0  0  0  0  0  2  0  0  0  0  0  0
  186.2220  172.6310  137.2150 C   0  0  0  0  0  1  0  0  0  0  0  0
  179.6250  178.9800  140.6390 C   0  0  0  0  0  2  0  0  0  0  0  0
  180.5430  179.7420  140.0630 C   0  0  0  0  0  0  0  0  0  0  0  0
  180.4830  181.1220  140.2180 O   0  0  0  0  0  1  0  0  0  0  0  0
  3  9  1  0  0  0  0
  4 11  1  0  0  0  0
  6  1  1  6  0  0  0
  6 11  1  0  0  0  0
  6  3  1  0  0  0  0
  8 30  1  6  0  0  0
  8  4  1  0  0  0  0
  9  7  1  0  0  0  0
  9  2  2  0  0  0  0
 10  5  1  0  0  0  0
 10  7  1  0  0  0  0
 11 10  2  0  0  0  0
 12 13  1  6  0  0  0
 12  8  1  0  0  0  0
 12  1  1  0  0  0  0
 14 15  2  0  0  0  0
 15 13  1  0  0  0  0
 16 15  1  0  0  0  0
 17 18  2  0  0  0  0
 18 19  1  0  0  0  0
 19 16  1  0  0  0  0
 20 18  1  0  0  0  0
 20 21  1  0  0  0  0
 21 22  1  6  0  0  0
 23 21  1  0  0  0  0
 23 24  1  0  0  0  0
 24 27  1  0  0  0  0
 24 25  1  0  0  0  0
 25 26  1  0  0  0  0
 28 27  1  0  0  0  0
 29 28  1  0  0  0  0
 30 44  1  1  0  0  0
 32 34  1  0  0  0  0
 32 35  1  0  0  0  0
 33 31  1  0  0  0  0
 33 30  1  1  0  0  0
 34 33  1  0  0  0  0
 35 36  1  1  0  0  0
 35 31  1  0  0  0  0
 37 38  1  0  0  0  0
 37 36  1  0  0  0  0
 38 41  1  0  0  0  0
 40 39  2  0  0  0  0
 40 38  1  0  0  0  0
 42 41  1  0  0  0  0
 44 45  1  0  0  0  0
 44 43  2  0  0  0  0
M  END
>  <MODEL>
9

>  <REMARK>
 VINA RESULT:      -5.8      3.241      5.178
  Name = 
  18 active torsions:
  status: ('A' for Active; 'I' for Inactive)
    1  A    between atoms: C_1  and  C_11
    2  A    between atoms: C_1  and  N_14
    3  A    between atoms: C_3  and  C_27
    4  A    between atoms: C_3  and  C_30
    5  A    between atoms: C_3  and  C_33
    6  A    between atoms: C_7  and  C_12
    7  A    between atoms: C_7  and  N_14
    8  A    between atoms: N_10  and  C_18
    9  A    between atoms: C_12  and  N_23
   10  A    between atoms: N_14  and  C_17
   11  A    between atoms: C_15  and  C_24
   12  A    between atoms: C_15  and  C_42
   13  A    between atoms: N_16  and  C_24
   14  A    between atoms: N_16  and  C_26
   15  A    between atoms: N_16  and  C_43
   16  A    between atoms: C_18  and  C_45
   17  A    between atoms: C_38  and  O_41
   18  A    between atoms: O_41  and  C_45
                            x       y       z     vdW  Elec       q    Type
                         _______ _______ _______ _____ _____    ______ ____

>  <TORSDO>
F 18

$$$$
