=
 OpenBabel10222415453D

 44 48  0  0  1  0  0  0  0  0999 V2000
  183.2430  178.9990  142.8200 C   0  0  0  0  0  3  0  0  0  0  0  0
  184.2210  178.1070  138.9020 C   0  0  0  0  0  3  0  0  0  0  0  0
  182.1610  178.7010  141.9570 C   0  0  0  0  0  0  0  0  0  0  0  0
  185.9280  178.6070  140.3190 N   0  0  0  0  0  0  0  0  0  0  0  0
  185.6030  178.2550  139.0500 C   0  0  0  0  0  0  0  0  0  0  0  0
  184.5650  178.9930  142.3440 C   0  0  0  0  0  3  0  0  0  0  0  0
  183.7230  178.3850  140.1630 C   0  0  0  0  0  0  0  0  0  0  0  0
  182.4030  178.3880  140.6060 C   0  0  0  0  0  3  0  0  0  0  0  0
  184.7690  178.6820  140.9990 C   0  0  0  0  0  0  0  0  0  0  0  0
  186.5720  178.0550  137.9570 C   0  0  0  0  0  0  0  0  0  0  0  0
  188.0660  177.1880  136.7410 C   0  0  0  0  0  0  0  0  0  0  0  0
  186.8110  178.9730  136.9960 N   0  0  0  0  0  0  0  0  0  0  0  0
  187.7600  178.4230  136.2150 C   0  0  0  0  0  2  0  0  0  0  0  0
  187.3190  176.9400  137.8320 N   0  0  0  0  0  0  0  0  0  0  0  0
  190.0290  175.7630  137.1780 C   0  0  0  0  0  2  0  0  0  0  0  0
  189.0430  176.2240  136.1480 C   0  0  2  0  0  3  0  0  0  0  0  0
  189.9020  176.8890  135.0990 C   0  0  0  0  0  2  0  0  0  0  0  0
  191.3840  176.0550  136.5510 C   0  0  2  0  0  3  0  0  0  0  0  0
  191.1920  176.3490  135.1880 O   0  0  0  0  0  0  0  0  0  0  0  0
  191.7400  173.9010  137.5290 O   0  0  0  0  0  1  0  0  0  0  0  0
  192.3600  174.8740  136.7380 C   0  0  0  0  0  0  0  0  0  0  0  0
  192.6680  174.3140  135.4930 O   0  0  0  0  0  1  0  0  0  0  0  0
  193.6490  175.3350  137.4440 C   0  0  2  0  0  3  0  0  0  0  0  0
  194.1150  176.6080  136.9120 N   0  0  0  0  0  1  0  0  0  0  0  0
  194.7600  174.2930  137.3100 C   0  0  0  0  0  2  0  0  0  0  0  0
  195.2340  172.7590  139.0760 O   0  0  0  0  0  0  0  0  0  0  0  0
  195.3160  173.9400  138.6500 C   0  0  0  0  0  0  0  0  0  0  0  0
  195.9520  174.9090  139.4150 O   0  0  0  0  0  1  0  0  0  0  0  0
  179.9290  179.8550  142.2710 C   0  0  0  0  0  1  0  0  0  0  0  0
  180.8130  178.7120  142.4330 N   0  0  0  0  0  2  0  0  0  0  0  0
  187.2290  178.8790  140.7860 N   0  0  0  0  0  2  0  0  0  0  0  0
  188.2170  177.8450  141.0560 C   0  0  0  0  0  2  0  0  0  0  0  0
  188.8290  178.0810  142.3530 N   0  0  0  0  0  2  0  0  0  0  0  0
  190.2280  177.9140  142.5860 C   0  0  0  0  0  0  0  0  0  0  0  0
  190.9820  177.4810  141.6700 O   0  0  0  0  0  0  0  0  0  0  0  0
  190.7870  178.2540  143.9310 C   0  0  1  0  0  3  0  0  0  0  0  0
  189.7500  178.1790  144.9480 N   0  0  0  0  0  0  0  0  0  0  0  0
  191.7560  177.2060  144.3810 C   0  0  0  0  0  3  0  0  0  0  0  0
  191.3440  176.6420  145.4670 N   0  0  0  0  0  0  0  0  0  0  0  0
  190.1090  177.2650  145.7850 C   0  0  0  0  0  0  0  0  0  0  0  0
  189.2790  176.8890  146.9690 C   0  0  0  0  0  2  0  0  0  0  0  0
  188.2480  177.9510  147.3490 C   0  0  0  0  0  3  0  0  0  0  0  0
  188.1010  178.0890  148.8530 C   0  0  0  0  0  1  0  0  0  0  0  0
  186.9010  177.6900  146.7000 C   0  0  0  0  0  1  0  0  0  0  0  0
  2  5  2  0  0  0  0
  2  7  1  0  0  0  0
  3 30  1  0  0  0  0
  3  1  2  0  0  0  0
  4 31  1  0  0  0  0
  4  9  1  0  0  0  0
  5  4  1  0  0  0  0
  6  1  1  0  0  0  0
  7  8  2  0  0  0  0
  7  9  1  0  0  0  0
  8  3  1  0  0  0  0
  9  6  2  0  0  0  0
 10  5  1  0  0  0  0
 11 14  2  0  0  0  0
 12 10  2  0  0  0  0
 13 11  1  0  0  0  0
 13 12  1  0  0  0  0
 14 10  1  0  0  0  0
 16 11  1  1  0  0  0
 16 15  1  0  0  0  0
 17 19  1  0  0  0  0
 17 16  1  0  0  0  0
 18 21  1  6  0  0  0
 18 15  1  0  0  0  0
 19 18  1  0  0  0  0
 21 23  1  0  0  0  0
 21 20  1  0  0  0  0
 22 21  1  0  0  0  0
 23 24  1  6  0  0  0
 25 23  1  0  0  0  0
 25 27  1  0  0  0  0
 27 26  2  0  0  0  0
 27 28  1  0  0  0  0
 29 30  1  0  0  0  0
 31 32  1  0  0  0  0
 32 33  1  0  0  0  0
 33 34  1  0  0  0  0
 35 34  2  0  0  0  0
 36 34  1  6  0  0  0
 36 38  1  0  0  0  0
 36 37  1  0  0  0  0
 37 40  2  0  0  0  0
 38 39  2  0  0  0  0
 39 40  1  0  0  0  0
 40 41  1  0  0  0  0
 41 42  1  0  0  0  0
 42 43  1  0  0  0  0
 44 42  1  0  0  0  0
M  END
>  <MODEL>
1

>  <REMARK>
 VINA RESULT:      -8.5      0.000      0.000
  Name = 
  13 active torsions:
  status: ('A' for Active; 'I' for Inactive)
    1  A    between atoms: C_6  and  C_33
    2  A    between atoms: C_7  and  C_41
    3  A    between atoms: C_8  and  C_18
    4  A    between atoms: C_8  and  C_25
    5  A    between atoms: C_9  and  C_12
    6  A    between atoms: C_13  and  N_24
    7  A    between atoms: C_14  and  C_17
    8  A    between atoms: N_15  and  C_38
    9  A    between atoms: N_16  and  N_23
   10  A    between atoms: C_18  and  C_27
   11  A    between atoms: C_19  and  C_25
   12  A    between atoms: N_23  and  C_38
   13  A    between atoms: C_41  and  C_44
                            x       y       z     vdW  Elec       q    Type
                         _______ _______ _______ _____ _____    ______ ____

>  <TORSDO>
F 13

$$$$
=
 OpenBabel10222415453D

 44 48  0  0  1  0  0  0  0  0999 V2000
  191.1950  176.7260  144.5460 C   0  0  0  0  0  3  0  0  0  0  0  0
  187.4310  177.9390  145.7540 C   0  0  0  0  0  3  0  0  0  0  0  0
  191.0060  176.8860  145.9410 C   0  0  0  0  0  0  0  0  0  0  0  0
  187.7820  177.6850  143.5220 N   0  0  0  0  0  0  0  0  0  0  0  0
  186.8740  178.0130  144.4740 C   0  0  0  0  0  0  0  0  0  0  0  0
  190.1480  176.9800  143.6450 C   0  0  0  0  0  3  0  0  0  0  0  0
  188.7350  177.5380  145.5230 C   0  0  0  0  0  0  0  0  0  0  0  0
  189.7570  177.2980  146.4390 C   0  0  0  0  0  3  0  0  0  0  0  0
  188.9220  177.3910  144.1730 C   0  0  0  0  0  0  0  0  0  0  0  0
  185.4780  178.4060  144.2080 C   0  0  0  0  0  0  0  0  0  0  0  0
  183.5750  178.5350  143.2990 C   0  0  0  0  0  0  0  0  0  0  0  0
  184.8080  179.3210  144.9400 N   0  0  0  0  0  0  0  0  0  0  0  0
  183.5920  179.4040  144.3680 C   0  0  0  0  0  2  0  0  0  0  0  0
  184.7530  177.8940  143.1930 N   0  0  0  0  0  0  0  0  0  0  0  0
  182.7840  178.3450  140.9720 C   0  0  0  0  0  2  0  0  0  0  0  0
  182.3930  178.2860  142.4180 C   0  0  2  0  0  3  0  0  0  0  0  0
  181.3640  179.3810  142.5580 C   0  0  0  0  0  2  0  0  0  0  0  0
  181.8230  179.3590  140.3700 C   0  0  2  0  0  3  0  0  0  0  0  0
  180.7940  179.6050  141.2970 O   0  0  0  0  0  0  0  0  0  0  0  0
  179.9380  179.3210  138.8980 O   0  0  0  0  0  1  0  0  0  0  0  0
  181.2560  178.8690  139.0220 C   0  0  0  0  0  0  0  0  0  0  0  0
  182.0140  179.3950  137.9700 O   0  0  0  0  0  1  0  0  0  0  0  0
  181.2560  177.3300  138.9540 C   0  0  2  0  0  3  0  0  0  0  0  0
  181.8420  176.8570  137.7070 N   0  0  0  0  0  1  0  0  0  0  0  0
  179.8420  176.7650  139.0960 C   0  0  0  0  0  2  0  0  0  0  0  0
  179.9850  174.7670  140.3930 O   0  0  0  0  0  0  0  0  0  0  0  0
  179.7070  175.9940  140.3670 C   0  0  0  0  0  0  0  0  0  0  0  0
  179.3040  176.6370  141.5300 O   0  0  0  0  0  1  0  0  0  0  0  0
  192.1150  175.4580  147.7130 C   0  0  0  0  0  1  0  0  0  0  0  0
  192.0700  176.6350  146.8620 N   0  0  0  0  0  2  0  0  0  0  0  0
  187.5560  177.7050  142.1320 N   0  0  0  0  0  2  0  0  0  0  0  0
  187.9800  178.7950  141.2650 C   0  0  0  0  0  2  0  0  0  0  0  0
  187.7660  178.4260  139.8760 N   0  0  0  0  0  2  0  0  0  0  0  0
  188.8170  177.9440  139.0370 C   0  0  0  0  0  0  0  0  0  0  0  0
  190.0030  177.8880  139.4660 O   0  0  0  0  0  0  0  0  0  0  0  0
  188.4930  177.5130  137.6410 C   0  0  1  0  0  3  0  0  0  0  0  0
  187.7410  176.2680  137.6530 N   0  0  0  0  0  0  0  0  0  0  0  0
  187.5310  178.4650  137.0030 C   0  0  0  0  0  3  0  0  0  0  0  0
  186.4300  177.8640  136.7000 N   0  0  0  0  0  0  0  0  0  0  0  0
  186.5950  176.5160  137.1140 C   0  0  0  0  0  0  0  0  0  0  0  0
  185.5350  175.4740  136.9650 C   0  0  0  0  0  2  0  0  0  0  0  0
  186.0930  174.0590  136.8150 C   0  0  0  0  0  3  0  0  0  0  0  0
  186.1560  173.6220  135.3630 C   0  0  0  0  0  1  0  0  0  0  0  0
  185.3160  173.0530  137.6450 C   0  0  0  0  0  1  0  0  0  0  0  0
  1  3  1  0  0  0  0
  3  8  2  0  0  0  0
  3 30  1  0  0  0  0
  4  9  1  0  0  0  0
  4  5  1  0  0  0  0
  5  2  2  0  0  0  0
  6  9  1  0  0  0  0
  6  1  2  0  0  0  0
  7  2  1  0  0  0  0
  7  8  1  0  0  0  0
  9  7  2  0  0  0  0
 10  5  1  0  0  0  0
 10 12  2  0  0  0  0
 11 13  1  0  0  0  0
 13 12  1  0  0  0  0
 14 11  2  0  0  0  0
 14 10  1  0  0  0  0
 15 16  1  0  0  0  0
 16 17  1  0  0  0  0
 16 11  1  1  0  0  0
 18 21  1  6  0  0  0
 18 15  1  0  0  0  0
 18 19  1  0  0  0  0
 19 17  1  0  0  0  0
 20 21  1  0  0  0  0
 22 21  1  0  0  0  0
 23 24  1  6  0  0  0
 23 21  1  0  0  0  0
 23 25  1  0  0  0  0
 25 27  1  0  0  0  0
 27 26  2  0  0  0  0
 27 28  1  0  0  0  0
 30 29  1  0  0  0  0
 31  4  1  0  0  0  0
 32 31  1  0  0  0  0
 33 32  1  0  0  0  0
 34 35  2  0  0  0  0
 34 33  1  0  0  0  0
 36 37  1  0  0  0  0
 36 34  1  1  0  0  0
 38 36  1  0  0  0  0
 39 38  2  0  0  0  0
 39 40  1  0  0  0  0
 40 37  2  0  0  0  0
 41 40  1  0  0  0  0
 42 41  1  0  0  0  0
 42 44  1  0  0  0  0
 43 42  1  0  0  0  0
M  END
>  <MODEL>
2

>  <REMARK>
 VINA RESULT:      -8.4      4.337     10.035
  Name = 
  13 active torsions:
  status: ('A' for Active; 'I' for Inactive)
    1  A    between atoms: C_6  and  C_33
    2  A    between atoms: C_7  and  C_41
    3  A    between atoms: C_8  and  C_18
    4  A    between atoms: C_8  and  C_25
    5  A    between atoms: C_9  and  C_12
    6  A    between atoms: C_13  and  N_24
    7  A    between atoms: C_14  and  C_17
    8  A    between atoms: N_15  and  C_38
    9  A    between atoms: N_16  and  N_23
   10  A    between atoms: C_18  and  C_27
   11  A    between atoms: C_19  and  C_25
   12  A    between atoms: N_23  and  C_38
   13  A    between atoms: C_41  and  C_44
                            x       y       z     vdW  Elec       q    Type
                         _______ _______ _______ _____ _____    ______ ____

>  <TORSDO>
F 13

$$$$
=
 OpenBabel10222415453D

 44 48  0  0  1  0  0  0  0  0999 V2000
  191.0990  176.7890  145.2450 C   0  0  0  0  0  3  0  0  0  0  0  0
  187.1410  177.9090  145.6700 C   0  0  0  0  0  3  0  0  0  0  0  0
  190.6460  177.0000  146.5710 C   0  0  0  0  0  0  0  0  0  0  0  0
  187.9120  177.5750  143.5580 N   0  0  0  0  0  0  0  0  0  0  0  0
  186.8320  177.9080  144.3070 C   0  0  0  0  0  0  0  0  0  0  0  0
  190.2320  176.9650  144.1530 C   0  0  0  0  0  3  0  0  0  0  0  0
  188.4760  177.5480  145.7060 C   0  0  0  0  0  0  0  0  0  0  0  0
  189.3140  177.3850  146.8070 C   0  0  0  0  0  3  0  0  0  0  0  0
  188.9180  177.3510  144.4230 C   0  0  0  0  0  0  0  0  0  0  0  0
  185.5000  178.2360  143.7670 C   0  0  0  0  0  0  0  0  0  0  0  0
  183.9450  178.6650  142.4030 C   0  0  0  0  0  0  0  0  0  0  0  0
  184.4240  178.4920  144.5410 N   0  0  0  0  0  0  0  0  0  0  0  0
  183.4280  178.7620  143.6760 C   0  0  0  0  0  2  0  0  0  0  0  0
  185.2460  178.3250  142.4460 N   0  0  0  0  0  0  0  0  0  0  0  0
  182.0480  177.8420  141.0610 C   0  0  0  0  0  2  0  0  0  0  0  0
  183.1580  178.8450  141.1440 C   0  0  2  0  0  3  0  0  0  0  0  0
  183.9990  178.5550  139.9250 C   0  0  0  0  0  2  0  0  0  0  0  0
  182.2550  177.1710  139.7110 C   0  0  2  0  0  3  0  0  0  0  0  0
  183.1820  177.9300  138.9720 O   0  0  0  0  0  0  0  0  0  0  0  0
  179.8970  177.5720  139.7170 O   0  0  0  0  0  1  0  0  0  0  0  0
  180.9240  177.0140  138.9480 C   0  0  0  0  0  0  0  0  0  0  0  0
  180.9950  177.6970  137.7280 O   0  0  0  0  0  1  0  0  0  0  0  0
  180.6040  175.5280  138.7030 C   0  0  2  0  0  3  0  0  0  0  0  0
  180.2640  174.8510  139.9480 N   0  0  0  0  0  1  0  0  0  0  0  0
  181.7770  174.8070  138.0390 C   0  0  0  0  0  2  0  0  0  0  0  0
  181.6810  172.5830  137.1750 O   0  0  0  0  0  1  0  0  0  0  0  0
  181.2850  173.7740  137.0790 C   0  0  0  0  0  0  0  0  0  0  0  0
  180.3650  174.1200  136.0970 O   0  0  0  0  0  0  0  0  0  0  0  0
  192.4920  175.7460  147.7670 C   0  0  0  0  0  1  0  0  0  0  0  0
  191.5250  176.8290  147.6850 N   0  0  0  0  0  2  0  0  0  0  0  0
  187.9500  177.5280  142.1510 N   0  0  0  0  0  2  0  0  0  0  0  0
  188.3930  178.6400  141.3220 C   0  0  0  0  0  2  0  0  0  0  0  0
  187.9410  178.4410  139.9550 N   0  0  0  0  0  2  0  0  0  0  0  0
  188.8090  177.9890  138.9150 C   0  0  0  0  0  0  0  0  0  0  0  0
  190.0380  177.8100  139.1410 O   0  0  0  0  0  0  0  0  0  0  0  0
  188.2430  177.7370  137.5530 C   0  0  1  0  0  3  0  0  0  0  0  0
  188.3340  176.3240  137.2160 N   0  0  0  0  0  0  0  0  0  0  0  0
  186.7660  177.9760  137.5420 C   0  0  0  0  0  3  0  0  0  0  0  0
  186.1320  176.8920  137.2430 N   0  0  0  0  0  0  0  0  0  0  0  0
  187.1280  175.8990  137.0510 C   0  0  0  0  0  0  0  0  0  0  0  0
  186.8180  174.4780  136.7080 C   0  0  0  0  0  2  0  0  0  0  0  0
  185.3360  174.1310  136.8450 C   0  0  0  0  0  3  0  0  0  0  0  0
  185.1080  172.9750  137.8020 C   0  0  0  0  0  1  0  0  0  0  0  0
  184.6930  173.8480  135.4990 C   0  0  0  0  0  1  0  0  0  0  0  0
  1  3  1  0  0  0  0
  2  7  1  0  0  0  0
  3  8  2  0  0  0  0
  3 30  1  0  0  0  0
  4  5  1  0  0  0  0
  4  9  1  0  0  0  0
  5  2  2  0  0  0  0
  6  9  1  0  0  0  0
  6  1  2  0  0  0  0
  7  8  1  0  0  0  0
  9  7  2  0  0  0  0
 10  5  1  0  0  0  0
 10 12  2  0  0  0  0
 11 14  2  0  0  0  0
 11 13  1  0  0  0  0
 13 12  1  0  0  0  0
 14 10  1  0  0  0  0
 15 16  1  0  0  0  0
 16 11  1  1  0  0  0
 17 16  1  0  0  0  0
 18 21  1  6  0  0  0
 18 15  1  0  0  0  0
 19 18  1  0  0  0  0
 19 17  1  0  0  0  0
 21 20  1  0  0  0  0
 22 21  1  0  0  0  0
 23 21  1  0  0  0  0
 23 24  1  1  0  0  0
 25 23  1  0  0  0  0
 27 26  1  0  0  0  0
 27 25  1  0  0  0  0
 28 27  2  0  0  0  0
 30 29  1  0  0  0  0
 31  4  1  0  0  0  0
 32 31  1  0  0  0  0
 33 32  1  0  0  0  0
 34 35  2  0  0  0  0
 34 33  1  0  0  0  0
 36 34  1  1  0  0  0
 37 36  1  0  0  0  0
 38 36  1  0  0  0  0
 39 38  2  0  0  0  0
 40 37  2  0  0  0  0
 40 39  1  0  0  0  0
 41 42  1  0  0  0  0
 41 40  1  0  0  0  0
 42 43  1  0  0  0  0
 44 42  1  0  0  0  0
M  END
>  <MODEL>
3

>  <REMARK>
 VINA RESULT:      -8.4      4.246      9.605
  Name = 
  13 active torsions:
  status: ('A' for Active; 'I' for Inactive)
    1  A    between atoms: C_6  and  C_33
    2  A    between atoms: C_7  and  C_41
    3  A    between atoms: C_8  and  C_18
    4  A    between atoms: C_8  and  C_25
    5  A    between atoms: C_9  and  C_12
    6  A    between atoms: C_13  and  N_24
    7  A    between atoms: C_14  and  C_17
    8  A    between atoms: N_15  and  C_38
    9  A    between atoms: N_16  and  N_23
   10  A    between atoms: C_18  and  C_27
   11  A    between atoms: C_19  and  C_25
   12  A    between atoms: N_23  and  C_38
   13  A    between atoms: C_41  and  C_44
                            x       y       z     vdW  Elec       q    Type
                         _______ _______ _______ _____ _____    ______ ____

>  <TORSDO>
F 13

$$$$
=
 OpenBabel10222415453D

 44 48  0  0  1  0  0  0  0  0999 V2000
  191.0440  176.8170  145.1180 C   0  0  0  0  0  3  0  0  0  0  0  0
  187.1900  177.9910  146.0500 C   0  0  0  0  0  3  0  0  0  0  0  0
  190.7550  176.9820  146.4950 C   0  0  0  0  0  0  0  0  0  0  0  0
  187.7010  177.7290  143.8500 N   0  0  0  0  0  0  0  0  0  0  0  0
  186.7240  178.0510  144.7340 C   0  0  0  0  0  0  0  0  0  0  0  0
  190.0600  177.0530  144.1440 C   0  0  0  0  0  3  0  0  0  0  0  0
  188.5120  177.6050  145.9150 C   0  0  0  0  0  0  0  0  0  0  0  0
  189.4690  177.3820  146.9020 C   0  0  0  0  0  3  0  0  0  0  0  0
  188.7960  177.4520  144.5810 C   0  0  0  0  0  0  0  0  0  0  0  0
  185.3460  178.4250  144.3670 C   0  0  0  0  0  0  0  0  0  0  0  0
  183.5070  178.5180  143.3320 C   0  0  0  0  0  0  0  0  0  0  0  0
  184.6220  179.3490  145.0340 N   0  0  0  0  0  0  0  0  0  0  0  0
  183.4460  179.4090  144.3810 C   0  0  0  0  0  2  0  0  0  0  0  0
  184.6940  177.8860  143.3170 N   0  0  0  0  0  0  0  0  0  0  0  0
  182.8900  178.1860  140.9680 C   0  0  0  0  0  2  0  0  0  0  0  0
  182.3880  178.2410  142.3790 C   0  0  2  0  0  3  0  0  0  0  0  0
  181.3880  179.3710  142.3630 C   0  0  0  0  0  2  0  0  0  0  0  0
  182.0130  179.1810  140.2240 C   0  0  2  0  0  3  0  0  0  0  0  0
  180.9240  179.5210  141.0490 O   0  0  0  0  0  0  0  0  0  0  0  0
  180.2700  179.1390  138.5860 O   0  0  0  0  0  1  0  0  0  0  0  0
  181.5340  178.6120  138.8720 C   0  0  0  0  0  0  0  0  0  0  0  0
  182.4210  178.9920  137.8580 O   0  0  0  0  0  1  0  0  0  0  0  0
  181.4250  177.0770  138.9310 C   0  0  2  0  0  3  0  0  0  0  0  0
  182.0240  176.4610  137.7550 N   0  0  0  0  0  1  0  0  0  0  0  0
  179.9700  176.6250  139.0550 C   0  0  0  0  0  2  0  0  0  0  0  0
  179.2870  176.6430  141.3420 O   0  0  0  0  0  1  0  0  0  0  0  0
  179.7320  175.9710  140.3750 C   0  0  0  0  0  0  0  0  0  0  0  0
  179.9700  174.6110  140.5300 O   0  0  0  0  0  0  0  0  0  0  0  0
  192.4270  175.4710  147.6490 C   0  0  0  0  0  1  0  0  0  0  0  0
  191.7550  176.7500  147.4910 N   0  0  0  0  0  2  0  0  0  0  0  0
  187.5730  177.7390  142.4480 N   0  0  0  0  0  2  0  0  0  0  0  0
  188.0520  178.8250  141.6050 C   0  0  0  0  0  2  0  0  0  0  0  0
  188.5530  178.2860  140.3520 N   0  0  0  0  0  2  0  0  0  0  0  0
  187.7670  178.2500  139.1600 C   0  0  0  0  0  0  0  0  0  0  0  0
  186.5640  178.6310  139.1760 O   0  0  0  0  0  0  0  0  0  0  0  0
  188.3890  177.7500  137.8940 C   0  0  1  0  0  3  0  0  0  0  0  0
  189.7870  177.4110  138.1110 N   0  0  0  0  0  0  0  0  0  0  0  0
  187.7950  176.4350  137.4970 C   0  0  0  0  0  3  0  0  0  0  0  0
  188.7000  175.5140  137.4840 N   0  0  0  0  0  0  0  0  0  0  0  0
  189.9090  176.1500  137.8670 C   0  0  0  0  0  0  0  0  0  0  0  0
  191.2120  175.4290  138.0000 C   0  0  0  0  0  2  0  0  0  0  0  0
  192.3080  175.9850  137.0930 C   0  0  0  0  0  3  0  0  0  0  0  0
  192.1370  175.5380  135.6520 C   0  0  0  0  0  1  0  0  0  0  0  0
  193.6950  175.6370  137.6010 C   0  0  0  0  0  1  0  0  0  0  0  0
  1  3  1  0  0  0  0
  3  8  2  0  0  0  0
  3 30  1  0  0  0  0
  4  9  1  0  0  0  0
  4  5  1  0  0  0  0
  5  2  2  0  0  0  0
  6  9  1  0  0  0  0
  6  1  2  0  0  0  0
  7  2  1  0  0  0  0
  7  8  1  0  0  0  0
  9  7  2  0  0  0  0
 10  5  1  0  0  0  0
 10 12  2  0  0  0  0
 11 13  1  0  0  0  0
 13 12  1  0  0  0  0
 14 11  2  0  0  0  0
 14 10  1  0  0  0  0
 15 16  1  0  0  0  0
 16 11  1  1  0  0  0
 17 16  1  0  0  0  0
 18 21  1  6  0  0  0
 18 15  1  0  0  0  0
 18 19  1  0  0  0  0
 19 17  1  0  0  0  0
 20 21  1  0  0  0  0
 21 23  1  0  0  0  0
 22 21  1  0  0  0  0
 23 24  1  6  0  0  0
 23 25  1  0  0  0  0
 25 27  1  0  0  0  0
 27 28  2  0  0  0  0
 27 26  1  0  0  0  0
 30 29  1  0  0  0  0
 31  4  1  0  0  0  0
 32 31  1  0  0  0  0
 33 32  1  0  0  0  0
 34 35  2  0  0  0  0
 34 33  1  0  0  0  0
 36 37  1  0  0  0  0
 36 34  1  1  0  0  0
 38 36  1  0  0  0  0
 39 38  2  0  0  0  0
 39 40  1  0  0  0  0
 40 41  1  0  0  0  0
 40 37  2  0  0  0  0
 42 44  1  0  0  0  0
 42 41  1  0  0  0  0
 43 42  1  0  0  0  0
M  END
>  <MODEL>
4

>  <REMARK>
 VINA RESULT:      -8.3      4.222      9.914
  Name = 
  13 active torsions:
  status: ('A' for Active; 'I' for Inactive)
    1  A    between atoms: C_6  and  C_33
    2  A    between atoms: C_7  and  C_41
    3  A    between atoms: C_8  and  C_18
    4  A    between atoms: C_8  and  C_25
    5  A    between atoms: C_9  and  C_12
    6  A    between atoms: C_13  and  N_24
    7  A    between atoms: C_14  and  C_17
    8  A    between atoms: N_15  and  C_38
    9  A    between atoms: N_16  and  N_23
   10  A    between atoms: C_18  and  C_27
   11  A    between atoms: C_19  and  C_25
   12  A    between atoms: N_23  and  C_38
   13  A    between atoms: C_41  and  C_44
                            x       y       z     vdW  Elec       q    Type
                         _______ _______ _______ _____ _____    ______ ____

>  <TORSDO>
F 13

$$$$
=
 OpenBabel10222415453D

 44 48  0  0  1  0  0  0  0  0999 V2000
  190.5140  177.0050  145.2400 C   0  0  0  0  0  3  0  0  0  0  0  0
  186.4880  177.9430  145.3450 C   0  0  0  0  0  3  0  0  0  0  0  0
  189.9410  177.1630  146.5250 C   0  0  0  0  0  0  0  0  0  0  0  0
  187.4510  177.6950  143.3000 N   0  0  0  0  0  0  0  0  0  0  0  0
  186.2970  177.9630  143.9600 C   0  0  0  0  0  0  0  0  0  0  0  0
  189.7370  177.1700  144.0810 C   0  0  0  0  0  3  0  0  0  0  0  0
  187.8290  177.6390  145.4880 C   0  0  0  0  0  0  0  0  0  0  0  0
  188.5770  177.4850  146.6540 C   0  0  0  0  0  3  0  0  0  0  0  0
  188.3880  177.4940  144.2440 C   0  0  0  0  0  0  0  0  0  0  0  0
  185.0030  178.2470  143.3140 C   0  0  0  0  0  0  0  0  0  0  0  0
  183.4780  178.3640  141.8560 C   0  0  0  0  0  0  0  0  0  0  0  0
  183.9890  178.8930  143.9270 N   0  0  0  0  0  0  0  0  0  0  0  0
  183.0110  178.9670  143.0040 C   0  0  0  0  0  2  0  0  0  0  0  0
  184.7270  177.8990  142.0410 N   0  0  0  0  0  0  0  0  0  0  0  0
  183.3920  177.2710  139.6480 C   0  0  0  0  0  2  0  0  0  0  0  0
  182.6870  178.1900  140.6000 C   0  0  2  0  0  3  0  0  0  0  0  0
  182.5780  179.4870  139.8350 C   0  0  0  0  0  2  0  0  0  0  0  0
  183.4780  178.0700  138.3570 C   0  0  2  0  0  3  0  0  0  0  0  0
  182.6320  179.1890  138.4660 O   0  0  0  0  0  0  0  0  0  0  0  0
  182.4770  176.0420  137.5780 O   0  0  0  0  0  1  0  0  0  0  0  0
  183.1100  177.2070  137.1320 C   0  0  0  0  0  0  0  0  0  0  0  0
  182.2280  177.9120  136.3050 O   0  0  0  0  0  1  0  0  0  0  0  0
  184.3720  176.8100  136.3430 C   0  0  2  0  0  3  0  0  0  0  0  0
  184.3440  175.3990  135.9810 N   0  0  0  0  0  1  0  0  0  0  0  0
  185.6440  177.1040  137.1390 C   0  0  0  0  0  2  0  0  0  0  0  0
  186.8200  177.6280  135.1290 O   0  0  0  0  0  0  0  0  0  0  0  0
  186.5930  177.9250  136.3310 C   0  0  0  0  0  0  0  0  0  0  0  0
  187.2050  179.0370  136.8960 O   0  0  0  0  0  1  0  0  0  0  0  0
  191.9910  176.2820  147.7220 C   0  0  0  0  0  1  0  0  0  0  0  0
  190.7280  177.0020  147.7080 N   0  0  0  0  0  2  0  0  0  0  0  0
  187.6110  177.6850  141.9010 N   0  0  0  0  0  2  0  0  0  0  0  0
  188.2250  178.7740  141.1550 C   0  0  0  0  0  2  0  0  0  0  0  0
  188.5860  178.3130  139.8250 N   0  0  0  0  0  2  0  0  0  0  0  0
  189.8460  177.7050  139.5360 C   0  0  0  0  0  0  0  0  0  0  0  0
  190.7300  177.6090  140.4320 O   0  0  0  0  0  0  0  0  0  0  0  0
  190.1050  177.1890  138.1560 C   0  0  1  0  0  3  0  0  0  0  0  0
  191.4460  176.6330  138.0620 N   0  0  0  0  0  0  0  0  0  0  0  0
  189.2430  176.0010  137.8650 C   0  0  0  0  0  3  0  0  0  0  0  0
  189.9680  174.9570  137.6390 N   0  0  0  0  0  0  0  0  0  0  0  0
  191.3160  175.3840  137.7690 C   0  0  0  0  0  0  0  0  0  0  0  0
  192.4870  174.4700  137.6050 C   0  0  0  0  0  2  0  0  0  0  0  0
  193.8110  175.2090  137.4200 C   0  0  0  0  0  3  0  0  0  0  0  0
  194.0600  175.5780  135.9690 C   0  0  0  0  0  1  0  0  0  0  0  0
  194.9820  174.4240  137.9830 C   0  0  0  0  0  1  0  0  0  0  0  0
  1  3  1  0  0  0  0
  2  7  1  0  0  0  0
  3  8  2  0  0  0  0
  3 30  1  0  0  0  0
  4  5  1  0  0  0  0
  4  9  1  0  0  0  0
  5  2  2  0  0  0  0
  6  9  1  0  0  0  0
  6  1  2  0  0  0  0
  7  8  1  0  0  0  0
  9  7  2  0  0  0  0
 10 12  2  0  0  0  0
 10  5  1  0  0  0  0
 11 14  2  0  0  0  0
 11 13  1  0  0  0  0
 13 12  1  0  0  0  0
 14 10  1  0  0  0  0
 15 16  1  0  0  0  0
 16 11  1  1  0  0  0
 17 16  1  0  0  0  0
 18 21  1  6  0  0  0
 18 19  1  0  0  0  0
 18 15  1  0  0  0  0
 19 17  1  0  0  0  0
 21 20  1  0  0  0  0
 22 21  1  0  0  0  0
 23 24  1  1  0  0  0
 23 21  1  0  0  0  0
 23 25  1  0  0  0  0
 26 27  2  0  0  0  0
 27 28  1  0  0  0  0
 27 25  1  0  0  0  0
 30 29  1  0  0  0  0
 31  4  1  0  0  0  0
 32 31  1  0  0  0  0
 33 32  1  0  0  0  0
 34 33  1  0  0  0  0
 34 35  2  0  0  0  0
 36 34  1  1  0  0  0
 37 36  1  0  0  0  0
 38 36  1  0  0  0  0
 39 40  1  0  0  0  0
 39 38  2  0  0  0  0
 40 37  2  0  0  0  0
 41 40  1  0  0  0  0
 42 41  1  0  0  0  0
 42 44  1  0  0  0  0
 43 42  1  0  0  0  0
M  END
>  <MODEL>
5

>  <REMARK>
 VINA RESULT:      -8.1      3.132      8.397
  Name = 
  13 active torsions:
  status: ('A' for Active; 'I' for Inactive)
    1  A    between atoms: C_6  and  C_33
    2  A    between atoms: C_7  and  C_41
    3  A    between atoms: C_8  and  C_18
    4  A    between atoms: C_8  and  C_25
    5  A    between atoms: C_9  and  C_12
    6  A    between atoms: C_13  and  N_24
    7  A    between atoms: C_14  and  C_17
    8  A    between atoms: N_15  and  C_38
    9  A    between atoms: N_16  and  N_23
   10  A    between atoms: C_18  and  C_27
   11  A    between atoms: C_19  and  C_25
   12  A    between atoms: N_23  and  C_38
   13  A    between atoms: C_41  and  C_44
                            x       y       z     vdW  Elec       q    Type
                         _______ _______ _______ _____ _____    ______ ____

>  <TORSDO>
F 13

$$$$
=
 OpenBabel10222415453D

 44 48  0  0  1  0  0  0  0  0999 V2000
  191.1430  176.7380  145.2340 C   0  0  0  0  0  3  0  0  0  0  0  0
  187.1910  177.8780  145.6620 C   0  0  0  0  0  3  0  0  0  0  0  0
  190.6890  176.9370  146.5610 C   0  0  0  0  0  0  0  0  0  0  0  0
  187.9660  177.5630  143.5480 N   0  0  0  0  0  0  0  0  0  0  0  0
  186.8860  177.8950  144.2980 C   0  0  0  0  0  0  0  0  0  0  0  0
  190.2810  176.9320  144.1420 C   0  0  0  0  0  3  0  0  0  0  0  0
  188.5240  177.5080  145.6980 C   0  0  0  0  0  0  0  0  0  0  0  0
  189.3580  177.3280  146.7980 C   0  0  0  0  0  3  0  0  0  0  0  0
  188.9680  177.3240  144.4130 C   0  0  0  0  0  0  0  0  0  0  0  0
  185.5580  178.2370  143.7580 C   0  0  0  0  0  0  0  0  0  0  0  0
  183.9780  178.5730  142.3960 C   0  0  0  0  0  0  0  0  0  0  0  0
  184.5370  178.6850  144.5190 N   0  0  0  0  0  0  0  0  0  0  0  0
  183.5250  178.8970  143.6560 C   0  0  0  0  0  2  0  0  0  0  0  0
  185.2530  178.1470  142.4480 N   0  0  0  0  0  0  0  0  0  0  0  0
  182.9490  177.2470  140.5910 C   0  0  0  0  0  2  0  0  0  0  0  0
  183.1520  178.6220  141.1510 C   0  0  2  0  0  3  0  0  0  0  0  0
  183.8670  179.3590  140.0460 C   0  0  0  0  0  2  0  0  0  0  0  0
  183.4170  177.3610  139.1490 C   0  0  2  0  0  3  0  0  0  0  0  0
  183.5640  178.7250  138.8330 O   0  0  0  0  0  0  0  0  0  0  0  0
  181.7530  175.6640  138.8770 O   0  0  0  0  0  1  0  0  0  0  0  0
  182.4390  176.6650  138.1800 C   0  0  0  0  0  0  0  0  0  0  0  0
  181.5110  177.5930  137.6960 O   0  0  0  0  0  1  0  0  0  0  0  0
  183.1980  176.0160  137.0070 C   0  0  2  0  0  3  0  0  0  0  0  0
  183.0130  176.7730  135.7760 N   0  0  0  0  0  1  0  0  0  0  0  0
  182.7500  174.5700  136.7850 C   0  0  0  0  0  2  0  0  0  0  0  0
  184.5550  173.5500  137.9690 O   0  0  0  0  0  1  0  0  0  0  0  0
  183.9110  173.6370  136.8910 C   0  0  0  0  0  0  0  0  0  0  0  0
  184.2620  172.8400  135.8100 O   0  0  0  0  0  0  0  0  0  0  0  0
  192.4840  175.6280  147.7740 C   0  0  0  0  0  1  0  0  0  0  0  0
  191.5640  176.7480  147.6760 N   0  0  0  0  0  2  0  0  0  0  0  0
  188.0070  177.5320  142.1410 N   0  0  0  0  0  2  0  0  0  0  0  0
  188.4860  178.6400  141.3270 C   0  0  0  0  0  2  0  0  0  0  0  0
  189.0550  178.1290  140.0910 N   0  0  0  0  0  2  0  0  0  0  0  0
  188.3530  178.1630  138.8480 C   0  0  0  0  0  0  0  0  0  0  0  0
  187.1640  178.5850  138.7960 O   0  0  0  0  0  0  0  0  0  0  0  0
  189.0430  177.6860  137.6090 C   0  0  1  0  0  3  0  0  0  0  0  0
  190.3480  177.1310  137.9340 N   0  0  0  0  0  0  0  0  0  0  0  0
  188.3290  176.5080  137.0250 C   0  0  0  0  0  3  0  0  0  0  0  0
  189.0970  175.4700  137.0130 N   0  0  0  0  0  0  0  0  0  0  0  0
  190.3280  175.8910  137.5800 C   0  0  0  0  0  0  0  0  0  0  0  0
  191.4980  174.9810  137.7740 C   0  0  0  0  0  2  0  0  0  0  0  0
  192.4430  174.9450  136.5740 C   0  0  0  0  0  3  0  0  0  0  0  0
  193.0790  173.5790  136.3920 C   0  0  0  0  0  1  0  0  0  0  0  0
  193.5060  176.0250  136.6580 C   0  0  0  0  0  1  0  0  0  0  0  0
  1  3  1  0  0  0  0
  2  7  1  0  0  0  0
  3  8  2  0  0  0  0
  3 30  1  0  0  0  0
  4  5  1  0  0  0  0
  4  9  1  0  0  0  0
  5  2  2  0  0  0  0
  6  9  1  0  0  0  0
  6  1  2  0  0  0  0
  7  8  1  0  0  0  0
  9  7  2  0  0  0  0
 10  5  1  0  0  0  0
 10 12  2  0  0  0  0
 11 14  2  0  0  0  0
 11 13  1  0  0  0  0
 13 12  1  0  0  0  0
 14 10  1  0  0  0  0
 15 16  1  0  0  0  0
 16 11  1  1  0  0  0
 17 16  1  0  0  0  0
 18 21  1  6  0  0  0
 18 15  1  0  0  0  0
 19 18  1  0  0  0  0
 19 17  1  0  0  0  0
 21 20  1  0  0  0  0
 22 21  1  0  0  0  0
 23 24  1  6  0  0  0
 23 21  1  0  0  0  0
 25 27  1  0  0  0  0
 25 23  1  0  0  0  0
 27 26  1  0  0  0  0
 28 27  2  0  0  0  0
 30 29  1  0  0  0  0
 31  4  1  0  0  0  0
 32 31  1  0  0  0  0
 33 32  1  0  0  0  0
 34 33  1  0  0  0  0
 35 34  2  0  0  0  0
 36 37  1  0  0  0  0
 36 34  1  1  0  0  0
 38 36  1  0  0  0  0
 39 38  2  0  0  0  0
 39 40  1  0  0  0  0
 40 41  1  0  0  0  0
 40 37  2  0  0  0  0
 42 44  1  0  0  0  0
 42 41  1  0  0  0  0
 43 42  1  0  0  0  0
M  END
>  <MODEL>
6

>  <REMARK>
 VINA RESULT:      -8.1      3.634      8.923
  Name = 
  13 active torsions:
  status: ('A' for Active; 'I' for Inactive)
    1  A    between atoms: C_6  and  C_33
    2  A    between atoms: C_7  and  C_41
    3  A    between atoms: C_8  and  C_18
    4  A    between atoms: C_8  and  C_25
    5  A    between atoms: C_9  and  C_12
    6  A    between atoms: C_13  and  N_24
    7  A    between atoms: C_14  and  C_17
    8  A    between atoms: N_15  and  C_38
    9  A    between atoms: N_16  and  N_23
   10  A    between atoms: C_18  and  C_27
   11  A    between atoms: C_19  and  C_25
   12  A    between atoms: N_23  and  C_38
   13  A    between atoms: C_41  and  C_44
                            x       y       z     vdW  Elec       q    Type
                         _______ _______ _______ _____ _____    ______ ____

>  <TORSDO>
F 13

$$$$
=
 OpenBabel10222415453D

 44 48  0  0  1  0  0  0  0  0999 V2000
  191.1720  176.8960  144.9440 C   0  0  0  0  0  3  0  0  0  0  0  0
  187.2410  177.9110  145.7250 C   0  0  0  0  0  3  0  0  0  0  0  0
  190.8080  176.9860  146.3100 C   0  0  0  0  0  0  0  0  0  0  0  0
  187.8720  177.7710  143.5450 N   0  0  0  0  0  0  0  0  0  0  0  0
  186.8410  178.0210  144.3900 C   0  0  0  0  0  0  0  0  0  0  0  0
  190.2330  177.1500  143.9310 C   0  0  0  0  0  3  0  0  0  0  0  0
  188.5790  177.5700  145.6420 C   0  0  0  0  0  0  0  0  0  0  0  0
  189.4910  177.3280  146.6660 C   0  0  0  0  0  3  0  0  0  0  0  0
  188.9360  177.4910  144.3190 C   0  0  0  0  0  0  0  0  0  0  0  0
  185.4720  178.3720  143.9690 C   0  0  0  0  0  0  0  0  0  0  0  0
  183.6900  178.4690  142.8390 C   0  0  0  0  0  0  0  0  0  0  0  0
  184.6810  179.2290  144.6470 N   0  0  0  0  0  0  0  0  0  0  0  0
  183.5400  179.2920  143.9340 C   0  0  0  0  0  2  0  0  0  0  0  0
  184.8980  177.8780  142.8540 N   0  0  0  0  0  0  0  0  0  0  0  0
  183.0650  178.7250  140.4680 C   0  0  0  0  0  2  0  0  0  0  0  0
  182.6350  178.2150  141.8100 C   0  0  2  0  0  3  0  0  0  0  0  0
  181.3790  178.9950  142.1070 C   0  0  0  0  0  2  0  0  0  0  0  0
  181.9260  179.6350  140.0360 C   0  0  2  0  0  3  0  0  0  0  0  0
  180.8280  179.4130  140.8880 O   0  0  0  0  0  0  0  0  0  0  0  0
  182.5460  178.6350  137.9530 O   0  0  0  0  0  1  0  0  0  0  0  0
  181.5450  179.4020  138.5590 C   0  0  0  0  0  0  0  0  0  0  0  0
  180.3350  178.7010  138.4880 O   0  0  0  0  0  1  0  0  0  0  0  0
  181.4260  180.7400  137.8060 C   0  0  2  0  0  3  0  0  0  0  0  0
  181.9720  181.8380  138.5920 N   0  0  0  0  0  1  0  0  0  0  0  0
  179.9730  181.0490  137.4440 C   0  0  0  0  0  2  0  0  0  0  0  0
  179.0470  182.8320  136.1540 O   0  0  0  0  0  1  0  0  0  0  0  0
  179.9040  181.9120  136.2280 C   0  0  0  0  0  0  0  0  0  0  0  0
  180.8060  181.7220  135.1900 O   0  0  0  0  0  0  0  0  0  0  0  0
  192.4110  175.4460  147.5230 C   0  0  0  0  0  1  0  0  0  0  0  0
  191.7620  176.7350  147.3450 N   0  0  0  0  0  2  0  0  0  0  0  0
  187.8150  177.8440  142.1400 N   0  0  0  0  0  2  0  0  0  0  0  0
  188.4800  178.8800  141.3630 C   0  0  0  0  0  2  0  0  0  0  0  0
  188.2840  178.6290  139.9450 N   0  0  0  0  0  2  0  0  0  0  0  0
  189.2060  177.8680  139.1630 C   0  0  0  0  0  0  0  0  0  0  0  0
  190.2770  177.4380  139.6760 O   0  0  0  0  0  0  0  0  0  0  0  0
  188.8880  177.5920  137.7280 C   0  0  1  0  0  3  0  0  0  0  0  0
  187.6310  176.8680  137.6130 N   0  0  0  0  0  0  0  0  0  0  0  0
  188.5950  178.8640  136.9960 C   0  0  0  0  0  3  0  0  0  0  0  0
  187.3870  178.8590  136.5410 N   0  0  0  0  0  0  0  0  0  0  0  0
  186.8260  177.6180  136.9400 C   0  0  0  0  0  0  0  0  0  0  0  0
  185.4210  177.2130  136.6320 C   0  0  0  0  0  2  0  0  0  0  0  0
  185.2620  176.5750  135.2530 C   0  0  0  0  0  3  0  0  0  0  0  0
  183.9510  176.9620  134.5940 C   0  0  0  0  0  1  0  0  0  0  0  0
  185.4100  175.0650  135.3080 C   0  0  0  0  0  1  0  0  0  0  0  0
  1  3  1  0  0  0  0
  3  8  2  0  0  0  0
  3 30  1  0  0  0  0
  4  9  1  0  0  0  0
  4  5  1  0  0  0  0
  5  2  2  0  0  0  0
  6  9  1  0  0  0  0
  6  1  2  0  0  0  0
  7  2  1  0  0  0  0
  7  8  1  0  0  0  0
  9  7  2  0  0  0  0
 10  5  1  0  0  0  0
 10 12  2  0  0  0  0
 11 14  2  0  0  0  0
 11 13  1  0  0  0  0
 13 12  1  0  0  0  0
 14 10  1  0  0  0  0
 15 16  1  0  0  0  0
 16 17  1  0  0  0  0
 16 11  1  1  0  0  0
 18 21  1  6  0  0  0
 18 15  1  0  0  0  0
 18 19  1  0  0  0  0
 19 17  1  0  0  0  0
 20 21  1  0  0  0  0
 22 21  1  0  0  0  0
 23 21  1  0  0  0  0
 23 24  1  1  0  0  0
 25 23  1  0  0  0  0
 26 27  1  0  0  0  0
 27 25  1  0  0  0  0
 28 27  2  0  0  0  0
 30 29  1  0  0  0  0
 31  4  1  0  0  0  0
 32 31  1  0  0  0  0
 33 32  1  0  0  0  0
 34 35  2  0  0  0  0
 34 33  1  0  0  0  0
 36 34  1  1  0  0  0
 37 36  1  0  0  0  0
 38 36  1  0  0  0  0
 39 40  1  0  0  0  0
 39 38  2  0  0  0  0
 40 37  2  0  0  0  0
 41 40  1  0  0  0  0
 42 44  1  0  0  0  0
 42 41  1  0  0  0  0
 43 42  1  0  0  0  0
M  END
>  <MODEL>
7

>  <REMARK>
 VINA RESULT:      -8.1      4.498     10.316
  Name = 
  13 active torsions:
  status: ('A' for Active; 'I' for Inactive)
    1  A    between atoms: C_6  and  C_33
    2  A    between atoms: C_7  and  C_41
    3  A    between atoms: C_8  and  C_18
    4  A    between atoms: C_8  and  C_25
    5  A    between atoms: C_9  and  C_12
    6  A    between atoms: C_13  and  N_24
    7  A    between atoms: C_14  and  C_17
    8  A    between atoms: N_15  and  C_38
    9  A    between atoms: N_16  and  N_23
   10  A    between atoms: C_18  and  C_27
   11  A    between atoms: C_19  and  C_25
   12  A    between atoms: N_23  and  C_38
   13  A    between atoms: C_41  and  C_44
                            x       y       z     vdW  Elec       q    Type
                         _______ _______ _______ _____ _____    ______ ____

>  <TORSDO>
F 13

$$$$
=
 OpenBabel10222415453D

 44 48  0  0  1  0  0  0  0  0999 V2000
  190.4030  177.6920  144.9560 C   0  0  0  0  0  3  0  0  0  0  0  0
  190.7110  176.3860  141.0450 C   0  0  0  0  0  3  0  0  0  0  0  0
  191.3220  176.6420  144.7180 C   0  0  0  0  0  0  0  0  0  0  0  0
  189.2350  178.0610  141.4750 N   0  0  0  0  0  0  0  0  0  0  0  0
  189.7670  177.2680  140.5120 C   0  0  0  0  0  0  0  0  0  0  0  0
  189.6450  178.2370  143.9060 C   0  0  0  0  0  3  0  0  0  0  0  0
  190.7280  176.6960  142.3930 C   0  0  0  0  0  0  0  0  0  0  0  0
  191.4890  176.1350  143.4160 C   0  0  0  0  0  3  0  0  0  0  0  0
  189.8320  177.7080  142.6280 C   0  0  0  0  0  0  0  0  0  0  0  0
  189.4000  177.3140  139.0850 C   0  0  0  0  0  0  0  0  0  0  0  0
  188.3640  176.9820  137.2740 C   0  0  0  0  0  0  0  0  0  0  0  0
  190.1420  177.9360  138.1450 N   0  0  0  0  0  0  0  0  0  0  0  0
  189.4840  177.7320  136.9880 C   0  0  0  0  0  2  0  0  0  0  0  0
  188.2950  176.7200  138.5920 N   0  0  0  0  0  0  0  0  0  0  0  0
  185.9670  177.0180  136.7020 C   0  0  0  0  0  2  0  0  0  0  0  0
  187.3320  176.5710  136.2730 C   0  0  2  0  0  3  0  0  0  0  0  0
  187.2110  175.0690  136.1940 C   0  0  0  0  0  2  0  0  0  0  0  0
  185.1340  175.7460  136.6700 C   0  0  2  0  0  3  0  0  0  0  0  0
  185.8610  174.7520  135.9890 O   0  0  0  0  0  0  0  0  0  0  0  0
  183.8220  177.1670  135.2620 O   0  0  0  0  0  1  0  0  0  0  0  0
  183.7600  175.9850  136.0090 C   0  0  0  0  0  0  0  0  0  0  0  0
  183.4570  174.9240  135.1480 O   0  0  0  0  0  1  0  0  0  0  0  0
  182.6580  176.1330  137.0740 C   0  0  2  0  0  3  0  0  0  0  0  0
  182.3340  177.5350  137.3060 N   0  0  0  0  0  1  0  0  0  0  0  0
  183.0680  175.4830  138.3950 C   0  0  0  0  0  2  0  0  0  0  0  0
  183.0070  176.9970  140.2390 O   0  0  0  0  0  1  0  0  0  0  0  0
  182.3880  176.1490  139.5450 C   0  0  0  0  0  0  0  0  0  0  0  0
  181.0600  175.8570  139.8310 O   0  0  0  0  0  0  0  0  0  0  0  0
  191.7430  176.2520  147.1840 C   0  0  0  0  0  1  0  0  0  0  0  0
  192.0920  176.0790  145.7830 N   0  0  0  0  0  2  0  0  0  0  0  0
  188.2250  179.0220  141.2790 N   0  0  0  0  0  2  0  0  0  0  0  0
  186.8050  178.7010  141.2560 C   0  0  0  0  0  2  0  0  0  0  0  0
  186.4280  178.0610  142.5050 N   0  0  0  0  0  2  0  0  0  0  0  0
  185.5010  178.6460  143.4210 C   0  0  0  0  0  0  0  0  0  0  0  0
  185.0220  179.7930  143.2010 O   0  0  0  0  0  0  0  0  0  0  0  0
  185.1110  177.8820  144.6470 C   0  0  1  0  0  3  0  0  0  0  0  0
  186.2340  177.7820  145.5660 N   0  0  0  0  0  0  0  0  0  0  0  0
  184.1050  178.6470  145.4480 C   0  0  0  0  0  3  0  0  0  0  0  0
  184.5730  178.9250  146.6190 N   0  0  0  0  0  0  0  0  0  0  0  0
  185.8830  178.3790  146.6540 C   0  0  0  0  0  0  0  0  0  0  0  0
  186.7920  178.4970  147.8340 C   0  0  0  0  0  2  0  0  0  0  0  0
  188.1830  177.9150  147.5890 C   0  0  0  0  0  3  0  0  0  0  0  0
  188.2040  176.4050  147.7430 C   0  0  0  0  0  1  0  0  0  0  0  0
  189.2320  178.5590  148.4780 C   0  0  0  0  0  1  0  0  0  0  0  0
  2  7  1  0  0  0  0
  3  1  1  0  0  0  0
  3 30  1  0  0  0  0
  4  9  1  0  0  0  0
  5  2  2  0  0  0  0
  5  4  1  0  0  0  0
  6  1  2  0  0  0  0
  7  9  2  0  0  0  0
  7  8  1  0  0  0  0
  8  3  2  0  0  0  0
  9  6  1  0  0  0  0
 10  5  1  0  0  0  0
 11 14  2  0  0  0  0
 12 10  2  0  0  0  0
 13 11  1  0  0  0  0
 13 12  1  0  0  0  0
 14 10  1  0  0  0  0
 16 15  1  0  0  0  0
 16 11  1  1  0  0  0
 17 16  1  0  0  0  0
 18 21  1  6  0  0  0
 18 15  1  0  0  0  0
 19 17  1  0  0  0  0
 19 18  1  0  0  0  0
 20 21  1  0  0  0  0
 21 23  1  0  0  0  0
 22 21  1  0  0  0  0
 23 24  1  1  0  0  0
 23 25  1  0  0  0  0
 25 27  1  0  0  0  0
 27 28  2  0  0  0  0
 27 26  1  0  0  0  0
 30 29  1  0  0  0  0
 31  4  1  0  0  0  0
 32 31  1  0  0  0  0
 32 33  1  0  0  0  0
 33 34  1  0  0  0  0
 35 34  2  0  0  0  0
 36 34  1  6  0  0  0
 36 38  1  0  0  0  0
 36 37  1  0  0  0  0
 37 40  2  0  0  0  0
 38 39  2  0  0  0  0
 39 40  1  0  0  0  0
 40 41  1  0  0  0  0
 42 43  1  0  0  0  0
 42 41  1  0  0  0  0
 42 44  1  0  0  0  0
M  END
>  <MODEL>
8

>  <REMARK>
 VINA RESULT:      -8.0      3.917      7.364
  Name = 
  13 active torsions:
  status: ('A' for Active; 'I' for Inactive)
    1  A    between atoms: C_6  and  C_33
    2  A    between atoms: C_7  and  C_41
    3  A    between atoms: C_8  and  C_18
    4  A    between atoms: C_8  and  C_25
    5  A    between atoms: C_9  and  C_12
    6  A    between atoms: C_13  and  N_24
    7  A    between atoms: C_14  and  C_17
    8  A    between atoms: N_15  and  C_38
    9  A    between atoms: N_16  and  N_23
   10  A    between atoms: C_18  and  C_27
   11  A    between atoms: C_19  and  C_25
   12  A    between atoms: N_23  and  C_38
   13  A    between atoms: C_41  and  C_44
                            x       y       z     vdW  Elec       q    Type
                         _______ _______ _______ _____ _____    ______ ____

>  <TORSDO>
F 13

$$$$
=
 OpenBabel10222415453D

 44 48  0  0  1  0  0  0  0  0999 V2000
  185.7340  178.3540  146.8690 C   0  0  0  0  0  3  0  0  0  0  0  0
  186.2420  177.8950  142.7910 C   0  0  0  0  0  3  0  0  0  0  0  0
  186.9390  177.7350  146.4540 C   0  0  0  0  0  0  0  0  0  0  0  0
  184.3150  178.8700  143.5020 N   0  0  0  0  0  0  0  0  0  0  0  0
  185.0270  178.4760  142.4170 C   0  0  0  0  0  0  0  0  0  0  0  0
  184.7790  178.7730  145.9270 C   0  0  0  0  0  3  0  0  0  0  0  0
  186.2300  177.9650  144.1720 C   0  0  0  0  0  0  0  0  0  0  0  0
  187.1920  177.5370  145.0840 C   0  0  0  0  0  3  0  0  0  0  0  0
  185.0600  178.5570  144.5770 C   0  0  0  0  0  0  0  0  0  0  0  0
  184.5860  178.6290  141.0180 C   0  0  0  0  0  0  0  0  0  0  0  0
  183.6710  178.2360  139.1550 C   0  0  0  0  0  0  0  0  0  0  0  0
  184.9420  179.6680  140.2340 N   0  0  0  0  0  0  0  0  0  0  0  0
  184.3570  179.4250  139.0450 C   0  0  0  0  0  2  0  0  0  0  0  0
  183.7990  177.7290  140.3950 N   0  0  0  0  0  0  0  0  0  0  0  0
  182.1470  176.3900  138.5640 C   0  0  0  0  0  2  0  0  0  0  0  0
  182.8420  177.6240  138.0720 C   0  0  2  0  0  3  0  0  0  0  0  0
  183.7030  177.1240  136.9380 C   0  0  0  0  0  2  0  0  0  0  0  0
  182.5430  175.3170  137.5620 C   0  0  2  0  0  3  0  0  0  0  0  0
  183.1320  175.9410  136.4470 O   0  0  0  0  0  0  0  0  0  0  0  0
  180.6880  174.0000  138.3020 O   0  0  0  0  0  1  0  0  0  0  0  0
  181.3320  174.4560  137.1470 C   0  0  0  0  0  0  0  0  0  0  0  0
  180.4330  175.2310  136.4050 O   0  0  0  0  0  1  0  0  0  0  0  0
  181.7840  173.2360  136.3220 C   0  0  2  0  0  3  0  0  0  0  0  0
  180.7380  172.8040  135.4050 N   0  0  0  0  0  1  0  0  0  0  0  0
  182.1800  172.0680  137.2250 C   0  0  0  0  0  2  0  0  0  0  0  0
  184.5660  172.1490  137.2110 O   0  0  0  0  0  1  0  0  0  0  0  0
  183.5250  171.5420  136.8460 C   0  0  0  0  0  0  0  0  0  0  0  0
  183.6310  170.3640  136.1180 O   0  0  0  0  0  0  0  0  0  0  0  0
  188.6010  178.2170  148.3010 C   0  0  0  0  0  1  0  0  0  0  0  0
  187.9110  177.3020  147.4070 N   0  0  0  0  0  2  0  0  0  0  0  0
  183.0310  179.4480  143.4730 N   0  0  0  0  0  2  0  0  0  0  0  0
  181.8020  178.6760  143.5840 C   0  0  0  0  0  2  0  0  0  0  0  0
  180.9740  178.9050  142.4110 N   0  0  0  0  0  2  0  0  0  0  0  0
  180.1260  180.0470  142.2780 C   0  0  0  0  0  0  0  0  0  0  0  0
  180.0150  180.8750  143.2240 O   0  0  0  0  0  0  0  0  0  0  0  0
  179.3660  180.2440  141.0040 C   0  0  1  0  0  3  0  0  0  0  0  0
  180.0920  181.1340  140.1100 N   0  0  0  0  0  0  0  0  0  0  0  0
  179.3110  178.9720  140.2180 C   0  0  0  0  0  3  0  0  0  0  0  0
  179.8960  179.1170  139.0770 N   0  0  0  0  0  0  0  0  0  0  0  0
  180.3630  180.4570  139.0460 C   0  0  0  0  0  0  0  0  0  0  0  0
  181.1230  181.0380  137.8970 C   0  0  0  0  0  2  0  0  0  0  0  0
  180.3810  180.9330  136.5660 C   0  0  0  0  0  3  0  0  0  0  0  0
  180.7950  179.7030  135.7790 C   0  0  0  0  0  1  0  0  0  0  0  0
  180.5450  182.1870  135.7260 C   0  0  0  0  0  1  0  0  0  0  0  0
  2  7  1  0  0  0  0
  3  1  1  0  0  0  0
  3 30  1  0  0  0  0
  4  9  1  0  0  0  0
  5  2  2  0  0  0  0
  5  4  1  0  0  0  0
  6  1  2  0  0  0  0
  7  9  2  0  0  0  0
  7  8  1  0  0  0  0
  8  3  2  0  0  0  0
  9  6  1  0  0  0  0
 10  5  1  0  0  0  0
 11 14  2  0  0  0  0
 12 10  2  0  0  0  0
 13 11  1  0  0  0  0
 13 12  1  0  0  0  0
 14 10  1  0  0  0  0
 16 15  1  0  0  0  0
 16 11  1  1  0  0  0
 17 16  1  0  0  0  0
 18 21  1  6  0  0  0
 18 15  1  0  0  0  0
 19 17  1  0  0  0  0
 19 18  1  0  0  0  0
 21 20  1  0  0  0  0
 22 21  1  0  0  0  0
 23 24  1  6  0  0  0
 23 21  1  0  0  0  0
 23 25  1  0  0  0  0
 27 26  1  0  0  0  0
 27 25  1  0  0  0  0
 28 27  2  0  0  0  0
 30 29  1  0  0  0  0
 31  4  1  0  0  0  0
 31 32  1  0  0  0  0
 33 32  1  0  0  0  0
 34 33  1  0  0  0  0
 34 35  2  0  0  0  0
 36 34  1  1  0  0  0
 37 36  1  0  0  0  0
 38 36  1  0  0  0  0
 39 38  2  0  0  0  0
 40 39  1  0  0  0  0
 40 37  2  0  0  0  0
 41 40  1  0  0  0  0
 42 41  1  0  0  0  0
 43 42  1  0  0  0  0
 44 42  1  0  0  0  0
M  END
>  <MODEL>
9

>  <REMARK>
 VINA RESULT:      -8.0      5.732      9.589
  Name = 
  13 active torsions:
  status: ('A' for Active; 'I' for Inactive)
    1  A    between atoms: C_6  and  C_33
    2  A    between atoms: C_7  and  C_41
    3  A    between atoms: C_8  and  C_18
    4  A    between atoms: C_8  and  C_25
    5  A    between atoms: C_9  and  C_12
    6  A    between atoms: C_13  and  N_24
    7  A    between atoms: C_14  and  C_17
    8  A    between atoms: N_15  and  C_38
    9  A    between atoms: N_16  and  N_23
   10  A    between atoms: C_18  and  C_27
   11  A    between atoms: C_19  and  C_25
   12  A    between atoms: N_23  and  C_38
   13  A    between atoms: C_41  and  C_44
                            x       y       z     vdW  Elec       q    Type
                         _______ _______ _______ _____ _____    ______ ____

>  <TORSDO>
F 13

$$$$
