=
 OpenBabel10222417253D

 28 29  0  0  1  0  0  0  0  0999 V2000
  187.5670  177.5830  143.6840 C   0  0  2  0  0  3  0  0  0  0  0  0
  188.2750  176.3950  143.2350 N   0  0  0  0  0  2  0  0  0  0  0  0
  188.8750  176.7240  142.0120 N   0  0  0  0  0  2  0  0  0  0  0  0
  190.7400  177.4080  140.7110 N   0  0  0  0  0  0  0  0  0  0  0  0
  190.2630  177.0650  141.8730 C   0  0  0  0  0  0  0  0  0  0  0  0
  190.8800  175.4120  138.6150 N   0  0  0  0  0  1  0  0  0  0  0  0
  188.6280  178.2360  137.7120 N   0  0  0  0  0  0  0  0  0  0  0  0
  189.1110  178.5950  139.0500 C   0  0  0  0  0  2  0  0  0  0  0  0
  189.2520  176.9530  137.3730 C   0  0  0  0  0  3  0  0  0  0  0  0
  190.0910  176.5950  138.5320 C   0  0  0  0  0  0  0  0  0  0  0  0
  190.0200  177.5010  139.4700 C   0  0  0  0  0  0  0  0  0  0  0  0
  191.6610  175.7950  143.5320 N   0  0  0  0  0  2  0  0  0  0  0  0
  191.5820  178.1330  143.5970 N   0  0  0  0  0  1  0  0  0  0  0  0
  191.1940  177.0420  143.0250 C   0  0  0  0  0  0  0  0  0  0  0  0
  187.6990  177.7360  145.1990 C   0  0  1  0  0  3  0  0  0  0  0  0
  185.9330  178.7810  146.6790 C   0  0  0  0  0  1  0  0  0  0  0  0
  186.3560  177.5390  145.9080 C   0  0  0  0  0  2  0  0  0  0  0  0
  188.6700  176.8220  145.7040 O   0  0  0  0  0  0  0  0  0  0  0  0
  190.9300  176.7230  146.8470 C   0  0  0  0  0  3  0  0  0  0  0  0
  190.3970  178.0580  148.5590 C   0  0  0  0  0  2  0  0  0  0  0  0
  189.2250  177.9340  147.7010 N   0  0  0  0  0  0  0  0  0  0  0  0
  189.5570  177.1650  146.7260 C   0  0  0  0  0  0  0  0  0  0  0  0
  191.4250  177.2430  147.9170 N   0  0  0  0  0  0  0  0  0  0  0  0
  186.1620  177.4710  143.3180 N   0  0  0  0  0  2  0  0  0  0  0  0
  186.3770  178.8810  141.4730 O   0  0  0  0  0  1  0  0  0  0  0  0
  185.7640  178.7370  142.7180 C   0  0  1  0  0  3  0  0  0  0  0  0
  184.2460  178.8190  142.5740 C   0  0  0  0  0  2  0  0  0  0  0  0
  183.5700  179.1540  143.8940 C   0  0  0  0  0  1  0  0  0  0  0  0
  1  2  1  1  0  0  0
  1 15  1  0  0  0  0
  3  2  1  0  0  0  0
  4  5  2  0  0  0  0
  5  3  1  0  0  0  0
  5 14  1  0  0  0  0
  7  8  1  0  0  0  0
  8 11  1  0  0  0  0
  9  7  2  0  0  0  0
  9 10  1  0  0  0  0
 10  6  1  0  0  0  0
 10 11  2  0  0  0  0
 11  4  1  0  0  0  0
 14 12  2  0  0  0  0
 14 13  1  0  0  0  0
 15 18  1  0  0  0  0
 15 17  1  1  0  0  0
 17 16  1  0  0  0  0
 18 22  1  0  0  0  0
 19 23  2  0  0  0  0
 21 20  1  0  0  0  0
 22 19  1  0  0  0  0
 22 21  2  0  0  0  0
 23 20  1  0  0  0  0
 24  1  1  0  0  0  0
 26 25  1  6  0  0  0
 26 24  1  0  0  0  0
 27 26  1  0  0  0  0
 27 28  1  0  0  0  0
M  END
>  <MODEL>
1

>  <REMARK>
 VINA RESULT:      -6.7      0.000      0.000
  Name = 
  11 active torsions:
  status: ('A' for Active; 'I' for Inactive)
    1  A    between atoms: O_5  and  C_16
    2  A    between atoms: O_5  and  C_23
    3  A    between atoms: C_10  and  C_15
    4  A    between atoms: C_10  and  N_22
    5  A    between atoms: N_11  and  C_14
    6  A    between atoms: N_11  and  N_17
    7  A    between atoms: C_13  and  C_16
    8  A    between atoms: C_14  and  C_16
    9  A    between atoms: C_14  and  N_22
   10  A    between atoms: N_20  and  C_26
   11  A    between atoms: C_24  and  C_27
                            x       y       z     vdW  Elec       q    Type
                         _______ _______ _______ _____ _____    ______ ____

>  <TORSDO>
F 11

$$$$
=
 OpenBabel10222417253D

 28 29  0  0  1  0  0  0  0  0999 V2000
  187.3420  177.9030  142.5320 C   0  0  2  0  0  3  0  0  0  0  0  0
  186.8440  178.9250  141.6260 N   0  0  0  0  0  2  0  0  0  0  0  0
  187.1020  178.4680  140.3260 N   0  0  0  0  0  2  0  0  0  0  0  0
  186.4140  177.9470  138.1140 N   0  0  0  0  0  0  0  0  0  0  0  0
  186.1140  178.4310  139.2850 C   0  0  0  0  0  0  0  0  0  0  0  0
  188.6790  179.5770  137.3330 N   0  0  0  0  0  1  0  0  0  0  0  0
  189.4340  175.9370  137.1190 N   0  0  0  0  0  0  0  0  0  0  0  0
  188.0440  175.9740  137.5880 C   0  0  0  0  0  2  0  0  0  0  0  0
  189.8580  177.3320  136.9620 C   0  0  0  0  0  3  0  0  0  0  0  0
  188.6950  178.1530  137.3450 C   0  0  0  0  0  0  0  0  0  0  0  0
  187.6800  177.4080  137.6960 C   0  0  0  0  0  0  0  0  0  0  0  0
  183.7580  178.0840  140.0900 N   0  0  0  0  0  1  0  0  0  0  0  0
  184.3910  180.1210  139.1290 N   0  0  0  0  0  2  0  0  0  0  0  0
  184.7360  178.9310  139.4940 C   0  0  0  0  0  0  0  0  0  0  0  0
  186.7720  178.1170  143.9340 C   0  0  1  0  0  3  0  0  0  0  0  0
  184.6900  179.1840  144.8960 C   0  0  0  0  0  1  0  0  0  0  0  0
  185.2410  178.1510  143.9240 C   0  0  0  0  0  2  0  0  0  0  0  0
  187.2440  177.1030  144.8170 O   0  0  0  0  0  0  0  0  0  0  0  0
  189.2490  177.3680  146.3440 C   0  0  0  0  0  3  0  0  0  0  0  0
  188.0940  177.9640  148.1630 C   0  0  0  0  0  2  0  0  0  0  0  0
  187.1460  177.7390  147.0790 N   0  0  0  0  0  0  0  0  0  0  0  0
  187.8330  177.3990  146.0470 C   0  0  0  0  0  0  0  0  0  0  0  0
  189.4070  177.6970  147.5810 N   0  0  0  0  0  0  0  0  0  0  0  0
  188.7960  177.9660  142.5730 N   0  0  0  0  0  2  0  0  0  0  0  0
  190.1150  177.0460  140.8840 O   0  0  0  0  0  1  0  0  0  0  0  0
  189.3040  176.7390  141.9770 C   0  0  1  0  0  3  0  0  0  0  0  0
  190.0850  175.9170  143.0010 C   0  0  0  0  0  2  0  0  0  0  0  0
  191.4070  176.5750  143.3650 C   0  0  0  0  0  1  0  0  0  0  0  0
  1  2  1  6  0  0  0
  1 24  1  0  0  0  0
  1 15  1  0  0  0  0
  3  2  1  0  0  0  0
  4  5  2  0  0  0  0
  5 14  1  0  0  0  0
  5  3  1  0  0  0  0
  6 10  1  0  0  0  0
  7  8  1  0  0  0  0
  8 11  1  0  0  0  0
  9  7  2  0  0  0  0
  9 10  1  0  0  0  0
 10 11  2  0  0  0  0
 11  4  1  0  0  0  0
 13 14  2  0  0  0  0
 14 12  1  0  0  0  0
 15 17  1  6  0  0  0
 15 18  1  0  0  0  0
 17 16  1  0  0  0  0
 18 22  1  0  0  0  0
 19 23  2  0  0  0  0
 21 20  1  0  0  0  0
 22 19  1  0  0  0  0
 22 21  2  0  0  0  0
 23 20  1  0  0  0  0
 26 25  1  6  0  0  0
 26 24  1  0  0  0  0
 26 27  1  0  0  0  0
 27 28  1  0  0  0  0
M  END
>  <MODEL>
2

>  <REMARK>
 VINA RESULT:      -6.5      2.210      4.361
  Name = 
  11 active torsions:
  status: ('A' for Active; 'I' for Inactive)
    1  A    between atoms: O_5  and  C_16
    2  A    between atoms: O_5  and  C_23
    3  A    between atoms: C_10  and  C_15
    4  A    between atoms: C_10  and  N_22
    5  A    between atoms: N_11  and  C_14
    6  A    between atoms: N_11  and  N_17
    7  A    between atoms: C_13  and  C_16
    8  A    between atoms: C_14  and  C_16
    9  A    between atoms: C_14  and  N_22
   10  A    between atoms: N_20  and  C_26
   11  A    between atoms: C_24  and  C_27
                            x       y       z     vdW  Elec       q    Type
                         _______ _______ _______ _____ _____    ______ ____

>  <TORSDO>
F 11

$$$$
=
 OpenBabel10222417253D

 28 29  0  0  1  0  0  0  0  0999 V2000
  186.0130  178.1170  142.5500 C   0  0  2  0  0  3  0  0  0  0  0  0
  186.8750  178.6530  141.5090 N   0  0  0  0  0  2  0  0  0  0  0  0
  188.1880  178.3130  141.8610 N   0  0  0  0  0  2  0  0  0  0  0  0
  190.3850  177.5990  141.3130 N   0  0  0  0  0  0  0  0  0  0  0  0
  189.1990  177.9510  140.9070 C   0  0  0  0  0  0  0  0  0  0  0  0
  190.3570  175.1600  142.8770 N   0  0  0  0  0  1  0  0  0  0  0  0
  191.7280  178.0400  144.7980 N   0  0  0  0  0  0  0  0  0  0  0  0
  191.4040  178.6210  143.4900 C   0  0  0  0  0  3  0  0  0  0  0  0
  191.3640  176.6210  144.7260 C   0  0  0  0  0  2  0  0  0  0  0  0
  190.8320  176.4100  143.3670 C   0  0  0  0  0  0  0  0  0  0  0  0
  190.8500  177.5160  142.6700 C   0  0  0  0  0  0  0  0  0  0  0  0
  188.6500  176.7420  138.7730 N   0  0  0  0  0  1  0  0  0  0  0  0
  188.9890  179.0570  138.7660 N   0  0  0  0  0  2  0  0  0  0  0  0
  188.9390  177.9620  139.4490 C   0  0  0  0  0  0  0  0  0  0  0  0
  184.5790  178.6090  142.3550 C   0  0  1  0  0  3  0  0  0  0  0  0
  182.9040  178.8190  144.2390 C   0  0  0  0  0  1  0  0  0  0  0  0
  184.1020  179.4480  143.5440 C   0  0  0  0  0  2  0  0  0  0  0  0
  184.4740  179.3530  141.1440 O   0  0  0  0  0  0  0  0  0  0  0  0
  183.2170  179.7870  138.9870 C   0  0  0  0  0  3  0  0  0  0  0  0
  182.3200  177.7460  138.8110 C   0  0  0  0  0  2  0  0  0  0  0  0
  183.1330  177.7810  140.0200 N   0  0  0  0  0  0  0  0  0  0  0  0
  183.6360  178.9610  140.0980 C   0  0  0  0  0  0  0  0  0  0  0  0
  182.4460  179.0810  138.2310 N   0  0  0  0  0  0  0  0  0  0  0  0
  186.5110  178.5400  143.8510 N   0  0  0  0  0  2  0  0  0  0  0  0
  187.4690  176.4540  144.2590 O   0  0  0  0  0  1  0  0  0  0  0  0
  186.5220  177.3710  144.7170 C   0  0  1  0  0  3  0  0  0  0  0  0
  186.8230  177.7650  146.1630 C   0  0  0  0  0  2  0  0  0  0  0  0
  185.7460  178.6730  146.7360 C   0  0  0  0  0  1  0  0  0  0  0  0
  1  2  1  6  0  0  0
  1 24  1  0  0  0  0
  2  3  1  0  0  0  0
  4 11  1  0  0  0  0
  5  4  2  0  0  0  0
  5  3  1  0  0  0  0
  6 10  1  0  0  0  0
  8  7  2  0  0  0  0
  9  7  1  0  0  0  0
 10  9  1  0  0  0  0
 11 10  2  0  0  0  0
 11  8  1  0  0  0  0
 12 14  1  0  0  0  0
 13 14  2  0  0  0  0
 14  5  1  0  0  0  0
 15  1  1  0  0  0  0
 15 17  1  1  0  0  0
 17 16  1  0  0  0  0
 18 15  1  0  0  0  0
 19 22  1  0  0  0  0
 20 21  1  0  0  0  0
 21 22  2  0  0  0  0
 22 18  1  0  0  0  0
 23 20  1  0  0  0  0
 23 19  2  0  0  0  0
 24 26  1  0  0  0  0
 26 25  1  6  0  0  0
 26 27  1  0  0  0  0
 27 28  1  0  0  0  0
M  END
>  <MODEL>
3

>  <REMARK>
 VINA RESULT:      -6.3      2.244      6.256
  Name = 
  11 active torsions:
  status: ('A' for Active; 'I' for Inactive)
    1  A    between atoms: O_5  and  C_16
    2  A    between atoms: O_5  and  C_23
    3  A    between atoms: C_10  and  C_15
    4  A    between atoms: C_10  and  N_22
    5  A    between atoms: N_11  and  C_14
    6  A    between atoms: N_11  and  N_17
    7  A    between atoms: C_13  and  C_16
    8  A    between atoms: C_14  and  C_16
    9  A    between atoms: C_14  and  N_22
   10  A    between atoms: N_20  and  C_26
   11  A    between atoms: C_24  and  C_27
                            x       y       z     vdW  Elec       q    Type
                         _______ _______ _______ _____ _____    ______ ____

>  <TORSDO>
F 11

$$$$
=
 OpenBabel10222417253D

 28 29  0  0  1  0  0  0  0  0999 V2000
  189.8350  177.4780  141.8820 C   0  0  2  0  0  3  0  0  0  0  0  0
  190.7120  176.8330  140.9180 N   0  0  0  0  0  2  0  0  0  0  0  0
  190.1720  177.0900  139.6500 N   0  0  0  0  0  2  0  0  0  0  0  0
  190.2870  177.0580  137.2790 N   0  0  0  0  0  0  0  0  0  0  0  0
  190.8270  176.7430  138.4210 C   0  0  0  0  0  0  0  0  0  0  0  0
  187.7640  175.7270  136.7660 N   0  0  0  0  0  1  0  0  0  0  0  0
  187.4100  179.4330  136.8060 N   0  0  0  0  0  0  0  0  0  0  0  0
  188.8370  179.2210  137.0700 C   0  0  0  0  0  2  0  0  0  0  0  0
  186.8100  178.1030  136.6570 C   0  0  0  0  0  3  0  0  0  0  0  0
  187.9140  177.1410  136.8370 C   0  0  0  0  0  0  0  0  0  0  0  0
  189.0460  177.7520  137.0680 C   0  0  0  0  0  0  0  0  0  0  0  0
  193.3290  176.7350  138.6630 N   0  0  0  0  0  1  0  0  0  0  0  0
  192.1870  174.7640  138.1260 N   0  0  0  0  0  2  0  0  0  0  0  0
  192.1230  176.0250  138.4000 C   0  0  0  0  0  0  0  0  0  0  0  0
  190.1810  177.0210  143.2990 C   0  0  1  0  0  3  0  0  0  0  0  0
  191.8480  175.3080  144.1260 C   0  0  0  0  0  1  0  0  0  0  0  0
  191.6600  176.6470  143.4290 C   0  0  0  0  0  2  0  0  0  0  0  0
  189.8360  178.0340  144.2410 O   0  0  0  0  0  0  0  0  0  0  0  0
  189.7980  177.2030  146.6350 C   0  0  0  0  0  3  0  0  0  0  0  0
  187.6120  177.5250  146.9710 C   0  0  0  0  0  2  0  0  0  0  0  0
  187.9250  177.9400  145.6100 N   0  0  0  0  0  0  0  0  0  0  0  0
  189.1850  177.7460  145.4410 C   0  0  0  0  0  0  0  0  0  0  0  0
  188.8820  177.0720  147.5320 N   0  0  0  0  0  0  0  0  0  0  0  0
  188.4530  177.1400  141.5750 N   0  0  0  0  0  2  0  0  0  0  0  0
  187.3350  178.7070  140.2580 O   0  0  0  0  0  1  0  0  0  0  0  0
  187.6900  178.3800  141.5670 C   0  0  1  0  0  3  0  0  0  0  0  0
  186.4420  178.2590  142.4400 C   0  0  0  0  0  2  0  0  0  0  0  0
  185.2200  178.8610  141.7660 C   0  0  0  0  0  1  0  0  0  0  0  0
  1  2  1  6  0  0  0
  1 15  1  0  0  0  0
  3  2  1  0  0  0  0
  4  5  2  0  0  0  0
  5  3  1  0  0  0  0
  6 10  1  0  0  0  0
  7  8  1  0  0  0  0
  9  7  2  0  0  0  0
  9 10  1  0  0  0  0
 10 11  2  0  0  0  0
 11  8  1  0  0  0  0
 11  4  1  0  0  0  0
 13 14  2  0  0  0  0
 14  5  1  0  0  0  0
 14 12  1  0  0  0  0
 15 17  1  6  0  0  0
 15 18  1  0  0  0  0
 17 16  1  0  0  0  0
 18 22  1  0  0  0  0
 19 23  2  0  0  0  0
 20 23  1  0  0  0  0
 21 20  1  0  0  0  0
 22 21  2  0  0  0  0
 22 19  1  0  0  0  0
 24  1  1  0  0  0  0
 26 25  1  6  0  0  0
 26 24  1  0  0  0  0
 26 27  1  0  0  0  0
 28 27  1  0  0  0  0
M  END
>  <MODEL>
4

>  <REMARK>
 VINA RESULT:      -6.2      1.792      3.521
  Name = 
  11 active torsions:
  status: ('A' for Active; 'I' for Inactive)
    1  A    between atoms: O_5  and  C_16
    2  A    between atoms: O_5  and  C_23
    3  A    between atoms: C_10  and  C_15
    4  A    between atoms: C_10  and  N_22
    5  A    between atoms: N_11  and  C_14
    6  A    between atoms: N_11  and  N_17
    7  A    between atoms: C_13  and  C_16
    8  A    between atoms: C_14  and  C_16
    9  A    between atoms: C_14  and  N_22
   10  A    between atoms: N_20  and  C_26
   11  A    between atoms: C_24  and  C_27
                            x       y       z     vdW  Elec       q    Type
                         _______ _______ _______ _____ _____    ______ ____

>  <TORSDO>
F 11

$$$$
=
 OpenBabel10222417253D

 28 29  0  0  1  0  0  0  0  0999 V2000
  185.0960  178.6530  141.4800 C   0  0  2  0  0  3  0  0  0  0  0  0
  186.2160  179.0260  140.6310 N   0  0  0  0  0  2  0  0  0  0  0  0
  187.3790  178.6310  141.3060 N   0  0  0  0  0  2  0  0  0  0  0  0
  189.5740  177.7270  141.3440 N   0  0  0  0  0  0  0  0  0  0  0  0
  188.5470  178.1200  140.6460 C   0  0  0  0  0  0  0  0  0  0  0  0
  188.5360  175.6370  143.0630 N   0  0  0  0  0  1  0  0  0  0  0  0
  190.2350  178.3280  144.9970 N   0  0  0  0  0  0  0  0  0  0  0  0
  190.3660  178.7700  143.6040 C   0  0  0  0  0  3  0  0  0  0  0  0
  189.5090  177.0540  144.9640 C   0  0  0  0  0  2  0  0  0  0  0  0
  189.2320  176.7840  143.5410 C   0  0  0  0  0  0  0  0  0  0  0  0
  189.7050  177.7320  142.7750 C   0  0  0  0  0  0  0  0  0  0  0  0
  188.9620  179.1720  138.4010 N   0  0  0  0  0  2  0  0  0  0  0  0
  188.3950  176.9070  138.5590 N   0  0  0  0  0  1  0  0  0  0  0  0
  188.6330  178.0200  139.1710 C   0  0  0  0  0  0  0  0  0  0  0  0
  183.7780  179.0730  140.8290 C   0  0  1  0  0  3  0  0  0  0  0  0
  182.8450  180.1600  138.7440 C   0  0  0  0  0  1  0  0  0  0  0  0
  183.9240  179.2520  139.3160 C   0  0  0  0  0  2  0  0  0  0  0  0
  182.7590  178.1210  141.1240 O   0  0  0  0  0  0  0  0  0  0  0  0
  180.2260  178.1920  141.0650 C   0  0  0  0  0  3  0  0  0  0  0  0
  179.9700  179.3680  142.9480 C   0  0  0  0  0  2  0  0  0  0  0  0
  181.3970  179.1710  142.7290 N   0  0  0  0  0  0  0  0  0  0  0  0
  181.5180  178.4930  141.6430 C   0  0  0  0  0  0  0  0  0  0  0  0
  179.3170  178.7020  141.8240 N   0  0  0  0  0  0  0  0  0  0  0  0
  185.2380  179.3030  142.7750 N   0  0  0  0  0  2  0  0  0  0  0  0
  185.9960  177.6310  144.2140 O   0  0  0  0  0  1  0  0  0  0  0  0
  184.8650  178.3330  143.7950 C   0  0  1  0  0  3  0  0  0  0  0  0
  184.1970  179.0210  144.9840 C   0  0  0  0  0  2  0  0  0  0  0  0
  184.8280  178.6080  146.3040 C   0  0  0  0  0  1  0  0  0  0  0  0
  1  2  1  6  0  0  0
  1 24  1  0  0  0  0
  2  3  1  0  0  0  0
  4 11  1  0  0  0  0
  5  3  1  0  0  0  0
  5  4  2  0  0  0  0
  6 10  1  0  0  0  0
  8  7  2  0  0  0  0
  9  7  1  0  0  0  0
 10  9  1  0  0  0  0
 11 10  2  0  0  0  0
 11  8  1  0  0  0  0
 12 14  2  0  0  0  0
 13 14  1  0  0  0  0
 14  5  1  0  0  0  0
 15 17  1  6  0  0  0
 15 18  1  0  0  0  0
 15  1  1  0  0  0  0
 16 17  1  0  0  0  0
 18 22  1  0  0  0  0
 19 22  1  0  0  0  0
 19 23  2  0  0  0  0
 21 20  1  0  0  0  0
 22 21  2  0  0  0  0
 23 20  1  0  0  0  0
 24 26  1  0  0  0  0
 26 25  1  1  0  0  0
 26 27  1  0  0  0  0
 27 28  1  0  0  0  0
M  END
>  <MODEL>
5

>  <REMARK>
 VINA RESULT:      -6.2      2.848      6.692
  Name = 
  11 active torsions:
  status: ('A' for Active; 'I' for Inactive)
    1  A    between atoms: O_5  and  C_16
    2  A    between atoms: O_5  and  C_23
    3  A    between atoms: C_10  and  C_15
    4  A    between atoms: C_10  and  N_22
    5  A    between atoms: N_11  and  C_14
    6  A    between atoms: N_11  and  N_17
    7  A    between atoms: C_13  and  C_16
    8  A    between atoms: C_14  and  C_16
    9  A    between atoms: C_14  and  N_22
   10  A    between atoms: N_20  and  C_26
   11  A    between atoms: C_24  and  C_27
                            x       y       z     vdW  Elec       q    Type
                         _______ _______ _______ _____ _____    ______ ____

>  <TORSDO>
F 11

$$$$
=
 OpenBabel10222417253D

 28 29  0  0  1  0  0  0  0  0999 V2000
  188.8360  177.5350  144.9350 C   0  0  2  0  0  3  0  0  0  0  0  0
  187.6060  176.7710  144.8070 N   0  0  0  0  0  2  0  0  0  0  0  0
  186.7070  177.5740  144.0930 N   0  0  0  0  0  2  0  0  0  0  0  0
  184.8870  179.0950  143.9840 N   0  0  0  0  0  0  0  0  0  0  0  0
  185.7210  178.4130  144.7140 C   0  0  0  0  0  0  0  0  0  0  0  0
  182.4480  178.6260  142.4910 N   0  0  0  0  0  1  0  0  0  0  0  0
  185.3490  179.2990  140.2570 N   0  0  0  0  0  0  0  0  0  0  0  0
  185.9250  179.3830  141.6040 C   0  0  0  0  0  2  0  0  0  0  0  0
  183.9250  178.9960  140.4300 C   0  0  0  0  0  3  0  0  0  0  0  0
  183.7050  178.9090  141.8860 C   0  0  0  0  0  0  0  0  0  0  0  0
  184.8110  179.1220  142.5480 C   0  0  0  0  0  0  0  0  0  0  0  0
  186.7140  179.0410  146.9370 N   0  0  0  0  0  1  0  0  0  0  0  0
  184.5440  178.1750  146.8140 N   0  0  0  0  0  2  0  0  0  0  0  0
  185.6140  178.5360  146.1870 C   0  0  0  0  0  0  0  0  0  0  0  0
  189.3330  177.9710  143.5560 C   0  0  1  0  0  3  0  0  0  0  0  0
  191.0310  179.7520  144.1390 C   0  0  0  0  0  1  0  0  0  0  0  0
  190.8150  178.3530  143.5830 C   0  0  0  0  0  2  0  0  0  0  0  0
  189.0990  176.9400  142.6000 O   0  0  0  0  0  0  0  0  0  0  0  0
  188.9250  177.9690  140.2900 C   0  0  0  0  0  3  0  0  0  0  0  0
  190.5390  176.7390  139.3530 C   0  0  0  0  0  2  0  0  0  0  0  0
  190.4190  176.3390  140.7490 N   0  0  0  0  0  0  0  0  0  0  0  0
  189.4880  177.0590  141.2650 C   0  0  0  0  0  0  0  0  0  0  0  0
  189.5370  177.7860  139.1700 N   0  0  0  0  0  0  0  0  0  0  0  0
  189.8450  176.7140  145.5880 N   0  0  0  0  0  2  0  0  0  0  0  0
  188.9200  176.6810  147.7290 O   0  0  0  0  0  1  0  0  0  0  0  0
  189.9710  177.1840  146.9610 C   0  0  1  0  0  3  0  0  0  0  0  0
  191.3130  176.7670  147.5600 C   0  0  0  0  0  2  0  0  0  0  0  0
  192.0500  175.7830  146.6650 C   0  0  0  0  0  1  0  0  0  0  0  0
  1  2  1  6  0  0  0
  1 24  1  0  0  0  0
  3  5  1  0  0  0  0
  3  2  1  0  0  0  0
  4  5  2  0  0  0  0
  5 14  1  0  0  0  0
  7  9  2  0  0  0  0
  7  8  1  0  0  0  0
  8 11  1  0  0  0  0
  9 10  1  0  0  0  0
 10  6  1  0  0  0  0
 10 11  2  0  0  0  0
 11  4  1  0  0  0  0
 14 13  2  0  0  0  0
 14 12  1  0  0  0  0
 15 17  1  1  0  0  0
 15  1  1  0  0  0  0
 17 16  1  0  0  0  0
 18 15  1  0  0  0  0
 19 22  1  0  0  0  0
 20 21  1  0  0  0  0
 21 22  2  0  0  0  0
 22 18  1  0  0  0  0
 23 20  1  0  0  0  0
 23 19  2  0  0  0  0
 24 26  1  0  0  0  0
 26 27  1  0  0  0  0
 26 25  1  1  0  0  0
 28 27  1  0  0  0  0
M  END
>  <MODEL>
6

>  <REMARK>
 VINA RESULT:      -6.2      2.062      6.450
  Name = 
  11 active torsions:
  status: ('A' for Active; 'I' for Inactive)
    1  A    between atoms: O_5  and  C_16
    2  A    between atoms: O_5  and  C_23
    3  A    between atoms: C_10  and  C_15
    4  A    between atoms: C_10  and  N_22
    5  A    between atoms: N_11  and  C_14
    6  A    between atoms: N_11  and  N_17
    7  A    between atoms: C_13  and  C_16
    8  A    between atoms: C_14  and  C_16
    9  A    between atoms: C_14  and  N_22
   10  A    between atoms: N_20  and  C_26
   11  A    between atoms: C_24  and  C_27
                            x       y       z     vdW  Elec       q    Type
                         _______ _______ _______ _____ _____    ______ ____

>  <TORSDO>
F 11

$$$$
=
 OpenBabel10222417253D

 28 29  0  0  1  0  0  0  0  0999 V2000
  188.9510  177.9130  140.5160 C   0  0  2  0  0  3  0  0  0  0  0  0
  187.7040  178.6590  140.5450 N   0  0  0  0  0  2  0  0  0  0  0  0
  187.1330  178.4380  141.8060 N   0  0  0  0  0  2  0  0  0  0  0  0
  185.2640  178.2840  143.2620 N   0  0  0  0  0  0  0  0  0  0  0  0
  185.7190  178.4500  142.0530 C   0  0  0  0  0  0  0  0  0  0  0  0
  184.3340  178.9960  145.9130 N   0  0  0  0  0  1  0  0  0  0  0  0
  187.7460  177.5060  145.9780 N   0  0  0  0  0  0  0  0  0  0  0  0
  187.3930  177.4960  144.5540 C   0  0  0  0  0  3  0  0  0  0  0  0
  186.6020  178.0880  146.6870 C   0  0  0  0  0  2  0  0  0  0  0  0
  185.6040  178.4070  145.6500 C   0  0  0  0  0  0  0  0  0  0  0  0
  186.0330  178.0810  144.4590 C   0  0  0  0  0  0  0  0  0  0  0  0
  183.6520  177.7350  140.8140 N   0  0  0  0  0  1  0  0  0  0  0  0
  184.8480  179.6240  140.1260 N   0  0  0  0  0  2  0  0  0  0  0  0
  184.7350  178.6470  140.9630 C   0  0  0  0  0  0  0  0  0  0  0  0
  189.1230  177.2230  139.1620 C   0  0  1  0  0  3  0  0  0  0  0  0
  187.4030  176.5320  137.4410 C   0  0  0  0  0  1  0  0  0  0  0  0
  188.0780  177.6980  138.1480 C   0  0  0  0  0  2  0  0  0  0  0  0
  190.4400  177.4400  138.6630 O   0  0  0  0  0  0  0  0  0  0  0  0
  192.6080  176.5130  137.7330 C   0  0  0  0  0  3  0  0  0  0  0  0
  191.9040  174.4000  137.5340 C   0  0  0  0  0  2  0  0  0  0  0  0
  190.8070  175.1930  138.0730 N   0  0  0  0  0  0  0  0  0  0  0  0
  191.2350  176.4010  138.1790 C   0  0  0  0  0  0  0  0  0  0  0  0
  193.0030  175.3460  137.3550 N   0  0  0  0  0  0  0  0  0  0  0  0
  188.9410  176.9190  141.5800 N   0  0  0  0  0  2  0  0  0  0  0  0
  191.0770  177.7470  142.0170 O   0  0  0  0  0  1  0  0  0  0  0  0
  190.3250  176.5800  141.8750 C   0  0  1  0  0  3  0  0  0  0  0  0
  190.4210  175.7310  143.1420 C   0  0  0  0  0  2  0  0  0  0  0  0
  191.2500  176.4120  144.2180 C   0  0  0  0  0  1  0  0  0  0  0  0
  1  2  1  6  0  0  0
  1 24  1  0  0  0  0
  2  3  1  0  0  0  0
  3  5  1  0  0  0  0
  4 11  1  0  0  0  0
  5  4  2  0  0  0  0
  7  9  1  0  0  0  0
  8  7  2  0  0  0  0
 10  6  1  0  0  0  0
 10  9  1  0  0  0  0
 11  8  1  0  0  0  0
 11 10  2  0  0  0  0
 12 14  1  0  0  0  0
 13 14  2  0  0  0  0
 14  5  1  0  0  0  0
 15 17  1  6  0  0  0
 15  1  1  0  0  0  0
 16 17  1  0  0  0  0
 18 15  1  0  0  0  0
 19 22  1  0  0  0  0
 20 21  1  0  0  0  0
 21 22  2  0  0  0  0
 22 18  1  0  0  0  0
 23 20  1  0  0  0  0
 23 19  2  0  0  0  0
 24 26  1  0  0  0  0
 26 25  1  1  0  0  0
 26 27  1  0  0  0  0
 27 28  1  0  0  0  0
M  END
>  <MODEL>
7

>  <REMARK>
 VINA RESULT:      -6.2      2.448      7.654
  Name = 
  11 active torsions:
  status: ('A' for Active; 'I' for Inactive)
    1  A    between atoms: O_5  and  C_16
    2  A    between atoms: O_5  and  C_23
    3  A    between atoms: C_10  and  C_15
    4  A    between atoms: C_10  and  N_22
    5  A    between atoms: N_11  and  C_14
    6  A    between atoms: N_11  and  N_17
    7  A    between atoms: C_13  and  C_16
    8  A    between atoms: C_14  and  C_16
    9  A    between atoms: C_14  and  N_22
   10  A    between atoms: N_20  and  C_26
   11  A    between atoms: C_24  and  C_27
                            x       y       z     vdW  Elec       q    Type
                         _______ _______ _______ _____ _____    ______ ____

>  <TORSDO>
F 11

$$$$
=
 OpenBabel10222417253D

 28 29  0  0  1  0  0  0  0  0999 V2000
  187.8760  177.7310  142.0600 C   0  0  2  0  0  3  0  0  0  0  0  0
  187.1160  178.6760  141.2590 N   0  0  0  0  0  2  0  0  0  0  0  0
  187.2210  178.2490  139.9280 N   0  0  0  0  0  2  0  0  0  0  0  0
  186.2840  177.7950  137.7940 N   0  0  0  0  0  0  0  0  0  0  0  0
  186.1230  178.2530  139.0020 C   0  0  0  0  0  0  0  0  0  0  0  0
  188.5960  179.3880  137.0770 N   0  0  0  0  0  1  0  0  0  0  0  0
  189.1060  175.7730  136.3480 N   0  0  0  0  0  0  0  0  0  0  0  0
  187.7520  175.8230  136.9110 C   0  0  0  0  0  2  0  0  0  0  0  0
  189.6070  177.1510  136.3420 C   0  0  0  0  0  3  0  0  0  0  0  0
  188.5230  177.9760  136.9060 C   0  0  0  0  0  0  0  0  0  0  0  0
  187.4860  177.2480  137.2250 C   0  0  0  0  0  0  0  0  0  0  0  0
  184.4400  180.1180  139.0780 N   0  0  0  0  0  2  0  0  0  0  0  0
  183.9250  178.0240  139.9850 N   0  0  0  0  0  1  0  0  0  0  0  0
  184.7860  178.7690  139.3750 C   0  0  0  0  0  0  0  0  0  0  0  0
  187.1470  177.4430  143.3720 C   0  0  1  0  0  3  0  0  0  0  0  0
  188.2510  177.6130  145.6420 C   0  0  0  0  0  1  0  0  0  0  0  0
  188.0640  176.7640  144.3930 C   0  0  0  0  0  2  0  0  0  0  0  0
  186.6050  178.6470  143.9090 O   0  0  0  0  0  0  0  0  0  0  0  0
  184.7280  178.9340  145.5880 C   0  0  0  0  0  3  0  0  0  0  0  0
  183.0610  178.9010  144.0980 C   0  0  0  0  0  2  0  0  0  0  0  0
  184.3170  178.7480  143.3750 N   0  0  0  0  0  0  0  0  0  0  0  0
  185.2570  178.7710  144.2500 C   0  0  0  0  0  0  0  0  0  0  0  0
  183.4440  179.0100  145.5040 N   0  0  0  0  0  0  0  0  0  0  0  0
  189.1930  178.2870  142.3370 N   0  0  0  0  0  2  0  0  0  0  0  0
  190.3730  177.5260  140.4740 O   0  0  0  0  0  1  0  0  0  0  0  0
  190.1810  177.3390  141.8440 C   0  0  1  0  0  3  0  0  0  0  0  0
  191.5060  177.4930  142.5900 C   0  0  0  0  0  2  0  0  0  0  0  0
  191.3940  178.4790  143.7420 C   0  0  0  0  0  1  0  0  0  0  0  0
  1  2  1  6  0  0  0
  1 24  1  0  0  0  0
  1 15  1  0  0  0  0
  3  2  1  0  0  0  0
  4  5  2  0  0  0  0
  5 14  1  0  0  0  0
  5  3  1  0  0  0  0
  7  8  1  0  0  0  0
  8 11  1  0  0  0  0
  9  7  2  0  0  0  0
  9 10  1  0  0  0  0
 10  6  1  0  0  0  0
 10 11  2  0  0  0  0
 11  4  1  0  0  0  0
 12 14  2  0  0  0  0
 14 13  1  0  0  0  0
 15 18  1  0  0  0  0
 15 17  1  1  0  0  0
 17 16  1  0  0  0  0
 18 22  1  0  0  0  0
 20 23  1  0  0  0  0
 21 20  1  0  0  0  0
 21 22  2  0  0  0  0
 22 19  1  0  0  0  0
 23 19  2  0  0  0  0
 26 25  1  6  0  0  0
 26 24  1  0  0  0  0
 26 27  1  0  0  0  0
 27 28  1  0  0  0  0
M  END
>  <MODEL>
8

>  <REMARK>
 VINA RESULT:      -6.1      2.610      5.418
  Name = 
  11 active torsions:
  status: ('A' for Active; 'I' for Inactive)
    1  A    between atoms: O_5  and  C_16
    2  A    between atoms: O_5  and  C_23
    3  A    between atoms: C_10  and  C_15
    4  A    between atoms: C_10  and  N_22
    5  A    between atoms: N_11  and  C_14
    6  A    between atoms: N_11  and  N_17
    7  A    between atoms: C_13  and  C_16
    8  A    between atoms: C_14  and  C_16
    9  A    between atoms: C_14  and  N_22
   10  A    between atoms: N_20  and  C_26
   11  A    between atoms: C_24  and  C_27
                            x       y       z     vdW  Elec       q    Type
                         _______ _______ _______ _____ _____    ______ ____

>  <TORSDO>
F 11

$$$$
=
 OpenBabel10222417253D

 28 29  0  0  1  0  0  0  0  0999 V2000
  188.2370  177.9620  140.8150 C   0  0  2  0  0  3  0  0  0  0  0  0
  189.1970  178.3780  141.8240 N   0  0  0  0  0  2  0  0  0  0  0  0
  188.6020  178.1350  143.0690 N   0  0  0  0  0  2  0  0  0  0  0  0
  188.4490  176.9510  145.1220 N   0  0  0  0  0  0  0  0  0  0  0  0
  189.0840  177.1570  144.0030 C   0  0  0  0  0  0  0  0  0  0  0  0
  188.0470  177.8580  147.8440 N   0  0  0  0  0  1  0  0  0  0  0  0
  185.1110  178.5930  145.6750 N   0  0  0  0  0  0  0  0  0  0  0  0
  186.0540  177.9300  144.7670 C   0  0  0  0  0  3  0  0  0  0  0  0
  185.7660  178.6510  146.9860 C   0  0  0  0  0  2  0  0  0  0  0  0
  187.0840  178.0140  146.8070 C   0  0  0  0  0  0  0  0  0  0  0  0
  187.2550  177.6090  145.5760 C   0  0  0  0  0  0  0  0  0  0  0  0
  190.2400  175.2500  142.8420 N   0  0  0  0  0  2  0  0  0  0  0  0
  191.4210  176.6220  144.3240 N   0  0  0  0  0  1  0  0  0  0  0  0
  190.3010  176.3540  143.7400 C   0  0  0  0  0  0  0  0  0  0  0  0
  188.9640  177.4840  139.5580 C   0  0  1  0  0  3  0  0  0  0  0  0
  188.5900  178.1620  137.1500 C   0  0  0  0  0  1  0  0  0  0  0  0
  189.0900  178.6010  138.5180 C   0  0  0  0  0  2  0  0  0  0  0  0
  190.2490  176.9700  139.8980 O   0  0  0  0  0  0  0  0  0  0  0  0
  192.3890  176.7540  138.5570 C   0  0  0  0  0  3  0  0  0  0  0  0
  191.8070  174.8910  137.4670 C   0  0  0  0  0  2  0  0  0  0  0  0
  190.7090  175.2590  138.3510 N   0  0  0  0  0  0  0  0  0  0  0  0
  191.0670  176.3300  138.9660 C   0  0  0  0  0  0  0  0  0  0  0  0
  192.8260  175.9160  137.6810 N   0  0  0  0  0  0  0  0  0  0  0  0
  187.3660  179.0820  140.4890 N   0  0  0  0  0  2  0  0  0  0  0  0
  185.3480  179.4660  141.5930 O   0  0  0  0  0  1  0  0  0  0  0  0
  185.9920  178.6370  140.6730 C   0  0  1  0  0  3  0  0  0  0  0  0
  185.2380  178.6320  139.3450 C   0  0  0  0  0  2  0  0  0  0  0  0
  183.7430  178.4410  139.5450 C   0  0  0  0  0  1  0  0  0  0  0  0
  1 24  1  6  0  0  0
  1  2  1  0  0  0  0
  2  3  1  0  0  0  0
  3  5  1  0  0  0  0
  4 11  1  0  0  0  0
  5  4  2  0  0  0  0
  7  9  1  0  0  0  0
  8 11  1  0  0  0  0
  8  7  2  0  0  0  0
 10  9  1  0  0  0  0
 10  6  1  0  0  0  0
 11 10  2  0  0  0  0
 12 14  2  0  0  0  0
 14  5  1  0  0  0  0
 14 13  1  0  0  0  0
 15 17  1  6  0  0  0
 15 18  1  0  0  0  0
 15  1  1  0  0  0  0
 16 17  1  0  0  0  0
 19 22  1  0  0  0  0
 20 23  1  0  0  0  0
 20 21  1  0  0  0  0
 21 22  2  0  0  0  0
 22 18  1  0  0  0  0
 23 19  2  0  0  0  0
 24 26  1  0  0  0  0
 26 25  1  1  0  0  0
 27 28  1  0  0  0  0
 27 26  1  0  0  0  0
M  END
>  <MODEL>
9

>  <REMARK>
 VINA RESULT:      -6.0      2.281      6.710
  Name = 
  11 active torsions:
  status: ('A' for Active; 'I' for Inactive)
    1  A    between atoms: O_5  and  C_16
    2  A    between atoms: O_5  and  C_23
    3  A    between atoms: C_10  and  C_15
    4  A    between atoms: C_10  and  N_22
    5  A    between atoms: N_11  and  C_14
    6  A    between atoms: N_11  and  N_17
    7  A    between atoms: C_13  and  C_16
    8  A    between atoms: C_14  and  C_16
    9  A    between atoms: C_14  and  N_22
   10  A    between atoms: N_20  and  C_26
   11  A    between atoms: C_24  and  C_27
                            x       y       z     vdW  Elec       q    Type
                         _______ _______ _______ _____ _____    ______ ____

>  <TORSDO>
F 11

$$$$
