=
 OpenBabel10222417073D

 25 27  0  0  1  0  0  0  0  0999 V2000
  191.6620  175.6990  144.4450 C   0  0  0  0  0  0  0  0  0  0  0  0
  190.1340  177.4630  144.6840 C   0  0  1  0  0  3  0  0  0  0  0  0
  191.1110  177.4250  145.8710 C   0  0  0  0  0  2  0  0  0  0  0  0
  192.2930  174.6950  144.0200 O   0  0  0  0  0  0  0  0  0  0  0  0
  190.4550  176.2570  143.7960 C   0  0  1  0  0  3  0  0  0  0  0  0
  192.0160  176.3720  145.5920 O   0  0  0  0  0  0  0  0  0  0  0  0
  185.5880  179.6350  147.1480 O   0  0  0  0  0  1  0  0  0  0  0  0
  187.2030  177.9100  148.3970 O   0  0  0  0  0  1  0  0  0  0  0  0
  184.7280  179.3590  144.5240 C   0  0  0  0  0  1  0  0  0  0  0  0
  188.4660  177.7430  146.4140 C   0  0  0  0  0  3  0  0  0  0  0  0
  187.1080  177.6620  147.0280 C   0  0  2  0  0  3  0  0  0  0  0  0
  188.7100  177.4370  145.1400 C   0  0  0  0  0  0  0  0  0  0  0  0
  187.6470  177.0340  144.1890 C   0  0  0  0  0  3  0  0  0  0  0  0
  185.8000  178.4900  145.0870 C   0  0  0  0  0  0  0  0  0  0  0  0
  186.3870  177.4880  144.1710 C   0  0  0  0  0  3  0  0  0  0  0  0
  186.1520  178.6190  146.3780 C   0  0  0  0  0  0  0  0  0  0  0  0
  192.2400  177.5230  140.7510 C   0  0  0  0  0  3  0  0  0  0  0  0
  189.6840  176.7210  141.4690 C   0  0  0  0  0  3  0  0  0  0  0  0
  190.7310  176.6980  142.3930 C   0  0  0  0  0  0  0  0  0  0  0  0
  191.9780  177.1000  142.0170 N   0  0  0  0  0  0  0  0  0  0  0  0
  189.9330  177.1470  140.1620 C   0  0  0  0  0  0  0  0  0  0  0  0
  191.2190  177.5560  139.7980 C   0  0  0  0  0  3  0  0  0  0  0  0
  188.8250  177.1960  139.1680 C   0  0  0  0  0  2  0  0  0  0  0  0
  188.8010  178.5460  138.4780 C   0  0  0  0  0  2  0  0  0  0  0  0
  188.9010  178.3490  136.9810 C   0  0  0  0  0  1  0  0  0  0  0  0
  1  6  1  0  0  0  0
  2 12  1  1  0  0  0
  2  3  1  0  0  0  0
  4  1  2  0  0  0  0
  5 19  1  6  0  0  0
  5  1  1  0  0  0  0
  5  2  1  0  0  0  0
  6  3  1  0  0  0  0
  9 14  1  0  0  0  0
 10 11  1  0  0  0  0
 11  8  1  1  0  0  0
 12 10  2  0  0  0  0
 13 12  1  0  0  0  0
 14 16  2  0  0  0  0
 15 13  2  0  0  0  0
 15 14  1  0  0  0  0
 16 11  1  0  0  0  0
 16  7  1  0  0  0  0
 17 20  1  0  0  0  0
 18 19  1  0  0  0  0
 20 19  2  0  0  0  0
 21 18  2  0  0  0  0
 22 21  1  0  0  0  0
 22 17  2  0  0  0  0
 23 21  1  0  0  0  0
 24 23  1  0  0  0  0
 25 24  1  0  0  0  0
M  END
>  <MODEL>
1

>  <REMARK>
 VINA RESULT:      -9.0      0.000      0.000
  Name = 
  4 active torsions:
  status: ('A' for Active; 'I' for Inactive)
    1  A    between atoms: C_4  and  C_14
    2  A    between atoms: C_6  and  C_24
    3  A    between atoms: C_7  and  C_17
    4  A    between atoms: C_21  and  C_24
                            x       y       z     vdW  Elec       q    Type
                         _______ _______ _______ _____ _____    ______ ____

>  <TORSDO>
F 4

$$$$
=
 OpenBabel10222417073D

 25 27  0  0  1  0  0  0  0  0999 V2000
  191.3670  176.7120  145.1240 C   0  0  0  0  0  0  0  0  0  0  0  0
  189.8040  176.4720  143.3920 C   0  0  1  0  0  3  0  0  0  0  0  0
  190.8290  175.3270  143.3620 C   0  0  0  0  0  2  0  0  0  0  0  0
  192.0140  177.1330  146.1190 O   0  0  0  0  0  0  0  0  0  0  0  0
  190.2300  177.4300  144.5090 C   0  0  1  0  0  3  0  0  0  0  0  0
  191.6760  175.5370  144.4760 O   0  0  0  0  0  0  0  0  0  0  0  0
  189.3530  176.6830  137.8050 O   0  0  0  0  0  1  0  0  0  0  0  0
  191.7040  176.9000  139.0580 O   0  0  0  0  0  1  0  0  0  0  0  0
  187.0250  177.9650  138.6060 C   0  0  0  0  0  1  0  0  0  0  0  0
  190.5570  176.7800  141.1130 C   0  0  0  0  0  3  0  0  0  0  0  0
  190.6530  177.4570  139.7870 C   0  0  2  0  0  3  0  0  0  0  0  0
  189.7230  177.1760  142.0750 C   0  0  0  0  0  0  0  0  0  0  0  0
  188.7700  178.2990  141.9060 C   0  0  0  0  0  3  0  0  0  0  0  0
  188.2400  177.9470  139.4700 C   0  0  0  0  0  0  0  0  0  0  0  0
  188.1330  178.6320  140.7750 C   0  0  0  0  0  3  0  0  0  0  0  0
  189.3650  177.3600  139.0240 C   0  0  0  0  0  0  0  0  0  0  0  0
  188.3090  177.7080  147.7170 C   0  0  0  0  0  3  0  0  0  0  0  0
  187.8260  177.8940  144.9930 C   0  0  0  0  0  3  0  0  0  0  0  0
  189.1100  177.6340  145.4790 C   0  0  0  0  0  0  0  0  0  0  0  0
  189.3210  177.5450  146.8230 N   0  0  0  0  0  0  0  0  0  0  0  0
  186.7740  178.0700  145.8940 C   0  0  0  0  0  0  0  0  0  0  0  0
  187.0130  177.9740  147.2680 C   0  0  0  0  0  3  0  0  0  0  0  0
  185.3960  178.3300  145.3930 C   0  0  0  0  0  2  0  0  0  0  0  0
  185.3780  178.3020  143.8770 C   0  0  0  0  0  2  0  0  0  0  0  0
  183.9960  178.6700  143.3820 C   0  0  0  0  0  1  0  0  0  0  0  0
  1  4  2  0  0  0  0
  2 12  1  6  0  0  0
  2  5  1  0  0  0  0
  3  2  1  0  0  0  0
  3  6  1  0  0  0  0
  5  1  1  0  0  0  0
  5 19  1  1  0  0  0
  6  1  1  0  0  0  0
  7 16  1  0  0  0  0
  9 14  1  0  0  0  0
 10 12  2  0  0  0  0
 11  8  1  6  0  0  0
 11 10  1  0  0  0  0
 13 12  1  0  0  0  0
 14 15  1  0  0  0  0
 15 13  2  0  0  0  0
 16 14  2  0  0  0  0
 16 11  1  0  0  0  0
 18 19  2  0  0  0  0
 18 21  1  0  0  0  0
 19 20  1  0  0  0  0
 20 17  2  0  0  0  0
 21 22  2  0  0  0  0
 22 17  1  0  0  0  0
 23 21  1  0  0  0  0
 24 23  1  0  0  0  0
 25 24  1  0  0  0  0
M  END
>  <MODEL>
2

>  <REMARK>
 VINA RESULT:      -8.8      2.369      6.089
  Name = 
  4 active torsions:
  status: ('A' for Active; 'I' for Inactive)
    1  A    between atoms: C_4  and  C_14
    2  A    between atoms: C_6  and  C_24
    3  A    between atoms: C_7  and  C_17
    4  A    between atoms: C_21  and  C_24
                            x       y       z     vdW  Elec       q    Type
                         _______ _______ _______ _____ _____    ______ ____

>  <TORSDO>
F 4

$$$$
=
 OpenBabel10222417073D

 25 27  0  0  1  0  0  0  0  0999 V2000
  190.3120  176.8880  141.3150 C   0  0  0  0  0  0  0  0  0  0  0  0
  189.9660  177.9590  143.3740 C   0  0  1  0  0  3  0  0  0  0  0  0
  191.4030  178.1890  142.8750 C   0  0  0  0  0  2  0  0  0  0  0  0
  190.1590  176.2140  140.2630 O   0  0  0  0  0  0  0  0  0  0  0  0
  189.2860  177.0190  142.3730 C   0  0  1  0  0  3  0  0  0  0  0  0
  191.4780  177.5560  141.6110 O   0  0  0  0  0  0  0  0  0  0  0  0
  191.6240  177.6350  148.7220 O   0  0  0  0  0  1  0  0  0  0  0  0
  192.5580  175.9890  146.8350 O   0  0  0  0  0  1  0  0  0  0  0  0
  188.9550  178.3450  149.0020 C   0  0  0  0  0  1  0  0  0  0  0  0
  191.1130  177.0290  145.2910 C   0  0  0  0  0  3  0  0  0  0  0  0
  191.2300  176.3570  146.6180 C   0  0  2  0  0  3  0  0  0  0  0  0
  189.9460  177.3870  144.7560 C   0  0  0  0  0  0  0  0  0  0  0  0
  188.6480  177.1990  145.4480 C   0  0  0  0  0  3  0  0  0  0  0  0
  189.4430  177.6080  147.8010 C   0  0  0  0  0  0  0  0  0  0  0  0
  188.4350  177.2910  146.7670 C   0  0  0  0  0  3  0  0  0  0  0  0
  190.7330  177.2360  147.7270 C   0  0  0  0  0  0  0  0  0  0  0  0
  186.8120  178.6720  140.0910 C   0  0  0  0  0  3  0  0  0  0  0  0
  186.9250  177.7540  142.7060 C   0  0  0  0  0  3  0  0  0  0  0  0
  188.0250  177.6320  141.8530 C   0  0  0  0  0  0  0  0  0  0  0  0
  187.9450  178.0940  140.5730 N   0  0  0  0  0  0  0  0  0  0  0  0
  185.7500  178.3410  142.2290 C   0  0  0  0  0  0  0  0  0  0  0  0
  185.6910  178.8070  140.9140 C   0  0  0  0  0  3  0  0  0  0  0  0
  184.5740  178.4960  143.1300 C   0  0  0  0  0  2  0  0  0  0  0  0
  184.9070  179.4450  144.2640 C   0  0  0  0  0  2  0  0  0  0  0  0
  184.8190  178.7060  145.5820 C   0  0  0  0  0  1  0  0  0  0  0  0
  1  6  1  0  0  0  0
  1  5  1  0  0  0  0
  2 12  1  1  0  0  0
  3  2  1  0  0  0  0
  4  1  2  0  0  0  0
  5 19  1  6  0  0  0
  5  2  1  0  0  0  0
  6  3  1  0  0  0  0
 10 11  1  0  0  0  0
 11  8  1  1  0  0  0
 11 16  1  0  0  0  0
 12 10  2  0  0  0  0
 12 13  1  0  0  0  0
 13 15  2  0  0  0  0
 14  9  1  0  0  0  0
 15 14  1  0  0  0  0
 16 14  2  0  0  0  0
 16  7  1  0  0  0  0
 17 20  2  0  0  0  0
 17 22  1  0  0  0  0
 19 18  2  0  0  0  0
 20 19  1  0  0  0  0
 21 18  1  0  0  0  0
 21 23  1  0  0  0  0
 22 21  2  0  0  0  0
 23 24  1  0  0  0  0
 24 25  1  0  0  0  0
M  END
>  <MODEL>
3

>  <REMARK>
 VINA RESULT:      -8.8      2.448      4.793
  Name = 
  4 active torsions:
  status: ('A' for Active; 'I' for Inactive)
    1  A    between atoms: C_4  and  C_14
    2  A    between atoms: C_6  and  C_24
    3  A    between atoms: C_7  and  C_17
    4  A    between atoms: C_21  and  C_24
                            x       y       z     vdW  Elec       q    Type
                         _______ _______ _______ _____ _____    ______ ____

>  <TORSDO>
F 4

$$$$
=
 OpenBabel10222417073D

 25 27  0  0  1  0  0  0  0  0999 V2000
  191.6410  177.5670  142.2830 C   0  0  0  0  0  0  0  0  0  0  0  0
  189.7330  178.4390  143.3330 C   0  0  1  0  0  3  0  0  0  0  0  0
  191.0030  179.1340  143.8490 C   0  0  0  0  0  2  0  0  0  0  0  0
  192.4220  176.8930  141.5600 O   0  0  0  0  0  0  0  0  0  0  0  0
  190.1820  177.3400  142.3640 C   0  0  1  0  0  3  0  0  0  0  0  0
  192.0750  178.5780  143.1100 O   0  0  0  0  0  0  0  0  0  0  0  0
  187.5950  178.4520  148.5180 O   0  0  0  0  0  1  0  0  0  0  0  0
  189.7600  177.0260  147.8700 O   0  0  0  0  0  1  0  0  0  0  0  0
  185.3010  178.6160  146.9630 C   0  0  0  0  0  1  0  0  0  0  0  0
  189.5060  177.7570  145.6440 C   0  0  0  0  0  3  0  0  0  0  0  0
  188.8450  177.1210  146.8200 C   0  0  2  0  0  3  0  0  0  0  0  0
  188.9180  177.8740  144.4530 C   0  0  0  0  0  0  0  0  0  0  0  0
  187.5270  177.4310  144.1920 C   0  0  0  0  0  3  0  0  0  0  0  0
  186.5510  177.9900  146.4440 C   0  0  0  0  0  0  0  0  0  0  0  0
  186.5060  177.4790  145.0570 C   0  0  0  0  0  3  0  0  0  0  0  0
  187.6250  177.8840  147.2460 C   0  0  0  0  0  0  0  0  0  0  0  0
  189.6070  177.4330  138.6600 C   0  0  0  0  0  3  0  0  0  0  0  0
  188.1940  177.9580  140.9870 C   0  0  0  0  0  3  0  0  0  0  0  0
  189.5160  177.5110  141.0350 C   0  0  0  0  0  0  0  0  0  0  0  0
  190.1910  177.2630  139.8760 N   0  0  0  0  0  0  0  0  0  0  0  0
  187.5740  178.1340  139.7480 C   0  0  0  0  0  0  0  0  0  0  0  0
  188.2840  177.8740  138.5730 C   0  0  0  0  0  3  0  0  0  0  0  0
  186.1710  178.6270  139.6780 C   0  0  0  0  0  2  0  0  0  0  0  0
  185.6790  179.0030  141.0620 C   0  0  0  0  0  2  0  0  0  0  0  0
  184.4600  178.1750  141.4070 C   0  0  0  0  0  1  0  0  0  0  0  0
  1  5  1  0  0  0  0
  1  6  1  0  0  0  0
  2  3  1  0  0  0  0
  2 12  1  1  0  0  0
  4  1  2  0  0  0  0
  5 19  1  6  0  0  0
  5  2  1  0  0  0  0
  6  3  1  0  0  0  0
 10 11  1  0  0  0  0
 11 16  1  0  0  0  0
 11  8  1  1  0  0  0
 12 10  2  0  0  0  0
 13 12  1  0  0  0  0
 13 15  2  0  0  0  0
 14  9  1  0  0  0  0
 14 16  2  0  0  0  0
 15 14  1  0  0  0  0
 16  7  1  0  0  0  0
 17 20  1  0  0  0  0
 18 19  1  0  0  0  0
 20 19  2  0  0  0  0
 21 18  2  0  0  0  0
 22 17  2  0  0  0  0
 22 21  1  0  0  0  0
 23 21  1  0  0  0  0
 23 24  1  0  0  0  0
 24 25  1  0  0  0  0
M  END
>  <MODEL>
4

>  <REMARK>
 VINA RESULT:      -8.3      1.938      2.737
  Name = 
  4 active torsions:
  status: ('A' for Active; 'I' for Inactive)
    1  A    between atoms: C_4  and  C_14
    2  A    between atoms: C_6  and  C_24
    3  A    between atoms: C_7  and  C_17
    4  A    between atoms: C_21  and  C_24
                            x       y       z     vdW  Elec       q    Type
                         _______ _______ _______ _____ _____    ______ ____

>  <TORSDO>
F 4

$$$$
=
 OpenBabel10222417073D

 25 27  0  0  1  0  0  0  0  0999 V2000
  190.5960  177.6470  142.4590 C   0  0  0  0  0  0  0  0  0  0  0  0
  188.3570  177.1810  142.9850 C   0  0  1  0  0  3  0  0  0  0  0  0
  188.7270  176.5950  141.6130 C   0  0  0  0  0  2  0  0  0  0  0  0
  191.7840  178.0620  142.4920 O   0  0  0  0  0  0  0  0  0  0  0  0
  189.5800  177.9540  143.4900 C   0  0  1  0  0  3  0  0  0  0  0  0
  190.1020  176.8790  141.4290 O   0  0  0  0  0  0  0  0  0  0  0  0
  183.1450  178.4630  141.3590 O   0  0  0  0  0  1  0  0  0  0  0  0
  185.3060  179.3780  140.0790 O   0  0  0  0  0  1  0  0  0  0  0  0
  182.8710  178.3900  144.1200 C   0  0  0  0  0  1  0  0  0  0  0  0
  186.6470  178.3020  141.6920 C   0  0  0  0  0  3  0  0  0  0  0  0
  185.5120  179.2410  141.4520 C   0  0  2  0  0  3  0  0  0  0  0  0
  187.1540  178.0650  142.9020 C   0  0  0  0  0  0  0  0  0  0  0  0
  186.6080  178.6720  144.1400 C   0  0  0  0  0  3  0  0  0  0  0  0
  184.1790  178.6990  143.4750 C   0  0  0  0  0  0  0  0  0  0  0  0
  185.3200  178.9490  144.3830 C   0  0  0  0  0  3  0  0  0  0  0  0
  184.2590  178.7760  142.1350 C   0  0  0  0  0  0  0  0  0  0  0  0
  191.6060  176.4450  146.2610 C   0  0  0  0  0  3  0  0  0  0  0  0
  189.0810  177.5330  145.8980 C   0  0  0  0  0  3  0  0  0  0  0  0
  189.9900  177.4590  144.8410 C   0  0  0  0  0  0  0  0  0  0  0  0
  191.2250  176.9170  145.0440 N   0  0  0  0  0  0  0  0  0  0  0  0
  189.4540  177.0580  147.1580 C   0  0  0  0  0  0  0  0  0  0  0  0
  190.7240  176.5050  147.3430 C   0  0  0  0  0  3  0  0  0  0  0  0
  188.4910  177.1110  148.2920 C   0  0  0  0  0  2  0  0  0  0  0  0
  187.9640  178.5220  148.4640 C   0  0  0  0  0  2  0  0  0  0  0  0
  186.5920  178.6290  147.8340 C   0  0  0  0  0  1  0  0  0  0  0  0
  1  4  2  0  0  0  0
  1  5  1  0  0  0  0
  2 12  1  6  0  0  0
  2  5  1  0  0  0  0
  3  2  1  0  0  0  0
  5 19  1  1  0  0  0
  6  3  1  0  0  0  0
  6  1  1  0  0  0  0
  7 16  1  0  0  0  0
 10 12  2  0  0  0  0
 11  8  1  6  0  0  0
 11 10  1  0  0  0  0
 11 16  1  0  0  0  0
 12 13  1  0  0  0  0
 13 15  2  0  0  0  0
 14  9  1  0  0  0  0
 14 15  1  0  0  0  0
 16 14  2  0  0  0  0
 17 22  1  0  0  0  0
 18 21  1  0  0  0  0
 19 20  1  0  0  0  0
 19 18  2  0  0  0  0
 20 17  2  0  0  0  0
 21 22  2  0  0  0  0
 21 23  1  0  0  0  0
 23 24  1  0  0  0  0
 25 24  1  0  0  0  0
M  END
>  <MODEL>
5

>  <REMARK>
 VINA RESULT:      -8.2      2.932      5.609
  Name = 
  4 active torsions:
  status: ('A' for Active; 'I' for Inactive)
    1  A    between atoms: C_4  and  C_14
    2  A    between atoms: C_6  and  C_24
    3  A    between atoms: C_7  and  C_17
    4  A    between atoms: C_21  and  C_24
                            x       y       z     vdW  Elec       q    Type
                         _______ _______ _______ _____ _____    ______ ____

>  <TORSDO>
F 4

$$$$
=
 OpenBabel10222417073D

 25 27  0  0  1  0  0  0  0  0999 V2000
  191.6780  177.5790  142.4040 C   0  0  0  0  0  0  0  0  0  0  0  0
  189.7130  178.4170  143.3730 C   0  0  1  0  0  3  0  0  0  0  0  0
  190.9450  179.1630  143.9100 C   0  0  0  0  0  2  0  0  0  0  0  0
  192.5010  176.9120  141.7230 O   0  0  0  0  0  0  0  0  0  0  0  0
  190.2250  177.3090  142.4460 C   0  0  1  0  0  3  0  0  0  0  0  0
  192.0560  178.6230  143.2170 O   0  0  0  0  0  0  0  0  0  0  0  0
  187.5320  178.4190  148.5400 O   0  0  0  0  0  1  0  0  0  0  0  0
  189.6820  176.9680  147.8980 O   0  0  0  0  0  1  0  0  0  0  0  0
  185.2540  178.6280  146.9680 C   0  0  0  0  0  1  0  0  0  0  0  0
  189.4570  177.7200  145.6760 C   0  0  0  0  0  3  0  0  0  0  0  0
  188.7780  177.0840  146.8420 C   0  0  2  0  0  3  0  0  0  0  0  0
  188.8810  177.8550  144.4810 C   0  0  0  0  0  0  0  0  0  0  0  0
  187.4860  177.4340  144.2050 C   0  0  0  0  0  3  0  0  0  0  0  0
  186.4990  177.9890  146.4540 C   0  0  0  0  0  0  0  0  0  0  0  0
  186.4590  177.4890  145.0630 C   0  0  0  0  0  3  0  0  0  0  0  0
  187.5650  177.8610  147.2640 C   0  0  0  0  0  0  0  0  0  0  0  0
  187.8620  178.2530  139.6920 C   0  0  0  0  0  3  0  0  0  0  0  0
  190.1770  176.7610  140.0120 C   0  0  0  0  0  3  0  0  0  0  0  0
  189.5970  177.4270  141.0940 C   0  0  0  0  0  0  0  0  0  0  0  0
  188.4560  178.1520  140.9110 N   0  0  0  0  0  0  0  0  0  0  0  0
  189.5850  176.8560  138.7510 C   0  0  0  0  0  0  0  0  0  0  0  0
  188.4170  177.6030  138.5860 C   0  0  0  0  0  3  0  0  0  0  0  0
  190.1800  176.1360  137.5900 C   0  0  0  0  0  2  0  0  0  0  0  0
  191.5170  175.5350  137.9780 C   0  0  0  0  0  2  0  0  0  0  0  0
  192.5980  176.0820  137.0720 C   0  0  0  0  0  1  0  0  0  0  0  0
  1  5  1  0  0  0  0
  1  6  1  0  0  0  0
  2  3  1  0  0  0  0
  2 12  1  1  0  0  0
  4  1  2  0  0  0  0
  5 19  1  6  0  0  0
  5  2  1  0  0  0  0
  6  3  1  0  0  0  0
 10 11  1  0  0  0  0
 11 16  1  0  0  0  0
 11  8  1  1  0  0  0
 12 10  2  0  0  0  0
 13 12  1  0  0  0  0
 13 15  2  0  0  0  0
 14  9  1  0  0  0  0
 14 16  2  0  0  0  0
 15 14  1  0  0  0  0
 16  7  1  0  0  0  0
 17 20  1  0  0  0  0
 18 19  1  0  0  0  0
 20 19  2  0  0  0  0
 21 18  2  0  0  0  0
 22 21  1  0  0  0  0
 22 17  2  0  0  0  0
 23 24  1  0  0  0  0
 23 21  1  0  0  0  0
 25 24  1  0  0  0  0
M  END
>  <MODEL>
6

>  <REMARK>
 VINA RESULT:      -8.1      1.866      2.598
  Name = 
  4 active torsions:
  status: ('A' for Active; 'I' for Inactive)
    1  A    between atoms: C_4  and  C_14
    2  A    between atoms: C_6  and  C_24
    3  A    between atoms: C_7  and  C_17
    4  A    between atoms: C_21  and  C_24
                            x       y       z     vdW  Elec       q    Type
                         _______ _______ _______ _____ _____    ______ ____

>  <TORSDO>
F 4

$$$$
=
 OpenBabel10222417073D

 25 27  0  0  1  0  0  0  0  0999 V2000
  191.3380  176.8000  143.3300 C   0  0  0  0  0  0  0  0  0  0  0  0
  189.4110  178.1300  143.4770 C   0  0  1  0  0  3  0  0  0  0  0  0
  190.4920  178.6290  144.4510 C   0  0  0  0  0  2  0  0  0  0  0  0
  192.1740  175.9130  143.0120 O   0  0  0  0  0  0  0  0  0  0  0  0
  189.9550  176.8620  142.8100 C   0  0  1  0  0  3  0  0  0  0  0  0
  191.6190  177.8000  144.2330 O   0  0  0  0  0  0  0  0  0  0  0  0
  185.3090  179.3080  147.1160 O   0  0  0  0  0  1  0  0  0  0  0  0
  187.2780  177.5950  147.6890 O   0  0  0  0  0  1  0  0  0  0  0  0
  183.9530  179.3870  144.6950 C   0  0  0  0  0  1  0  0  0  0  0  0
  188.1160  177.9160  145.5100 C   0  0  0  0  0  3  0  0  0  0  0  0
  186.9240  177.5750  146.3400 C   0  0  2  0  0  3  0  0  0  0  0  0
  188.1180  177.8620  144.1780 C   0  0  0  0  0  0  0  0  0  0  0  0
  186.9170  177.5060  143.3830 C   0  0  0  0  0  3  0  0  0  0  0  0
  185.1840  178.5640  144.8720 C   0  0  0  0  0  0  0  0  0  0  0  0
  185.6490  177.8080  143.6890 C   0  0  0  0  0  3  0  0  0  0  0  0
  185.7820  178.5120  146.0750 C   0  0  0  0  0  0  0  0  0  0  0  0
  191.0000  176.7900  139.2100 C   0  0  0  0  0  3  0  0  0  0  0  0
  188.7840  177.5230  140.7080 C   0  0  0  0  0  3  0  0  0  0  0  0
  189.9250  177.0010  141.3210 C   0  0  0  0  0  0  0  0  0  0  0  0
  191.0030  176.6510  140.5630 N   0  0  0  0  0  0  0  0  0  0  0  0
  188.7580  177.6680  139.3190 C   0  0  0  0  0  0  0  0  0  0  0  0
  189.8740  177.3040  138.5610 C   0  0  0  0  0  3  0  0  0  0  0  0
  187.5570  178.2400  138.6500 C   0  0  0  0  0  2  0  0  0  0  0  0
  187.1480  177.3690  137.4780 C   0  0  0  0  0  2  0  0  0  0  0  0
  187.1020  178.2080  136.2180 C   0  0  0  0  0  1  0  0  0  0  0  0
  1  6  1  0  0  0  0
  2 12  1  1  0  0  0
  2  3  1  0  0  0  0
  4  1  2  0  0  0  0
  5 19  1  6  0  0  0
  5  1  1  0  0  0  0
  5  2  1  0  0  0  0
  6  3  1  0  0  0  0
  9 14  1  0  0  0  0
 10 11  1  0  0  0  0
 11  8  1  1  0  0  0
 12 10  2  0  0  0  0
 13 15  2  0  0  0  0
 13 12  1  0  0  0  0
 14 16  2  0  0  0  0
 15 14  1  0  0  0  0
 16 11  1  0  0  0  0
 16  7  1  0  0  0  0
 17 20  1  0  0  0  0
 18 19  1  0  0  0  0
 20 19  2  0  0  0  0
 21 18  2  0  0  0  0
 22 17  2  0  0  0  0
 22 21  1  0  0  0  0
 23 21  1  0  0  0  0
 24 23  1  0  0  0  0
 25 24  1  0  0  0  0
M  END
>  <MODEL>
7

>  <REMARK>
 VINA RESULT:      -7.9      1.240      1.465
  Name = 
  4 active torsions:
  status: ('A' for Active; 'I' for Inactive)
    1  A    between atoms: C_4  and  C_14
    2  A    between atoms: C_6  and  C_24
    3  A    between atoms: C_7  and  C_17
    4  A    between atoms: C_21  and  C_24
                            x       y       z     vdW  Elec       q    Type
                         _______ _______ _______ _____ _____    ______ ____

>  <TORSDO>
F 4

$$$$
=
 OpenBabel10222417073D

 25 27  0  0  1  0  0  0  0  0999 V2000
  186.0530  178.1510  145.3040 C   0  0  0  0  0  0  0  0  0  0  0  0
  184.9340  179.1340  143.4920 C   0  0  1  0  0  3  0  0  0  0  0  0
  184.7430  179.9700  144.7670 C   0  0  0  0  0  2  0  0  0  0  0  0
  186.7350  177.3800  146.0300 O   0  0  0  0  0  0  0  0  0  0  0  0
  185.7280  177.8840  143.8870 C   0  0  1  0  0  3  0  0  0  0  0  0
  185.5040  179.3230  145.7710 O   0  0  0  0  0  0  0  0  0  0  0  0
  179.6510  180.1460  141.9030 O   0  0  0  0  0  1  0  0  0  0  0  0
  180.2380  178.8190  144.1470 O   0  0  0  0  0  1  0  0  0  0  0  0
  180.9030  179.7280  139.4610 C   0  0  0  0  0  1  0  0  0  0  0  0
  182.5200  178.9870  143.5830 C   0  0  0  0  0  3  0  0  0  0  0  0
  181.1590  178.5820  143.1260 C   0  0  2  0  0  3  0  0  0  0  0  0
  183.6240  178.7700  142.8680 C   0  0  0  0  0  0  0  0  0  0  0  0
  183.6050  178.1490  141.5220 C   0  0  0  0  0  3  0  0  0  0  0  0
  181.4260  179.1200  140.7180 C   0  0  0  0  0  0  0  0  0  0  0  0
  182.6500  178.3000  140.5950 C   0  0  0  0  0  3  0  0  0  0  0  0
  180.7610  179.3040  141.8730 C   0  0  0  0  0  0  0  0  0  0  0  0
  188.2340  178.4140  141.1480 C   0  0  0  0  0  3  0  0  0  0  0  0
  187.9310  176.8200  143.3970 C   0  0  0  0  0  3  0  0  0  0  0  0
  186.9590  177.7590  143.0460 C   0  0  0  0  0  0  0  0  0  0  0  0
  187.1290  178.5290  141.9340 N   0  0  0  0  0  0  0  0  0  0  0  0
  189.0750  176.6890  142.6060 C   0  0  0  0  0  0  0  0  0  0  0  0
  189.2290  177.4880  141.4700 C   0  0  0  0  0  3  0  0  0  0  0  0
  190.1130  175.6790  142.9550 C   0  0  0  0  0  2  0  0  0  0  0  0
  191.4040  176.3710  143.3460 C   0  0  0  0  0  2  0  0  0  0  0  0
  191.3580  176.7310  144.8150 C   0  0  0  0  0  1  0  0  0  0  0  0
  1  6  1  0  0  0  0
  1  4  2  0  0  0  0
  2 12  1  1  0  0  0
  2  5  1  0  0  0  0
  2  3  1  0  0  0  0
  3  6  1  0  0  0  0
  5 19  1  6  0  0  0
  5  1  1  0  0  0  0
  9 14  1  0  0  0  0
 11 10  1  0  0  0  0
 11  8  1  1  0  0  0
 12 10  2  0  0  0  0
 13 12  1  0  0  0  0
 14 16  2  0  0  0  0
 15 14  1  0  0  0  0
 15 13  2  0  0  0  0
 16  7  1  0  0  0  0
 16 11  1  0  0  0  0
 17 22  2  0  0  0  0
 17 20  1  0  0  0  0
 19 18  1  0  0  0  0
 20 19  2  0  0  0  0
 21 23  1  0  0  0  0
 21 18  2  0  0  0  0
 22 21  1  0  0  0  0
 23 24  1  0  0  0  0
 24 25  1  0  0  0  0
M  END
>  <MODEL>
8

>  <REMARK>
 VINA RESULT:      -7.8      3.451      5.929
  Name = 
  4 active torsions:
  status: ('A' for Active; 'I' for Inactive)
    1  A    between atoms: C_4  and  C_14
    2  A    between atoms: C_6  and  C_24
    3  A    between atoms: C_7  and  C_17
    4  A    between atoms: C_21  and  C_24
                            x       y       z     vdW  Elec       q    Type
                         _______ _______ _______ _____ _____    ______ ____

>  <TORSDO>
F 4

$$$$
=
 OpenBabel10222417073D

 25 27  0  0  1  0  0  0  0  0999 V2000
  185.8610  178.9420  141.5970 C   0  0  0  0  0  0  0  0  0  0  0  0
  187.2880  177.5040  142.7800 C   0  0  1  0  0  3  0  0  0  0  0  0
  185.8250  177.2850  143.1990 C   0  0  0  0  0  2  0  0  0  0  0  0
  185.4040  179.8230  140.8210 O   0  0  0  0  0  0  0  0  0  0  0  0
  187.3020  178.6690  141.7850 C   0  0  1  0  0  3  0  0  0  0  0  0
  185.0560  178.1520  142.3850 O   0  0  0  0  0  0  0  0  0  0  0  0
  189.5830  176.3140  147.7570 O   0  0  0  0  0  1  0  0  0  0  0  0
  187.4720  177.9340  147.5090 O   0  0  0  0  0  1  0  0  0  0  0  0
  191.8160  176.3840  146.1100 C   0  0  0  0  0  1  0  0  0  0  0  0
  187.6200  177.6760  145.1710 C   0  0  0  0  0  3  0  0  0  0  0  0
  188.3480  178.0230  146.4260 C   0  0  2  0  0  3  0  0  0  0  0  0
  188.1640  177.7860  143.9580 C   0  0  0  0  0  0  0  0  0  0  0  0
  189.5660  178.2160  143.7390 C   0  0  0  0  0  3  0  0  0  0  0  0
  190.5830  177.1560  145.7830 C   0  0  0  0  0  0  0  0  0  0  0  0
  190.6100  177.9450  144.5330 C   0  0  0  0  0  3  0  0  0  0  0  0
  189.5410  177.1370  146.6330 C   0  0  0  0  0  0  0  0  0  0  0  0
  187.8800  177.9480  138.1510 C   0  0  0  0  0  3  0  0  0  0  0  0
  189.2680  177.7610  140.5440 C   0  0  0  0  0  3  0  0  0  0  0  0
  187.9630  178.2580  140.5070 C   0  0  0  0  0  0  0  0  0  0  0  0
  187.3010  178.3370  139.3180 N   0  0  0  0  0  0  0  0  0  0  0  0
  189.8830  177.3610  139.3560 C   0  0  0  0  0  0  0  0  0  0  0  0
  189.1850  177.4510  138.1480 C   0  0  0  0  0  3  0  0  0  0  0  0
  191.2670  176.8120  139.3790 C   0  0  0  0  0  2  0  0  0  0  0  0
  191.4970  175.9250  138.1710 C   0  0  0  0  0  2  0  0  0  0  0  0
  192.7940  176.3190  137.4950 C   0  0  0  0  0  1  0  0  0  0  0  0
  1  5  1  0  0  0  0
  1  6  1  0  0  0  0
  2  3  1  0  0  0  0
  2 12  1  1  0  0  0
  4  1  2  0  0  0  0
  5 19  1  6  0  0  0
  5  2  1  0  0  0  0
  6  3  1  0  0  0  0
 10 11  1  0  0  0  0
 11 16  1  0  0  0  0
 11  8  1  1  0  0  0
 12 10  2  0  0  0  0
 13 12  1  0  0  0  0
 13 15  2  0  0  0  0
 14  9  1  0  0  0  0
 14 16  2  0  0  0  0
 15 14  1  0  0  0  0
 16  7  1  0  0  0  0
 17 20  1  0  0  0  0
 19 18  1  0  0  0  0
 20 19  2  0  0  0  0
 21 23  1  0  0  0  0
 21 18  2  0  0  0  0
 22 17  2  0  0  0  0
 22 21  1  0  0  0  0
 24 23  1  0  0  0  0
 25 24  1  0  0  0  0
M  END
>  <MODEL>
9

>  <REMARK>
 VINA RESULT:      -7.8      2.509      4.660
  Name = 
  4 active torsions:
  status: ('A' for Active; 'I' for Inactive)
    1  A    between atoms: C_4  and  C_14
    2  A    between atoms: C_6  and  C_24
    3  A    between atoms: C_7  and  C_17
    4  A    between atoms: C_21  and  C_24
                            x       y       z     vdW  Elec       q    Type
                         _______ _______ _______ _____ _____    ______ ____

>  <TORSDO>
F 4

$$$$
