=
 OpenBabel10222421243D

 40 48  0  0  1  0  0  0  0  0999 V2000
  188.1860  176.6720  142.6250 C   0  0  2  0  0  3  0  0  0  0  0  0
  189.0790  175.6120  142.4390 O   0  0  0  0  0  1  0  0  0  0  0  0
  188.2410  178.1460  140.6030 C   0  0  0  0  0  0  0  0  0  0  0  0
  188.9960  177.8270  139.5120 C   0  0  0  0  0  0  0  0  0  0  0  0
  192.5700  176.7110  138.8050 C   0  0  0  0  0  0  0  0  0  0  0  0
  193.1470  176.8600  140.0740 C   0  0  0  0  0  3  0  0  0  0  0  0
  191.0090  177.5510  140.9740 C   0  0  0  0  0  0  0  0  0  0  0  0
  190.2160  177.9720  142.0780 N   0  0  0  0  0  2  0  0  0  0  0  0
  190.4230  177.4410  139.7040 C   0  0  0  0  0  0  0  0  0  0  0  0
  191.2160  177.0260  138.6230 C   0  0  0  0  0  3  0  0  0  0  0  0
  188.7570  177.9590  142.0100 C   0  0  2  0  0  3  0  0  0  0  0  0
  192.3670  177.2760  141.1540 C   0  0  0  0  0  3  0  0  0  0  0  0
  186.8930  178.5950  140.4720 N   0  0  0  0  0  1  0  0  0  0  0  0
  187.8890  179.0980  137.8990 O   0  0  0  0  0  0  0  0  0  0  0  0
  187.8570  176.4050  137.8430 C   0  0  2  0  0  0  0  0  0  0  0  0
  188.3570  175.7950  136.6760 O   0  0  0  0  0  1  0  0  0  0  0  0
  188.4990  177.8710  138.0690 C   0  0  1  0  0  0  0  0  0  0  0  0
  186.4460  176.8210  137.6620 N   0  0  0  0  0  2  0  0  0  0  0  0
  187.1540  177.8420  137.7810 C   0  0  1  0  0  0  0  0  0  0  0  0
  193.4170  176.3120  137.6350 C   0  0  0  0  0  3  0  0  0  0  0  0
  193.0350  174.9230  137.1470 C   0  0  0  0  0  2  0  0  0  0  0  0
  194.2750  175.1090  137.9900 C   0  0  0  0  0  2  0  0  0  0  0  0
  186.5100  177.4110  144.4410 N   0  0  0  0  0  0  0  0  0  0  0  0
  188.9130  177.4590  144.9670 C   0  0  2  0  0  3  0  0  0  0  0  0
  187.7300  178.2360  144.4340 C   0  0  1  0  0  3  0  0  0  0  0  0
  187.8310  176.8030  144.1240 C   0  0  1  0  0  0  0  0  0  0  0  0
  189.9590  176.9350  147.2890 C   0  0  1  0  0  3  0  0  0  0  0  0
  189.3180  178.3060  147.2580 C   0  0  0  0  0  2  0  0  0  0  0  0
  188.6940  177.1830  146.4550 C   0  0  1  0  0  3  0  0  0  0  0  0
  191.2600  176.9550  146.4970 C   0  0  0  0  0  2  0  0  0  0  0  0
  192.1560  175.8660  146.9720 C   0  0  0  0  0  0  0  0  0  0  0  0
  192.3530  174.8500  146.2550 O   0  0  0  0  0  0  0  0  0  0  0  0
  192.7700  175.9600  148.2520 N   0  0  0  0  0  1  0  0  0  0  0  0
  185.7420  177.8200  143.2680 C   0  0  0  0  0  2  0  0  0  0  0  0
  185.0350  179.1390  143.5350 C   0  0  0  0  0  2  0  0  0  0  0  0
  184.1860  179.0630  144.7940 C   0  0  0  0  0  2  0  0  0  0  0  0
  182.7510  178.7040  144.4480 C   0  0  0  0  0  2  0  0  0  0  0  0
  182.4450  179.0500  143.0000 C   0  0  0  0  0  2  0  0  0  0  0  0
  180.4770  180.3590  142.9950 O   0  0  0  0  0  0  0  0  0  0  0  0
  180.9790  179.2650  142.7930 C   0  0  0  0  0  3  0  0  0  0  0  0
  1  2  1  1  0  0  0
  3 11  1  0  0  0  0
  4  9  1  0  0  0  0
  4  3  2  0  0  0  0
  5  6  1  0  0  0  0
  6 12  2  0  0  0  0
  7 12  1  0  0  0  0
  7  8  1  0  0  0  0
  9  7  2  0  0  0  0
 10  5  2  0  0  0  0
 10  9  1  0  0  0  0
 11  8  1  0  0  0  0
 11  1  1  6  0  0  0
 13  3  1  0  0  0  0
 14 17  1  0  0  0  0
 15 16  1  6  0  0  0
 15 17  1  0  0  0  0
 17  4  1  1  0  0  0
 18 15  1  0  0  0  0
 19 18  1  1  0  0  0
 19 15  1  0  0  0  0
 19 14  1  0  0  0  0
 19 17  1  0  0  0  0
 20 22  1  0  0  0  0
 20  5  1  0  0  0  0
 21 20  1  0  0  0  0
 21 22  1  0  0  0  0
 24 29  1  1  0  0  0
 25 23  1  1  0  0  0
 25 24  1  0  0  0  0
 26  1  1  6  0  0  0
 26 25  1  0  0  0  0
 26 23  1  0  0  0  0
 26 24  1  0  0  0  0
 27 30  1  6  0  0  0
 28 27  1  0  0  0  0
 29 28  1  1  0  0  0
 29 27  1  0  0  0  0
 30 31  1  0  0  0  0
 31 33  1  0  0  0  0
 32 31  2  0  0  0  0
 34 35  1  0  0  0  0
 34 23  1  0  0  0  0
 35 36  1  0  0  0  0
 37 36  1  0  0  0  0
 38 37  1  0  0  0  0
 40 39  2  0  0  0  0
 40 38  1  0  0  0  0
M  END
>  <MODEL>
1

>  <REMARK>
 VINA RESULT:      -8.3      0.000      0.000
  Name = 
  13 active torsions:
  status: ('A' for Active; 'I' for Inactive)
    1  A    between atoms: C_2  and  C_37
    2  A    between atoms: C_2  and  C_40
    3  A    between atoms: C_5  and  C_11
    4  A    between atoms: C_7  and  C_14
    5  A    between atoms: C_9  and  C_30
    6  A    between atoms: C_9  and  C_37
    7  A    between atoms: C_10  and  C_27
    8  A    between atoms: C_12  and  C_26
    9  A    between atoms: C_12  and  C_36
   10  A    between atoms: N_15  and  C_30
   11  A    between atoms: C_17  and  C_35
   12  A    between atoms: C_18  and  C_27
   13  A    between atoms: C_19  and  C_40
                            x       y       z     vdW  Elec       q    Type
                         _______ _______ _______ _____ _____    ______ ____

>  <TORSDO>
F 13

$$$$
=
 OpenBabel10222421243D

 40 48  0  0  1  0  0  0  0  0999 V2000
  189.1610  176.8990  141.4210 C   0  0  2  0  0  3  0  0  0  0  0  0
  190.1330  175.9290  141.6860 O   0  0  0  0  0  1  0  0  0  0  0  0
  188.7140  177.8010  139.1300 C   0  0  0  0  0  0  0  0  0  0  0  0
  189.0080  177.0770  138.0110 C   0  0  0  0  0  0  0  0  0  0  0  0
  191.9570  175.0820  136.6570 C   0  0  0  0  0  0  0  0  0  0  0  0
  192.9440  175.4000  137.6000 C   0  0  0  0  0  3  0  0  0  0  0  0
  191.3450  176.7290  138.8370 C   0  0  0  0  0  0  0  0  0  0  0  0
  191.0330  177.5620  139.9490 N   0  0  0  0  0  2  0  0  0  0  0  0
  190.3540  176.4500  137.8850 C   0  0  0  0  0  0  0  0  0  0  0  0
  190.6740  175.6280  136.7920 C   0  0  0  0  0  3  0  0  0  0  0  0
  189.6480  177.8470  140.3160 C   0  0  2  0  0  3  0  0  0  0  0  0
  192.6370  176.2190  138.6880 C   0  0  0  0  0  3  0  0  0  0  0  0
  187.4700  178.4860  139.2700 N   0  0  0  0  0  1  0  0  0  0  0  0
  187.6190  178.1400  136.4660 O   0  0  0  0  0  0  0  0  0  0  0  0
  187.1690  175.6050  137.2630 C   0  0  2  0  0  0  0  0  0  0  0  0
  187.1450  174.6250  136.2520 O   0  0  0  0  0  1  0  0  0  0  0  0
  188.0600  176.8830  136.8290 C   0  0  1  0  0  0  0  0  0  0  0  0
  185.8590  176.2920  137.3690 N   0  0  0  0  0  2  0  0  0  0  0  0
  186.7100  177.1080  136.9580 C   0  0  1  0  0  0  0  0  0  0  0  0
  192.2990  174.2430  135.4630 C   0  0  0  0  0  3  0  0  0  0  0  0
  192.1230  172.7660  135.7800 C   0  0  0  0  0  2  0  0  0  0  0  0
  193.5080  173.3700  135.7600 C   0  0  0  0  0  2  0  0  0  0  0  0
  189.7710  177.5890  143.8300 N   0  0  0  0  0  0  0  0  0  0  0  0
  187.4020  177.2260  143.2720 C   0  0  2  0  0  3  0  0  0  0  0  0
  188.6790  176.6020  143.7880 C   0  0  1  0  0  3  0  0  0  0  0  0
  188.7670  177.6180  142.7310 C   0  0  1  0  0  0  0  0  0  0  0  0
  185.4570  178.7330  144.1130 C   0  0  1  0  0  3  0  0  0  0  0  0
  185.7750  177.6260  145.0950 C   0  0  0  0  0  2  0  0  0  0  0  0
  186.9020  178.2470  144.2950 C   0  0  1  0  0  3  0  0  0  0  0  0
  184.7380  178.1580  142.9000 C   0  0  0  0  0  2  0  0  0  0  0  0
  183.3460  178.6810  142.8440 C   0  0  0  0  0  0  0  0  0  0  0  0
  182.7960  179.1290  143.8840 O   0  0  0  0  0  0  0  0  0  0  0  0
  182.6260  178.6490  141.6180 N   0  0  0  0  0  1  0  0  0  0  0  0
  190.9910  176.8540  143.5080 C   0  0  0  0  0  2  0  0  0  0  0  0
  191.5440  176.1800  144.7540 C   0  0  0  0  0  2  0  0  0  0  0  0
  191.5790  177.1430  145.9300 C   0  0  0  0  0  2  0  0  0  0  0  0
  191.0660  176.4640  147.1890 C   0  0  0  0  0  2  0  0  0  0  0  0
  189.5540  176.5850  147.2870 C   0  0  0  0  0  2  0  0  0  0  0  0
  188.4180  178.1860  148.6020 O   0  0  0  0  0  0  0  0  0  0  0  0
  189.1440  177.9780  147.6430 C   0  0  0  0  0  3  0  0  0  0  0  0
  1  2  1  1  0  0  0
  3 13  1  0  0  0  0
  3 11  1  0  0  0  0
  4  3  2  0  0  0  0
  5 10  2  0  0  0  0
  5  6  1  0  0  0  0
  6 12  2  0  0  0  0
  7  8  1  0  0  0  0
  8 11  1  0  0  0  0
  9  4  1  0  0  0  0
  9  7  2  0  0  0  0
 10  9  1  0  0  0  0
 11  1  1  1  0  0  0
 12  7  1  0  0  0  0
 14 17  1  0  0  0  0
 15 16  1  6  0  0  0
 15 18  1  0  0  0  0
 17 19  1  0  0  0  0
 17 15  1  0  0  0  0
 17  4  1  1  0  0  0
 19 14  1  6  0  0  0
 19 15  1  0  0  0  0
 19 18  1  0  0  0  0
 20 22  1  0  0  0  0
 20 21  1  0  0  0  0
 20  5  1  0  0  0  0
 22 21  1  0  0  0  0
 24 25  1  0  0  0  0
 24 29  1  1  0  0  0
 25 23  1  1  0  0  0
 26  1  1  6  0  0  0
 26 24  1  0  0  0  0
 26 25  1  0  0  0  0
 26 23  1  0  0  0  0
 27 30  1  6  0  0  0
 27 29  1  0  0  0  0
 27 28  1  0  0  0  0
 29 28  1  1  0  0  0
 31 30  1  0  0  0  0
 31 32  2  0  0  0  0
 33 31  1  0  0  0  0
 34 23  1  0  0  0  0
 34 35  1  0  0  0  0
 35 36  1  0  0  0  0
 36 37  1  0  0  0  0
 37 38  1  0  0  0  0
 38 40  1  0  0  0  0
 40 39  2  0  0  0  0
M  END
>  <MODEL>
2

>  <REMARK>
 VINA RESULT:      -7.6      1.853      5.241
  Name = 
  13 active torsions:
  status: ('A' for Active; 'I' for Inactive)
    1  A    between atoms: C_2  and  C_37
    2  A    between atoms: C_2  and  C_40
    3  A    between atoms: C_5  and  C_11
    4  A    between atoms: C_7  and  C_14
    5  A    between atoms: C_9  and  C_30
    6  A    between atoms: C_9  and  C_37
    7  A    between atoms: C_10  and  C_27
    8  A    between atoms: C_12  and  C_26
    9  A    between atoms: C_12  and  C_36
   10  A    between atoms: N_15  and  C_30
   11  A    between atoms: C_17  and  C_35
   12  A    between atoms: C_18  and  C_27
   13  A    between atoms: C_19  and  C_40
                            x       y       z     vdW  Elec       q    Type
                         _______ _______ _______ _____ _____    ______ ____

>  <TORSDO>
F 13

$$$$
=
 OpenBabel10222421243D

 40 48  0  0  1  0  0  0  0  0999 V2000
  187.9210  177.3960  141.9330 C   0  0  2  0  0  3  0  0  0  0  0  0
  188.9670  176.4940  141.7170 O   0  0  0  0  0  1  0  0  0  0  0  0
  186.5430  178.8950  140.4780 C   0  0  0  0  0  0  0  0  0  0  0  0
  185.9630  178.4350  139.3310 C   0  0  0  0  0  0  0  0  0  0  0  0
  187.0080  176.4140  136.2750 C   0  0  0  0  0  0  0  0  0  0  0  0
  188.3940  176.3370  136.4740 C   0  0  0  0  0  3  0  0  0  0  0  0
  188.1710  177.5440  138.5590 C   0  0  0  0  0  0  0  0  0  0  0  0
  188.7620  178.1130  139.7220 N   0  0  0  0  0  2  0  0  0  0  0  0
  186.7880  177.6620  138.3600 C   0  0  0  0  0  0  0  0  0  0  0  0
  186.2160  177.0980  137.2080 C   0  0  0  0  0  3  0  0  0  0  0  0
  187.9480  178.5040  140.8710 C   0  0  2  0  0  3  0  0  0  0  0  0
  188.9720  176.8970  137.6140 C   0  0  0  0  0  3  0  0  0  0  0  0
  185.8220  179.7040  141.4060 N   0  0  0  0  0  1  0  0  0  0  0  0
  184.3060  180.0470  139.0220 O   0  0  0  0  0  0  0  0  0  0  0  0
  183.7000  177.5080  139.6910 C   0  0  2  0  0  0  0  0  0  0  0  0
  182.8540  176.8110  138.8070 O   0  0  0  0  0  1  0  0  0  0  0  0
  184.5100  178.6850  138.9330 C   0  0  1  0  0  0  0  0  0  0  0  0
  182.9170  178.3590  140.6180 N   0  0  0  0  0  2  0  0  0  0  0  0
  183.5810  179.0960  139.8600 C   0  0  1  0  0  0  0  0  0  0  0  0
  186.3950  175.8560  135.0280 C   0  0  0  0  0  3  0  0  0  0  0  0
  185.7300  174.5170  135.3120 C   0  0  0  0  0  2  0  0  0  0  0  0
  187.0810  174.5570  134.6370 C   0  0  0  0  0  2  0  0  0  0  0  0
  189.2670  177.7460  144.1060 N   0  0  0  0  0  0  0  0  0  0  0  0
  186.8290  177.4550  144.2650 C   0  0  2  0  0  3  0  0  0  0  0  0
  188.1770  176.7700  144.2710 C   0  0  1  0  0  3  0  0  0  0  0  0
  187.9760  177.9250  143.3850 C   0  0  1  0  0  0  0  0  0  0  0  0
  185.2800  178.6630  145.9680 C   0  0  1  0  0  3  0  0  0  0  0  0
  186.0280  177.5130  146.6070 C   0  0  0  0  0  2  0  0  0  0  0  0
  186.7070  178.3200  145.5190 C   0  0  1  0  0  3  0  0  0  0  0  0
  184.1800  178.1250  145.0620 C   0  0  0  0  0  2  0  0  0  0  0  0
  183.5150  179.2510  144.3520 C   0  0  0  0  0  0  0  0  0  0  0  0
  184.1180  180.3440  144.1940 O   0  0  0  0  0  0  0  0  0  0  0  0
  182.1840  179.1000  143.8730 N   0  0  0  0  0  1  0  0  0  0  0  0
  190.2990  177.0680  143.3270 C   0  0  0  0  0  2  0  0  0  0  0  0
  191.3630  176.4940  144.2490 C   0  0  0  0  0  2  0  0  0  0  0  0
  191.5110  177.3340  145.5080 C   0  0  0  0  0  2  0  0  0  0  0  0
  191.5000  176.4490  146.7430 C   0  0  0  0  0  2  0  0  0  0  0  0
  190.1140  176.4130  147.3660 C   0  0  0  0  0  2  0  0  0  0  0  0
  189.4940  178.2440  148.7260 O   0  0  0  0  0  0  0  0  0  0  0  0
  189.5880  177.7950  147.5940 C   0  0  0  0  0  3  0  0  0  0  0  0
  1  2  1  6  0  0  0
  3 11  1  0  0  0  0
  3 13  1  0  0  0  0
  4  3  2  0  0  0  0
  5  6  2  0  0  0  0
  5 10  1  0  0  0  0
  6 12  1  0  0  0  0
  7  8  1  0  0  0  0
  8 11  1  0  0  0  0
  9  7  1  0  0  0  0
  9  4  1  0  0  0  0
 10  9  2  0  0  0  0
 11  1  1  1  0  0  0
 12  7  2  0  0  0  0
 15 16  1  6  0  0  0
 15 19  1  0  0  0  0
 15 18  1  0  0  0  0
 17 14  1  0  0  0  0
 17  4  1  1  0  0  0
 17 15  1  0  0  0  0
 17 19  1  0  0  0  0
 19 14  1  6  0  0  0
 19 18  1  0  0  0  0
 20 21  1  0  0  0  0
 20  5  1  0  0  0  0
 22 20  1  0  0  0  0
 22 21  1  0  0  0  0
 24 25  1  0  0  0  0
 24 29  1  1  0  0  0
 25 23  1  1  0  0  0
 26  1  1  6  0  0  0
 26 23  1  0  0  0  0
 26 24  1  0  0  0  0
 26 25  1  0  0  0  0
 27 30  1  6  0  0  0
 27 28  1  0  0  0  0
 29 27  1  0  0  0  0
 29 28  1  1  0  0  0
 31 30  1  0  0  0  0
 32 31  2  0  0  0  0
 33 31  1  0  0  0  0
 34 23  1  0  0  0  0
 34 35  1  0  0  0  0
 35 36  1  0  0  0  0
 36 37  1  0  0  0  0
 37 38  1  0  0  0  0
 38 40  1  0  0  0  0
 40 39  2  0  0  0  0
M  END
>  <MODEL>
3

>  <REMARK>
 VINA RESULT:      -7.4      2.779      6.037
  Name = 
  13 active torsions:
  status: ('A' for Active; 'I' for Inactive)
    1  A    between atoms: C_2  and  C_37
    2  A    between atoms: C_2  and  C_40
    3  A    between atoms: C_5  and  C_11
    4  A    between atoms: C_7  and  C_14
    5  A    between atoms: C_9  and  C_30
    6  A    between atoms: C_9  and  C_37
    7  A    between atoms: C_10  and  C_27
    8  A    between atoms: C_12  and  C_26
    9  A    between atoms: C_12  and  C_36
   10  A    between atoms: N_15  and  C_30
   11  A    between atoms: C_17  and  C_35
   12  A    between atoms: C_18  and  C_27
   13  A    between atoms: C_19  and  C_40
                            x       y       z     vdW  Elec       q    Type
                         _______ _______ _______ _____ _____    ______ ____

>  <TORSDO>
F 13

$$$$
=
 OpenBabel10222421243D

 40 48  0  0  1  0  0  0  0  0999 V2000
  188.0980  177.4860  141.9620 C   0  0  2  0  0  3  0  0  0  0  0  0
  188.7510  176.4810  141.2410 O   0  0  0  0  0  1  0  0  0  0  0  0
  186.4560  178.9670  140.7890 C   0  0  0  0  0  0  0  0  0  0  0  0
  185.8980  178.6050  139.5980 C   0  0  0  0  0  0  0  0  0  0  0  0
  187.0870  177.2530  136.2400 C   0  0  0  0  0  0  0  0  0  0  0  0
  188.4760  177.3530  136.3950 C   0  0  0  0  0  3  0  0  0  0  0  0
  188.1750  178.1820  138.6480 C   0  0  0  0  0  0  0  0  0  0  0  0
  188.7290  178.6480  139.8730 N   0  0  0  0  0  2  0  0  0  0  0  0
  186.7810  178.1210  138.4990 C   0  0  0  0  0  0  0  0  0  0  0  0
  186.2470  177.6610  137.2850 C   0  0  0  0  0  3  0  0  0  0  0  0
  187.9190  178.7350  141.0860 C   0  0  2  0  0  3  0  0  0  0  0  0
  189.0170  177.8130  137.5960 C   0  0  0  0  0  3  0  0  0  0  0  0
  185.6680  179.5070  141.8490 N   0  0  0  0  0  1  0  0  0  0  0  0
  184.0670  180.0290  139.3470 O   0  0  0  0  0  0  0  0  0  0  0  0
  183.7670  177.4590  140.1000 C   0  0  2  0  0  0  0  0  0  0  0  0
  182.9520  176.6560  139.2780 O   0  0  0  0  0  1  0  0  0  0  0  0
  184.4080  178.6930  139.2750 C   0  0  1  0  0  0  0  0  0  0  0  0
  182.9480  178.2480  141.0510 N   0  0  0  0  0  2  0  0  0  0  0  0
  183.4910  179.0300  140.2430 C   0  0  1  0  0  0  0  0  0  0  0  0
  186.5050  176.8050  134.9340 C   0  0  0  0  0  3  0  0  0  0  0  0
  185.5650  175.6280  135.1430 C   0  0  0  0  0  2  0  0  0  0  0  0
  186.9590  175.3910  134.6110 C   0  0  0  0  0  2  0  0  0  0  0  0
  190.3020  177.4170  143.3010 N   0  0  0  0  0  0  0  0  0  0  0  0
  188.1760  177.1790  144.5170 C   0  0  2  0  0  3  0  0  0  0  0  0
  189.3040  176.4610  143.8110 C   0  0  1  0  0  3  0  0  0  0  0  0
  188.8520  177.7560  143.2840 C   0  0  1  0  0  0  0  0  0  0  0  0
  187.7050  178.0390  146.9250 C   0  0  1  0  0  3  0  0  0  0  0  0
  188.6070  176.8230  146.9290 C   0  0  0  0  0  2  0  0  0  0  0  0
  188.7190  177.8210  145.7940 C   0  0  1  0  0  3  0  0  0  0  0  0
  186.2780  177.6230  146.5920 C   0  0  0  0  0  2  0  0  0  0  0  0
  185.3830  178.8110  146.6370 C   0  0  0  0  0  0  0  0  0  0  0  0
  185.6750  179.7960  147.3640 O   0  0  0  0  0  0  0  0  0  0  0  0
  184.1810  178.8210  145.8770 N   0  0  0  0  0  1  0  0  0  0  0  0
  190.7990  176.8500  142.0510 C   0  0  0  0  0  2  0  0  0  0  0  0
  192.0780  177.5540  141.6250 C   0  0  0  0  0  2  0  0  0  0  0  0
  192.1070  177.7760  140.1210 C   0  0  0  0  0  2  0  0  0  0  0  0
  193.0730  176.8080  139.4580 C   0  0  0  0  0  2  0  0  0  0  0  0
  192.4330  176.1610  138.2410 C   0  0  0  0  0  2  0  0  0  0  0  0
  194.4260  175.5100  137.1510 O   0  0  0  0  0  0  0  0  0  0  0  0
  193.3790  176.1330  137.0820 C   0  0  0  0  0  3  0  0  0  0  0  0
  1  2  1  6  0  0  0
  3 11  1  0  0  0  0
  3 13  1  0  0  0  0
  4  3  2  0  0  0  0
  5  6  2  0  0  0  0
  5 10  1  0  0  0  0
  6 12  1  0  0  0  0
  7  8  1  0  0  0  0
  8 11  1  0  0  0  0
  9  7  1  0  0  0  0
  9  4  1  0  0  0  0
 10  9  2  0  0  0  0
 11  1  1  6  0  0  0
 12  7  2  0  0  0  0
 15 16  1  6  0  0  0
 15 19  1  0  0  0  0
 15 18  1  0  0  0  0
 17 14  1  0  0  0  0
 17  4  1  1  0  0  0
 17 15  1  0  0  0  0
 17 19  1  0  0  0  0
 19 14  1  6  0  0  0
 19 18  1  0  0  0  0
 20 21  1  0  0  0  0
 20  5  1  0  0  0  0
 22 20  1  0  0  0  0
 22 21  1  0  0  0  0
 24 29  1  1  0  0  0
 25 23  1  1  0  0  0
 25 24  1  0  0  0  0
 26  1  1  6  0  0  0
 26 23  1  0  0  0  0
 26 25  1  0  0  0  0
 26 24  1  0  0  0  0
 27 30  1  6  0  0  0
 27 28  1  0  0  0  0
 29 27  1  0  0  0  0
 29 28  1  1  0  0  0
 30 31  1  0  0  0  0
 31 32  2  0  0  0  0
 33 31  1  0  0  0  0
 34 23  1  0  0  0  0
 35 34  1  0  0  0  0
 36 35  1  0  0  0  0
 37 36  1  0  0  0  0
 38 37  1  0  0  0  0
 40 39  2  0  0  0  0
 40 38  1  0  0  0  0
M  END
>  <MODEL>
4

>  <REMARK>
 VINA RESULT:      -7.1      2.649      6.451
  Name = 
  13 active torsions:
  status: ('A' for Active; 'I' for Inactive)
    1  A    between atoms: C_2  and  C_37
    2  A    between atoms: C_2  and  C_40
    3  A    between atoms: C_5  and  C_11
    4  A    between atoms: C_7  and  C_14
    5  A    between atoms: C_9  and  C_30
    6  A    between atoms: C_9  and  C_37
    7  A    between atoms: C_10  and  C_27
    8  A    between atoms: C_12  and  C_26
    9  A    between atoms: C_12  and  C_36
   10  A    between atoms: N_15  and  C_30
   11  A    between atoms: C_17  and  C_35
   12  A    between atoms: C_18  and  C_27
   13  A    between atoms: C_19  and  C_40
                            x       y       z     vdW  Elec       q    Type
                         _______ _______ _______ _____ _____    ______ ____

>  <TORSDO>
F 13

$$$$
=
 OpenBabel10222421243D

 40 48  0  0  1  0  0  0  0  0999 V2000
  184.4470  177.9280  140.7090 C   0  0  2  0  0  3  0  0  0  0  0  0
  183.6800  177.2570  141.6670 O   0  0  0  0  0  1  0  0  0  0  0  0
  186.6770  178.8020  141.4340 C   0  0  0  0  0  0  0  0  0  0  0  0
  187.2670  178.3750  142.5880 C   0  0  0  0  0  0  0  0  0  0  0  0
  186.2690  177.8800  146.2310 C   0  0  0  0  0  0  0  0  0  0  0  0
  184.9980  178.4710  146.2370 C   0  0  0  0  0  3  0  0  0  0  0  0
  185.1830  178.9130  143.8650 C   0  0  0  0  0  0  0  0  0  0  0  0
  184.6280  179.4330  142.6620 N   0  0  0  0  0  2  0  0  0  0  0  0
  186.4710  178.3570  143.8470 C   0  0  0  0  0  0  0  0  0  0  0  0
  187.0080  177.8490  145.0410 C   0  0  0  0  0  3  0  0  0  0  0  0
  185.1980  179.0990  141.3590 C   0  0  2  0  0  3  0  0  0  0  0  0
  184.4570  178.9820  145.0560 C   0  0  0  0  0  3  0  0  0  0  0  0
  187.4130  178.9110  140.2160 N   0  0  0  0  0  1  0  0  0  0  0  0
  189.4920  178.9960  142.2630 O   0  0  0  0  0  0  0  0  0  0  0  0
  188.7140  176.4190  142.1500 C   0  0  2  0  0  0  0  0  0  0  0  0
  189.3400  175.5340  143.0490 O   0  0  0  0  0  1  0  0  0  0  0  0
  188.7260  177.9370  142.7070 C   0  0  1  0  0  0  0  0  0  0  0  0
  189.5490  176.6320  140.9450 N   0  0  0  0  0  2  0  0  0  0  0  0
  189.4890  177.7010  141.5870 C   0  0  1  0  0  0  0  0  0  0  0  0
  186.8700  177.3750  147.5080 C   0  0  0  0  0  3  0  0  0  0  0  0
  187.7430  178.4440  148.1470 C   0  0  0  0  0  2  0  0  0  0  0  0
  188.3840  177.3060  147.3880 C   0  0  0  0  0  2  0  0  0  0  0  0
  184.1180  178.1250  138.1590 N   0  0  0  0  0  0  0  0  0  0  0  0
  182.9950  179.7550  139.6210 C   0  0  2  0  0  3  0  0  0  0  0  0
  184.2340  179.4390  138.8140 C   0  0  1  0  0  3  0  0  0  0  0  0
  183.5530  178.3450  139.5190 C   0  0  1  0  0  0  0  0  0  0  0  0
  180.4240  179.9720  139.3070 C   0  0  1  0  0  3  0  0  0  0  0  0
  181.1400  181.2670  138.9880 C   0  0  0  0  0  2  0  0  0  0  0  0
  181.8180  179.9510  138.6650 C   0  0  1  0  0  3  0  0  0  0  0  0
  180.4100  179.7460  140.8130 C   0  0  0  0  0  2  0  0  0  0  0  0
  179.8530  178.4000  141.1150 C   0  0  0  0  0  0  0  0  0  0  0  0
  180.0040  177.4540  140.2990 O   0  0  0  0  0  0  0  0  0  0  0  0
  179.1240  178.1890  142.3180 N   0  0  0  0  0  1  0  0  0  0  0  0
  185.4640  177.5590  138.1530 C   0  0  0  0  0  2  0  0  0  0  0  0
  185.7070  176.7920  136.8630 C   0  0  0  0  0  2  0  0  0  0  0  0
  187.0640  176.1060  136.8790 C   0  0  0  0  0  2  0  0  0  0  0  0
  188.0860  176.9290  136.1120 C   0  0  0  0  0  2  0  0  0  0  0  0
  189.1360  177.4950  137.0550 C   0  0  0  0  0  2  0  0  0  0  0  0
  187.9730  179.5470  136.9070 O   0  0  0  0  0  0  0  0  0  0  0  0
  189.0270  178.9830  137.1560 C   0  0  0  0  0  3  0  0  0  0  0  0
  1  2  1  1  0  0  0
  3  4  2  0  0  0  0
  4  9  1  0  0  0  0
  5  6  1  0  0  0  0
  5 20  1  0  0  0  0
  7 12  1  0  0  0  0
  8  7  1  0  0  0  0
  9  7  2  0  0  0  0
  9 10  1  0  0  0  0
 10  5  2  0  0  0  0
 11  1  1  1  0  0  0
 11  3  1  0  0  0  0
 11  8  1  0  0  0  0
 12  6  2  0  0  0  0
 13  3  1  0  0  0  0
 14 17  1  0  0  0  0
 15 17  1  0  0  0  0
 15 16  1  1  0  0  0
 17  4  1  6  0  0  0
 18 15  1  0  0  0  0
 19 18  1  6  0  0  0
 19 15  1  0  0  0  0
 19 14  1  0  0  0  0
 19 17  1  0  0  0  0
 20 21  1  0  0  0  0
 22 20  1  0  0  0  0
 22 21  1  0  0  0  0
 23 26  1  0  0  0  0
 24 29  1  6  0  0  0
 25 23  1  6  0  0  0
 25 26  1  0  0  0  0
 25 24  1  0  0  0  0
 26 24  1  0  0  0  0
 26  1  1  1  0  0  0
 27 30  1  1  0  0  0
 28 27  1  0  0  0  0
 29 28  1  1  0  0  0
 29 27  1  0  0  0  0
 30 31  1  0  0  0  0
 31 33  1  0  0  0  0
 32 31  2  0  0  0  0
 34 23  1  0  0  0  0
 35 36  1  0  0  0  0
 35 34  1  0  0  0  0
 37 36  1  0  0  0  0
 37 38  1  0  0  0  0
 38 40  1  0  0  0  0
 39 40  2  0  0  0  0
M  END
>  <MODEL>
5

>  <REMARK>
 VINA RESULT:      -7.1      2.908      8.718
  Name = 
  13 active torsions:
  status: ('A' for Active; 'I' for Inactive)
    1  A    between atoms: C_2  and  C_37
    2  A    between atoms: C_2  and  C_40
    3  A    between atoms: C_5  and  C_11
    4  A    between atoms: C_7  and  C_14
    5  A    between atoms: C_9  and  C_30
    6  A    between atoms: C_9  and  C_37
    7  A    between atoms: C_10  and  C_27
    8  A    between atoms: C_12  and  C_26
    9  A    between atoms: C_12  and  C_36
   10  A    between atoms: N_15  and  C_30
   11  A    between atoms: C_17  and  C_35
   12  A    between atoms: C_18  and  C_27
   13  A    between atoms: C_19  and  C_40
                            x       y       z     vdW  Elec       q    Type
                         _______ _______ _______ _____ _____    ______ ____

>  <TORSDO>
F 13

$$$$
=
 OpenBabel10222421243D

 40 48  0  0  1  0  0  0  0  0999 V2000
  185.0220  177.9520  140.5070 C   0  0  2  0  0  3  0  0  0  0  0  0
  183.8130  177.7060  141.1670 O   0  0  0  0  0  1  0  0  0  0  0  0
  187.2480  178.7200  141.3530 C   0  0  0  0  0  0  0  0  0  0  0  0
  187.7610  178.2540  142.5280 C   0  0  0  0  0  0  0  0  0  0  0  0
  186.5640  177.7590  146.1110 C   0  0  0  0  0  0  0  0  0  0  0  0
  185.3200  178.4040  146.0620 C   0  0  0  0  0  3  0  0  0  0  0  0
  185.6410  178.8660  143.7090 C   0  0  0  0  0  0  0  0  0  0  0  0
  185.1690  179.4240  142.4880 N   0  0  0  0  0  2  0  0  0  0  0  0
  186.9030  178.2550  143.7460 C   0  0  0  0  0  0  0  0  0  0  0  0
  187.3590  177.7100  144.9580 C   0  0  0  0  0  3  0  0  0  0  0  0
  185.7890  179.0820  141.2100 C   0  0  2  0  0  3  0  0  0  0  0  0
  184.8600  178.9520  144.8640 C   0  0  0  0  0  3  0  0  0  0  0  0
  188.0470  178.8120  140.1740 N   0  0  0  0  0  1  0  0  0  0  0  0
  190.0240  178.7930  142.3500 O   0  0  0  0  0  0  0  0  0  0  0  0
  189.1520  176.2560  142.1020 C   0  0  2  0  0  0  0  0  0  0  0  0
  189.6910  175.3160  143.0020 O   0  0  0  0  0  1  0  0  0  0  0  0
  189.1920  177.7530  142.7120 C   0  0  1  0  0  0  0  0  0  0  0  0
  190.0630  176.4750  140.9530 N   0  0  0  0  0  2  0  0  0  0  0  0
  190.0080  177.5230  141.6290 C   0  0  1  0  0  0  0  0  0  0  0  0
  187.0780  177.2140  147.4080 C   0  0  0  0  0  3  0  0  0  0  0  0
  187.9290  178.2510  148.1240 C   0  0  0  0  0  2  0  0  0  0  0  0
  188.5950  177.1190  147.3760 C   0  0  0  0  0  2  0  0  0  0  0  0
  183.5320  179.0020  138.6820 N   0  0  0  0  0  0  0  0  0  0  0  0
  184.8180  176.9770  138.1330 C   0  0  2  0  0  3  0  0  0  0  0  0
  183.5080  177.5290  138.6490 C   0  0  1  0  0  3  0  0  0  0  0  0
  184.7550  178.2180  139.0080 C   0  0  1  0  0  0  0  0  0  0  0  0
  186.2200  176.8200  135.9490 C   0  0  1  0  0  3  0  0  0  0  0  0
  184.9010  176.0880  135.8240 C   0  0  0  0  0  2  0  0  0  0  0  0
  184.9660  177.3510  136.6580 C   0  0  1  0  0  3  0  0  0  0  0  0
  187.1690  176.0270  136.8390 C   0  0  0  0  0  2  0  0  0  0  0  0
  188.4410  176.7780  137.0140 C   0  0  0  0  0  0  0  0  0  0  0  0
  189.3770  176.2870  137.6970 O   0  0  0  0  0  0  0  0  0  0  0  0
  188.5910  178.0660  136.4280 N   0  0  0  0  0  1  0  0  0  0  0  0
  182.7410  179.3900  139.8460 C   0  0  0  0  0  2  0  0  0  0  0  0
  181.4300  180.0220  139.4060 C   0  0  0  0  0  2  0  0  0  0  0  0
  181.5880  180.7500  138.0820 C   0  0  0  0  0  2  0  0  0  0  0  0
  181.2610  182.2260  138.2430 C   0  0  0  0  0  2  0  0  0  0  0  0
  180.5360  182.7520  137.0150 C   0  0  0  0  0  2  0  0  0  0  0  0
  181.9620  184.6250  137.2180 O   0  0  0  0  0  0  0  0  0  0  0  0
  181.1440  184.0310  136.5340 C   0  0  0  0  0  3  0  0  0  0  0  0
  1  2  1  1  0  0  0
  3  4  2  0  0  0  0
  4  9  1  0  0  0  0
  5 20  1  0  0  0  0
  6  5  1  0  0  0  0
  7  9  2  0  0  0  0
  7 12  1  0  0  0  0
  8  7  1  0  0  0  0
  9 10  1  0  0  0  0
 10  5  2  0  0  0  0
 11  1  1  1  0  0  0
 11  3  1  0  0  0  0
 11  8  1  0  0  0  0
 12  6  2  0  0  0  0
 13  3  1  0  0  0  0
 14 17  1  0  0  0  0
 15 17  1  0  0  0  0
 15 16  1  1  0  0  0
 17  4  1  6  0  0  0
 18 15  1  0  0  0  0
 19 18  1  6  0  0  0
 19 15  1  0  0  0  0
 19 14  1  0  0  0  0
 19 17  1  0  0  0  0
 20 21  1  0  0  0  0
 22 20  1  0  0  0  0
 22 21  1  0  0  0  0
 23 26  1  0  0  0  0
 23 34  1  0  0  0  0
 24 29  1  6  0  0  0
 24 25  1  0  0  0  0
 24 26  1  0  0  0  0
 25 23  1  6  0  0  0
 25 26  1  0  0  0  0
 26  1  1  1  0  0  0
 27 29  1  0  0  0  0
 27 30  1  1  0  0  0
 28 27  1  0  0  0  0
 29 28  1  6  0  0  0
 30 31  1  0  0  0  0
 31 32  2  0  0  0  0
 33 31  1  0  0  0  0
 35 34  1  0  0  0  0
 36 37  1  0  0  0  0
 36 35  1  0  0  0  0
 38 37  1  0  0  0  0
 40 38  1  0  0  0  0
 40 39  2  0  0  0  0
M  END
>  <MODEL>
6

>  <REMARK>
 VINA RESULT:      -6.8      3.166      7.856
  Name = 
  13 active torsions:
  status: ('A' for Active; 'I' for Inactive)
    1  A    between atoms: C_2  and  C_37
    2  A    between atoms: C_2  and  C_40
    3  A    between atoms: C_5  and  C_11
    4  A    between atoms: C_7  and  C_14
    5  A    between atoms: C_9  and  C_30
    6  A    between atoms: C_9  and  C_37
    7  A    between atoms: C_10  and  C_27
    8  A    between atoms: C_12  and  C_26
    9  A    between atoms: C_12  and  C_36
   10  A    between atoms: N_15  and  C_30
   11  A    between atoms: C_17  and  C_35
   12  A    between atoms: C_18  and  C_27
   13  A    between atoms: C_19  and  C_40
                            x       y       z     vdW  Elec       q    Type
                         _______ _______ _______ _____ _____    ______ ____

>  <TORSDO>
F 13

$$$$
=
 OpenBabel10222421243D

 40 48  0  0  1  0  0  0  0  0999 V2000
  184.9250  177.9330  140.7910 C   0  0  2  0  0  3  0  0  0  0  0  0
  183.7710  177.6280  141.5210 O   0  0  0  0  0  1  0  0  0  0  0  0
  187.1720  178.7380  141.5440 C   0  0  0  0  0  0  0  0  0  0  0  0
  187.7500  178.2640  142.6850 C   0  0  0  0  0  0  0  0  0  0  0  0
  186.7350  177.6830  146.3110 C   0  0  0  0  0  0  0  0  0  0  0  0
  185.4770  178.3010  146.3330 C   0  0  0  0  0  3  0  0  0  0  0  0
  185.6760  178.8080  143.9750 C   0  0  0  0  0  0  0  0  0  0  0  0
  185.1340  179.3750  142.7870 N   0  0  0  0  0  2  0  0  0  0  0  0
  186.9510  178.2260  143.9420 C   0  0  0  0  0  0  0  0  0  0  0  0
  187.4760  177.6710  145.1210 C   0  0  0  0  0  3  0  0  0  0  0  0
  185.7000  179.0680  141.4760 C   0  0  2  0  0  3  0  0  0  0  0  0
  184.9490  178.8580  145.1670 C   0  0  0  0  0  3  0  0  0  0  0  0
  187.9110  178.8670  140.3300 N   0  0  0  0  0  1  0  0  0  0  0  0
  189.9910  178.8780  142.4800 O   0  0  0  0  0  0  0  0  0  0  0  0
  189.1790  176.3400  142.0810 C   0  0  2  0  0  0  0  0  0  0  0  0
  189.7700  175.3560  142.8980 O   0  0  0  0  0  1  0  0  0  0  0  0
  189.1990  177.7920  142.7930 C   0  0  1  0  0  0  0  0  0  0  0  0
  190.0480  176.6630  140.9250 N   0  0  0  0  0  2  0  0  0  0  0  0
  189.9870  177.6600  141.6730 C   0  0  1  0  0  0  0  0  0  0  0  0
  187.3230  177.1280  147.5720 C   0  0  0  0  0  3  0  0  0  0  0  0
  187.9230  178.2410  148.4180 C   0  0  0  0  0  2  0  0  0  0  0  0
  188.8270  177.3500  147.5970 C   0  0  0  0  0  2  0  0  0  0  0  0
  183.1760  178.7480  139.0790 N   0  0  0  0  0  0  0  0  0  0  0  0
  184.8500  177.0960  138.3570 C   0  0  2  0  0  3  0  0  0  0  0  0
  183.4720  177.3120  138.9400 C   0  0  1  0  0  3  0  0  0  0  0  0
  184.5510  178.2330  139.3210 C   0  0  1  0  0  0  0  0  0  0  0  0
  186.2040  177.5050  136.1750 C   0  0  1  0  0  3  0  0  0  0  0  0
  185.1630  176.4200  135.9960 C   0  0  0  0  0  2  0  0  0  0  0  0
  184.8590  177.5900  136.9100 C   0  0  1  0  0  3  0  0  0  0  0  0
  187.3590  176.9790  137.0170 C   0  0  0  0  0  2  0  0  0  0  0  0
  188.4570  177.9830  137.0500 C   0  0  0  0  0  0  0  0  0  0  0  0
  189.6490  177.6120  137.2110 O   0  0  0  0  0  0  0  0  0  0  0  0
  188.1560  179.3670  136.9260 N   0  0  0  0  0  1  0  0  0  0  0  0
  182.3630  178.8760  140.2850 C   0  0  0  0  0  2  0  0  0  0  0  0
  180.8880  178.7210  139.9470 C   0  0  0  0  0  2  0  0  0  0  0  0
  180.2890  177.5080  140.6390 C   0  0  0  0  0  2  0  0  0  0  0  0
  179.7570  177.8870  142.0110 C   0  0  0  0  0  2  0  0  0  0  0  0
  178.9360  179.1640  141.9350 C   0  0  0  0  0  2  0  0  0  0  0  0
  180.5040  180.4970  143.0970 O   0  0  0  0  0  0  0  0  0  0  0  0
  179.3430  180.1330  142.9990 C   0  0  0  0  0  3  0  0  0  0  0  0
  1  2  1  1  0  0  0
  3  4  2  0  0  0  0
  4  9  1  0  0  0  0
  5  6  1  0  0  0  0
  5 20  1  0  0  0  0
  7 12  1  0  0  0  0
  8  7  1  0  0  0  0
  9  7  2  0  0  0  0
  9 10  1  0  0  0  0
 10  5  2  0  0  0  0
 11  1  1  1  0  0  0
 11  3  1  0  0  0  0
 11  8  1  0  0  0  0
 12  6  2  0  0  0  0
 13  3  1  0  0  0  0
 14 17  1  0  0  0  0
 15 17  1  0  0  0  0
 15 16  1  1  0  0  0
 17  4  1  6  0  0  0
 18 15  1  0  0  0  0
 19 18  1  6  0  0  0
 19 15  1  0  0  0  0
 19 14  1  0  0  0  0
 19 17  1  0  0  0  0
 20 22  1  0  0  0  0
 20 21  1  0  0  0  0
 22 21  1  0  0  0  0
 23 26  1  0  0  0  0
 23 34  1  0  0  0  0
 24 29  1  6  0  0  0
 24 25  1  0  0  0  0
 24 26  1  0  0  0  0
 25 23  1  6  0  0  0
 25 26  1  0  0  0  0
 26  1  1  1  0  0  0
 27 29  1  0  0  0  0
 27 30  1  1  0  0  0
 28 27  1  0  0  0  0
 29 28  1  6  0  0  0
 30 31  1  0  0  0  0
 31 32  2  0  0  0  0
 33 31  1  0  0  0  0
 35 34  1  0  0  0  0
 35 36  1  0  0  0  0
 36 37  1  0  0  0  0
 38 37  1  0  0  0  0
 38 40  1  0  0  0  0
 40 39  2  0  0  0  0
M  END
>  <MODEL>
7

>  <REMARK>
 VINA RESULT:      -6.7      2.853      7.509
  Name = 
  13 active torsions:
  status: ('A' for Active; 'I' for Inactive)
    1  A    between atoms: C_2  and  C_37
    2  A    between atoms: C_2  and  C_40
    3  A    between atoms: C_5  and  C_11
    4  A    between atoms: C_7  and  C_14
    5  A    between atoms: C_9  and  C_30
    6  A    between atoms: C_9  and  C_37
    7  A    between atoms: C_10  and  C_27
    8  A    between atoms: C_12  and  C_26
    9  A    between atoms: C_12  and  C_36
   10  A    between atoms: N_15  and  C_30
   11  A    between atoms: C_17  and  C_35
   12  A    between atoms: C_18  and  C_27
   13  A    between atoms: C_19  and  C_40
                            x       y       z     vdW  Elec       q    Type
                         _______ _______ _______ _____ _____    ______ ____

>  <TORSDO>
F 13

$$$$
=
 OpenBabel10222421243D

 40 48  0  0  1  0  0  0  0  0999 V2000
  183.4660  177.3590  139.6070 C   0  0  2  0  0  3  0  0  0  0  0  0
  182.8530  176.6050  140.6120 O   0  0  0  0  0  1  0  0  0  0  0  0
  185.3130  178.8500  140.4020 C   0  0  0  0  0  0  0  0  0  0  0  0
  185.8280  178.7330  141.6600 C   0  0  0  0  0  0  0  0  0  0  0  0
  184.5010  178.4660  145.2210 C   0  0  0  0  0  0  0  0  0  0  0  0
  183.1370  178.7140  145.0120 C   0  0  0  0  0  3  0  0  0  0  0  0
  183.5260  178.8860  142.6290 C   0  0  0  0  0  0  0  0  0  0  0  0
  183.0290  179.0950  141.3120 N   0  0  0  0  0  2  0  0  0  0  0  0
  184.8990  178.6740  142.8230 C   0  0  0  0  0  0  0  0  0  0  0  0
  185.3780  178.4720  144.1280 C   0  0  0  0  0  3  0  0  0  0  0  0
  183.8290  178.7540  140.1380 C   0  0  2  0  0  3  0  0  0  0  0  0
  182.6520  178.9210  143.7190 C   0  0  0  0  0  3  0  0  0  0  0  0
  186.1570  178.9860  139.2590 N   0  0  0  0  0  1  0  0  0  0  0  0
  187.9070  179.7180  141.2710 O   0  0  0  0  0  0  0  0  0  0  0  0
  187.6780  177.1180  141.9400 C   0  0  2  0  0  0  0  0  0  0  0  0
  188.3570  176.7080  143.1040 O   0  0  0  0  0  1  0  0  0  0  0  0
  187.3200  178.6940  141.9870 C   0  0  1  0  0  0  0  0  0  0  0  0
  188.5930  177.1470  140.7740 N   0  0  0  0  0  2  0  0  0  0  0  0
  188.2440  178.3160  141.0400 C   0  0  1  0  0  0  0  0  0  0  0  0
  185.0290  178.2930  146.6120 C   0  0  0  0  0  3  0  0  0  0  0  0
  186.0540  179.3700  146.9330 C   0  0  0  0  0  2  0  0  0  0  0  0
  186.5160  177.9760  146.5780 C   0  0  0  0  0  2  0  0  0  0  0  0
  183.0600  176.6260  137.1680 N   0  0  0  0  0  0  0  0  0  0  0  0
  182.1360  178.7790  137.9200 C   0  0  2  0  0  3  0  0  0  0  0  0
  183.3130  178.0730  137.2850 C   0  0  1  0  0  3  0  0  0  0  0  0
  182.5680  177.3860  138.3490 C   0  0  1  0  0  0  0  0  0  0  0  0
  180.2770  180.0550  136.6270 C   0  0  1  0  0  3  0  0  0  0  0  0
  181.3010  179.4540  135.6890 C   0  0  0  0  0  2  0  0  0  0  0  0
  180.9450  178.7150  136.9630 C   0  0  1  0  0  3  0  0  0  0  0  0
  180.8730  181.2630  137.3390 C   0  0  0  0  0  2  0  0  0  0  0  0
  179.9150  181.7700  138.3590 C   0  0  0  0  0  0  0  0  0  0  0  0
  179.1720  182.7510  138.0960 O   0  0  0  0  0  0  0  0  0  0  0  0
  179.8590  181.1610  139.6430 N   0  0  0  0  0  1  0  0  0  0  0  0
  184.3520  175.9760  137.3700 C   0  0  0  0  0  2  0  0  0  0  0  0
  185.2500  176.2010  136.1640 C   0  0  0  0  0  2  0  0  0  0  0  0
  186.7180  176.1780  136.5600 C   0  0  0  0  0  2  0  0  0  0  0  0
  187.5520  176.9600  135.5590 C   0  0  0  0  0  2  0  0  0  0  0  0
  187.7840  178.3810  136.0480 C   0  0  0  0  0  2  0  0  0  0  0  0
  189.0630  179.3890  137.7600 O   0  0  0  0  0  0  0  0  0  0  0  0
  188.9370  178.4440  136.9990 C   0  0  0  0  0  3  0  0  0  0  0  0
  1  2  1  1  0  0  0
  3  4  2  0  0  0  0
  4  9  1  0  0  0  0
  5 20  1  0  0  0  0
  6  5  1  0  0  0  0
  7  9  2  0  0  0  0
  7 12  1  0  0  0  0
  8  7  1  0  0  0  0
  9 10  1  0  0  0  0
 10  5  2  0  0  0  0
 11  1  1  1  0  0  0
 11  3  1  0  0  0  0
 11  8  1  0  0  0  0
 12  6  2  0  0  0  0
 13  3  1  0  0  0  0
 14 17  1  0  0  0  0
 15 17  1  0  0  0  0
 15 16  1  1  0  0  0
 17  4  1  6  0  0  0
 18 15  1  0  0  0  0
 19 18  1  6  0  0  0
 19 14  1  0  0  0  0
 19 15  1  0  0  0  0
 19 17  1  0  0  0  0
 20 21  1  0  0  0  0
 22 20  1  0  0  0  0
 22 21  1  0  0  0  0
 23 34  1  0  0  0  0
 23 26  1  0  0  0  0
 24 29  1  6  0  0  0
 24 26  1  0  0  0  0
 25 23  1  6  0  0  0
 25 24  1  0  0  0  0
 25 26  1  0  0  0  0
 26  1  1  1  0  0  0
 27 29  1  0  0  0  0
 27 30  1  1  0  0  0
 28 27  1  0  0  0  0
 29 28  1  6  0  0  0
 30 31  1  0  0  0  0
 31 33  1  0  0  0  0
 32 31  2  0  0  0  0
 35 36  1  0  0  0  0
 35 34  1  0  0  0  0
 37 38  1  0  0  0  0
 37 36  1  0  0  0  0
 38 40  1  0  0  0  0
 40 39  2  0  0  0  0
M  END
>  <MODEL>
8

>  <REMARK>
 VINA RESULT:      -6.7      3.537      9.671
  Name = 
  13 active torsions:
  status: ('A' for Active; 'I' for Inactive)
    1  A    between atoms: C_2  and  C_37
    2  A    between atoms: C_2  and  C_40
    3  A    between atoms: C_5  and  C_11
    4  A    between atoms: C_7  and  C_14
    5  A    between atoms: C_9  and  C_30
    6  A    between atoms: C_9  and  C_37
    7  A    between atoms: C_10  and  C_27
    8  A    between atoms: C_12  and  C_26
    9  A    between atoms: C_12  and  C_36
   10  A    between atoms: N_15  and  C_30
   11  A    between atoms: C_17  and  C_35
   12  A    between atoms: C_18  and  C_27
   13  A    between atoms: C_19  and  C_40
                            x       y       z     vdW  Elec       q    Type
                         _______ _______ _______ _____ _____    ______ ____

>  <TORSDO>
F 13

$$$$
=
 OpenBabel10222421243D

 40 48  0  0  1  0  0  0  0  0999 V2000
  184.1570  178.1820  141.4730 C   0  0  2  0  0  3  0  0  0  0  0  0
  183.1250  178.2520  142.4140 O   0  0  0  0  0  1  0  0  0  0  0  0
  186.6380  178.4010  141.7170 C   0  0  0  0  0  0  0  0  0  0  0  0
  187.2990  177.8520  142.7770 C   0  0  0  0  0  0  0  0  0  0  0  0
  186.9270  177.7530  146.5670 C   0  0  0  0  0  0  0  0  0  0  0  0
  185.8940  178.6810  146.7530 C   0  0  0  0  0  3  0  0  0  0  0  0
  185.7310  178.9930  144.3590 C   0  0  0  0  0  0  0  0  0  0  0  0
  185.1190  179.6200  143.2380 N   0  0  0  0  0  2  0  0  0  0  0  0
  186.7870  178.0930  144.1560 C   0  0  0  0  0  0  0  0  0  0  0  0
  187.3840  177.4820  145.2700 C   0  0  0  0  0  3  0  0  0  0  0  0
  185.3120  179.1060  141.8840 C   0  0  2  0  0  3  0  0  0  0  0  0
  185.2970  179.2970  145.6520 C   0  0  0  0  0  3  0  0  0  0  0  0
  187.1250  178.2660  140.3830 N   0  0  0  0  0  1  0  0  0  0  0  0
  188.4620  176.0030  143.5940 O   0  0  0  0  0  0  0  0  0  0  0  0
  189.7440  178.1310  142.5510 C   0  0  2  0  0  0  0  0  0  0  0  0
  190.5890  177.8780  141.4520 O   0  0  0  0  0  1  0  0  0  0  0  0
  188.5750  177.0200  142.6670 C   0  0  1  0  0  0  0  0  0  0  0  0
  190.4340  177.8420  143.8300 N   0  0  0  0  0  2  0  0  0  0  0  0
  189.5090  177.0180  143.6770 C   0  0  1  0  0  0  0  0  0  0  0  0
  187.6010  177.1290  147.7510 C   0  0  0  0  0  3  0  0  0  0  0  0
  188.5510  178.1190  148.4080 C   0  0  0  0  0  2  0  0  0  0  0  0
  189.0990  177.0300  147.5150 C   0  0  0  0  0  2  0  0  0  0  0  0
  182.1860  178.9340  139.9890 N   0  0  0  0  0  0  0  0  0  0  0  0
  183.8240  177.3530  139.0580 C   0  0  2  0  0  3  0  0  0  0  0  0
  182.5180  177.5110  139.8020 C   0  0  1  0  0  3  0  0  0  0  0  0
  183.6000  178.4720  140.0600 C   0  0  1  0  0  0  0  0  0  0  0  0
  184.7650  177.5030  136.6380 C   0  0  1  0  0  3  0  0  0  0  0  0
  183.5110  176.6570  136.7020 C   0  0  0  0  0  2  0  0  0  0  0  0
  183.6420  177.8520  137.6240 C   0  0  1  0  0  3  0  0  0  0  0  0
  185.9350  176.7410  137.2480 C   0  0  0  0  0  2  0  0  0  0  0  0
  187.2020  177.4800  137.0000 C   0  0  0  0  0  0  0  0  0  0  0  0
  188.2930  176.8580  136.9220 O   0  0  0  0  0  0  0  0  0  0  0  0
  187.1840  178.8970  136.8780 N   0  0  0  0  0  1  0  0  0  0  0  0
  181.5190  179.0250  141.2840 C   0  0  0  0  0  2  0  0  0  0  0  0
  180.1900  179.7500  141.1440 C   0  0  0  0  0  2  0  0  0  0  0  0
  180.1120  180.5030  139.8250 C   0  0  0  0  0  2  0  0  0  0  0  0
  179.2460  181.7440  139.9710 C   0  0  0  0  0  2  0  0  0  0  0  0
  179.3220  182.6010  138.7180 C   0  0  0  0  0  2  0  0  0  0  0  0
  180.8050  182.9100  136.9040 O   0  0  0  0  0  0  0  0  0  0  0  0
  180.6000  182.3670  137.9780 C   0  0  0  0  0  3  0  0  0  0  0  0
  1  2  1  1  0  0  0
  3 11  1  0  0  0  0
  3  4  2  0  0  0  0
  4  9  1  0  0  0  0
  5  6  1  0  0  0  0
  5 20  1  0  0  0  0
  7 12  1  0  0  0  0
  8  7  1  0  0  0  0
  9  7  2  0  0  0  0
  9 10  1  0  0  0  0
 10  5  2  0  0  0  0
 11  1  1  1  0  0  0
 11  8  1  0  0  0  0
 12  6  2  0  0  0  0
 13  3  1  0  0  0  0
 15 16  1  6  0  0  0
 15 17  1  0  0  0  0
 15 19  1  0  0  0  0
 15 18  1  0  0  0  0
 17  4  1  1  0  0  0
 17 14  1  0  0  0  0
 17 19  1  0  0  0  0
 19 14  1  6  0  0  0
 19 18  1  0  0  0  0
 20 21  1  0  0  0  0
 22 20  1  0  0  0  0
 22 21  1  0  0  0  0
 23 26  1  0  0  0  0
 23 34  1  0  0  0  0
 24 29  1  6  0  0  0
 24 25  1  0  0  0  0
 24 26  1  0  0  0  0
 25 23  1  6  0  0  0
 25 26  1  0  0  0  0
 26  1  1  1  0  0  0
 27 28  1  0  0  0  0
 27 30  1  1  0  0  0
 27 29  1  0  0  0  0
 29 28  1  6  0  0  0
 31 30  1  0  0  0  0
 32 31  2  0  0  0  0
 33 31  1  0  0  0  0
 35 34  1  0  0  0  0
 36 37  1  0  0  0  0
 36 35  1  0  0  0  0
 38 37  1  0  0  0  0
 39 40  2  0  0  0  0
 40 38  1  0  0  0  0
M  END
>  <MODEL>
9

>  <REMARK>
 VINA RESULT:      -6.7      3.056      7.928
  Name = 
  13 active torsions:
  status: ('A' for Active; 'I' for Inactive)
    1  A    between atoms: C_2  and  C_37
    2  A    between atoms: C_2  and  C_40
    3  A    between atoms: C_5  and  C_11
    4  A    between atoms: C_7  and  C_14
    5  A    between atoms: C_9  and  C_30
    6  A    between atoms: C_9  and  C_37
    7  A    between atoms: C_10  and  C_27
    8  A    between atoms: C_12  and  C_26
    9  A    between atoms: C_12  and  C_36
   10  A    between atoms: N_15  and  C_30
   11  A    between atoms: C_17  and  C_35
   12  A    between atoms: C_18  and  C_27
   13  A    between atoms: C_19  and  C_40
                            x       y       z     vdW  Elec       q    Type
                         _______ _______ _______ _____ _____    ______ ____

>  <TORSDO>
F 13

$$$$
