=
 OpenBabel10222415503D

 47 52  0  0  1  0  0  0  0  0999 V2000
  186.9810  174.3340  136.2090 C   0  0  0  0  0  0  0  0  0  0  0  0
  185.7100  173.9540  136.2790 C   0  0  0  0  0  0  0  0  0  0  0  0
  183.4220  175.1520  135.8950 C   0  0  0  0  0  1  0  0  0  0  0  0
  190.7770  176.6280  139.0450 C   0  0  1  0  0  3  0  0  0  0  0  0
  188.1320  173.4960  136.3780 N   0  0  0  0  0  0  0  0  0  0  0  0
  187.0520  175.7770  135.8340 C   0  0  2  0  0  3  0  0  0  0  0  0
  190.5650  177.3010  140.3990 C   0  0  1  0  0  3  0  0  0  0  0  0
  189.7770  177.3010  138.1300 C   0  0  2  0  0  3  0  0  0  0  0  0
  187.9800  172.1710  136.6190 O   0  0  0  0  0  1  0  0  0  0  0  0
  189.4490  174.0180  136.1440 C   0  0  0  0  0  0  0  0  0  0  0  0
  189.8290  175.3440  136.5410 N   0  0  0  0  0  2  0  0  0  0  0  0
  192.2660  170.2100  134.6120 C   0  0  0  0  0  2  0  0  0  0  0  0
  191.3250  172.4490  135.2350 C   0  0  0  0  0  0  0  0  0  0  0  0
  187.7390  176.5570  136.9260 C   0  0  0  0  0  0  0  0  0  0  0  0
  188.8740  177.9700  139.0420 N   0  0  0  0  0  0  0  0  0  0  0  0
  186.9770  177.5980  137.6620 C   0  0  0  0  0  3  0  0  0  0  0  0
  193.7470  172.5560  135.8220 C   0  0  0  0  0  3  0  0  0  0  0  0
  184.9090  175.1170  135.9550 C   0  0  0  0  0  0  0  0  0  0  0  0
  189.2950  178.0240  140.3750 N   0  0  0  0  0  2  0  0  0  0  0  0
  189.0430  176.3340  137.2240 C   0  0  0  0  0  0  0  0  0  0  0  0
  185.6430  176.1490  135.6970 N   0  0  0  0  0  0  0  0  0  0  0  0
  191.0160  171.0070  134.9660 C   0  0  0  0  0  2  0  0  0  0  0  0
  187.5210  178.2480  138.6860 C   0  0  0  0  0  3  0  0  0  0  0  0
  185.1860  172.5920  136.5880 C   0  0  0  0  0  1  0  0  0  0  0  0
  192.6600  173.0300  134.8960 C   0  0  0  0  0  2  0  0  0  0  0  0
  193.1540  170.0630  135.8410 C   0  0  0  0  0  2  0  0  0  0  0  0
  193.9770  171.2820  136.1870 C   0  0  0  0  0  3  0  0  0  0  0  0
  190.3850  173.2290  135.6870 C   0  0  0  0  0  0  0  0  0  0  0  0
  192.1990  176.8990  138.5780 C   0  0  0  0  0  2  0  0  0  0  0  0
  192.6530  175.8220  137.6100 C   0  0  0  0  0  2  0  0  0  0  0  0
  194.1370  175.7510  137.5920 C   0  0  0  0  0  0  0  0  0  0  0  0
  194.7540  175.2360  138.5590 O   0  0  0  0  0  1  0  0  0  0  0  0
  194.8450  176.2800  136.5210 O   0  0  0  0  0  0  0  0  0  0  0  0
  190.5560  176.2510  141.5020 C   0  0  0  0  0  2  0  0  0  0  0  0
  190.9910  176.8450  142.8350 C   0  0  0  0  0  2  0  0  0  0  0  0
  187.4710  176.7630  144.2420 C   0  0  0  0  0  3  0  0  0  0  0  0
  188.9160  177.8720  145.8320 C   0  0  0  0  0  3  0  0  0  0  0  0
  189.8230  177.0510  143.7420 C   0  0  0  0  0  0  0  0  0  0  0  0
  190.0030  177.6930  144.9720 C   0  0  0  0  0  3  0  0  0  0  0  0
  188.5560  176.5840  143.3790 C   0  0  0  0  0  3  0  0  0  0  0  0
  187.6410  177.4110  145.4700 C   0  0  0  0  0  0  0  0  0  0  0  0
  186.5080  177.5600  146.3350 N   0  0  0  0  0  2  0  0  0  0  0  0
  185.4480  178.5130  146.1940 C   0  0  0  0  0  0  0  0  0  0  0  0
  184.5750  178.5820  147.0990 O   0  0  0  0  0  0  0  0  0  0  0  0
  185.3750  179.3340  145.0560 O   0  0  0  0  0  0  0  0  0  0  0  0
  184.5840  179.1100  143.9180 C   0  0  0  0  0  3  0  0  0  0  0  0
  183.2570  179.0720  143.9340 C   0  0  0  0  0  2  0  0  0  0  0  0
  1  2  2  0  0  0  0
  1  5  1  0  0  0  0
  2 24  1  0  0  0  0
  3 18  1  0  0  0  0
  4 29  1  6  0  0  0
  4  7  1  0  0  0  0
  5  9  1  0  0  0  0
  6 21  1  1  0  0  0
  6  1  1  0  0  0  0
  6 14  1  0  0  0  0
  7 34  1  1  0  0  0
  8 20  1  1  0  0  0
  8 15  1  0  0  0  0
  8  4  1  0  0  0  0
 10  5  1  0  0  0  0
 10 11  1  0  0  0  0
 11 20  1  0  0  0  0
 12 22  1  0  0  0  0
 12 26  1  0  0  0  0
 13 28  2  0  0  0  0
 14 20  2  0  0  0  0
 14 16  1  0  0  0  0
 15 19  1  0  0  0  0
 16 23  2  0  0  0  0
 17 27  2  0  0  0  0
 18  2  1  0  0  0  0
 19  7  1  0  0  0  0
 21 18  2  0  0  0  0
 22 13  1  0  0  0  0
 23 15  1  0  0  0  0
 25 13  1  0  0  0  0
 25 17  1  0  0  0  0
 26 27  1  0  0  0  0
 28 10  2  0  0  0  0
 30 29  1  0  0  0  0
 31 30  1  0  0  0  0
 31 32  1  0  0  0  0
 33 31  2  0  0  0  0
 34 35  1  0  0  0  0
 35 38  1  0  0  0  0
 36 41  1  0  0  0  0
 38 39  2  0  0  0  0
 39 37  1  0  0  0  0
 40 38  1  0  0  0  0
 40 36  2  0  0  0  0
 41 37  2  0  0  0  0
 41 42  1  0  0  0  0
 43 42  1  0  0  0  0
 43 44  2  0  0  0  0
 45 43  1  0  0  0  0
 46 47  2  0  0  0  0
 46 45  1  0  0  0  0
M  END
>  <MODEL>
1

>  <REMARK>
 VINA RESULT:      -8.8      0.000      0.000
  Name = 
  9 active torsions:
  status: ('A' for Active; 'I' for Inactive)
    1  A    between atoms: C_2  and  O_47
    2  A    between atoms: C_4  and  C_46
    3  A    between atoms: C_6  and  C_18
    4  A    between atoms: N_9  and  C_40
    5  A    between atoms: C_10  and  O_47
    6  A    between atoms: C_12  and  C_45
    7  A    between atoms: C_18  and  C_46
    8  A    between atoms: C_29  and  C_31
    9  A    between atoms: C_29  and  C_45
                            x       y       z     vdW  Elec       q    Type
                         _______ _______ _______ _____ _____    ______ ____

>  <TORSDO>
F 9

$$$$
=
 OpenBabel10222415503D

 47 52  0  0  1  0  0  0  0  0999 V2000
  182.8520  173.9730  136.8470 C   0  0  0  0  0  0  0  0  0  0  0  0
  182.5180  172.6880  136.8880 C   0  0  0  0  0  0  0  0  0  0  0  0
  180.3230  171.3550  136.4200 C   0  0  0  0  0  1  0  0  0  0  0  0
  182.7660  178.3660  139.7480 C   0  0  1  0  0  3  0  0  0  0  0  0
  184.1590  174.5230  137.0620 N   0  0  0  0  0  0  0  0  0  0  0  0
  181.6650  174.7870  136.4480 C   0  0  2  0  0  3  0  0  0  0  0  0
  182.0410  178.5130  141.0830 C   0  0  1  0  0  3  0  0  0  0  0  0
  181.7000  177.8720  138.7930 C   0  0  2  0  0  3  0  0  0  0  0  0
  185.2070  173.7040  137.3220 O   0  0  0  0  0  1  0  0  0  0  0  0
  184.3990  175.9240  136.8560 C   0  0  0  0  0  0  0  0  0  0  0  0
  183.4490  176.9280  137.2400 N   0  0  0  0  0  2  0  0  0  0  0  0
  189.1580  176.3880  135.4710 C   0  0  0  0  0  2  0  0  0  0  0  0
  186.7380  176.7310  136.0270 C   0  0  0  0  0  0  0  0  0  0  0  0
  181.3200  175.7610  137.5460 C   0  0  0  0  0  0  0  0  0  0  0  0
  180.6340  177.4310  139.6680 N   0  0  0  0  0  0  0  0  0  0  0  0
  180.0140  175.6360  138.2420 C   0  0  0  0  0  3  0  0  0  0  0  0
  187.8790  178.8510  136.6800 C   0  0  0  0  0  3  0  0  0  0  0  0
  181.1190  172.6090  136.5210 C   0  0  0  0  0  0  0  0  0  0  0  0
  180.7670  177.8000  141.0110 N   0  0  0  0  0  2  0  0  0  0  0  0
  182.1750  176.7580  137.8840 C   0  0  0  0  0  0  0  0  0  0  0  0
  180.6230  173.7740  136.2660 N   0  0  0  0  0  0  0  0  0  0  0  0
  187.8190  175.7250  135.7760 C   0  0  0  0  0  2  0  0  0  0  0  0
  179.7080  176.4230  139.2700 C   0  0  0  0  0  3  0  0  0  0  0  0
  183.4040  171.5320  137.2060 C   0  0  0  0  0  1  0  0  0  0  0  0
  186.9400  178.1790  135.7160 C   0  0  0  0  0  2  0  0  0  0  0  0
  189.7060  177.0540  136.7270 C   0  0  0  0  0  2  0  0  0  0  0  0
  189.0770  178.3830  137.0740 C   0  0  0  0  0  3  0  0  0  0  0  0
  185.5710  176.3240  136.4400 C   0  0  0  0  0  0  0  0  0  0  0  0
  183.2820  179.7300  139.3150 C   0  0  0  0  0  2  0  0  0  0  0  0
  184.6720  179.6060  138.7180 C   0  0  0  0  0  2  0  0  0  0  0  0
  185.6050  179.0340  139.7230 C   0  0  0  0  0  0  0  0  0  0  0  0
  186.2680  178.0000  139.4500 O   0  0  0  0  0  0  0  0  0  0  0  0
  185.7250  179.6220  140.9750 O   0  0  0  0  0  1  0  0  0  0  0  0
  182.9020  177.9450  142.2030 C   0  0  0  0  0  2  0  0  0  0  0  0
  183.1790  178.9930  143.2740 C   0  0  0  0  0  2  0  0  0  0  0  0
  186.4870  177.5460  144.4270 C   0  0  0  0  0  3  0  0  0  0  0  0
  185.3720  178.5400  146.3270 C   0  0  0  0  0  3  0  0  0  0  0  0
  184.3180  178.5850  144.1480 C   0  0  0  0  0  0  0  0  0  0  0  0
  184.2990  178.9040  145.5090 C   0  0  0  0  0  3  0  0  0  0  0  0
  185.4150  177.9080  143.6060 C   0  0  0  0  0  3  0  0  0  0  0  0
  186.4730  177.8540  145.7910 C   0  0  0  0  0  0  0  0  0  0  0  0
  187.5980  177.4820  146.5960 N   0  0  0  0  0  2  0  0  0  0  0  0
  188.9800  177.6690  146.2680 C   0  0  0  0  0  0  0  0  0  0  0  0
  189.8530  177.1920  147.0400 O   0  0  0  0  0  0  0  0  0  0  0  0
  189.3480  178.3910  145.1200 O   0  0  0  0  0  0  0  0  0  0  0  0
  190.3350  178.0290  144.1910 C   0  0  0  0  0  3  0  0  0  0  0  0
  191.5070  178.6440  144.0780 C   0  0  0  0  0  2  0  0  0  0  0  0
  1  2  2  0  0  0  0
  1  5  1  0  0  0  0
  2 24  1  0  0  0  0
  3 18  1  0  0  0  0
  4 29  1  6  0  0  0
  4  7  1  0  0  0  0
  5  9  1  0  0  0  0
  6 21  1  1  0  0  0
  6  1  1  0  0  0  0
  6 14  1  0  0  0  0
  7 34  1  1  0  0  0
  8 20  1  1  0  0  0
  8 15  1  0  0  0  0
  8  4  1  0  0  0  0
 10  5  1  0  0  0  0
 10 11  1  0  0  0  0
 11 20  1  0  0  0  0
 12 22  1  0  0  0  0
 12 26  1  0  0  0  0
 13 28  2  0  0  0  0
 14 20  2  0  0  0  0
 14 16  1  0  0  0  0
 15 19  1  0  0  0  0
 16 23  2  0  0  0  0
 17 27  2  0  0  0  0
 18  2  1  0  0  0  0
 19  7  1  0  0  0  0
 21 18  2  0  0  0  0
 22 13  1  0  0  0  0
 23 15  1  0  0  0  0
 25 13  1  0  0  0  0
 25 17  1  0  0  0  0
 26 27  1  0  0  0  0
 28 10  2  0  0  0  0
 30 29  1  0  0  0  0
 30 31  1  0  0  0  0
 31 33  1  0  0  0  0
 32 31  2  0  0  0  0
 34 35  1  0  0  0  0
 35 38  1  0  0  0  0
 36 41  1  0  0  0  0
 38 39  2  0  0  0  0
 39 37  1  0  0  0  0
 40 38  1  0  0  0  0
 40 36  2  0  0  0  0
 41 37  2  0  0  0  0
 41 42  1  0  0  0  0
 43 42  1  0  0  0  0
 43 44  2  0  0  0  0
 45 43  1  0  0  0  0
 46 45  1  0  0  0  0
 47 46  2  0  0  0  0
M  END
>  <MODEL>
2

>  <REMARK>
 VINA RESULT:      -8.8      4.019      6.625
  Name = 
  9 active torsions:
  status: ('A' for Active; 'I' for Inactive)
    1  A    between atoms: C_2  and  O_47
    2  A    between atoms: C_4  and  C_46
    3  A    between atoms: C_6  and  C_18
    4  A    between atoms: N_9  and  C_40
    5  A    between atoms: C_10  and  O_47
    6  A    between atoms: C_12  and  C_45
    7  A    between atoms: C_18  and  C_46
    8  A    between atoms: C_29  and  C_31
    9  A    between atoms: C_29  and  C_45
                            x       y       z     vdW  Elec       q    Type
                         _______ _______ _______ _____ _____    ______ ____

>  <TORSDO>
F 9

$$$$
=
 OpenBabel10222415503D

 47 52  0  0  1  0  0  0  0  0999 V2000
  182.7120  173.7440  136.7240 C   0  0  0  0  0  0  0  0  0  0  0  0
  181.8600  172.7310  136.8350 C   0  0  0  0  0  0  0  0  0  0  0  0
  179.3450  172.3860  136.2290 C   0  0  0  0  0  1  0  0  0  0  0  0
  184.3070  178.1010  139.2140 C   0  0  1  0  0  3  0  0  0  0  0  0
  184.1100  173.7220  137.0430 N   0  0  0  0  0  0  0  0  0  0  0  0
  182.0160  174.9210  136.1230 C   0  0  2  0  0  3  0  0  0  0  0  0
  183.6230  178.7030  140.4390 C   0  0  1  0  0  3  0  0  0  0  0  0
  183.2020  177.9800  138.1870 C   0  0  2  0  0  3  0  0  0  0  0  0
  184.6880  172.5810  137.4910 O   0  0  0  0  0  1  0  0  0  0  0  0
  184.9380  174.8580  136.7490 C   0  0  0  0  0  0  0  0  0  0  0  0
  184.4830  176.2060  136.9330 N   0  0  0  0  0  2  0  0  0  0  0  0
  189.5240  173.1210  135.8910 C   0  0  0  0  0  2  0  0  0  0  0  0
  187.4490  174.5070  136.1320 C   0  0  0  0  0  0  0  0  0  0  0  0
  182.0450  176.0800  137.0870 C   0  0  0  0  0  0  0  0  0  0  0  0
  181.9910  178.1360  138.9660 N   0  0  0  0  0  0  0  0  0  0  0  0
  180.7650  176.5990  137.6340 C   0  0  0  0  0  3  0  0  0  0  0  0
  189.3380  176.0230  136.7310 C   0  0  0  0  0  3  0  0  0  0  0  0
  180.5900  173.1960  136.3150 C   0  0  0  0  0  0  0  0  0  0  0  0
  182.1750  178.5810  140.2790 N   0  0  0  0  0  2  0  0  0  0  0  0
  183.2170  176.6640  137.4360 C   0  0  0  0  0  0  0  0  0  0  0  0
  180.6570  174.4200  135.9070 N   0  0  0  0  0  0  0  0  0  0  0  0
  188.0130  173.1190  136.0930 C   0  0  0  0  0  2  0  0  0  0  0  0
  180.7540  177.5630  138.5500 C   0  0  0  0  0  3  0  0  0  0  0  0
  182.1440  171.3610  137.3500 C   0  0  0  0  0  1  0  0  0  0  0  0
  188.2710  175.6880  135.7240 C   0  0  0  0  0  2  0  0  0  0  0  0
  190.2150  173.6500  137.1410 C   0  0  0  0  0  2  0  0  0  0  0  0
  190.1910  175.1520  137.2990 C   0  0  0  0  0  3  0  0  0  0  0  0
  186.1940  174.6780  136.4390 C   0  0  0  0  0  0  0  0  0  0  0  0
  185.3840  179.0590  138.7310 C   0  0  0  0  0  2  0  0  0  0  0  0
  186.6190  178.2930  138.2940 C   0  0  0  0  0  2  0  0  0  0  0  0
  187.7520  178.5970  139.2060 C   0  0  0  0  0  0  0  0  0  0  0  0
  187.5760  178.5900  140.4520 O   0  0  0  0  0  1  0  0  0  0  0  0
  188.9980  178.9160  138.6840 O   0  0  0  0  0  0  0  0  0  0  0  0
  184.0790  177.9740  141.6950 C   0  0  0  0  0  2  0  0  0  0  0  0
  184.1320  178.9150  142.8920 C   0  0  0  0  0  2  0  0  0  0  0  0
  186.1370  178.5340  146.0870 C   0  0  0  0  0  3  0  0  0  0  0  0
  187.2080  177.2490  144.3420 C   0  0  0  0  0  3  0  0  0  0  0  0
  185.1940  178.5020  143.8570 C   0  0  0  0  0  0  0  0  0  0  0  0
  186.2230  177.6520  143.4370 C   0  0  0  0  0  3  0  0  0  0  0  0
  185.1510  178.9400  145.1840 C   0  0  0  0  0  3  0  0  0  0  0  0
  187.1740  177.6910  145.6730 C   0  0  0  0  0  0  0  0  0  0  0  0
  188.1570  177.2820  146.6330 N   0  0  0  0  0  2  0  0  0  0  0  0
  189.5750  177.4580  146.5280 C   0  0  0  0  0  0  0  0  0  0  0  0
  190.3120  176.9490  147.4130 O   0  0  0  0  0  0  0  0  0  0  0  0
  190.1240  178.2030  145.4710 O   0  0  0  0  0  0  0  0  0  0  0  0
  190.9590  177.7150  144.4550 C   0  0  0  0  0  3  0  0  0  0  0  0
  190.9330  176.4640  144.0120 C   0  0  0  0  0  2  0  0  0  0  0  0
  1  2  2  0  0  0  0
  1  5  1  0  0  0  0
  2 24  1  0  0  0  0
  3 18  1  0  0  0  0
  4 29  1  6  0  0  0
  4  7  1  0  0  0  0
  5  9  1  0  0  0  0
  6 21  1  1  0  0  0
  6  1  1  0  0  0  0
  6 14  1  0  0  0  0
  7 34  1  1  0  0  0
  8 20  1  1  0  0  0
  8 15  1  0  0  0  0
  8  4  1  0  0  0  0
 10 11  1  0  0  0  0
 10  5  1  0  0  0  0
 11 20  1  0  0  0  0
 12 22  1  0  0  0  0
 12 26  1  0  0  0  0
 13 28  2  0  0  0  0
 14 20  2  0  0  0  0
 14 16  1  0  0  0  0
 15 19  1  0  0  0  0
 16 23  2  0  0  0  0
 17 27  2  0  0  0  0
 18  2  1  0  0  0  0
 19  7  1  0  0  0  0
 21 18  2  0  0  0  0
 22 13  1  0  0  0  0
 23 15  1  0  0  0  0
 25 13  1  0  0  0  0
 25 17  1  0  0  0  0
 26 27  1  0  0  0  0
 28 10  2  0  0  0  0
 30 29  1  0  0  0  0
 30 31  1  0  0  0  0
 31 32  1  0  0  0  0
 33 31  2  0  0  0  0
 34 35  1  0  0  0  0
 35 38  1  0  0  0  0
 37 41  2  0  0  0  0
 38 40  1  0  0  0  0
 39 38  2  0  0  0  0
 39 37  1  0  0  0  0
 40 36  2  0  0  0  0
 41 36  1  0  0  0  0
 41 42  1  0  0  0  0
 43 42  1  0  0  0  0
 43 44  2  0  0  0  0
 45 43  1  0  0  0  0
 46 45  1  0  0  0  0
 47 46  2  0  0  0  0
M  END
>  <MODEL>
3

>  <REMARK>
 VINA RESULT:      -8.6      3.145      5.497
  Name = 
  9 active torsions:
  status: ('A' for Active; 'I' for Inactive)
    1  A    between atoms: C_2  and  O_47
    2  A    between atoms: C_4  and  C_46
    3  A    between atoms: C_6  and  C_18
    4  A    between atoms: N_9  and  C_40
    5  A    between atoms: C_10  and  O_47
    6  A    between atoms: C_12  and  C_45
    7  A    between atoms: C_18  and  C_46
    8  A    between atoms: C_29  and  C_31
    9  A    between atoms: C_29  and  C_45
                            x       y       z     vdW  Elec       q    Type
                         _______ _______ _______ _____ _____    ______ ____

>  <TORSDO>
F 9

$$$$
=
 OpenBabel10222415503D

 47 52  0  0  1  0  0  0  0  0999 V2000
  186.2690  173.7490  135.6050 C   0  0  0  0  0  0  0  0  0  0  0  0
  185.0930  173.1360  135.6810 C   0  0  0  0  0  0  0  0  0  0  0  0
  182.6380  173.8170  135.1090 C   0  0  0  0  0  1  0  0  0  0  0  0
  189.4130  177.0140  138.2850 C   0  0  1  0  0  3  0  0  0  0  0  0
  187.5500  173.1740  135.8940 N   0  0  0  0  0  0  0  0  0  0  0  0
  186.0790  175.1340  135.0810 C   0  0  2  0  0  3  0  0  0  0  0  0
  189.0110  177.7630  139.5530 C   0  0  1  0  0  3  0  0  0  0  0  0
  188.3470  177.3840  137.2760 C   0  0  2  0  0  3  0  0  0  0  0  0
  187.6450  171.8760  136.2710 O   0  0  0  0  0  1  0  0  0  0  0  0
  188.7520  173.9200  135.6420 C   0  0  0  0  0  0  0  0  0  0  0  0
  188.8500  175.3270  135.9060 N   0  0  0  0  0  2  0  0  0  0  0  0
  192.3190  170.6060  134.6030 C   0  0  0  0  0  2  0  0  0  0  0  0
  190.9360  172.6670  134.9570 C   0  0  0  0  0  0  0  0  0  0  0  0
  186.5500  176.1380  136.1020 C   0  0  0  0  0  0  0  0  0  0  0  0
  187.2890  177.9490  138.0860 N   0  0  0  0  0  0  0  0  0  0  0  0
  185.5670  177.0760  136.7020 C   0  0  0  0  0  3  0  0  0  0  0  0
  193.2610  173.3060  135.5960 C   0  0  0  0  0  3  0  0  0  0  0  0
  184.0990  174.0810  135.2120 C   0  0  0  0  0  0  0  0  0  0  0  0
  187.6280  178.2160  139.4170 N   0  0  0  0  0  2  0  0  0  0  0  0
  187.8560  176.2060  136.4580 C   0  0  0  0  0  0  0  0  0  0  0  0
  184.6320  175.2060  134.8660 N   0  0  0  0  0  0  0  0  0  0  0  0
  190.9230  171.1730  134.8350 C   0  0  0  0  0  2  0  0  0  0  0  0
  185.9270  177.9190  137.6660 C   0  0  0  0  0  3  0  0  0  0  0  0
  184.8270  171.7350  136.1180 C   0  0  0  0  0  1  0  0  0  0  0  0
  192.1490  173.4630  134.5950 C   0  0  0  0  0  2  0  0  0  0  0  0
  193.1590  170.7590  135.8640 C   0  0  0  0  0  2  0  0  0  0  0  0
  193.7140  172.1440  136.1000 C   0  0  0  0  0  3  0  0  0  0  0  0
  189.8430  173.2890  135.2980 C   0  0  0  0  0  0  0  0  0  0  0  0
  190.7760  177.5110  137.8300 C   0  0  0  0  0  2  0  0  0  0  0  0
  191.6870  176.3410  137.5070 C   0  0  0  0  0  2  0  0  0  0  0  0
  193.0970  176.7000  137.8080 C   0  0  0  0  0  0  0  0  0  0  0  0
  193.4500  176.9270  138.9940 O   0  0  0  0  0  1  0  0  0  0  0  0
  194.0200  176.8130  136.7770 O   0  0  0  0  0  0  0  0  0  0  0  0
  189.1510  176.8460  140.7600 C   0  0  0  0  0  2  0  0  0  0  0  0
  190.3290  177.2580  141.6340 C   0  0  0  0  0  2  0  0  0  0  0  0
  188.3180  177.0470  144.8400 C   0  0  0  0  0  3  0  0  0  0  0  0
  190.6690  177.0700  145.4000 C   0  0  0  0  0  3  0  0  0  0  0  0
  189.9780  177.1880  143.0830 C   0  0  0  0  0  0  0  0  0  0  0  0
  190.9940  177.1540  144.0440 C   0  0  0  0  0  3  0  0  0  0  0  0
  188.6390  177.1320  143.4830 C   0  0  0  0  0  3  0  0  0  0  0  0
  189.3280  177.0200  145.8080 C   0  0  0  0  0  0  0  0  0  0  0  0
  188.9590  176.9160  147.1890 N   0  0  0  0  0  2  0  0  0  0  0  0
  187.9560  177.6830  147.8640 C   0  0  0  0  0  0  0  0  0  0  0  0
  187.8230  177.5410  149.1080 O   0  0  0  0  0  0  0  0  0  0  0  0
  187.1230  178.5570  147.1440 O   0  0  0  0  0  0  0  0  0  0  0  0
  185.8480  178.2630  146.6390 C   0  0  0  0  0  3  0  0  0  0  0  0
  185.2230  179.0010  145.7290 C   0  0  0  0  0  2  0  0  0  0  0  0
  1  2  2  0  0  0  0
  1  5  1  0  0  0  0
  2 24  1  0  0  0  0
  3 18  1  0  0  0  0
  4 29  1  6  0  0  0
  4  7  1  0  0  0  0
  5  9  1  0  0  0  0
  6 21  1  1  0  0  0
  6  1  1  0  0  0  0
  6 14  1  0  0  0  0
  7 34  1  1  0  0  0
  8 20  1  1  0  0  0
  8 15  1  0  0  0  0
  8  4  1  0  0  0  0
 10  5  1  0  0  0  0
 10 11  1  0  0  0  0
 11 20  1  0  0  0  0
 12 22  1  0  0  0  0
 12 26  1  0  0  0  0
 13 28  2  0  0  0  0
 14 20  2  0  0  0  0
 14 16  1  0  0  0  0
 15 19  1  0  0  0  0
 16 23  2  0  0  0  0
 17 27  2  0  0  0  0
 18  2  1  0  0  0  0
 19  7  1  0  0  0  0
 21 18  2  0  0  0  0
 22 13  1  0  0  0  0
 23 15  1  0  0  0  0
 25 13  1  0  0  0  0
 25 17  1  0  0  0  0
 26 27  1  0  0  0  0
 28 10  2  0  0  0  0
 30 31  1  0  0  0  0
 30 29  1  0  0  0  0
 31 32  1  0  0  0  0
 33 31  2  0  0  0  0
 34 35  1  0  0  0  0
 35 38  1  0  0  0  0
 36 41  1  0  0  0  0
 37 41  2  0  0  0  0
 38 40  1  0  0  0  0
 38 39  2  0  0  0  0
 39 37  1  0  0  0  0
 40 36  2  0  0  0  0
 41 42  1  0  0  0  0
 42 43  1  0  0  0  0
 43 44  2  0  0  0  0
 45 43  1  0  0  0  0
 46 45  1  0  0  0  0
 47 46  2  0  0  0  0
M  END
>  <MODEL>
4

>  <REMARK>
 VINA RESULT:      -8.2      1.356      1.680
  Name = 
  9 active torsions:
  status: ('A' for Active; 'I' for Inactive)
    1  A    between atoms: C_2  and  O_47
    2  A    between atoms: C_4  and  C_46
    3  A    between atoms: C_6  and  C_18
    4  A    between atoms: N_9  and  C_40
    5  A    between atoms: C_10  and  O_47
    6  A    between atoms: C_12  and  C_45
    7  A    between atoms: C_18  and  C_46
    8  A    between atoms: C_29  and  C_31
    9  A    between atoms: C_29  and  C_45
                            x       y       z     vdW  Elec       q    Type
                         _______ _______ _______ _____ _____    ______ ____

>  <TORSDO>
F 9

$$$$
=
 OpenBabel10222415503D

 47 52  0  0  1  0  0  0  0  0999 V2000
  188.5510  177.8970  142.8990 C   0  0  0  0  0  0  0  0  0  0  0  0
  189.0320  177.5160  144.0770 C   0  0  0  0  0  0  0  0  0  0  0  0
  191.3060  177.8480  145.3150 C   0  0  0  0  0  1  0  0  0  0  0  0
  188.4270  176.4820  137.8290 C   0  0  1  0  0  3  0  0  0  0  0  0
  187.2180  177.6850  142.4130 N   0  0  0  0  0  0  0  0  0  0  0  0
  189.5910  178.6720  142.1600 C   0  0  2  0  0  3  0  0  0  0  0  0
  189.2620  175.3600  137.2180 C   0  0  1  0  0  3  0  0  0  0  0  0
  189.4400  177.3770  138.5110 C   0  0  2  0  0  3  0  0  0  0  0  0
  186.3020  177.0570  143.1900 O   0  0  0  0  0  1  0  0  0  0  0  0
  186.8000  178.2680  141.1690 C   0  0  0  0  0  0  0  0  0  0  0  0
  187.6630  178.3310  140.0250 N   0  0  0  0  0  2  0  0  0  0  0  0
  181.9040  179.0910  141.5300 C   0  0  0  0  0  2  0  0  0  0  0  0
  184.3130  178.9860  140.8440 C   0  0  0  0  0  0  0  0  0  0  0  0
  189.9310  177.9730  140.8690 C   0  0  0  0  0  0  0  0  0  0  0  0
  190.6330  176.5580  138.5740 N   0  0  0  0  0  0  0  0  0  0  0  0
  191.3060  177.4490  140.6690 C   0  0  0  0  0  3  0  0  0  0  0  0
  183.0080  178.8550  138.7220 C   0  0  0  0  0  3  0  0  0  0  0  0
  190.3870  178.0230  144.1580 C   0  0  0  0  0  0  0  0  0  0  0  0
  190.5950  175.3820  137.8170 N   0  0  0  0  0  2  0  0  0  0  0  0
  189.0060  177.8390  139.8870 C   0  0  0  0  0  0  0  0  0  0  0  0
  190.7180  178.6790  143.0950 N   0  0  0  0  0  0  0  0  0  0  0  0
  183.3330  178.7810  141.9590 C   0  0  0  0  0  2  0  0  0  0  0  0
  191.6230  176.7540  139.5810 C   0  0  0  0  0  3  0  0  0  0  0  0
  188.3200  176.7530  145.1430 C   0  0  0  0  0  1  0  0  0  0  0  0
  183.9160  179.6880  139.5850 C   0  0  0  0  0  2  0  0  0  0  0  0
  181.4130  178.0320  140.5510 C   0  0  0  0  0  2  0  0  0  0  0  0
  181.9170  178.1850  139.1360 C   0  0  0  0  0  3  0  0  0  0  0  0
  185.5540  178.6280  141.0110 C   0  0  0  0  0  0  0  0  0  0  0  0
  187.7170  177.2320  136.7120 C   0  0  0  0  0  2  0  0  0  0  0  0
  186.2290  177.3200  136.9950 C   0  0  0  0  0  2  0  0  0  0  0  0
  185.4660  176.6740  135.8950 C   0  0  0  0  0  0  0  0  0  0  0  0
  186.0770  176.1450  134.9310 O   0  0  0  0  0  0  0  0  0  0  0  0
  184.0780  176.6790  135.9170 O   0  0  0  0  0  1  0  0  0  0  0  0
  188.5900  174.0180  137.4740 C   0  0  0  0  0  2  0  0  0  0  0  0
  188.0070  173.4370  136.1920 C   0  0  0  0  0  2  0  0  0  0  0  0
  184.8070  171.4410  135.8080 C   0  0  0  0  0  3  0  0  0  0  0  0
  184.5590  172.9510  137.6800 C   0  0  0  0  0  3  0  0  0  0  0  0
  186.6210  172.9280  136.4100 C   0  0  0  0  0  0  0  0  0  0  0  0
  185.8500  173.4380  137.4610 C   0  0  0  0  0  3  0  0  0  0  0  0
  186.0980  171.9270  135.5860 C   0  0  0  0  0  3  0  0  0  0  0  0
  184.0270  171.9510  136.8510 C   0  0  0  0  0  0  0  0  0  0  0  0
  182.7140  171.4160  137.0580 N   0  0  0  0  0  2  0  0  0  0  0  0
  181.4720  172.0720  136.7800 C   0  0  0  0  0  0  0  0  0  0  0  0
  180.4000  171.5020  137.1150 O   0  0  0  0  0  0  0  0  0  0  0  0
  181.4540  173.3150  136.1240 O   0  0  0  0  0  0  0  0  0  0  0  0
  181.2000  174.5620  136.7130 C   0  0  0  0  0  3  0  0  0  0  0  0
  181.3030  174.8020  138.0140 C   0  0  0  0  0  2  0  0  0  0  0  0
  1  2  2  0  0  0  0
  2 18  1  0  0  0  0
  2 24  1  0  0  0  0
  4 29  1  6  0  0  0
  4  8  1  0  0  0  0
  5  1  1  0  0  0  0
  5  9  1  0  0  0  0
  6 14  1  6  0  0  0
  6  1  1  0  0  0  0
  6 21  1  0  0  0  0
  7 34  1  1  0  0  0
  7 19  1  0  0  0  0
  7  4  1  0  0  0  0
  8 15  1  0  0  0  0
  8 20  1  1  0  0  0
 10  5  1  0  0  0  0
 11 10  1  0  0  0  0
 12 22  1  0  0  0  0
 13 28  2  0  0  0  0
 13 22  1  0  0  0  0
 15 23  1  0  0  0  0
 16 14  1  0  0  0  0
 17 27  2  0  0  0  0
 17 25  1  0  0  0  0
 18  3  1  0  0  0  0
 19 15  1  0  0  0  0
 20 11  1  0  0  0  0
 20 14  2  0  0  0  0
 21 18  2  0  0  0  0
 23 16  2  0  0  0  0
 25 13  1  0  0  0  0
 26 12  1  0  0  0  0
 27 26  1  0  0  0  0
 28 10  2  0  0  0  0
 29 30  1  0  0  0  0
 31 33  1  0  0  0  0
 31 30  1  0  0  0  0
 32 31  2  0  0  0  0
 35 38  1  0  0  0  0
 35 34  1  0  0  0  0
 36 41  1  0  0  0  0
 38 39  2  0  0  0  0
 39 37  1  0  0  0  0
 40 36  2  0  0  0  0
 40 38  1  0  0  0  0
 41 42  1  0  0  0  0
 41 37  2  0  0  0  0
 43 42  1  0  0  0  0
 43 44  2  0  0  0  0
 45 46  1  0  0  0  0
 45 43  1  0  0  0  0
 46 47  2  0  0  0  0
M  END
>  <MODEL>
5

>  <REMARK>
 VINA RESULT:      -8.2      3.456      9.309
  Name = 
  9 active torsions:
  status: ('A' for Active; 'I' for Inactive)
    1  A    between atoms: C_2  and  O_47
    2  A    between atoms: C_4  and  C_46
    3  A    between atoms: C_6  and  C_18
    4  A    between atoms: N_9  and  C_40
    5  A    between atoms: C_10  and  O_47
    6  A    between atoms: C_12  and  C_45
    7  A    between atoms: C_18  and  C_46
    8  A    between atoms: C_29  and  C_31
    9  A    between atoms: C_29  and  C_45
                            x       y       z     vdW  Elec       q    Type
                         _______ _______ _______ _____ _____    ______ ____

>  <TORSDO>
F 9

$$$$
=
 OpenBabel10222415503D

 47 52  0  0  1  0  0  0  0  0999 V2000
  182.6160  175.1930  137.1080 C   0  0  0  0  0  0  0  0  0  0  0  0
  181.5580  174.3920  137.0570 C   0  0  0  0  0  0  0  0  0  0  0  0
  179.0150  174.7540  136.5930 C   0  0  0  0  0  1  0  0  0  0  0  0
  185.2380  178.3860  140.3730 C   0  0  1  0  0  3  0  0  0  0  0  0
  183.9800  174.7930  137.3000 N   0  0  0  0  0  0  0  0  0  0  0  0
  182.1930  176.6000  136.8430 C   0  0  2  0  0  3  0  0  0  0  0  0
  184.7440  178.8150  141.7520 C   0  0  1  0  0  3  0  0  0  0  0  0
  184.1060  178.7530  139.4370 C   0  0  2  0  0  3  0  0  0  0  0  0
  184.2920  173.4810  137.4340 O   0  0  0  0  0  1  0  0  0  0  0  0
  185.0390  175.7580  137.2020 C   0  0  0  0  0  0  0  0  0  0  0  0
  184.9110  177.0910  137.7190 N   0  0  0  0  0  2  0  0  0  0  0  0
  189.0770  173.3200  135.6130 C   0  0  0  0  0  2  0  0  0  0  0  0
  187.3840  175.0270  136.3230 C   0  0  0  0  0  0  0  0  0  0  0  0
  182.5140  177.4640  138.0360 C   0  0  0  0  0  0  0  0  0  0  0  0
  182.9860  178.9800  140.3260 N   0  0  0  0  0  0  0  0  0  0  0  0
  181.4040  178.1040  138.7860 C   0  0  0  0  0  3  0  0  0  0  0  0
  189.5860  175.9110  137.0920 C   0  0  0  0  0  3  0  0  0  0  0  0
  180.4150  175.2310  136.7590 C   0  0  0  0  0  0  0  0  0  0  0  0
  183.3030  179.0520  141.6860 N   0  0  0  0  0  2  0  0  0  0  0  0
  183.7980  177.6800  138.4120 C   0  0  0  0  0  0  0  0  0  0  0  0
  180.7500  176.4720  136.6300 N   0  0  0  0  0  0  0  0  0  0  0  0
  187.6130  173.5990  135.9300 C   0  0  0  0  0  2  0  0  0  0  0  0
  181.6390  178.8050  139.8920 C   0  0  0  0  0  3  0  0  0  0  0  0
  181.5330  172.9110  137.2280 C   0  0  0  0  0  1  0  0  0  0  0  0
  188.4440  176.0630  136.1250 C   0  0  0  0  0  2  0  0  0  0  0  0
  189.9060  173.3760  136.8900 C   0  0  0  0  0  2  0  0  0  0  0  0
  190.2320  174.7670  137.3810 C   0  0  0  0  0  3  0  0  0  0  0  0
  186.2110  175.3880  136.7600 C   0  0  0  0  0  0  0  0  0  0  0  0
  186.4920  179.1740  140.0310 C   0  0  0  0  0  2  0  0  0  0  0  0
  187.5640  178.2520  139.4800 C   0  0  0  0  0  2  0  0  0  0  0  0
  188.7400  178.2430  140.3890 C   0  0  0  0  0  0  0  0  0  0  0  0
  189.8560  177.8410  139.9710 O   0  0  0  0  0  0  0  0  0  0  0  0
  188.6010  178.6500  141.7090 O   0  0  0  0  0  1  0  0  0  0  0  0
  185.0550  177.7300  142.7730 C   0  0  0  0  0  2  0  0  0  0  0  0
  184.9100  178.2510  144.1970 C   0  0  0  0  0  2  0  0  0  0  0  0
  188.3990  177.1320  145.1700 C   0  0  0  0  0  3  0  0  0  0  0  0
  187.2720  177.9600  147.1420 C   0  0  0  0  0  3  0  0  0  0  0  0
  186.1240  177.9450  145.0110 C   0  0  0  0  0  0  0  0  0  0  0  0
  186.1320  178.2290  146.3800 C   0  0  0  0  0  3  0  0  0  0  0  0
  187.2600  177.3980  144.4060 C   0  0  0  0  0  3  0  0  0  0  0  0
  188.4130  177.4060  146.5420 C   0  0  0  0  0  0  0  0  0  0  0  0
  189.6060  177.1350  147.2890 N   0  0  0  0  0  2  0  0  0  0  0  0
  190.9380  177.0590  146.7690 C   0  0  0  0  0  0  0  0  0  0  0  0
  191.8690  176.7100  147.5430 O   0  0  0  0  0  0  0  0  0  0  0  0
  191.2000  177.3910  145.4290 O   0  0  0  0  0  0  0  0  0  0  0  0
  191.6390  176.5150  144.4250 C   0  0  0  0  0  3  0  0  0  0  0  0
  191.6780  176.8260  143.1350 C   0  0  0  0  0  2  0  0  0  0  0  0
  1  5  1  0  0  0  0
  2  1  2  0  0  0  0
  2 24  1  0  0  0  0
  3 18  1  0  0  0  0
  4 29  1  6  0  0  0
  4  7  1  0  0  0  0
  5  9  1  0  0  0  0
  6 21  1  1  0  0  0
  6  1  1  0  0  0  0
  6 14  1  0  0  0  0
  7 34  1  1  0  0  0
  8 20  1  6  0  0  0
  8 15  1  0  0  0  0
  8  4  1  0  0  0  0
 10  5  1  0  0  0  0
 10 11  1  0  0  0  0
 11 20  1  0  0  0  0
 12 22  1  0  0  0  0
 12 26  1  0  0  0  0
 13 28  2  0  0  0  0
 14 20  2  0  0  0  0
 14 16  1  0  0  0  0
 15 19  1  0  0  0  0
 16 23  2  0  0  0  0
 17 27  2  0  0  0  0
 18  2  1  0  0  0  0
 19  7  1  0  0  0  0
 21 18  2  0  0  0  0
 22 13  1  0  0  0  0
 23 15  1  0  0  0  0
 25 13  1  0  0  0  0
 25 17  1  0  0  0  0
 26 27  1  0  0  0  0
 28 10  2  0  0  0  0
 30 29  1  0  0  0  0
 30 31  1  0  0  0  0
 31 33  1  0  0  0  0
 32 31  2  0  0  0  0
 34 35  1  0  0  0  0
 35 38  1  0  0  0  0
 36 41  1  0  0  0  0
 38 39  2  0  0  0  0
 39 37  1  0  0  0  0
 40 38  1  0  0  0  0
 40 36  2  0  0  0  0
 41 37  2  0  0  0  0
 41 42  1  0  0  0  0
 43 42  1  0  0  0  0
 43 44  2  0  0  0  0
 45 43  1  0  0  0  0
 46 45  1  0  0  0  0
 47 46  2  0  0  0  0
M  END
>  <MODEL>
6

>  <REMARK>
 VINA RESULT:      -8.1      3.151      5.370
  Name = 
  9 active torsions:
  status: ('A' for Active; 'I' for Inactive)
    1  A    between atoms: C_2  and  O_47
    2  A    between atoms: C_4  and  C_46
    3  A    between atoms: C_6  and  C_18
    4  A    between atoms: N_9  and  C_40
    5  A    between atoms: C_10  and  O_47
    6  A    between atoms: C_12  and  C_45
    7  A    between atoms: C_18  and  C_46
    8  A    between atoms: C_29  and  C_31
    9  A    between atoms: C_29  and  C_45
                            x       y       z     vdW  Elec       q    Type
                         _______ _______ _______ _____ _____    ______ ____

>  <TORSDO>
F 9

$$$$
=
 OpenBabel10222415503D

 47 52  0  0  1  0  0  0  0  0999 V2000
  187.4430  174.2300  135.4290 C   0  0  0  0  0  0  0  0  0  0  0  0
  186.1520  173.9180  135.3990 C   0  0  0  0  0  0  0  0  0  0  0  0
  183.9870  175.1700  134.6490 C   0  0  0  0  0  1  0  0  0  0  0  0
  191.0480  176.6390  138.4170 C   0  0  1  0  0  3  0  0  0  0  0  0
  188.5210  173.3640  135.8060 N   0  0  0  0  0  0  0  0  0  0  0  0
  187.6340  175.6210  134.9200 C   0  0  2  0  0  3  0  0  0  0  0  0
  190.7350  177.4610  139.6640 C   0  0  1  0  0  3  0  0  0  0  0  0
  190.1880  177.2560  137.3350 C   0  0  2  0  0  3  0  0  0  0  0  0
  188.2700  172.0800  136.1620 O   0  0  0  0  0  1  0  0  0  0  0  0
  189.8830  173.7980  135.6660 C   0  0  0  0  0  0  0  0  0  0  0  0
  190.2930  175.1400  135.9660 N   0  0  0  0  0  2  0  0  0  0  0  0
  192.6240  169.7250  134.8430 C   0  0  0  0  0  2  0  0  0  0  0  0
  191.7510  172.0580  135.1290 C   0  0  0  0  0  0  0  0  0  0  0  0
  188.2470  176.4800  135.9970 C   0  0  0  0  0  0  0  0  0  0  0  0
  189.2330  178.0580  138.0710 N   0  0  0  0  0  0  0  0  0  0  0  0
  187.4720  177.6270  136.5360 C   0  0  0  0  0  3  0  0  0  0  0  0
  194.1020  172.1170  135.9630 C   0  0  0  0  0  3  0  0  0  0  0  0
  185.4560  175.0750  134.8730 C   0  0  0  0  0  0  0  0  0  0  0  0
  189.5160  178.2340  139.4290 N   0  0  0  0  0  2  0  0  0  0  0  0
  189.4980  176.2320  136.4560 C   0  0  0  0  0  0  0  0  0  0  0  0
  186.2690  176.0390  134.5940 N   0  0  0  0  0  0  0  0  0  0  0  0
  191.3910  170.6110  134.9760 C   0  0  0  0  0  2  0  0  0  0  0  0
  187.9430  178.3570  137.5430 C   0  0  0  0  0  3  0  0  0  0  0  0
  185.5240  172.6220  135.7840 C   0  0  0  0  0  1  0  0  0  0  0  0
  193.1450  172.5380  134.8810 C   0  0  0  0  0  2  0  0  0  0  0  0
  193.3700  169.6700  136.1690 C   0  0  0  0  0  2  0  0  0  0  0  0
  194.2200  170.8800  136.4780 C   0  0  0  0  0  3  0  0  0  0  0  0
  190.8150  172.9240  135.3960 C   0  0  0  0  0  0  0  0  0  0  0  0
  192.5230  176.7940  138.0820 C   0  0  0  0  0  2  0  0  0  0  0  0
  193.0620  175.5200  137.4580 C   0  0  0  0  0  2  0  0  0  0  0  0
  193.8970  175.8500  136.2740 C   0  0  0  0  0  0  0  0  0  0  0  0
  193.3520  176.0690  135.1620 O   0  0  0  0  0  0  0  0  0  0  0  0
  195.2800  175.8880  136.3880 O   0  0  0  0  0  1  0  0  0  0  0  0
  190.5520  176.5360  140.8600 C   0  0  0  0  0  2  0  0  0  0  0  0
  189.0790  176.3810  141.2190 C   0  0  0  0  0  2  0  0  0  0  0  0
  189.6420  177.4140  144.8230 C   0  0  0  0  0  3  0  0  0  0  0  0
  187.2640  177.3630  144.3940 C   0  0  0  0  0  3  0  0  0  0  0  0
  188.8220  176.7870  142.6320 C   0  0  0  0  0  0  0  0  0  0  0  0
  187.5080  176.9650  143.0770 C   0  0  0  0  0  3  0  0  0  0  0  0
  189.8900  177.0140  143.5070 C   0  0  0  0  0  3  0  0  0  0  0  0
  188.3310  177.5860  145.2770 C   0  0  0  0  0  0  0  0  0  0  0  0
  188.1180  178.0130  146.6290 N   0  0  0  0  0  2  0  0  0  0  0  0
  188.7310  177.4650  147.8020 C   0  0  0  0  0  0  0  0  0  0  0  0
  188.3590  177.8860  148.9290 O   0  0  0  0  0  0  0  0  0  0  0  0
  189.7430  176.4960  147.6910 O   0  0  0  0  0  0  0  0  0  0  0  0
  191.1250  176.7360  147.6770 C   0  0  0  0  0  3  0  0  0  0  0  0
  192.0250  175.8530  147.2600 C   0  0  0  0  0  2  0  0  0  0  0  0
  1  5  1  0  0  0  0
  2  1  2  0  0  0  0
  2 24  1  0  0  0  0
  3 18  1  0  0  0  0
  4 29  1  6  0  0  0
  4  7  1  0  0  0  0
  5  9  1  0  0  0  0
  6 21  1  1  0  0  0
  6  1  1  0  0  0  0
  6 14  1  0  0  0  0
  7 34  1  1  0  0  0
  8 20  1  1  0  0  0
  8 15  1  0  0  0  0
  8  4  1  0  0  0  0
 10  5  1  0  0  0  0
 10 11  1  0  0  0  0
 11 20  1  0  0  0  0
 12 22  1  0  0  0  0
 12 26  1  0  0  0  0
 13 28  2  0  0  0  0
 14 20  2  0  0  0  0
 14 16  1  0  0  0  0
 15 19  1  0  0  0  0
 16 23  2  0  0  0  0
 17 27  2  0  0  0  0
 18  2  1  0  0  0  0
 19  7  1  0  0  0  0
 21 18  2  0  0  0  0
 22 13  1  0  0  0  0
 23 15  1  0  0  0  0
 25 13  1  0  0  0  0
 25 17  1  0  0  0  0
 26 27  1  0  0  0  0
 28 10  2  0  0  0  0
 30 29  1  0  0  0  0
 31 33  1  0  0  0  0
 31 30  1  0  0  0  0
 32 31  2  0  0  0  0
 34 35  1  0  0  0  0
 35 38  1  0  0  0  0
 36 41  1  0  0  0  0
 37 41  2  0  0  0  0
 38 39  2  0  0  0  0
 38 40  1  0  0  0  0
 39 37  1  0  0  0  0
 40 36  2  0  0  0  0
 41 42  1  0  0  0  0
 42 43  1  0  0  0  0
 43 44  2  0  0  0  0
 45 43  1  0  0  0  0
 46 45  1  0  0  0  0
 47 46  2  0  0  0  0
M  END
>  <MODEL>
7

>  <REMARK>
 VINA RESULT:      -7.8      1.590      2.537
  Name = 
  9 active torsions:
  status: ('A' for Active; 'I' for Inactive)
    1  A    between atoms: C_2  and  O_47
    2  A    between atoms: C_4  and  C_46
    3  A    between atoms: C_6  and  C_18
    4  A    between atoms: N_9  and  C_40
    5  A    between atoms: C_10  and  O_47
    6  A    between atoms: C_12  and  C_45
    7  A    between atoms: C_18  and  C_46
    8  A    between atoms: C_29  and  C_31
    9  A    between atoms: C_29  and  C_45
                            x       y       z     vdW  Elec       q    Type
                         _______ _______ _______ _____ _____    ______ ____

>  <TORSDO>
F 9

$$$$
=
 OpenBabel10222415503D

 47 52  0  0  1  0  0  0  0  0999 V2000
  188.8590  177.6290  140.4100 C   0  0  0  0  0  0  0  0  0  0  0  0
  190.0270  177.0040  140.3020 C   0  0  0  0  0  0  0  0  0  0  0  0
  191.9940  177.0920  138.5890 C   0  0  0  0  0  1  0  0  0  0  0  0
  183.8650  177.3770  138.7620 C   0  0  1  0  0  3  0  0  0  0  0  0
  187.9230  177.5070  141.4890 N   0  0  0  0  0  0  0  0  0  0  0  0
  188.6860  178.5680  139.2620 C   0  0  2  0  0  3  0  0  0  0  0  0
  183.3530  176.4340  137.6760 C   0  0  1  0  0  3  0  0  0  0  0  0
  185.0140  178.1150  138.1090 C   0  0  2  0  0  3  0  0  0  0  0  0
  188.2030  176.7050  142.5450 O   0  0  0  0  0  1  0  0  0  0  0  0
  186.7580  178.3450  141.5350 C   0  0  0  0  0  0  0  0  0  0  0  0
  186.0060  178.6770  140.3590 N   0  0  0  0  0  2  0  0  0  0  0  0
  185.6190  178.9790  146.3400 C   0  0  0  0  0  2  0  0  0  0  0  0
  185.7720  179.0730  143.8390 C   0  0  0  0  0  0  0  0  0  0  0  0
  187.4690  178.1800  138.4610 C   0  0  0  0  0  0  0  0  0  0  0  0
  185.3030  177.3250  136.9310 N   0  0  0  0  0  0  0  0  0  0  0  0
  187.6390  177.7390  137.0540 C   0  0  0  0  0  3  0  0  0  0  0  0
  183.3570  179.3930  144.3720 C   0  0  0  0  0  3  0  0  0  0  0  0
  190.6580  177.5050  139.0980 C   0  0  0  0  0  0  0  0  0  0  0  0
  184.3550  176.3460  136.6150 N   0  0  0  0  0  2  0  0  0  0  0  0
  186.2290  178.2520  139.0040 C   0  0  0  0  0  0  0  0  0  0  0  0
  189.9250  178.3860  138.5030 N   0  0  0  0  0  0  0  0  0  0  0  0
  186.4290  178.6060  145.1030 C   0  0  0  0  0  2  0  0  0  0  0  0
  186.6010  177.3090  136.3410 C   0  0  0  0  0  3  0  0  0  0  0  0
  190.6130  176.0100  141.2460 C   0  0  0  0  0  1  0  0  0  0  0  0
  184.6240  180.0300  143.8710 C   0  0  0  0  0  2  0  0  0  0  0  0
  184.3380  178.1560  146.3900 C   0  0  0  0  0  2  0  0  0  0  0  0
  183.2350  178.6290  145.4720 C   0  0  0  0  0  3  0  0  0  0  0  0
  186.2690  178.7080  142.6910 C   0  0  0  0  0  0  0  0  0  0  0  0
  182.7530  178.3440  139.1390 C   0  0  0  0  0  2  0  0  0  0  0  0
  182.5180  178.3240  140.6380 C   0  0  0  0  0  2  0  0  0  0  0  0
  181.0870  178.6020  140.9290 C   0  0  0  0  0  0  0  0  0  0  0  0
  180.6740  178.5940  142.1170 O   0  0  0  0  0  1  0  0  0  0  0  0
  180.2000  178.8410  139.8890 O   0  0  0  0  0  0  0  0  0  0  0  0
  183.0900  175.0570  138.2700 C   0  0  0  0  0  2  0  0  0  0  0  0
  182.8670  174.0170  137.1790 C   0  0  0  0  0  2  0  0  0  0  0  0
  185.5290  172.2260  135.1600 C   0  0  0  0  0  3  0  0  0  0  0  0
  186.3890  172.6420  137.3800 C   0  0  0  0  0  3  0  0  0  0  0  0
  184.1460  173.3470  136.8020 C   0  0  0  0  0  0  0  0  0  0  0  0
  185.1830  173.2530  137.7350 C   0  0  0  0  0  3  0  0  0  0  0  0
  184.3210  172.8350  135.5120 C   0  0  0  0  0  3  0  0  0  0  0  0
  186.5680  172.1210  136.0900 C   0  0  0  0  0  0  0  0  0  0  0  0
  187.7970  171.5050  135.6860 N   0  0  0  0  0  2  0  0  0  0  0  0
  188.9440  172.1670  135.1400 C   0  0  0  0  0  0  0  0  0  0  0  0
  189.9110  171.4670  134.7390 O   0  0  0  0  0  0  0  0  0  0  0  0
  188.9930  173.5700  135.0790 O   0  0  0  0  0  0  0  0  0  0  0  0
  189.7660  174.4120  135.8930 C   0  0  0  0  0  3  0  0  0  0  0  0
  189.6620  174.4630  137.2160 C   0  0  0  0  0  2  0  0  0  0  0  0
  1  5  1  0  0  0  0
  2  1  2  0  0  0  0
  2 24  1  0  0  0  0
  3 18  1  0  0  0  0
  4 29  1  6  0  0  0
  5 10  1  0  0  0  0
  5  9  1  0  0  0  0
  6 14  1  6  0  0  0
  6  1  1  0  0  0  0
  7 34  1  1  0  0  0
  7  4  1  0  0  0  0
  8  4  1  0  0  0  0
  8 20  1  1  0  0  0
 10 28  2  0  0  0  0
 11 10  1  0  0  0  0
 12 26  1  0  0  0  0
 13 25  1  0  0  0  0
 13 22  1  0  0  0  0
 14 20  2  0  0  0  0
 15  8  1  0  0  0  0
 16 14  1  0  0  0  0
 17 27  2  0  0  0  0
 18  2  1  0  0  0  0
 19 15  1  0  0  0  0
 19  7  1  0  0  0  0
 20 11  1  0  0  0  0
 21 18  2  0  0  0  0
 21  6  1  0  0  0  0
 22 12  1  0  0  0  0
 23 15  1  0  0  0  0
 23 16  2  0  0  0  0
 25 17  1  0  0  0  0
 27 26  1  0  0  0  0
 28 13  2  0  0  0  0
 29 30  1  0  0  0  0
 30 31  1  0  0  0  0
 31 32  1  0  0  0  0
 33 31  2  0  0  0  0
 35 34  1  0  0  0  0
 36 40  2  0  0  0  0
 36 41  1  0  0  0  0
 37 39  1  0  0  0  0
 38 35  1  0  0  0  0
 38 39  2  0  0  0  0
 40 38  1  0  0  0  0
 41 37  2  0  0  0  0
 42 41  1  0  0  0  0
 43 42  1  0  0  0  0
 44 43  2  0  0  0  0
 45 43  1  0  0  0  0
 45 46  1  0  0  0  0
 46 47  2  0  0  0  0
M  END
>  <MODEL>
8

>  <REMARK>
 VINA RESULT:      -7.6      2.939     10.231
  Name = 
  9 active torsions:
  status: ('A' for Active; 'I' for Inactive)
    1  A    between atoms: C_2  and  O_47
    2  A    between atoms: C_4  and  C_46
    3  A    between atoms: C_6  and  C_18
    4  A    between atoms: N_9  and  C_40
    5  A    between atoms: C_10  and  O_47
    6  A    between atoms: C_12  and  C_45
    7  A    between atoms: C_18  and  C_46
    8  A    between atoms: C_29  and  C_31
    9  A    between atoms: C_29  and  C_45
                            x       y       z     vdW  Elec       q    Type
                         _______ _______ _______ _____ _____    ______ ____

>  <TORSDO>
F 9

$$$$
=
 OpenBabel10222415503D

 47 52  0  0  1  0  0  0  0  0999 V2000
  182.2970  175.7960  138.1090 C   0  0  0  0  0  0  0  0  0  0  0  0
  181.1410  175.4970  138.6910 C   0  0  0  0  0  0  0  0  0  0  0  0
  178.9540  176.8280  139.1990 C   0  0  0  0  0  1  0  0  0  0  0  0
  187.0210  177.8910  139.1200 C   0  0  1  0  0  3  0  0  0  0  0  0
  183.3760  174.8900  137.8400 N   0  0  0  0  0  0  0  0  0  0  0  0
  182.2870  177.2260  137.6810 C   0  0  2  0  0  3  0  0  0  0  0  0
  187.3990  178.5960  140.4200 C   0  0  1  0  0  3  0  0  0  0  0  0
  185.7750  178.6120  138.6510 C   0  0  2  0  0  3  0  0  0  0  0  0
  183.2640  173.5810  138.1720 O   0  0  0  0  0  1  0  0  0  0  0  0
  184.5170  175.3270  137.0840 C   0  0  0  0  0  0  0  0  0  0  0  0
  185.0900  176.6320  137.2470 N   0  0  0  0  0  2  0  0  0  0  0  0
  186.2930  171.3290  134.7080 C   0  0  0  0  0  2  0  0  0  0  0  0
  185.7930  173.6310  135.5660 C   0  0  0  0  0  0  0  0  0  0  0  0
  183.3910  177.9780  138.3820 C   0  0  0  0  0  0  0  0  0  0  0  0
  185.3440  179.3490  139.8200 N   0  0  0  0  0  0  0  0  0  0  0  0
  183.0390  179.0750  139.3190 C   0  0  0  0  0  3  0  0  0  0  0  0
  188.2510  173.5960  135.1420 C   0  0  0  0  0  3  0  0  0  0  0  0
  180.3380  176.7030  138.6660 C   0  0  0  0  0  0  0  0  0  0  0  0
  186.2620  179.3950  140.8740 N   0  0  0  0  0  2  0  0  0  0  0  0
  184.6920  177.6790  138.1470 C   0  0  0  0  0  0  0  0  0  0  0  0
  180.9610  177.6820  138.1000 N   0  0  0  0  0  0  0  0  0  0  0  0
  185.3290  172.2070  135.4970 C   0  0  0  0  0  2  0  0  0  0  0  0
  183.9780  179.7050  140.0190 C   0  0  0  0  0  3  0  0  0  0  0  0
  180.7150  174.1750  139.2330 C   0  0  0  0  0  1  0  0  0  0  0  0
  186.9110  174.1230  134.7040 C   0  0  0  0  0  2  0  0  0  0  0  0
  187.5880  171.1450  135.4890 C   0  0  0  0  0  2  0  0  0  0  0  0
  188.5410  172.3160  135.4340 C   0  0  0  0  0  3  0  0  0  0  0  0
  185.1520  174.4750  136.3240 C   0  0  0  0  0  0  0  0  0  0  0  0
  188.1500  178.0660  138.1180 C   0  0  0  0  0  2  0  0  0  0  0  0
  188.3510  176.7930  137.3170 C   0  0  0  0  0  2  0  0  0  0  0  0
  188.9940  177.1110  136.0150 C   0  0  0  0  0  0  0  0  0  0  0  0
  188.4120  177.8640  135.1930 O   0  0  0  0  0  0  0  0  0  0  0  0
  190.2230  176.5530  135.6930 O   0  0  0  0  0  1  0  0  0  0  0  0
  187.7750  177.5650  141.4760 C   0  0  0  0  0  2  0  0  0  0  0  0
  189.1920  177.0480  141.2650 C   0  0  0  0  0  2  0  0  0  0  0  0
  191.7460  176.0370  143.8790 C   0  0  0  0  0  3  0  0  0  0  0  0
  190.2010  177.6090  144.8710 C   0  0  0  0  0  3  0  0  0  0  0  0
  189.9270  176.9420  142.5600 C   0  0  0  0  0  0  0  0  0  0  0  0
  189.5040  177.6910  143.6620 C   0  0  0  0  0  3  0  0  0  0  0  0
  191.0500  176.1160  142.6680 C   0  0  0  0  0  3  0  0  0  0  0  0
  191.3240  176.7770  144.9880 C   0  0  0  0  0  0  0  0  0  0  0  0
  192.0730  176.6830  146.2070 N   0  0  0  0  0  2  0  0  0  0  0  0
  191.5400  176.6670  147.5360 C   0  0  0  0  0  0  0  0  0  0  0  0
  192.3410  176.6820  148.5070 O   0  0  0  0  0  0  0  0  0  0  0  0
  190.1520  176.6110  147.7450 O   0  0  0  0  0  0  0  0  0  0  0  0
  189.3300  177.6690  148.1610 C   0  0  0  0  0  3  0  0  0  0  0  0
  188.0090  177.6770  148.0310 C   0  0  0  0  0  2  0  0  0  0  0  0
  1  2  2  0  0  0  0
  2 24  1  0  0  0  0
  4 29  1  6  0  0  0
  4  7  1  0  0  0  0
  5  1  1  0  0  0  0
  5  9  1  0  0  0  0
  6 21  1  1  0  0  0
  6  1  1  0  0  0  0
  6 14  1  0  0  0  0
  7 19  1  0  0  0  0
  7 34  1  1  0  0  0
  8 20  1  1  0  0  0
  8  4  1  0  0  0  0
  8 15  1  0  0  0  0
 10 11  1  0  0  0  0
 10  5  1  0  0  0  0
 11 20  1  0  0  0  0
 12 26  1  0  0  0  0
 12 22  1  0  0  0  0
 13 28  2  0  0  0  0
 14 16  1  0  0  0  0
 15 23  1  0  0  0  0
 15 19  1  0  0  0  0
 16 23  2  0  0  0  0
 17 27  2  0  0  0  0
 18  2  1  0  0  0  0
 18  3  1  0  0  0  0
 20 14  2  0  0  0  0
 21 18  2  0  0  0  0
 22 13  1  0  0  0  0
 25 17  1  0  0  0  0
 25 13  1  0  0  0  0
 27 26  1  0  0  0  0
 28 10  2  0  0  0  0
 30 29  1  0  0  0  0
 31 30  1  0  0  0  0
 32 31  2  0  0  0  0
 33 31  1  0  0  0  0
 35 34  1  0  0  0  0
 35 38  1  0  0  0  0
 36 41  1  0  0  0  0
 37 41  2  0  0  0  0
 38 40  1  0  0  0  0
 38 39  2  0  0  0  0
 39 37  1  0  0  0  0
 40 36  2  0  0  0  0
 41 42  1  0  0  0  0
 42 43  1  0  0  0  0
 43 45  1  0  0  0  0
 43 44  2  0  0  0  0
 45 46  1  0  0  0  0
 47 46  2  0  0  0  0
M  END
>  <MODEL>
9

>  <REMARK>
 VINA RESULT:      -6.5      3.431      5.054
  Name = 
  9 active torsions:
  status: ('A' for Active; 'I' for Inactive)
    1  A    between atoms: C_2  and  O_47
    2  A    between atoms: C_4  and  C_46
    3  A    between atoms: C_6  and  C_18
    4  A    between atoms: N_9  and  C_40
    5  A    between atoms: C_10  and  O_47
    6  A    between atoms: C_12  and  C_45
    7  A    between atoms: C_18  and  C_46
    8  A    between atoms: C_29  and  C_31
    9  A    between atoms: C_29  and  C_45
                            x       y       z     vdW  Elec       q    Type
                         _______ _______ _______ _____ _____    ______ ____

>  <TORSDO>
F 9

$$$$
