=
 OpenBabel10222417123D

 51 58  0  0  1  0  0  0  0  0999 V2000
  193.9020  175.3610  136.8840 N   0  0  0  0  0  0  0  0  0  0  0  0
  189.5790  175.7370  134.5940 C   0  0  0  0  0  3  0  0  0  0  0  0
  190.8850  175.6200  134.7540 C   0  0  0  0  0  3  0  0  0  0  0  0
  188.7120  176.1490  136.9120 C   0  0  0  0  0  0  0  0  0  0  0  0
  187.3610  176.1900  137.5680 C   0  0  0  0  0  2  0  0  0  0  0  0
  188.5580  175.8780  135.6230 C   0  0  0  0  0  0  0  0  0  0  0  0
  186.3720  175.9290  136.4410 C   0  0  2  0  0  3  0  0  0  0  0  0
  189.9480  176.4580  137.6860 C   0  0  0  0  0  0  0  0  0  0  0  0
  192.9350  175.2480  135.8290 C   0  0  0  0  0  3  0  0  0  0  0  0
  187.1960  175.7430  135.2640 N   0  0  0  0  0  2  0  0  0  0  0  0
  192.3100  176.4360  138.3070 C   0  0  0  0  0  3  0  0  0  0  0  0
  193.5590  176.0320  138.0970 C   0  0  0  0  0  3  0  0  0  0  0  0
  191.6640  175.6350  135.9900 C   0  0  0  0  0  0  0  0  0  0  0  0
  191.2290  176.1950  137.3110 C   0  0  0  0  0  0  0  0  0  0  0  0
  189.6870  176.9440  141.4540 C   0  0  0  0  0  0  0  0  0  0  0  0
  188.3400  178.6440  140.3780 C   0  0  0  0  0  2  0  0  0  0  0  0
  190.2760  176.3550  142.6190 N   0  0  0  0  0  2  0  0  0  0  0  0
  189.9710  176.3590  140.1330 C   0  0  0  0  0  3  0  0  0  0  0  0
  188.9890  178.0400  141.5430 N   0  0  0  0  0  0  0  0  0  0  0  0
  189.6940  177.0510  139.0220 C   0  0  0  0  0  0  0  0  0  0  0  0
  189.1950  178.4660  139.1220 C   0  0  0  0  0  2  0  0  0  0  0  0
  191.4540  178.3290  144.4040 N   0  0  0  0  0  2  0  0  0  0  0  0
  190.6040  177.4640  144.8490 C   0  0  0  0  0  0  0  0  0  0  0  0
  189.8700  176.6350  143.9360 N   0  0  0  0  0  2  0  0  0  0  0  0
  190.9740  176.5120  147.1050 C   0  0  0  0  0  1  0  0  0  0  0  0
  188.7090  177.2770  146.4260 C   0  0  0  0  0  1  0  0  0  0  0  0
  190.1990  177.5250  146.2830 C   0  0  0  0  0  3  0  0  0  0  0  0
  198.0440  175.2490  137.1680 O   0  0  0  0  0  0  0  0  0  0  0  0
  197.3810  174.2230  137.8660 C   0  0  0  0  0  2  0  0  0  0  0  0
  195.2500  174.8290  136.7330 C   0  0  0  0  0  3  0  0  0  0  0  0
  196.0970  175.7420  135.8460 C   0  0  0  0  0  2  0  0  0  0  0  0
  195.9170  174.6020  138.0930 C   0  0  0  0  0  2  0  0  0  0  0  0
  197.5390  175.2370  135.8550 C   0  0  0  0  0  2  0  0  0  0  0  0
  185.4790  177.1480  136.2690 C   0  0  0  0  0  2  0  0  0  0  0  0
  181.2460  177.5830  137.4970 C   0  0  0  0  0  2  0  0  0  0  0  0
  184.0500  176.8590  136.7020 C   0  0  2  0  0  3  0  0  0  0  0  0
  181.4260  176.7740  136.2220 C   0  0  0  0  0  2  0  0  0  0  0  0
  182.3470  177.2410  138.4930 C   0  0  1  0  0  3  0  0  0  0  0  0
  182.9240  177.3180  135.3410 S   0  0  0  0  0  0  0  0  0  0  0  0
  183.7090  177.6590  137.9540 C   0  0  0  0  0  2  0  0  0  0  0  0
  181.3850  178.9910  140.5840 C   0  0  0  0  0  0  0  0  0  0  0  0
  182.0920  177.9230  139.7470 N   0  0  0  0  0  0  0  0  0  0  0  0
  180.5680  179.9410  140.6960 O   0  0  0  0  0  0  0  0  0  0  0  0
  182.3550  178.1420  141.0980 C   0  0  1  0  0  3  0  0  0  0  0  0
  183.6680  178.8910  141.2450 C   0  0  0  0  0  2  0  0  0  0  0  0
  185.5570  178.3750  142.8110 C   0  0  0  0  0  2  0  0  0  0  0  0
  184.1620  178.7730  142.6080 N   0  0  0  0  0  0  0  0  0  0  0  0
  183.3630  179.2680  143.6900 C   0  0  0  0  0  3  0  0  0  0  0  0
  185.0330  178.4190  145.2370 C   0  0  0  0  0  3  0  0  0  0  0  0
  185.8510  178.0460  144.2520 C   0  0  0  0  0  3  0  0  0  0  0  0
  183.7680  179.1120  144.9490 C   0  0  0  0  0  3  0  0  0  0  0  0
  1 12  1  0  0  0  0
  2  3  2  0  0  0  0
  2  6  1  0  0  0  0
  3 13  1  0  0  0  0
  4  5  1  0  0  0  0
  4  8  1  0  0  0  0
  6  4  2  0  0  0  0
  7 34  1  6  0  0  0
  7  5  1  0  0  0  0
  8 20  1  0  0  0  0
  9 13  2  0  0  0  0
  9  1  1  0  0  0  0
 10  6  1  0  0  0  0
 10  7  1  0  0  0  0
 12 11  2  0  0  0  0
 13 14  1  0  0  0  0
 14  8  2  0  0  0  0
 14 11  1  0  0  0  0
 15 19  2  0  0  0  0
 15 17  1  0  0  0  0
 16 19  1  0  0  0  0
 17 24  1  0  0  0  0
 18 15  1  0  0  0  0
 20 21  1  0  0  0  0
 20 18  2  0  0  0  0
 21 16  1  0  0  0  0
 22 23  2  0  0  0  0
 23 27  1  0  0  0  0
 24 23  1  0  0  0  0
 27 26  1  0  0  0  0
 27 25  1  0  0  0  0
 28 29  1  0  0  0  0
 29 32  1  0  0  0  0
 30  1  1  0  0  0  0
 30 32  1  0  0  0  0
 31 33  1  0  0  0  0
 31 30  1  0  0  0  0
 33 28  1  0  0  0  0
 36 34  1  6  0  0  0
 36 40  1  0  0  0  0
 37 35  1  0  0  0  0
 38 35  1  6  0  0  0
 38 42  1  0  0  0  0
 39 37  1  0  0  0  0
 39 36  1  0  0  0  0
 40 38  1  0  0  0  0
 41 43  2  0  0  0  0
 41 44  1  0  0  0  0
 42 41  1  0  0  0  0
 42 44  1  0  0  0  0
 44 45  1  6  0  0  0
 45 47  1  0  0  0  0
 46 50  1  0  0  0  0
 47 46  1  0  0  0  0
 47 48  1  0  0  0  0
 48 51  2  0  0  0  0
 50 49  2  0  0  0  0
 51 49  1  0  0  0  0
M  END
>  <MODEL>
1

>  <REMARK>
 VINA RESULT:      -9.6      0.000      0.000
  Name = 
  9 active torsions:
  status: ('A' for Active; 'I' for Inactive)
    1  A    between atoms: N_3  and  C_19
    2  A    between atoms: C_13  and  C_29
    3  A    between atoms: C_14  and  N_16
    4  A    between atoms: C_14  and  CA_26
    5  A    between atoms: N_15  and  C_31
    6  A    between atoms: C_24  and  C_41
    7  A    between atoms: C_28  and  C_41
    8  A    between atoms: C_33  and  C_49
    9  A    between atoms: N_37  and  N_39
                            x       y       z     vdW  Elec       q    Type
                         _______ _______ _______ _____ _____    ______ ____

>  <TORSDO>
F 9

$$$$
=
 OpenBabel10222417123D

 51 58  0  0  1  0  0  0  0  0999 V2000
  189.9200  177.3570  143.4720 N   0  0  0  0  0  0  0  0  0  0  0  0
  186.7060  178.5550  139.9640 C   0  0  0  0  0  3  0  0  0  0  0  0
  187.1830  178.3200  141.1740 C   0  0  0  0  0  3  0  0  0  0  0  0
  188.5490  177.8260  138.4270 C   0  0  0  0  0  0  0  0  0  0  0  0
  188.8440  177.9510  136.9590 C   0  0  0  0  0  2  0  0  0  0  0  0
  187.3930  178.4200  138.6880 C   0  0  0  0  0  0  0  0  0  0  0  0
  187.6470  178.6930  136.3830 C   0  0  2  0  0  3  0  0  0  0  0  0
  189.4600  177.0620  139.3280 C   0  0  0  0  0  0  0  0  0  0  0  0
  188.7520  177.9380  142.8730 C   0  0  0  0  0  3  0  0  0  0  0  0
  186.7900  178.9510  137.5220 N   0  0  0  0  0  2  0  0  0  0  0  0
  190.5760  176.3830  141.3910 C   0  0  0  0  0  3  0  0  0  0  0  0
  190.7780  176.5200  142.6980 C   0  0  0  0  0  3  0  0  0  0  0  0
  188.5050  177.8330  141.5620 C   0  0  0  0  0  0  0  0  0  0  0  0
  189.4750  177.0980  140.6870 C   0  0  0  0  0  0  0  0  0  0  0  0
  192.7740  175.7580  137.9780 C   0  0  0  0  0  0  0  0  0  0  0  0
  190.9870  174.7850  136.6640 C   0  0  0  0  0  2  0  0  0  0  0  0
  194.1550  175.8700  138.3360 N   0  0  0  0  0  2  0  0  0  0  0  0
  191.7750  176.5530  138.7140 C   0  0  0  0  0  3  0  0  0  0  0  0
  192.3860  174.8960  137.0830 N   0  0  0  0  0  0  0  0  0  0  0  0
  190.4760  176.2500  138.6150 C   0  0  0  0  0  0  0  0  0  0  0  0
  190.0430  175.0340  137.8420 C   0  0  0  0  0  2  0  0  0  0  0  0
  195.7970  173.5300  138.8830 N   0  0  0  0  0  2  0  0  0  0  0  0
  196.1290  174.3640  137.9550 C   0  0  0  0  0  0  0  0  0  0  0  0
  195.2170  175.3940  137.5460 N   0  0  0  0  0  2  0  0  0  0  0  0
  198.5960  174.1470  137.9860 C   0  0  0  0  0  1  0  0  0  0  0  0
  197.4470  175.0650  135.9830 C   0  0  0  0  0  1  0  0  0  0  0  0
  197.3420  174.0820  137.1330 C   0  0  0  0  0  3  0  0  0  0  0  0
  190.2580  176.4830  147.5190 O   0  0  0  0  0  0  0  0  0  0  0  0
  191.4770  176.7690  146.8780 C   0  0  0  0  0  2  0  0  0  0  0  0
  190.2350  177.5770  144.8780 C   0  0  0  0  0  3  0  0  0  0  0  0
  188.9770  177.4710  145.7400 C   0  0  0  0  0  2  0  0  0  0  0  0
  191.3240  176.6150  145.3640 C   0  0  0  0  0  2  0  0  0  0  0  0
  189.3810  177.5400  147.2120 C   0  0  0  0  0  2  0  0  0  0  0  0
  186.9350  177.7940  135.3850 C   0  0  0  0  0  2  0  0  0  0  0  0
  185.7560  173.5570  135.9140 C   0  0  0  0  0  2  0  0  0  0  0  0
  186.8000  176.3730  135.9110 C   0  0  2  0  0  3  0  0  0  0  0  0
  187.2520  173.7490  135.7220 C   0  0  0  0  0  2  0  0  0  0  0  0
  185.1940  174.6700  136.7910 C   0  0  1  0  0  3  0  0  0  0  0  0
  187.5690  175.2320  134.7120 S   0  0  0  0  0  0  0  0  0  0  0  0
  185.3290  176.0200  136.0990 C   0  0  0  0  0  2  0  0  0  0  0  0
  182.4600  173.7310  136.7520 C   0  0  0  0  0  0  0  0  0  0  0  0
  183.7960  174.4060  137.0700 N   0  0  0  0  0  0  0  0  0  0  0  0
  181.7500  172.9680  136.0470 O   0  0  0  0  0  0  0  0  0  0  0  0
  182.6280  174.6270  137.7980 C   0  0  1  0  0  3  0  0  0  0  0  0
  182.0410  175.9750  137.4200 C   0  0  0  0  0  2  0  0  0  0  0  0
  182.7610  176.5940  139.7400 C   0  0  0  0  0  2  0  0  0  0  0  0
  182.4800  176.9940  138.3590 N   0  0  0  0  0  0  0  0  0  0  0  0
  182.8500  178.2890  137.8680 C   0  0  0  0  0  3  0  0  0  0  0  0
  183.1820  179.0040  140.1670 C   0  0  0  0  0  3  0  0  0  0  0  0
  182.9510  177.7810  140.6490 C   0  0  0  0  0  3  0  0  0  0  0  0
  183.1930  179.2560  138.7180 C   0  0  0  0  0  3  0  0  0  0  0  0
  1 30  1  0  0  0  0
  2  3  2  0  0  0  0
  3 13  1  0  0  0  0
  4  6  2  0  0  0  0
  4  8  1  0  0  0  0
  5  4  1  0  0  0  0
  6  2  1  0  0  0  0
  7 34  1  6  0  0  0
  7  5  1  0  0  0  0
  7 10  1  0  0  0  0
  8 14  2  0  0  0  0
  9  1  1  0  0  0  0
 10  6  1  0  0  0  0
 11 12  2  0  0  0  0
 12  1  1  0  0  0  0
 13  9  2  0  0  0  0
 14 11  1  0  0  0  0
 14 13  1  0  0  0  0
 15 17  1  0  0  0  0
 15 18  1  0  0  0  0
 16 19  1  0  0  0  0
 16 21  1  0  0  0  0
 19 15  2  0  0  0  0
 20 18  2  0  0  0  0
 20  8  1  0  0  0  0
 21 20  1  0  0  0  0
 23 22  2  0  0  0  0
 24 23  1  0  0  0  0
 24 17  1  0  0  0  0
 26 27  1  0  0  0  0
 27 23  1  0  0  0  0
 27 25  1  0  0  0  0
 29 28  1  0  0  0  0
 30 32  1  0  0  0  0
 30 31  1  0  0  0  0
 31 33  1  0  0  0  0
 32 29  1  0  0  0  0
 33 28  1  0  0  0  0
 36 34  1  6  0  0  0
 36 40  1  0  0  0  0
 37 35  1  0  0  0  0
 38 35  1  6  0  0  0
 38 42  1  0  0  0  0
 39 37  1  0  0  0  0
 39 36  1  0  0  0  0
 40 38  1  0  0  0  0
 41 42  1  0  0  0  0
 41 44  1  0  0  0  0
 42 44  1  0  0  0  0
 43 41  2  0  0  0  0
 44 45  1  6  0  0  0
 45 47  1  0  0  0  0
 46 50  1  0  0  0  0
 47 46  1  0  0  0  0
 48 47  1  0  0  0  0
 48 51  2  0  0  0  0
 49 50  2  0  0  0  0
 51 49  1  0  0  0  0
M  END
>  <MODEL>
2

>  <REMARK>
 VINA RESULT:      -9.5      2.981      7.137
  Name = 
  9 active torsions:
  status: ('A' for Active; 'I' for Inactive)
    1  A    between atoms: N_3  and  C_19
    2  A    between atoms: C_13  and  C_29
    3  A    between atoms: C_14  and  N_16
    4  A    between atoms: C_14  and  CA_26
    5  A    between atoms: N_15  and  C_31
    6  A    between atoms: C_24  and  C_41
    7  A    between atoms: C_28  and  C_41
    8  A    between atoms: C_33  and  C_49
    9  A    between atoms: N_37  and  N_39
                            x       y       z     vdW  Elec       q    Type
                         _______ _______ _______ _____ _____    ______ ____

>  <TORSDO>
F 9

$$$$
=
 OpenBabel10222417123D

 51 58  0  0  1  0  0  0  0  0999 V2000
  189.9660  177.3620  143.4740 N   0  0  0  0  0  0  0  0  0  0  0  0
  186.7680  178.5590  139.9500 C   0  0  0  0  0  3  0  0  0  0  0  0
  187.2400  178.3260  141.1620 C   0  0  0  0  0  3  0  0  0  0  0  0
  188.6170  177.8230  138.4220 C   0  0  0  0  0  0  0  0  0  0  0  0
  188.9180  177.9440  136.9550 C   0  0  0  0  0  2  0  0  0  0  0  0
  187.4600  178.4200  138.6770 C   0  0  0  0  0  0  0  0  0  0  0  0
  187.7250  178.6880  136.3720 C   0  0  2  0  0  3  0  0  0  0  0  0
  189.5220  177.0600  139.3280 C   0  0  0  0  0  0  0  0  0  0  0  0
  188.8020  177.9450  142.8690 C   0  0  0  0  0  3  0  0  0  0  0  0
  186.8630  178.9500  137.5080 N   0  0  0  0  0  2  0  0  0  0  0  0
  190.6290  176.3820  141.3980 C   0  0  0  0  0  3  0  0  0  0  0  0
  190.8260  176.5220  142.7040 C   0  0  0  0  0  3  0  0  0  0  0  0
  188.5590  177.8370  141.5570 C   0  0  0  0  0  0  0  0  0  0  0  0
  189.5320  177.0980  140.6880 C   0  0  0  0  0  0  0  0  0  0  0  0
  192.8400  175.7360  138.0090 C   0  0  0  0  0  0  0  0  0  0  0  0
  191.0620  174.7900  136.6650 C   0  0  0  0  0  2  0  0  0  0  0  0
  194.2180  175.8330  138.3840 N   0  0  0  0  0  2  0  0  0  0  0  0
  191.8400  176.5340  138.7380 C   0  0  0  0  0  3  0  0  0  0  0  0
  192.4560  174.8850  137.1020 N   0  0  0  0  0  0  0  0  0  0  0  0
  190.5400  176.2440  138.6210 C   0  0  0  0  0  0  0  0  0  0  0  0
  190.1060  175.0380  137.8330 C   0  0  0  0  0  2  0  0  0  0  0  0
  195.7460  173.4020  138.8590 N   0  0  0  0  0  2  0  0  0  0  0  0
  196.1420  174.2680  137.9860 C   0  0  0  0  0  0  0  0  0  0  0  0
  195.2860  175.3540  137.6030 N   0  0  0  0  0  2  0  0  0  0  0  0
  198.6190  174.2800  137.9940 C   0  0  0  0  0  1  0  0  0  0  0  0
  197.3730  174.7840  135.9040 C   0  0  0  0  0  1  0  0  0  0  0  0
  197.3690  173.9770  137.1880 C   0  0  0  0  0  3  0  0  0  0  0  0
  190.2910  176.4940  147.5230 O   0  0  0  0  0  0  0  0  0  0  0  0
  191.5120  176.7820  146.8860 C   0  0  0  0  0  2  0  0  0  0  0  0
  190.2760  177.5850  144.8800 C   0  0  0  0  0  3  0  0  0  0  0  0
  189.0150  177.4780  145.7390 C   0  0  0  0  0  2  0  0  0  0  0  0
  191.3640  176.6260  145.3720 C   0  0  0  0  0  2  0  0  0  0  0  0
  189.4140  177.5490  147.2120 C   0  0  0  0  0  2  0  0  0  0  0  0
  187.0150  177.7880  135.3730 C   0  0  0  0  0  2  0  0  0  0  0  0
  185.1160  173.8910  136.2810 C   0  0  0  0  0  2  0  0  0  0  0  0
  186.6890  176.4310  135.9780 C   0  0  2  0  0  3  0  0  0  0  0  0
  186.5640  173.7680  135.8350 C   0  0  0  0  0  2  0  0  0  0  0  0
  184.9480  175.1040  137.1880 C   0  0  1  0  0  3  0  0  0  0  0  0
  186.9950  175.1440  134.7210 S   0  0  0  0  0  0  0  0  0  0  0  0
  185.2310  176.3900  136.4230 C   0  0  0  0  0  2  0  0  0  0  0  0
  182.0970  174.8430  137.5910 C   0  0  0  0  0  0  0  0  0  0  0  0
  183.5940  175.1360  137.7060 N   0  0  0  0  0  0  0  0  0  0  0  0
  181.1100  174.3740  136.9670 O   0  0  0  0  0  0  0  0  0  0  0  0
  182.6580  175.5180  138.6650 C   0  0  1  0  0  3  0  0  0  0  0  0
  182.3800  177.0060  138.5400 C   0  0  0  0  0  2  0  0  0  0  0  0
  180.8690  177.7180  140.4100 C   0  0  0  0  0  2  0  0  0  0  0  0
  182.2210  177.5990  139.8570 N   0  0  0  0  0  0  0  0  0  0  0  0
  183.3800  177.8280  140.6690 C   0  0  0  0  0  3  0  0  0  0  0  0
  181.9440  178.8720  142.3280 C   0  0  0  0  0  3  0  0  0  0  0  0
  180.8350  178.5740  141.6490 C   0  0  0  0  0  3  0  0  0  0  0  0
  183.2630  178.4290  141.8520 C   0  0  0  0  0  3  0  0  0  0  0  0
  1 30  1  0  0  0  0
  2  3  2  0  0  0  0
  3 13  1  0  0  0  0
  4  6  2  0  0  0  0
  4  8  1  0  0  0  0
  5  4  1  0  0  0  0
  6  2  1  0  0  0  0
  7 34  1  6  0  0  0
  7  5  1  0  0  0  0
  7 10  1  0  0  0  0
  8 14  2  0  0  0  0
  9  1  1  0  0  0  0
 10  6  1  0  0  0  0
 11 12  2  0  0  0  0
 12  1  1  0  0  0  0
 13  9  2  0  0  0  0
 14 11  1  0  0  0  0
 14 13  1  0  0  0  0
 15 17  1  0  0  0  0
 15 18  1  0  0  0  0
 16 19  1  0  0  0  0
 16 21  1  0  0  0  0
 19 15  2  0  0  0  0
 20 18  2  0  0  0  0
 20  8  1  0  0  0  0
 21 20  1  0  0  0  0
 23 22  2  0  0  0  0
 24 23  1  0  0  0  0
 24 17  1  0  0  0  0
 26 27  1  0  0  0  0
 27 23  1  0  0  0  0
 27 25  1  0  0  0  0
 29 28  1  0  0  0  0
 30 32  1  0  0  0  0
 30 31  1  0  0  0  0
 31 33  1  0  0  0  0
 32 29  1  0  0  0  0
 33 28  1  0  0  0  0
 36 34  1  6  0  0  0
 36 40  1  0  0  0  0
 37 35  1  0  0  0  0
 38 35  1  6  0  0  0
 38 42  1  0  0  0  0
 39 37  1  0  0  0  0
 39 36  1  0  0  0  0
 40 38  1  0  0  0  0
 41 42  1  0  0  0  0
 41 44  1  0  0  0  0
 42 44  1  0  0  0  0
 43 41  2  0  0  0  0
 44 45  1  6  0  0  0
 45 47  1  0  0  0  0
 46 50  1  0  0  0  0
 47 46  1  0  0  0  0
 47 48  1  0  0  0  0
 48 51  2  0  0  0  0
 50 49  2  0  0  0  0
 51 49  1  0  0  0  0
M  END
>  <MODEL>
3

>  <REMARK>
 VINA RESULT:      -9.4      2.756      6.911
  Name = 
  9 active torsions:
  status: ('A' for Active; 'I' for Inactive)
    1  A    between atoms: N_3  and  C_19
    2  A    between atoms: C_13  and  C_29
    3  A    between atoms: C_14  and  N_16
    4  A    between atoms: C_14  and  CA_26
    5  A    between atoms: N_15  and  C_31
    6  A    between atoms: C_24  and  C_41
    7  A    between atoms: C_28  and  C_41
    8  A    between atoms: C_33  and  C_49
    9  A    between atoms: N_37  and  N_39
                            x       y       z     vdW  Elec       q    Type
                         _______ _______ _______ _____ _____    ______ ____

>  <TORSDO>
F 9

$$$$
=
 OpenBabel10222417123D

 51 58  0  0  1  0  0  0  0  0999 V2000
  193.8450  175.3350  136.8470 N   0  0  0  0  0  0  0  0  0  0  0  0
  189.4630  175.3120  134.6390 C   0  0  0  0  0  3  0  0  0  0  0  0
  190.7760  175.2600  134.7780 C   0  0  0  0  0  3  0  0  0  0  0  0
  188.6300  175.9340  136.9230 C   0  0  0  0  0  0  0  0  0  0  0  0
  187.2930  175.9940  137.6040 C   0  0  0  0  0  2  0  0  0  0  0  0
  188.4600  175.5240  135.6730 C   0  0  0  0  0  0  0  0  0  0  0  0
  186.2910  175.5810  136.5360 C   0  0  2  0  0  3  0  0  0  0  0  0
  189.8700  176.3670  137.6300 C   0  0  0  0  0  0  0  0  0  0  0  0
  192.8610  175.0770  135.8340 C   0  0  0  0  0  3  0  0  0  0  0  0
  187.0960  175.3030  135.3640 N   0  0  0  0  0  2  0  0  0  0  0  0
  192.2440  176.4950  138.1900 C   0  0  0  0  0  3  0  0  0  0  0  0
  193.5020  176.1170  137.9910 C   0  0  0  0  0  3  0  0  0  0  0  0
  191.5800  175.4330  135.9860 C   0  0  0  0  0  0  0  0  0  0  0  0
  191.1510  176.1120  137.2510 C   0  0  0  0  0  0  0  0  0  0  0  0
  189.6240  177.2170  141.3330 C   0  0  0  0  0  0  0  0  0  0  0  0
  188.2740  178.8070  140.1020 C   0  0  0  0  0  2  0  0  0  0  0  0
  190.2160  176.7430  142.5470 N   0  0  0  0  0  2  0  0  0  0  0  0
  189.9020  176.5050  140.0740 C   0  0  0  0  0  3  0  0  0  0  0  0
  188.9270  178.3170  141.3170 N   0  0  0  0  0  0  0  0  0  0  0  0
  189.6210  177.0870  138.9020 C   0  0  0  0  0  0  0  0  0  0  0  0
  189.1240  178.5060  138.8660 C   0  0  0  0  0  2  0  0  0  0  0  0
  187.5770  176.3920  143.7240 N   0  0  0  0  0  2  0  0  0  0  0  0
  188.4570  177.1450  144.2960 C   0  0  0  0  0  0  0  0  0  0  0  0
  189.8150  177.1500  143.8330 N   0  0  0  0  0  2  0  0  0  0  0  0
  189.0550  177.3240  146.6930 C   0  0  0  0  0  1  0  0  0  0  0  0
  186.6800  177.4910  145.9800 C   0  0  0  0  0  1  0  0  0  0  0  0
  188.1160  177.7930  145.5960 C   0  0  0  0  0  3  0  0  0  0  0  0
  197.9880  175.3640  137.1340 O   0  0  0  0  0  0  0  0  0  0  0  0
  197.3570  174.3480  137.8750 C   0  0  0  0  0  2  0  0  0  0  0  0
  195.2090  174.8390  136.7180 C   0  0  0  0  0  3  0  0  0  0  0  0
  196.0290  175.7400  135.7930 C   0  0  0  0  0  2  0  0  0  0  0  0
  195.8820  174.6910  138.0860 C   0  0  0  0  0  2  0  0  0  0  0  0
  197.4860  175.2810  135.8220 C   0  0  0  0  0  2  0  0  0  0  0  0
  185.3480  176.7420  136.2610 C   0  0  0  0  0  2  0  0  0  0  0  0
  181.0790  177.0520  137.3980 C   0  0  0  0  0  2  0  0  0  0  0  0
  184.0040  176.5440  136.9430 C   0  0  2  0  0  3  0  0  0  0  0  0
  181.4860  175.6560  136.9520 C   0  0  0  0  0  2  0  0  0  0  0  0
  182.1880  177.6780  138.2360 C   0  0  1  0  0  3  0  0  0  0  0  0
  182.8600  175.7550  135.7600 S   0  0  0  0  0  0  0  0  0  0  0  0
  183.4420  177.8860  137.3980 C   0  0  0  0  0  2  0  0  0  0  0  0
  181.0440  179.8070  139.8230 C   0  0  0  0  0  0  0  0  0  0  0  0
  181.7370  178.9530  138.7590 N   0  0  0  0  0  0  0  0  0  0  0  0
  180.4430  179.9250  140.9210 O   0  0  0  0  0  0  0  0  0  0  0  0
  181.5490  180.3290  138.6410 C   0  0  1  0  0  3  0  0  0  0  0  0
  180.4120  180.6060  137.6740 C   0  0  0  0  0  2  0  0  0  0  0  0
  180.2970  181.9920  135.5870 C   0  0  0  0  0  2  0  0  0  0  0  0
  180.6160  181.8850  137.0140 N   0  0  0  0  0  0  0  0  0  0  0  0
  180.8880  183.0490  137.8050 C   0  0  0  0  0  3  0  0  0  0  0  0
  181.1550  184.3160  135.7490 C   0  0  0  0  0  3  0  0  0  0  0  0
  180.7960  183.2810  134.9880 C   0  0  0  0  0  3  0  0  0  0  0  0
  181.1420  184.2160  137.2170 C   0  0  0  0  0  3  0  0  0  0  0  0
  1 12  1  0  0  0  0
  2  3  2  0  0  0  0
  2  6  1  0  0  0  0
  3 13  1  0  0  0  0
  4  5  1  0  0  0  0
  4  8  1  0  0  0  0
  6  4  2  0  0  0  0
  7 34  1  6  0  0  0
  7  5  1  0  0  0  0
  8 20  1  0  0  0  0
  9 13  2  0  0  0  0
  9  1  1  0  0  0  0
 10  6  1  0  0  0  0
 10  7  1  0  0  0  0
 12 11  2  0  0  0  0
 13 14  1  0  0  0  0
 14  8  2  0  0  0  0
 14 11  1  0  0  0  0
 15 17  1  0  0  0  0
 16 19  1  0  0  0  0
 17 24  1  0  0  0  0
 18 15  1  0  0  0  0
 19 15  2  0  0  0  0
 20 18  2  0  0  0  0
 21 20  1  0  0  0  0
 21 16  1  0  0  0  0
 22 23  2  0  0  0  0
 23 27  1  0  0  0  0
 24 23  1  0  0  0  0
 27 26  1  0  0  0  0
 27 25  1  0  0  0  0
 28 29  1  0  0  0  0
 29 32  1  0  0  0  0
 30  1  1  0  0  0  0
 30 32  1  0  0  0  0
 31 33  1  0  0  0  0
 31 30  1  0  0  0  0
 33 28  1  0  0  0  0
 35 38  1  0  0  0  0
 36 34  1  6  0  0  0
 36 40  1  0  0  0  0
 37 35  1  0  0  0  0
 38 40  1  6  0  0  0
 38 42  1  0  0  0  0
 39 36  1  0  0  0  0
 39 37  1  0  0  0  0
 41 43  2  0  0  0  0
 42 41  1  0  0  0  0
 44 45  1  6  0  0  0
 44 42  1  0  0  0  0
 44 41  1  0  0  0  0
 46 47  1  0  0  0  0
 47 45  1  0  0  0  0
 47 48  1  0  0  0  0
 49 51  1  0  0  0  0
 50 46  1  0  0  0  0
 50 49  2  0  0  0  0
 51 48  2  0  0  0  0
M  END
>  <MODEL>
4

>  <REMARK>
 VINA RESULT:      -8.4      2.179      3.598
  Name = 
  9 active torsions:
  status: ('A' for Active; 'I' for Inactive)
    1  A    between atoms: N_3  and  C_19
    2  A    between atoms: C_13  and  C_29
    3  A    between atoms: C_14  and  N_16
    4  A    between atoms: C_14  and  CA_26
    5  A    between atoms: N_15  and  C_31
    6  A    between atoms: C_24  and  C_41
    7  A    between atoms: C_28  and  C_41
    8  A    between atoms: C_33  and  C_49
    9  A    between atoms: N_37  and  N_39
                            x       y       z     vdW  Elec       q    Type
                         _______ _______ _______ _____ _____    ______ ____

>  <TORSDO>
F 9

$$$$
=
 OpenBabel10222417123D

 51 58  0  0  1  0  0  0  0  0999 V2000
  190.2340  177.4050  143.6650 N   0  0  0  0  0  0  0  0  0  0  0  0
  187.0880  178.2570  139.9980 C   0  0  0  0  0  3  0  0  0  0  0  0
  187.5240  178.0540  141.2290 C   0  0  0  0  0  3  0  0  0  0  0  0
  189.0970  177.8280  138.5580 C   0  0  0  0  0  0  0  0  0  0  0  0
  189.4530  178.0340  137.1130 C   0  0  0  0  0  2  0  0  0  0  0  0
  187.8570  178.2530  138.7620 C   0  0  0  0  0  0  0  0  0  0  0  0
  188.2000  178.6240  136.4820 C   0  0  2  0  0  3  0  0  0  0  0  0
  190.0520  177.1690  139.4950 C   0  0  0  0  0  0  0  0  0  0  0  0
  189.0340  177.8400  143.0100 C   0  0  0  0  0  3  0  0  0  0  0  0
  187.2540  178.7310  137.5740 N   0  0  0  0  0  2  0  0  0  0  0  0
  191.1330  176.5880  141.6060 C   0  0  0  0  0  3  0  0  0  0  0  0
  191.2410  176.7140  142.9250 C   0  0  0  0  0  3  0  0  0  0  0  0
  188.8760  177.7400  141.6840 C   0  0  0  0  0  0  0  0  0  0  0  0
  189.9850  177.1670  140.8540 C   0  0  0  0  0  0  0  0  0  0  0  0
  192.1950  174.7550  137.4750 C   0  0  0  0  0  0  0  0  0  0  0  0
  193.6660  176.1160  138.8350 C   0  0  0  0  0  2  0  0  0  0  0  0
  191.9720  173.7730  136.4590 N   0  0  0  0  0  2  0  0  0  0  0  0
  191.0360  175.4060  138.1100 C   0  0  0  0  0  3  0  0  0  0  0  0
  193.4020  175.1440  137.7730 N   0  0  0  0  0  0  0  0  0  0  0  0
  191.2070  176.5220  138.8270 C   0  0  0  0  0  0  0  0  0  0  0  0
  192.5620  177.1730  138.8960 C   0  0  0  0  0  2  0  0  0  0  0  0
  191.5170  171.3400  134.9270 N   0  0  0  0  0  2  0  0  0  0  0  0
  192.6850  171.6020  135.4150 C   0  0  0  0  0  0  0  0  0  0  0  0
  192.9590  172.8900  135.9830 N   0  0  0  0  0  2  0  0  0  0  0  0
  193.9510  169.6470  136.2570 C   0  0  0  0  0  1  0  0  0  0  0  0
  195.1090  171.4220  134.9590 C   0  0  0  0  0  1  0  0  0  0  0  0
  193.8090  170.6610  135.1370 C   0  0  0  0  0  3  0  0  0  0  0  0
  190.1240  176.5850  147.7350 O   0  0  0  0  0  0  0  0  0  0  0  0
  191.4170  176.7540  147.2070 C   0  0  0  0  0  2  0  0  0  0  0  0
  190.4380  177.6250  145.0910 C   0  0  0  0  0  3  0  0  0  0  0  0
  189.1010  177.6430  145.8340 C   0  0  0  0  0  2  0  0  0  0  0  0
  191.3900  176.5840  145.6880 C   0  0  0  0  0  2  0  0  0  0  0  0
  189.3730  177.7070  147.3360 C   0  0  0  0  0  2  0  0  0  0  0  0
  187.6750  177.6660  135.4250 C   0  0  0  0  0  2  0  0  0  0  0  0
  187.0160  173.3080  135.8630 C   0  0  0  0  0  2  0  0  0  0  0  0
  187.7410  176.2220  135.8980 C   0  0  2  0  0  3  0  0  0  0  0  0
  188.4600  173.6730  135.5600 C   0  0  0  0  0  2  0  0  0  0  0  0
  186.4120  174.3190  136.8300 C   0  0  1  0  0  3  0  0  0  0  0  0
  188.5260  175.2160  134.5940 S   0  0  0  0  0  0  0  0  0  0  0  0
  186.3390  175.6990  136.1890 C   0  0  0  0  0  2  0  0  0  0  0  0
  183.9630  172.8450  137.2640 C   0  0  0  0  0  0  0  0  0  0  0  0
  185.0790  173.8900  137.2080 N   0  0  0  0  0  0  0  0  0  0  0  0
  183.5160  171.6940  137.0220 O   0  0  0  0  0  0  0  0  0  0  0  0
  183.8170  174.1390  137.7430 C   0  0  1  0  0  3  0  0  0  0  0  0
  183.0020  174.9620  136.7610 C   0  0  0  0  0  2  0  0  0  0  0  0
  181.4200  176.8770  137.1040 C   0  0  0  0  0  2  0  0  0  0  0  0
  182.7440  176.2840  137.3090 N   0  0  0  0  0  0  0  0  0  0  0  0
  183.6860  176.8630  138.2220 C   0  0  0  0  0  3  0  0  0  0  0  0
  182.3320  178.8800  138.2510 C   0  0  0  0  0  3  0  0  0  0  0  0
  181.3810  178.3320  137.4940 C   0  0  0  0  0  3  0  0  0  0  0  0
  183.5000  178.0980  138.6840 C   0  0  0  0  0  3  0  0  0  0  0  0
  1 30  1  0  0  0  0
  2  3  2  0  0  0  0
  3 13  1  0  0  0  0
  4  6  2  0  0  0  0
  4  8  1  0  0  0  0
  5  4  1  0  0  0  0
  6  2  1  0  0  0  0
  7 34  1  6  0  0  0
  7  5  1  0  0  0  0
  7 10  1  0  0  0  0
  8 14  2  0  0  0  0
  9  1  1  0  0  0  0
 10  6  1  0  0  0  0
 11 12  2  0  0  0  0
 12  1  1  0  0  0  0
 13  9  2  0  0  0  0
 14 11  1  0  0  0  0
 14 13  1  0  0  0  0
 15 19  2  0  0  0  0
 15 18  1  0  0  0  0
 16 21  1  0  0  0  0
 17 15  1  0  0  0  0
 18 20  2  0  0  0  0
 19 16  1  0  0  0  0
 20 21  1  0  0  0  0
 20  8  1  0  0  0  0
 22 23  2  0  0  0  0
 23 24  1  0  0  0  0
 24 17  1  0  0  0  0
 26 27  1  0  0  0  0
 27 23  1  0  0  0  0
 27 25  1  0  0  0  0
 29 28  1  0  0  0  0
 30 32  1  0  0  0  0
 30 31  1  0  0  0  0
 31 33  1  0  0  0  0
 32 29  1  0  0  0  0
 33 28  1  0  0  0  0
 36 34  1  6  0  0  0
 36 40  1  0  0  0  0
 37 35  1  0  0  0  0
 38 35  1  6  0  0  0
 38 42  1  0  0  0  0
 39 37  1  0  0  0  0
 39 36  1  0  0  0  0
 40 38  1  0  0  0  0
 41 44  1  0  0  0  0
 42 41  1  0  0  0  0
 42 44  1  0  0  0  0
 43 41  2  0  0  0  0
 44 45  1  6  0  0  0
 45 47  1  0  0  0  0
 46 47  1  0  0  0  0
 46 50  1  0  0  0  0
 47 48  1  0  0  0  0
 48 51  2  0  0  0  0
 49 51  1  0  0  0  0
 50 49  2  0  0  0  0
M  END
>  <MODEL>
5

>  <REMARK>
 VINA RESULT:      -8.4      3.437      7.768
  Name = 
  9 active torsions:
  status: ('A' for Active; 'I' for Inactive)
    1  A    between atoms: N_3  and  C_19
    2  A    between atoms: C_13  and  C_29
    3  A    between atoms: C_14  and  N_16
    4  A    between atoms: C_14  and  CA_26
    5  A    between atoms: N_15  and  C_31
    6  A    between atoms: C_24  and  C_41
    7  A    between atoms: C_28  and  C_41
    8  A    between atoms: C_33  and  C_49
    9  A    between atoms: N_37  and  N_39
                            x       y       z     vdW  Elec       q    Type
                         _______ _______ _______ _____ _____    ______ ____

>  <TORSDO>
F 9

$$$$
=
 OpenBabel10222417123D

 51 58  0  0  1  0  0  0  0  0999 V2000
  189.6700  177.2270  145.6980 N   0  0  0  0  0  0  0  0  0  0  0  0
  184.9180  178.0490  146.6000 C   0  0  0  0  0  3  0  0  0  0  0  0
  186.1620  177.6500  146.8000 C   0  0  0  0  0  3  0  0  0  0  0  0
  184.8710  178.7220  144.1830 C   0  0  0  0  0  0  0  0  0  0  0  0
  183.9090  179.4390  143.2810 C   0  0  0  0  0  2  0  0  0  0  0  0
  184.3510  178.6490  145.4010 C   0  0  0  0  0  0  0  0  0  0  0  0
  182.7080  179.7530  144.1620 C   0  0  2  0  0  3  0  0  0  0  0  0
  186.1470  178.1620  143.6510 C   0  0  0  0  0  0  0  0  0  0  0  0
  188.4710  177.4250  146.4610 C   0  0  0  0  0  3  0  0  0  0  0  0
  183.0620  179.2310  145.4670 N   0  0  0  0  0  2  0  0  0  0  0  0
  188.4590  177.3730  143.6430 C   0  0  0  0  0  3  0  0  0  0  0  0
  189.6050  177.1400  144.2740 C   0  0  0  0  0  3  0  0  0  0  0  0
  187.2920  177.6670  145.8740 C   0  0  0  0  0  0  0  0  0  0  0  0
  187.2180  177.7460  144.3790 C   0  0  0  0  0  0  0  0  0  0  0  0
  187.4780  178.2570  140.0850 C   0  0  0  0  0  0  0  0  0  0  0  0
  185.0860  178.6230  140.0080 C   0  0  0  0  0  2  0  0  0  0  0  0
  188.7390  178.0420  139.4430 N   0  0  0  0  0  2  0  0  0  0  0  0
  187.4120  178.2480  141.5560 C   0  0  0  0  0  3  0  0  0  0  0  0
  186.3850  178.3620  139.3860 N   0  0  0  0  0  0  0  0  0  0  0  0
  186.2280  178.1410  142.1700 C   0  0  0  0  0  0  0  0  0  0  0  0
  184.9780  177.9210  141.3630 C   0  0  0  0  0  2  0  0  0  0  0  0
  188.2250  176.2340  137.2200 N   0  0  0  0  0  2  0  0  0  0  0  0
  188.9150  177.3130  137.0450 C   0  0  0  0  0  0  0  0  0  0  0  0
  188.9880  178.3010  138.0820 N   0  0  0  0  0  2  0  0  0  0  0  0
  188.2470  177.6820  134.6890 C   0  0  0  0  0  1  0  0  0  0  0  0
  190.4350  176.6300  135.2180 C   0  0  0  0  0  1  0  0  0  0  0  0
  189.4010  177.6420  135.6740 C   0  0  0  0  0  3  0  0  0  0  0  0
  192.4890  175.7060  148.3420 O   0  0  0  0  0  0  0  0  0  0  0  0
  192.8050  175.5270  146.9830 C   0  0  0  0  0  2  0  0  0  0  0  0
  190.9640  177.0790  146.3520 C   0  0  0  0  0  3  0  0  0  0  0  0
  190.8600  177.4010  147.8430 C   0  0  0  0  0  2  0  0  0  0  0  0
  191.5480  175.6800  146.1260 C   0  0  0  0  0  2  0  0  0  0  0  0
  192.1920  177.0700  148.5130 C   0  0  0  0  0  2  0  0  0  0  0  0
  181.4880  179.0250  143.6200 C   0  0  0  0  0  2  0  0  0  0  0  0
  179.8740  179.0890  139.4960 C   0  0  0  0  0  2  0  0  0  0  0  0
  181.2710  179.3210  142.1440 C   0  0  2  0  0  3  0  0  0  0  0  0
  179.9000  180.4580  140.1560 C   0  0  0  0  0  2  0  0  0  0  0  0
  181.1290  178.3080  139.8620 C   0  0  1  0  0  3  0  0  0  0  0  0
  179.7330  180.2870  141.9620 S   0  0  0  0  0  0  0  0  0  0  0  0
  181.1670  178.0190  141.3570 C   0  0  0  0  0  2  0  0  0  0  0  0
  180.6360  175.6440  138.8510 C   0  0  0  0  0  0  0  0  0  0  0  0
  181.1520  177.0580  139.1270 N   0  0  0  0  0  0  0  0  0  0  0  0
  179.8520  174.6900  139.0930 O   0  0  0  0  0  0  0  0  0  0  0  0
  181.7070  176.2070  138.1730 C   0  0  1  0  0  3  0  0  0  0  0  0
  183.0100  175.6320  138.7010 C   0  0  0  0  0  2  0  0  0  0  0  0
  184.3360  176.4680  136.7440 C   0  0  0  0  0  2  0  0  0  0  0  0
  183.9180  175.3550  137.6000 N   0  0  0  0  0  0  0  0  0  0  0  0
  184.5590  174.0750  137.5240 C   0  0  0  0  0  3  0  0  0  0  0  0
  185.5480  174.7590  135.4120 C   0  0  0  0  0  3  0  0  0  0  0  0
  185.0580  175.9960  135.5090 C   0  0  0  0  0  3  0  0  0  0  0  0
  185.3440  173.7780  136.4890 C   0  0  0  0  0  3  0  0  0  0  0  0
  1 30  1  0  0  0  0
  1  9  1  0  0  0  0
  2  3  2  0  0  0  0
  4  6  2  0  0  0  0
  5  7  1  0  0  0  0
  5  4  1  0  0  0  0
  6 10  1  0  0  0  0
  6  2  1  0  0  0  0
  7 34  1  6  0  0  0
  7 10  1  0  0  0  0
  8  4  1  0  0  0  0
  8 14  2  0  0  0  0
 11 12  2  0  0  0  0
 11 14  1  0  0  0  0
 12  1  1  0  0  0  0
 13  9  2  0  0  0  0
 13  3  1  0  0  0  0
 14 13  1  0  0  0  0
 15 18  1  0  0  0  0
 16 21  1  0  0  0  0
 17 15  1  0  0  0  0
 18 20  2  0  0  0  0
 19 16  1  0  0  0  0
 19 15  2  0  0  0  0
 20  8  1  0  0  0  0
 21 20  1  0  0  0  0
 23 22  2  0  0  0  0
 23 24  1  0  0  0  0
 24 17  1  0  0  0  0
 25 27  1  0  0  0  0
 26 27  1  0  0  0  0
 27 23  1  0  0  0  0
 28 33  1  0  0  0  0
 29 28  1  0  0  0  0
 30 31  1  0  0  0  0
 31 33  1  0  0  0  0
 32 30  1  0  0  0  0
 32 29  1  0  0  0  0
 35 38  1  0  0  0  0
 35 37  1  0  0  0  0
 36 34  1  1  0  0  0
 37 39  1  0  0  0  0
 38 42  1  6  0  0  0
 38 40  1  0  0  0  0
 39 36  1  0  0  0  0
 40 36  1  0  0  0  0
 41 43  2  0  0  0  0
 41 42  1  0  0  0  0
 44 45  1  1  0  0  0
 44 41  1  0  0  0  0
 44 42  1  0  0  0  0
 46 47  1  0  0  0  0
 47 45  1  0  0  0  0
 48 47  1  0  0  0  0
 49 50  2  0  0  0  0
 49 51  1  0  0  0  0
 50 46  1  0  0  0  0
 51 48  2  0  0  0  0
M  END
>  <MODEL>
6

>  <REMARK>
 VINA RESULT:      -8.2      3.595      8.468
  Name = 
  9 active torsions:
  status: ('A' for Active; 'I' for Inactive)
    1  A    between atoms: N_3  and  C_19
    2  A    between atoms: C_13  and  C_29
    3  A    between atoms: C_14  and  N_16
    4  A    between atoms: C_14  and  CA_26
    5  A    between atoms: N_15  and  C_31
    6  A    between atoms: C_24  and  C_41
    7  A    between atoms: C_28  and  C_41
    8  A    between atoms: C_33  and  C_49
    9  A    between atoms: N_37  and  N_39
                            x       y       z     vdW  Elec       q    Type
                         _______ _______ _______ _____ _____    ______ ____

>  <TORSDO>
F 9

$$$$
=
 OpenBabel10222417123D

 51 58  0  0  1  0  0  0  0  0999 V2000
  189.9900  177.3440  143.5580 N   0  0  0  0  0  0  0  0  0  0  0  0
  186.6960  178.5920  140.1430 C   0  0  0  0  0  3  0  0  0  0  0  0
  187.2020  178.3450  141.3380 C   0  0  0  0  0  3  0  0  0  0  0  0
  188.4950  177.8620  138.5530 C   0  0  0  0  0  0  0  0  0  0  0  0
  188.7530  177.9970  137.0790 C   0  0  0  0  0  2  0  0  0  0  0  0
  187.3500  178.4620  138.8480 C   0  0  0  0  0  0  0  0  0  0  0  0
  187.5470  178.7520  136.5390 C   0  0  2  0  0  3  0  0  0  0  0  0
  189.4230  177.0850  139.4240 C   0  0  0  0  0  0  0  0  0  0  0  0
  188.8120  177.9380  142.9930 C   0  0  0  0  0  3  0  0  0  0  0  0
  186.7210  179.0070  137.7020 N   0  0  0  0  0  2  0  0  0  0  0  0
  190.5860  176.3810  141.4530 C   0  0  0  0  0  3  0  0  0  0  0  0
  190.8220  176.5070  142.7550 C   0  0  0  0  0  3  0  0  0  0  0  0
  188.5300  177.8450  141.6880 C   0  0  0  0  0  0  0  0  0  0  0  0
  189.4720  177.1100  140.7840 C   0  0  0  0  0  0  0  0  0  0  0  0
  192.6890  175.7760  137.9690 C   0  0  0  0  0  0  0  0  0  0  0  0
  190.8600  174.8040  136.7150 C   0  0  0  0  0  2  0  0  0  0  0  0
  194.0810  175.8880  138.2810 N   0  0  0  0  0  2  0  0  0  0  0  0
  191.7160  176.5730  138.7360 C   0  0  0  0  0  3  0  0  0  0  0  0
  192.2710  174.9140  137.0880 N   0  0  0  0  0  0  0  0  0  0  0  0
  190.4140  176.2710  138.6800 C   0  0  0  0  0  0  0  0  0  0  0  0
  189.9550  175.0550  137.9220 C   0  0  0  0  0  2  0  0  0  0  0  0
  195.5300  173.3840  138.6090 N   0  0  0  0  0  2  0  0  0  0  0  0
  195.9400  174.2770  137.7710 C   0  0  0  0  0  0  0  0  0  0  0  0
  195.1170  175.4100  137.4580 N   0  0  0  0  0  2  0  0  0  0  0  0
  196.7880  173.9940  135.4600 C   0  0  0  0  0  1  0  0  0  0  0  0
  197.7380  172.6410  137.3160 C   0  0  0  0  0  1  0  0  0  0  0  0
  197.1420  173.9830  136.9360 C   0  0  0  0  0  3  0  0  0  0  0  0
  190.4140  176.4400  147.5900 O   0  0  0  0  0  0  0  0  0  0  0  0
  191.6210  176.7120  146.9210 C   0  0  0  0  0  2  0  0  0  0  0  0
  190.3430  177.5510  144.9570 C   0  0  0  0  0  3  0  0  0  0  0  0
  189.1050  177.4570  145.8490 C   0  0  0  0  0  2  0  0  0  0  0  0
  191.4290  176.5700  145.4110 C   0  0  0  0  0  2  0  0  0  0  0  0
  189.5450  177.5110  147.3110 C   0  0  0  0  0  2  0  0  0  0  0  0
  186.8030  177.8660  135.5530 C   0  0  0  0  0  2  0  0  0  0  0  0
  184.4740  174.2000  136.4240 C   0  0  0  0  0  2  0  0  0  0  0  0
  186.2100  176.6440  136.2380 C   0  0  2  0  0  3  0  0  0  0  0  0
  185.9780  174.0010  136.5310 C   0  0  0  0  0  2  0  0  0  0  0  0
  184.0850  175.5600  136.9900 C   0  0  1  0  0  3  0  0  0  0  0  0
  186.8430  175.1460  135.4090 S   0  0  0  0  0  0  0  0  0  0  0  0
  184.6880  176.6830  136.1560 C   0  0  0  0  0  2  0  0  0  0  0  0
  181.3470  176.3670  137.4500 C   0  0  0  0  0  0  0  0  0  0  0  0
  182.6400  175.6850  136.9990 N   0  0  0  0  0  0  0  0  0  0  0  0
  180.7380  177.2610  138.0920 O   0  0  0  0  0  0  0  0  0  0  0  0
  181.3690  175.2330  136.6510 C   0  0  1  0  0  3  0  0  0  0  0  0
  181.0190  174.0120  137.4820 C   0  0  0  0  0  2  0  0  0  0  0  0
  181.7700  171.7150  136.8110 C   0  0  0  0  0  2  0  0  0  0  0  0
  180.8620  172.8490  136.6230 N   0  0  0  0  0  0  0  0  0  0  0  0
  179.6980  172.7410  135.7930 C   0  0  0  0  0  3  0  0  0  0  0  0
  180.6210  170.6960  134.8610 C   0  0  0  0  0  3  0  0  0  0  0  0
  181.6600  170.7070  135.6970 C   0  0  0  0  0  3  0  0  0  0  0  0
  179.5660  171.7170  134.9520 C   0  0  0  0  0  3  0  0  0  0  0  0
  1 30  1  0  0  0  0
  2  3  2  0  0  0  0
  3 13  1  0  0  0  0
  4  6  2  0  0  0  0
  4  8  1  0  0  0  0
  5  4  1  0  0  0  0
  6  2  1  0  0  0  0
  7 34  1  6  0  0  0
  7  5  1  0  0  0  0
  7 10  1  0  0  0  0
  8 14  2  0  0  0  0
  9  1  1  0  0  0  0
 10  6  1  0  0  0  0
 11 12  2  0  0  0  0
 12  1  1  0  0  0  0
 13  9  2  0  0  0  0
 14 11  1  0  0  0  0
 14 13  1  0  0  0  0
 15 17  1  0  0  0  0
 15 18  1  0  0  0  0
 16 19  1  0  0  0  0
 16 21  1  0  0  0  0
 19 15  2  0  0  0  0
 20 18  2  0  0  0  0
 20  8  1  0  0  0  0
 21 20  1  0  0  0  0
 23 22  2  0  0  0  0
 24 23  1  0  0  0  0
 24 17  1  0  0  0  0
 25 27  1  0  0  0  0
 27 26  1  0  0  0  0
 27 23  1  0  0  0  0
 29 28  1  0  0  0  0
 30 32  1  0  0  0  0
 30 31  1  0  0  0  0
 31 33  1  0  0  0  0
 32 29  1  0  0  0  0
 33 28  1  0  0  0  0
 35 37  1  0  0  0  0
 35 38  1  0  0  0  0
 36 34  1  6  0  0  0
 38 40  1  6  0  0  0
 38 42  1  0  0  0  0
 39 36  1  0  0  0  0
 39 37  1  0  0  0  0
 40 36  1  0  0  0  0
 41 43  2  0  0  0  0
 42 41  1  0  0  0  0
 44 42  1  0  0  0  0
 44 41  1  0  0  0  0
 44 45  1  1  0  0  0
 47 46  1  0  0  0  0
 47 45  1  0  0  0  0
 48 47  1  0  0  0  0
 49 51  1  0  0  0  0
 49 50  2  0  0  0  0
 50 46  1  0  0  0  0
 51 48  2  0  0  0  0
M  END
>  <MODEL>
7

>  <REMARK>
 VINA RESULT:      -8.2      3.149      7.845
  Name = 
  9 active torsions:
  status: ('A' for Active; 'I' for Inactive)
    1  A    between atoms: N_3  and  C_19
    2  A    between atoms: C_13  and  C_29
    3  A    between atoms: C_14  and  N_16
    4  A    between atoms: C_14  and  CA_26
    5  A    between atoms: N_15  and  C_31
    6  A    between atoms: C_24  and  C_41
    7  A    between atoms: C_28  and  C_41
    8  A    between atoms: C_33  and  C_49
    9  A    between atoms: N_37  and  N_39
                            x       y       z     vdW  Elec       q    Type
                         _______ _______ _______ _____ _____    ______ ____

>  <TORSDO>
F 9

$$$$
=
 OpenBabel10222417123D

 51 58  0  0  1  0  0  0  0  0999 V2000
  190.1570  177.4270  143.6460 N   0  0  0  0  0  0  0  0  0  0  0  0
  186.9380  178.2610  140.0380 C   0  0  0  0  0  3  0  0  0  0  0  0
  187.3980  178.0590  141.2600 C   0  0  0  0  0  3  0  0  0  0  0  0
  188.9240  177.8510  138.5600 C   0  0  0  0  0  0  0  0  0  0  0  0
  189.2530  178.0630  137.1100 C   0  0  0  0  0  2  0  0  0  0  0  0
  187.6850  178.2650  138.7880 C   0  0  0  0  0  0  0  0  0  0  0  0
  187.9840  178.6440  136.5030 C   0  0  2  0  0  3  0  0  0  0  0  0
  189.9010  177.1980  139.4790 C   0  0  0  0  0  0  0  0  0  0  0  0
  188.9410  177.8540  143.0130 C   0  0  0  0  0  3  0  0  0  0  0  0
  187.0560  178.7410  137.6120 N   0  0  0  0  0  2  0  0  0  0  0  0
  191.0250  176.6220  141.5690 C   0  0  0  0  0  3  0  0  0  0  0  0
  191.1560  176.7470  142.8860 C   0  0  0  0  0  3  0  0  0  0  0  0
  188.7610  177.7550  141.6900 C   0  0  0  0  0  0  0  0  0  0  0  0
  189.8590  177.1940  140.8390 C   0  0  0  0  0  0  0  0  0  0  0  0
  192.0400  174.7780  137.4620 C   0  0  0  0  0  0  0  0  0  0  0  0
  193.5190  176.2290  138.7150 C   0  0  0  0  0  2  0  0  0  0  0  0
  191.8090  173.7530  136.4900 N   0  0  0  0  0  0  0  0  0  0  0  0
  190.8870  175.4170  138.1180 C   0  0  0  0  0  3  0  0  0  0  0  0
  193.2440  175.2130  137.6980 N   0  0  0  0  0  0  0  0  0  0  0  0
  191.0500  176.5630  138.7890 C   0  0  0  0  0  0  0  0  0  0  0  0
  192.3860  177.2550  138.7820 C   0  0  0  0  0  2  0  0  0  0  0  0
  191.3950  171.4530  134.7550 N   0  0  0  0  0  2  0  0  0  0  0  0
  192.5370  171.6490  135.3270 C   0  0  0  0  0  0  0  0  0  0  0  0
  192.8040  172.8840  136.0060 N   0  0  0  0  0  0  0  0  0  0  0  0
  193.7350  169.6280  136.1140 C   0  0  0  0  0  1  0  0  0  0  0  0
  194.9740  171.4480  134.9610 C   0  0  0  0  0  1  0  0  0  0  0  0
  193.6550  170.7030  135.0450 C   0  0  0  0  0  3  0  0  0  0  0  0
  190.0800  176.6220  147.7190 O   0  0  0  0  0  0  0  0  0  0  0  0
  191.3700  176.7580  147.1740 C   0  0  0  0  0  2  0  0  0  0  0  0
  190.3840  177.6470  145.0680 C   0  0  0  0  0  3  0  0  0  0  0  0
  189.0590  177.6990  145.8280 C   0  0  0  0  0  2  0  0  0  0  0  0
  191.3190  176.5850  145.6560 C   0  0  0  0  0  2  0  0  0  0  0  0
  189.3520  177.7600  147.3270 C   0  0  0  0  0  2  0  0  0  0  0  0
  187.4480  177.6830  135.4540 C   0  0  0  0  0  2  0  0  0  0  0  0
  184.7530  174.2200  136.0550 C   0  0  0  0  0  2  0  0  0  0  0  0
  186.6040  176.5840  136.0820 C   0  0  2  0  0  3  0  0  0  0  0  0
  186.1390  174.0180  136.6470 C   0  0  0  0  0  2  0  0  0  0  0  0
  184.2910  175.6540  136.2830 C   0  0  1  0  0  3  0  0  0  0  0  0
  187.3690  174.9720  135.7010 S   0  0  0  0  0  0  0  0  0  0  0  0
  185.1830  176.6320  135.5300 C   0  0  0  0  0  2  0  0  0  0  0  0
  181.7020  176.6500  135.4680 C   0  0  0  0  0  0  0  0  0  0  0  0
  182.9220  175.7990  135.8280 N   0  0  0  0  0  0  0  0  0  0  0  0
  181.1370  177.7660  135.3330 O   0  0  0  0  0  0  0  0  0  0  0  0
  181.6930  175.2620  135.4470 C   0  0  1  0  0  3  0  0  0  0  0  0
  180.9680  174.7340  136.6720 C   0  0  0  0  0  2  0  0  0  0  0  0
  179.1870  172.9840  136.9070 C   0  0  0  0  0  2  0  0  0  0  0  0
  180.5220  173.3700  136.4410 N   0  0  0  0  0  0  0  0  0  0  0  0
  181.2800  172.5210  135.5700 C   0  0  0  0  0  3  0  0  0  0  0  0
  179.7570  170.7050  136.1050 C   0  0  0  0  0  3  0  0  0  0  0  0
  178.9670  171.4960  136.8320 C   0  0  0  0  0  3  0  0  0  0  0  0
  180.9250  171.2490  135.3960 C   0  0  0  0  0  3  0  0  0  0  0  0
  1 30  1  0  0  0  0
  2  3  2  0  0  0  0
  3 13  1  0  0  0  0
  4  6  2  0  0  0  0
  4  8  1  0  0  0  0
  5  4  1  0  0  0  0
  6  2  1  0  0  0  0
  7 34  1  6  0  0  0
  7  5  1  0  0  0  0
  7 10  1  0  0  0  0
  8 14  2  0  0  0  0
  9  1  1  0  0  0  0
 10  6  1  0  0  0  0
 11 12  2  0  0  0  0
 12  1  1  0  0  0  0
 13  9  2  0  0  0  0
 14 11  1  0  0  0  0
 14 13  1  0  0  0  0
 15 19  2  0  0  0  0
 15 18  1  0  0  0  0
 16 21  1  0  0  0  0
 17 15  1  0  0  0  0
 18 20  2  0  0  0  0
 19 16  1  0  0  0  0
 20  8  1  0  0  0  0
 21 20  1  0  0  0  0
 22 23  2  0  0  0  0
 23 24  1  0  0  0  0
 24 17  2  0  0  0  0
 26 27  1  0  0  0  0
 27 23  1  0  0  0  0
 27 25  1  0  0  0  0
 29 28  1  0  0  0  0
 30 32  1  0  0  0  0
 30 31  1  0  0  0  0
 31 33  1  0  0  0  0
 32 29  1  0  0  0  0
 33 28  1  0  0  0  0
 35 38  1  0  0  0  0
 35 37  1  0  0  0  0
 36 34  1  6  0  0  0
 38 40  1  6  0  0  0
 39 36  1  0  0  0  0
 39 37  1  0  0  0  0
 40 36  1  0  0  0  0
 41 42  1  0  0  0  0
 42 38  1  0  0  0  0
 43 41  2  0  0  0  0
 44 41  1  0  0  0  0
 44 42  1  0  0  0  0
 44 45  1  1  0  0  0
 47 45  1  0  0  0  0
 47 46  1  0  0  0  0
 48 47  1  0  0  0  0
 49 50  2  0  0  0  0
 50 46  1  0  0  0  0
 51 48  2  0  0  0  0
 51 49  1  0  0  0  0
M  END
>  <MODEL>
8

>  <REMARK>
 VINA RESULT:      -7.6      3.483      8.166
  Name = 
  9 active torsions:
  status: ('A' for Active; 'I' for Inactive)
    1  A    between atoms: N_3  and  C_19
    2  A    between atoms: C_13  and  C_29
    3  A    between atoms: C_14  and  N_16
    4  A    between atoms: C_14  and  CA_26
    5  A    between atoms: N_15  and  C_31
    6  A    between atoms: C_24  and  C_41
    7  A    between atoms: C_28  and  C_41
    8  A    between atoms: C_33  and  C_49
    9  A    between atoms: N_37  and  N_39
                            x       y       z     vdW  Elec       q    Type
                         _______ _______ _______ _____ _____    ______ ____

>  <TORSDO>
F 9

$$$$
=
 OpenBabel10222417123D

 51 58  0  0  1  0  0  0  0  0999 V2000
  186.0270  178.3240  145.0960 N   0  0  0  0  0  0  0  0  0  0  0  0
  181.2280  178.9050  144.2570 C   0  0  0  0  0  3  0  0  0  0  0  0
  182.3440  178.6440  144.9150 C   0  0  0  0  0  3  0  0  0  0  0  0
  181.9690  179.1640  141.8740 C   0  0  0  0  0  0  0  0  0  0  0  0
  181.3430  179.6440  140.5950 C   0  0  0  0  0  2  0  0  0  0  0  0
  181.0760  179.2520  142.8510 C   0  0  0  0  0  0  0  0  0  0  0  0
  179.9130  180.0030  140.9710 C   0  0  2  0  0  3  0  0  0  0  0  0
  183.3600  178.6270  141.8910 C   0  0  0  0  0  0  0  0  0  0  0  0
  184.6390  178.5500  145.3830 C   0  0  0  0  0  3  0  0  0  0  0  0
  179.8270  179.7330  142.3920 N   0  0  0  0  0  2  0  0  0  0  0  0
  185.5600  178.0330  142.7700 C   0  0  0  0  0  3  0  0  0  0  0  0
  186.4370  177.9990  143.7680 C   0  0  0  0  0  3  0  0  0  0  0  0
  183.7160  178.5980  144.4150 C   0  0  0  0  0  0  0  0  0  0  0  0
  184.1380  178.4230  142.9880 C   0  0  0  0  0  0  0  0  0  0  0  0
  184.1520  177.0200  138.5310 C   0  0  0  0  0  0  0  0  0  0  0  0
  185.8490  178.6850  138.9910 C   0  0  0  0  0  2  0  0  0  0  0  0
  183.5320  176.0600  137.6690 N   0  0  0  0  0  2  0  0  0  0  0  0
  183.5610  177.2820  139.8540 C   0  0  0  0  0  3  0  0  0  0  0  0
  185.1660  177.7260  138.1210 N   0  0  0  0  0  0  0  0  0  0  0  0
  183.9260  178.3680  140.5450 C   0  0  0  0  0  0  0  0  0  0  0  0
  184.8560  179.3770  139.9260 C   0  0  0  0  0  2  0  0  0  0  0  0
  185.0880  173.6040  137.5350 N   0  0  0  0  0  2  0  0  0  0  0  0
  185.0660  174.4240  136.5380 C   0  0  0  0  0  0  0  0  0  0  0  0
  184.1400  175.5200  136.5210 N   0  0  0  0  0  2  0  0  0  0  0  0
  185.7620  172.5700  135.0500 C   0  0  0  0  0  1  0  0  0  0  0  0
  187.2540  174.5280  135.3890 C   0  0  0  0  0  1  0  0  0  0  0  0
  185.8120  174.0670  135.2950 C   0  0  0  0  0  3  0  0  0  0  0  0
  188.4990  176.9570  148.1400 O   0  0  0  0  0  0  0  0  0  0  0  0
  189.1790  177.4790  147.0250 C   0  0  0  0  0  2  0  0  0  0  0  0
  187.0350  178.3890  146.1460 C   0  0  0  0  0  3  0  0  0  0  0  0
  186.4350  178.0080  147.5000 C   0  0  0  0  0  2  0  0  0  0  0  0
  188.2480  177.5150  145.8120 C   0  0  0  0  0  2  0  0  0  0  0  0
  187.5580  177.9260  148.5320 C   0  0  0  0  0  2  0  0  0  0  0  0
  178.9560  179.1020  140.2070 C   0  0  0  0  0  2  0  0  0  0  0  0
  179.6130  177.1280  136.2970 C   0  0  0  0  0  2  0  0  0  0  0  0
  179.5930  178.5590  138.9370 C   0  0  2  0  0  3  0  0  0  0  0  0
  179.9660  178.6070  136.2950 C   0  0  0  0  0  2  0  0  0  0  0  0
  180.0480  176.4890  137.6100 C   0  0  1  0  0  3  0  0  0  0  0  0
  178.9440  179.4970  137.5130 S   0  0  0  0  0  0  0  0  0  0  0  0
  179.2690  177.0770  138.7790 C   0  0  0  0  0  2  0  0  0  0  0  0
  179.4000  173.7290  138.1810 C   0  0  0  0  0  0  0  0  0  0  0  0
  179.8220  175.0570  137.5490 N   0  0  0  0  0  0  0  0  0  0  0  0
  178.9710  173.0590  139.1550 O   0  0  0  0  0  0  0  0  0  0  0  0
  179.8850  173.8340  136.8850 C   0  0  1  0  0  3  0  0  0  0  0  0
  181.3260  173.3560  136.8350 C   0  0  0  0  0  2  0  0  0  0  0  0
  182.6500  171.2970  136.2930 C   0  0  0  0  0  2  0  0  0  0  0  0
  181.4010  172.0560  136.1900 N   0  0  0  0  0  0  0  0  0  0  0  0
  180.2030  171.4530  135.6840 C   0  0  0  0  0  3  0  0  0  0  0  0
  181.5550  169.6280  134.8180 C   0  0  0  0  0  3  0  0  0  0  0  0
  182.6700  170.1060  135.3720 C   0  0  0  0  0  3  0  0  0  0  0  0
  180.2600  170.2920  135.0320 C   0  0  0  0  0  3  0  0  0  0  0  0
  1  9  1  0  0  0  0
  1 30  1  0  0  0  0
  2  3  2  0  0  0  0
  4  8  1  0  0  0  0
  4  6  2  0  0  0  0
  5  7  1  0  0  0  0
  5  4  1  0  0  0  0
  6  2  1  0  0  0  0
  7 34  1  6  0  0  0
  7 10  1  0  0  0  0
  8 14  2  0  0  0  0
 10  6  1  0  0  0  0
 11 14  1  0  0  0  0
 11 12  2  0  0  0  0
 12  1  1  0  0  0  0
 13  3  1  0  0  0  0
 13  9  2  0  0  0  0
 14 13  1  0  0  0  0
 15 18  1  0  0  0  0
 16 21  1  0  0  0  0
 17 15  1  0  0  0  0
 18 20  2  0  0  0  0
 19 15  2  0  0  0  0
 19 16  1  0  0  0  0
 20  8  1  0  0  0  0
 21 20  1  0  0  0  0
 23 22  2  0  0  0  0
 24 23  1  0  0  0  0
 24 17  1  0  0  0  0
 25 27  1  0  0  0  0
 27 26  1  0  0  0  0
 27 23  1  0  0  0  0
 28 33  1  0  0  0  0
 29 28  1  0  0  0  0
 30 31  1  0  0  0  0
 31 33  1  0  0  0  0
 32 30  1  0  0  0  0
 32 29  1  0  0  0  0
 36 34  1  1  0  0  0
 37 35  1  0  0  0  0
 37 39  1  0  0  0  0
 38 35  1  6  0  0  0
 38 40  1  0  0  0  0
 39 36  1  0  0  0  0
 40 36  1  0  0  0  0
 41 43  2  0  0  0  0
 42 38  1  0  0  0  0
 42 41  1  0  0  0  0
 44 45  1  1  0  0  0
 44 42  1  0  0  0  0
 44 41  1  0  0  0  0
 47 46  1  0  0  0  0
 47 45  1  0  0  0  0
 48 47  1  0  0  0  0
 49 51  1  0  0  0  0
 49 50  2  0  0  0  0
 50 46  1  0  0  0  0
 51 48  2  0  0  0  0
M  END
>  <MODEL>
9

>  <REMARK>
 VINA RESULT:      -7.5      5.022      9.899
  Name = 
  9 active torsions:
  status: ('A' for Active; 'I' for Inactive)
    1  A    between atoms: N_3  and  C_19
    2  A    between atoms: C_13  and  C_29
    3  A    between atoms: C_14  and  N_16
    4  A    between atoms: C_14  and  CA_26
    5  A    between atoms: N_15  and  C_31
    6  A    between atoms: C_24  and  C_41
    7  A    between atoms: C_28  and  C_41
    8  A    between atoms: C_33  and  C_49
    9  A    between atoms: N_37  and  N_39
                            x       y       z     vdW  Elec       q    Type
                         _______ _______ _______ _____ _____    ______ ____

>  <TORSDO>
F 9

$$$$
