=
 OpenBabel10222415563D

 36 39  0  0  1  0  0  0  0  0999 V2000
  188.6600  176.7450  142.7970 N   0  0  2  0  0  0  0  0  0  0  0  0
  190.2100  177.5630  144.4020 N   0  0  0  0  0  0  0  0  0  0  0  0
  190.5520  177.9750  142.0350 C   0  0  0  0  0  2  0  0  0  0  0  0
  188.6180  176.7090  141.3390 C   0  0  0  0  0  2  0  0  0  0  0  0
  188.2300  176.9350  145.6640 N   0  0  0  0  0  0  0  0  0  0  0  0
  189.6410  177.2140  145.5200 C   0  0  0  0  0  0  0  0  0  0  0  0
  187.3250  177.0380  143.3210 C   0  0  1  0  0  3  0  0  0  0  0  0
  189.5420  177.8420  143.1470 C   0  0  1  0  0  3  0  0  0  0  0  0
  187.2520  176.8410  144.8060 C   0  0  0  0  0  3  0  0  0  0  0  0
  189.8470  177.4300  140.8140 C   0  0  2  0  0  3  0  0  0  0  0  0
  191.8420  177.1470  146.3440 F   0  0  0  0  0  0  0  0  0  0  0  0
  190.3350  175.7160  147.2150 F   0  0  0  0  0  0  0  0  0  0  0  0
  190.2160  177.9070  147.7060 F   0  0  0  0  0  0  0  0  0  0  0  0
  190.5190  176.9930  146.7140 C   0  0  0  0  0  0  0  0  0  0  0  0
  190.7060  176.4810  140.1240 N   0  0  0  0  0  2  0  0  0  0  0  0
  190.8930  176.4900  138.7050 C   0  0  0  0  0  0  0  0  0  0  0  0
  190.2780  177.3450  138.0080 O   0  0  0  0  0  0  0  0  0  0  0  0
  189.8980  174.0710  137.1020 C   0  0  0  0  0  1  0  0  0  0  0  0
  193.1820  175.7250  138.1500 C   0  0  0  0  0  3  0  0  0  0  0  0
  191.7960  175.5160  138.0370 C   0  0  0  0  0  0  0  0  0  0  0  0
  191.3420  174.3930  137.2950 C   0  0  0  0  0  0  0  0  0  0  0  0
  192.2680  173.5300  136.6990 C   0  0  0  0  0  3  0  0  0  0  0  0
  193.6380  173.7590  136.8260 C   0  0  0  0  0  3  0  0  0  0  0  0
  194.0950  174.8570  137.5520 C   0  0  0  0  0  0  0  0  0  0  0  0
  195.4260  175.0810  137.6770 F   0  0  0  0  0  0  0  0  0  0  0  0
  186.8620  178.3830  142.9700 N   0  0  0  0  0  2  0  0  0  0  0  0
  184.2180  178.8890  146.2530 N   0  0  0  0  0  1  0  0  0  0  0  0
  180.9310  179.0040  142.7590 C   0  0  0  0  0  1  0  0  0  0  0  0
  183.9730  179.0750  144.8630 C   0  0  0  0  0  0  0  0  0  0  0  0
  185.4850  178.7750  142.9750 C   0  0  0  0  0  0  0  0  0  0  0  0
  182.6650  178.6260  140.6940 F   0  0  0  0  0  0  0  0  0  0  0  0
  182.3930  178.8380  143.0000 C   0  0  0  0  0  0  0  0  0  0  0  0
  183.2070  178.6510  141.9400 C   0  0  0  0  0  0  0  0  0  0  0  0
  184.6500  178.3470  142.0230 C   0  0  0  0  0  3  0  0  0  0  0  0
  182.8180  178.7390  144.3720 N   0  0  0  0  0  0  0  0  0  0  0  0
  185.0230  179.7180  144.0280 C   0  0  0  0  0  2  0  0  0  0  0  0
  1  4  1  6  0  0  0
  1  8  1  0  0  0  0
  1  7  1  0  0  0  0
  2  6  2  0  0  0  0
  6  5  1  0  0  0  0
  6 14  1  0  0  0  0
  7 26  1  1  0  0  0
  7  9  1  0  0  0  0
  8  3  1  6  0  0  0
  8  2  1  0  0  0  0
  9  5  2  0  0  0  0
 10 15  1  1  0  0  0
 10  4  1  0  0  0  0
 10  3  1  0  0  0  0
 11 14  1  0  0  0  0
 14 12  1  0  0  0  0
 14 13  1  0  0  0  0
 16 15  1  0  0  0  0
 17 16  2  0  0  0  0
 18 21  1  0  0  0  0
 20 19  1  0  0  0  0
 20 16  1  0  0  0  0
 21 20  2  0  0  0  0
 22 23  2  0  0  0  0
 22 21  1  0  0  0  0
 23 24  1  0  0  0  0
 24 25  1  0  0  0  0
 24 19  2  0  0  0  0
 26 30  1  0  0  0  0
 28 32  1  0  0  0  0
 29 27  1  0  0  0  0
 30 36  1  0  0  0  0
 31 33  1  0  0  0  0
 32 35  1  0  0  0  0
 33 34  1  0  0  0  0
 33 32  2  0  0  0  0
 34 30  2  0  0  0  0
 35 29  2  0  0  0  0
 36 29  1  0  0  0  0
M  END
>  <MODEL>
1

>  <REMARK>
 VINA RESULT:      -8.9      0.000      0.000
  Name = 
  5 active torsions:
  status: ('A' for Active; 'I' for Inactive)
    1  A    between atoms: N_5  and  C_31
    2  A    between atoms: C_7  and  C_15
    3  A    between atoms: C_12  and  C_28
    4  A    between atoms: C_13  and  N_33
    5  A    between atoms: C_21  and  N_33
                            x       y       z     vdW  Elec       q    Type
                         _______ _______ _______ _____ _____    ______ ____

>  <TORSDO>
F 5

$$$$
=
 OpenBabel10222415563D

 36 39  0  0  1  0  0  0  0  0999 V2000
  187.9150  177.2980  141.7690 N   0  0  2  0  0  0  0  0  0  0  0  0
  188.3930  178.5220  139.7890 N   0  0  0  0  0  0  0  0  0  0  0  0
  186.8060  179.3760  141.4130 C   0  0  0  0  0  2  0  0  0  0  0  0
  186.9630  177.4520  142.8630 C   0  0  0  0  0  2  0  0  0  0  0  0
  190.1520  176.8540  139.9690 N   0  0  0  0  0  0  0  0  0  0  0  0
  189.3230  177.7900  139.2440 C   0  0  0  0  0  0  0  0  0  0  0  0
  189.2010  176.8400  142.2950 C   0  0  1  0  0  3  0  0  0  0  0  0
  188.0940  178.6220  141.2030 C   0  0  1  0  0  3  0  0  0  0  0  0
  190.1380  176.4260  141.2010 C   0  0  0  0  0  3  0  0  0  0  0  0
  186.1880  178.7370  142.6370 C   0  0  2  0  0  3  0  0  0  0  0  0
  190.7290  177.3690  137.4080 F   0  0  0  0  0  0  0  0  0  0  0  0
  189.3570  179.1550  137.3120 F   0  0  0  0  0  0  0  0  0  0  0  0
  188.5100  177.0790  137.1410 F   0  0  0  0  0  0  0  0  0  0  0  0
  189.4790  177.8500  137.7550 C   0  0  0  0  0  0  0  0  0  0  0  0
  184.7910  178.4230  142.3830 N   0  0  0  0  0  2  0  0  0  0  0  0
  183.7110  179.0820  143.0520 C   0  0  0  0  0  0  0  0  0  0  0  0
  183.9690  179.9680  143.9140 O   0  0  0  0  0  0  0  0  0  0  0  0
  182.6480  178.5860  140.2190 C   0  0  0  0  0  1  0  0  0  0  0  0
  181.4010  178.6520  143.8320 C   0  0  0  0  0  3  0  0  0  0  0  0
  182.2940  178.7470  142.7510 C   0  0  0  0  0  0  0  0  0  0  0  0
  181.7950  178.5180  141.4410 C   0  0  0  0  0  0  0  0  0  0  0  0
  180.4440  178.2050  141.2550 C   0  0  0  0  0  3  0  0  0  0  0  0
  179.5770  178.1170  142.3440 C   0  0  0  0  0  3  0  0  0  0  0  0
  180.0560  178.3400  143.6320 C   0  0  0  0  0  0  0  0  0  0  0  0
  179.2150  178.2560  144.6920 F   0  0  0  0  0  0  0  0  0  0  0  0
  189.8460  177.8350  143.1580 N   0  0  0  0  0  2  0  0  0  0  0  0
  192.0070  176.0100  146.3240 N   0  0  0  0  0  1  0  0  0  0  0  0
  188.2120  177.4480  148.8840 C   0  0  0  0  0  1  0  0  0  0  0  0
  190.8810  176.8780  146.3870 C   0  0  0  0  0  0  0  0  0  0  0  0
  189.6310  177.9190  144.5710 C   0  0  0  0  0  0  0  0  0  0  0  0
  186.8440  178.5580  146.8080 F   0  0  0  0  0  0  0  0  0  0  0  0
  188.7630  177.4300  147.4990 C   0  0  0  0  0  0  0  0  0  0  0  0
  188.0430  177.9930  146.5070 C   0  0  0  0  0  0  0  0  0  0  0  0
  188.3920  177.9430  145.0730 C   0  0  0  0  0  3  0  0  0  0  0  0
  189.9710  176.6730  147.2910 N   0  0  0  0  0  0  0  0  0  0  0  0
  190.8180  178.0410  145.4590 C   0  0  0  0  0  2  0  0  0  0  0  0
  1  7  1  0  0  0  0
  1  4  1  1  0  0  0
  2  8  1  0  0  0  0
  3 10  1  0  0  0  0
  5  9  2  0  0  0  0
  6  2  2  0  0  0  0
  6  5  1  0  0  0  0
  7 26  1  6  0  0  0
  8  3  1  6  0  0  0
  8  1  1  0  0  0  0
  9  7  1  0  0  0  0
 10 15  1  6  0  0  0
 10  4  1  0  0  0  0
 11 14  1  0  0  0  0
 12 14  1  0  0  0  0
 13 14  1  0  0  0  0
 14  6  1  0  0  0  0
 15 16  1  0  0  0  0
 16 17  2  0  0  0  0
 18 21  1  0  0  0  0
 20 16  1  0  0  0  0
 20 19  2  0  0  0  0
 21 20  1  0  0  0  0
 22 21  2  0  0  0  0
 22 23  1  0  0  0  0
 23 24  2  0  0  0  0
 24 19  1  0  0  0  0
 24 25  1  0  0  0  0
 26 30  1  0  0  0  0
 27 29  1  0  0  0  0
 29 35  2  0  0  0  0
 30 34  2  0  0  0  0
 30 36  1  0  0  0  0
 32 28  1  0  0  0  0
 33 31  1  0  0  0  0
 33 32  2  0  0  0  0
 34 33  1  0  0  0  0
 35 32  1  0  0  0  0
 36 29  1  0  0  0  0
M  END
>  <MODEL>
2

>  <REMARK>
 VINA RESULT:      -8.4      3.400      8.837
  Name = 
  5 active torsions:
  status: ('A' for Active; 'I' for Inactive)
    1  A    between atoms: N_5  and  C_31
    2  A    between atoms: C_7  and  C_15
    3  A    between atoms: C_12  and  C_28
    4  A    between atoms: C_13  and  N_33
    5  A    between atoms: C_21  and  N_33
                            x       y       z     vdW  Elec       q    Type
                         _______ _______ _______ _____ _____    ______ ____

>  <TORSDO>
F 5

$$$$
=
 OpenBabel10222415563D

 36 39  0  0  1  0  0  0  0  0999 V2000
  190.4470  177.5990  139.6280 N   0  0  2  0  0  0  0  0  0  0  0  0
  188.8020  177.0050  138.0200 N   0  0  0  0  0  0  0  0  0  0  0  0
  190.8490  175.7190  138.2230 C   0  0  0  0  0  2  0  0  0  0  0  0
  191.7960  177.1350  139.9330 C   0  0  0  0  0  2  0  0  0  0  0  0
  187.7000  178.5430  139.5460 N   0  0  0  0  0  0  0  0  0  0  0  0
  187.8550  177.8610  138.2810 C   0  0  0  0  0  0  0  0  0  0  0  0
  189.7300  177.8800  140.8720 C   0  0  1  0  0  3  0  0  0  0  0  0
  189.7860  176.4980  138.9540 C   0  0  1  0  0  3  0  0  0  0  0  0
  188.4340  178.5930  140.6230 C   0  0  0  0  0  3  0  0  0  0  0  0
  192.1150  175.9740  139.0090 C   0  0  2  0  0  3  0  0  0  0  0  0
  187.5830  179.0710  136.2840 F   0  0  0  0  0  0  0  0  0  0  0  0
  185.8170  178.8970  137.6730 F   0  0  0  0  0  0  0  0  0  0  0  0
  186.5000  177.1060  136.4960 F   0  0  0  0  0  0  0  0  0  0  0  0
  186.9240  178.2380  137.1690 C   0  0  0  0  0  0  0  0  0  0  0  0
  193.1920  176.3530  138.1090 N   0  0  0  0  0  2  0  0  0  0  0  0
  193.8740  175.4130  137.2720 C   0  0  0  0  0  0  0  0  0  0  0  0
  193.5440  174.1950  137.3180 O   0  0  0  0  0  0  0  0  0  0  0  0
  196.1300  173.5630  136.3230 C   0  0  0  0  0  1  0  0  0  0  0  0
  194.9380  177.1700  135.8890 C   0  0  0  0  0  3  0  0  0  0  0  0
  194.9580  175.8420  136.3490 C   0  0  0  0  0  0  0  0  0  0  0  0
  196.0070  174.9910  135.9070 C   0  0  0  0  0  0  0  0  0  0  0  0
  196.9830  175.4840  135.0350 C   0  0  0  0  0  3  0  0  0  0  0  0
  196.9420  176.8060  134.5940 C   0  0  0  0  0  3  0  0  0  0  0  0
  195.9190  177.6490  135.0210 C   0  0  0  0  0  0  0  0  0  0  0  0
  195.8770  178.9350  134.5940 F   0  0  0  0  0  0  0  0  0  0  0  0
  189.4930  176.6750  141.6730 N   0  0  0  0  0  2  0  0  0  0  0  0
  186.0720  177.9570  143.8350 N   0  0  0  0  0  1  0  0  0  0  0  0
  189.0980  177.6510  147.5470 C   0  0  0  0  0  1  0  0  0  0  0  0
  187.2950  177.4190  144.3240 C   0  0  0  0  0  0  0  0  0  0  0  0
  189.2660  176.6930  143.0860 C   0  0  0  0  0  0  0  0  0  0  0  0
  191.2750  176.8810  146.1050 F   0  0  0  0  0  0  0  0  0  0  0  0
  189.0230  177.4810  146.0670 C   0  0  0  0  0  0  0  0  0  0  0  0
  190.1330  177.1000  145.4020 C   0  0  0  0  0  0  0  0  0  0  0  0
  190.2510  177.0120  143.9320 C   0  0  0  0  0  3  0  0  0  0  0  0
  187.7970  177.8850  145.4290 N   0  0  0  0  0  0  0  0  0  0  0  0
  187.9270  176.2880  143.5920 C   0  0  0  0  0  2  0  0  0  0  0  0
  1  4  1  1  0  0  0
  1  7  1  0  0  0  0
  2  6  2  0  0  0  0
  2  8  1  0  0  0  0
  3 10  1  0  0  0  0
  5  9  2  0  0  0  0
  6  5  1  0  0  0  0
  7 26  1  6  0  0  0
  8  3  1  6  0  0  0
  8  1  1  0  0  0  0
  9  7  1  0  0  0  0
 10 15  1  6  0  0  0
 10  4  1  0  0  0  0
 11 14  1  0  0  0  0
 13 14  1  0  0  0  0
 14 12  1  0  0  0  0
 14  6  1  0  0  0  0
 16 17  2  0  0  0  0
 16 15  1  0  0  0  0
 19 20  1  0  0  0  0
 20 16  1  0  0  0  0
 21 18  1  0  0  0  0
 21 20  2  0  0  0  0
 22 21  1  0  0  0  0
 23 24  1  0  0  0  0
 23 22  2  0  0  0  0
 24 19  2  0  0  0  0
 25 24  1  0  0  0  0
 26 30  1  0  0  0  0
 27 29  1  0  0  0  0
 29 35  2  0  0  0  0
 30 36  1  0  0  0  0
 30 34  2  0  0  0  0
 32 28  1  0  0  0  0
 33 32  2  0  0  0  0
 33 31  1  0  0  0  0
 34 33  1  0  0  0  0
 35 32  1  0  0  0  0
 36 29  1  0  0  0  0
M  END
>  <MODEL>
3

>  <REMARK>
 VINA RESULT:      -8.1      2.934      6.281
  Name = 
  5 active torsions:
  status: ('A' for Active; 'I' for Inactive)
    1  A    between atoms: N_5  and  C_31
    2  A    between atoms: C_7  and  C_15
    3  A    between atoms: C_12  and  C_28
    4  A    between atoms: C_13  and  N_33
    5  A    between atoms: C_21  and  N_33
                            x       y       z     vdW  Elec       q    Type
                         _______ _______ _______ _____ _____    ______ ____

>  <TORSDO>
F 5

$$$$
=
 OpenBabel10222415563D

 36 39  0  0  1  0  0  0  0  0999 V2000
  189.3640  176.7450  142.1060 N   0  0  2  0  0  0  0  0  0  0  0  0
  190.8520  177.4050  143.8370 N   0  0  0  0  0  0  0  0  0  0  0  0
  191.3750  177.8780  141.5160 C   0  0  0  0  0  2  0  0  0  0  0  0
  189.4170  176.7640  140.6480 C   0  0  0  0  0  2  0  0  0  0  0  0
  188.7580  176.8600  144.9450 N   0  0  0  0  0  0  0  0  0  0  0  0
  190.1910  177.0530  144.9030 C   0  0  0  0  0  0  0  0  0  0  0  0
  188.0190  177.1030  142.5550 C   0  0  1  0  0  3  0  0  0  0  0  0
  190.2870  177.7710  142.5550 C   0  0  1  0  0  3  0  0  0  0  0  0
  187.8360  176.8580  144.0230 C   0  0  0  0  0  3  0  0  0  0  0  0
  190.7190  177.4230  140.2320 C   0  0  2  0  0  3  0  0  0  0  0  0
  190.1020  176.5880  147.2050 F   0  0  0  0  0  0  0  0  0  0  0  0
  191.8640  177.7530  146.4210 F   0  0  0  0  0  0  0  0  0  0  0  0
  191.6810  175.5580  145.9690 F   0  0  0  0  0  0  0  0  0  0  0  0
  190.9720  176.7330  146.1410 C   0  0  0  0  0  0  0  0  0  0  0  0
  191.5630  176.4470  139.5610 N   0  0  0  0  0  2  0  0  0  0  0  0
  191.5490  176.2510  138.1420 C   0  0  0  0  0  0  0  0  0  0  0  0
  190.7640  176.9400  137.4330 O   0  0  0  0  0  0  0  0  0  0  0  0
  190.5350  173.7160  136.7460 C   0  0  0  0  0  1  0  0  0  0  0  0
  193.8250  175.5020  137.5180 C   0  0  0  0  0  3  0  0  0  0  0  0
  192.4420  175.2570  137.4900 C   0  0  0  0  0  0  0  0  0  0  0  0
  191.9780  174.0800  136.8430 C   0  0  0  0  0  0  0  0  0  0  0  0
  192.8940  173.2020  136.2540 C   0  0  0  0  0  3  0  0  0  0  0  0
  194.2630  173.4670  136.2960 C   0  0  0  0  0  3  0  0  0  0  0  0
  194.7280  174.6180  136.9280 C   0  0  0  0  0  0  0  0  0  0  0  0
  196.0580  174.8780  136.9710 F   0  0  0  0  0  0  0  0  0  0  0  0
  187.6630  178.4870  142.2290 N   0  0  0  0  0  2  0  0  0  0  0  0
  183.8760  178.4240  144.1470 N   0  0  0  0  0  1  0  0  0  0  0  0
  182.3150  179.1670  139.6710 C   0  0  0  0  0  1  0  0  0  0  0  0
  184.2110  178.8530  142.8320 C   0  0  0  0  0  0  0  0  0  0  0  0
  186.3820  178.8800  141.7240 C   0  0  0  0  0  0  0  0  0  0  0  0
  184.7650  179.1470  138.4850 F   0  0  0  0  0  0  0  0  0  0  0  0
  183.5560  178.9530  140.4680 C   0  0  0  0  0  0  0  0  0  0  0  0
  184.7440  178.9510  139.8290 C   0  0  0  0  0  0  0  0  0  0  0  0
  186.0430  178.6290  140.4550 C   0  0  0  0  0  3  0  0  0  0  0  0
  183.3860  178.6140  141.8570 N   0  0  0  0  0  0  0  0  0  0  0  0
  185.4650  179.6260  142.6260 C   0  0  0  0  0  2  0  0  0  0  0  0
  1  4  1  6  0  0  0
  1  8  1  0  0  0  0
  1  7  1  0  0  0  0
  2  6  2  0  0  0  0
  6  5  1  0  0  0  0
  6 14  1  0  0  0  0
  7 26  1  1  0  0  0
  7  9  1  0  0  0  0
  8  3  1  6  0  0  0
  8  2  1  0  0  0  0
  9  5  2  0  0  0  0
 10 15  1  1  0  0  0
 10  4  1  0  0  0  0
 10  3  1  0  0  0  0
 13 14  1  0  0  0  0
 14 12  1  0  0  0  0
 14 11  1  0  0  0  0
 16 15  1  0  0  0  0
 17 16  2  0  0  0  0
 18 21  1  0  0  0  0
 20 19  1  0  0  0  0
 20 16  1  0  0  0  0
 21 20  2  0  0  0  0
 22 23  2  0  0  0  0
 22 21  1  0  0  0  0
 23 24  1  0  0  0  0
 24 25  1  0  0  0  0
 24 19  2  0  0  0  0
 28 32  1  0  0  0  0
 29 27  1  0  0  0  0
 30 26  1  0  0  0  0
 30 36  1  0  0  0  0
 31 33  1  0  0  0  0
 32 35  1  0  0  0  0
 33 34  1  0  0  0  0
 33 32  2  0  0  0  0
 34 30  2  0  0  0  0
 35 29  2  0  0  0  0
 36 29  1  0  0  0  0
M  END
>  <MODEL>
4

>  <REMARK>
 VINA RESULT:      -8.0      1.312      1.686
  Name = 
  5 active torsions:
  status: ('A' for Active; 'I' for Inactive)
    1  A    between atoms: N_5  and  C_31
    2  A    between atoms: C_7  and  C_15
    3  A    between atoms: C_12  and  C_28
    4  A    between atoms: C_13  and  N_33
    5  A    between atoms: C_21  and  N_33
                            x       y       z     vdW  Elec       q    Type
                         _______ _______ _______ _____ _____    ______ ____

>  <TORSDO>
F 5

$$$$
=
 OpenBabel10222415563D

 36 39  0  0  1  0  0  0  0  0999 V2000
  188.0420  177.1070  141.7980 N   0  0  2  0  0  0  0  0  0  0  0  0
  188.5360  178.2420  139.7700 N   0  0  0  0  0  0  0  0  0  0  0  0
  186.7460  179.0190  141.2130 C   0  0  0  0  0  2  0  0  0  0  0  0
  186.9970  177.2260  142.8100 C   0  0  0  0  0  2  0  0  0  0  0  0
  190.4440  176.7980  140.1940 N   0  0  0  0  0  0  0  0  0  0  0  0
  189.5770  177.5840  139.3460 C   0  0  0  0  0  0  0  0  0  0  0  0
  189.3250  176.8330  142.4450 C   0  0  1  0  0  3  0  0  0  0  0  0
  188.1200  178.4020  141.1490 C   0  0  1  0  0  3  0  0  0  0  0  0
  190.3820  176.4540  141.4510 C   0  0  0  0  0  3  0  0  0  0  0  0
  186.1090  178.3980  142.4360 C   0  0  2  0  0  3  0  0  0  0  0  0
  189.6000  178.8170  137.3450 F   0  0  0  0  0  0  0  0  0  0  0  0
  189.0110  176.6450  137.2500 F   0  0  0  0  0  0  0  0  0  0  0  0
  191.1550  177.2100  137.6250 F   0  0  0  0  0  0  0  0  0  0  0  0
  189.8400  177.5610  137.8710 C   0  0  0  0  0  0  0  0  0  0  0  0
  184.7770  177.9120  142.1110 N   0  0  0  0  0  2  0  0  0  0  0  0
  183.9300  178.5500  141.1490 C   0  0  0  0  0  0  0  0  0  0  0  0
  184.3380  179.5900  140.5600 O   0  0  0  0  0  0  0  0  0  0  0  0
  181.3970  179.2640  142.7250 C   0  0  0  0  0  1  0  0  0  0  0  0
  182.4710  177.1290  139.7400 C   0  0  0  0  0  3  0  0  0  0  0  0
  182.5810  178.0120  140.8290 C   0  0  0  0  0  0  0  0  0  0  0  0
  181.4040  178.3370  141.5560 C   0  0  0  0  0  0  0  0  0  0  0  0
  180.1770  177.7820  141.1790 C   0  0  0  0  0  3  0  0  0  0  0  0
  180.0930  176.9080  140.0950 C   0  0  0  0  0  3  0  0  0  0  0  0
  181.2410  176.5820  139.3750 C   0  0  0  0  0  0  0  0  0  0  0  0
  181.1620  175.7330  138.3220 F   0  0  0  0  0  0  0  0  0  0  0  0
  189.7920  177.9490  143.2720 N   0  0  0  0  0  2  0  0  0  0  0  0
  191.9560  176.1060  146.4260 N   0  0  0  0  0  1  0  0  0  0  0  0
  188.1770  177.5550  149.0040 C   0  0  0  0  0  1  0  0  0  0  0  0
  190.8350  176.9800  146.4950 C   0  0  0  0  0  0  0  0  0  0  0  0
  189.5820  178.0300  144.6860 C   0  0  0  0  0  0  0  0  0  0  0  0
  186.8070  178.6760  146.9350 F   0  0  0  0  0  0  0  0  0  0  0  0
  188.7230  177.5380  147.6160 C   0  0  0  0  0  0  0  0  0  0  0  0
  188.0010  178.1060  146.6290 C   0  0  0  0  0  0  0  0  0  0  0  0
  188.3460  178.0590  145.1930 C   0  0  0  0  0  3  0  0  0  0  0  0
  189.9270  176.7760  147.4020 N   0  0  0  0  0  0  0  0  0  0  0  0
  190.7730  178.1450  145.5710 C   0  0  0  0  0  2  0  0  0  0  0  0
  1  7  1  0  0  0  0
  1  4  1  1  0  0  0
  2  8  1  0  0  0  0
  3 10  1  0  0  0  0
  5  9  2  0  0  0  0
  6  2  2  0  0  0  0
  6  5  1  0  0  0  0
  7 26  1  6  0  0  0
  8  3  1  6  0  0  0
  8  1  1  0  0  0  0
  9  7  1  0  0  0  0
 10 15  1  6  0  0  0
 10  4  1  0  0  0  0
 11 14  1  0  0  0  0
 12 14  1  0  0  0  0
 13 14  1  0  0  0  0
 14  6  1  0  0  0  0
 16 15  1  0  0  0  0
 17 16  2  0  0  0  0
 19 20  1  0  0  0  0
 20 16  1  0  0  0  0
 20 21  2  0  0  0  0
 21 18  1  0  0  0  0
 22 21  1  0  0  0  0
 23 22  2  0  0  0  0
 24 19  2  0  0  0  0
 24 23  1  0  0  0  0
 25 24  1  0  0  0  0
 26 30  1  0  0  0  0
 27 29  1  0  0  0  0
 29 35  2  0  0  0  0
 30 34  2  0  0  0  0
 30 36  1  0  0  0  0
 32 28  1  0  0  0  0
 33 31  1  0  0  0  0
 33 32  2  0  0  0  0
 34 33  1  0  0  0  0
 35 32  1  0  0  0  0
 36 29  1  0  0  0  0
M  END
>  <MODEL>
5

>  <REMARK>
 VINA RESULT:      -7.8      3.133      8.283
  Name = 
  5 active torsions:
  status: ('A' for Active; 'I' for Inactive)
    1  A    between atoms: N_5  and  C_31
    2  A    between atoms: C_7  and  C_15
    3  A    between atoms: C_12  and  C_28
    4  A    between atoms: C_13  and  N_33
    5  A    between atoms: C_21  and  N_33
                            x       y       z     vdW  Elec       q    Type
                         _______ _______ _______ _____ _____    ______ ____

>  <TORSDO>
F 5

$$$$
=
 OpenBabel10222415563D

 36 39  0  0  1  0  0  0  0  0999 V2000
  187.0530  177.2980  142.5070 N   0  0  2  0  0  0  0  0  0  0  0  0
  188.1270  178.3250  140.6530 N   0  0  0  0  0  0  0  0  0  0  0  0
  186.2260  179.3890  141.7220 C   0  0  0  0  0  2  0  0  0  0  0  0
  185.8560  177.5900  143.2880 C   0  0  0  0  0  2  0  0  0  0  0  0
  189.6530  176.5950  141.4180 N   0  0  0  0  0  0  0  0  0  0  0  0
  189.1150  177.5060  140.4320 C   0  0  0  0  0  0  0  0  0  0  0  0
  188.1160  176.8240  143.3940 C   0  0  1  0  0  3  0  0  0  0  0  0
  187.4690  178.5590  141.9230 C   0  0  1  0  0  3  0  0  0  0  0  0
  189.2810  176.2740  142.6260 C   0  0  0  0  0  3  0  0  0  0  0  0
  185.2610  178.8870  142.7730 C   0  0  2  0  0  3  0  0  0  0  0  0
  189.5690  178.6750  138.4450 F   0  0  0  0  0  0  0  0  0  0  0  0
  188.9580  176.5110  138.2920 F   0  0  0  0  0  0  0  0  0  0  0  0
  190.9960  177.0490  139.0760 F   0  0  0  0  0  0  0  0  0  0  0  0
  189.6680  177.4320  139.0420 C   0  0  0  0  0  0  0  0  0  0  0  0
  183.9650  178.6210  142.1710 N   0  0  0  0  0  2  0  0  0  0  0  0
  182.7270  178.9470  142.8120 C   0  0  0  0  0  0  0  0  0  0  0  0
  182.7480  179.4780  143.9570 O   0  0  0  0  0  0  0  0  0  0  0  0
  180.0890  178.6300  144.3430 C   0  0  0  0  0  1  0  0  0  0  0  0
  181.4040  178.5650  140.7540 C   0  0  0  0  0  3  0  0  0  0  0  0
  181.4210  178.6770  142.1550 C   0  0  0  0  0  0  0  0  0  0  0  0
  180.1950  178.5270  142.8590 C   0  0  0  0  0  0  0  0  0  0  0  0
  179.0130  178.2760  142.1540 C   0  0  0  0  0  3  0  0  0  0  0  0
  179.0230  178.1680  140.7640 C   0  0  0  0  0  3  0  0  0  0  0  0
  180.2180  178.3130  140.0640 C   0  0  0  0  0  0  0  0  0  0  0  0
  180.2300  178.2080  138.7120 F   0  0  0  0  0  0  0  0  0  0  0  0
  188.5750  177.8560  144.3290 N   0  0  0  0  0  2  0  0  0  0  0  0
  192.0560  175.4570  143.9460 N   0  0  0  0  0  1  0  0  0  0  0  0
  192.4340  176.3890  148.6380 C   0  0  0  0  0  1  0  0  0  0  0  0
  191.6590  176.3000  145.0210 C   0  0  0  0  0  0  0  0  0  0  0  0
  189.6550  177.6700  145.2490 C   0  0  0  0  0  0  0  0  0  0  0  0
  190.1630  177.8770  148.8380 F   0  0  0  0  0  0  0  0  0  0  0  0
  191.5640  176.6340  147.4510 C   0  0  0  0  0  0  0  0  0  0  0  0
  190.4490  177.3770  147.6080 C   0  0  0  0  0  0  0  0  0  0  0  0
  189.4270  177.6010  146.5650 C   0  0  0  0  0  3  0  0  0  0  0  0
  191.9020  175.9280  146.2420 N   0  0  0  0  0  0  0  0  0  0  0  0
  191.0400  177.6180  144.7110 C   0  0  0  0  0  2  0  0  0  0  0  0
  1  4  1  1  0  0  0
  1  7  1  0  0  0  0
  2  8  1  0  0  0  0
  3 10  1  0  0  0  0
  5  9  2  0  0  0  0
  6  2  2  0  0  0  0
  6  5  1  0  0  0  0
  7 26  1  6  0  0  0
  8  3  1  6  0  0  0
  8  1  1  0  0  0  0
  9  7  1  0  0  0  0
 10 15  1  6  0  0  0
 10  4  1  0  0  0  0
 11 14  1  0  0  0  0
 12 14  1  0  0  0  0
 14 13  1  0  0  0  0
 14  6  1  0  0  0  0
 15 16  1  0  0  0  0
 16 17  2  0  0  0  0
 19 20  1  0  0  0  0
 20 16  1  0  0  0  0
 20 21  2  0  0  0  0
 21 18  1  0  0  0  0
 22 21  1  0  0  0  0
 23 22  2  0  0  0  0
 24 19  2  0  0  0  0
 24 23  1  0  0  0  0
 25 24  1  0  0  0  0
 26 30  1  0  0  0  0
 27 29  1  0  0  0  0
 29 35  2  0  0  0  0
 30 34  2  0  0  0  0
 32 33  2  0  0  0  0
 32 28  1  0  0  0  0
 33 31  1  0  0  0  0
 34 33  1  0  0  0  0
 35 32  1  0  0  0  0
 36 29  1  0  0  0  0
 36 30  1  0  0  0  0
M  END
>  <MODEL>
6

>  <REMARK>
 VINA RESULT:      -7.8      3.163      9.245
  Name = 
  5 active torsions:
  status: ('A' for Active; 'I' for Inactive)
    1  A    between atoms: N_5  and  C_31
    2  A    between atoms: C_7  and  C_15
    3  A    between atoms: C_12  and  C_28
    4  A    between atoms: C_13  and  N_33
    5  A    between atoms: C_21  and  N_33
                            x       y       z     vdW  Elec       q    Type
                         _______ _______ _______ _____ _____    ______ ____

>  <TORSDO>
F 5

$$$$
=
 OpenBabel10222415563D

 36 39  0  0  1  0  0  0  0  0999 V2000
  188.1270  176.9350  143.6590 N   0  0  2  0  0  0  0  0  0  0  0  0
  189.5950  177.9530  145.2250 N   0  0  0  0  0  0  0  0  0  0  0  0
  189.7800  178.4520  142.8570 C   0  0  0  0  0  2  0  0  0  0  0  0
  188.0350  176.9180  142.2030 C   0  0  0  0  0  2  0  0  0  0  0  0
  187.7840  177.0100  146.5430 N   0  0  0  0  0  0  0  0  0  0  0  0
  189.1300  177.5030  146.3550 C   0  0  0  0  0  0  0  0  0  0  0  0
  186.7850  177.0120  144.2360 C   0  0  1  0  0  3  0  0  0  0  0  0
  188.8450  178.1480  144.0010 C   0  0  1  0  0  3  0  0  0  0  0  0
  186.7990  176.7820  145.7180 C   0  0  0  0  0  3  0  0  0  0  0  0
  189.1190  177.8260  141.6510 C   0  0  2  0  0  3  0  0  0  0  0  0
  189.9530  176.1500  148.0910 F   0  0  0  0  0  0  0  0  0  0  0  0
  189.7870  178.3670  148.4570 F   0  0  0  0  0  0  0  0  0  0  0  0
  191.3790  177.5730  147.0810 F   0  0  0  0  0  0  0  0  0  0  0  0
  190.0760  177.3990  147.5120 C   0  0  0  0  0  0  0  0  0  0  0  0
  190.0850  177.0310  140.9100 N   0  0  0  0  0  2  0  0  0  0  0  0
  190.2890  177.1700  139.4990 C   0  0  0  0  0  0  0  0  0  0  0  0
  189.5950  178.0050  138.8560 O   0  0  0  0  0  0  0  0  0  0  0  0
  193.3160  177.5410  139.8250 C   0  0  0  0  0  1  0  0  0  0  0  0
  190.8350  175.3550  137.9050 C   0  0  0  0  0  3  0  0  0  0  0  0
  191.3010  176.3530  138.7800 C   0  0  0  0  0  0  0  0  0  0  0  0
  192.7050  176.5210  138.9250 C   0  0  0  0  0  0  0  0  0  0  0  0
  193.5820  175.7020  138.2070 C   0  0  0  0  0  3  0  0  0  0  0  0
  193.0950  174.7200  137.3450 C   0  0  0  0  0  3  0  0  0  0  0  0
  191.7220  174.5460  137.1940 C   0  0  0  0  0  0  0  0  0  0  0  0
  191.2460  173.5930  136.3570 F   0  0  0  0  0  0  0  0  0  0  0  0
  186.1090  178.2770  143.9320 N   0  0  0  0  0  2  0  0  0  0  0  0
  184.9160  179.4370  140.0260 N   0  0  0  0  0  1  0  0  0  0  0  0
  180.5820  179.5590  142.0830 C   0  0  0  0  0  1  0  0  0  0  0  0
  184.1130  179.0160  141.1240 C   0  0  0  0  0  0  0  0  0  0  0  0
  184.7950  178.3600  143.3710 C   0  0  0  0  0  0  0  0  0  0  0  0
  181.4090  178.8620  144.5820 F   0  0  0  0  0  0  0  0  0  0  0  0
  182.0210  179.3000  142.3750 C   0  0  0  0  0  0  0  0  0  0  0  0
  182.3760  178.9600  143.6320 C   0  0  0  0  0  0  0  0  0  0  0  0
  183.7660  178.7960  144.1050 C   0  0  0  0  0  3  0  0  0  0  0  0
  182.9590  179.5780  141.3190 N   0  0  0  0  0  0  0  0  0  0  0  0
  184.5920  177.8920  141.9740 C   0  0  0  0  0  2  0  0  0  0  0  0
  1  4  1  6  0  0  0
  1  8  1  0  0  0  0
  1  7  1  0  0  0  0
  2  6  2  0  0  0  0
  6  5  1  0  0  0  0
  6 14  1  0  0  0  0
  7 26  1  1  0  0  0
  7  9  1  0  0  0  0
  8  3  1  6  0  0  0
  8  2  1  0  0  0  0
  9  5  2  0  0  0  0
 10 15  1  1  0  0  0
 10  4  1  0  0  0  0
 10  3  1  0  0  0  0
 13 14  1  0  0  0  0
 14 11  1  0  0  0  0
 14 12  1  0  0  0  0
 16 15  1  0  0  0  0
 17 16  2  0  0  0  0
 19 20  1  0  0  0  0
 20 21  2  0  0  0  0
 20 16  1  0  0  0  0
 21 18  1  0  0  0  0
 22 21  1  0  0  0  0
 23 22  2  0  0  0  0
 24 23  1  0  0  0  0
 24 19  2  0  0  0  0
 25 24  1  0  0  0  0
 27 29  1  0  0  0  0
 28 32  1  0  0  0  0
 29 35  2  0  0  0  0
 29 36  1  0  0  0  0
 30 26  1  0  0  0  0
 30 34  2  0  0  0  0
 32 33  2  0  0  0  0
 33 34  1  0  0  0  0
 33 31  1  0  0  0  0
 35 32  1  0  0  0  0
 36 30  1  0  0  0  0
M  END
>  <MODEL>
7

>  <REMARK>
 VINA RESULT:      -7.8      1.644      2.480
  Name = 
  5 active torsions:
  status: ('A' for Active; 'I' for Inactive)
    1  A    between atoms: N_5  and  C_31
    2  A    between atoms: C_7  and  C_15
    3  A    between atoms: C_12  and  C_28
    4  A    between atoms: C_13  and  N_33
    5  A    between atoms: C_21  and  N_33
                            x       y       z     vdW  Elec       q    Type
                         _______ _______ _______ _____ _____    ______ ____

>  <TORSDO>
F 5

$$$$
=
 OpenBabel10222415563D

 36 39  0  0  1  0  0  0  0  0999 V2000
  182.5790  178.2730  139.3840 N   0  0  2  0  0  0  0  0  0  0  0  0
  181.0540  176.4830  139.7240 N   0  0  0  0  0  0  0  0  0  0  0  0
  181.9300  177.7310  141.6110 C   0  0  0  0  0  2  0  0  0  0  0  0
  183.3660  179.1300  140.2640 C   0  0  0  0  0  2  0  0  0  0  0  0
  180.9280  177.0090  137.3550 N   0  0  0  0  0  0  0  0  0  0  0  0
  180.7700  176.1400  138.5000 C   0  0  0  0  0  0  0  0  0  0  0  0
  182.0520  179.0620  138.2700 C   0  0  1  0  0  3  0  0  0  0  0  0
  181.4630  177.7960  140.1790 C   0  0  1  0  0  3  0  0  0  0  0  0
  181.4500  178.1950  137.2060 C   0  0  0  0  0  3  0  0  0  0  0  0
  183.0270  178.7690  141.6990 C   0  0  2  0  0  3  0  0  0  0  0  0
  179.2540  174.7240  137.3950 F   0  0  0  0  0  0  0  0  0  0  0  0
  179.9900  174.1130  139.4360 F   0  0  0  0  0  0  0  0  0  0  0  0
  181.3750  174.0120  137.6670 F   0  0  0  0  0  0  0  0  0  0  0  0
  180.3430  174.7270  138.2470 C   0  0  0  0  0  0  0  0  0  0  0  0
  184.1990  178.2000  142.3450 N   0  0  0  0  0  2  0  0  0  0  0  0
  184.8780  178.8420  143.4300 C   0  0  0  0  0  0  0  0  0  0  0  0
  184.4590  179.9590  143.8450 O   0  0  0  0  0  0  0  0  0  0  0  0
  185.1630  178.4850  146.4630 C   0  0  0  0  0  1  0  0  0  0  0  0
  187.1020  177.7710  143.2470 C   0  0  0  0  0  3  0  0  0  0  0  0
  186.0620  178.2200  144.0790 C   0  0  0  0  0  0  0  0  0  0  0  0
  186.2010  178.0530  145.4830 C   0  0  0  0  0  0  0  0  0  0  0  0
  187.3530  177.4530  146.0030 C   0  0  0  0  0  3  0  0  0  0  0  0
  188.3720  177.0170  145.1570 C   0  0  0  0  0  3  0  0  0  0  0  0
  188.2460  177.1750  143.7790 C   0  0  0  0  0  0  0  0  0  0  0  0
  189.2360  176.7520  142.9540 F   0  0  0  0  0  0  0  0  0  0  0  0
  181.0810  180.0720  138.7030 N   0  0  0  0  0  2  0  0  0  0  0  0
  179.3640  180.3950  134.8340 N   0  0  0  0  0  1  0  0  0  0  0  0
  180.7870  184.9550  135.2850 C   0  0  0  0  0  1  0  0  0  0  0  0
  179.7680  181.4260  135.7270 C   0  0  0  0  0  0  0  0  0  0  0  0
  180.7650  181.2450  137.9450 C   0  0  0  0  0  0  0  0  0  0  0  0
  181.9200  184.6800  137.7450 F   0  0  0  0  0  0  0  0  0  0  0  0
  180.7950  183.6410  135.9890 C   0  0  0  0  0  0  0  0  0  0  0  0
  181.3720  183.5610  137.2060 C   0  0  0  0  0  0  0  0  0  0  0  0
  181.5700  182.3110  137.9680 C   0  0  0  0  0  3  0  0  0  0  0  0
  180.3110  182.5050  135.2480 N   0  0  0  0  0  0  0  0  0  0  0  0
  179.4890  181.2680  137.1810 C   0  0  0  0  0  2  0  0  0  0  0  0
  1  8  1  0  0  0  0
  1  4  1  1  0  0  0
  2  8  1  0  0  0  0
  3 10  1  0  0  0  0
  4 10  1  0  0  0  0
  5  6  1  0  0  0  0
  6  2  2  0  0  0  0
  7 26  1  1  0  0  0
  7  1  1  0  0  0  0
  8  3  1  1  0  0  0
  9  5  2  0  0  0  0
  9  7  1  0  0  0  0
 10 15  1  6  0  0  0
 11 14  1  0  0  0  0
 13 14  1  0  0  0  0
 14  6  1  0  0  0  0
 14 12  1  0  0  0  0
 15 16  1  0  0  0  0
 16 17  2  0  0  0  0
 16 20  1  0  0  0  0
 19 24  2  0  0  0  0
 19 20  1  0  0  0  0
 20 21  2  0  0  0  0
 21 22  1  0  0  0  0
 21 18  1  0  0  0  0
 23 22  2  0  0  0  0
 24 23  1  0  0  0  0
 25 24  1  0  0  0  0
 27 29  1  0  0  0  0
 28 32  1  0  0  0  0
 29 36  1  0  0  0  0
 30 34  2  0  0  0  0
 30 26  1  0  0  0  0
 32 33  2  0  0  0  0
 33 31  1  0  0  0  0
 33 34  1  0  0  0  0
 35 29  2  0  0  0  0
 35 32  1  0  0  0  0
 36 30  1  0  0  0  0
M  END
>  <MODEL>
8

>  <REMARK>
 VINA RESULT:      -7.8      5.507      9.704
  Name = 
  5 active torsions:
  status: ('A' for Active; 'I' for Inactive)
    1  A    between atoms: N_5  and  C_31
    2  A    between atoms: C_7  and  C_15
    3  A    between atoms: C_12  and  C_28
    4  A    between atoms: C_13  and  N_33
    5  A    between atoms: C_21  and  N_33
                            x       y       z     vdW  Elec       q    Type
                         _______ _______ _______ _____ _____    ______ ____

>  <TORSDO>
F 5

$$$$
=
 OpenBabel10222415563D

 36 39  0  0  1  0  0  0  0  0999 V2000
  186.9960  177.2950  142.5510 N   0  0  2  0  0  0  0  0  0  0  0  0
  188.2160  178.5460  140.9410 N   0  0  0  0  0  0  0  0  0  0  0  0
  186.3250  179.5360  142.0970 C   0  0  0  0  0  2  0  0  0  0  0  0
  185.7790  177.5280  143.3220 C   0  0  0  0  0  2  0  0  0  0  0  0
  189.6050  176.6210  141.4650 N   0  0  0  0  0  0  0  0  0  0  0  0
  189.1670  177.7140  140.6250 C   0  0  0  0  0  0  0  0  0  0  0  0
  187.9860  176.6160  143.3880 C   0  0  1  0  0  3  0  0  0  0  0  0
  187.5090  178.6070  142.2040 C   0  0  1  0  0  3  0  0  0  0  0  0
  189.1550  176.1290  142.5860 C   0  0  0  0  0  3  0  0  0  0  0  0
  185.2830  178.9280  143.0080 C   0  0  2  0  0  3  0  0  0  0  0  0
  191.1600  177.7760  139.3810 F   0  0  0  0  0  0  0  0  0  0  0  0
  189.4310  179.0420  138.6860 F   0  0  0  0  0  0  0  0  0  0  0  0
  189.3510  176.8070  138.4500 F   0  0  0  0  0  0  0  0  0  0  0  0
  189.7840  177.8370  139.2650 C   0  0  0  0  0  0  0  0  0  0  0  0
  184.0050  178.8460  142.3180 N   0  0  0  0  0  2  0  0  0  0  0  0
  182.7480  178.8960  143.0010 C   0  0  0  0  0  0  0  0  0  0  0  0
  182.7340  179.0010  144.2590 O   0  0  0  0  0  0  0  0  0  0  0  0
  180.0390  178.3690  144.3390 C   0  0  0  0  0  1  0  0  0  0  0  0
  181.4990  179.0220  140.8670 C   0  0  0  0  0  3  0  0  0  0  0  0
  181.4610  178.8290  142.2580 C   0  0  0  0  0  0  0  0  0  0  0  0
  180.2040  178.5830  142.8720 C   0  0  0  0  0  0  0  0  0  0  0  0
  179.0440  178.5410  142.0910 C   0  0  0  0  0  3  0  0  0  0  0  0
  179.1070  178.7340  140.7110 C   0  0  0  0  0  3  0  0  0  0  0  0
  180.3350  178.9750  140.0990 C   0  0  0  0  0  0  0  0  0  0  0  0
  180.3990  179.1630  138.7580 F   0  0  0  0  0  0  0  0  0  0  0  0
  188.4530  177.4480  144.5010 N   0  0  0  0  0  2  0  0  0  0  0  0
  188.6590  178.6570  148.5650 N   0  0  0  0  0  1  0  0  0  0  0  0
  192.7170  176.0980  148.4510 C   0  0  0  0  0  1  0  0  0  0  0  0
  189.4100  177.6580  147.8850 C   0  0  0  0  0  0  0  0  0  0  0  0
  189.3020  176.9690  145.5480 C   0  0  0  0  0  0  0  0  0  0  0  0
  192.5620  175.3950  145.8250 F   0  0  0  0  0  0  0  0  0  0  0  0
  191.5830  176.5530  147.5960 C   0  0  0  0  0  0  0  0  0  0  0  0
  191.5570  176.1760  146.3000 C   0  0  0  0  0  0  0  0  0  0  0  0
  190.5760  176.6470  145.3010 C   0  0  0  0  0  3  0  0  0  0  0  0
  190.6640  177.4940  148.1820 N   0  0  0  0  0  0  0  0  0  0  0  0
  188.7160  176.7810  146.9020 C   0  0  0  0  0  2  0  0  0  0  0  0
  1  4  1  1  0  0  0
  1  7  1  0  0  0  0
  2  8  1  0  0  0  0
  3 10  1  0  0  0  0
  5  9  2  0  0  0  0
  6  2  2  0  0  0  0
  6  5  1  0  0  0  0
  7 26  1  1  0  0  0
  8  3  1  6  0  0  0
  8  1  1  0  0  0  0
  9  7  1  0  0  0  0
 10 15  1  6  0  0  0
 10  4  1  0  0  0  0
 12 14  1  0  0  0  0
 13 14  1  0  0  0  0
 14 11  1  0  0  0  0
 14  6  1  0  0  0  0
 15 16  1  0  0  0  0
 16 17  2  0  0  0  0
 19 20  1  0  0  0  0
 20 21  2  0  0  0  0
 20 16  1  0  0  0  0
 21 18  1  0  0  0  0
 22 21  1  0  0  0  0
 23 22  2  0  0  0  0
 24 23  1  0  0  0  0
 24 19  2  0  0  0  0
 25 24  1  0  0  0  0
 26 30  1  0  0  0  0
 29 35  2  0  0  0  0
 29 27  1  0  0  0  0
 30 36  1  0  0  0  0
 31 33  1  0  0  0  0
 32 35  1  0  0  0  0
 32 28  1  0  0  0  0
 33 32  2  0  0  0  0
 34 30  2  0  0  0  0
 34 33  1  0  0  0  0
 36 29  1  0  0  0  0
M  END
>  <MODEL>
9

>  <REMARK>
 VINA RESULT:      -7.8      3.287      9.135
  Name = 
  5 active torsions:
  status: ('A' for Active; 'I' for Inactive)
    1  A    between atoms: N_5  and  C_31
    2  A    between atoms: C_7  and  C_15
    3  A    between atoms: C_12  and  C_28
    4  A    between atoms: C_13  and  N_33
    5  A    between atoms: C_21  and  N_33
                            x       y       z     vdW  Elec       q    Type
                         _______ _______ _______ _____ _____    ______ ____

>  <TORSDO>
F 5

$$$$
