=
 OpenBabel10222415303D

 31 33  0  0  1  0  0  0  0  0999 V2000
  190.9940  176.8580  141.4920 N   0  0  0  0  0  2  0  0  0  0  0  0
  188.3310  178.1440  140.7950 N   0  0  0  0  0  0  0  0  0  0  0  0
  189.1910  177.7040  139.9160 C   0  0  0  0  0  0  0  0  0  0  0  0
  191.7420  177.8190  143.5820 C   0  0  0  0  0  1  0  0  0  0  0  0
  190.6700  175.9290  139.3980 O   0  0  0  0  0  0  0  0  0  0  0  0
  190.2990  176.7810  140.2490 C   0  0  0  0  0  0  0  0  0  0  0  0
  188.2720  177.9120  142.2170 C   0  0  0  0  0  0  0  0  0  0  0  0
  189.3710  177.8190  142.9750 C   0  0  0  0  0  3  0  0  0  0  0  0
  190.7550  177.9280  142.4400 C   0  0  2  0  0  3  0  0  0  0  0  0
  186.9430  177.8900  142.8750 C   0  0  0  0  0  0  0  0  0  0  0  0
  185.1640  178.5620  145.2990 C   0  0  0  0  0  0  0  0  0  0  0  0
  182.7650  178.8310  144.4770 C   0  0  0  0  0  1  0  0  0  0  0  0
  184.5640  178.6820  142.8740 C   0  0  0  0  0  3  0  0  0  0  0  0
  184.2080  178.6380  144.1660 C   0  0  0  0  0  0  0  0  0  0  0  0
  185.9300  178.5670  142.3230 C   0  0  0  0  0  3  0  0  0  0  0  0
  186.3000  177.8630  145.2590 C   0  0  0  0  0  3  0  0  0  0  0  0
  186.7130  177.0370  144.0870 C   0  0  0  0  0  2  0  0  0  0  0  0
  184.8560  179.2330  146.4760 O   0  0  0  0  0  1  0  0  0  0  0  0
  190.1700  177.8700  137.7500 O   0  0  0  0  0  1  0  0  0  0  0  0
  188.9950  178.0730  138.4750 C   0  0  1  0  0  3  0  0  0  0  0  0
  187.9020  176.0910  137.8400 O   0  0  0  0  0  0  0  0  0  0  0  0
  187.8600  177.3110  137.8610 C   0  0  0  0  0  0  0  0  0  0  0  0
  186.6950  178.0360  137.2560 C   0  0  1  0  0  3  0  0  0  0  0  0
  187.0300  178.4960  135.9810 O   0  0  0  0  0  1  0  0  0  0  0  0
  185.4810  177.1250  137.1820 C   0  0  0  0  0  2  0  0  0  0  0  0
  183.2750  176.5510  138.4300 S   0  0  0  0  0  0  0  0  0  0  0  0
  182.3030  179.1250  138.9620 C   0  0  0  0  0  2  0  0  0  0  0  0
  183.7120  179.6710  139.1930 C   0  0  0  0  0  2  0  0  0  0  0  0
  184.7950  178.6650  138.7980 C   0  0  0  0  0  2  0  0  0  0  0  0
  182.1980  177.6730  139.4130 C   0  0  0  0  0  2  0  0  0  0  0  0
  184.3180  177.8060  137.7230 N   0  0  0  0  0  0  0  0  0  0  0  0
  1  9  1  0  0  0  0
  2  7  1  0  0  0  0
  3  6  1  0  0  0  0
  3  2  2  0  0  0  0
  5  6  2  0  0  0  0
  6  1  1  0  0  0  0
  7 10  1  0  0  0  0
  7  8  2  0  0  0  0
  9  8  1  0  0  0  0
  9  4  1  1  0  0  0
 10 17  1  0  0  0  0
 11 18  1  0  0  0  0
 13 14  2  0  0  0  0
 14 12  1  0  0  0  0
 14 11  1  0  0  0  0
 15 13  1  0  0  0  0
 15 10  2  0  0  0  0
 16 11  2  0  0  0  0
 17 16  1  0  0  0  0
 20 19  1  6  0  0  0
 20  3  1  0  0  0  0
 21 22  2  0  0  0  0
 22 20  1  0  0  0  0
 23 24  1  6  0  0  0
 23 22  1  0  0  0  0
 25 23  1  0  0  0  0
 25 31  1  0  0  0  0
 26 30  1  0  0  0  0
 27 28  1  0  0  0  0
 27 30  1  0  0  0  0
 29 28  1  0  0  0  0
 31 26  1  0  0  0  0
 31 29  1  0  0  0  0
M  END
>  <MODEL>
1

>  <REMARK>
 VINA RESULT:      -8.8      0.000      0.000
  Name = 
  6 active torsions:
  status: ('A' for Active; 'I' for Inactive)
    1  A    between atoms: C_3  and  C_14
    2  A    between atoms: C_8  and  C_18
    3  A    between atoms: C_18  and  C_26
    4  A    between atoms: C_19  and  C_26
    5  A    between atoms: C_19  and  C_31
    6  A    between atoms: N_29  and  C_31
                            x       y       z     vdW  Elec       q    Type
                         _______ _______ _______ _____ _____    ______ ____

>  <TORSDO>
F 6

$$$$
=
 OpenBabel10222415303D

 31 33  0  0  1  0  0  0  0  0999 V2000
  189.9050  176.2420  137.7750 N   0  0  0  0  0  2  0  0  0  0  0  0
  188.5670  177.8840  139.9530 N   0  0  0  0  0  0  0  0  0  0  0  0
  188.1170  177.7710  138.7320 C   0  0  0  0  0  0  0  0  0  0  0  0
  192.2820  176.2350  138.2250 C   0  0  0  0  0  1  0  0  0  0  0  0
  187.7420  176.2510  136.9560 O   0  0  0  0  0  0  0  0  0  0  0  0
  188.5610  176.7160  137.7930 C   0  0  0  0  0  0  0  0  0  0  0  0
  189.5740  177.1080  140.6360 C   0  0  0  0  0  0  0  0  0  0  0  0
  190.6640  176.6430  140.0150 C   0  0  0  0  0  3  0  0  0  0  0  0
  190.9470  176.8590  138.5710 C   0  0  2  0  0  3  0  0  0  0  0  0
  189.4470  176.9200  142.1010 C   0  0  0  0  0  0  0  0  0  0  0  0
  190.7150  176.9700  144.9080 C   0  0  0  0  0  0  0  0  0  0  0  0
  188.8690  177.4200  146.6090 C   0  0  0  0  0  1  0  0  0  0  0  0
  188.4070  177.6760  144.2540 C   0  0  0  0  0  3  0  0  0  0  0  0
  189.2990  177.3150  145.1880 C   0  0  0  0  0  0  0  0  0  0  0  0
  188.6140  177.7070  142.7910 C   0  0  0  0  0  3  0  0  0  0  0  0
  191.1100  176.3070  143.8200 C   0  0  0  0  0  3  0  0  0  0  0  0
  190.1660  175.7940  142.7840 C   0  0  0  0  0  2  0  0  0  0  0  0
  191.6840  177.3300  145.8370 O   0  0  0  0  0  1  0  0  0  0  0  0
  187.0650  178.8680  136.8970 O   0  0  0  0  0  1  0  0  0  0  0  0
  187.0260  178.6970  138.2830 C   0  0  1  0  0  3  0  0  0  0  0  0
  185.1910  177.2320  138.1670 O   0  0  0  0  0  0  0  0  0  0  0  0
  185.6770  178.2090  138.7150 C   0  0  0  0  0  0  0  0  0  0  0  0
  184.9170  178.9250  139.7910 C   0  0  1  0  0  3  0  0  0  0  0  0
  184.3280  180.0800  139.2720 O   0  0  0  0  0  1  0  0  0  0  0  0
  183.8530  178.0170  140.3860 C   0  0  0  0  0  2  0  0  0  0  0  0
  185.2190  179.1740  142.2710 S   0  0  0  0  0  0  0  0  0  0  0  0
  183.5330  178.7390  144.4660 C   0  0  0  0  0  2  0  0  0  0  0  0
  182.2780  178.9080  143.6070 C   0  0  0  0  0  2  0  0  0  0  0  0
  182.6020  178.9680  142.1140 C   0  0  0  0  0  2  0  0  0  0  0  0
  184.6620  179.6290  143.9640 C   0  0  0  0  0  2  0  0  0  0  0  0
  183.8020  178.1940  141.8270 N   0  0  0  0  0  0  0  0  0  0  0  0
  1  6  1  0  0  0  0
  1  9  1  0  0  0  0
  2  7  1  0  0  0  0
  3  2  2  0  0  0  0
  5  6  2  0  0  0  0
  6  3  1  0  0  0  0
  7 10  1  0  0  0  0
  8  7  2  0  0  0  0
  9  4  1  6  0  0  0
  9  8  1  0  0  0  0
 10 17  1  0  0  0  0
 10 15  2  0  0  0  0
 11 14  1  0  0  0  0
 11 18  1  0  0  0  0
 13 14  2  0  0  0  0
 14 12  1  0  0  0  0
 15 13  1  0  0  0  0
 16 11  2  0  0  0  0
 17 16  1  0  0  0  0
 20 19  1  6  0  0  0
 20 22  1  0  0  0  0
 20  3  1  0  0  0  0
 21 22  2  0  0  0  0
 22 23  1  0  0  0  0
 23 24  1  6  0  0  0
 23 25  1  0  0  0  0
 25 31  1  0  0  0  0
 26 30  1  0  0  0  0
 28 27  1  0  0  0  0
 29 28  1  0  0  0  0
 30 27  1  0  0  0  0
 31 29  1  0  0  0  0
 31 26  1  0  0  0  0
M  END
>  <MODEL>
2

>  <REMARK>
 VINA RESULT:      -8.6      2.495      4.245
  Name = 
  6 active torsions:
  status: ('A' for Active; 'I' for Inactive)
    1  A    between atoms: C_3  and  C_14
    2  A    between atoms: C_8  and  C_18
    3  A    between atoms: C_18  and  C_26
    4  A    between atoms: C_19  and  C_26
    5  A    between atoms: C_19  and  C_31
    6  A    between atoms: N_29  and  C_31
                            x       y       z     vdW  Elec       q    Type
                         _______ _______ _______ _____ _____    ______ ____

>  <TORSDO>
F 6

$$$$
=
 OpenBabel10222415303D

 31 33  0  0  1  0  0  0  0  0999 V2000
  190.6180  176.5080  140.7680 N   0  0  0  0  0  2  0  0  0  0  0  0
  188.1520  178.2810  140.6840 N   0  0  0  0  0  0  0  0  0  0  0  0
  188.8250  177.9010  139.6310 C   0  0  0  0  0  0  0  0  0  0  0  0
  191.7410  176.9210  142.8700 C   0  0  0  0  0  1  0  0  0  0  0  0
  189.9160  176.0660  138.6080 O   0  0  0  0  0  0  0  0  0  0  0  0
  189.7890  176.7790  139.6390 C   0  0  0  0  0  0  0  0  0  0  0  0
  188.2100  177.7860  142.0380 C   0  0  0  0  0  0  0  0  0  0  0  0
  189.3530  177.3860  142.6070 C   0  0  0  0  0  3  0  0  0  0  0  0
  190.6680  177.3940  141.9130 C   0  0  2  0  0  3  0  0  0  0  0  0
  186.9760  177.8300  142.8590 C   0  0  0  0  0  0  0  0  0  0  0  0
  185.5340  178.6690  145.4490 C   0  0  0  0  0  0  0  0  0  0  0  0
  183.0550  178.9510  144.9250 C   0  0  0  0  0  1  0  0  0  0  0  0
  184.6300  178.6760  143.1170 C   0  0  0  0  0  3  0  0  0  0  0  0
  184.4420  178.7080  144.4440 C   0  0  0  0  0  0  0  0  0  0  0  0
  185.9120  178.5010  142.4040 C   0  0  0  0  0  3  0  0  0  0  0  0
  186.6430  177.9420  145.3030 C   0  0  0  0  0  3  0  0  0  0  0  0
  186.8890  177.0460  144.1350 C   0  0  0  0  0  2  0  0  0  0  0  0
  185.3900  179.4070  146.6170 O   0  0  0  0  0  1  0  0  0  0  0  0
  189.7160  178.7550  137.5930 O   0  0  0  0  0  1  0  0  0  0  0  0
  188.5380  178.5710  138.3190 C   0  0  1  0  0  3  0  0  0  0  0  0
  187.8740  177.3280  136.4370 O   0  0  0  0  0  0  0  0  0  0  0  0
  187.5390  177.7980  137.5130 C   0  0  0  0  0  0  0  0  0  0  0  0
  186.1340  177.6220  138.0070 C   0  0  1  0  0  3  0  0  0  0  0  0
  185.6080  178.8550  138.3990 O   0  0  0  0  0  1  0  0  0  0  0  0
  185.2630  177.0010  136.9280 C   0  0  0  0  0  2  0  0  0  0  0  0
  183.4710  175.2520  137.6250 S   0  0  0  0  0  0  0  0  0  0  0  0
  184.9120  172.8740  137.2750 C   0  0  0  0  0  2  0  0  0  0  0  0
  185.6430  173.4310  136.0530 C   0  0  0  0  0  2  0  0  0  0  0  0
  185.3930  174.9270  135.8600 C   0  0  0  0  0  2  0  0  0  0  0  0
  183.4970  173.4310  137.3660 C   0  0  0  0  0  2  0  0  0  0  0  0
  185.1550  175.5680  137.1450 N   0  0  0  0  0  0  0  0  0  0  0  0
  1  9  1  0  0  0  0
  2  7  1  0  0  0  0
  3  6  1  0  0  0  0
  3  2  2  0  0  0  0
  5  6  2  0  0  0  0
  6  1  1  0  0  0  0
  7  8  2  0  0  0  0
  7 10  1  0  0  0  0
  9  8  1  0  0  0  0
  9  4  1  1  0  0  0
 10 17  1  0  0  0  0
 11 18  1  0  0  0  0
 13 14  2  0  0  0  0
 14 12  1  0  0  0  0
 14 11  1  0  0  0  0
 15 10  2  0  0  0  0
 15 13  1  0  0  0  0
 16 11  2  0  0  0  0
 17 16  1  0  0  0  0
 20 19  1  6  0  0  0
 20  3  1  0  0  0  0
 21 22  2  0  0  0  0
 22 23  1  0  0  0  0
 22 20  1  0  0  0  0
 23 24  1  6  0  0  0
 25 31  1  0  0  0  0
 25 23  1  0  0  0  0
 27 30  1  0  0  0  0
 28 27  1  0  0  0  0
 29 28  1  0  0  0  0
 29 31  1  0  0  0  0
 30 26  1  0  0  0  0
 31 26  1  0  0  0  0
M  END
>  <MODEL>
3

>  <REMARK>
 VINA RESULT:      -8.3      1.663      2.393
  Name = 
  6 active torsions:
  status: ('A' for Active; 'I' for Inactive)
    1  A    between atoms: C_3  and  C_14
    2  A    between atoms: C_8  and  C_18
    3  A    between atoms: C_18  and  C_26
    4  A    between atoms: C_19  and  C_26
    5  A    between atoms: C_19  and  C_31
    6  A    between atoms: N_29  and  C_31
                            x       y       z     vdW  Elec       q    Type
                         _______ _______ _______ _____ _____    ______ ____

>  <TORSDO>
F 6

$$$$
=
 OpenBabel10222415303D

 31 33  0  0  1  0  0  0  0  0999 V2000
  189.9630  176.7070  139.0180 N   0  0  0  0  0  2  0  0  0  0  0  0
  187.6030  178.1890  140.2280 N   0  0  0  0  0  0  0  0  0  0  0  0
  187.7380  177.9290  138.9550 C   0  0  0  0  0  0  0  0  0  0  0  0
  191.8960  177.1650  140.4000 C   0  0  0  0  0  1  0  0  0  0  0  0
  188.3780  176.2710  137.3910 O   0  0  0  0  0  0  0  0  0  0  0  0
  188.6860  176.9250  138.4230 C   0  0  0  0  0  0  0  0  0  0  0  0
  188.3240  177.6510  141.3560 C   0  0  0  0  0  0  0  0  0  0  0  0
  189.6300  177.3630  141.3020 C   0  0  0  0  0  3  0  0  0  0  0  0
  190.4660  177.5490  140.0860 C   0  0  2  0  0  3  0  0  0  0  0  0
  187.6140  177.5220  142.6510 C   0  0  0  0  0  0  0  0  0  0  0  0
  187.6170  177.7750  145.7220 C   0  0  0  0  0  0  0  0  0  0  0  0
  185.2210  178.1910  146.4900 C   0  0  0  0  0  1  0  0  0  0  0  0
  185.7570  178.3120  144.1390 C   0  0  0  0  0  3  0  0  0  0  0  0
  186.1990  178.0480  145.3770 C   0  0  0  0  0  0  0  0  0  0  0  0
  186.5440  178.2880  142.8890 C   0  0  0  0  0  3  0  0  0  0  0  0
  188.4470  177.0880  144.9350 C   0  0  0  0  0  3  0  0  0  0  0  0
  188.0300  176.4740  143.6410 C   0  0  0  0  0  2  0  0  0  0  0  0
  188.1060  178.2340  146.9390 O   0  0  0  0  0  1  0  0  0  0  0  0
  187.2570  178.4160  136.6730 O   0  0  0  0  0  1  0  0  0  0  0  0
  186.8200  178.6110  137.9840 C   0  0  1  0  0  3  0  0  0  0  0  0
  184.9670  177.2960  137.3790 O   0  0  0  0  0  0  0  0  0  0  0  0
  185.4060  178.1430  138.1420 C   0  0  0  0  0  0  0  0  0  0  0  0
  184.5250  178.7230  139.2090 C   0  0  1  0  0  3  0  0  0  0  0  0
  184.4410  180.1090  139.0560 O   0  0  0  0  0  1  0  0  0  0  0  0
  183.1380  178.1040  139.1500 C   0  0  0  0  0  2  0  0  0  0  0  0
  180.7650  177.7590  140.1510 S   0  0  0  0  0  0  0  0  0  0  0  0
  180.9570  179.3120  142.4750 C   0  0  0  0  0  2  0  0  0  0  0  0
  182.4220  178.9230  142.6810 C   0  0  0  0  0  2  0  0  0  0  0  0
  182.9950  178.1690  141.4810 C   0  0  0  0  0  2  0  0  0  0  0  0
  180.1720  178.1700  141.8430 C   0  0  0  0  0  2  0  0  0  0  0  0
  182.3330  178.5930  140.2550 N   0  0  0  0  0  0  0  0  0  0  0  0
  1  9  1  0  0  0  0
  2  7  1  0  0  0  0
  3  2  2  0  0  0  0
  5  6  2  0  0  0  0
  6  3  1  0  0  0  0
  6  1  1  0  0  0  0
  7 10  1  0  0  0  0
  8  7  2  0  0  0  0
  9  4  1  1  0  0  0
  9  8  1  0  0  0  0
 10 15  2  0  0  0  0
 10 17  1  0  0  0  0
 11 18  1  0  0  0  0
 13 14  2  0  0  0  0
 14 11  1  0  0  0  0
 14 12  1  0  0  0  0
 15 13  1  0  0  0  0
 16 11  2  0  0  0  0
 17 16  1  0  0  0  0
 20 19  1  6  0  0  0
 20 22  1  0  0  0  0
 20  3  1  0  0  0  0
 21 22  2  0  0  0  0
 22 23  1  0  0  0  0
 23 24  1  6  0  0  0
 25 23  1  0  0  0  0
 25 31  1  0  0  0  0
 26 31  1  0  0  0  0
 26 30  1  0  0  0  0
 27 28  1  0  0  0  0
 29 28  1  0  0  0  0
 30 27  1  0  0  0  0
 31 29  1  0  0  0  0
M  END
>  <MODEL>
4

>  <REMARK>
 VINA RESULT:      -8.1      1.960      2.755
  Name = 
  6 active torsions:
  status: ('A' for Active; 'I' for Inactive)
    1  A    between atoms: C_3  and  C_14
    2  A    between atoms: C_8  and  C_18
    3  A    between atoms: C_18  and  C_26
    4  A    between atoms: C_19  and  C_26
    5  A    between atoms: C_19  and  C_31
    6  A    between atoms: N_29  and  C_31
                            x       y       z     vdW  Elec       q    Type
                         _______ _______ _______ _____ _____    ______ ____

>  <TORSDO>
F 6

$$$$
=
 OpenBabel10222415303D

 31 33  0  0  1  0  0  0  0  0999 V2000
  189.4860  176.3580  144.3880 N   0  0  0  0  0  2  0  0  0  0  0  0
  188.3610  178.2430  142.2890 N   0  0  0  0  0  0  0  0  0  0  0  0
  189.4360  177.5180  142.1300 C   0  0  0  0  0  0  0  0  0  0  0  0
  188.9090  177.2570  146.5590 C   0  0  0  0  0  1  0  0  0  0  0  0
  190.3790  175.3770  142.4930 O   0  0  0  0  0  0  0  0  0  0  0  0
  189.7770  176.3650  142.9930 C   0  0  0  0  0  0  0  0  0  0  0  0
  187.3350  178.1550  143.2990 C   0  0  0  0  0  0  0  0  0  0  0  0
  187.6060  177.8360  144.5700 C   0  0  0  0  0  3  0  0  0  0  0  0
  188.9720  177.5280  145.0710 C   0  0  2  0  0  3  0  0  0  0  0  0
  185.9510  178.5430  142.9350 C   0  0  0  0  0  0  0  0  0  0  0  0
  183.4480  178.1340  141.1870 C   0  0  0  0  0  0  0  0  0  0  0  0
  181.4150  178.9290  142.5060 C   0  0  0  0  0  1  0  0  0  0  0  0
  183.5440  178.7010  143.6200 C   0  0  0  0  0  3  0  0  0  0  0  0
  182.8730  178.6310  142.4620 C   0  0  0  0  0  0  0  0  0  0  0  0
  184.9750  178.4040  143.8390 C   0  0  0  0  0  3  0  0  0  0  0  0
  184.7070  178.3590  140.8100 C   0  0  0  0  0  3  0  0  0  0  0  0
  185.6680  179.1780  141.6060 C   0  0  0  0  0  2  0  0  0  0  0  0
  182.6290  177.4180  140.3230 O   0  0  0  0  0  1  0  0  0  0  0  0
  191.6400  177.4200  141.2300 O   0  0  0  0  0  1  0  0  0  0  0  0
  190.3260  177.8050  140.9570 C   0  0  1  0  0  3  0  0  0  0  0  0
  190.2520  176.0250  139.4220 O   0  0  0  0  0  0  0  0  0  0  0  0
  189.8300  177.1340  139.7130 C   0  0  0  0  0  0  0  0  0  0  0  0
  188.8440  177.8230  138.8170 C   0  0  1  0  0  3  0  0  0  0  0  0
  189.0700  179.2010  138.8290 O   0  0  0  0  0  1  0  0  0  0  0  0
  188.9480  177.2880  137.3980 C   0  0  0  0  0  2  0  0  0  0  0  0
  187.5110  175.1600  136.9990 S   0  0  0  0  0  0  0  0  0  0  0  0
  185.0740  176.3200  136.2470 C   0  0  0  0  0  2  0  0  0  0  0  0
  185.2630  177.4830  137.2220 C   0  0  0  0  0  2  0  0  0  0  0  0
  186.6640  177.5040  137.8350 C   0  0  0  0  0  2  0  0  0  0  0  0
  185.6860  175.0390  136.7990 C   0  0  0  0  0  2  0  0  0  0  0  0
  187.6290  176.9320  136.9060 N   0  0  0  0  0  0  0  0  0  0  0  0
  1  9  1  0  0  0  0
  2  7  1  0  0  0  0
  3  2  2  0  0  0  0
  3  6  1  0  0  0  0
  5  6  2  0  0  0  0
  6  1  1  0  0  0  0
  7  8  2  0  0  0  0
  8  9  1  0  0  0  0
  9  4  1  1  0  0  0
 10  7  1  0  0  0  0
 10 15  2  0  0  0  0
 11 14  1  0  0  0  0
 13 15  1  0  0  0  0
 14 12  1  0  0  0  0
 14 13  2  0  0  0  0
 16 11  2  0  0  0  0
 16 17  1  0  0  0  0
 17 10  1  0  0  0  0
 18 11  1  0  0  0  0
 20 19  1  1  0  0  0
 20  3  1  0  0  0  0
 21 22  2  0  0  0  0
 22 20  1  0  0  0  0
 23 24  1  6  0  0  0
 23 22  1  0  0  0  0
 25 23  1  0  0  0  0
 27 30  1  0  0  0  0
 27 28  1  0  0  0  0
 28 29  1  0  0  0  0
 30 26  1  0  0  0  0
 31 26  1  0  0  0  0
 31 25  1  0  0  0  0
 31 29  1  0  0  0  0
M  END
>  <MODEL>
5

>  <REMARK>
 VINA RESULT:      -8.1      2.296      3.400
  Name = 
  6 active torsions:
  status: ('A' for Active; 'I' for Inactive)
    1  A    between atoms: C_3  and  C_14
    2  A    between atoms: C_8  and  C_18
    3  A    between atoms: C_18  and  C_26
    4  A    between atoms: C_19  and  C_26
    5  A    between atoms: C_19  and  C_31
    6  A    between atoms: N_29  and  C_31
                            x       y       z     vdW  Elec       q    Type
                         _______ _______ _______ _____ _____    ______ ____

>  <TORSDO>
F 6

$$$$
=
 OpenBabel10222415303D

 31 33  0  0  1  0  0  0  0  0999 V2000
  188.1730  178.7360  139.7860 N   0  0  0  0  0  2  0  0  0  0  0  0
  190.0330  176.6790  141.0250 N   0  0  0  0  0  0  0  0  0  0  0  0
  189.9940  176.9670  139.7520 C   0  0  0  0  0  0  0  0  0  0  0  0
  186.1640  178.8080  141.1330 C   0  0  0  0  0  1  0  0  0  0  0  0
  189.8440  178.7370  138.1870 O   0  0  0  0  0  0  0  0  0  0  0  0
  189.3560  178.1870  139.2100 C   0  0  0  0  0  0  0  0  0  0  0  0
  189.4610  177.3880  142.1440 C   0  0  0  0  0  0  0  0  0  0  0  0
  188.2810  178.0130  142.0700 C   0  0  0  0  0  3  0  0  0  0  0  0
  187.4460  178.0580  140.8400 C   0  0  2  0  0  3  0  0  0  0  0  0
  190.1580  177.3220  143.4520 C   0  0  0  0  0  0  0  0  0  0  0  0
  190.0350  177.0720  146.5200 C   0  0  0  0  0  0  0  0  0  0  0  0
  192.2230  176.0360  147.3230 C   0  0  0  0  0  1  0  0  0  0  0  0
  191.7150  176.0670  144.9640 C   0  0  0  0  0  3  0  0  0  0  0  0
  191.3360  176.4350  146.1960 C   0  0  0  0  0  0  0  0  0  0  0  0
  190.9840  176.3000  143.7010 C   0  0  0  0  0  3  0  0  0  0  0  0
  189.4290  177.9550  145.7250 C   0  0  0  0  0  3  0  0  0  0  0  0
  190.0160  178.4400  144.4410 C   0  0  0  0  0  2  0  0  0  0  0  0
  189.4210  176.7550  147.7260 O   0  0  0  0  0  1  0  0  0  0  0  0
  190.0620  176.0410  137.5570 O   0  0  0  0  0  1  0  0  0  0  0  0
  190.7130  176.0650  138.7920 C   0  0  1  0  0  3  0  0  0  0  0  0
  192.6770  177.1600  139.4820 O   0  0  0  0  0  0  0  0  0  0  0  0
  192.1450  176.4720  138.6240 C   0  0  0  0  0  0  0  0  0  0  0  0
  192.9150  176.0620  137.4040 C   0  0  1  0  0  3  0  0  0  0  0  0
  193.8670  177.0350  137.0920 O   0  0  0  0  0  1  0  0  0  0  0  0
  193.5920  174.7200  137.6260 C   0  0  0  0  0  2  0  0  0  0  0  0
  195.8060  174.2340  138.8980 S   0  0  0  0  0  0  0  0  0  0  0  0
  197.6830  174.8450  136.9100 C   0  0  0  0  0  2  0  0  0  0  0  0
  196.7790  174.2930  135.8070 C   0  0  0  0  0  2  0  0  0  0  0  0
  195.3750  173.9690  136.3180 C   0  0  0  0  0  2  0  0  0  0  0  0
  197.5030  174.0660  138.2060 C   0  0  0  0  0  2  0  0  0  0  0  0
  195.0240  174.8490  137.4230 N   0  0  0  0  0  0  0  0  0  0  0  0
  1  9  1  0  0  0  0
  2  7  1  0  0  0  0
  3  2  2  0  0  0  0
  5  6  2  0  0  0  0
  6  3  1  0  0  0  0
  6  1  1  0  0  0  0
  7 10  1  0  0  0  0
  8  7  2  0  0  0  0
  9  4  1  1  0  0  0
  9  8  1  0  0  0  0
 10 15  2  0  0  0  0
 10 17  1  0  0  0  0
 11 18  1  0  0  0  0
 13 14  2  0  0  0  0
 14 11  1  0  0  0  0
 14 12  1  0  0  0  0
 15 13  1  0  0  0  0
 16 11  2  0  0  0  0
 17 16  1  0  0  0  0
 20 19  1  6  0  0  0
 20  3  1  0  0  0  0
 22 20  1  0  0  0  0
 22 21  2  0  0  0  0
 23 24  1  1  0  0  0
 23 25  1  0  0  0  0
 23 22  1  0  0  0  0
 27 30  1  0  0  0  0
 28 29  1  0  0  0  0
 28 27  1  0  0  0  0
 29 31  1  0  0  0  0
 30 26  1  0  0  0  0
 31 25  1  0  0  0  0
 31 26  1  0  0  0  0
M  END
>  <MODEL>
6

>  <REMARK>
 VINA RESULT:      -8.0      4.457      7.634
  Name = 
  6 active torsions:
  status: ('A' for Active; 'I' for Inactive)
    1  A    between atoms: C_3  and  C_14
    2  A    between atoms: C_8  and  C_18
    3  A    between atoms: C_18  and  C_26
    4  A    between atoms: C_19  and  C_26
    5  A    between atoms: C_19  and  C_31
    6  A    between atoms: N_29  and  C_31
                            x       y       z     vdW  Elec       q    Type
                         _______ _______ _______ _____ _____    ______ ____

>  <TORSDO>
F 6

$$$$
=
 OpenBabel10222415303D

 31 33  0  0  1  0  0  0  0  0999 V2000
  190.9540  177.2230  147.7970 N   0  0  0  0  0  2  0  0  0  0  0  0
  188.7720  177.2540  145.6840 N   0  0  0  0  0  0  0  0  0  0  0  0
  188.5750  177.4990  146.9510 C   0  0  0  0  0  0  0  0  0  0  0  0
  192.6310  175.6290  147.0900 C   0  0  0  0  0  1  0  0  0  0  0  0
  189.4410  178.6230  148.8470 O   0  0  0  0  0  0  0  0  0  0  0  0
  189.6650  177.8250  147.8980 C   0  0  0  0  0  0  0  0  0  0  0  0
  190.0080  177.1850  144.9430 C   0  0  0  0  0  0  0  0  0  0  0  0
  191.1310  176.6810  145.4670 C   0  0  0  0  0  3  0  0  0  0  0  0
  191.2310  176.1570  146.8560 C   0  0  2  0  0  3  0  0  0  0  0  0
  189.9990  177.5840  143.5150 C   0  0  0  0  0  0  0  0  0  0  0  0
  190.5260  176.8960  140.5590 C   0  0  0  0  0  0  0  0  0  0  0  0
  188.9850  178.3300  139.1190 C   0  0  0  0  0  1  0  0  0  0  0  0
  188.6510  178.2510  141.5080 C   0  0  0  0  0  3  0  0  0  0  0  0
  189.4060  177.8650  140.4690 C   0  0  0  0  0  0  0  0  0  0  0  0
  188.8340  177.8810  142.9270 C   0  0  0  0  0  3  0  0  0  0  0  0
  191.3590  176.8270  141.5980 C   0  0  0  0  0  3  0  0  0  0  0  0
  191.2890  177.7510  142.7680 C   0  0  0  0  0  2  0  0  0  0  0  0
  190.7400  176.0270  139.4960 O   0  0  0  0  0  1  0  0  0  0  0  0
  187.1460  177.7750  148.8380 O   0  0  0  0  0  1  0  0  0  0  0  0
  187.1650  177.5480  147.4600 C   0  0  1  0  0  3  0  0  0  0  0  0
  185.9450  179.5570  147.3650 O   0  0  0  0  0  0  0  0  0  0  0  0
  186.3580  178.5880  146.7450 C   0  0  0  0  0  0  0  0  0  0  0  0
  186.0350  178.4340  145.2890 C   0  0  1  0  0  3  0  0  0  0  0  0
  186.0440  177.0830  144.9380 O   0  0  0  0  0  1  0  0  0  0  0  0
  184.6800  179.0470  144.9750 C   0  0  0  0  0  2  0  0  0  0  0  0
  182.4930  178.9990  143.5720 S   0  0  0  0  0  0  0  0  0  0  0  0
  183.4620  177.9860  141.1460 C   0  0  0  0  0  2  0  0  0  0  0  0
  184.7840  178.7410  141.2940 C   0  0  0  0  0  2  0  0  0  0  0  0
  184.9360  179.3770  142.6770 C   0  0  0  0  0  2  0  0  0  0  0  0
  182.3100  178.7760  141.7550 C   0  0  0  0  0  2  0  0  0  0  0  0
  184.2220  178.5920  143.6740 N   0  0  0  0  0  0  0  0  0  0  0  0
  1  6  1  0  0  0  0
  2  3  2  0  0  0  0
  3 20  1  0  0  0  0
  3  6  1  0  0  0  0
  6  5  2  0  0  0  0
  7  8  2  0  0  0  0
  7  2  1  0  0  0  0
  8  9  1  0  0  0  0
  9  4  1  1  0  0  0
  9  1  1  0  0  0  0
 10  7  1  0  0  0  0
 11 16  2  0  0  0  0
 12 14  1  0  0  0  0
 13 15  1  0  0  0  0
 14 11  1  0  0  0  0
 14 13  2  0  0  0  0
 15 10  2  0  0  0  0
 16 17  1  0  0  0  0
 17 10  1  0  0  0  0
 18 11  1  0  0  0  0
 20 19  1  1  0  0  0
 22 21  2  0  0  0  0
 22 20  1  0  0  0  0
 23 24  1  1  0  0  0
 23 22  1  0  0  0  0
 25 23  1  0  0  0  0
 26 31  1  0  0  0  0
 27 28  1  0  0  0  0
 27 30  1  0  0  0  0
 28 29  1  0  0  0  0
 29 31  1  0  0  0  0
 30 26  1  0  0  0  0
 31 25  1  0  0  0  0
M  END
>  <MODEL>
7

>  <REMARK>
 VINA RESULT:      -7.9      2.943      6.761
  Name = 
  6 active torsions:
  status: ('A' for Active; 'I' for Inactive)
    1  A    between atoms: C_3  and  C_14
    2  A    between atoms: C_8  and  C_18
    3  A    between atoms: C_18  and  C_26
    4  A    between atoms: C_19  and  C_26
    5  A    between atoms: C_19  and  C_31
    6  A    between atoms: N_29  and  C_31
                            x       y       z     vdW  Elec       q    Type
                         _______ _______ _______ _____ _____    ______ ____

>  <TORSDO>
F 6

$$$$
=
 OpenBabel10222415303D

 31 33  0  0  1  0  0  0  0  0999 V2000
  187.7390  178.1910  147.0130 N   0  0  0  0  0  2  0  0  0  0  0  0
  186.6250  177.8260  144.2100 N   0  0  0  0  0  0  0  0  0  0  0  0
  185.9210  178.2140  145.2400 C   0  0  0  0  0  0  0  0  0  0  0  0
  189.5660  176.6270  147.2810 C   0  0  0  0  0  1  0  0  0  0  0  0
  185.9210  179.6150  147.1480 O   0  0  0  0  0  0  0  0  0  0  0  0
  186.5210  178.7200  146.4940 C   0  0  0  0  0  0  0  0  0  0  0  0
  188.0570  177.7420  144.0570 C   0  0  0  0  0  0  0  0  0  0  0  0
  188.8660  177.3760  145.0580 C   0  0  0  0  0  3  0  0  0  0  0  0
  188.3860  177.0360  146.4250 C   0  0  2  0  0  3  0  0  0  0  0  0
  188.6370  177.9590  142.7100 C   0  0  0  0  0  0  0  0  0  0  0  0
  190.1790  176.8760  140.2720 C   0  0  0  0  0  0  0  0  0  0  0  0
  189.4660  178.2120  138.2200 C   0  0  0  0  0  1  0  0  0  0  0  0
  188.2370  178.4520  140.2840 C   0  0  0  0  0  3  0  0  0  0  0  0
  189.2870  177.8940  139.6630 C   0  0  0  0  0  0  0  0  0  0  0  0
  187.8240  178.2520  141.6880 C   0  0  0  0  0  3  0  0  0  0  0  0
  190.5390  176.8860  141.5560 C   0  0  0  0  0  3  0  0  0  0  0  0
  190.1250  177.9510  142.5160 C   0  0  0  0  0  2  0  0  0  0  0  0
  190.6900  175.8700  139.4620 O   0  0  0  0  0  1  0  0  0  0  0  0
  183.8400  178.6560  146.3130 O   0  0  0  0  0  1  0  0  0  0  0  0
  184.4270  178.2390  145.1160 C   0  0  1  0  0  3  0  0  0  0  0  0
  184.3270  180.2830  143.9580 O   0  0  0  0  0  0  0  0  0  0  0  0
  183.9830  179.1110  143.9820 C   0  0  0  0  0  0  0  0  0  0  0  0
  183.1040  178.5620  142.8970 C   0  0  1  0  0  3  0  0  0  0  0  0
  181.8800  179.2340  142.8890 O   0  0  0  0  0  1  0  0  0  0  0  0
  183.7830  178.6940  141.5430 C   0  0  0  0  0  2  0  0  0  0  0  0
  183.3130  179.5030  139.1190 S   0  0  0  0  0  0  0  0  0  0  0  0
  181.1630  177.8420  138.4320 C   0  0  0  0  0  2  0  0  0  0  0  0
  181.7440  176.6680  139.2210 C   0  0  0  0  0  2  0  0  0  0  0  0
  182.9420  177.0820  140.0770 C   0  0  0  0  0  2  0  0  0  0  0  0
  182.2700  178.7000  137.8330 C   0  0  0  0  0  2  0  0  0  0  0  0
  182.8150  178.4750  140.4830 N   0  0  0  0  0  0  0  0  0  0  0  0
  2  3  2  0  0  0  0
  3  6  1  0  0  0  0
  6  1  1  0  0  0  0
  6  5  2  0  0  0  0
  7  2  1  0  0  0  0
  7  8  2  0  0  0  0
  8  9  1  0  0  0  0
  9  1  1  0  0  0  0
  9  4  1  1  0  0  0
 10  7  1  0  0  0  0
 11 16  2  0  0  0  0
 12 14  1  0  0  0  0
 13 15  1  0  0  0  0
 14 11  1  0  0  0  0
 14 13  2  0  0  0  0
 15 10  2  0  0  0  0
 16 17  1  0  0  0  0
 17 10  1  0  0  0  0
 18 11  1  0  0  0  0
 20  3  1  0  0  0  0
 20 19  1  1  0  0  0
 21 22  2  0  0  0  0
 22 20  1  0  0  0  0
 23 24  1  6  0  0  0
 23 22  1  0  0  0  0
 25 23  1  0  0  0  0
 26 31  1  0  0  0  0
 27 28  1  0  0  0  0
 28 29  1  0  0  0  0
 29 31  1  0  0  0  0
 30 27  1  0  0  0  0
 30 26  1  0  0  0  0
 31 25  1  0  0  0  0
M  END
>  <MODEL>
8

>  <REMARK>
 VINA RESULT:      -7.9      2.359      6.084
  Name = 
  6 active torsions:
  status: ('A' for Active; 'I' for Inactive)
    1  A    between atoms: C_3  and  C_14
    2  A    between atoms: C_8  and  C_18
    3  A    between atoms: C_18  and  C_26
    4  A    between atoms: C_19  and  C_26
    5  A    between atoms: C_19  and  C_31
    6  A    between atoms: N_29  and  C_31
                            x       y       z     vdW  Elec       q    Type
                         _______ _______ _______ _____ _____    ______ ____

>  <TORSDO>
F 6

$$$$
=
 OpenBabel10222415303D

 31 33  0  0  1  0  0  0  0  0999 V2000
  183.4790  177.4320  138.8720 N   0  0  0  0  0  2  0  0  0  0  0  0
  182.9700  178.9930  141.4280 N   0  0  0  0  0  0  0  0  0  0  0  0
  182.0320  178.5290  140.6480 C   0  0  0  0  0  0  0  0  0  0  0  0
  185.5830  178.1980  137.9570 C   0  0  0  0  0  1  0  0  0  0  0  0
  181.3540  176.6600  139.3610 O   0  0  0  0  0  0  0  0  0  0  0  0
  182.2650  177.4910  139.6180 C   0  0  0  0  0  0  0  0  0  0  0  0
  184.3790  178.6850  141.4530 C   0  0  0  0  0  0  0  0  0  0  0  0
  185.0820  178.4480  140.3390 C   0  0  0  0  0  3  0  0  0  0  0  0
  184.4930  178.4620  138.9730 C   0  0  2  0  0  3  0  0  0  0  0  0
  185.0930  178.7450  142.7520 C   0  0  0  0  0  0  0  0  0  0  0  0
  185.0400  178.5480  145.8260 C   0  0  0  0  0  0  0  0  0  0  0  0
  187.3600  177.8450  146.6190 C   0  0  0  0  0  1  0  0  0  0  0  0
  186.8260  177.7520  144.2670 C   0  0  0  0  0  3  0  0  0  0  0  0
  186.4140  178.0920  145.4970 C   0  0  0  0  0  0  0  0  0  0  0  0
  186.0560  177.8540  143.0100 C   0  0  0  0  0  3  0  0  0  0  0  0
  184.3080  179.3210  145.0210 C   0  0  0  0  0  3  0  0  0  0  0  0
  184.8070  179.8550  143.7200 C   0  0  0  0  0  2  0  0  0  0  0  0
  184.4900  178.1760  147.0460 O   0  0  0  0  0  1  0  0  0  0  0  0
  180.5290  179.7480  142.0380 O   0  0  0  0  0  1  0  0  0  0  0  0
  180.6240  178.9980  140.8640 C   0  0  1  0  0  3  0  0  0  0  0  0
  179.2580  179.3070  138.9750 O   0  0  0  0  0  0  0  0  0  0  0  0
  180.1210  179.7870  139.6940 C   0  0  0  0  0  0  0  0  0  0  0  0
  180.6850  181.1430  139.3910 C   0  0  1  0  0  3  0  0  0  0  0  0
  181.7630  181.0250  138.5110 O   0  0  0  0  0  1  0  0  0  0  0  0
  179.6170  182.0440  138.7930 C   0  0  0  0  0  2  0  0  0  0  0  0
  179.1110  182.1350  136.2450 S   0  0  0  0  0  0  0  0  0  0  0  0
  180.9240  184.1110  135.4330 C   0  0  0  0  0  2  0  0  0  0  0  0
  180.7330  184.8990  136.7300 C   0  0  0  0  0  2  0  0  0  0  0  0
  179.9220  184.1190  137.7660 C   0  0  0  0  0  2  0  0  0  0  0  0
  179.6350  183.4080  135.0250 C   0  0  0  0  0  2  0  0  0  0  0  0
  180.1280  182.6880  137.5960 N   0  0  0  0  0  0  0  0  0  0  0  0
  1  9  1  0  0  0  0
  1  6  1  0  0  0  0
  2  7  1  0  0  0  0
  3 20  1  0  0  0  0
  3  2  2  0  0  0  0
  5  6  2  0  0  0  0
  6  3  1  0  0  0  0
  7 10  1  0  0  0  0
  8  7  2  0  0  0  0
  9  4  1  6  0  0  0
  9  8  1  0  0  0  0
 10 15  2  0  0  0  0
 10 17  1  0  0  0  0
 11 18  1  0  0  0  0
 13 14  2  0  0  0  0
 14 11  1  0  0  0  0
 14 12  1  0  0  0  0
 15 13  1  0  0  0  0
 16 11  2  0  0  0  0
 17 16  1  0  0  0  0
 20 19  1  1  0  0  0
 21 22  2  0  0  0  0
 22 20  1  0  0  0  0
 23 24  1  6  0  0  0
 23 22  1  0  0  0  0
 25 23  1  0  0  0  0
 26 31  1  0  0  0  0
 27 28  1  0  0  0  0
 28 29  1  0  0  0  0
 30 27  1  0  0  0  0
 30 26  1  0  0  0  0
 31 29  1  0  0  0  0
 31 25  1  0  0  0  0
M  END
>  <MODEL>
9

>  <REMARK>
 VINA RESULT:      -7.8      4.166      6.519
  Name = 
  6 active torsions:
  status: ('A' for Active; 'I' for Inactive)
    1  A    between atoms: C_3  and  C_14
    2  A    between atoms: C_8  and  C_18
    3  A    between atoms: C_18  and  C_26
    4  A    between atoms: C_19  and  C_26
    5  A    between atoms: C_19  and  C_31
    6  A    between atoms: N_29  and  C_31
                            x       y       z     vdW  Elec       q    Type
                         _______ _______ _______ _____ _____    ______ ____

>  <TORSDO>
F 6

$$$$
