=
 OpenBabel10222421243D

 40 42  0  0  1  0  0  0  0  0999 V2000
  185.4620  178.0500  142.5160 C   0  0  0  0  0  2  0  0  0  0  0  0
  185.7700  178.3670  143.9750 C   0  0  0  0  0  2  0  0  0  0  0  0
  186.9210  177.5560  144.4730 C   0  0  0  0  0  0  0  0  0  0  0  0
  187.1500  176.4640  143.9790 O   0  0  0  0  0  0  0  0  0  0  0  0
  187.7540  178.0850  145.6050 C   0  0  1  0  0  3  0  0  0  0  0  0
  187.1420  177.7730  146.9610 C   0  0  0  0  0  1  0  0  0  0  0  0
  191.6400  175.8000  147.7020 C   0  0  0  0  0  1  0  0  0  0  0  0
  191.8950  176.9090  145.4810 C   0  0  0  0  0  3  0  0  0  0  0  0
  189.2020  177.6890  145.5070 C   0  0  0  0  0  0  0  0  0  0  0  0
  191.3720  177.6450  144.4150 C   0  0  0  0  0  3  0  0  0  0  0  0
  191.0800  176.5670  146.5600 C   0  0  0  0  0  0  0  0  0  0  0  0
  190.0310  178.0530  144.4190 C   0  0  0  0  0  0  0  0  0  0  0  0
  189.7420  176.9600  146.5730 C   0  0  0  0  0  3  0  0  0  0  0  0
  189.4730  178.7620  143.3010 N   0  0  0  0  0  2  0  0  0  0  0  0
  189.2840  178.3060  141.9560 C   0  0  0  0  0  0  0  0  0  0  0  0
  188.4950  178.9800  141.1860 N   0  0  0  0  0  2  0  0  0  0  0  0
  190.2380  175.6310  142.1020 O   0  0  0  0  0  1  0  0  0  0  0  0
  190.3520  177.0680  141.2120 P   0  0  1  0  0  0  0  0  0  0  0  0
  189.8370  176.7390  139.5010 C   0  0  0  0  0  1  0  0  0  0  0  0
  191.7860  177.5390  141.2290 O   0  0  0  0  0  0  0  0  0  0  0  0
  183.9600  177.9700  142.2620 C   0  0  2  0  0  3  0  0  0  0  0  0
  184.1940  179.0030  139.9310 C   0  0  1  0  0  3  0  0  0  0  0  0
  182.2050  178.1030  140.4170 C   0  0  2  0  0  3  0  0  0  0  0  0
  182.5490  179.5270  139.3290 S   0  0  0  0  0  0  0  0  0  0  0  0
  183.6620  177.8420  140.7560 C   0  0  2  0  0  3  0  0  0  0  0  0
  180.0400  176.5290  139.5540 S   0  0  0  0  0  0  0  0  0  0  0  0
  182.1750  174.0080  137.3200 S   0  0  0  0  0  0  0  0  0  0  0  0
  182.3520  176.1050  138.8740 N   0  0  0  0  0  0  0  0  0  0  0  0
  181.6390  176.9630  139.6330 C   0  0  0  0  0  0  0  0  0  0  0  0
  181.5500  175.1650  138.2860 C   0  0  0  0  0  0  0  0  0  0  0  0
  180.2130  175.2250  138.5370 N   0  0  0  0  0  2  0  0  0  0  0  0
  185.0780  178.4810  138.8350 C   0  0  0  0  0  0  0  0  0  0  0  0
  184.5230  177.8640  137.6710 N   0  0  0  0  0  2  0  0  0  0  0  0
  186.3270  178.5460  138.9790 O   0  0  0  0  0  0  0  0  0  0  0  0
  184.6910  177.3020  135.4110 O   0  0  0  0  0  1  0  0  0  0  0  0
  185.3390  177.2310  136.6470 C   0  0  2  0  0  3  0  0  0  0  0  0
  185.5490  175.7740  137.0130 C   0  0  0  0  0  1  0  0  0  0  0  0
  183.2720  179.1600  142.9270 C   0  0  0  0  0  2  0  0  0  0  0  0
  180.9580  178.7650  143.7490 C   0  0  0  0  0  1  0  0  0  0  0  0
  182.4280  178.7060  144.1100 C   0  0  0  0  0  2  0  0  0  0  0  0
  1  2  1  0  0  0  0
  2  3  1  0  0  0  0
  3  5  1  0  0  0  0
  4  3  2  0  0  0  0
  5  6  1  1  0  0  0
  8 11  1  0  0  0  0
  9  5  1  0  0  0  0
  9 13  1  0  0  0  0
 10 12  1  0  0  0  0
 10  8  2  0  0  0  0
 11 13  2  0  0  0  0
 11  7  1  0  0  0  0
 12  9  2  0  0  0  0
 14 12  1  0  0  0  0
 15 14  1  0  0  0  0
 16 15  2  0  0  0  0
 18 19  1  6  0  0  0
 18 20  2  0  0  0  0
 18 15  1  0  0  0  0
 18 17  1  0  0  0  0
 21  1  1  6  0  0  0
 21 38  1  0  0  0  0
 22 32  1  6  0  0  0
 22 25  1  0  0  0  0
 23 29  1  6  0  0  0
 23 25  1  0  0  0  0
 24 22  1  0  0  0  0
 24 23  1  0  0  0  0
 25 21  1  1  0  0  0
 26 29  1  0  0  0  0
 27 30  2  0  0  0  0
 28 29  2  0  0  0  0
 30 31  1  0  0  0  0
 30 28  1  0  0  0  0
 31 26  1  0  0  0  0
 32 34  2  0  0  0  0
 33 32  1  0  0  0  0
 35 36  1  0  0  0  0
 36 37  1  1  0  0  0
 36 33  1  0  0  0  0
 38 40  1  0  0  0  0
 39 40  1  0  0  0  0
M  END
>  <MODEL>
1

>  <REMARK>
 VINA RESULT:      -7.9      0.000      0.000
  Name = 
  13 active torsions:
  status: ('A' for Active; 'I' for Inactive)
    1  A    between atoms: C_2  and  C_12
    2  A    between atoms: C_2  and  C_23
    3  A    between atoms: C_3  and  C_8
    4  A    between atoms: C_6  and  C_30
    5  A    between atoms: C_7  and  C_11
    6  A    between atoms: C_11  and  C_12
    7  A    between atoms: N_18  and  C_25
    8  A    between atoms: C_19  and  P_20
    9  A    between atoms: C_22  and  N_27
   10  A    between atoms: C_23  and  C_29
   11  A    between atoms: C_28  and  C_29
   12  A    between atoms: C_29  and  C_36
   13  A    between atoms: C_33  and  C_36
                            x       y       z     vdW  Elec       q    Type
                         _______ _______ _______ _____ _____    ______ ____

>  <TORSDO>
F 13

$$$$
=
 OpenBabel10222421243D

 40 42  0  0  1  0  0  0  0  0999 V2000
  185.2090  177.9970  142.1740 C   0  0  0  0  0  2  0  0  0  0  0  0
  185.5990  178.4500  143.5760 C   0  0  0  0  0  2  0  0  0  0  0  0
  186.7230  177.6280  144.1170 C   0  0  0  0  0  0  0  0  0  0  0  0
  186.9590  176.5330  143.6320 O   0  0  0  0  0  0  0  0  0  0  0  0
  187.5190  178.1500  145.2780 C   0  0  1  0  0  3  0  0  0  0  0  0
  186.8900  177.7870  146.6130 C   0  0  0  0  0  1  0  0  0  0  0  0
  191.4670  176.0750  147.4740 C   0  0  0  0  0  1  0  0  0  0  0  0
  191.6950  177.1000  145.2100 C   0  0  0  0  0  3  0  0  0  0  0  0
  188.9790  177.7960  145.1990 C   0  0  0  0  0  0  0  0  0  0  0  0
  191.1520  177.7750  144.1150 C   0  0  0  0  0  3  0  0  0  0  0  0
  190.8880  176.7770  146.3010 C   0  0  0  0  0  0  0  0  0  0  0  0
  189.7990  178.1410  144.0990 C   0  0  0  0  0  0  0  0  0  0  0  0
  189.5380  177.1280  146.2950 C   0  0  0  0  0  3  0  0  0  0  0  0
  189.2230  178.7860  142.9520 N   0  0  0  0  0  2  0  0  0  0  0  0
  189.0940  178.2870  141.6150 C   0  0  0  0  0  0  0  0  0  0  0  0
  188.2820  178.8910  140.8120 N   0  0  0  0  0  2  0  0  0  0  0  0
  190.2690  175.7120  141.8940 O   0  0  0  0  0  1  0  0  0  0  0  0
  190.2550  177.1020  140.9260 P   0  0  1  0  0  0  0  0  0  0  0  0
  189.7530  176.6360  139.2420 C   0  0  0  0  0  1  0  0  0  0  0  0
  191.6440  177.6900  140.8970 O   0  0  0  0  0  0  0  0  0  0  0  0
  183.7120  178.1510  141.9280 C   0  0  2  0  0  3  0  0  0  0  0  0
  182.0070  178.8830  140.1630 C   0  0  1  0  0  3  0  0  0  0  0  0
  183.2610  177.1030  139.6470 C   0  0  2  0  0  3  0  0  0  0  0  0
  181.5450  177.4460  139.1310 S   0  0  0  0  0  0  0  0  0  0  0  0
  183.4210  178.3920  140.4340 C   0  0  2  0  0  3  0  0  0  0  0  0
  184.0540  176.1070  137.1400 S   0  0  0  0  0  0  0  0  0  0  0  0
  187.2340  178.4720  136.6970 S   0  0  0  0  0  0  0  0  0  0  0  0
  185.2550  177.8910  138.3070 N   0  0  0  0  0  0  0  0  0  0  0  0
  184.1770  177.0950  138.4660 C   0  0  0  0  0  0  0  0  0  0  0  0
  185.8960  177.6420  137.1230 C   0  0  0  0  0  0  0  0  0  0  0  0
  185.3820  176.6740  136.3150 N   0  0  0  0  0  2  0  0  0  0  0  0
  182.0590  180.1670  139.3870 C   0  0  0  0  0  0  0  0  0  0  0  0
  180.8650  180.8950  139.0860 N   0  0  0  0  0  2  0  0  0  0  0  0
  183.1700  180.5720  138.9550 O   0  0  0  0  0  0  0  0  0  0  0  0
  179.7590  182.8800  138.5510 O   0  0  0  0  0  1  0  0  0  0  0  0
  180.8530  182.0710  138.2300 C   0  0  2  0  0  3  0  0  0  0  0  0
  180.7350  181.6300  136.7840 C   0  0  0  0  0  1  0  0  0  0  0  0
  183.1580  179.2380  142.8470 C   0  0  0  0  0  2  0  0  0  0  0  0
  180.8270  178.8460  143.6180 C   0  0  0  0  0  1  0  0  0  0  0  0
  182.2910  178.6320  143.9410 C   0  0  0  0  0  2  0  0  0  0  0  0
  1  2  1  0  0  0  0
  2  3  1  0  0  0  0
  3  5  1  0  0  0  0
  4  3  2  0  0  0  0
  5  6  1  1  0  0  0
  8 11  1  0  0  0  0
  9  5  1  0  0  0  0
  9 13  1  0  0  0  0
 10  8  2  0  0  0  0
 11  7  1  0  0  0  0
 12 10  1  0  0  0  0
 12  9  2  0  0  0  0
 13 11  2  0  0  0  0
 14 12  1  0  0  0  0
 15 14  1  0  0  0  0
 16 15  2  0  0  0  0
 18 19  1  6  0  0  0
 18 15  1  0  0  0  0
 18 17  1  0  0  0  0
 20 18  2  0  0  0  0
 21  1  1  6  0  0  0
 21 38  1  0  0  0  0
 22 32  1  6  0  0  0
 22 25  1  0  0  0  0
 23 29  1  6  0  0  0
 23 25  1  0  0  0  0
 24 23  1  0  0  0  0
 24 22  1  0  0  0  0
 25 21  1  1  0  0  0
 26 29  1  0  0  0  0
 27 30  2  0  0  0  0
 28 29  2  0  0  0  0
 30 28  1  0  0  0  0
 31 30  1  0  0  0  0
 31 26  1  0  0  0  0
 33 32  1  0  0  0  0
 34 32  2  0  0  0  0
 36 37  1  6  0  0  0
 36 35  1  0  0  0  0
 36 33  1  0  0  0  0
 38 40  1  0  0  0  0
 39 40  1  0  0  0  0
M  END
>  <MODEL>
2

>  <REMARK>
 VINA RESULT:      -7.6      2.305      3.100
  Name = 
  13 active torsions:
  status: ('A' for Active; 'I' for Inactive)
    1  A    between atoms: C_2  and  C_12
    2  A    between atoms: C_2  and  C_23
    3  A    between atoms: C_3  and  C_8
    4  A    between atoms: C_6  and  C_30
    5  A    between atoms: C_7  and  C_11
    6  A    between atoms: C_11  and  C_12
    7  A    between atoms: N_18  and  C_25
    8  A    between atoms: C_19  and  P_20
    9  A    between atoms: C_22  and  N_27
   10  A    between atoms: C_23  and  C_29
   11  A    between atoms: C_28  and  C_29
   12  A    between atoms: C_29  and  C_36
   13  A    between atoms: C_33  and  C_36
                            x       y       z     vdW  Elec       q    Type
                         _______ _______ _______ _____ _____    ______ ____

>  <TORSDO>
F 13

$$$$
=
 OpenBabel10222421243D

 40 42  0  0  1  0  0  0  0  0999 V2000
  183.0840  178.2750  140.1890 C   0  0  0  0  0  2  0  0  0  0  0  0
  184.0060  177.9100  141.3470 C   0  0  0  0  0  2  0  0  0  0  0  0
  185.2850  178.6790  141.2810 C   0  0  0  0  0  0  0  0  0  0  0  0
  185.2940  179.7970  140.7930 O   0  0  0  0  0  0  0  0  0  0  0  0
  186.5490  178.0410  141.7820 C   0  0  1  0  0  3  0  0  0  0  0  0
  187.7910  178.7690  141.2930 C   0  0  0  0  0  1  0  0  0  0  0  0
  184.4700  179.0520  146.1840 C   0  0  0  0  0  1  0  0  0  0  0  0
  186.4370  177.5210  146.0560 C   0  0  0  0  0  3  0  0  0  0  0  0
  186.5460  177.8160  143.2700 C   0  0  0  0  0  0  0  0  0  0  0  0
  187.4240  176.8590  145.3220 C   0  0  0  0  0  3  0  0  0  0  0  0
  185.5090  178.3330  145.4030 C   0  0  0  0  0  0  0  0  0  0  0  0
  187.5000  177.0060  143.9310 C   0  0  0  0  0  0  0  0  0  0  0  0
  185.5680  178.4810  144.0180 C   0  0  0  0  0  3  0  0  0  0  0  0
  188.4780  176.2840  143.1660 N   0  0  0  0  0  2  0  0  0  0  0  0
  189.8900  176.1840  143.3860 C   0  0  0  0  0  0  0  0  0  0  0  0
  190.5410  175.2500  142.7740 N   0  0  0  0  0  2  0  0  0  0  0  0
  189.8770  178.8980  144.2330 O   0  0  0  0  0  1  0  0  0  0  0  0
  190.8240  177.4950  144.1820 P   0  0  1  0  0  0  0  0  0  0  0  0
  191.2540  177.0190  145.8820 C   0  0  0  0  0  1  0  0  0  0  0  0
  192.0840  177.7840  143.4020 O   0  0  0  0  0  0  0  0  0  0  0  0
  182.3120  177.0610  139.6810 C   0  0  2  0  0  3  0  0  0  0  0  0
  183.6940  177.5840  137.5900 C   0  0  1  0  0  3  0  0  0  0  0  0
  181.8830  176.3080  137.2830 C   0  0  2  0  0  3  0  0  0  0  0  0
  182.6200  177.4980  136.1130 S   0  0  0  0  0  0  0  0  0  0  0  0
  182.9210  176.5310  138.3680 C   0  0  2  0  0  3  0  0  0  0  0  0
  181.0580  174.2730  135.5260 S   0  0  0  0  0  0  0  0  0  0  0  0
  183.5690  171.4770  136.8620 S   0  0  0  0  0  0  0  0  0  0  0  0
  182.8210  173.9620  137.1940 N   0  0  0  0  0  0  0  0  0  0  0  0
  181.9760  174.9150  136.7490 C   0  0  0  0  0  0  0  0  0  0  0  0
  182.6630  172.7870  136.5090 C   0  0  0  0  0  0  0  0  0  0  0  0
  181.7210  172.7480  135.5260 N   0  0  0  0  0  2  0  0  0  0  0  0
  185.0890  177.0930  137.3270 C   0  0  0  0  0  0  0  0  0  0  0  0
  186.2280  177.8330  137.7740 N   0  0  0  0  0  2  0  0  0  0  0  0
  185.2460  176.0390  136.6560 O   0  0  0  0  0  0  0  0  0  0  0  0
  188.1550  176.7130  138.4670 O   0  0  0  0  0  1  0  0  0  0  0  0
  187.5930  177.4650  137.4320 C   0  0  2  0  0  3  0  0  0  0  0  0
  188.4110  178.7270  137.2340 C   0  0  0  0  0  1  0  0  0  0  0  0
  180.8300  177.4140  139.5740 C   0  0  0  0  0  2  0  0  0  0  0  0
  180.0580  175.1550  140.2700 C   0  0  0  0  0  1  0  0  0  0  0  0
  180.0130  176.6340  140.5950 C   0  0  0  0  0  2  0  0  0  0  0  0
  1  2  1  0  0  0  0
  3  2  1  0  0  0  0
  3  5  1  0  0  0  0
  4  3  2  0  0  0  0
  5  6  1  1  0  0  0
  5  9  1  0  0  0  0
  9 12  2  0  0  0  0
  9 13  1  0  0  0  0
 10  8  2  0  0  0  0
 11  8  1  0  0  0  0
 11  7  1  0  0  0  0
 12 10  1  0  0  0  0
 13 11  2  0  0  0  0
 14 15  1  0  0  0  0
 14 12  1  0  0  0  0
 15 18  1  0  0  0  0
 16 15  2  0  0  0  0
 18 17  1  0  0  0  0
 18 19  1  1  0  0  0
 20 18  2  0  0  0  0
 21 38  1  6  0  0  0
 21  1  1  0  0  0  0
 22 32  1  6  0  0  0
 22 25  1  0  0  0  0
 23 29  1  6  0  0  0
 23 25  1  0  0  0  0
 24 23  1  0  0  0  0
 24 22  1  0  0  0  0
 25 21  1  1  0  0  0
 26 31  1  0  0  0  0
 26 29  1  0  0  0  0
 29 28  2  0  0  0  0
 30 27  2  0  0  0  0
 30 28  1  0  0  0  0
 31 30  1  0  0  0  0
 32 33  1  0  0  0  0
 34 32  2  0  0  0  0
 36 37  1  1  0  0  0
 36 33  1  0  0  0  0
 36 35  1  0  0  0  0
 38 40  1  0  0  0  0
 39 40  1  0  0  0  0
M  END
>  <MODEL>
3

>  <REMARK>
 VINA RESULT:      -7.4      2.264      4.109
  Name = 
  13 active torsions:
  status: ('A' for Active; 'I' for Inactive)
    1  A    between atoms: C_2  and  C_12
    2  A    between atoms: C_2  and  C_23
    3  A    between atoms: C_3  and  C_8
    4  A    between atoms: C_6  and  C_30
    5  A    between atoms: C_7  and  C_11
    6  A    between atoms: C_11  and  C_12
    7  A    between atoms: N_18  and  C_25
    8  A    between atoms: C_19  and  P_20
    9  A    between atoms: C_22  and  N_27
   10  A    between atoms: C_23  and  C_29
   11  A    between atoms: C_28  and  C_29
   12  A    between atoms: C_29  and  C_36
   13  A    between atoms: C_33  and  C_36
                            x       y       z     vdW  Elec       q    Type
                         _______ _______ _______ _____ _____    ______ ____

>  <TORSDO>
F 13

$$$$
=
 OpenBabel10222421243D

 40 42  0  0  1  0  0  0  0  0999 V2000
  182.9720  179.0250  142.5360 C   0  0  0  0  0  2  0  0  0  0  0  0
  183.9330  178.0390  141.8820 C   0  0  0  0  0  2  0  0  0  0  0  0
  185.2480  178.6820  141.5850 C   0  0  0  0  0  0  0  0  0  0  0  0
  185.2790  179.7450  140.9870 O   0  0  0  0  0  0  0  0  0  0  0  0
  186.5130  177.9840  141.9940 C   0  0  1  0  0  3  0  0  0  0  0  0
  187.7470  178.6350  141.3910 C   0  0  0  0  0  1  0  0  0  0  0  0
  184.7790  179.0830  146.5220 C   0  0  0  0  0  1  0  0  0  0  0  0
  186.7200  177.5350  146.2720 C   0  0  0  0  0  3  0  0  0  0  0  0
  186.6210  177.7830  143.4810 C   0  0  0  0  0  0  0  0  0  0  0  0
  187.6440  176.8520  145.4780 C   0  0  0  0  0  3  0  0  0  0  0  0
  185.7510  178.3430  145.6780 C   0  0  0  0  0  0  0  0  0  0  0  0
  187.6160  176.9760  144.0820 C   0  0  0  0  0  0  0  0  0  0  0  0
  185.7070  178.4680  144.2900 C   0  0  0  0  0  3  0  0  0  0  0  0
  188.5290  176.2330  143.2580 N   0  0  0  0  0  2  0  0  0  0  0  0
  189.9550  176.1470  143.3550 C   0  0  0  0  0  0  0  0  0  0  0  0
  190.5560  175.1960  142.7190 N   0  0  0  0  0  2  0  0  0  0  0  0
  190.0220  178.9080  144.0320 O   0  0  0  0  0  1  0  0  0  0  0  0
  190.9460  177.4890  144.0230 P   0  0  1  0  0  0  0  0  0  0  0  0
  191.4530  177.1100  145.7260 C   0  0  0  0  0  1  0  0  0  0  0  0
  192.1700  177.7080  143.1660 O   0  0  0  0  0  0  0  0  0  0  0  0
  181.5180  178.6900  142.2180 C   0  0  2  0  0  3  0  0  0  0  0  0
  180.3550  179.5120  140.0900 C   0  0  1  0  0  3  0  0  0  0  0  0
  180.4610  177.2950  140.3640 C   0  0  2  0  0  3  0  0  0  0  0  0
  179.1530  178.2540  139.5290 S   0  0  0  0  0  0  0  0  0  0  0  0
  181.3150  178.5040  140.7020 C   0  0  2  0  0  3  0  0  0  0  0  0
  182.7250  176.5970  138.8500 S   0  0  0  0  0  0  0  0  0  0  0  0
  181.1330  173.3840  137.1060 S   0  0  0  0  0  0  0  0  0  0  0  0
  180.6400  175.3190  138.7960 N   0  0  0  0  0  0  0  0  0  0  0  0
  181.1700  176.4090  139.3910 C   0  0  0  0  0  0  0  0  0  0  0  0
  181.5350  174.7200  137.9500 C   0  0  0  0  0  0  0  0  0  0  0  0
  182.7700  175.2810  137.8350 N   0  0  0  0  0  2  0  0  0  0  0  0
  181.0290  180.2240  138.9530 C   0  0  0  0  0  0  0  0  0  0  0  0
  180.2670  180.9180  137.9620 N   0  0  0  0  0  2  0  0  0  0  0  0
  182.2820  180.1590  138.8520 O   0  0  0  0  0  0  0  0  0  0  0  0
  180.2620  182.7420  136.5040 O   0  0  0  0  0  1  0  0  0  0  0  0
  180.8660  181.5110  136.7760 C   0  0  2  0  0  3  0  0  0  0  0  0
  180.6530  180.5820  135.5960 C   0  0  0  0  0  1  0  0  0  0  0  0
  180.6090  179.7500  142.8360 C   0  0  0  0  0  2  0  0  0  0  0  0
  179.9520  177.8330  144.2780 C   0  0  0  0  0  1  0  0  0  0  0  0
  179.4670  179.1020  143.6060 C   0  0  0  0  0  2  0  0  0  0  0  0
  2  1  1  0  0  0  0
  3  2  1  0  0  0  0
  3  5  1  0  0  0  0
  4  3  2  0  0  0  0
  5  6  1  1  0  0  0
  5  9  1  0  0  0  0
  9 12  2  0  0  0  0
  9 13  1  0  0  0  0
 10  8  2  0  0  0  0
 11  8  1  0  0  0  0
 11  7  1  0  0  0  0
 12 10  1  0  0  0  0
 13 11  2  0  0  0  0
 14 15  1  0  0  0  0
 14 12  1  0  0  0  0
 15 18  1  0  0  0  0
 16 15  2  0  0  0  0
 18 17  1  0  0  0  0
 18 19  1  1  0  0  0
 20 18  2  0  0  0  0
 21  1  1  6  0  0  0
 21 38  1  0  0  0  0
 22 32  1  6  0  0  0
 22 25  1  0  0  0  0
 23 29  1  6  0  0  0
 23 25  1  0  0  0  0
 24 22  1  0  0  0  0
 24 23  1  0  0  0  0
 25 21  1  1  0  0  0
 26 29  1  0  0  0  0
 27 30  2  0  0  0  0
 28 29  2  0  0  0  0
 30 28  1  0  0  0  0
 31 30  1  0  0  0  0
 31 26  1  0  0  0  0
 33 32  1  0  0  0  0
 34 32  2  0  0  0  0
 35 36  1  0  0  0  0
 36 37  1  6  0  0  0
 36 33  1  0  0  0  0
 38 40  1  0  0  0  0
 40 39  1  0  0  0  0
M  END
>  <MODEL>
4

>  <REMARK>
 VINA RESULT:      -7.3      2.621      4.078
  Name = 
  13 active torsions:
  status: ('A' for Active; 'I' for Inactive)
    1  A    between atoms: C_2  and  C_12
    2  A    between atoms: C_2  and  C_23
    3  A    between atoms: C_3  and  C_8
    4  A    between atoms: C_6  and  C_30
    5  A    between atoms: C_7  and  C_11
    6  A    between atoms: C_11  and  C_12
    7  A    between atoms: N_18  and  C_25
    8  A    between atoms: C_19  and  P_20
    9  A    between atoms: C_22  and  N_27
   10  A    between atoms: C_23  and  C_29
   11  A    between atoms: C_28  and  C_29
   12  A    between atoms: C_29  and  C_36
   13  A    between atoms: C_33  and  C_36
                            x       y       z     vdW  Elec       q    Type
                         _______ _______ _______ _____ _____    ______ ____

>  <TORSDO>
F 13

$$$$
=
 OpenBabel10222421243D

 40 42  0  0  1  0  0  0  0  0999 V2000
  182.9890  178.9460  141.8630 C   0  0  0  0  0  2  0  0  0  0  0  0
  184.0840  177.9830  141.4180 C   0  0  0  0  0  2  0  0  0  0  0  0
  185.3900  178.6890  141.2520 C   0  0  0  0  0  0  0  0  0  0  0  0
  185.4280  179.7600  140.6680 O   0  0  0  0  0  0  0  0  0  0  0  0
  186.6420  178.0450  141.7760 C   0  0  1  0  0  3  0  0  0  0  0  0
  187.8950  178.7760  141.3210 C   0  0  0  0  0  1  0  0  0  0  0  0
  184.4790  179.0380  146.1410 C   0  0  0  0  0  1  0  0  0  0  0  0
  186.4340  177.4900  146.0420 C   0  0  0  0  0  3  0  0  0  0  0  0
  186.6050  177.8080  143.2610 C   0  0  0  0  0  0  0  0  0  0  0  0
  187.4300  176.8250  145.3230 C   0  0  0  0  0  3  0  0  0  0  0  0
  185.5280  178.3160  145.3770 C   0  0  0  0  0  0  0  0  0  0  0  0
  187.5370  176.9830  143.9350 C   0  0  0  0  0  0  0  0  0  0  0  0
  185.6170  178.4760  143.9940 C   0  0  0  0  0  3  0  0  0  0  0  0
  188.5250  176.2590  143.1840 N   0  0  0  0  0  2  0  0  0  0  0  0
  189.9380  176.1800  143.4070 C   0  0  0  0  0  0  0  0  0  0  0  0
  190.6000  175.2420  142.8130 N   0  0  0  0  0  2  0  0  0  0  0  0
  189.8280  178.8490  144.3830 O   0  0  0  0  0  1  0  0  0  0  0  0
  190.8550  177.5180  144.1780 P   0  0  1  0  0  0  0  0  0  0  0  0
  191.4720  177.0000  145.8070 C   0  0  0  0  0  1  0  0  0  0  0  0
  192.0150  177.9260  143.3030 O   0  0  0  0  0  0  0  0  0  0  0  0
  181.6700  178.6670  141.1500 C   0  0  2  0  0  3  0  0  0  0  0  0
  180.7020  180.0750  139.2440 C   0  0  1  0  0  3  0  0  0  0  0  0
  181.2550  177.9690  138.7330 C   0  0  2  0  0  3  0  0  0  0  0  0
  179.9140  178.9760  138.0130 S   0  0  0  0  0  0  0  0  0  0  0  0
  181.7540  179.0610  139.6620 C   0  0  2  0  0  3  0  0  0  0  0  0
  182.0540  177.6220  136.0590 S   0  0  0  0  0  0  0  0  0  0  0  0
  185.8440  176.6590  136.8400 S   0  0  0  0  0  0  0  0  0  0  0  0
  183.5720  177.3220  137.9540 N   0  0  0  0  0  0  0  0  0  0  0  0
  182.2870  177.6490  137.7000 C   0  0  0  0  0  0  0  0  0  0  0  0
  184.2690  177.0780  136.8010 C   0  0  0  0  0  0  0  0  0  0  0  0
  183.5990  177.1930  135.6200 N   0  0  0  0  0  2  0  0  0  0  0  0
  181.3700  181.2660  138.6190 C   0  0  0  0  0  0  0  0  0  0  0  0
  180.6370  182.1720  137.7890 N   0  0  0  0  0  2  0  0  0  0  0  0
  182.6050  181.4310  138.7940 O   0  0  0  0  0  0  0  0  0  0  0  0
  181.9860  184.0710  137.9460 O   0  0  0  0  0  1  0  0  0  0  0  0
  181.2680  183.2620  137.0610 C   0  0  2  0  0  3  0  0  0  0  0  0
  180.1930  184.0950  136.3890 C   0  0  0  0  0  1  0  0  0  0  0  0
  180.5330  179.3510  141.9050 C   0  0  0  0  0  2  0  0  0  0  0  0
  179.2170  179.1880  144.0090 C   0  0  0  0  0  1  0  0  0  0  0  0
  180.5880  179.0140  143.3890 C   0  0  0  0  0  2  0  0  0  0  0  0
  2  1  1  0  0  0  0
  3  2  1  0  0  0  0
  3  5  1  0  0  0  0
  4  3  2  0  0  0  0
  5  6  1  1  0  0  0
  5  9  1  0  0  0  0
  9 12  2  0  0  0  0
  9 13  1  0  0  0  0
 10  8  2  0  0  0  0
 11  8  1  0  0  0  0
 11  7  1  0  0  0  0
 12 10  1  0  0  0  0
 13 11  2  0  0  0  0
 14 15  1  0  0  0  0
 14 12  1  0  0  0  0
 15 18  1  0  0  0  0
 16 15  2  0  0  0  0
 18 17  1  0  0  0  0
 18 19  1  1  0  0  0
 20 18  2  0  0  0  0
 21  1  1  1  0  0  0
 21 38  1  0  0  0  0
 22 32  1  6  0  0  0
 22 25  1  0  0  0  0
 23 29  1  6  0  0  0
 23 25  1  0  0  0  0
 24 23  1  0  0  0  0
 24 22  1  0  0  0  0
 25 21  1  1  0  0  0
 26 29  1  0  0  0  0
 29 28  2  0  0  0  0
 30 27  2  0  0  0  0
 30 28  1  0  0  0  0
 31 26  1  0  0  0  0
 31 30  1  0  0  0  0
 32 34  2  0  0  0  0
 33 32  1  0  0  0  0
 36 37  1  1  0  0  0
 36 33  1  0  0  0  0
 36 35  1  0  0  0  0
 38 40  1  0  0  0  0
 40 39  1  0  0  0  0
M  END
>  <MODEL>
5

>  <REMARK>
 VINA RESULT:      -7.1      3.026      4.562
  Name = 
  13 active torsions:
  status: ('A' for Active; 'I' for Inactive)
    1  A    between atoms: C_2  and  C_12
    2  A    between atoms: C_2  and  C_23
    3  A    between atoms: C_3  and  C_8
    4  A    between atoms: C_6  and  C_30
    5  A    between atoms: C_7  and  C_11
    6  A    between atoms: C_11  and  C_12
    7  A    between atoms: N_18  and  C_25
    8  A    between atoms: C_19  and  P_20
    9  A    between atoms: C_22  and  N_27
   10  A    between atoms: C_23  and  C_29
   11  A    between atoms: C_28  and  C_29
   12  A    between atoms: C_29  and  C_36
   13  A    between atoms: C_33  and  C_36
                            x       y       z     vdW  Elec       q    Type
                         _______ _______ _______ _____ _____    ______ ____

>  <TORSDO>
F 13

$$$$
=
 OpenBabel10222421243D

 40 42  0  0  1  0  0  0  0  0999 V2000
  182.8650  179.0050  141.8160 C   0  0  0  0  0  2  0  0  0  0  0  0
  184.0260  178.0430  142.0410 C   0  0  0  0  0  2  0  0  0  0  0  0
  185.3230  178.6540  141.6200 C   0  0  0  0  0  0  0  0  0  0  0  0
  185.3210  179.6460  140.9100 O   0  0  0  0  0  0  0  0  0  0  0  0
  186.6100  178.0080  142.0480 C   0  0  1  0  0  3  0  0  0  0  0  0
  187.8250  178.7150  141.4710 C   0  0  0  0  0  1  0  0  0  0  0  0
  184.8630  179.1380  146.5630 C   0  0  0  0  0  1  0  0  0  0  0  0
  186.7680  177.5430  146.3260 C   0  0  0  0  0  3  0  0  0  0  0  0
  186.6990  177.8000  143.5350 C   0  0  0  0  0  0  0  0  0  0  0  0
  187.6820  176.8400  145.5380 C   0  0  0  0  0  3  0  0  0  0  0  0
  185.8240  178.3770  145.7260 C   0  0  0  0  0  0  0  0  0  0  0  0
  187.6680  176.9680  144.1420 C   0  0  0  0  0  0  0  0  0  0  0  0
  185.7950  178.5060  144.3370 C   0  0  0  0  0  3  0  0  0  0  0  0
  188.5700  176.2050  143.3240 N   0  0  0  0  0  2  0  0  0  0  0  0
  189.9940  176.0940  143.4260 C   0  0  0  0  0  0  0  0  0  0  0  0
  190.5800  175.1290  142.7960 N   0  0  0  0  0  2  0  0  0  0  0  0
  190.0700  178.8260  144.2090 O   0  0  0  0  0  1  0  0  0  0  0  0
  191.0070  177.4210  144.0890 P   0  0  1  0  0  0  0  0  0  0  0  0
  191.6160  176.9810  145.7430 C   0  0  0  0  0  1  0  0  0  0  0  0
  192.1770  177.6910  143.1730 O   0  0  0  0  0  0  0  0  0  0  0  0
  181.6100  178.2730  141.3540 C   0  0  2  0  0  3  0  0  0  0  0  0
  182.0900  177.0680  139.1460 C   0  0  1  0  0  3  0  0  0  0  0  0
  182.4530  179.2750  139.1660 C   0  0  2  0  0  3  0  0  0  0  0  0
  183.3400  178.0080  138.1990 S   0  0  0  0  0  0  0  0  0  0  0  0
  181.4930  178.2950  139.8170 C   0  0  2  0  0  3  0  0  0  0  0  0
  180.9470  179.8000  136.8490 S   0  0  0  0  0  0  0  0  0  0  0  0
  180.5330  183.7200  137.4560 S   0  0  0  0  0  0  0  0  0  0  0  0
  181.5680  181.5360  138.4580 N   0  0  0  0  0  0  0  0  0  0  0  0
  181.7140  180.2080  138.2620 C   0  0  0  0  0  0  0  0  0  0  0  0
  180.8450  182.1190  137.4520 C   0  0  0  0  0  0  0  0  0  0  0  0
  180.3990  181.3170  136.4460 N   0  0  0  0  0  2  0  0  0  0  0  0
  181.0570  176.4220  138.2680 C   0  0  0  0  0  0  0  0  0  0  0  0
  181.4220  175.4190  137.3160 N   0  0  0  0  0  2  0  0  0  0  0  0
  179.8630  176.8140  138.3440 O   0  0  0  0  0  0  0  0  0  0  0  0
  179.6420  173.9430  136.9980 O   0  0  0  0  0  1  0  0  0  0  0  0
  180.4810  174.8590  136.3580 C   0  0  2  0  0  3  0  0  0  0  0  0
  181.2530  174.1450  135.2650 C   0  0  0  0  0  1  0  0  0  0  0  0
  180.3930  178.8530  142.0720 C   0  0  0  0  0  2  0  0  0  0  0  0
  179.3220  178.8030  144.3160 C   0  0  0  0  0  1  0  0  0  0  0  0
  180.6360  178.9300  143.5730 C   0  0  0  0  0  2  0  0  0  0  0  0
  1  2  1  0  0  0  0
  3  2  1  0  0  0  0
  3  5  1  0  0  0  0
  4  3  2  0  0  0  0
  5  6  1  1  0  0  0
  5  9  1  0  0  0  0
  9 12  2  0  0  0  0
  9 13  1  0  0  0  0
 10  8  2  0  0  0  0
 11  8  1  0  0  0  0
 11  7  1  0  0  0  0
 12 10  1  0  0  0  0
 13 11  2  0  0  0  0
 14 15  1  0  0  0  0
 14 12  1  0  0  0  0
 15 18  1  0  0  0  0
 16 15  2  0  0  0  0
 18 17  1  0  0  0  0
 18 19  1  1  0  0  0
 20 18  2  0  0  0  0
 21  1  1  6  0  0  0
 21 38  1  0  0  0  0
 22 32  1  6  0  0  0
 22 25  1  0  0  0  0
 23 29  1  6  0  0  0
 23 25  1  0  0  0  0
 24 22  1  0  0  0  0
 24 23  1  0  0  0  0
 25 21  1  1  0  0  0
 26 29  1  0  0  0  0
 29 28  2  0  0  0  0
 30 27  2  0  0  0  0
 30 28  1  0  0  0  0
 31 26  1  0  0  0  0
 31 30  1  0  0  0  0
 32 34  2  0  0  0  0
 33 32  1  0  0  0  0
 36 37  1  6  0  0  0
 36 35  1  0  0  0  0
 36 33  1  0  0  0  0
 38 40  1  0  0  0  0
 40 39  1  0  0  0  0
M  END
>  <MODEL>
6

>  <REMARK>
 VINA RESULT:      -7.0      2.790      4.589
  Name = 
  13 active torsions:
  status: ('A' for Active; 'I' for Inactive)
    1  A    between atoms: C_2  and  C_12
    2  A    between atoms: C_2  and  C_23
    3  A    between atoms: C_3  and  C_8
    4  A    between atoms: C_6  and  C_30
    5  A    between atoms: C_7  and  C_11
    6  A    between atoms: C_11  and  C_12
    7  A    between atoms: N_18  and  C_25
    8  A    between atoms: C_19  and  P_20
    9  A    between atoms: C_22  and  N_27
   10  A    between atoms: C_23  and  C_29
   11  A    between atoms: C_28  and  C_29
   12  A    between atoms: C_29  and  C_36
   13  A    between atoms: C_33  and  C_36
                            x       y       z     vdW  Elec       q    Type
                         _______ _______ _______ _____ _____    ______ ____

>  <TORSDO>
F 13

$$$$
=
 OpenBabel10222421243D

 40 42  0  0  1  0  0  0  0  0999 V2000
  188.8530  178.2840  139.5890 C   0  0  0  0  0  2  0  0  0  0  0  0
  188.2540  178.3860  140.9870 C   0  0  0  0  0  2  0  0  0  0  0  0
  189.1820  177.8290  142.0160 C   0  0  0  0  0  0  0  0  0  0  0  0
  190.3090  178.2840  142.1230 O   0  0  0  0  0  0  0  0  0  0  0  0
  188.7220  176.6850  142.8740 C   0  0  1  0  0  3  0  0  0  0  0  0
  189.8000  175.6280  143.0450 C   0  0  0  0  0  1  0  0  0  0  0  0
  189.4340  177.7730  147.6730 C   0  0  0  0  0  1  0  0  0  0  0  0
  187.1460  177.9230  146.6860 C   0  0  0  0  0  3  0  0  0  0  0  0
  188.1240  177.1330  144.1800 C   0  0  0  0  0  0  0  0  0  0  0  0
  186.2710  177.7950  145.6050 C   0  0  0  0  0  3  0  0  0  0  0  0
  188.5050  177.6540  146.5200 C   0  0  0  0  0  0  0  0  0  0  0  0
  186.7420  177.3880  144.3490 C   0  0  0  0  0  0  0  0  0  0  0  0
  188.9880  177.2560  145.2730 C   0  0  0  0  0  3  0  0  0  0  0  0
  185.8560  177.3080  143.2210 N   0  0  0  0  0  2  0  0  0  0  0  0
  184.7720  178.1770  142.8700 C   0  0  0  0  0  0  0  0  0  0  0  0
  184.3000  178.1110  141.6690 N   0  0  0  0  0  2  0  0  0  0  0  0
  184.5820  180.5720  144.3900 O   0  0  0  0  0  0  0  0  0  0  0  0
  183.8360  179.0780  144.1100 P   0  0  1  0  0  0  0  0  0  0  0  0
  182.1400  179.3720  143.5260 C   0  0  0  0  0  1  0  0  0  0  0  0
  183.8000  178.3000  145.4030 O   0  0  0  0  0  1  0  0  0  0  0  0
  187.9810  177.4430  138.6630 C   0  0  2  0  0  3  0  0  0  0  0  0
  190.1520  176.9500  137.3990 C   0  0  1  0  0  3  0  0  0  0  0  0
  188.2820  176.0940  136.5210 C   0  0  2  0  0  3  0  0  0  0  0  0
  189.7760  176.6520  135.6350 S   0  0  0  0  0  0  0  0  0  0  0  0
  188.8270  176.4030  137.9040 C   0  0  2  0  0  3  0  0  0  0  0  0
  189.2600  173.4570  136.4930 S   0  0  0  0  0  0  0  0  0  0  0  0
  185.7960  171.6980  135.5920 S   0  0  0  0  0  0  0  0  0  0  0  0
  186.9200  174.0160  136.0470 N   0  0  0  0  0  0  0  0  0  0  0  0
  188.0880  174.6210  136.3520 C   0  0  0  0  0  0  0  0  0  0  0  0
  187.0640  172.6580  135.9550 C   0  0  0  0  0  0  0  0  0  0  0  0
  188.3030  172.1360  136.1710 N   0  0  0  0  0  2  0  0  0  0  0  0
  191.2770  176.0950  137.9080 C   0  0  0  0  0  0  0  0  0  0  0  0
  192.5210  176.0180  137.2050 N   0  0  0  0  0  2  0  0  0  0  0  0
  191.0940  175.4010  138.9420 O   0  0  0  0  0  0  0  0  0  0  0  0
  194.8240  175.6340  137.1990 O   0  0  0  0  0  1  0  0  0  0  0  0
  193.5890  175.1080  137.5890 C   0  0  2  0  0  3  0  0  0  0  0  0
  193.3770  173.7760  136.8950 C   0  0  0  0  0  1  0  0  0  0  0  0
  187.1770  178.3670  137.7500 C   0  0  0  0  0  2  0  0  0  0  0  0
  184.8180  178.6250  138.4960 C   0  0  0  0  0  1  0  0  0  0  0  0
  185.7520  177.8570  137.5830 C   0  0  0  0  0  2  0  0  0  0  0  0
  1  2  1  0  0  0  0
  2  3  1  0  0  0  0
  3  4  2  0  0  0  0
  3  5  1  0  0  0  0
  5  6  1  1  0  0  0
  5  9  1  0  0  0  0
  9 12  2  0  0  0  0
  9 13  1  0  0  0  0
 10  8  2  0  0  0  0
 11  8  1  0  0  0  0
 11  7  1  0  0  0  0
 12 10  1  0  0  0  0
 13 11  2  0  0  0  0
 14 12  1  0  0  0  0
 15 14  1  0  0  0  0
 15 18  1  0  0  0  0
 16 15  2  0  0  0  0
 18 19  1  6  0  0  0
 18 17  2  0  0  0  0
 18 20  1  0  0  0  0
 21 38  1  6  0  0  0
 21  1  1  0  0  0  0
 22 25  1  0  0  0  0
 22 32  1  1  0  0  0
 23 29  1  1  0  0  0
 23 25  1  0  0  0  0
 24 23  1  0  0  0  0
 24 22  1  0  0  0  0
 25 21  1  6  0  0  0
 27 30  2  0  0  0  0
 28 29  2  0  0  0  0
 29 26  1  0  0  0  0
 30 28  1  0  0  0  0
 30 31  1  0  0  0  0
 31 26  1  0  0  0  0
 32 34  2  0  0  0  0
 33 36  1  0  0  0  0
 33 32  1  0  0  0  0
 35 36  1  0  0  0  0
 36 37  1  6  0  0  0
 40 38  1  0  0  0  0
 40 39  1  0  0  0  0
M  END
>  <MODEL>
7

>  <REMARK>
 VINA RESULT:      -7.0      3.708      6.395
  Name = 
  13 active torsions:
  status: ('A' for Active; 'I' for Inactive)
    1  A    between atoms: C_2  and  C_12
    2  A    between atoms: C_2  and  C_23
    3  A    between atoms: C_3  and  C_8
    4  A    between atoms: C_6  and  C_30
    5  A    between atoms: C_7  and  C_11
    6  A    between atoms: C_11  and  C_12
    7  A    between atoms: N_18  and  C_25
    8  A    between atoms: C_19  and  P_20
    9  A    between atoms: C_22  and  N_27
   10  A    between atoms: C_23  and  C_29
   11  A    between atoms: C_28  and  C_29
   12  A    between atoms: C_29  and  C_36
   13  A    between atoms: C_33  and  C_36
                            x       y       z     vdW  Elec       q    Type
                         _______ _______ _______ _____ _____    ______ ____

>  <TORSDO>
F 13

$$$$
=
 OpenBabel10222421243D

 40 42  0  0  1  0  0  0  0  0999 V2000
  182.7900  178.7680  140.9680 C   0  0  0  0  0  2  0  0  0  0  0  0
  184.0070  177.8520  140.9040 C   0  0  0  0  0  2  0  0  0  0  0  0
  185.2760  178.6300  141.0330 C   0  0  0  0  0  0  0  0  0  0  0  0
  185.3170  179.7880  140.6500 O   0  0  0  0  0  0  0  0  0  0  0  0
  186.4940  177.9550  141.5970 C   0  0  1  0  0  3  0  0  0  0  0  0
  187.7810  178.6290  141.1490 C   0  0  0  0  0  1  0  0  0  0  0  0
  184.1750  178.9960  145.8690 C   0  0  0  0  0  1  0  0  0  0  0  0
  186.1770  177.5060  145.8680 C   0  0  0  0  0  3  0  0  0  0  0  0
  186.4210  177.7560  143.0860 C   0  0  0  0  0  0  0  0  0  0  0  0
  187.2140  176.8530  145.1970 C   0  0  0  0  0  3  0  0  0  0  0  0
  185.2670  178.2870  145.1550 C   0  0  0  0  0  0  0  0  0  0  0  0
  187.3560  176.9780  143.8080 C   0  0  0  0  0  0  0  0  0  0  0  0
  185.3930  178.4120  143.7720 C   0  0  0  0  0  3  0  0  0  0  0  0
  188.3870  176.2640  143.1060 N   0  0  0  0  0  2  0  0  0  0  0  0
  189.7860  176.1880  143.4060 C   0  0  0  0  0  0  0  0  0  0  0  0
  190.4830  175.2590  142.8400 N   0  0  0  0  0  2  0  0  0  0  0  0
  189.7890  178.9620  144.0310 O   0  0  0  0  0  1  0  0  0  0  0  0
  190.6540  177.5210  144.2390 P   0  0  1  0  0  0  0  0  0  0  0  0
  190.7860  177.1710  146.0180 C   0  0  0  0  0  1  0  0  0  0  0  0
  192.0340  177.6910  143.6520 O   0  0  0  0  0  0  0  0  0  0  0  0
  182.0800  178.8560  139.6210 C   0  0  2  0  0  3  0  0  0  0  0  0
  182.7910  177.5160  137.5590 C   0  0  1  0  0  3  0  0  0  0  0  0
  180.7300  177.1200  138.3310 C   0  0  2  0  0  3  0  0  0  0  0  0
  181.3080  177.0370  136.6030 S   0  0  0  0  0  0  0  0  0  0  0  0
  182.0850  177.4920  138.9050 C   0  0  2  0  0  3  0  0  0  0  0  0
  180.0550  174.4290  137.8710 S   0  0  0  0  0  0  0  0  0  0  0  0
  179.3350  173.4850  141.6780 S   0  0  0  0  0  0  0  0  0  0  0  0
  180.0640  175.4390  140.0990 N   0  0  0  0  0  0  0  0  0  0  0  0
  180.3100  175.7690  138.8140 C   0  0  0  0  0  0  0  0  0  0  0  0
  179.6910  174.1280  140.2220 C   0  0  0  0  0  0  0  0  0  0  0  0
  179.6240  173.3790  139.0860 N   0  0  0  0  0  2  0  0  0  0  0  0
  183.8660  176.4670  137.5340 C   0  0  0  0  0  0  0  0  0  0  0  0
  183.5380  175.0760  137.4730 N   0  0  0  0  0  2  0  0  0  0  0  0
  185.0690  176.8280  137.6210 O   0  0  0  0  0  0  0  0  0  0  0  0
  185.5810  174.2710  136.6800 O   0  0  0  0  0  1  0  0  0  0  0  0
  184.5380  174.0240  137.5760 C   0  0  2  0  0  3  0  0  0  0  0  0
  183.8930  172.6950  137.2330 C   0  0  0  0  0  1  0  0  0  0  0  0
  182.6960  179.9860  138.7980 C   0  0  0  0  0  2  0  0  0  0  0  0
  180.4120  180.8480  139.2720 C   0  0  0  0  0  1  0  0  0  0  0  0
  181.6360  181.0000  138.3920 C   0  0  0  0  0  2  0  0  0  0  0  0
  2  1  1  0  0  0  0
  2  3  1  0  0  0  0
  3  5  1  0  0  0  0
  4  3  2  0  0  0  0
  5  6  1  1  0  0  0
  5  9  1  0  0  0  0
  9 13  2  0  0  0  0
  9 12  1  0  0  0  0
 10  8  1  0  0  0  0
 11  8  2  0  0  0  0
 11  7  1  0  0  0  0
 12 10  2  0  0  0  0
 13 11  1  0  0  0  0
 14 15  1  0  0  0  0
 14 12  1  0  0  0  0
 15 18  1  0  0  0  0
 16 15  2  0  0  0  0
 17 18  1  0  0  0  0
 18 19  1  1  0  0  0
 20 18  2  0  0  0  0
 21 38  1  6  0  0  0
 21  1  1  0  0  0  0
 22 32  1  1  0  0  0
 22 25  1  0  0  0  0
 23 29  1  1  0  0  0
 23 25  1  0  0  0  0
 24 22  1  0  0  0  0
 24 23  1  0  0  0  0
 25 21  1  6  0  0  0
 26 29  1  0  0  0  0
 26 31  1  0  0  0  0
 28 30  1  0  0  0  0
 29 28  2  0  0  0  0
 30 27  2  0  0  0  0
 31 30  1  0  0  0  0
 32 34  2  0  0  0  0
 33 32  1  0  0  0  0
 33 36  1  0  0  0  0
 35 36  1  0  0  0  0
 36 37  1  6  0  0  0
 40 38  1  0  0  0  0
 40 39  1  0  0  0  0
M  END
>  <MODEL>
8

>  <REMARK>
 VINA RESULT:      -6.9      2.296      4.134
  Name = 
  13 active torsions:
  status: ('A' for Active; 'I' for Inactive)
    1  A    between atoms: C_2  and  C_12
    2  A    between atoms: C_2  and  C_23
    3  A    between atoms: C_3  and  C_8
    4  A    between atoms: C_6  and  C_30
    5  A    between atoms: C_7  and  C_11
    6  A    between atoms: C_11  and  C_12
    7  A    between atoms: N_18  and  C_25
    8  A    between atoms: C_19  and  P_20
    9  A    between atoms: C_22  and  N_27
   10  A    between atoms: C_23  and  C_29
   11  A    between atoms: C_28  and  C_29
   12  A    between atoms: C_29  and  C_36
   13  A    between atoms: C_33  and  C_36
                            x       y       z     vdW  Elec       q    Type
                         _______ _______ _______ _____ _____    ______ ____

>  <TORSDO>
F 13

$$$$
=
 OpenBabel10222421243D

 40 42  0  0  1  0  0  0  0  0999 V2000
  185.9010  177.5770  137.6150 C   0  0  0  0  0  2  0  0  0  0  0  0
  186.8380  177.8620  136.4470 C   0  0  0  0  0  2  0  0  0  0  0  0
  188.2690  177.7570  136.8640 C   0  0  0  0  0  0  0  0  0  0  0  0
  189.0480  178.6520  136.5800 O   0  0  0  0  0  0  0  0  0  0  0  0
  188.7300  176.5270  137.5920 C   0  0  1  0  0  3  0  0  0  0  0  0
  188.6350  175.2800  136.7280 C   0  0  0  0  0  1  0  0  0  0  0  0
  193.6530  175.9190  137.2590 C   0  0  0  0  0  1  0  0  0  0  0  0
  192.6560  176.9130  139.3200 C   0  0  0  0  0  3  0  0  0  0  0  0
  190.0800  176.6950  138.2360 C   0  0  0  0  0  0  0  0  0  0  0  0
  191.5500  177.3330  140.0610 C   0  0  0  0  0  3  0  0  0  0  0  0
  192.4800  176.3810  138.0420 C   0  0  0  0  0  0  0  0  0  0  0  0
  190.2540  177.2190  139.5390 C   0  0  0  0  0  0  0  0  0  0  0  0
  191.1960  176.2700  137.5070 C   0  0  0  0  0  3  0  0  0  0  0  0
  189.1180  177.6990  140.2750 N   0  0  0  0  0  2  0  0  0  0  0  0
  189.0050  177.9560  141.6800 C   0  0  0  0  0  0  0  0  0  0  0  0
  188.0080  178.6670  142.0940 N   0  0  0  0  0  2  0  0  0  0  0  0
  191.4850  177.7970  143.0620 O   0  0  0  0  0  1  0  0  0  0  0  0
  189.9730  177.0520  142.8930 P   0  0  1  0  0  0  0  0  0  0  0  0
  189.1330  177.0640  144.5040 C   0  0  0  0  0  1  0  0  0  0  0  0
  190.1790  175.6270  142.4380 O   0  0  0  0  0  0  0  0  0  0  0  0
  184.4440  177.8340  137.2440 C   0  0  2  0  0  3  0  0  0  0  0  0
  183.8050  177.6240  139.7150 C   0  0  1  0  0  3  0  0  0  0  0  0
  182.1680  178.2380  138.3200 C   0  0  2  0  0  3  0  0  0  0  0  0
  182.0190  177.2590  139.8530 S   0  0  0  0  0  0  0  0  0  0  0  0
  183.6700  178.4320  138.4340 C   0  0  2  0  0  3  0  0  0  0  0  0
  180.7800  180.1510  139.8450 S   0  0  0  0  0  0  0  0  0  0  0  0
  180.1960  182.7550  136.8820 S   0  0  0  0  0  0  0  0  0  0  0  0
  181.2560  180.4350  137.4620 N   0  0  0  0  0  0  0  0  0  0  0  0
  181.4590  179.5470  138.4580 C   0  0  0  0  0  0  0  0  0  0  0  0
  180.5700  181.5360  137.8990 C   0  0  0  0  0  0  0  0  0  0  0  0
  180.2060  181.5760  139.2110 N   0  0  0  0  0  2  0  0  0  0  0  0
  184.3080  178.5080  140.8190 C   0  0  0  0  0  0  0  0  0  0  0  0
  184.1200  178.1530  142.1920 N   0  0  0  0  0  2  0  0  0  0  0  0
  184.8560  179.6010  140.5210 O   0  0  0  0  0  0  0  0  0  0  0  0
  185.3850  178.3990  144.1380 O   0  0  0  0  0  1  0  0  0  0  0  0
  184.4740  179.0370  143.2920 C   0  0  2  0  0  3  0  0  0  0  0  0
  183.2210  179.3760  144.0760 C   0  0  0  0  0  1  0  0  0  0  0  0
  183.8300  176.5500  136.6920 C   0  0  0  0  0  2  0  0  0  0  0  0
  183.6040  174.2050  137.4880 C   0  0  0  0  0  1  0  0  0  0  0  0
  184.5800  175.3270  137.2020 C   0  0  0  0  0  2  0  0  0  0  0  0
  2  3  1  0  0  0  0
  2  1  1  0  0  0  0
  3  5  1  0  0  0  0
  4  3  2  0  0  0  0
  5  6  1  6  0  0  0
  5  9  1  0  0  0  0
  7 11  1  0  0  0  0
  8 10  1  0  0  0  0
  9 12  1  0  0  0  0
 11  8  2  0  0  0  0
 12 10  2  0  0  0  0
 12 14  1  0  0  0  0
 13 11  1  0  0  0  0
 13  9  2  0  0  0  0
 14 15  1  0  0  0  0
 15 16  2  0  0  0  0
 15 18  1  0  0  0  0
 18 17  1  0  0  0  0
 18 19  1  1  0  0  0
 20 18  2  0  0  0  0
 21 38  1  1  0  0  0
 21  1  1  0  0  0  0
 22 24  1  0  0  0  0
 22 32  1  1  0  0  0
 23 25  1  0  0  0  0
 23 29  1  1  0  0  0
 23 24  1  0  0  0  0
 25 21  1  6  0  0  0
 25 22  1  0  0  0  0
 27 30  2  0  0  0  0
 28 30  1  0  0  0  0
 28 29  2  0  0  0  0
 29 26  1  0  0  0  0
 30 31  1  0  0  0  0
 31 26  1  0  0  0  0
 32 33  1  0  0  0  0
 33 36  1  0  0  0  0
 34 32  2  0  0  0  0
 36 37  1  1  0  0  0
 36 35  1  0  0  0  0
 38 40  1  0  0  0  0
 40 39  1  0  0  0  0
M  END
>  <MODEL>
9

>  <REMARK>
 VINA RESULT:      -6.8      2.572      6.130
  Name = 
  13 active torsions:
  status: ('A' for Active; 'I' for Inactive)
    1  A    between atoms: C_2  and  C_12
    2  A    between atoms: C_2  and  C_23
    3  A    between atoms: C_3  and  C_8
    4  A    between atoms: C_6  and  C_30
    5  A    between atoms: C_7  and  C_11
    6  A    between atoms: C_11  and  C_12
    7  A    between atoms: N_18  and  C_25
    8  A    between atoms: C_19  and  P_20
    9  A    between atoms: C_22  and  N_27
   10  A    between atoms: C_23  and  C_29
   11  A    between atoms: C_28  and  C_29
   12  A    between atoms: C_29  and  C_36
   13  A    between atoms: C_33  and  C_36
                            x       y       z     vdW  Elec       q    Type
                         _______ _______ _______ _____ _____    ______ ____

>  <TORSDO>
F 13

$$$$
