=
 OpenBabel10222420413D

 42 47  0  0  1  0  0  0  0  0999 V2000
  191.6730  175.9900  137.4790 C   0  0  1  0  0  3  0  0  0  0  0  0
  188.0280  177.6020  139.4720 S   0  0  0  0  0  0  0  0  0  0  0  0
  187.5020  178.0300  137.8230 C   0  0  0  0  0  0  0  0  0  0  0  0
  190.2740  176.3350  136.9470 C   0  0  0  0  0  2  0  0  0  0  0  0
  191.9480  176.5590  138.8780 C   0  0  0  0  0  2  0  0  0  0  0  0
  188.4630  178.0220  136.9020 C   0  0  0  0  0  0  0  0  0  0  0  0
  188.2170  178.3100  135.4540 C   0  0  0  0  0  1  0  0  0  0  0  0
  189.8300  177.7240  137.4090 C   0  0  1  0  0  3  0  0  0  0  0  0
  190.6580  176.7980  139.6670 C   0  0  2  0  0  3  0  0  0  0  0  0
  189.7620  177.8140  138.9470 C   0  0  2  0  0  3  0  0  0  0  0  0
  190.9700  176.4720  141.9910 C   0  0  0  0  0  3  0  0  0  0  0  0
  190.9630  177.2750  140.9910 N   0  0  0  0  0  0  0  0  0  0  0  0
  190.0290  176.9130  144.2330 C   0  0  2  0  0  3  0  0  0  0  0  0
  191.6650  178.4140  143.3110 C   0  0  0  0  0  3  0  0  0  0  0  0
  190.2910  177.2740  145.6880 C   0  0  1  0  0  0  0  0  0  0  0  0
  191.2860  176.9740  143.3610 C   0  0  2  0  0  3  0  0  0  0  0  0
  191.6120  177.3950  146.1390 O   0  0  0  0  0  1  0  0  0  0  0  0
  190.8710  179.1470  144.0770 C   0  0  0  0  0  3  0  0  0  0  0  0
  189.7890  178.3490  144.7340 C   0  0  1  0  0  3  0  0  0  0  0  0
  189.2980  176.8310  146.6560 N   0  0  0  0  0  2  0  0  0  0  0  0
  187.8910  177.7050  148.4260 C   0  0  0  0  0  1  0  0  0  0  0  0
  189.2200  177.8280  147.7120 C   0  0  0  0  0  2  0  0  0  0  0  0
  191.8740  174.4820  137.4940 C   0  0  0  0  0  2  0  0  0  0  0  0
  193.0810  174.0770  136.6610 C   0  0  0  0  0  2  0  0  0  0  0  0
  194.2170  173.8430  137.5110 N   0  0  0  0  0  0  0  0  0  0  0  0
  195.2920  174.5170  137.3420 C   0  0  0  0  0  2  0  0  0  0  0  0
  186.0660  178.3440  137.5340 C   0  0  0  0  0  2  0  0  0  0  0  0
  185.2270  177.0810  137.5970 C   0  0  0  0  0  2  0  0  0  0  0  0
  183.7630  177.4400  137.4410 C   0  0  0  0  0  2  0  0  0  0  0  0
  183.8470  177.9350  139.8060 C   0  0  0  0  0  0  0  0  0  0  0  0
  181.1990  177.5460  140.3230 N   0  0  0  0  0  2  0  0  0  0  0  0
  184.3990  178.3030  140.9240 C   0  0  0  0  0  3  0  0  0  0  0  0
  181.6250  177.5630  138.9190 C   0  0  0  0  0  2  0  0  0  0  0  0
  184.3070  178.6900  143.4030 N   0  0  0  0  0  0  0  0  0  0  0  0
  181.5110  179.1650  143.4010 C   0  0  0  0  0  2  0  0  0  0  0  0
  183.6480  179.1470  144.6210 C   0  0  0  0  0  2  0  0  0  0  0  0
  181.4050  178.8790  140.8840 C   0  0  0  0  0  2  0  0  0  0  0  0
  182.2190  178.6400  144.6400 C   0  0  0  0  0  2  0  0  0  0  0  0
  182.2440  178.8120  142.1340 C   0  0  0  0  0  0  0  0  0  0  0  0
  185.6940  178.2620  143.5140 C   0  0  0  0  0  1  0  0  0  0  0  0
  183.5990  178.6200  142.1440 C   0  0  0  0  0  0  0  0  0  0  0  0
  183.1260  177.5850  138.7800 C   0  0  0  0  0  0  0  0  0  0  0  0
  1 23  1  1  0  0  0
  1  5  1  0  0  0  0
  3  2  1  0  0  0  0
  4  1  1  0  0  0  0
  5  9  1  0  0  0  0
  6  8  1  0  0  0  0
  6  3  2  0  0  0  0
  7  6  1  0  0  0  0
  8  4  1  1  0  0  0
  8 10  1  0  0  0  0
  9 12  1  1  0  0  0
 10  2  1  1  0  0  0
 10  9  1  0  0  0  0
 11 16  1  0  0  0  0
 12 11  2  0  0  0  0
 13 19  1  0  0  0  0
 13 15  1  0  0  0  0
 14 16  1  0  0  0  0
 14 18  2  0  0  0  0
 15 17  1  0  0  0  0
 15 20  1  0  0  0  0
 16 13  1  0  0  0  0
 18 19  1  0  0  0  0
 19 15  1  0  0  0  0
 20 22  1  0  0  0  0
 22 21  1  0  0  0  0
 24 23  1  0  0  0  0
 24 25  1  0  0  0  0
 26 25  2  0  0  0  0
 27 28  1  0  0  0  0
 27  3  1  0  0  0  0
 29 28  1  0  0  0  0
 29 42  1  0  0  0  0
 30 32  2  0  0  0  0
 31 37  1  0  0  0  0
 32 41  1  0  0  0  0
 33 31  1  0  0  0  0
 34 40  1  0  0  0  0
 34 36  1  0  0  0  0
 35 38  1  0  0  0  0
 36 38  1  0  0  0  0
 37 39  1  0  0  0  0
 39 41  2  0  0  0  0
 39 35  1  0  0  0  0
 41 34  1  0  0  0  0
 42 33  1  0  0  0  0
 42 30  2  0  0  0  0
M  END
>  <MODEL>
1

>  <REMARK>
 VINA RESULT:      -8.4      0.000      0.000
  Name = 
  11 active torsions:
  status: ('A' for Active; 'I' for Inactive)
    1  A    between atoms: N_1  and  C_9
    2  A    between atoms: C_3  and  C_6
    3  A    between atoms: C_6  and  C_9
    4  A    between atoms: C_10  and  C_18
    5  A    between atoms: C_10  and  C_35
    6  A    between atoms: C_11  and  C_35
    7  A    between atoms: C_16  and  C_27
    8  A    between atoms: C_18  and  C_41
    9  A    between atoms: N_21  and  C_25
   10  A    between atoms: N_21  and  C_40
   11  A    between atoms: N_29  and  C_38
                            x       y       z     vdW  Elec       q    Type
                         _______ _______ _______ _____ _____    ______ ____

>  <TORSDO>
F 11

$$$$
=
 OpenBabel10222420413D

 42 47  0  0  1  0  0  0  0  0999 V2000
  191.4590  177.4670  144.8120 C   0  0  1  0  0  3  0  0  0  0  0  0
  189.1120  176.6660  141.1110 S   0  0  0  0  0  0  0  0  0  0  0  0
  190.6740  176.8320  140.2670 C   0  0  0  0  0  0  0  0  0  0  0  0
  191.8760  177.0130  143.4050 C   0  0  0  0  0  2  0  0  0  0  0  0
  190.0230  178.0050  144.8770 C   0  0  0  0  0  2  0  0  0  0  0  0
  191.6400  177.4150  140.9740 C   0  0  0  0  0  0  0  0  0  0  0  0
  193.0330  177.6070  140.4610 C   0  0  0  0  0  1  0  0  0  0  0  0
  191.2420  177.8910  142.3260 C   0  0  1  0  0  3  0  0  0  0  0  0
  189.1460  177.4410  143.7560 C   0  0  2  0  0  3  0  0  0  0  0  0
  189.7010  177.8340  142.3810 C   0  0  2  0  0  3  0  0  0  0  0  0
  186.9460  177.3050  144.6220 C   0  0  0  0  0  3  0  0  0  0  0  0
  187.7950  177.9240  143.8870 N   0  0  0  0  0  0  0  0  0  0  0  0
  185.0590  178.3240  143.3970 C   0  0  2  0  0  3  0  0  0  0  0  0
  185.5050  178.9900  145.6630 C   0  0  0  0  0  3  0  0  0  0  0  0
  183.5930  178.7300  143.4030 C   0  0  1  0  0  0  0  0  0  0  0  0
  185.5480  177.8110  144.7530 C   0  0  2  0  0  3  0  0  0  0  0  0
  182.7930  178.4040  144.5060 O   0  0  0  0  0  1  0  0  0  0  0  0
  184.9980  180.0500  145.0530 C   0  0  0  0  0  3  0  0  0  0  0  0
  184.6590  179.7940  143.6180 C   0  0  1  0  0  3  0  0  0  0  0  0
  182.9340  178.8060  142.1070 N   0  0  0  0  0  2  0  0  0  0  0  0
  183.9690  178.8920  139.9160 C   0  0  0  0  0  1  0  0  0  0  0  0
  183.7280  178.0500  141.1510 C   0  0  0  0  0  2  0  0  0  0  0  0
  191.6200  176.3240  145.8040 C   0  0  0  0  0  2  0  0  0  0  0  0
  191.0710  176.6990  147.1720 C   0  0  0  0  0  2  0  0  0  0  0  0
  192.1340  176.7460  148.1400 N   0  0  0  0  0  0  0  0  0  0  0  0
  192.8870  175.7250  148.3140 C   0  0  0  0  0  2  0  0  0  0  0  0
  190.8500  176.3160  138.8720 C   0  0  0  0  0  2  0  0  0  0  0  0
  189.7510  176.8470  137.9700 C   0  0  0  0  0  2  0  0  0  0  0  0
  189.7460  176.0700  136.6690 C   0  0  0  0  0  2  0  0  0  0  0  0
  187.4950  175.2100  136.8550 C   0  0  0  0  0  0  0  0  0  0  0  0
  188.1400  172.5630  136.7490 N   0  0  0  0  0  2  0  0  0  0  0  0
  186.1990  175.2790  136.9360 C   0  0  0  0  0  3  0  0  0  0  0  0
  189.1980  173.5360  136.4570 C   0  0  0  0  0  2  0  0  0  0  0  0
  183.9490  174.2010  137.2140 N   0  0  0  0  0  0  0  0  0  0  0  0
  184.8070  171.7270  136.1260 C   0  0  0  0  0  2  0  0  0  0  0  0
  182.9770  173.1440  136.9600 C   0  0  0  0  0  2  0  0  0  0  0  0
  187.1280  172.6520  135.6980 C   0  0  0  0  0  2  0  0  0  0  0  0
  183.6500  171.7940  137.1110 C   0  0  0  0  0  2  0  0  0  0  0  0
  185.7600  172.8800  136.2870 C   0  0  0  0  0  0  0  0  0  0  0  0
  183.4920  175.3630  137.9640 C   0  0  0  0  0  1  0  0  0  0  0  0
  185.3240  174.0800  136.7810 C   0  0  0  0  0  0  0  0  0  0  0  0
  188.7660  174.9510  136.7440 C   0  0  0  0  0  0  0  0  0  0  0  0
  1  5  1  0  0  0  0
  1 23  1  1  0  0  0
  3  6  2  0  0  0  0
  3  2  1  0  0  0  0
  4  1  1  0  0  0  0
  6  8  1  0  0  0  0
  7  6  1  0  0  0  0
  8 10  1  0  0  0  0
  8  4  1  1  0  0  0
  9 12  1  1  0  0  0
  9  5  1  0  0  0  0
 10  2  1  6  0  0  0
 10  9  1  0  0  0  0
 11 16  1  0  0  0  0
 12 11  2  0  0  0  0
 13 15  1  0  0  0  0
 13 19  1  0  0  0  0
 13 16  1  0  0  0  0
 15 19  1  0  0  0  0
 15 17  1  0  0  0  0
 16 14  1  0  0  0  0
 18 14  2  0  0  0  0
 19 18  1  0  0  0  0
 20 15  1  0  0  0  0
 21 22  1  0  0  0  0
 22 20  1  0  0  0  0
 23 24  1  0  0  0  0
 24 25  1  0  0  0  0
 25 26  2  0  0  0  0
 27  3  1  0  0  0  0
 28 27  1  0  0  0  0
 29 42  1  0  0  0  0
 29 28  1  0  0  0  0
 30 32  2  0  0  0  0
 33 42  1  0  0  0  0
 33 31  1  0  0  0  0
 34 40  1  0  0  0  0
 35 39  1  0  0  0  0
 35 38  1  0  0  0  0
 36 38  1  0  0  0  0
 36 34  1  0  0  0  0
 37 39  1  0  0  0  0
 37 31  1  0  0  0  0
 39 41  2  0  0  0  0
 41 32  1  0  0  0  0
 41 34  1  0  0  0  0
 42 30  2  0  0  0  0
M  END
>  <MODEL>
2

>  <REMARK>
 VINA RESULT:      -8.3      3.106      7.449
  Name = 
  11 active torsions:
  status: ('A' for Active; 'I' for Inactive)
    1  A    between atoms: N_1  and  C_9
    2  A    between atoms: C_3  and  C_6
    3  A    between atoms: C_6  and  C_9
    4  A    between atoms: C_10  and  C_18
    5  A    between atoms: C_10  and  C_35
    6  A    between atoms: C_11  and  C_35
    7  A    between atoms: C_16  and  C_27
    8  A    between atoms: C_18  and  C_41
    9  A    between atoms: N_21  and  C_25
   10  A    between atoms: N_21  and  C_40
   11  A    between atoms: N_29  and  C_38
                            x       y       z     vdW  Elec       q    Type
                         _______ _______ _______ _____ _____    ______ ____

>  <TORSDO>
F 11

$$$$
=
 OpenBabel10222420413D

 42 47  0  0  1  0  0  0  0  0999 V2000
  191.4530  177.5300  144.8880 C   0  0  1  0  0  3  0  0  0  0  0  0
  188.9600  176.7030  141.2880 S   0  0  0  0  0  0  0  0  0  0  0  0
  190.4930  176.8260  140.3860 C   0  0  0  0  0  0  0  0  0  0  0  0
  191.8100  177.0430  143.4760 C   0  0  0  0  0  2  0  0  0  0  0  0
  190.0290  178.0960  144.9930 C   0  0  0  0  0  2  0  0  0  0  0  0
  191.4940  177.4040  141.0470 C   0  0  0  0  0  0  0  0  0  0  0  0
  192.8710  177.5620  140.4810 C   0  0  0  0  0  1  0  0  0  0  0  0
  191.1530  177.9130  142.4030 C   0  0  1  0  0  3  0  0  0  0  0  0
  189.1030  177.5260  143.9150 C   0  0  2  0  0  3  0  0  0  0  0  0
  189.6150  177.8840  142.5140 C   0  0  2  0  0  3  0  0  0  0  0  0
  186.8310  177.2840  144.5380 C   0  0  0  0  0  3  0  0  0  0  0  0
  187.7660  178.0360  144.0850 N   0  0  0  0  0  0  0  0  0  0  0  0
  184.9000  178.2710  143.3560 C   0  0  2  0  0  3  0  0  0  0  0  0
  185.4670  179.0430  145.5600 C   0  0  0  0  0  3  0  0  0  0  0  0
  183.4410  178.7010  143.4130 C   0  0  1  0  0  0  0  0  0  0  0  0
  185.4480  177.8190  144.7110 C   0  0  2  0  0  3  0  0  0  0  0  0
  182.6930  178.4440  144.5690 O   0  0  0  0  0  1  0  0  0  0  0  0
  184.9450  180.0780  144.9230 C   0  0  0  0  0  3  0  0  0  0  0  0
  184.5320  179.7570  143.5210 C   0  0  1  0  0  3  0  0  0  0  0  0
  182.7200  178.7220  142.1480 N   0  0  0  0  0  2  0  0  0  0  0  0
  182.8010  177.8500  139.8880 C   0  0  0  0  0  1  0  0  0  0  0  0
  183.6100  178.2220  141.1120 C   0  0  0  0  0  2  0  0  0  0  0  0
  191.6290  176.4040  145.8950 C   0  0  0  0  0  2  0  0  0  0  0  0
  191.2130  176.8410  147.2910 C   0  0  0  0  0  2  0  0  0  0  0  0
  192.3420  176.8050  148.1810 N   0  0  0  0  0  0  0  0  0  0  0  0
  192.9250  175.6930  148.4310 C   0  0  0  0  0  2  0  0  0  0  0  0
  190.6100  176.2810  138.9960 C   0  0  0  0  0  2  0  0  0  0  0  0
  190.2480  177.3470  137.9790 C   0  0  0  0  0  2  0  0  0  0  0  0
  188.9320  177.9900  138.3680 C   0  0  0  0  0  2  0  0  0  0  0  0
  187.8070  176.1170  137.3330 C   0  0  0  0  0  0  0  0  0  0  0  0
  185.6890  177.5120  136.3320 N   0  0  0  0  0  2  0  0  0  0  0  0
  187.6170  174.8690  137.0220 C   0  0  0  0  0  3  0  0  0  0  0  0
  186.5890  178.2080  137.2580 C   0  0  0  0  0  2  0  0  0  0  0  0
  186.3570  173.0690  135.8070 N   0  0  0  0  0  0  0  0  0  0  0  0
  183.9350  174.5440  135.7760 C   0  0  0  0  0  2  0  0  0  0  0  0
  185.1310  172.4400  135.3300 C   0  0  0  0  0  2  0  0  0  0  0  0
  185.0080  176.4460  137.0630 C   0  0  0  0  0  2  0  0  0  0  0  0
  184.2310  173.4940  134.7150 C   0  0  0  0  0  2  0  0  0  0  0  0
  185.1910  175.1190  136.3740 C   0  0  0  0  0  0  0  0  0  0  0  0
  187.6030  172.3430  135.6050 C   0  0  0  0  0  1  0  0  0  0  0  0
  186.3440  174.3820  136.4140 C   0  0  0  0  0  0  0  0  0  0  0  0
  187.8180  177.3960  137.5770 C   0  0  0  0  0  0  0  0  0  0  0  0
  1  5  1  0  0  0  0
  1 23  1  1  0  0  0
  3  6  2  0  0  0  0
  3  2  1  0  0  0  0
  4  1  1  0  0  0  0
  6  8  1  0  0  0  0
  7  6  1  0  0  0  0
  8 10  1  0  0  0  0
  8  4  1  1  0  0  0
  9 12  1  1  0  0  0
  9  5  1  0  0  0  0
 10  2  1  6  0  0  0
 10  9  1  0  0  0  0
 11 16  1  0  0  0  0
 12 11  2  0  0  0  0
 13 15  1  0  0  0  0
 13 19  1  0  0  0  0
 13 16  1  0  0  0  0
 15 19  1  0  0  0  0
 15 17  1  0  0  0  0
 16 14  1  0  0  0  0
 18 14  2  0  0  0  0
 19 18  1  0  0  0  0
 20 15  1  0  0  0  0
 21 22  1  0  0  0  0
 22 20  1  0  0  0  0
 23 24  1  0  0  0  0
 24 25  1  0  0  0  0
 25 26  2  0  0  0  0
 27  3  1  0  0  0  0
 28 29  1  0  0  0  0
 28 27  1  0  0  0  0
 30 42  2  0  0  0  0
 31 37  1  0  0  0  0
 31 33  1  0  0  0  0
 32 30  2  0  0  0  0
 33 42  1  0  0  0  0
 34 41  1  0  0  0  0
 35 39  1  0  0  0  0
 36 34  1  0  0  0  0
 38 36  1  0  0  0  0
 38 35  1  0  0  0  0
 39 41  2  0  0  0  0
 39 37  1  0  0  0  0
 40 34  1  0  0  0  0
 41 32  1  0  0  0  0
 42 29  1  0  0  0  0
M  END
>  <MODEL>
3

>  <REMARK>
 VINA RESULT:      -7.8      3.050      7.365
  Name = 
  11 active torsions:
  status: ('A' for Active; 'I' for Inactive)
    1  A    between atoms: N_1  and  C_9
    2  A    between atoms: C_3  and  C_6
    3  A    between atoms: C_6  and  C_9
    4  A    between atoms: C_10  and  C_18
    5  A    between atoms: C_10  and  C_35
    6  A    between atoms: C_11  and  C_35
    7  A    between atoms: C_16  and  C_27
    8  A    between atoms: C_18  and  C_41
    9  A    between atoms: N_21  and  C_25
   10  A    between atoms: N_21  and  C_40
   11  A    between atoms: N_29  and  C_38
                            x       y       z     vdW  Elec       q    Type
                         _______ _______ _______ _____ _____    ______ ____

>  <TORSDO>
F 11

$$$$
=
 OpenBabel10222420413D

 42 47  0  0  1  0  0  0  0  0999 V2000
  184.3480  178.5080  143.0720 C   0  0  1  0  0  3  0  0  0  0  0  0
  183.4890  179.7930  138.8930 S   0  0  0  0  0  0  0  0  0  0  0  0
  181.7860  179.4590  139.3020 C   0  0  0  0  0  0  0  0  0  0  0  0
  183.0570  178.9690  142.3800 C   0  0  0  0  0  2  0  0  0  0  0  0
  185.4760  178.1640  142.0880 C   0  0  0  0  0  2  0  0  0  0  0  0
  181.6010  178.7190  140.3940 C   0  0  0  0  0  0  0  0  0  0  0  0
  180.2480  178.3670  140.9280 C   0  0  0  0  0  1  0  0  0  0  0  0
  182.8430  178.2360  141.0550 C   0  0  1  0  0  3  0  0  0  0  0  0
  185.3160  178.8930  140.7520 C   0  0  2  0  0  3  0  0  0  0  0  0
  184.0010  178.4960  140.0700 C   0  0  2  0  0  3  0  0  0  0  0  0
  186.2630  177.8340  138.8580 C   0  0  0  0  0  3  0  0  0  0  0  0
  186.4220  178.5900  139.8810 N   0  0  0  0  0  0  0  0  0  0  0  0
  188.6130  177.0750  138.8000 C   0  0  2  0  0  3  0  0  0  0  0  0
  187.8660  178.7520  137.2490 C   0  0  0  0  0  3  0  0  0  0  0  0
  189.7910  176.6020  137.9600 C   0  0  1  0  0  0  0  0  0  0  0  0
  187.4150  177.5220  137.9610 C   0  0  2  0  0  3  0  0  0  0  0  0
  189.6170  176.4010  136.5850 O   0  0  0  0  0  1  0  0  0  0  0  0
  189.1400  179.0100  137.4970 C   0  0  0  0  0  3  0  0  0  0  0  0
  189.7600  178.0420  138.4540 C   0  0  1  0  0  3  0  0  0  0  0  0
  190.7750  175.7670  138.6330 N   0  0  0  0  0  2  0  0  0  0  0  0
  193.0030  175.9660  137.6990 C   0  0  0  0  0  1  0  0  0  0  0  0
  191.6800  175.2340  137.6270 C   0  0  0  0  0  2  0  0  0  0  0  0
  184.8310  179.5690  144.0490 C   0  0  0  0  0  2  0  0  0  0  0  0
  185.0110  178.9940  145.4460 C   0  0  0  0  0  2  0  0  0  0  0  0
  186.3000  178.3700  145.5650 N   0  0  0  0  0  0  0  0  0  0  0  0
  186.7260  177.9940  146.7120 C   0  0  0  0  0  2  0  0  0  0  0  0
  180.6740  180.0130  138.4650 C   0  0  0  0  0  2  0  0  0  0  0  0
  180.1300  178.9450  137.5360 C   0  0  0  0  0  2  0  0  0  0  0  0
  181.1270  178.6890  136.4230 C   0  0  0  0  0  2  0  0  0  0  0  0
  183.0020  177.1740  136.2330 C   0  0  0  0  0  0  0  0  0  0  0  0
  181.7850  174.9980  137.3360 N   0  0  0  0  0  2  0  0  0  0  0  0
  184.2210  176.8230  135.9540 C   0  0  0  0  0  3  0  0  0  0  0  0
  181.0860  176.2860  137.4190 C   0  0  0  0  0  2  0  0  0  0  0  0
  186.0220  175.0850  135.7550 N   0  0  0  0  0  0  0  0  0  0  0  0
  184.8720  173.4160  137.7390 C   0  0  0  0  0  2  0  0  0  0  0  0
  186.7450  173.9070  136.2200 C   0  0  0  0  0  2  0  0  0  0  0  0
  183.0020  175.0810  138.1390 C   0  0  0  0  0  2  0  0  0  0  0  0
  185.7520  172.8400  136.6400 C   0  0  0  0  0  2  0  0  0  0  0  0
  184.2120  174.7030  137.3240 C   0  0  0  0  0  0  0  0  0  0  0  0
  186.5580  175.7820  134.5940 C   0  0  0  0  0  1  0  0  0  0  0  0
  184.7960  175.5160  136.3900 C   0  0  0  0  0  0  0  0  0  0  0  0
  181.7660  177.3560  136.6030 C   0  0  0  0  0  0  0  0  0  0  0  0
  1 23  1  1  0  0  0
  2  3  1  0  0  0  0
  3  6  2  0  0  0  0
  4  1  1  0  0  0  0
  5  1  1  0  0  0  0
  6  7  1  0  0  0  0
  6  8  1  0  0  0  0
  8  4  1  1  0  0  0
  9 12  1  6  0  0  0
  9  5  1  0  0  0  0
 10  2  1  6  0  0  0
 10  9  1  0  0  0  0
 10  8  1  0  0  0  0
 11 12  2  0  0  0  0
 14 18  2  0  0  0  0
 14 16  1  0  0  0  0
 15 19  1  0  0  0  0
 15 20  1  0  0  0  0
 15 13  1  0  0  0  0
 16 13  1  0  0  0  0
 16 11  1  0  0  0  0
 17 15  1  0  0  0  0
 18 19  1  0  0  0  0
 19 13  1  0  0  0  0
 22 21  1  0  0  0  0
 22 20  1  0  0  0  0
 23 24  1  0  0  0  0
 24 25  1  0  0  0  0
 25 26  2  0  0  0  0
 27  3  1  0  0  0  0
 28 27  1  0  0  0  0
 29 42  1  0  0  0  0
 29 28  1  0  0  0  0
 30 42  2  0  0  0  0
 31 33  1  0  0  0  0
 31 37  1  0  0  0  0
 32 30  2  0  0  0  0
 32 41  1  0  0  0  0
 34 36  1  0  0  0  0
 34 41  1  0  0  0  0
 36 38  1  0  0  0  0
 38 35  1  0  0  0  0
 39 35  1  0  0  0  0
 39 37  1  0  0  0  0
 40 34  1  0  0  0  0
 41 39  2  0  0  0  0
 42 33  1  0  0  0  0
M  END
>  <MODEL>
4

>  <REMARK>
 VINA RESULT:      -7.6      3.068      7.941
  Name = 
  11 active torsions:
  status: ('A' for Active; 'I' for Inactive)
    1  A    between atoms: N_1  and  C_9
    2  A    between atoms: C_3  and  C_6
    3  A    between atoms: C_6  and  C_9
    4  A    between atoms: C_10  and  C_18
    5  A    between atoms: C_10  and  C_35
    6  A    between atoms: C_11  and  C_35
    7  A    between atoms: C_16  and  C_27
    8  A    between atoms: C_18  and  C_41
    9  A    between atoms: N_21  and  C_25
   10  A    between atoms: N_21  and  C_40
   11  A    between atoms: N_29  and  C_38
                            x       y       z     vdW  Elec       q    Type
                         _______ _______ _______ _____ _____    ______ ____

>  <TORSDO>
F 11

$$$$
=
 OpenBabel10222420413D

 42 47  0  0  1  0  0  0  0  0999 V2000
  192.0470  176.2030  137.7840 C   0  0  1  0  0  3  0  0  0  0  0  0
  188.2020  177.5300  139.6040 S   0  0  0  0  0  0  0  0  0  0  0  0
  187.7360  177.9580  137.9370 C   0  0  0  0  0  0  0  0  0  0  0  0
  190.6580  176.4670  137.1830 C   0  0  0  0  0  2  0  0  0  0  0  0
  192.2090  176.7600  139.2060 C   0  0  0  0  0  2  0  0  0  0  0  0
  188.7440  178.0320  137.0690 C   0  0  0  0  0  0  0  0  0  0  0  0
  188.5560  178.3340  135.6150 C   0  0  0  0  0  1  0  0  0  0  0  0
  190.0990  177.8130  137.6450 C   0  0  1  0  0  3  0  0  0  0  0  0
  190.8660  176.8970  139.9270 C   0  0  2  0  0  3  0  0  0  0  0  0
  189.9430  177.8670  139.1780 C   0  0  2  0  0  3  0  0  0  0  0  0
  191.3000  176.5390  142.2280 C   0  0  0  0  0  3  0  0  0  0  0  0
  191.0670  177.3650  141.2740 N   0  0  0  0  0  0  0  0  0  0  0  0
  190.2190  176.8510  144.4270 C   0  0  2  0  0  3  0  0  0  0  0  0
  191.7710  178.4980  143.6190 C   0  0  0  0  0  3  0  0  0  0  0  0
  190.3790  177.1970  145.9000 C   0  0  1  0  0  0  0  0  0  0  0  0
  191.5070  177.0320  143.6220 C   0  0  2  0  0  3  0  0  0  0  0  0
  191.6620  177.4120  146.4200 O   0  0  0  0  0  1  0  0  0  0  0  0
  190.8850  179.1470  144.3580 C   0  0  0  0  0  3  0  0  0  0  0  0
  189.8400  178.2510  144.9430 C   0  0  1  0  0  3  0  0  0  0  0  0
  189.3780  176.6540  146.8070 N   0  0  0  0  0  2  0  0  0  0  0  0
  187.6500  177.9490  147.9090 C   0  0  0  0  0  1  0  0  0  0  0  0
  189.1310  177.6380  147.8490 C   0  0  0  0  0  2  0  0  0  0  0  0
  192.3470  174.7120  137.7840 C   0  0  0  0  0  2  0  0  0  0  0  0
  193.7630  174.4330  137.3040 C   0  0  0  0  0  2  0  0  0  0  0  0
  194.7160  174.8420  138.3010 N   0  0  0  0  0  0  0  0  0  0  0  0
  195.6350  174.0350  138.6780 C   0  0  0  0  0  2  0  0  0  0  0  0
  186.3000  178.1830  137.5760 C   0  0  0  0  0  2  0  0  0  0  0  0
  185.5400  176.8700  137.5930 C   0  0  0  0  0  2  0  0  0  0  0  0
  184.1180  177.1030  137.1230 C   0  0  0  0  0  2  0  0  0  0  0  0
  182.5270  178.6740  138.0410 C   0  0  0  0  0  0  0  0  0  0  0  0
  182.4360  177.6250  140.5560 N   0  0  0  0  0  2  0  0  0  0  0  0
  181.6920  179.6700  138.0180 C   0  0  0  0  0  3  0  0  0  0  0  0
  183.1430  176.8600  139.5220 C   0  0  0  0  0  2  0  0  0  0  0  0
  180.1270  181.2600  139.1700 N   0  0  0  0  0  0  0  0  0  0  0  0
  179.5330  179.4340  141.2580 C   0  0  0  0  0  2  0  0  0  0  0  0
  179.0870  181.5810  140.1400 C   0  0  0  0  0  2  0  0  0  0  0  0
  181.0170  177.6640  140.2120 C   0  0  0  0  0  2  0  0  0  0  0  0
  179.4230  180.9360  141.4710 C   0  0  0  0  0  2  0  0  0  0  0  0
  180.5120  179.0840  140.1700 C   0  0  0  0  0  0  0  0  0  0  0  0
  180.5340  182.3150  138.2540 C   0  0  0  0  0  1  0  0  0  0  0  0
  180.7630  179.9610  139.1500 C   0  0  0  0  0  0  0  0  0  0  0  0
  183.2900  177.6380  138.2390 C   0  0  0  0  0  0  0  0  0  0  0  0
  1 23  1  1  0  0  0
  1  5  1  0  0  0  0
  3  2  1  0  0  0  0
  4  1  1  0  0  0  0
  5  9  1  0  0  0  0
  6  8  1  0  0  0  0
  6  3  2  0  0  0  0
  7  6  1  0  0  0  0
  8  4  1  1  0  0  0
  8 10  1  0  0  0  0
  9 12  1  1  0  0  0
 10  2  1  6  0  0  0
 10  9  1  0  0  0  0
 11 16  1  0  0  0  0
 12 11  2  0  0  0  0
 13 19  1  0  0  0  0
 13 15  1  0  0  0  0
 14 16  1  0  0  0  0
 14 18  2  0  0  0  0
 15 17  1  0  0  0  0
 15 20  1  0  0  0  0
 16 13  1  0  0  0  0
 18 19  1  0  0  0  0
 19 15  1  0  0  0  0
 20 22  1  0  0  0  0
 22 21  1  0  0  0  0
 24 23  1  0  0  0  0
 24 25  1  0  0  0  0
 25 26  2  0  0  0  0
 27 28  1  0  0  0  0
 27  3  1  0  0  0  0
 29 28  1  0  0  0  0
 29 42  1  0  0  0  0
 30 42  2  0  0  0  0
 32 30  2  0  0  0  0
 32 41  1  0  0  0  0
 33 31  1  0  0  0  0
 34 36  1  0  0  0  0
 35 38  1  0  0  0  0
 36 38  1  0  0  0  0
 37 31  1  0  0  0  0
 39 37  1  0  0  0  0
 39 35  1  0  0  0  0
 40 34  1  0  0  0  0
 41 34  1  0  0  0  0
 41 39  2  0  0  0  0
 42 33  1  0  0  0  0
M  END
>  <MODEL>
5

>  <REMARK>
 VINA RESULT:      -7.5      1.733      2.468
  Name = 
  11 active torsions:
  status: ('A' for Active; 'I' for Inactive)
    1  A    between atoms: N_1  and  C_9
    2  A    between atoms: C_3  and  C_6
    3  A    between atoms: C_6  and  C_9
    4  A    between atoms: C_10  and  C_18
    5  A    between atoms: C_10  and  C_35
    6  A    between atoms: C_11  and  C_35
    7  A    between atoms: C_16  and  C_27
    8  A    between atoms: C_18  and  C_41
    9  A    between atoms: N_21  and  C_25
   10  A    between atoms: N_21  and  C_40
   11  A    between atoms: N_29  and  C_38
                            x       y       z     vdW  Elec       q    Type
                         _______ _______ _______ _____ _____    ______ ____

>  <TORSDO>
F 11

$$$$
=
 OpenBabel10222420413D

 42 47  0  0  1  0  0  0  0  0999 V2000
  180.9060  178.4960  141.6140 C   0  0  1  0  0  3  0  0  0  0  0  0
  184.3250  178.4780  138.7560 S   0  0  0  0  0  0  0  0  0  0  0  0
  183.3030  177.3920  137.7780 C   0  0  0  0  0  0  0  0  0  0  0  0
  181.0060  178.1160  140.1290 C   0  0  0  0  0  2  0  0  0  0  0  0
  182.2720  178.6240  142.3030 C   0  0  0  0  0  2  0  0  0  0  0  0
  182.2750  176.8460  138.4250 C   0  0  0  0  0  0  0  0  0  0  0  0
  181.2770  175.9430  137.7710 C   0  0  0  0  0  1  0  0  0  0  0  0
  182.1850  177.1770  139.8730 C   0  0  1  0  0  3  0  0  0  0  0  0
  183.3900  178.9460  141.3070 C   0  0  2  0  0  3  0  0  0  0  0  0
  183.5270  177.8310  140.2630 C   0  0  2  0  0  3  0  0  0  0  0  0
  184.9910  178.3060  142.9310 C   0  0  0  0  0  3  0  0  0  0  0  0
  184.6420  179.1160  142.0000 N   0  0  0  0  0  0  0  0  0  0  0  0
  187.1190  177.2080  143.5370 C   0  0  2  0  0  3  0  0  0  0  0  0
  186.0550  178.6890  145.1030 C   0  0  0  0  0  3  0  0  0  0  0  0
  188.5190  177.3510  144.1170 C   0  0  1  0  0  0  0  0  0  0  0  0
  186.2890  178.4890  143.6450 C   0  0  2  0  0  3  0  0  0  0  0  0
  188.9920  178.6230  144.4660 O   0  0  0  0  0  1  0  0  0  0  0  0
  186.6880  177.7740  145.8210 C   0  0  0  0  0  3  0  0  0  0  0  0
  187.4120  176.7680  144.9830 C   0  0  1  0  0  3  0  0  0  0  0  0
  189.5060  176.3730  143.6810 N   0  0  0  0  0  2  0  0  0  0  0  0
  191.2220  176.5210  145.3870 C   0  0  0  0  0  1  0  0  0  0  0  0
  190.8280  176.9030  143.9760 C   0  0  0  0  0  2  0  0  0  0  0  0
  180.1300  179.7950  141.7750 C   0  0  0  0  0  2  0  0  0  0  0  0
  179.1880  180.0250  140.6030 C   0  0  0  0  0  2  0  0  0  0  0  0
  179.2780  181.3880  140.1520 N   0  0  0  0  0  0  0  0  0  0  0  0
  180.0510  181.6890  139.1770 C   0  0  0  0  0  2  0  0  0  0  0  0
  183.6010  177.1590  136.3290 C   0  0  0  0  0  2  0  0  0  0  0  0
  184.7130  176.1390  136.1750 C   0  0  0  0  0  2  0  0  0  0  0  0
  185.6650  176.5900  135.0850 C   0  0  0  0  0  2  0  0  0  0  0  0
  187.2860  176.8610  136.8580 C   0  0  0  0  0  0  0  0  0  0  0  0
  189.5070  176.3700  135.3570 N   0  0  0  0  0  2  0  0  0  0  0  0
  187.6920  177.0600  138.0770 C   0  0  0  0  0  3  0  0  0  0  0  0
  188.2000  176.1120  134.7450 C   0  0  0  0  0  2  0  0  0  0  0  0
  189.5220  177.3940  139.7630 N   0  0  0  0  0  0  0  0  0  0  0  0
  191.4230  175.9360  138.2440 C   0  0  0  0  0  2  0  0  0  0  0  0
  190.8310  177.0940  140.3330 C   0  0  0  0  0  2  0  0  0  0  0  0
  189.6960  175.4300  136.4590 C   0  0  0  0  0  2  0  0  0  0  0  0
  191.8590  177.0180  139.2210 C   0  0  0  0  0  2  0  0  0  0  0  0
  190.0230  176.1570  137.7370 C   0  0  0  0  0  0  0  0  0  0  0  0
  188.6700  178.3190  140.4960 C   0  0  0  0  0  1  0  0  0  0  0  0
  189.1060  176.8330  138.4960 C   0  0  0  0  0  0  0  0  0  0  0  0
  187.0620  176.6090  135.6000 C   0  0  0  0  0  0  0  0  0  0  0  0
  1 23  1  6  0  0  0
  1  5  1  0  0  0  0
  3  6  2  0  0  0  0
  3  2  1  0  0  0  0
  4  1  1  0  0  0  0
  6  8  1  0  0  0  0
  7  6  1  0  0  0  0
  8  4  1  6  0  0  0
  8 10  1  0  0  0  0
  9 12  1  1  0  0  0
  9  5  1  0  0  0  0
 10  2  1  6  0  0  0
 10  9  1  0  0  0  0
 11 16  1  0  0  0  0
 12 11  2  0  0  0  0
 13 16  1  0  0  0  0
 13 15  1  0  0  0  0
 13 19  1  0  0  0  0
 14 18  2  0  0  0  0
 15 17  1  0  0  0  0
 15 19  1  0  0  0  0
 16 14  1  0  0  0  0
 19 18  1  0  0  0  0
 20 22  1  0  0  0  0
 20 15  1  0  0  0  0
 22 21  1  0  0  0  0
 24 23  1  0  0  0  0
 25 24  1  0  0  0  0
 26 25  2  0  0  0  0
 27  3  1  0  0  0  0
 28 27  1  0  0  0  0
 29 42  1  0  0  0  0
 29 28  1  0  0  0  0
 30 32  2  0  0  0  0
 31 37  1  0  0  0  0
 32 41  1  0  0  0  0
 33 31  1  0  0  0  0
 33 42  1  0  0  0  0
 34 36  1  0  0  0  0
 34 40  1  0  0  0  0
 35 38  1  0  0  0  0
 37 39  1  0  0  0  0
 38 36  1  0  0  0  0
 39 35  1  0  0  0  0
 39 41  2  0  0  0  0
 41 34  1  0  0  0  0
 42 30  2  0  0  0  0
M  END
>  <MODEL>
6

>  <REMARK>
 VINA RESULT:      -7.4      2.170      8.134
  Name = 
  11 active torsions:
  status: ('A' for Active; 'I' for Inactive)
    1  A    between atoms: N_1  and  C_9
    2  A    between atoms: C_3  and  C_6
    3  A    between atoms: C_6  and  C_9
    4  A    between atoms: C_10  and  C_18
    5  A    between atoms: C_10  and  C_35
    6  A    between atoms: C_11  and  C_35
    7  A    between atoms: C_16  and  C_27
    8  A    between atoms: C_18  and  C_41
    9  A    between atoms: N_21  and  C_25
   10  A    between atoms: N_21  and  C_40
   11  A    between atoms: N_29  and  C_38
                            x       y       z     vdW  Elec       q    Type
                         _______ _______ _______ _____ _____    ______ ____

>  <TORSDO>
F 11

$$$$
=
 OpenBabel10222420413D

 42 47  0  0  1  0  0  0  0  0999 V2000
  187.7140  177.9410  145.7830 C   0  0  1  0  0  3  0  0  0  0  0  0
  188.5030  177.0470  141.4890 S   0  0  0  0  0  0  0  0  0  0  0  0
  190.1830  177.5200  141.8570 C   0  0  0  0  0  0  0  0  0  0  0  0
  189.0120  177.6620  145.0090 C   0  0  0  0  0  2  0  0  0  0  0  0
  186.5150  178.2390  144.8710 C   0  0  0  0  0  2  0  0  0  0  0  0
  190.3450  178.1960  142.9930 C   0  0  0  0  0  0  0  0  0  0  0  0
  191.6800  178.6430  143.5000 C   0  0  0  0  0  1  0  0  0  0  0  0
  189.0930  178.5040  143.7360 C   0  0  1  0  0  3  0  0  0  0  0  0
  186.6850  177.6250  143.4780 C   0  0  2  0  0  3  0  0  0  0  0  0
  187.9230  178.1990  142.7780 C   0  0  2  0  0  3  0  0  0  0  0  0
  185.5050  178.8250  141.8110 C   0  0  0  0  0  3  0  0  0  0  0  0
  185.5150  177.8770  142.6760 N   0  0  0  0  0  0  0  0  0  0  0  0
  183.0700  178.4410  141.6520 C   0  0  2  0  0  3  0  0  0  0  0  0
  184.4130  178.4110  139.6580 C   0  0  0  0  0  3  0  0  0  0  0  0
  181.7610  178.7710  140.9500 C   0  0  1  0  0  0  0  0  0  0  0  0
  184.2890  179.0810  140.9840 C   0  0  2  0  0  3  0  0  0  0  0  0
  181.7430  179.7590  139.9570 O   0  0  0  0  0  1  0  0  0  0  0  0
  183.4160  177.5650  139.4520 C   0  0  0  0  0  3  0  0  0  0  0  0
  182.4770  177.4710  140.6140 C   0  0  1  0  0  3  0  0  0  0  0  0
  180.5440  178.5910  141.7290 N   0  0  0  0  0  2  0  0  0  0  0  0
  179.6420  178.6400  143.9790 C   0  0  0  0  0  1  0  0  0  0  0  0
  180.8160  179.0060  143.0960 C   0  0  0  0  0  2  0  0  0  0  0  0
  187.3820  176.7700  146.6950 C   0  0  0  0  0  2  0  0  0  0  0  0
  188.2810  176.7530  147.9220 C   0  0  0  0  0  2  0  0  0  0  0  0
  188.3170  178.0550  148.5310 N   0  0  0  0  0  0  0  0  0  0  0  0
  189.4410  178.5860  148.8390 C   0  0  0  0  0  2  0  0  0  0  0  0
  191.3040  177.1410  140.9390 C   0  0  0  0  0  2  0  0  0  0  0  0
  190.7690  176.3860  139.7370 C   0  0  0  0  0  2  0  0  0  0  0  0
  190.9750  177.2170  138.4860 C   0  0  0  0  0  2  0  0  0  0  0  0
  188.9680  176.2870  137.5110 C   0  0  0  0  0  0  0  0  0  0  0  0
  187.9460  178.6270  136.5570 N   0  0  0  0  0  2  0  0  0  0  0  0
  188.1090  175.3550  137.2230 C   0  0  0  0  0  3  0  0  0  0  0  0
  189.1110  178.7030  137.4460 C   0  0  0  0  0  2  0  0  0  0  0  0
  186.0240  174.5610  136.0720 N   0  0  0  0  0  0  0  0  0  0  0  0
  184.8250  177.1310  136.0950 C   0  0  0  0  0  2  0  0  0  0  0  0
  184.6400  174.7190  135.6410 C   0  0  0  0  0  2  0  0  0  0  0  0
  186.8130  178.1130  137.3230 C   0  0  0  0  0  2  0  0  0  0  0  0
  184.4540  176.0990  135.0400 C   0  0  0  0  0  2  0  0  0  0  0  0
  186.2080  176.9100  136.6460 C   0  0  0  0  0  0  0  0  0  0  0  0
  186.6510  173.2670  135.8420 C   0  0  0  0  0  1  0  0  0  0  0  0
  186.7600  175.6580  136.6610 C   0  0  0  0  0  0  0  0  0  0  0  0
  189.6940  177.3440  137.7380 C   0  0  0  0  0  0  0  0  0  0  0  0
  1 23  1  6  0  0  0
  2  3  1  0  0  0  0
  3  6  2  0  0  0  0
  4  1  1  0  0  0  0
  5  1  1  0  0  0  0
  6  7  1  0  0  0  0
  6  8  1  0  0  0  0
  8  4  1  1  0  0  0
  9 12  1  6  0  0  0
  9  5  1  0  0  0  0
 10  2  1  6  0  0  0
 10  9  1  0  0  0  0
 10  8  1  0  0  0  0
 11 12  2  0  0  0  0
 14 16  1  0  0  0  0
 15 13  1  0  0  0  0
 15 20  1  0  0  0  0
 16 13  1  0  0  0  0
 16 11  1  0  0  0  0
 17 15  1  0  0  0  0
 18 14  2  0  0  0  0
 18 19  1  0  0  0  0
 19 15  1  0  0  0  0
 19 13  1  0  0  0  0
 20 22  1  0  0  0  0
 22 21  1  0  0  0  0
 23 24  1  0  0  0  0
 24 25  1  0  0  0  0
 25 26  2  0  0  0  0
 27  3  1  0  0  0  0
 28 27  1  0  0  0  0
 29 28  1  0  0  0  0
 30 42  2  0  0  0  0
 31 37  1  0  0  0  0
 31 33  1  0  0  0  0
 32 30  2  0  0  0  0
 33 42  1  0  0  0  0
 34 41  1  0  0  0  0
 35 39  1  0  0  0  0
 36 34  1  0  0  0  0
 38 36  1  0  0  0  0
 38 35  1  0  0  0  0
 39 41  2  0  0  0  0
 39 37  1  0  0  0  0
 40 34  1  0  0  0  0
 41 32  1  0  0  0  0
 42 29  1  0  0  0  0
M  END
>  <MODEL>
7

>  <REMARK>
 VINA RESULT:      -7.4      2.942      8.379
  Name = 
  11 active torsions:
  status: ('A' for Active; 'I' for Inactive)
    1  A    between atoms: N_1  and  C_9
    2  A    between atoms: C_3  and  C_6
    3  A    between atoms: C_6  and  C_9
    4  A    between atoms: C_10  and  C_18
    5  A    between atoms: C_10  and  C_35
    6  A    between atoms: C_11  and  C_35
    7  A    between atoms: C_16  and  C_27
    8  A    between atoms: C_18  and  C_41
    9  A    between atoms: N_21  and  C_25
   10  A    between atoms: N_21  and  C_40
   11  A    between atoms: N_29  and  C_38
                            x       y       z     vdW  Elec       q    Type
                         _______ _______ _______ _____ _____    ______ ____

>  <TORSDO>
F 11

$$$$
=
 OpenBabel10222420413D

 42 47  0  0  1  0  0  0  0  0999 V2000
  184.5090  173.7040  136.0040 C   0  0  1  0  0  3  0  0  0  0  0  0
  186.3000  177.7330  136.6500 S   0  0  0  0  0  0  0  0  0  0  0  0
  187.8360  176.8500  136.8500 C   0  0  0  0  0  0  0  0  0  0  0  0
  185.9570  174.2120  135.9350 C   0  0  0  0  0  2  0  0  0  0  0  0
  183.5510  174.6910  136.6850 C   0  0  0  0  0  2  0  0  0  0  0  0
  187.7140  175.5410  137.0640 C   0  0  0  0  0  0  0  0  0  0  0  0
  188.8830  174.6190  137.2120 C   0  0  0  0  0  1  0  0  0  0  0  0
  186.3160  175.0410  137.1680 C   0  0  1  0  0  3  0  0  0  0  0  0
  184.0540  176.1340  136.5990 C   0  0  2  0  0  3  0  0  0  0  0  0
  185.4090  176.2810  137.3020 C   0  0  2  0  0  3  0  0  0  0  0  0
  182.9810  177.1090  138.4710 C   0  0  0  0  0  3  0  0  0  0  0  0
  183.1000  177.0330  137.1960 N   0  0  0  0  0  0  0  0  0  0  0  0
  181.9450  177.8240  140.5970 C   0  0  2  0  0  3  0  0  0  0  0  0
  180.6150  177.7290  138.5970 C   0  0  0  0  0  3  0  0  0  0  0  0
  181.0620  178.8290  141.3210 C   0  0  1  0  0  0  0  0  0  0  0  0
  181.9880  178.0420  139.0830 C   0  0  2  0  0  3  0  0  0  0  0  0
  180.5780  179.9460  140.6270 O   0  0  0  0  0  1  0  0  0  0  0  0
  179.8000  177.4530  139.6030 C   0  0  0  0  0  3  0  0  0  0  0  0
  180.4840  177.4760  140.9340 C   0  0  1  0  0  3  0  0  0  0  0  0
  181.2940  178.9870  142.7500 N   0  0  0  0  0  2  0  0  0  0  0  0
  179.1640  179.4230  143.8220 C   0  0  0  0  0  1  0  0  0  0  0  0
  180.1860  178.3670  143.4590 C   0  0  0  0  0  2  0  0  0  0  0  0
  183.9980  173.3770  134.6090 C   0  0  0  0  0  2  0  0  0  0  0  0
  183.0600  172.1790  134.6310 C   0  0  0  0  0  2  0  0  0  0  0  0
  183.8100  170.9630  134.7860 N   0  0  0  0  0  0  0  0  0  0  0  0
  183.6210  170.2190  135.8110 C   0  0  0  0  0  2  0  0  0  0  0  0
  189.1490  177.5650  136.7500 C   0  0  0  0  0  2  0  0  0  0  0  0
  189.4330  178.3270  138.0300 C   0  0  0  0  0  2  0  0  0  0  0  0
  190.3440  177.5020  138.9170 C   0  0  0  0  0  2  0  0  0  0  0  0
  188.6520  177.8580  140.6060 C   0  0  0  0  0  0  0  0  0  0  0  0
  190.2600  177.4750  142.7740 N   0  0  0  0  0  2  0  0  0  0  0  0
  187.4550  178.0800  141.0610 C   0  0  0  0  0  3  0  0  0  0  0  0
  190.8080  177.1500  141.4530 C   0  0  0  0  0  2  0  0  0  0  0  0
  185.8600  178.5090  142.9520 N   0  0  0  0  0  0  0  0  0  0  0  0
  187.4700  177.1450  144.8470 C   0  0  0  0  0  2  0  0  0  0  0  0
  185.3550  178.2770  144.3000 C   0  0  0  0  0  2  0  0  0  0  0  0
  189.1690  176.5480  143.0620 C   0  0  0  0  0  2  0  0  0  0  0  0
  186.5150  178.2490  145.2750 C   0  0  0  0  0  2  0  0  0  0  0  0
  187.9080  177.2950  143.4150 C   0  0  0  0  0  0  0  0  0  0  0  0
  185.0870  179.3930  142.0910 C   0  0  0  0  0  1  0  0  0  0  0  0
  187.1050  177.9250  142.5030 C   0  0  0  0  0  0  0  0  0  0  0  0
  189.8980  177.5920  140.3350 C   0  0  0  0  0  0  0  0  0  0  0  0
  1 23  1  6  0  0  0
  1  5  1  0  0  0  0
  2  3  1  0  0  0  0
  3  6  2  0  0  0  0
  4  1  1  0  0  0  0
  6  8  1  0  0  0  0
  6  7  1  0  0  0  0
  8  4  1  6  0  0  0
  8 10  1  0  0  0  0
  9  5  1  0  0  0  0
  9 12  1  1  0  0  0
  9 10  1  0  0  0  0
 10  2  1  6  0  0  0
 11 16  1  0  0  0  0
 12 11  2  0  0  0  0
 13 19  1  0  0  0  0
 13 15  1  0  0  0  0
 14 16  1  0  0  0  0
 14 18  2  0  0  0  0
 15 20  1  0  0  0  0
 16 13  1  0  0  0  0
 17 15  1  0  0  0  0
 18 19  1  0  0  0  0
 19 15  1  0  0  0  0
 20 22  1  0  0  0  0
 22 21  1  0  0  0  0
 23 24  1  0  0  0  0
 24 25  1  0  0  0  0
 25 26  2  0  0  0  0
 27  3  1  0  0  0  0
 27 28  1  0  0  0  0
 28 29  1  0  0  0  0
 29 42  1  0  0  0  0
 30 32  2  0  0  0  0
 31 37  1  0  0  0  0
 32 41  1  0  0  0  0
 33 31  1  0  0  0  0
 34 36  1  0  0  0  0
 35 38  1  0  0  0  0
 36 38  1  0  0  0  0
 37 39  1  0  0  0  0
 39 35  1  0  0  0  0
 40 34  1  0  0  0  0
 41 34  1  0  0  0  0
 41 39  2  0  0  0  0
 42 30  2  0  0  0  0
 42 33  1  0  0  0  0
M  END
>  <MODEL>
8

>  <REMARK>
 VINA RESULT:      -7.2      3.478      7.812
  Name = 
  11 active torsions:
  status: ('A' for Active; 'I' for Inactive)
    1  A    between atoms: N_1  and  C_9
    2  A    between atoms: C_3  and  C_6
    3  A    between atoms: C_6  and  C_9
    4  A    between atoms: C_10  and  C_18
    5  A    between atoms: C_10  and  C_35
    6  A    between atoms: C_11  and  C_35
    7  A    between atoms: C_16  and  C_27
    8  A    between atoms: C_18  and  C_41
    9  A    between atoms: N_21  and  C_25
   10  A    between atoms: N_21  and  C_40
   11  A    between atoms: N_29  and  C_38
                            x       y       z     vdW  Elec       q    Type
                         _______ _______ _______ _____ _____    ______ ____

>  <TORSDO>
F 11

$$$$
=
 OpenBabel10222420413D

 42 47  0  0  1  0  0  0  0  0999 V2000
  187.2510  177.8690  138.1880 C   0  0  1  0  0  3  0  0  0  0  0  0
  185.1380  178.0660  142.1060 S   0  0  0  0  0  0  0  0  0  0  0  0
  183.8340  178.8660  141.1910 C   0  0  0  0  0  0  0  0  0  0  0  0
  185.7750  178.0840  138.5540 C   0  0  0  0  0  2  0  0  0  0  0  0
  188.2020  178.0270  139.3830 C   0  0  0  0  0  2  0  0  0  0  0  0
  184.1840  179.3240  139.9900 C   0  0  0  0  0  0  0  0  0  0  0  0
  183.2250  179.9850  139.0500 C   0  0  0  0  0  1  0  0  0  0  0  0
  185.6200  179.1540  139.6360 C   0  0  1  0  0  3  0  0  0  0  0  0
  187.5000  177.7630  140.7170 C   0  0  2  0  0  3  0  0  0  0  0  0
  186.3530  178.7570  140.9340 C   0  0  2  0  0  3  0  0  0  0  0  0
  189.2150  176.8840  142.0930 C   0  0  0  0  0  3  0  0  0  0  0  0
  188.4390  177.8640  141.8040 N   0  0  0  0  0  0  0  0  0  0  0  0
  189.4230  177.1230  144.5430 C   0  0  2  0  0  3  0  0  0  0  0  0
  190.9810  178.2500  143.1010 C   0  0  0  0  0  3  0  0  0  0  0  0
  190.3310  177.1010  145.7640 C   0  0  1  0  0  0  0  0  0  0  0  0
  190.1850  176.9960  143.2230 C   0  0  2  0  0  3  0  0  0  0  0  0
  191.6800  176.7510  145.6110 O   0  0  0  0  0  1  0  0  0  0  0  0
  190.8450  179.0110  144.1750 C   0  0  0  0  0  3  0  0  0  0  0  0
  189.8990  178.4390  145.1840 C   0  0  1  0  0  3  0  0  0  0  0  0
  189.7020  176.7760  147.0360 N   0  0  0  0  0  2  0  0  0  0  0  0
  188.3200  177.9550  148.6410 C   0  0  0  0  0  1  0  0  0  0  0  0
  188.5190  177.6090  147.1810 C   0  0  0  0  0  2  0  0  0  0  0  0
  187.4440  176.4960  137.5610 C   0  0  0  0  0  2  0  0  0  0  0  0
  188.6800  176.4610  136.6760 C   0  0  0  0  0  2  0  0  0  0  0  0
  188.5730  177.4470  135.6340 N   0  0  0  0  0  0  0  0  0  0  0  0
  189.4480  177.4880  134.6990 C   0  0  0  0  0  2  0  0  0  0  0  0
  182.4520  178.9710  141.7580 C   0  0  0  0  0  2  0  0  0  0  0  0
  181.6620  177.7110  141.4580 C   0  0  0  0  0  2  0  0  0  0  0  0
  180.5650  178.0280  140.4630 C   0  0  0  0  0  2  0  0  0  0  0  0
  181.4790  176.3730  138.9570 C   0  0  0  0  0  0  0  0  0  0  0  0
  179.1040  175.2910  138.1690 N   0  0  0  0  0  2  0  0  0  0  0  0
  182.4160  175.7000  138.3570 C   0  0  0  0  0  3  0  0  0  0  0  0
  179.0830  176.2430  139.2850 C   0  0  0  0  0  2  0  0  0  0  0  0
  183.1730  173.9880  136.6850 N   0  0  0  0  0  0  0  0  0  0  0  0
  180.7530  172.5160  136.8370 C   0  0  0  0  0  2  0  0  0  0  0  0
  183.0590  172.7060  135.9990 C   0  0  0  0  0  2  0  0  0  0  0  0
  179.8330  174.0980  138.5920 C   0  0  0  0  0  2  0  0  0  0  0  0
  181.6180  172.4820  135.5860 C   0  0  0  0  0  2  0  0  0  0  0  0
  180.9490  173.7810  137.6300 C   0  0  0  0  0  0  0  0  0  0  0  0
  184.3520  174.7940  136.4020 C   0  0  0  0  0  1  0  0  0  0  0  0
  182.1350  174.4610  137.5740 C   0  0  0  0  0  0  0  0  0  0  0  0
  180.4190  176.9120  139.4880 C   0  0  0  0  0  0  0  0  0  0  0  0
  1 23  1  1  0  0  0
  1  4  1  0  0  0  0
  1  5  1  0  0  0  0
  3 27  1  0  0  0  0
  3  2  1  0  0  0  0
  5  9  1  0  0  0  0
  6  3  2  0  0  0  0
  7  6  1  0  0  0  0
  8  4  1  6  0  0  0
  8  6  1  0  0  0  0
  8 10  1  0  0  0  0
  9 10  1  0  0  0  0
  9 12  1  1  0  0  0
 10  2  1  1  0  0  0
 11 16  1  0  0  0  0
 12 11  2  0  0  0  0
 13 19  1  0  0  0  0
 13 15  1  0  0  0  0
 14 16  1  0  0  0  0
 14 18  2  0  0  0  0
 15 20  1  0  0  0  0
 16 13  1  0  0  0  0
 17 15  1  0  0  0  0
 18 19  1  0  0  0  0
 19 15  1  0  0  0  0
 20 22  1  0  0  0  0
 22 21  1  0  0  0  0
 24 23  1  0  0  0  0
 25 24  1  0  0  0  0
 26 25  2  0  0  0  0
 28 27  1  0  0  0  0
 29 28  1  0  0  0  0
 30 42  2  0  0  0  0
 31 37  1  0  0  0  0
 31 33  1  0  0  0  0
 32 30  2  0  0  0  0
 33 42  1  0  0  0  0
 34 41  1  0  0  0  0
 35 39  1  0  0  0  0
 36 34  1  0  0  0  0
 38 36  1  0  0  0  0
 38 35  1  0  0  0  0
 39 37  1  0  0  0  0
 40 34  1  0  0  0  0
 41 39  2  0  0  0  0
 41 32  1  0  0  0  0
 42 29  1  0  0  0  0
M  END
>  <MODEL>
9

>  <REMARK>
 VINA RESULT:      -7.2      2.688      5.127
  Name = 
  11 active torsions:
  status: ('A' for Active; 'I' for Inactive)
    1  A    between atoms: N_1  and  C_9
    2  A    between atoms: C_3  and  C_6
    3  A    between atoms: C_6  and  C_9
    4  A    between atoms: C_10  and  C_18
    5  A    between atoms: C_10  and  C_35
    6  A    between atoms: C_11  and  C_35
    7  A    between atoms: C_16  and  C_27
    8  A    between atoms: C_18  and  C_41
    9  A    between atoms: N_21  and  C_25
   10  A    between atoms: N_21  and  C_40
   11  A    between atoms: N_29  and  C_38
                            x       y       z     vdW  Elec       q    Type
                         _______ _______ _______ _____ _____    ______ ____

>  <TORSDO>
F 11

$$$$
