=
 OpenBabel10222419493D

 50 57  0  0  1  0  0  0  0  0999 V2000
  195.9560  175.3340  135.2030 N   0  0  0  0  0  1  0  0  0  0  0  0
  187.0560  178.4360  137.5470 C   0  0  1  0  0  3  0  0  0  0  0  0
  188.8710  177.7860  139.0850 N   0  0  0  0  0  0  0  0  0  0  0  0
  186.2300  178.0030  138.7680 C   0  0  1  0  0  3  0  0  0  0  0  0
  186.7820  178.5500  139.9390 O   0  0  0  0  0  0  0  0  0  0  0  0
  191.0400  176.8740  138.2340 C   0  0  0  0  0  0  0  0  0  0  0  0
  187.0770  176.0450  136.4070 C   0  0  2  0  0  3  0  0  0  0  0  0
  187.9490  177.8120  140.2350 C   0  0  2  0  0  3  0  0  0  0  0  0
  188.4170  175.6830  137.0270 C   0  0  0  0  0  2  0  0  0  0  0  0
  188.5400  178.5770  137.8980 C   0  0  0  0  0  2  0  0  0  0  0  0
  192.9490  176.7950  139.6860 N   0  0  0  0  0  0  0  0  0  0  0  0
  190.2150  177.3130  139.2850 C   0  0  0  0  0  0  0  0  0  0  0  0
  192.1690  175.7020  134.8520 C   0  0  0  0  0  2  0  0  0  0  0  0
  186.8540  177.5360  136.3570 C   0  0  0  0  0  0  0  0  0  0  0  0
  189.5120  176.2130  136.2310 N   0  0  0  0  0  2  0  0  0  0  0  0
  192.3880  176.6880  138.4570 C   0  0  0  0  0  0  0  0  0  0  0  0
  189.9370  177.6760  141.7780 C   0  0  0  0  0  2  0  0  0  0  0  0
  194.5990  175.5920  135.5420 C   0  0  0  0  0  0  0  0  0  0  0  0
  186.4940  178.0370  135.3040 O   0  0  0  0  0  0  0  0  0  0  0  0
  193.6490  175.4800  134.5940 C   0  0  0  0  0  3  0  0  0  0  0  0
  190.7760  176.5430  136.8130 C   0  0  0  0  0  0  0  0  0  0  0  0
  192.1600  177.1230  140.7510 C   0  0  0  0  0  3  0  0  0  0  0  0
  193.0090  176.3220  137.2050 C   0  0  0  0  0  0  0  0  0  0  0  0
  194.2660  175.9950  136.9280 C   0  0  0  0  0  3  0  0  0  0  0  0
  191.9410  176.2690  136.2210 C   0  0  0  0  0  0  0  0  0  0  0  0
  188.6610  178.4450  141.4340 C   0  0  2  0  0  3  0  0  0  0  0  0
  190.7880  177.3910  140.5750 C   0  0  0  0  0  0  0  0  0  0  0  0
  184.7730  178.4250  138.6260 C   0  0  0  0  0  2  0  0  0  0  0  0
  184.5300  179.6010  139.3380 O   0  0  0  0  0  1  0  0  0  0  0  0
  186.0480  175.4230  137.1240 O   0  0  0  0  0  0  0  0  0  0  0  0
  185.0420  174.3160  135.4410 C   0  0  0  0  0  1  0  0  0  0  0  0
  185.9320  174.1860  136.5800 N   0  0  0  0  0  0  0  0  0  0  0  0
  185.2430  173.3560  137.5530 C   0  0  0  0  0  1  0  0  0  0  0  0
  187.7470  178.4660  142.6510 C   0  0  0  0  0  2  0  0  0  0  0  0
  188.0660  178.1080  145.0760 C   0  0  2  0  0  3  0  0  0  0  0  0
  190.0220  176.8750  144.7790 O   0  0  0  0  0  0  0  0  0  0  0  0
  189.5890  177.2380  143.5750 O   0  0  0  0  0  0  0  0  0  0  0  0
  190.1760  178.8940  145.8250 O   0  0  0  0  0  1  0  0  0  0  0  0
  188.2160  177.4830  143.7160 C   0  0  2  0  0  0  0  0  0  0  0  0
  189.4020  177.7380  145.7000 C   0  0  1  0  0  0  0  0  0  0  0  0
  187.5210  176.2840  143.6120 F   0  0  0  0  0  0  0  0  0  0  0  0
  189.3050  177.0540  147.0400 C   0  0  0  0  0  0  0  0  0  0  0  0
  189.7960  175.9040  147.2010 O   0  0  0  0  0  0  0  0  0  0  0  0
  188.6130  177.6760  148.1180 N   0  0  0  0  0  1  0  0  0  0  0  0
  186.7970  177.6480  145.8080 C   0  0  0  0  0  2  0  0  0  0  0  0
  185.8310  178.8050  146.0100 C   0  0  0  0  0  2  0  0  0  0  0  0
  184.5050  178.5100  145.3330 C   0  0  0  0  0  2  0  0  0  0  0  0
  183.9850  178.4840  142.9210 C   0  0  0  0  0  2  0  0  0  0  0  0
  184.3720  179.3660  144.0910 C   0  0  0  0  0  3  0  0  0  0  0  0
  182.9350  179.3270  143.6120 C   0  0  0  0  0  2  0  0  0  0  0  0
  1 18  1  0  0  0  0
  2 10  1  1  0  0  0
  2  4  1  0  0  0  0
  3 12  1  0  0  0  0
  3  8  1  0  0  0  0
  4 28  1  6  0  0  0
  4  5  1  0  0  0  0
  6 16  1  0  0  0  0
  6 12  2  0  0  0  0
  7  9  1  0  0  0  0
  7 30  1  1  0  0  0
  8  5  1  6  0  0  0
  8 26  1  0  0  0  0
 10  3  1  0  0  0  0
 11 22  1  0  0  0  0
 12 27  1  0  0  0  0
 13 25  1  0  0  0  0
 14  7  1  0  0  0  0
 14  2  1  0  0  0  0
 15 21  1  0  0  0  0
 15  9  1  0  0  0  0
 16 11  2  0  0  0  0
 18 24  1  0  0  0  0
 19 14  2  0  0  0  0
 20 13  1  0  0  0  0
 20 18  2  0  0  0  0
 21  6  1  0  0  0  0
 23 16  1  0  0  0  0
 24 23  2  0  0  0  0
 25 21  2  0  0  0  0
 25 23  1  0  0  0  0
 26 17  1  0  0  0  0
 26 34  1  1  0  0  0
 27 22  2  0  0  0  0
 27 17  1  0  0  0  0
 28 29  1  0  0  0  0
 31 32  1  0  0  0  0
 32 30  1  0  0  0  0
 32 33  1  0  0  0  0
 34 39  1  0  0  0  0
 35 40  1  0  0  0  0
 35 45  1  1  0  0  0
 36 40  1  0  0  0  0
 37 39  1  0  0  0  0
 37 36  1  0  0  0  0
 39 41  1  6  0  0  0
 39 35  1  0  0  0  0
 40 38  1  1  0  0  0
 40 42  1  0  0  0  0
 42 43  2  0  0  0  0
 42 44  1  0  0  0  0
 45 46  1  0  0  0  0
 47 46  1  0  0  0  0
 48 50  1  0  0  0  0
 48 49  1  0  0  0  0
 49 47  1  0  0  0  0
 50 49  1  0  0  0  0
M  END
>  <MODEL>
1

>  <REMARK>
 VINA RESULT:      -9.1      0.000      0.000
  Name = 
  10 active torsions:
  status: ('A' for Active; 'I' for Inactive)
    1  A    between atoms: C_4  and  C_19
    2  A    between atoms: O_7  and  C_8
    3  A    between atoms: O_7  and  N_41
    4  A    between atoms: C_9  and  C_14
    5  A    between atoms: C_12  and  C_38
    6  A    between atoms: C_12  and  C_47
    7  A    between atoms: C_13  and  C_27
    8  A    between atoms: C_13  and  C_50
    9  A    between atoms: C_14  and  C_50
   10  A    between atoms: C_15  and  C_43
                            x       y       z     vdW  Elec       q    Type
                         _______ _______ _______ _____ _____    ______ ____

>  <TORSDO>
F 10

$$$$
=
 OpenBabel10222419493D

 50 57  0  0  1  0  0  0  0  0999 V2000
  191.5710  176.6850  147.8010 N   0  0  0  0  0  1  0  0  0  0  0  0
  188.5180  178.7120  138.8070 C   0  0  1  0  0  3  0  0  0  0  0  0
  187.1340  178.3790  140.8220 N   0  0  0  0  0  0  0  0  0  0  0  0
  187.2100  178.2340  138.1570 C   0  0  1  0  0  3  0  0  0  0  0  0
  186.1170  178.9050  138.7310 O   0  0  0  0  0  0  0  0  0  0  0  0
  188.1500  177.7170  143.0090 C   0  0  0  0  0  0  0  0  0  0  0  0
  189.5670  176.2910  139.0480 C   0  0  2  0  0  3  0  0  0  0  0  0
  185.9040  178.3410  140.0090 C   0  0  2  0  0  3  0  0  0  0  0  0
  189.0610  176.1370  140.4740 C   0  0  0  0  0  2  0  0  0  0  0  0
  188.3130  179.0610  140.2840 C   0  0  0  0  0  2  0  0  0  0  0  0
  186.8820  177.9580  145.0320 N   0  0  0  0  0  0  0  0  0  0  0  0
  187.0430  178.0960  142.2280 C   0  0  0  0  0  0  0  0  0  0  0  0
  191.5780  176.5380  143.9830 C   0  0  0  0  0  3  0  0  0  0  0  0
  189.6500  177.7360  138.6240 C   0  0  0  0  0  0  0  0  0  0  0  0
  189.9760  176.7660  141.4140 N   0  0  0  0  0  2  0  0  0  0  0  0
  188.0490  177.7200  144.3840 C   0  0  0  0  0  0  0  0  0  0  0  0
  184.5510  178.5400  142.1260 C   0  0  0  0  0  2  0  0  0  0  0  0
  191.1150  176.7800  146.4570 C   0  0  0  0  0  0  0  0  0  0  0  0
  190.6820  178.1330  138.1090 O   0  0  0  0  0  0  0  0  0  0  0  0
  191.9660  176.4980  145.4510 C   0  0  0  0  0  3  0  0  0  0  0  0
  189.5270  177.2860  142.6680 C   0  0  0  0  0  0  0  0  0  0  0  0
  185.7610  178.2320  144.3030 C   0  0  0  0  0  3  0  0  0  0  0  0
  189.3390  177.3770  144.9370 C   0  0  0  0  0  0  0  0  0  0  0  0
  189.7200  177.2030  146.1970 C   0  0  0  0  0  3  0  0  0  0  0  0
  190.2160  177.1370  143.8030 C   0  0  1  0  0  3  0  0  0  0  0  0
  184.8020  179.1190  140.7320 C   0  0  2  0  0  3  0  0  0  0  0  0
  185.8170  178.3110  142.8980 C   0  0  0  0  0  0  0  0  0  0  0  0
  187.2290  178.4550  136.6500 C   0  0  0  0  0  2  0  0  0  0  0  0
  187.3030  179.8180  136.3540 O   0  0  0  0  0  1  0  0  0  0  0  0
  188.7340  175.5760  138.1790 O   0  0  0  0  0  0  0  0  0  0  0  0
  188.5260  174.9860  136.0160 C   0  0  0  0  0  1  0  0  0  0  0  0
  189.4580  175.4160  137.0430 N   0  0  0  0  0  0  0  0  0  0  0  0
  190.3680  174.3050  137.2700 C   0  0  0  0  0  1  0  0  0  0  0  0
  183.5060  179.0810  139.9340 C   0  0  0  0  0  2  0  0  0  0  0  0
  182.2010  177.2070  138.9860 C   0  0  2  0  0  3  0  0  0  0  0  0
  180.6410  177.2320  140.7180 O   0  0  0  0  0  0  0  0  0  0  0  0
  181.5260  178.1960  140.9600 O   0  0  0  0  0  0  0  0  0  0  0  0
  179.9300  177.7920  138.6270 O   0  0  0  0  0  1  0  0  0  0  0  0
  182.6880  177.8370  140.2620 C   0  0  2  0  0  0  0  0  0  0  0  0
  180.7520  176.9250  139.3510 C   0  0  1  0  0  0  0  0  0  0  0  0
  183.4330  176.9530  141.0320 F   0  0  0  0  0  0  0  0  0  0  0  0
  180.3080  175.5030  139.1180 C   0  0  0  0  0  0  0  0  0  0  0  0
  180.2850  174.6830  140.0740 O   0  0  0  0  0  0  0  0  0  0  0  0
  179.9630  175.0610  137.8090 N   0  0  0  0  0  1  0  0  0  0  0  0
  183.0610  176.0130  138.5450 C   0  0  0  0  0  2  0  0  0  0  0  0
  183.9640  176.3890  137.3820 C   0  0  0  0  0  2  0  0  0  0  0  0
  184.8290  175.2060  136.9820 C   0  0  0  0  0  2  0  0  0  0  0  0
  184.1660  172.8310  136.8960 C   0  0  0  0  0  2  0  0  0  0  0  0
  184.4510  174.0010  137.8160 C   0  0  0  0  0  3  0  0  0  0  0  0
  185.4920  172.9170  137.6210 C   0  0  0  0  0  2  0  0  0  0  0  0
  2 10  1  1  0  0  0
  3 12  1  0  0  0  0
  4 28  1  6  0  0  0
  4  5  1  0  0  0  0
  4  2  1  0  0  0  0
  6 16  1  0  0  0  0
  7 30  1  6  0  0  0
  7  9  1  0  0  0  0
  8  5  1  6  0  0  0
  8 26  1  0  0  0  0
  8  3  1  0  0  0  0
  9 15  1  0  0  0  0
 10  3  1  0  0  0  0
 12 27  2  0  0  0  0
 12  6  1  0  0  0  0
 13 20  2  0  0  0  0
 14  2  1  0  0  0  0
 14  7  1  0  0  0  0
 15 21  1  0  0  0  0
 16 23  2  0  0  0  0
 16 11  1  0  0  0  0
 17 27  1  0  0  0  0
 18  1  1  0  0  0  0
 19 14  2  0  0  0  0
 20 18  1  0  0  0  0
 21  6  2  0  0  0  0
 21 25  1  0  0  0  0
 22 11  2  0  0  0  0
 23 24  1  0  0  0  0
 24 18  2  0  0  0  0
 25 13  1  1  0  0  0
 25 23  1  0  0  0  0
 26 34  1  6  0  0  0
 26 17  1  0  0  0  0
 27 22  1  0  0  0  0
 29 28  1  0  0  0  0
 31 32  1  0  0  0  0
 32 33  1  0  0  0  0
 32 30  1  0  0  0  0
 34 39  1  0  0  0  0
 35 45  1  1  0  0  0
 35 40  1  0  0  0  0
 35 39  1  0  0  0  0
 36 37  1  0  0  0  0
 39 37  1  0  0  0  0
 39 41  1  1  0  0  0
 40 38  1  6  0  0  0
 40 36  1  0  0  0  0
 42 40  1  0  0  0  0
 42 43  2  0  0  0  0
 44 42  1  0  0  0  0
 46 45  1  0  0  0  0
 47 46  1  0  0  0  0
 47 49  1  0  0  0  0
 48 50  1  0  0  0  0
 48 49  1  0  0  0  0
 50 49  1  0  0  0  0
M  END
>  <MODEL>
2

>  <REMARK>
 VINA RESULT:      -8.7      3.218      7.555
  Name = 
  10 active torsions:
  status: ('A' for Active; 'I' for Inactive)
    1  A    between atoms: C_4  and  C_19
    2  A    between atoms: O_7  and  C_8
    3  A    between atoms: O_7  and  N_41
    4  A    between atoms: C_9  and  C_14
    5  A    between atoms: C_12  and  C_38
    6  A    between atoms: C_12  and  C_47
    7  A    between atoms: C_13  and  C_27
    8  A    between atoms: C_13  and  C_50
    9  A    between atoms: C_14  and  C_50
   10  A    between atoms: C_15  and  C_43
                            x       y       z     vdW  Elec       q    Type
                         _______ _______ _______ _____ _____    ______ ____

>  <TORSDO>
F 10

$$$$
=
 OpenBabel10222419493D

 50 57  0  0  1  0  0  0  0  0999 V2000
  185.0490  178.9700  147.1060 N   0  0  0  0  0  1  0  0  0  0  0  0
  183.0530  177.0440  137.7980 C   0  0  1  0  0  3  0  0  0  0  0  0
  185.2020  177.7950  138.7470 N   0  0  0  0  0  0  0  0  0  0  0  0
  183.6570  177.7440  136.5710 C   0  0  1  0  0  3  0  0  0  0  0  0
  184.9990  177.3590  136.4130 O   0  0  0  0  0  0  0  0  0  0  0  0
  185.4300  178.3710  141.1710 C   0  0  0  0  0  0  0  0  0  0  0  0
  181.8180  179.1980  138.7220 C   0  0  2  0  0  3  0  0  0  0  0  0
  185.7480  178.0390  137.3990 C   0  0  2  0  0  3  0  0  0  0  0  0
  182.9720  179.5500  139.6470 C   0  0  0  0  0  2  0  0  0  0  0  0
  184.0990  176.8450  138.8990 C   0  0  0  0  0  2  0  0  0  0  0  0
  187.6120  178.5380  142.1540 N   0  0  0  0  0  0  0  0  0  0  0  0
  185.9820  178.1840  139.8910 C   0  0  0  0  0  0  0  0  0  0  0  0
  182.9300  178.8580  143.9280 C   0  0  0  0  0  3  0  0  0  0  0  0
  181.8270  177.7440  138.3230 C   0  0  0  0  0  0  0  0  0  0  0  0
  182.8770  178.8050  140.8920 N   0  0  0  0  0  2  0  0  0  0  0  0
  186.2620  178.4810  142.2640 C   0  0  0  0  0  0  0  0  0  0  0  0
  188.0420  178.2720  138.4170 C   0  0  0  0  0  2  0  0  0  0  0  0
  184.7060  178.8850  145.7280 C   0  0  0  0  0  0  0  0  0  0  0  0
  180.7940  177.1030  138.4310 O   0  0  0  0  0  0  0  0  0  0  0  0
  183.4070  178.9120  145.3690 C   0  0  0  0  0  3  0  0  0  0  0  0
  184.0350  178.4770  141.6630 C   0  0  0  0  0  0  0  0  0  0  0  0
  188.1820  178.4600  140.9160 C   0  0  0  0  0  3  0  0  0  0  0  0
  185.4440  178.5780  143.4510 C   0  0  0  0  0  0  0  0  0  0  0  0
  185.7850  178.7510  144.7230 C   0  0  0  0  0  3  0  0  0  0  0  0
  184.0640  178.5510  142.9970 C   0  0  1  0  0  3  0  0  0  0  0  0
  187.2020  177.5620  137.3540 C   0  0  2  0  0  3  0  0  0  0  0  0
  187.3870  178.2790  139.7670 C   0  0  0  0  0  0  0  0  0  0  0  0
  182.8670  177.4240  135.3080 C   0  0  0  0  0  2  0  0  0  0  0  0
  182.9180  176.0570  135.0290 O   0  0  0  0  0  1  0  0  0  0  0  0
  181.8660  180.0140  137.5850 O   0  0  0  0  0  0  0  0  0  0  0  0
  180.3570  180.3330  135.9450 C   0  0  0  0  0  1  0  0  0  0  0  0
  180.5860  180.4120  137.3760 N   0  0  0  0  0  0  0  0  0  0  0  0
  180.5130  181.8190  137.7320 C   0  0  0  0  0  1  0  0  0  0  0  0
  187.8090  177.8210  135.9820 C   0  0  0  0  0  2  0  0  0  0  0  0
  189.1250  175.7400  136.2010 C   0  0  2  0  0  3  0  0  0  0  0  0
  190.9960  176.8440  137.0460 O   0  0  0  0  0  0  0  0  0  0  0  0
  190.0550  177.7590  136.8220 O   0  0  0  0  0  0  0  0  0  0  0  0
  189.8940  175.3980  138.4200 O   0  0  0  0  0  1  0  0  0  0  0  0
  189.1980  177.2040  135.8630 C   0  0  2  0  0  0  0  0  0  0  0  0
  190.3360  175.6050  137.1110 C   0  0  1  0  0  0  0  0  0  0  0  0
  189.7210  177.4230  134.5940 F   0  0  0  0  0  0  0  0  0  0  0  0
  191.2950  174.5060  136.7270 C   0  0  0  0  0  0  0  0  0  0  0  0
  191.1750  173.3570  137.2300 O   0  0  0  0  0  0  0  0  0  0  0  0
  192.3740  174.7700  135.8350 N   0  0  0  0  0  1  0  0  0  0  0  0
  189.0770  174.8420  134.9560 C   0  0  0  0  0  2  0  0  0  0  0  0
  188.0960  173.6960  135.1440 C   0  0  0  0  0  2  0  0  0  0  0  0
  186.8160  174.1970  135.7900 C   0  0  0  0  0  2  0  0  0  0  0  0
  185.6590  172.9940  137.6070 C   0  0  0  0  0  2  0  0  0  0  0  0
  185.9220  173.0200  136.1150 C   0  0  0  0  0  3  0  0  0  0  0  0
  184.6060  173.5330  136.6640 C   0  0  0  0  0  2  0  0  0  0  0  0
  2 14  1  0  0  0  0
  2 10  1  1  0  0  0
  3 10  1  0  0  0  0
  3 12  1  0  0  0  0
  4 28  1  6  0  0  0
  4  2  1  0  0  0  0
  5  4  1  0  0  0  0
  6 21  2  0  0  0  0
  6 16  1  0  0  0  0
  7 30  1  6  0  0  0
  7  9  1  0  0  0  0
  8  5  1  6  0  0  0
  8  3  1  0  0  0  0
  9 15  1  0  0  0  0
 11 16  1  0  0  0  0
 12  6  1  0  0  0  0
 13 20  2  0  0  0  0
 14 19  2  0  0  0  0
 14  7  1  0  0  0  0
 15 21  1  0  0  0  0
 16 23  2  0  0  0  0
 17 27  1  0  0  0  0
 18  1  1  0  0  0  0
 20 18  1  0  0  0  0
 21 25  1  0  0  0  0
 22 11  2  0  0  0  0
 23 24  1  0  0  0  0
 24 18  2  0  0  0  0
 25 23  1  0  0  0  0
 25 13  1  6  0  0  0
 26 34  1  6  0  0  0
 26  8  1  0  0  0  0
 26 17  1  0  0  0  0
 27 12  2  0  0  0  0
 27 22  1  0  0  0  0
 29 28  1  0  0  0  0
 31 32  1  0  0  0  0
 32 30  1  0  0  0  0
 32 33  1  0  0  0  0
 35 45  1  6  0  0  0
 35 40  1  0  0  0  0
 36 40  1  0  0  0  0
 37 36  1  0  0  0  0
 39 41  1  6  0  0  0
 39 34  1  0  0  0  0
 39 35  1  0  0  0  0
 39 37  1  0  0  0  0
 40 38  1  1  0  0  0
 42 40  1  0  0  0  0
 42 43  2  0  0  0  0
 44 42  1  0  0  0  0
 45 46  1  0  0  0  0
 46 47  1  0  0  0  0
 47 49  1  0  0  0  0
 49 50  1  0  0  0  0
 49 48  1  0  0  0  0
 50 48  1  0  0  0  0
M  END
>  <MODEL>
3

>  <REMARK>
 VINA RESULT:      -8.6      3.471      8.681
  Name = 
  10 active torsions:
  status: ('A' for Active; 'I' for Inactive)
    1  A    between atoms: C_4  and  C_19
    2  A    between atoms: O_7  and  C_8
    3  A    between atoms: O_7  and  N_41
    4  A    between atoms: C_9  and  C_14
    5  A    between atoms: C_12  and  C_38
    6  A    between atoms: C_12  and  C_47
    7  A    between atoms: C_13  and  C_27
    8  A    between atoms: C_13  and  C_50
    9  A    between atoms: C_14  and  C_50
   10  A    between atoms: C_15  and  C_43
                            x       y       z     vdW  Elec       q    Type
                         _______ _______ _______ _____ _____    ______ ____

>  <TORSDO>
F 10

$$$$
=
 OpenBabel10222419493D

 50 57  0  0  1  0  0  0  0  0999 V2000
  187.0230  178.3520  147.9910 N   0  0  0  0  0  1  0  0  0  0  0  0
  181.7430  177.2900  139.9090 C   0  0  1  0  0  3  0  0  0  0  0  0
  184.1340  177.8730  140.0720 N   0  0  0  0  0  0  0  0  0  0  0  0
  181.9200  178.0650  138.5940 C   0  0  1  0  0  3  0  0  0  0  0  0
  183.0910  177.6420  137.9420 O   0  0  0  0  0  0  0  0  0  0  0  0
  185.2410  178.2350  142.2860 C   0  0  0  0  0  0  0  0  0  0  0  0
  181.0610  179.4080  141.3480 C   0  0  2  0  0  3  0  0  0  0  0  0
  184.1830  178.2060  138.6370 C   0  0  2  0  0  3  0  0  0  0  0  0
  182.4890  179.6340  141.8200 C   0  0  0  0  0  2  0  0  0  0  0  0
  183.0950  176.9580  140.5480 C   0  0  0  0  0  2  0  0  0  0  0  0
  187.6360  178.2320  142.4330 N   0  0  0  0  0  0  0  0  0  0  0  0
  185.2920  178.1340  140.8840 C   0  0  0  0  0  0  0  0  0  0  0  0
  183.9160  178.5900  145.7800 C   0  0  0  0  0  3  0  0  0  0  0  0
  180.8320  177.9920  140.8800 C   0  0  0  0  0  0  0  0  0  0  0  0
  182.7900  178.7930  142.9670 N   0  0  0  0  0  2  0  0  0  0  0  0
  186.4120  178.2200  143.0140 C   0  0  0  0  0  0  0  0  0  0  0  0
  186.6990  178.2620  138.7810 C   0  0  0  0  0  2  0  0  0  0  0  0
  186.2110  178.3960  146.8240 C   0  0  0  0  0  0  0  0  0  0  0  0
  179.8630  177.3870  141.3100 O   0  0  0  0  0  0  0  0  0  0  0  0
  184.8740  178.5050  146.9550 C   0  0  0  0  0  3  0  0  0  0  0  0
  184.1210  178.3550  143.2500 C   0  0  0  0  0  0  0  0  0  0  0  0
  187.7260  178.2360  141.0710 C   0  0  0  0  0  3  0  0  0  0  0  0
  186.0750  178.2510  144.4190 C   0  0  1  0  0  3  0  0  0  0  0  0
  186.8530  178.3030  145.4930 C   0  0  0  0  0  3  0  0  0  0  0  0
  184.6240  178.3160  144.4880 C   0  0  0  0  0  0  0  0  0  0  0  0
  185.4920  177.6770  138.0450 C   0  0  2  0  0  3  0  0  0  0  0  0
  186.5660  178.1820  140.2730 C   0  0  0  0  0  0  0  0  0  0  0  0
  180.7150  177.8840  137.6800 C   0  0  0  0  0  2  0  0  0  0  0  0
  180.0470  176.6940  137.9760 O   0  0  0  0  0  1  0  0  0  0  0  0
  180.7590  180.3130  140.3230 O   0  0  0  0  0  0  0  0  0  0  0  0
  179.1110  181.6400  139.5530 C   0  0  0  0  0  1  0  0  0  0  0  0
  179.4170  180.4950  140.3920 N   0  0  0  0  0  0  0  0  0  0  0  0
  179.1090  180.8860  141.7580 C   0  0  0  0  0  1  0  0  0  0  0  0
  185.5920  178.0260  136.5660 C   0  0  0  0  0  2  0  0  0  0  0  0
  186.5100  175.7320  136.6550 C   0  0  2  0  0  3  0  0  0  0  0  0
  188.3890  176.2850  135.3900 O   0  0  0  0  0  0  0  0  0  0  0  0
  187.6580  177.3880  135.5280 O   0  0  0  0  0  0  0  0  0  0  0  0
  188.7010  175.6820  137.5650 O   0  0  0  0  0  1  0  0  0  0  0  0
  186.3510  176.9550  135.7930 C   0  0  2  0  0  0  0  0  0  0  0  0
  187.9740  175.4050  136.4050 C   0  0  1  0  0  0  0  0  0  0  0  0
  185.7080  176.6710  134.5940 F   0  0  0  0  0  0  0  0  0  0  0  0
  188.2380  173.9840  135.9760 C   0  0  0  0  0  0  0  0  0  0  0  0
  188.5040  173.1020  136.8350 O   0  0  0  0  0  0  0  0  0  0  0  0
  188.2430  173.6380  134.5940 N   0  0  0  0  0  1  0  0  0  0  0  0
  185.4800  174.6390  136.3340 C   0  0  0  0  0  2  0  0  0  0  0  0
  184.6710  174.2710  137.5670 C   0  0  0  0  0  2  0  0  0  0  0  0
  183.4070  173.5290  137.1670 C   0  0  0  0  0  2  0  0  0  0  0  0
  184.2520  171.4260  136.1910 C   0  0  0  0  0  2  0  0  0  0  0  0
  183.6510  172.7800  135.8740 C   0  0  0  0  0  3  0  0  0  0  0  0
  182.7820  171.5390  135.8480 C   0  0  0  0  0  2  0  0  0  0  0  0
  2 10  1  1  0  0  0
  2 14  1  0  0  0  0
  3 10  1  0  0  0  0
  3 12  1  0  0  0  0
  4 28  1  6  0  0  0
  4  2  1  0  0  0  0
  5  4  1  0  0  0  0
  6 16  2  0  0  0  0
  6 21  1  0  0  0  0
  7 30  1  6  0  0  0
  7  9  1  0  0  0  0
  8  5  1  6  0  0  0
  8  3  1  0  0  0  0
  9 15  1  0  0  0  0
 11 16  1  0  0  0  0
 12  6  1  0  0  0  0
 13 20  2  0  0  0  0
 14 19  2  0  0  0  0
 14  7  1  0  0  0  0
 15 21  1  0  0  0  0
 16 23  1  0  0  0  0
 17 27  1  0  0  0  0
 18 20  1  0  0  0  0
 18  1  1  0  0  0  0
 21 25  2  0  0  0  0
 22 11  2  0  0  0  0
 23 25  1  0  0  0  0
 23 24  1  6  0  0  0
 24 18  2  0  0  0  0
 25 13  1  0  0  0  0
 26 34  1  6  0  0  0
 26  8  1  0  0  0  0
 26 17  1  0  0  0  0
 27 12  2  0  0  0  0
 27 22  1  0  0  0  0
 28 29  1  0  0  0  0
 30 32  1  0  0  0  0
 31 32  1  0  0  0  0
 32 33  1  0  0  0  0
 35 45  1  6  0  0  0
 36 37  1  0  0  0  0
 36 40  1  0  0  0  0
 37 39  1  0  0  0  0
 39 41  1  6  0  0  0
 39 34  1  0  0  0  0
 39 35  1  0  0  0  0
 40 35  1  0  0  0  0
 40 38  1  1  0  0  0
 42 40  1  0  0  0  0
 42 43  2  0  0  0  0
 44 42  1  0  0  0  0
 45 46  1  0  0  0  0
 47 46  1  0  0  0  0
 49 48  1  0  0  0  0
 49 47  1  0  0  0  0
 50 49  1  0  0  0  0
 50 48  1  0  0  0  0
M  END
>  <MODEL>
4

>  <REMARK>
 VINA RESULT:      -7.9      4.114      9.197
  Name = 
  10 active torsions:
  status: ('A' for Active; 'I' for Inactive)
    1  A    between atoms: C_4  and  C_19
    2  A    between atoms: O_7  and  C_8
    3  A    between atoms: O_7  and  N_41
    4  A    between atoms: C_9  and  C_14
    5  A    between atoms: C_12  and  C_38
    6  A    between atoms: C_12  and  C_47
    7  A    between atoms: C_13  and  C_27
    8  A    between atoms: C_13  and  C_50
    9  A    between atoms: C_14  and  C_50
   10  A    between atoms: C_15  and  C_43
                            x       y       z     vdW  Elec       q    Type
                         _______ _______ _______ _____ _____    ______ ____

>  <TORSDO>
F 10

$$$$
=
 OpenBabel10222419493D

 50 57  0  0  1  0  0  0  0  0999 V2000
  191.0770  176.6510  147.6970 N   0  0  0  0  0  1  0  0  0  0  0  0
  188.9490  178.5470  138.4120 C   0  0  1  0  0  3  0  0  0  0  0  0
  187.3720  178.3100  140.2940 N   0  0  0  0  0  0  0  0  0  0  0  0
  187.6930  178.0960  137.6520 C   0  0  1  0  0  3  0  0  0  0  0  0
  186.5740  178.8150  138.1060 O   0  0  0  0  0  0  0  0  0  0  0  0
  188.1570  177.6710  142.5820 C   0  0  0  0  0  0  0  0  0  0  0  0
  189.8870  176.1000  138.8050 C   0  0  2  0  0  3  0  0  0  0  0  0
  186.2240  178.2910  139.3700 C   0  0  2  0  0  3  0  0  0  0  0  0
  189.2460  175.9990  140.1800 C   0  0  0  0  0  2  0  0  0  0  0  0
  188.6200  178.9400  139.8550 C   0  0  0  0  0  2  0  0  0  0  0  0
  186.7140  178.0040  144.4700 N   0  0  0  0  0  0  0  0  0  0  0  0
  187.1410  178.0660  141.6920 C   0  0  0  0  0  0  0  0  0  0  0  0
  191.4360  176.4070  143.9010 C   0  0  0  0  0  3  0  0  0  0  0  0
  190.0590  177.5310  138.3580 C   0  0  0  0  0  0  0  0  0  0  0  0
  190.0900  176.6220  141.1870 N   0  0  0  0  0  2  0  0  0  0  0  0
  187.9270  177.7120  143.9410 C   0  0  0  0  0  0  0  0  0  0  0  0
  184.6860  178.5880  141.3450 C   0  0  0  0  0  2  0  0  0  0  0  0
  190.7520  176.7260  146.3140 C   0  0  0  0  0  0  0  0  0  0  0  0
  191.1480  177.8810  137.9340 O   0  0  0  0  0  0  0  0  0  0  0  0
  191.6830  176.3920  145.3990 C   0  0  0  0  0  3  0  0  0  0  0  0
  189.5440  177.1870  142.3810 C   0  0  0  0  0  0  0  0  0  0  0  0
  185.6760  178.2960  143.6330 C   0  0  0  0  0  3  0  0  0  0  0  0
  189.1470  177.3420  144.6200 C   0  0  0  0  0  0  0  0  0  0  0  0
  189.4030  177.1870  145.9140 C   0  0  0  0  0  3  0  0  0  0  0  0
  190.1180  177.0450  143.5790 C   0  0  1  0  0  3  0  0  0  0  0  0
  185.0860  179.1220  139.9690 C   0  0  2  0  0  3  0  0  0  0  0  0
  185.8650  178.3370  142.2380 C   0  0  0  0  0  0  0  0  0  0  0  0
  187.8600  178.2770  136.1490 C   0  0  0  0  0  2  0  0  0  0  0  0
  186.6330  178.1430  135.4980 O   0  0  0  0  0  1  0  0  0  0  0  0
  189.1150  175.3910  137.8770 O   0  0  0  0  0  0  0  0  0  0  0  0
  189.3170  173.9590  136.1510 C   0  0  0  0  0  1  0  0  0  0  0  0
  189.9880  174.9940  136.9170 N   0  0  0  0  0  0  0  0  0  0  0  0
  191.1040  174.3540  137.5930 C   0  0  0  0  0  1  0  0  0  0  0  0
  183.8700  179.1060  139.0530 C   0  0  0  0  0  2  0  0  0  0  0  0
  181.9460  177.7180  138.3560 C   0  0  2  0  0  3  0  0  0  0  0  0
  182.4640  176.0010  139.8460 O   0  0  0  0  0  0  0  0  0  0  0  0
  183.3760  176.9580  140.0010 O   0  0  0  0  0  0  0  0  0  0  0  0
  180.5350  177.1660  140.1820 O   0  0  0  0  0  1  0  0  0  0  0  0
  183.3830  177.6840  138.8020 C   0  0  2  0  0  0  0  0  0  0  0  0
  181.3640  176.6030  139.2100 C   0  0  1  0  0  0  0  0  0  0  0  0
  184.2020  177.0440  137.8800 F   0  0  0  0  0  0  0  0  0  0  0  0
  180.5960  175.5560  138.4420 C   0  0  0  0  0  0  0  0  0  0  0  0
  179.3650  175.7090  138.2230 O   0  0  0  0  0  0  0  0  0  0  0  0
  181.2410  174.3640  138.0060 N   0  0  0  0  0  1  0  0  0  0  0  0
  181.7910  177.5930  136.8330 C   0  0  0  0  0  2  0  0  0  0  0  0
  181.1870  178.8550  136.2390 C   0  0  0  0  0  2  0  0  0  0  0  0
  180.5370  179.6920  137.3260 C   0  0  0  0  0  2  0  0  0  0  0  0
  179.9780  181.9990  138.0000 C   0  0  0  0  0  2  0  0  0  0  0  0
  180.8400  181.1560  137.0830 C   0  0  0  0  0  3  0  0  0  0  0  0
  181.4320  181.7560  138.3420 C   0  0  0  0  0  2  0  0  0  0  0  0
  2 10  1  1  0  0  0
  3 12  1  0  0  0  0
  4 28  1  6  0  0  0
  4  5  1  0  0  0  0
  4  2  1  0  0  0  0
  6 16  1  0  0  0  0
  7 30  1  6  0  0  0
  7  9  1  0  0  0  0
  8  5  1  6  0  0  0
  8 26  1  0  0  0  0
  8  3  1  0  0  0  0
  9 15  1  0  0  0  0
 10  3  1  0  0  0  0
 12 27  2  0  0  0  0
 12  6  1  0  0  0  0
 13 20  2  0  0  0  0
 14  2  1  0  0  0  0
 14  7  1  0  0  0  0
 15 21  1  0  0  0  0
 16 11  1  0  0  0  0
 16 23  2  0  0  0  0
 17 27  1  0  0  0  0
 18  1  1  0  0  0  0
 19 14  2  0  0  0  0
 20 18  1  0  0  0  0
 21  6  2  0  0  0  0
 21 25  1  0  0  0  0
 22 11  2  0  0  0  0
 23 24  1  0  0  0  0
 24 18  2  0  0  0  0
 25 13  1  1  0  0  0
 25 23  1  0  0  0  0
 26 34  1  6  0  0  0
 26 17  1  0  0  0  0
 27 22  1  0  0  0  0
 29 28  1  0  0  0  0
 31 32  1  0  0  0  0
 32 33  1  0  0  0  0
 32 30  1  0  0  0  0
 35 45  1  6  0  0  0
 35 39  1  0  0  0  0
 35 40  1  0  0  0  0
 36 37  1  0  0  0  0
 39 41  1  6  0  0  0
 39 34  1  0  0  0  0
 39 37  1  0  0  0  0
 40 36  1  0  0  0  0
 40 38  1  1  0  0  0
 42 40  1  0  0  0  0
 43 42  2  0  0  0  0
 44 42  1  0  0  0  0
 46 45  1  0  0  0  0
 46 47  1  0  0  0  0
 48 50  1  0  0  0  0
 49 47  1  0  0  0  0
 49 48  1  0  0  0  0
 49 50  1  0  0  0  0
M  END
>  <MODEL>
5

>  <REMARK>
 VINA RESULT:      -7.8      3.375      7.537
  Name = 
  10 active torsions:
  status: ('A' for Active; 'I' for Inactive)
    1  A    between atoms: C_4  and  C_19
    2  A    between atoms: O_7  and  C_8
    3  A    between atoms: O_7  and  N_41
    4  A    between atoms: C_9  and  C_14
    5  A    between atoms: C_12  and  C_38
    6  A    between atoms: C_12  and  C_47
    7  A    between atoms: C_13  and  C_27
    8  A    between atoms: C_13  and  C_50
    9  A    between atoms: C_14  and  C_50
   10  A    between atoms: C_15  and  C_43
                            x       y       z     vdW  Elec       q    Type
                         _______ _______ _______ _____ _____    ______ ____

>  <TORSDO>
F 10

$$$$
=
 OpenBabel10222419493D

 50 57  0  0  1  0  0  0  0  0999 V2000
  194.7130  176.0400  136.7130 N   0  0  0  0  0  1  0  0  0  0  0  0
  185.2280  178.1220  136.8650 C   0  0  1  0  0  3  0  0  0  0  0  0
  186.7220  177.7910  138.7990 N   0  0  0  0  0  0  0  0  0  0  0  0
  184.2070  177.6560  137.9140 C   0  0  1  0  0  3  0  0  0  0  0  0
  184.4240  178.3320  139.1270 O   0  0  0  0  0  0  0  0  0  0  0  0
  189.1120  177.1140  138.5020 C   0  0  0  0  0  0  0  0  0  0  0  0
  185.7640  175.6930  135.9520 C   0  0  2  0  0  3  0  0  0  0  0  0
  185.5730  177.7650  139.7220 C   0  0  2  0  0  3  0  0  0  0  0  0
  186.9660  175.5380  136.8690 C   0  0  0  0  0  2  0  0  0  0  0  0
  186.5740  178.4670  137.5090 C   0  0  0  0  0  2  0  0  0  0  0  0
  190.6520  177.3560  140.3260 N   0  0  0  0  0  0  0  0  0  0  0  0
  188.0320  177.5030  139.3160 C   0  0  0  0  0  0  0  0  0  0  0  0
  191.0790  175.9080  135.5420 C   0  0  0  0  0  2  0  0  0  0  0  0
  185.3930  177.1390  135.7360 C   0  0  0  0  0  0  0  0  0  0  0  0
  188.1440  176.1560  136.2820 N   0  0  0  0  0  2  0  0  0  0  0  0
  190.3900  177.1120  139.0190 C   0  0  0  0  0  0  0  0  0  0  0  0
  187.1760  177.9650  141.6560 C   0  0  0  0  0  2  0  0  0  0  0  0
  193.2950  176.1430  136.7370 C   0  0  0  0  0  0  0  0  0  0  0  0
  185.2200  177.5310  134.5940 O   0  0  0  0  0  0  0  0  0  0  0  0
  192.5940  175.8600  135.6210 C   0  0  0  0  0  3  0  0  0  0  0  0
  189.2040  176.6750  137.0890 C   0  0  0  0  0  0  0  0  0  0  0  0
  189.6170  177.6400  141.1700 C   0  0  0  0  0  3  0  0  0  0  0  0
  191.3080  176.7580  137.9610 C   0  0  0  0  0  0  0  0  0  0  0  0
  192.6230  176.5770  137.9830 C   0  0  0  0  0  3  0  0  0  0  0  0
  190.4940  176.5170  136.7810 C   0  0  0  0  0  0  0  0  0  0  0  0
  185.9290  178.5470  140.9880 C   0  0  2  0  0  3  0  0  0  0  0  0
  188.2960  177.7240  140.6870 C   0  0  0  0  0  0  0  0  0  0  0  0
  182.7790  177.8820  137.4340 C   0  0  0  0  0  2  0  0  0  0  0  0
  181.9510  176.8340  137.8420 O   0  0  0  0  0  1  0  0  0  0  0  0
  184.6780  174.9870  136.4830 O   0  0  0  0  0  0  0  0  0  0  0  0
  183.0050  174.1980  135.1990 C   0  0  0  0  0  1  0  0  0  0  0  0
  184.3980  174.0230  135.5700 N   0  0  0  0  0  0  0  0  0  0  0  0
  184.4880  172.7460  136.2580 C   0  0  0  0  0  1  0  0  0  0  0  0
  184.7730  178.5210  141.9790 C   0  0  0  0  0  2  0  0  0  0  0  0
  185.6340  178.3240  144.2880 C   0  0  2  0  0  3  0  0  0  0  0  0
  184.2000  179.9670  145.1130 O   0  0  0  0  0  0  0  0  0  0  0  0
  183.9530  179.8330  143.8120 O   0  0  0  0  0  0  0  0  0  0  0  0
  183.9130  177.8280  145.8440 O   0  0  0  0  0  1  0  0  0  0  0  0
  185.1150  179.2850  143.2530 C   0  0  2  0  0  0  0  0  0  0  0  0
  184.8650  178.7950  145.5130 C   0  0  1  0  0  0  0  0  0  0  0  0
  186.0210  180.3030  142.9820 F   0  0  0  0  0  0  0  0  0  0  0  0
  185.7190  179.0910  146.7190 C   0  0  0  0  0  0  0  0  0  0  0  0
  186.0940  178.1540  147.4750 O   0  0  0  0  0  0  0  0  0  0  0  0
  186.0640  180.4330  147.0470 N   0  0  0  0  0  1  0  0  0  0  0  0
  187.1670  178.3180  144.3800 C   0  0  0  0  0  2  0  0  0  0  0  0
  187.6870  176.9450  144.7720 C   0  0  0  0  0  2  0  0  0  0  0  0
  189.0950  177.0520  145.3310 C   0  0  0  0  0  2  0  0  0  0  0  0
  190.4920  176.7530  147.3430 C   0  0  0  0  0  2  0  0  0  0  0  0
  189.0710  176.7580  146.8160 C   0  0  0  0  0  3  0  0  0  0  0  0
  189.6050  177.9590  147.5690 C   0  0  0  0  0  2  0  0  0  0  0  0
  1 18  1  0  0  0  0
  2 10  1  1  0  0  0
  2  4  1  0  0  0  0
  3 12  1  0  0  0  0
  3  8  1  0  0  0  0
  4 28  1  6  0  0  0
  4  5  1  0  0  0  0
  6 16  1  0  0  0  0
  6 12  2  0  0  0  0
  7 30  1  1  0  0  0
  7  9  1  0  0  0  0
  8  5  1  6  0  0  0
  8 26  1  0  0  0  0
 10  3  1  0  0  0  0
 11 22  1  0  0  0  0
 12 27  1  0  0  0  0
 13 20  1  0  0  0  0
 13 25  1  0  0  0  0
 14  7  1  0  0  0  0
 14  2  1  0  0  0  0
 15  9  1  0  0  0  0
 15 21  1  0  0  0  0
 16 11  2  0  0  0  0
 18 24  1  0  0  0  0
 19 14  2  0  0  0  0
 20 18  2  0  0  0  0
 21  6  1  0  0  0  0
 23 24  2  0  0  0  0
 23 16  1  0  0  0  0
 25 21  2  0  0  0  0
 25 23  1  0  0  0  0
 26 17  1  0  0  0  0
 26 34  1  1  0  0  0
 27 22  2  0  0  0  0
 27 17  1  0  0  0  0
 28 29  1  0  0  0  0
 31 32  1  0  0  0  0
 32 33  1  0  0  0  0
 32 30  1  0  0  0  0
 34 39  1  0  0  0  0
 35 45  1  1  0  0  0
 35 40  1  0  0  0  0
 36 40  1  0  0  0  0
 37 36  1  0  0  0  0
 39 41  1  6  0  0  0
 39 37  1  0  0  0  0
 39 35  1  0  0  0  0
 40 38  1  1  0  0  0
 40 42  1  0  0  0  0
 42 44  1  0  0  0  0
 42 43  2  0  0  0  0
 45 46  1  0  0  0  0
 46 47  1  0  0  0  0
 47 49  1  0  0  0  0
 48 50  1  0  0  0  0
 49 48  1  0  0  0  0
 49 50  1  0  0  0  0
M  END
>  <MODEL>
6

>  <REMARK>
 VINA RESULT:      -7.2      2.185      3.432
  Name = 
  10 active torsions:
  status: ('A' for Active; 'I' for Inactive)
    1  A    between atoms: C_4  and  C_19
    2  A    between atoms: O_7  and  C_8
    3  A    between atoms: O_7  and  N_41
    4  A    between atoms: C_9  and  C_14
    5  A    between atoms: C_12  and  C_38
    6  A    between atoms: C_12  and  C_47
    7  A    between atoms: C_13  and  C_27
    8  A    between atoms: C_13  and  C_50
    9  A    between atoms: C_14  and  C_50
   10  A    between atoms: C_15  and  C_43
                            x       y       z     vdW  Elec       q    Type
                         _______ _______ _______ _____ _____    ______ ____

>  <TORSDO>
F 10

$$$$
=
 OpenBabel10222419493D

 50 57  0  0  1  0  0  0  0  0999 V2000
  190.7660  177.0930  147.2000 N   0  0  0  0  0  1  0  0  0  0  0  0
  188.6590  178.5000  137.8250 C   0  0  1  0  0  3  0  0  0  0  0  0
  187.0730  178.2820  139.7020 N   0  0  0  0  0  0  0  0  0  0  0  0
  187.4280  177.9670  137.0750 C   0  0  1  0  0  3  0  0  0  0  0  0
  186.2780  178.6610  137.4870 O   0  0  0  0  0  0  0  0  0  0  0  0
  187.8590  177.7740  142.0220 C   0  0  0  0  0  0  0  0  0  0  0  0
  189.6870  176.1110  138.3310 C   0  0  2  0  0  3  0  0  0  0  0  0
  185.9360  178.1790  138.7700 C   0  0  2  0  0  3  0  0  0  0  0  0
  189.0370  176.0450  139.7040 C   0  0  0  0  0  2  0  0  0  0  0  0
  188.2990  178.9420  139.2460 C   0  0  0  0  0  2  0  0  0  0  0  0
  186.3860  178.1320  143.8820 N   0  0  0  0  0  0  0  0  0  0  0  0
  186.8380  178.0900  141.1070 C   0  0  0  0  0  0  0  0  0  0  0  0
  191.1720  176.7000  143.4220 C   0  0  0  0  0  3  0  0  0  0  0  0
  189.8080  177.5270  137.8240 C   0  0  0  0  0  0  0  0  0  0  0  0
  189.8450  176.7430  140.6900 N   0  0  0  0  0  2  0  0  0  0  0  0
  187.6140  177.8650  143.3760 C   0  0  0  0  0  0  0  0  0  0  0  0
  184.3680  178.4990  140.7170 C   0  0  0  0  0  2  0  0  0  0  0  0
  190.4520  177.0950  145.8130 C   0  0  0  0  0  0  0  0  0  0  0  0
  190.8870  177.9010  137.3940 O   0  0  0  0  0  0  0  0  0  0  0  0
  191.4040  176.7590  144.9210 C   0  0  0  0  0  3  0  0  0  0  0  0
  189.2660  177.3380  141.8540 C   0  0  0  0  0  0  0  0  0  0  0  0
  185.3450  178.3460  143.0240 C   0  0  0  0  0  3  0  0  0  0  0  0
  188.8410  177.5730  144.0800 C   0  0  0  0  0  0  0  0  0  0  0  0
  189.0900  177.4850  145.3820 C   0  0  0  0  0  3  0  0  0  0  0  0
  189.8330  177.2710  143.0620 C   0  0  1  0  0  3  0  0  0  0  0  0
  184.7610  178.9890  139.3220 C   0  0  2  0  0  3  0  0  0  0  0  0
  185.5470  178.3340  141.6300 C   0  0  0  0  0  0  0  0  0  0  0  0
  187.6040  178.0900  135.5670 C   0  0  0  0  0  2  0  0  0  0  0  0
  186.3620  178.1600  134.9310 O   0  0  0  0  0  1  0  0  0  0  0  0
  188.9530  175.3320  137.4290 O   0  0  0  0  0  0  0  0  0  0  0  0
  190.9280  174.4360  136.8240 C   0  0  0  0  0  1  0  0  0  0  0  0
  189.6110  174.1480  137.3620 N   0  0  0  0  0  0  0  0  0  0  0  0
  188.9270  173.3340  136.3720 C   0  0  0  0  0  1  0  0  0  0  0  0
  183.5550  178.8850  138.3980 C   0  0  0  0  0  2  0  0  0  0  0  0
  181.3580  179.8300  137.7750 C   0  0  2  0  0  3  0  0  0  0  0  0
  181.9060  181.9670  138.5280 O   0  0  0  0  0  0  0  0  0  0  0  0
  182.9610  181.1840  138.7360 O   0  0  0  0  0  0  0  0  0  0  0  0
  181.5650  181.6720  136.2940 O   0  0  0  0  0  1  0  0  0  0  0  0
  182.4650  179.8750  138.7920 C   0  0  2  0  0  0  0  0  0  0  0  0
  181.1130  181.3160  137.5670 C   0  0  1  0  0  0  0  0  0  0  0  0
  182.0070  179.6090  140.0770 F   0  0  0  0  0  0  0  0  0  0  0  0
  179.6770  181.7480  137.7270 C   0  0  0  0  0  0  0  0  0  0  0  0
  179.1120  181.6640  138.8500 O   0  0  0  0  0  0  0  0  0  0  0  0
  178.9320  182.2030  136.6010 N   0  0  0  0  0  1  0  0  0  0  0  0
  180.1640  178.9780  138.2310 C   0  0  0  0  0  2  0  0  0  0  0  0
  180.4080  177.5030  137.9550 C   0  0  0  0  0  2  0  0  0  0  0  0
  179.7080  176.6480  138.9980 C   0  0  0  0  0  2  0  0  0  0  0  0
  179.9120  174.6610  140.4460 C   0  0  0  0  0  2  0  0  0  0  0  0
  180.6300  175.5280  139.4310 C   0  0  0  0  0  3  0  0  0  0  0  0
  180.0310  174.2020  139.0090 C   0  0  0  0  0  2  0  0  0  0  0  0
  2 10  1  1  0  0  0
  3 12  1  0  0  0  0
  4 28  1  6  0  0  0
  4  5  1  0  0  0  0
  4  2  1  0  0  0  0
  6 16  1  0  0  0  0
  7 30  1  6  0  0  0
  7  9  1  0  0  0  0
  8  5  1  6  0  0  0
  8 26  1  0  0  0  0
  8  3  1  0  0  0  0
  9 15  1  0  0  0  0
 10  3  1  0  0  0  0
 12 27  2  0  0  0  0
 12  6  1  0  0  0  0
 13 20  2  0  0  0  0
 14  2  1  0  0  0  0
 14  7  1  0  0  0  0
 15 21  1  0  0  0  0
 16 11  1  0  0  0  0
 16 23  2  0  0  0  0
 17 27  1  0  0  0  0
 18  1  1  0  0  0  0
 19 14  2  0  0  0  0
 20 18  1  0  0  0  0
 21  6  2  0  0  0  0
 21 25  1  0  0  0  0
 22 11  2  0  0  0  0
 23 24  1  0  0  0  0
 24 18  2  0  0  0  0
 25 13  1  1  0  0  0
 25 23  1  0  0  0  0
 26 34  1  6  0  0  0
 26 17  1  0  0  0  0
 27 22  1  0  0  0  0
 29 28  1  0  0  0  0
 31 32  1  0  0  0  0
 32 30  1  0  0  0  0
 33 32  1  0  0  0  0
 34 39  1  0  0  0  0
 35 45  1  1  0  0  0
 35 39  1  0  0  0  0
 36 37  1  0  0  0  0
 37 39  1  0  0  0  0
 39 41  1  1  0  0  0
 40 38  1  6  0  0  0
 40 42  1  0  0  0  0
 40 35  1  0  0  0  0
 40 36  1  0  0  0  0
 42 43  2  0  0  0  0
 44 42  1  0  0  0  0
 46 45  1  0  0  0  0
 46 47  1  0  0  0  0
 47 49  1  0  0  0  0
 49 48  1  0  0  0  0
 50 49  1  0  0  0  0
 50 48  1  0  0  0  0
M  END
>  <MODEL>
7

>  <REMARK>
 VINA RESULT:      -7.1      3.533      7.874
  Name = 
  10 active torsions:
  status: ('A' for Active; 'I' for Inactive)
    1  A    between atoms: C_4  and  C_19
    2  A    between atoms: O_7  and  C_8
    3  A    between atoms: O_7  and  N_41
    4  A    between atoms: C_9  and  C_14
    5  A    between atoms: C_12  and  C_38
    6  A    between atoms: C_12  and  C_47
    7  A    between atoms: C_13  and  C_27
    8  A    between atoms: C_13  and  C_50
    9  A    between atoms: C_14  and  C_50
   10  A    between atoms: C_15  and  C_43
                            x       y       z     vdW  Elec       q    Type
                         _______ _______ _______ _____ _____    ______ ____

>  <TORSDO>
F 10

$$$$
=
 OpenBabel10222419493D

 50 57  0  0  1  0  0  0  0  0999 V2000
  180.0900  179.7470  144.9950 N   0  0  0  0  0  1  0  0  0  0  0  0
  182.6180  174.8730  136.9840 C   0  0  1  0  0  3  0  0  0  0  0  0
  183.8980  176.6430  138.1290 N   0  0  0  0  0  0  0  0  0  0  0  0
  183.4350  175.4180  135.8030 C   0  0  1  0  0  3  0  0  0  0  0  0
  184.7780  175.5820  136.1850 O   0  0  0  0  0  0  0  0  0  0  0  0
  182.9640  177.8600  140.1050 C   0  0  0  0  0  0  0  0  0  0  0  0
  180.5590  176.5010  136.6260 C   0  0  2  0  0  3  0  0  0  0  0  0
  184.8430  176.7330  137.0010 C   0  0  2  0  0  3  0  0  0  0  0  0
  181.0960  177.5130  137.6270 C   0  0  0  0  0  2  0  0  0  0  0  0
  183.1470  175.4010  138.3210 C   0  0  0  0  0  2  0  0  0  0  0  0
  184.4250  179.1400  141.5140 N   0  0  0  0  0  0  0  0  0  0  0  0
  184.0100  177.5920  139.2040 C   0  0  0  0  0  0  0  0  0  0  0  0
  179.5460  177.9820  141.6500 C   0  0  0  0  0  3  0  0  0  0  0  0
  181.1410  175.1260  136.8360 C   0  0  0  0  0  0  0  0  0  0  0  0
  180.7270  177.1380  138.9830 N   0  0  0  0  0  2  0  0  0  0  0  0
  183.2210  178.5720  141.2570 C   0  0  0  0  0  0  0  0  0  0  0  0
  186.3680  178.1250  138.4450 C   0  0  0  0  0  2  0  0  0  0  0  0
  180.3660  179.1820  143.7190 C   0  0  0  0  0  0  0  0  0  0  0  0
  180.3800  174.1730  136.8900 O   0  0  0  0  0  0  0  0  0  0  0  0
  179.3700  178.5900  143.0300 C   0  0  0  0  0  3  0  0  0  0  0  0
  181.5220  177.5150  140.1100 C   0  0  0  0  0  0  0  0  0  0  0  0
  185.4390  178.9860  140.6120 C   0  0  0  0  0  3  0  0  0  0  0  0
  182.0070  178.6300  142.0370 C   0  0  0  0  0  0  0  0  0  0  0  0
  181.7460  179.2440  143.1850 C   0  0  0  0  0  3  0  0  0  0  0  0
  180.9930  177.9320  141.2640 C   0  0  1  0  0  3  0  0  0  0  0  0
  186.2630  176.8910  137.5480 C   0  0  2  0  0  3  0  0  0  0  0  0
  185.2570  178.2120  139.4490 C   0  0  0  0  0  0  0  0  0  0  0  0
  183.3420  174.4950  134.5940 C   0  0  0  0  0  2  0  0  0  0  0  0
  182.9950  173.2020  134.9880 O   0  0  0  0  0  1  0  0  0  0  0  0
  180.8240  176.9470  135.3250 O   0  0  0  0  0  0  0  0  0  0  0  0
  179.4270  178.5550  134.5950 C   0  0  0  0  0  1  0  0  0  0  0  0
  180.6300  178.2900  135.3630 N   0  0  0  0  0  0  0  0  0  0  0  0
  181.7310  178.8990  134.6340 C   0  0  0  0  0  1  0  0  0  0  0  0
  187.2670  177.0140  136.4100 C   0  0  0  0  0  2  0  0  0  0  0  0
  189.6950  176.6360  136.6830 C   0  0  2  0  0  3  0  0  0  0  0  0
  189.7100  174.7860  135.2640 O   0  0  0  0  0  0  0  0  0  0  0  0
  188.4610  175.2430  135.3170 O   0  0  0  0  0  0  0  0  0  0  0  0
  190.8400  176.6520  134.6050 O   0  0  0  0  0  1  0  0  0  0  0  0
  188.3620  175.9590  136.5180 C   0  0  2  0  0  0  0  0  0  0  0  0
  190.5350  175.8380  135.6990 C   0  0  1  0  0  0  0  0  0  0  0  0
  188.0890  175.0780  137.5580 F   0  0  0  0  0  0  0  0  0  0  0  0
  191.8100  175.2710  136.2720 C   0  0  0  0  0  0  0  0  0  0  0  0
  191.7760  174.2320  136.9840 O   0  0  0  0  0  0  0  0  0  0  0  0
  193.0530  175.9330  136.0590 N   0  0  0  0  0  1  0  0  0  0  0  0
  190.1680  176.6730  138.1440 C   0  0  0  0  0  2  0  0  0  0  0  0
  189.8460  178.0110  138.7900 C   0  0  0  0  0  2  0  0  0  0  0  0
  189.5710  177.8290  140.2720 C   0  0  0  0  0  2  0  0  0  0  0  0
  190.8150  177.6200  142.3930 C   0  0  0  0  0  2  0  0  0  0  0  0
  190.7810  177.2060  140.9360 C   0  0  0  0  0  3  0  0  0  0  0  0
  190.3180  176.2430  142.0090 C   0  0  0  0  0  2  0  0  0  0  0  0
  2 10  1  1  0  0  0
  3 10  1  0  0  0  0
  3 12  1  0  0  0  0
  4 28  1  6  0  0  0
  4  5  1  0  0  0  0
  4  2  1  0  0  0  0
  6 21  2  0  0  0  0
  6 16  1  0  0  0  0
  7 30  1  6  0  0  0
  7 14  1  0  0  0  0
  7  9  1  0  0  0  0
  8  5  1  1  0  0  0
  8 26  1  0  0  0  0
  8  3  1  0  0  0  0
  9 15  1  0  0  0  0
 12 27  2  0  0  0  0
 12  6  1  0  0  0  0
 13 20  2  0  0  0  0
 14 19  2  0  0  0  0
 14  2  1  0  0  0  0
 15 21  1  0  0  0  0
 16 11  1  0  0  0  0
 16 23  2  0  0  0  0
 17 27  1  0  0  0  0
 18  1  1  0  0  0  0
 20 18  1  0  0  0  0
 21 25  1  0  0  0  0
 22 11  2  0  0  0  0
 23 24  1  0  0  0  0
 24 18  2  0  0  0  0
 25 13  1  6  0  0  0
 25 23  1  0  0  0  0
 26 34  1  6  0  0  0
 26 17  1  0  0  0  0
 27 22  1  0  0  0  0
 28 29  1  0  0  0  0
 30 32  1  0  0  0  0
 31 32  1  0  0  0  0
 33 32  1  0  0  0  0
 34 39  1  0  0  0  0
 35 45  1  1  0  0  0
 36 37  1  0  0  0  0
 36 40  1  0  0  0  0
 37 39  1  0  0  0  0
 39 35  1  0  0  0  0
 39 41  1  1  0  0  0
 40 38  1  6  0  0  0
 40 42  1  0  0  0  0
 40 35  1  0  0  0  0
 42 43  2  0  0  0  0
 44 42  1  0  0  0  0
 45 46  1  0  0  0  0
 46 47  1  0  0  0  0
 47 49  1  0  0  0  0
 49 50  1  0  0  0  0
 49 48  1  0  0  0  0
 50 48  1  0  0  0  0
M  END
>  <MODEL>
8

>  <REMARK>
 VINA RESULT:      -6.9      3.993      9.238
  Name = 
  10 active torsions:
  status: ('A' for Active; 'I' for Inactive)
    1  A    between atoms: C_4  and  C_19
    2  A    between atoms: O_7  and  C_8
    3  A    between atoms: O_7  and  N_41
    4  A    between atoms: C_9  and  C_14
    5  A    between atoms: C_12  and  C_38
    6  A    between atoms: C_12  and  C_47
    7  A    between atoms: C_13  and  C_27
    8  A    between atoms: C_13  and  C_50
    9  A    between atoms: C_14  and  C_50
   10  A    between atoms: C_15  and  C_43
                            x       y       z     vdW  Elec       q    Type
                         _______ _______ _______ _____ _____    ______ ____

>  <TORSDO>
F 10

$$$$
=
 OpenBabel10222419493D

 50 57  0  0  1  0  0  0  0  0999 V2000
  180.4600  179.2920  143.7500 N   0  0  0  0  0  1  0  0  0  0  0  0
  190.0170  178.7640  142.1080 C   0  0  1  0  0  3  0  0  0  0  0  0
  188.1940  178.2240  140.5380 N   0  0  0  0  0  0  0  0  0  0  0  0
  190.7350  177.7480  141.2050 C   0  0  1  0  0  3  0  0  0  0  0  0
  190.4700  178.0370  139.8560 O   0  0  0  0  0  0  0  0  0  0  0  0
  185.7960  178.2990  141.2460 C   0  0  0  0  0  0  0  0  0  0  0  0
  189.1410  176.9660  143.8460 C   0  0  2  0  0  3  0  0  0  0  0  0
  189.1470  177.6180  139.5900 C   0  0  2  0  0  3  0  0  0  0  0  0
  187.8000  176.8360  143.1420 C   0  0  0  0  0  2  0  0  0  0  0  0
  188.6870  179.2140  141.4970 C   0  0  0  0  0  2  0  0  0  0  0  0
  184.0650  178.3300  139.5840 N   0  0  0  0  0  0  0  0  0  0  0  0
  186.7860  178.1260  140.2620 C   0  0  0  0  0  0  0  0  0  0  0  0
  184.1270  178.6290  144.5920 C   0  0  0  0  0  3  0  0  0  0  0  0
  189.8360  178.2640  143.5170 C   0  0  0  0  0  0  0  0  0  0  0  0
  186.8890  177.8840  143.5730 N   0  0  0  0  0  2  0  0  0  0  0  0
  184.4790  178.4550  140.8690 C   0  0  0  0  0  0  0  0  0  0  0  0
  187.3290  177.5920  137.8450 C   0  0  0  0  0  2  0  0  0  0  0  0
  181.8450  179.0220  143.5760 C   0  0  0  0  0  0  0  0  0  0  0  0
  190.2700  178.9410  144.4350 O   0  0  0  0  0  0  0  0  0  0  0  0
  182.6430  178.9410  144.6590 C   0  0  0  0  0  3  0  0  0  0  0  0
  185.8440  178.3680  142.7260 C   0  0  0  0  0  0  0  0  0  0  0  0
  184.9850  178.0620  138.6120 C   0  0  0  0  0  3  0  0  0  0  0  0
  183.6920  178.6980  142.0550 C   0  0  1  0  0  3  0  0  0  0  0  0
  182.3820  178.8550  142.2050 C   0  0  0  0  0  3  0  0  0  0  0  0
  184.6170  178.6460  143.1750 C   0  0  0  0  0  0  0  0  0  0  0  0
  188.7610  178.0220  138.1650 C   0  0  2  0  0  3  0  0  0  0  0  0
  186.3550  177.9600  138.9260 C   0  0  0  0  0  0  0  0  0  0  0  0
  192.2370  177.7480  141.4580 C   0  0  0  0  0  2  0  0  0  0  0  0
  192.9340  177.5010  140.2740 O   0  0  0  0  0  1  0  0  0  0  0  0
  189.9550  175.8790  143.5050 O   0  0  0  0  0  0  0  0  0  0  0  0
  191.9180  174.8790  143.9700 C   0  0  0  0  0  1  0  0  0  0  0  0
  191.0940  176.0480  144.2220 N   0  0  0  0  0  0  0  0  0  0  0  0
  190.7250  176.0010  145.6260 C   0  0  0  0  0  1  0  0  0  0  0  0
  189.7100  177.3940  137.1530 C   0  0  0  0  0  2  0  0  0  0  0  0
  189.9800  175.3130  135.8460 C   0  0  2  0  0  3  0  0  0  0  0  0
  188.2310  174.2300  136.9430 O   0  0  0  0  0  0  0  0  0  0  0  0
  188.3320  175.4530  137.4560 O   0  0  0  0  0  0  0  0  0  0  0  0
  187.9820  174.6960  134.7260 O   0  0  0  0  0  1  0  0  0  0  0  0
  189.6450  175.8720  137.2020 C   0  0  2  0  0  0  0  0  0  0  0  0
  188.8870  174.2670  135.7000 C   0  0  1  0  0  0  0  0  0  0  0  0
  190.4860  175.3800  138.1930 F   0  0  0  0  0  0  0  0  0  0  0  0
  189.3790  172.8840  135.3510 C   0  0  0  0  0  0  0  0  0  0  0  0
  188.7290  171.8700  135.7200 O   0  0  0  0  0  0  0  0  0  0  0  0
  190.6070  172.7110  134.6510 N   0  0  0  0  0  1  0  0  0  0  0  0
  191.4350  174.8300  135.7430 C   0  0  0  0  0  2  0  0  0  0  0  0
  192.3880  176.0000  135.5600 C   0  0  0  0  0  2  0  0  0  0  0  0
  193.6580  175.7760  136.3620 C   0  0  0  0  0  2  0  0  0  0  0  0
  194.9370  173.7610  136.9870 C   0  0  0  0  0  2  0  0  0  0  0  0
  193.5830  174.4360  137.0610 C   0  0  0  0  0  3  0  0  0  0  0  0
  194.5050  174.4500  138.2630 C   0  0  0  0  0  2  0  0  0  0  0  0
  2 10  1  6  0  0  0
  2 14  1  0  0  0  0
  3 10  1  0  0  0  0
  4 28  1  6  0  0  0
  4  2  1  0  0  0  0
  5  4  1  0  0  0  0
  6 21  1  0  0  0  0
  7 30  1  6  0  0  0
  8  5  1  1  0  0  0
  8  3  1  0  0  0  0
  9 15  1  0  0  0  0
  9  7  1  0  0  0  0
 11 16  1  0  0  0  0
 12  3  1  0  0  0  0
 12  6  1  0  0  0  0
 13 20  2  0  0  0  0
 14  7  1  0  0  0  0
 14 19  2  0  0  0  0
 16  6  2  0  0  0  0
 16 23  1  0  0  0  0
 17 26  1  0  0  0  0
 17 27  1  0  0  0  0
 18  1  1  0  0  0  0
 18 20  1  0  0  0  0
 21 25  2  0  0  0  0
 21 15  1  0  0  0  0
 22 27  1  0  0  0  0
 22 11  2  0  0  0  0
 23 24  1  1  0  0  0
 23 25  1  0  0  0  0
 24 18  2  0  0  0  0
 25 13  1  0  0  0  0
 26 34  1  6  0  0  0
 26  8  1  0  0  0  0
 27 12  2  0  0  0  0
 29 28  1  0  0  0  0
 30 32  1  0  0  0  0
 31 32  1  0  0  0  0
 32 33  1  0  0  0  0
 34 39  1  0  0  0  0
 35 45  1  1  0  0  0
 35 39  1  0  0  0  0
 36 37  1  0  0  0  0
 39 37  1  0  0  0  0
 39 41  1  1  0  0  0
 40 38  1  6  0  0  0
 40 35  1  0  0  0  0
 40 36  1  0  0  0  0
 42 40  1  0  0  0  0
 42 43  2  0  0  0  0
 44 42  1  0  0  0  0
 46 45  1  0  0  0  0
 46 47  1  0  0  0  0
 47 49  1  0  0  0  0
 48 49  1  0  0  0  0
 48 50  1  0  0  0  0
 49 50  1  0  0  0  0
M  END
>  <MODEL>
9

>  <REMARK>
 VINA RESULT:      -6.3      2.803      9.754
  Name = 
  10 active torsions:
  status: ('A' for Active; 'I' for Inactive)
    1  A    between atoms: C_4  and  C_19
    2  A    between atoms: O_7  and  C_8
    3  A    between atoms: O_7  and  N_41
    4  A    between atoms: C_9  and  C_14
    5  A    between atoms: C_12  and  C_38
    6  A    between atoms: C_12  and  C_47
    7  A    between atoms: C_13  and  C_27
    8  A    between atoms: C_13  and  C_50
    9  A    between atoms: C_14  and  C_50
   10  A    between atoms: C_15  and  C_43
                            x       y       z     vdW  Elec       q    Type
                         _______ _______ _______ _____ _____    ______ ____

>  <TORSDO>
F 10

$$$$
