=
 OpenBabel10222417523D

 53 58  0  0  1  0  0  0  0  0999 V2000
  181.8780  177.0120  137.9580 C   0  0  1  0  0  3  0  0  0  0  0  0
  187.0730  175.7660  134.8920 C   0  0  0  0  0  2  0  0  0  0  0  0
  181.4820  176.6020  136.5470 C   0  0  0  0  0  0  0  0  0  0  0  0
  183.9190  173.6970  135.7500 C   0  0  2  0  0  3  0  0  0  0  0  0
  183.2410  176.8120  138.2850 O   0  0  0  0  0  0  0  0  0  0  0  0
  180.4950  177.1640  135.9970 O   0  0  0  0  0  0  0  0  0  0  0  0
  186.0160  175.1250  135.7740 C   0  0  0  0  0  2  0  0  0  0  0  0
  185.0200  174.3600  134.9170 C   0  0  0  0  0  2  0  0  0  0  0  0
  185.0970  178.3290  138.2660 C   0  0  0  0  0  2  0  0  0  0  0  0
  181.9130  175.3400  134.5960 O   0  0  0  0  0  0  0  0  0  0  0  0
  188.0480  177.9010  135.8200 C   0  0  0  0  0  2  0  0  0  0  0  0
  188.1590  176.3770  135.7730 C   0  0  2  0  0  3  0  0  0  0  0  0
  184.0350  177.6150  137.4480 C   0  0  0  0  0  2  0  0  0  0  0  0
  186.7090  178.3870  136.3590 C   0  0  0  0  0  2  0  0  0  0  0  0
  183.1300  174.6880  136.4710 N   0  0  0  0  0  2  0  0  0  0  0  0
  182.1760  175.5250  135.8150 C   0  0  0  0  0  0  0  0  0  0  0  0
  186.4870  177.9330  137.7930 C   0  0  0  0  0  2  0  0  0  0  0  0
  180.1030  179.7280  139.9740 C   0  0  0  0  0  0  0  0  0  0  0  0
  181.8020  179.5360  137.7600 C   0  0  0  0  0  3  0  0  0  0  0  0
  181.3840  180.7900  138.2120 C   0  0  0  0  0  3  0  0  0  0  0  0
  180.1330  177.3410  140.1800 F   0  0  0  0  0  0  0  0  0  0  0  0
  180.5400  180.8850  139.3190 C   0  0  0  0  0  3  0  0  0  0  0  0
  181.3680  178.3640  138.4040 C   0  0  0  0  0  0  0  0  0  0  0  0
  180.5230  178.4640  139.5220 C   0  0  0  0  0  0  0  0  0  0  0  0
  179.2520  179.8600  141.1900 C   0  0  0  0  0  2  0  0  0  0  0  0
  180.0360  180.4300  142.2740 N   0  0  0  0  0  2  0  0  0  0  0  0
  180.9510  179.5390  144.5970 O   0  0  0  0  0  0  0  0  0  0  0  0
  179.7920  177.9490  143.1340 O   0  0  0  0  0  0  0  0  0  0  0  0
  180.7330  179.1220  143.1680 S   0  0  0  0  0  0  0  0  0  0  0  0
  182.2880  178.6530  142.4340 C   0  0  0  0  0  2  0  0  0  0  0  0
  184.1480  178.8450  145.6400 C   0  0  0  0  0  2  0  0  0  0  0  0
  184.5720  178.3230  142.8110 C   0  0  0  0  0  2  0  0  0  0  0  0
  183.3820  179.0050  143.3210 N   0  0  0  0  0  0  0  0  0  0  0  0
  185.7360  178.4970  143.7530 C   0  0  0  0  0  3  0  0  0  0  0  0
  185.5340  178.6960  145.0650 C   0  0  0  0  0  3  0  0  0  0  0  0
  183.0730  178.4330  144.6310 C   0  0  0  0  0  2  0  0  0  0  0  0
  184.7920  171.1980  134.8140 O   0  0  0  0  0  1  0  0  0  0  0  0
  183.6000  171.4110  136.8640 C   0  0  0  0  0  2  0  0  0  0  0  0
  184.4660  172.6380  136.7120 C   0  0  1  0  0  0  0  0  0  0  0  0
  184.9660  171.3000  136.1930 C   0  0  2  0  0  3  0  0  0  0  0  0
  185.0230  173.0550  137.9210 O   0  0  0  0  0  1  0  0  0  0  0  0
  189.5360  176.0180  135.2400 C   0  0  0  0  0  2  0  0  0  0  0  0
  193.8860  173.5190  136.0890 C   0  0  0  0  0  0  0  0  0  0  0  0
  190.5190  174.3830  136.6950 O   0  0  0  0  0  0  0  0  0  0  0  0
  195.0190  173.0770  135.9960 O   0  0  0  0  0  0  0  0  0  0  0  0
  192.3650  175.3670  135.4010 C   0  0  0  0  0  2  0  0  0  0  0  0
  191.6930  172.9350  135.2780 O   0  0  0  0  0  0  0  0  0  0  0  0
  192.7080  172.5850  136.1940 C   0  0  0  0  0  2  0  0  0  0  0  0
  193.6430  174.9980  136.1680 C   0  0  1  0  0  3  0  0  0  0  0  0
  191.3000  174.2660  135.5330 C   0  0  1  0  0  0  0  0  0  0  0  0
  189.8430  174.5420  135.4630 C   0  0  2  0  0  3  0  0  0  0  0  0
  193.5410  175.4180  137.6020 C   0  0  0  0  0  3  0  0  0  0  0  0
  193.7690  176.5700  137.9310 O   0  0  0  0  0  0  0  0  0  0  0  0
  1  5  1  0  0  0  0
  1 23  1  6  0  0  0
  2 12  1  0  0  0  0
  2  7  1  0  0  0  0
  3  1  1  0  0  0  0
  4  8  1  1  0  0  0
  4 15  1  0  0  0  0
  4 39  1  0  0  0  0
  6  3  2  0  0  0  0
  8  7  1  0  0  0  0
 10 16  2  0  0  0  0
 11 14  1  0  0  0  0
 12 42  1  6  0  0  0
 12 11  1  0  0  0  0
 13  9  1  0  0  0  0
 13  5  1  0  0  0  0
 14 17  1  0  0  0  0
 16 15  1  0  0  0  0
 16  3  1  0  0  0  0
 17  9  1  0  0  0  0
 18 25  1  0  0  0  0
 19 20  2  0  0  0  0
 19 23  1  0  0  0  0
 20 22  1  0  0  0  0
 22 18  2  0  0  0  0
 23 24  2  0  0  0  0
 24 18  1  0  0  0  0
 24 21  1  0  0  0  0
 25 26  1  0  0  0  0
 26 29  1  0  0  0  0
 28 29  2  0  0  0  0
 29 27  2  0  0  0  0
 30 29  1  0  0  0  0
 30 33  1  0  0  0  0
 32 33  1  0  0  0  0
 32 34  1  0  0  0  0
 33 36  1  0  0  0  0
 34 35  2  0  0  0  0
 35 31  1  0  0  0  0
 36 31  1  0  0  0  0
 39 38  1  0  0  0  0
 39 41  1  1  0  0  0
 40 37  1  6  0  0  0
 40 39  1  0  0  0  0
 40 38  1  0  0  0  0
 43 49  1  0  0  0  0
 43 48  1  0  0  0  0
 45 43  2  0  0  0  0
 46 49  1  0  0  0  0
 47 50  1  0  0  0  0
 47 48  1  0  0  0  0
 49 52  1  1  0  0  0
 50 46  1  6  0  0  0
 50 44  1  0  0  0  0
 51 42  1  1  0  0  0
 51 50  1  0  0  0  0
 51 44  1  0  0  0  0
 52 53  2  0  0  0  0
M  END
>  <MODEL>
1

>  <REMARK>
 VINA RESULT:      -6.9      0.000      0.000
  Name = 
  10 active torsions:
  status: ('A' for Active; 'I' for Inactive)
    1  A    between atoms: C_2  and  C_51
    2  A    between atoms: C_3  and  C_52
    3  A    between atoms: C_11  and  C_28
    4  A    between atoms: C_15  and  C_39
    5  A    between atoms: N_27  and  C_42
    6  A    between atoms: N_31  and  S_40
    7  A    between atoms: N_31  and  C_51
    8  A    between atoms: C_33  and  C_46
    9  A    between atoms: C_35  and  C_46
   10  A    between atoms: S_40  and  C_42
                            x       y       z     vdW  Elec       q    Type
                         _______ _______ _______ _____ _____    ______ ____

>  <TORSDO>
F 10

$$$$
=
 OpenBabel10222417523D

 53 58  0  0  1  0  0  0  0  0999 V2000
  184.7380  177.8490  143.6480 C   0  0  1  0  0  3  0  0  0  0  0  0
  186.4770  178.8160  137.8180 C   0  0  0  0  0  2  0  0  0  0  0  0
  183.8700  178.9710  143.0980 C   0  0  0  0  0  0  0  0  0  0  0  0
  183.1250  177.8210  139.4740 C   0  0  2  0  0  3  0  0  0  0  0  0
  185.5400  177.1810  142.6900 O   0  0  0  0  0  0  0  0  0  0  0  0
  183.5260  179.9140  143.8630 O   0  0  0  0  0  0  0  0  0  0  0  0
  185.5240  177.9920  138.6660 C   0  0  0  0  0  2  0  0  0  0  0  0
  184.1330  178.6030  138.6270 C   0  0  0  0  0  2  0  0  0  0  0  0
  187.8400  177.4810  142.0860 C   0  0  0  0  0  2  0  0  0  0  0  0
  182.7860  179.9960  141.2650 O   0  0  0  0  0  0  0  0  0  0  0  0
  188.8760  178.7670  138.6010 C   0  0  0  0  0  2  0  0  0  0  0  0
  187.8190  178.0950  137.7250 C   0  0  2  0  0  3  0  0  0  0  0  0
  186.4520  178.0970  142.1380 C   0  0  0  0  0  2  0  0  0  0  0  0
  188.4930  178.8090  140.0750 C   0  0  0  0  0  2  0  0  0  0  0  0
  183.5060  177.8160  140.8810 N   0  0  0  0  0  2  0  0  0  0  0  0
  183.3620  178.9670  141.7130 C   0  0  0  0  0  0  0  0  0  0  0  0
  188.3360  177.4110  140.6500 C   0  0  0  0  0  2  0  0  0  0  0  0
  187.2930  177.6920  146.4830 C   0  0  0  0  0  0  0  0  0  0  0  0
  185.2420  179.3780  145.6040 C   0  0  0  0  0  3  0  0  0  0  0  0
  185.9910  179.7210  146.7310 C   0  0  0  0  0  3  0  0  0  0  0  0
  186.8320  176.2100  144.6580 F   0  0  0  0  0  0  0  0  0  0  0  0
  187.0170  178.8810  147.1680 C   0  0  0  0  0  3  0  0  0  0  0  0
  185.5030  178.1840  144.9100 C   0  0  0  0  0  0  0  0  0  0  0  0
  186.5400  177.3440  145.3480 C   0  0  0  0  0  0  0  0  0  0  0  0
  188.4320  176.8440  146.9340 C   0  0  0  0  0  2  0  0  0  0  0  0
  189.6630  177.6170  146.8880 N   0  0  0  0  0  2  0  0  0  0  0  0
  191.9300  177.2400  148.2110 O   0  0  0  0  0  0  0  0  0  0  0  0
  190.4230  175.3250  147.9460 O   0  0  0  0  0  0  0  0  0  0  0  0
  190.9720  176.5530  147.2750 S   0  0  0  0  0  0  0  0  0  0  0  0
  191.8250  176.0790  145.7830 C   0  0  0  0  0  2  0  0  0  0  0  0
  191.2830  179.0480  143.6220 C   0  0  0  0  0  2  0  0  0  0  0  0
  191.8400  176.2000  143.4480 C   0  0  0  0  0  2  0  0  0  0  0  0
  191.3020  176.8290  144.6540 N   0  0  0  0  0  0  0  0  0  0  0  0
  191.4840  176.9990  142.2200 C   0  0  0  0  0  3  0  0  0  0  0  0
  191.2690  178.3210  142.3000 C   0  0  0  0  0  3  0  0  0  0  0  0
  191.8650  178.1770  144.7370 C   0  0  0  0  0  2  0  0  0  0  0  0
  180.6710  177.0220  138.3690 O   0  0  0  0  0  1  0  0  0  0  0  0
  181.9360  175.5710  139.7700 C   0  0  0  0  0  2  0  0  0  0  0  0
  182.9130  176.3930  138.9650 C   0  0  1  0  0  0  0  0  0  0  0  0
  181.5920  175.9760  138.3390 C   0  0  2  0  0  3  0  0  0  0  0  0
  184.0250  175.6550  138.5570 O   0  0  0  0  0  1  0  0  0  0  0  0
  188.3200  178.0960  136.2910 C   0  0  0  0  0  2  0  0  0  0  0  0
  191.3780  174.0830  135.6360 C   0  0  0  0  0  0  0  0  0  0  0  0
  188.3890  175.7130  136.5620 O   0  0  0  0  0  0  0  0  0  0  0  0
  192.3120  173.3610  135.3280 O   0  0  0  0  0  0  0  0  0  0  0  0
  190.6970  176.4320  136.1040 C   0  0  0  0  0  2  0  0  0  0  0  0
  189.3660  174.9050  134.5940 O   0  0  0  0  0  0  0  0  0  0  0  0
  189.9820  173.7690  135.1630 C   0  0  0  0  0  2  0  0  0  0  0  0
  191.5840  175.2590  136.5450 C   0  0  1  0  0  3  0  0  0  0  0  0
  189.3490  175.9340  135.5590 C   0  0  1  0  0  0  0  0  0  0  0  0
  188.1030  176.7390  135.6320 C   0  0  2  0  0  3  0  0  0  0  0  0
  191.2810  174.8660  137.9580 C   0  0  0  0  0  3  0  0  0  0  0  0
  190.8180  175.6760  138.7440 O   0  0  0  0  0  0  0  0  0  0  0  0
  1 23  1  1  0  0  0
  2  7  1  0  0  0  0
  3  1  1  0  0  0  0
  3  6  2  0  0  0  0
  4  8  1  6  0  0  0
  4 15  1  0  0  0  0
  5  1  1  0  0  0  0
  8  7  1  0  0  0  0
  9 13  1  0  0  0  0
 10 16  2  0  0  0  0
 11 14  1  0  0  0  0
 12 42  1  6  0  0  0
 12  2  1  0  0  0  0
 12 11  1  0  0  0  0
 13  5  1  0  0  0  0
 14 17  1  0  0  0  0
 15 16  1  0  0  0  0
 16  3  1  0  0  0  0
 17  9  1  0  0  0  0
 18 25  1  0  0  0  0
 18 22  1  0  0  0  0
 19 20  1  0  0  0  0
 20 22  2  0  0  0  0
 21 24  1  0  0  0  0
 23 24  1  0  0  0  0
 23 19  2  0  0  0  0
 24 18  2  0  0  0  0
 26 25  1  0  0  0  0
 26 29  1  0  0  0  0
 29 28  2  0  0  0  0
 29 27  2  0  0  0  0
 30 29  1  0  0  0  0
 31 36  1  0  0  0  0
 32 33  1  0  0  0  0
 33 36  1  0  0  0  0
 33 30  1  0  0  0  0
 34 35  2  0  0  0  0
 34 32  1  0  0  0  0
 35 31  1  0  0  0  0
 39 41  1  6  0  0  0
 39  4  1  0  0  0  0
 39 38  1  0  0  0  0
 40 37  1  1  0  0  0
 40 39  1  0  0  0  0
 40 38  1  0  0  0  0
 43 49  1  0  0  0  0
 45 43  2  0  0  0  0
 46 49  1  0  0  0  0
 47 48  1  0  0  0  0
 47 50  1  0  0  0  0
 48 43  1  0  0  0  0
 49 52  1  1  0  0  0
 50 51  1  0  0  0  0
 50 46  1  1  0  0  0
 50 44  1  0  0  0  0
 51 42  1  1  0  0  0
 51 44  1  0  0  0  0
 52 53  2  0  0  0  0
M  END
>  <MODEL>
2

>  <REMARK>
 VINA RESULT:      -6.8      4.224      6.814
  Name = 
  10 active torsions:
  status: ('A' for Active; 'I' for Inactive)
    1  A    between atoms: C_2  and  C_51
    2  A    between atoms: C_3  and  C_52
    3  A    between atoms: C_11  and  C_28
    4  A    between atoms: C_15  and  C_39
    5  A    between atoms: N_27  and  C_42
    6  A    between atoms: N_31  and  S_40
    7  A    between atoms: N_31  and  C_51
    8  A    between atoms: C_33  and  C_46
    9  A    between atoms: C_35  and  C_46
   10  A    between atoms: S_40  and  C_42
                            x       y       z     vdW  Elec       q    Type
                         _______ _______ _______ _____ _____    ______ ____

>  <TORSDO>
F 10

$$$$
=
 OpenBabel10222417523D

 53 58  0  0  1  0  0  0  0  0999 V2000
  188.9030  177.0900  140.9430 C   0  0  1  0  0  3  0  0  0  0  0  0
  191.8950  176.6100  135.5800 C   0  0  0  0  0  2  0  0  0  0  0  0
  188.2790  178.0960  139.9870 C   0  0  0  0  0  0  0  0  0  0  0  0
  188.1930  176.1810  136.6190 C   0  0  2  0  0  3  0  0  0  0  0  0
  189.8170  176.1820  140.3540 O   0  0  0  0  0  0  0  0  0  0  0  0
  187.8770  179.2040  140.4360 O   0  0  0  0  0  0  0  0  0  0  0  0
  190.7130  176.0480  136.3500 C   0  0  0  0  0  2  0  0  0  0  0  0
  189.4250  176.6990  135.8710 C   0  0  0  0  0  2  0  0  0  0  0  0
  192.2100  176.2270  140.2280 C   0  0  0  0  0  2  0  0  0  0  0  0
  187.7020  178.7230  137.7820 O   0  0  0  0  0  0  0  0  0  0  0  0
  194.0640  176.6280  136.8700 C   0  0  0  0  0  2  0  0  0  0  0  0
  193.1510  175.8240  135.9450 C   0  0  2  0  0  3  0  0  0  0  0  0
  190.9080  176.9030  139.8370 C   0  0  0  0  0  2  0  0  0  0  0  0
  193.3910  177.0260  138.1770 C   0  0  0  0  0  2  0  0  0  0  0  0
  188.2730  176.4810  138.0430 N   0  0  0  0  0  2  0  0  0  0  0  0
  188.0710  177.7980  138.5570 C   0  0  0  0  0  0  0  0  0  0  0  0
  192.9840  175.8050  138.9890 C   0  0  0  0  0  2  0  0  0  0  0  0
  189.1890  177.9950  144.6430 C   0  0  0  0  0  0  0  0  0  0  0  0
  190.6780  178.2900  142.2940 C   0  0  0  0  0  3  0  0  0  0  0  0
  191.1850  178.7670  143.5050 C   0  0  0  0  0  3  0  0  0  0  0  0
  187.4780  176.8740  143.3960 F   0  0  0  0  0  0  0  0  0  0  0  0
  190.4430  178.6160  144.6780 C   0  0  0  0  0  3  0  0  0  0  0  0
  189.4190  177.6690  142.2420 C   0  0  0  0  0  0  0  0  0  0  0  0
  188.6780  177.5130  143.4250 C   0  0  0  0  0  0  0  0  0  0  0  0
  188.4450  177.7920  145.9180 C   0  0  0  0  0  2  0  0  0  0  0  0
  187.5420  178.9110  146.1370 N   0  0  0  0  0  2  0  0  0  0  0  0
  185.8860  176.8810  145.7290 O   0  0  0  0  0  0  0  0  0  0  0  0
  185.5720  178.2290  147.7520 O   0  0  0  0  0  0  0  0  0  0  0  0
  185.9400  178.2740  146.2960 S   0  0  0  0  0  0  0  0  0  0  0  0
  184.7880  179.3220  145.4270 C   0  0  0  0  0  2  0  0  0  0  0  0
  182.4870  178.5340  142.6230 C   0  0  0  0  0  2  0  0  0  0  0  0
  185.2960  179.0590  143.1600 C   0  0  0  0  0  2  0  0  0  0  0  0
  184.3490  178.6710  144.2050 N   0  0  0  0  0  0  0  0  0  0  0  0
  184.8420  178.5610  141.8120 C   0  0  0  0  0  3  0  0  0  0  0  0
  183.5390  178.3610  141.5570 C   0  0  0  0  0  3  0  0  0  0  0  0
  183.0490  179.2430  143.8580 C   0  0  0  0  0  2  0  0  0  0  0  0
  186.3720  175.2770  134.6830 O   0  0  0  0  0  1  0  0  0  0  0  0
  186.5840  174.1940  136.7930 C   0  0  0  0  0  2  0  0  0  0  0  0
  187.9550  174.6860  136.3930 C   0  0  1  0  0  0  0  0  0  0  0  0
  186.9910  174.2030  135.3220 C   0  0  2  0  0  3  0  0  0  0  0  0
  188.9660  173.7870  136.7330 O   0  0  0  0  0  1  0  0  0  0  0  0
  193.9360  175.4720  134.6930 C   0  0  0  0  0  2  0  0  0  0  0  0
  197.9330  172.6720  136.1320 C   0  0  0  0  0  0  0  0  0  0  0  0
  194.5070  173.4910  135.9190 O   0  0  0  0  0  0  0  0  0  0  0  0
  199.0580  172.2230  136.2690 O   0  0  0  0  0  0  0  0  0  0  0  0
  196.6150  174.6910  135.5090 C   0  0  0  0  0  2  0  0  0  0  0  0
  196.0970  172.3930  134.5960 O   0  0  0  0  0  0  0  0  0  0  0  0
  196.8110  171.7880  135.6530 C   0  0  0  0  0  2  0  0  0  0  0  0
  197.6240  174.0940  136.5000 C   0  0  1  0  0  3  0  0  0  0  0  0
  195.5990  173.6340  135.0460 C   0  0  1  0  0  0  0  0  0  0  0  0
  194.2170  173.9760  134.6230 C   0  0  2  0  0  3  0  0  0  0  0  0
  197.0900  174.1500  137.8990 C   0  0  0  0  0  3  0  0  0  0  0  0
  197.2400  175.1490  138.5830 O   0  0  0  0  0  0  0  0  0  0  0  0
  1 23  1  1  0  0  0
  2 12  1  0  0  0  0
  2  7  1  0  0  0  0
  3  6  2  0  0  0  0
  3  1  1  0  0  0  0
  4  8  1  6  0  0  0
  4 15  1  0  0  0  0
  5  1  1  0  0  0  0
  8  7  1  0  0  0  0
 10 16  2  0  0  0  0
 11 14  1  0  0  0  0
 12 42  1  6  0  0  0
 12 11  1  0  0  0  0
 13  9  1  0  0  0  0
 13  5  1  0  0  0  0
 14 17  1  0  0  0  0
 15 16  1  0  0  0  0
 16  3  1  0  0  0  0
 17  9  1  0  0  0  0
 18 22  1  0  0  0  0
 18 25  1  0  0  0  0
 19 20  1  0  0  0  0
 20 22  2  0  0  0  0
 21 24  1  0  0  0  0
 23 19  2  0  0  0  0
 23 24  1  0  0  0  0
 24 18  2  0  0  0  0
 25 26  1  0  0  0  0
 26 29  1  0  0  0  0
 27 29  2  0  0  0  0
 29 28  2  0  0  0  0
 30 29  1  0  0  0  0
 31 36  1  0  0  0  0
 32 33  1  0  0  0  0
 33 30  1  0  0  0  0
 34 32  1  0  0  0  0
 35 34  2  0  0  0  0
 35 31  1  0  0  0  0
 36 33  1  0  0  0  0
 39  4  1  0  0  0  0
 39 41  1  1  0  0  0
 39 38  1  0  0  0  0
 40 37  1  6  0  0  0
 40 39  1  0  0  0  0
 40 38  1  0  0  0  0
 43 45  2  0  0  0  0
 43 49  1  0  0  0  0
 46 49  1  0  0  0  0
 47 50  1  0  0  0  0
 47 48  1  0  0  0  0
 48 43  1  0  0  0  0
 49 52  1  1  0  0  0
 50 46  1  1  0  0  0
 50 44  1  0  0  0  0
 51 42  1  1  0  0  0
 51 50  1  0  0  0  0
 51 44  1  0  0  0  0
 52 53  2  0  0  0  0
M  END
>  <MODEL>
3

>  <REMARK>
 VINA RESULT:      -6.6      3.619      6.305
  Name = 
  10 active torsions:
  status: ('A' for Active; 'I' for Inactive)
    1  A    between atoms: C_2  and  C_51
    2  A    between atoms: C_3  and  C_52
    3  A    between atoms: C_11  and  C_28
    4  A    between atoms: C_15  and  C_39
    5  A    between atoms: N_27  and  C_42
    6  A    between atoms: N_31  and  S_40
    7  A    between atoms: N_31  and  C_51
    8  A    between atoms: C_33  and  C_46
    9  A    between atoms: C_35  and  C_46
   10  A    between atoms: S_40  and  C_42
                            x       y       z     vdW  Elec       q    Type
                         _______ _______ _______ _____ _____    ______ ____

>  <TORSDO>
F 10

$$$$
=
 OpenBabel10222417523D

 53 58  0  0  1  0  0  0  0  0999 V2000
  192.2540  175.2060  138.4090 C   0  0  1  0  0  3  0  0  0  0  0  0
  187.2500  178.6520  139.4270 C   0  0  0  0  0  2  0  0  0  0  0  0
  192.7340  176.5810  138.8500 C   0  0  0  0  0  0  0  0  0  0  0  0
  190.2240  177.5440  141.6400 C   0  0  2  0  0  3  0  0  0  0  0  0
  190.8610  174.9830  138.5380 O   0  0  0  0  0  0  0  0  0  0  0  0
  193.7870  177.0570  138.3420 O   0  0  0  0  0  0  0  0  0  0  0  0
  188.2040  177.6880  140.1110 C   0  0  0  0  0  2  0  0  0  0  0  0
  189.2230  178.4620  140.9320 C   0  0  0  0  0  2  0  0  0  0  0  0
  189.0890  175.1520  136.9330 C   0  0  0  0  0  2  0  0  0  0  0  0
  192.3900  178.5520  140.1080 O   0  0  0  0  0  0  0  0  0  0  0  0
  186.3150  177.8130  137.2380 C   0  0  0  0  0  2  0  0  0  0  0  0
  186.1320  177.8600  138.7550 C   0  0  2  0  0  3  0  0  0  0  0  0
  190.1740  175.8830  137.7050 C   0  0  0  0  0  2  0  0  0  0  0  0
  187.6320  177.1760  136.8130 C   0  0  0  0  0  2  0  0  0  0  0  0
  191.0040  176.7710  140.6820 N   0  0  0  0  0  2  0  0  0  0  0  0
  192.0450  177.3570  139.8990 C   0  0  0  0  0  0  0  0  0  0  0  0
  187.7210  175.7270  137.2640 C   0  0  0  0  0  2  0  0  0  0  0  0
  194.0290  173.0910  135.7690 C   0  0  0  0  0  0  0  0  0  0  0  0
  192.4450  175.3930  135.8890 C   0  0  0  0  0  3  0  0  0  0  0  0
  192.8900  174.9170  134.6550 C   0  0  0  0  0  3  0  0  0  0  0  0
  193.8890  172.8930  138.1530 F   0  0  0  0  0  0  0  0  0  0  0  0
  193.6770  173.7660  134.5940 C   0  0  0  0  0  3  0  0  0  0  0  0
  192.7950  174.7300  137.0780 C   0  0  0  0  0  0  0  0  0  0  0  0
  193.5820  173.5690  137.0140 C   0  0  0  0  0  0  0  0  0  0  0  0
  194.8190  171.8320  135.6730 C   0  0  0  0  0  2  0  0  0  0  0  0
  196.1260  172.1190  135.1030 N   0  0  0  0  0  2  0  0  0  0  0  0
  196.6550  171.3510  137.5840 O   0  0  0  0  0  0  0  0  0  0  0  0
  198.3880  171.0110  135.8840 O   0  0  0  0  0  0  0  0  0  0  0  0
  197.3030  171.9370  136.3590 S   0  0  0  0  0  0  0  0  0  0  0  0
  198.0120  173.5240  136.7550 C   0  0  0  0  0  2  0  0  0  0  0  0
  198.8110  175.0750  140.0310 C   0  0  0  0  0  2  0  0  0  0  0  0
  196.5390  174.3940  138.3490 C   0  0  0  0  0  2  0  0  0  0  0  0
  197.8620  173.7940  138.1740 N   0  0  0  0  0  0  0  0  0  0  0  0
  196.3430  174.8590  139.7690 C   0  0  0  0  0  3  0  0  0  0  0  0
  197.3940  175.2120  140.5270 C   0  0  0  0  0  3  0  0  0  0  0  0
  198.8570  174.8080  138.5240 C   0  0  0  0  0  2  0  0  0  0  0  0
  191.4160  177.0220  144.1280 O   0  0  0  0  0  1  0  0  0  0  0  0
  190.2770  175.3210  142.9130 C   0  0  0  0  0  2  0  0  0  0  0  0
  189.5530  176.6210  142.6620 C   0  0  1  0  0  0  0  0  0  0  0  0
  190.1890  176.3690  144.0190 C   0  0  2  0  0  3  0  0  0  0  0  0
  188.1680  176.4630  142.6140 O   0  0  0  0  0  1  0  0  0  0  0  0
  184.7840  178.4940  139.0510 C   0  0  0  0  0  2  0  0  0  0  0  0
  180.2600  177.4930  141.1530 C   0  0  0  0  0  0  0  0  0  0  0  0
  182.4510  178.3280  138.5170 O   0  0  0  0  0  0  0  0  0  0  0  0
  179.3760  177.1750  141.9310 O   0  0  0  0  0  0  0  0  0  0  0  0
  182.6100  178.2970  140.9710 C   0  0  0  0  0  2  0  0  0  0  0  0
  181.7180  176.3800  139.5890 O   0  0  0  0  0  0  0  0  0  0  0  0
  180.3900  176.8020  139.8210 C   0  0  0  0  0  2  0  0  0  0  0  0
  181.1960  178.6210  141.4760 C   0  0  1  0  0  3  0  0  0  0  0  0
  182.5620  177.5090  139.6530 C   0  0  1  0  0  0  0  0  0  0  0  0
  183.6420  177.5750  138.6350 C   0  0  2  0  0  3  0  0  0  0  0  0
  180.6900  179.8890  140.8600 C   0  0  0  0  0  3  0  0  0  0  0  0
  179.6890  180.4350  141.2920 O   0  0  0  0  0  0  0  0  0  0  0  0
  1 23  1  6  0  0  0
  1  5  1  0  0  0  0
  1  3  1  0  0  0  0
  2  7  1  0  0  0  0
  3 16  1  0  0  0  0
  4  8  1  6  0  0  0
  4 39  1  0  0  0  0
  6  3  2  0  0  0  0
  7  8  1  0  0  0  0
  9 17  1  0  0  0  0
  9 13  1  0  0  0  0
 11 12  1  0  0  0  0
 12 42  1  6  0  0  0
 12  2  1  0  0  0  0
 13  5  1  0  0  0  0
 14 11  1  0  0  0  0
 14 17  1  0  0  0  0
 15  4  1  0  0  0  0
 16 10  2  0  0  0  0
 16 15  1  0  0  0  0
 18 24  1  0  0  0  0
 19 23  1  0  0  0  0
 20 19  2  0  0  0  0
 22 20  1  0  0  0  0
 22 18  2  0  0  0  0
 24 23  2  0  0  0  0
 24 21  1  0  0  0  0
 25 18  1  0  0  0  0
 26 25  1  0  0  0  0
 26 29  1  0  0  0  0
 28 29  2  0  0  0  0
 29 30  1  0  0  0  0
 29 27  2  0  0  0  0
 30 33  1  0  0  0  0
 31 35  1  0  0  0  0
 32 34  1  0  0  0  0
 33 32  1  0  0  0  0
 33 36  1  0  0  0  0
 34 35  2  0  0  0  0
 36 31  1  0  0  0  0
 38 40  1  0  0  0  0
 39 41  1  6  0  0  0
 39 38  1  0  0  0  0
 39 40  1  0  0  0  0
 40 37  1  6  0  0  0
 43 49  1  0  0  0  0
 43 45  2  0  0  0  0
 44 51  1  0  0  0  0
 44 50  1  0  0  0  0
 46 49  1  0  0  0  0
 47 50  1  0  0  0  0
 47 48  1  0  0  0  0
 48 43  1  0  0  0  0
 49 52  1  6  0  0  0
 50 46  1  1  0  0  0
 51 42  1  1  0  0  0
 51 50  1  0  0  0  0
 52 53  2  0  0  0  0
M  END
>  <MODEL>
4

>  <REMARK>
 VINA RESULT:      -6.3      5.351     12.607
  Name = 
  10 active torsions:
  status: ('A' for Active; 'I' for Inactive)
    1  A    between atoms: C_2  and  C_51
    2  A    between atoms: C_3  and  C_52
    3  A    between atoms: C_11  and  C_28
    4  A    between atoms: C_15  and  C_39
    5  A    between atoms: N_27  and  C_42
    6  A    between atoms: N_31  and  S_40
    7  A    between atoms: N_31  and  C_51
    8  A    between atoms: C_33  and  C_46
    9  A    between atoms: C_35  and  C_46
   10  A    between atoms: S_40  and  C_42
                            x       y       z     vdW  Elec       q    Type
                         _______ _______ _______ _____ _____    ______ ____

>  <TORSDO>
F 10

$$$$
=
 OpenBabel10222417523D

 53 58  0  0  1  0  0  0  0  0999 V2000
  185.7390  177.7040  141.2360 C   0  0  1  0  0  3  0  0  0  0  0  0
  190.9770  177.3660  138.0120 C   0  0  0  0  0  2  0  0  0  0  0  0
  185.6120  178.6690  140.0670 C   0  0  0  0  0  0  0  0  0  0  0  0
  187.2610  176.7370  137.1410 C   0  0  2  0  0  3  0  0  0  0  0  0
  186.8660  176.8470  141.1930 O   0  0  0  0  0  0  0  0  0  0  0  0
  184.9920  179.7560  140.2300 O   0  0  0  0  0  0  0  0  0  0  0  0
  189.5970  176.7430  138.1300 C   0  0  0  0  0  2  0  0  0  0  0  0
  188.6750  177.3190  137.0670 C   0  0  0  0  0  2  0  0  0  0  0  0
  189.0140  177.0240  142.2410 C   0  0  0  0  0  2  0  0  0  0  0  0
  186.1500  179.2530  137.8400 O   0  0  0  0  0  0  0  0  0  0  0  0
  192.2430  177.5110  140.1900 C   0  0  0  0  0  2  0  0  0  0  0  0
  191.9330  176.6530  138.9640 C   0  0  2  0  0  3  0  0  0  0  0  0
  188.0350  177.6240  141.2460 C   0  0  0  0  0  2  0  0  0  0  0  0
  191.0030  177.8770  140.9950 C   0  0  0  0  0  2  0  0  0  0  0  0
  186.6250  177.0470  138.4150 N   0  0  0  0  0  2  0  0  0  0  0  0
  186.1390  178.3540  138.7250 C   0  0  0  0  0  0  0  0  0  0  0  0
  190.3110  176.6400  141.5450 C   0  0  0  0  0  2  0  0  0  0  0  0
  185.7820  178.2100  145.0220 C   0  0  0  0  0  0  0  0  0  0  0  0
  185.0380  179.6280  142.7290 C   0  0  0  0  0  3  0  0  0  0  0  0
  184.9080  180.2200  143.9870 C   0  0  0  0  0  3  0  0  0  0  0  0
  186.4360  176.3620  143.6460 F   0  0  0  0  0  0  0  0  0  0  0  0
  185.2830  179.5140  145.1310 C   0  0  0  0  0  3  0  0  0  0  0  0
  185.5320  178.3180  142.6040 C   0  0  0  0  0  0  0  0  0  0  0  0
  185.9140  177.6120  143.7570 C   0  0  0  0  0  0  0  0  0  0  0  0
  186.2310  177.5010  146.2530 C   0  0  0  0  0  2  0  0  0  0  0  0
  186.7280  178.4690  147.2190 N   0  0  0  0  0  2  0  0  0  0  0  0
  188.5610  178.5790  149.1310 O   0  0  0  0  0  0  0  0  0  0  0  0
  188.0870  176.3970  148.1200 O   0  0  0  0  0  0  0  0  0  0  0  0
  188.2250  177.8680  147.8480 S   0  0  0  0  0  0  0  0  0  0  0  0
  189.5250  178.1300  146.6560 C   0  0  0  0  0  2  0  0  0  0  0  0
  191.7610  175.7510  144.8890 C   0  0  0  0  0  2  0  0  0  0  0  0
  191.2260  176.7970  147.5500 C   0  0  0  0  0  2  0  0  0  0  0  0
  190.2650  176.8970  146.4510 N   0  0  0  0  0  0  0  0  0  0  0  0
  192.1550  175.6270  147.3460 C   0  0  0  0  0  3  0  0  0  0  0  0
  192.4310  175.1760  146.1120 C   0  0  0  0  0  3  0  0  0  0  0  0
  191.0250  177.0550  145.2110 C   0  0  0  0  0  2  0  0  0  0  0  0
  185.6350  175.6490  135.1270 O   0  0  0  0  0  1  0  0  0  0  0  0
  185.9280  174.5490  137.2180 C   0  0  0  0  0  2  0  0  0  0  0  0
  187.2320  175.2290  136.8740 C   0  0  1  0  0  0  0  0  0  0  0  0
  186.3730  174.6510  135.7620 C   0  0  2  0  0  3  0  0  0  0  0  0
  188.3450  174.4650  137.2270 O   0  0  0  0  0  1  0  0  0  0  0  0
  193.2430  176.3400  138.2610 C   0  0  0  0  0  2  0  0  0  0  0  0
  195.8370  172.8430  135.6290 C   0  0  0  0  0  0  0  0  0  0  0  0
  192.9520  174.2800  137.0650 O   0  0  0  0  0  0  0  0  0  0  0  0
  196.7150  172.2350  135.0390 O   0  0  0  0  0  0  0  0  0  0  0  0
  195.3770  174.5940  137.3380 C   0  0  0  0  0  2  0  0  0  0  0  0
  194.2030  174.5350  135.1020 O   0  0  0  0  0  0  0  0  0  0  0  0
  194.5400  173.1740  134.9370 C   0  0  0  0  0  2  0  0  0  0  0  0
  195.9990  173.2150  137.0740 C   0  0  1  0  0  3  0  0  0  0  0  0
  194.1180  174.8090  136.4830 C   0  0  1  0  0  0  0  0  0  0  0  0
  192.9960  175.6850  136.9070 C   0  0  2  0  0  3  0  0  0  0  0  0
  195.3630  172.1710  137.9400 C   0  0  0  0  0  3  0  0  0  0  0  0
  195.0570  172.4210  139.0940 O   0  0  0  0  0  0  0  0  0  0  0  0
  1 23  1  1  0  0  0
  2  7  1  0  0  0  0
  2 12  1  0  0  0  0
  3  6  2  0  0  0  0
  3  1  1  0  0  0  0
  4  8  1  1  0  0  0
  4 15  1  0  0  0  0
  5  1  1  0  0  0  0
  5 13  1  0  0  0  0
  8  7  1  0  0  0  0
 10 16  2  0  0  0  0
 11 14  1  0  0  0  0
 12 42  1  6  0  0  0
 12 11  1  0  0  0  0
 13  9  1  0  0  0  0
 14 17  1  0  0  0  0
 15 16  1  0  0  0  0
 16  3  1  0  0  0  0
 17  9  1  0  0  0  0
 18 22  1  0  0  0  0
 18 25  1  0  0  0  0
 19 20  1  0  0  0  0
 20 22  2  0  0  0  0
 21 24  1  0  0  0  0
 23 19  2  0  0  0  0
 23 24  1  0  0  0  0
 24 18  2  0  0  0  0
 25 26  1  0  0  0  0
 26 29  1  0  0  0  0
 29 28  2  0  0  0  0
 29 27  2  0  0  0  0
 30 29  1  0  0  0  0
 31 36  1  0  0  0  0
 31 35  1  0  0  0  0
 33 30  1  0  0  0  0
 33 32  1  0  0  0  0
 34 32  1  0  0  0  0
 35 34  2  0  0  0  0
 36 33  1  0  0  0  0
 39  4  1  0  0  0  0
 39 38  1  0  0  0  0
 39 41  1  1  0  0  0
 40 37  1  6  0  0  0
 40 39  1  0  0  0  0
 40 38  1  0  0  0  0
 43 49  1  0  0  0  0
 45 43  2  0  0  0  0
 47 50  1  0  0  0  0
 48 47  1  0  0  0  0
 48 43  1  0  0  0  0
 49 46  1  0  0  0  0
 49 52  1  1  0  0  0
 50 51  1  0  0  0  0
 50 44  1  0  0  0  0
 50 46  1  1  0  0  0
 51 44  1  0  0  0  0
 51 42  1  1  0  0  0
 52 53  2  0  0  0  0
M  END
>  <MODEL>
5

>  <REMARK>
 VINA RESULT:      -6.2      4.168      6.030
  Name = 
  10 active torsions:
  status: ('A' for Active; 'I' for Inactive)
    1  A    between atoms: C_2  and  C_51
    2  A    between atoms: C_3  and  C_52
    3  A    between atoms: C_11  and  C_28
    4  A    between atoms: C_15  and  C_39
    5  A    between atoms: N_27  and  C_42
    6  A    between atoms: N_31  and  S_40
    7  A    between atoms: N_31  and  C_51
    8  A    between atoms: C_33  and  C_46
    9  A    between atoms: C_35  and  C_46
   10  A    between atoms: S_40  and  C_42
                            x       y       z     vdW  Elec       q    Type
                         _______ _______ _______ _____ _____    ______ ____

>  <TORSDO>
F 10

$$$$
=
 OpenBabel10222417523D

 53 58  0  0  1  0  0  0  0  0999 V2000
  184.3750  177.8810  142.1230 C   0  0  1  0  0  3  0  0  0  0  0  0
  187.1720  178.4650  136.6660 C   0  0  0  0  0  2  0  0  0  0  0  0
  183.5090  178.7940  141.2680 C   0  0  0  0  0  0  0  0  0  0  0  0
  183.6970  177.1620  137.7580 C   0  0  2  0  0  3  0  0  0  0  0  0
  185.4380  177.2410  141.4390 O   0  0  0  0  0  0  0  0  0  0  0  0
  182.8970  179.7520  141.8160 O   0  0  0  0  0  0  0  0  0  0  0  0
  186.1720  177.6030  137.4170 C   0  0  0  0  0  2  0  0  0  0  0  0
  184.7560  177.9910  137.0250 C   0  0  0  0  0  2  0  0  0  0  0  0
  187.7580  177.8160  141.2580 C   0  0  0  0  0  2  0  0  0  0  0  0
  182.7190  179.4420  139.1370 O   0  0  0  0  0  0  0  0  0  0  0  0
  189.3380  178.8600  137.8990 C   0  0  0  0  0  2  0  0  0  0  0  0
  188.5830  177.9480  136.9340 C   0  0  2  0  0  3  0  0  0  0  0  0
  186.3250  178.2190  140.9560 C   0  0  0  0  0  2  0  0  0  0  0  0
  188.6510  179.0040  139.2510 C   0  0  0  0  0  2  0  0  0  0  0  0
  183.7700  177.3660  139.2000 N   0  0  0  0  0  2  0  0  0  0  0  0
  183.3110  178.5660  139.8240 C   0  0  0  0  0  0  0  0  0  0  0  0
  188.5510  177.6670  139.9700 C   0  0  0  0  0  2  0  0  0  0  0  0
  186.1310  178.3060  145.4890 C   0  0  0  0  0  0  0  0  0  0  0  0
  184.4150  179.7570  143.8240 C   0  0  0  0  0  3  0  0  0  0  0  0
  184.8670  180.3200  145.0200 C   0  0  0  0  0  3  0  0  0  0  0  0
  186.1010  176.5010  143.9140 F   0  0  0  0  0  0  0  0  0  0  0  0
  185.7260  179.5970  145.8480 C   0  0  0  0  0  3  0  0  0  0  0  0
  184.8080  178.4610  143.4520 C   0  0  0  0  0  0  0  0  0  0  0  0
  185.6780  177.7380  144.2850 C   0  0  0  0  0  0  0  0  0  0  0  0
  187.0970  177.5800  146.3610 C   0  0  0  0  0  2  0  0  0  0  0  0
  188.3920  178.2400  146.3100 N   0  0  0  0  0  2  0  0  0  0  0  0
  189.9210  178.2890  148.4750 O   0  0  0  0  0  0  0  0  0  0  0  0
  188.7370  176.2070  147.9520 O   0  0  0  0  0  0  0  0  0  0  0  0
  189.4640  177.3830  147.3630 S   0  0  0  0  0  0  0  0  0  0  0  0
  190.8770  176.8040  146.4420 C   0  0  0  0  0  2  0  0  0  0  0  0
  191.0980  178.7930  143.3160 C   0  0  0  0  0  2  0  0  0  0  0  0
  191.4630  176.0800  144.2970 C   0  0  0  0  0  2  0  0  0  0  0  0
  190.7000  177.0910  145.0300 N   0  0  0  0  0  0  0  0  0  0  0  0
  191.4740  176.3810  142.8200 C   0  0  0  0  0  3  0  0  0  0  0  0
  191.3470  177.6420  142.3750 C   0  0  0  0  0  3  0  0  0  0  0  0
  191.3270  178.3880  144.7750 C   0  0  0  0  0  2  0  0  0  0  0  0
  181.8270  175.9630  136.0420 O   0  0  0  0  0  1  0  0  0  0  0  0
  182.6500  174.8330  137.9690 C   0  0  0  0  0  2  0  0  0  0  0  0
  183.7780  175.6720  137.4170 C   0  0  1  0  0  0  0  0  0  0  0  0
  182.7810  175.0370  136.4620 C   0  0  2  0  0  3  0  0  0  0  0  0
  185.0140  175.0310  137.5020 O   0  0  0  0  0  1  0  0  0  0  0  0
  189.3720  177.8700  135.6380 C   0  0  0  0  0  2  0  0  0  0  0  0
  192.8310  174.1720  136.1330 C   0  0  0  0  0  0  0  0  0  0  0  0
  189.5820  175.5460  136.1980 O   0  0  0  0  0  0  0  0  0  0  0  0
  193.8680  173.5300  136.1200 O   0  0  0  0  0  0  0  0  0  0  0  0
  191.8630  176.4660  136.1630 C   0  0  0  0  0  2  0  0  0  0  0  0
  191.0420  174.6640  134.5940 O   0  0  0  0  0  0  0  0  0  0  0  0
  191.6100  173.6630  135.4120 C   0  0  0  0  0  2  0  0  0  0  0  0
  192.7260  175.4460  136.9200 C   0  0  1  0  0  3  0  0  0  0  0  0
  190.7200  175.7730  135.4050 C   0  0  1  0  0  0  0  0  0  0  0  0
  189.4250  176.4400  135.1130 C   0  0  2  0  0  3  0  0  0  0  0  0
  192.1470  175.1600  138.2710 C   0  0  0  0  0  3  0  0  0  0  0  0
  191.5760  176.0340  138.9020 O   0  0  0  0  0  0  0  0  0  0  0  0
  1 23  1  1  0  0  0
  2 12  1  0  0  0  0
  2  7  1  0  0  0  0
  3  6  2  0  0  0  0
  3  1  1  0  0  0  0
  4  8  1  6  0  0  0
  4 15  1  0  0  0  0
  5  1  1  0  0  0  0
  8  7  1  0  0  0  0
 10 16  2  0  0  0  0
 11 14  1  0  0  0  0
 12 42  1  6  0  0  0
 12 11  1  0  0  0  0
 13  9  1  0  0  0  0
 13  5  1  0  0  0  0
 14 17  1  0  0  0  0
 15 16  1  0  0  0  0
 16  3  1  0  0  0  0
 17  9  1  0  0  0  0
 18 22  1  0  0  0  0
 18 25  1  0  0  0  0
 19 20  1  0  0  0  0
 20 22  2  0  0  0  0
 21 24  1  0  0  0  0
 23 19  2  0  0  0  0
 23 24  1  0  0  0  0
 24 18  2  0  0  0  0
 26 25  1  0  0  0  0
 26 29  1  0  0  0  0
 29 28  2  0  0  0  0
 29 27  2  0  0  0  0
 30 29  1  0  0  0  0
 31 36  1  0  0  0  0
 32 33  1  0  0  0  0
 33 30  1  0  0  0  0
 34 32  1  0  0  0  0
 35 34  2  0  0  0  0
 35 31  1  0  0  0  0
 36 33  1  0  0  0  0
 39 41  1  1  0  0  0
 39  4  1  0  0  0  0
 39 38  1  0  0  0  0
 40 37  1  1  0  0  0
 40 39  1  0  0  0  0
 40 38  1  0  0  0  0
 43 49  1  0  0  0  0
 45 43  2  0  0  0  0
 46 49  1  0  0  0  0
 47 50  1  0  0  0  0
 47 48  1  0  0  0  0
 48 43  1  0  0  0  0
 49 52  1  1  0  0  0
 50 46  1  1  0  0  0
 50 44  1  0  0  0  0
 51 50  1  0  0  0  0
 51 42  1  1  0  0  0
 51 44  1  0  0  0  0
 52 53  2  0  0  0  0
M  END
>  <MODEL>
6

>  <REMARK>
 VINA RESULT:      -6.0      3.839      5.673
  Name = 
  10 active torsions:
  status: ('A' for Active; 'I' for Inactive)
    1  A    between atoms: C_2  and  C_51
    2  A    between atoms: C_3  and  C_52
    3  A    between atoms: C_11  and  C_28
    4  A    between atoms: C_15  and  C_39
    5  A    between atoms: N_27  and  C_42
    6  A    between atoms: N_31  and  S_40
    7  A    between atoms: N_31  and  C_51
    8  A    between atoms: C_33  and  C_46
    9  A    between atoms: C_35  and  C_46
   10  A    between atoms: S_40  and  C_42
                            x       y       z     vdW  Elec       q    Type
                         _______ _______ _______ _____ _____    ______ ____

>  <TORSDO>
F 10

$$$$
=
 OpenBabel10222417523D

 53 58  0  0  1  0  0  0  0  0999 V2000
  184.9350  177.9980  141.7360 C   0  0  1  0  0  3  0  0  0  0  0  0
  189.3730  177.7320  137.4720 C   0  0  0  0  0  2  0  0  0  0  0  0
  184.5880  179.0160  140.6590 C   0  0  0  0  0  0  0  0  0  0  0  0
  185.5430  177.1930  137.3760 C   0  0  2  0  0  3  0  0  0  0  0  0
  186.0080  177.1280  141.4220 O   0  0  0  0  0  0  0  0  0  0  0  0
  184.0410  180.1030  140.9930 O   0  0  0  0  0  0  0  0  0  0  0  0
  188.0350  177.1230  137.8520 C   0  0  0  0  0  2  0  0  0  0  0  0
  186.9240  177.7590  137.0310 C   0  0  0  0  0  2  0  0  0  0  0  0
  188.3310  177.2290  142.0010 C   0  0  0  0  0  2  0  0  0  0  0  0
  184.6610  179.6900  138.3950 O   0  0  0  0  0  0  0  0  0  0  0  0
  191.0700  177.7630  139.3390 C   0  0  0  0  0  2  0  0  0  0  0  0
  190.4910  176.9650  138.1720 C   0  0  2  0  0  3  0  0  0  0  0  0
  187.1800  177.8870  141.2600 C   0  0  0  0  0  2  0  0  0  0  0  0
  190.0340  178.1100  140.4010 C   0  0  0  0  0  2  0  0  0  0  0  0
  185.1960  177.4550  138.7670 N   0  0  0  0  0  2  0  0  0  0  0  0
  184.8150  178.7530  139.2250 C   0  0  0  0  0  0  0  0  0  0  0  0
  189.4450  176.8590  141.0340 C   0  0  0  0  0  2  0  0  0  0  0  0
  185.8810  178.3930  145.4160 C   0  0  0  0  0  0  0  0  0  0  0  0
  184.4990  179.8170  143.4450 C   0  0  0  0  0  3  0  0  0  0  0  0
  184.6460  180.3600  144.7230 C   0  0  0  0  0  3  0  0  0  0  0  0
  186.2950  176.6420  143.8340 F   0  0  0  0  0  0  0  0  0  0  0  0
  185.3390  179.6510  145.7050 C   0  0  0  0  0  3  0  0  0  0  0  0
  185.0330  178.5530  143.1400 C   0  0  0  0  0  0  0  0  0  0  0  0
  185.7350  177.8450  144.1290 C   0  0  0  0  0  0  0  0  0  0  0  0
  186.6670  177.6840  146.4640 C   0  0  0  0  0  2  0  0  0  0  0  0
  188.0830  177.7490  146.1370 N   0  0  0  0  0  2  0  0  0  0  0  0
  189.0350  178.6280  148.4500 O   0  0  0  0  0  0  0  0  0  0  0  0
  188.2840  176.2970  148.3290 O   0  0  0  0  0  0  0  0  0  0  0  0
  188.9750  177.4020  147.5800 S   0  0  0  0  0  0  0  0  0  0  0  0
  190.6280  176.8840  147.1550 C   0  0  0  0  0  2  0  0  0  0  0  0
  191.5350  178.0700  143.7570 C   0  0  0  0  0  2  0  0  0  0  0  0
  191.6800  175.7000  145.4350 C   0  0  0  0  0  2  0  0  0  0  0  0
  190.7700  176.8120  145.7120 N   0  0  0  0  0  0  0  0  0  0  0  0
  192.0200  175.6360  143.9680 C   0  0  0  0  0  3  0  0  0  0  0  0
  191.9910  176.7420  143.2080 C   0  0  0  0  0  3  0  0  0  0  0  0
  191.4340  178.0430  145.2850 C   0  0  0  0  0  2  0  0  0  0  0  0
  183.6100  176.2360  135.5790 O   0  0  0  0  0  1  0  0  0  0  0  0
  184.1620  175.0430  137.5630 C   0  0  0  0  0  2  0  0  0  0  0  0
  185.4250  175.6990  137.0610 C   0  0  1  0  0  0  0  0  0  0  0  0
  184.3970  175.1920  136.0630 C   0  0  2  0  0  3  0  0  0  0  0  0
  186.5500  174.8890  137.2210 O   0  0  0  0  0  1  0  0  0  0  0  0
  191.6170  176.6650  137.1970 C   0  0  0  0  0  2  0  0  0  0  0  0
  195.2570  173.2020  138.0010 C   0  0  0  0  0  0  0  0  0  0  0  0
  193.9830  176.3320  136.9840 O   0  0  0  0  0  0  0  0  0  0  0  0
  195.8650  172.2020  138.3430 O   0  0  0  0  0  0  0  0  0  0  0  0
  193.0070  174.1260  137.4660 C   0  0  0  0  0  2  0  0  0  0  0  0
  194.6370  175.3120  138.9880 O   0  0  0  0  0  0  0  0  0  0  0  0
  195.7110  174.5650  138.4570 C   0  0  0  0  0  2  0  0  0  0  0  0
  194.0850  173.1070  137.0680 C   0  0  1  0  0  3  0  0  0  0  0  0
  193.6370  175.4220  137.9980 C   0  0  1  0  0  0  0  0  0  0  0  0
  192.9740  176.7470  137.8840 C   0  0  2  0  0  3  0  0  0  0  0  0
  194.5390  173.3380  135.6600 C   0  0  0  0  0  3  0  0  0  0  0  0
  195.1010  172.4540  135.0340 O   0  0  0  0  0  0  0  0  0  0  0  0
  1 23  1  1  0  0  0
  2  7  1  0  0  0  0
  2 12  1  0  0  0  0
  3  6  2  0  0  0  0
  3  1  1  0  0  0  0
  4  8  1  1  0  0  0
  4 15  1  0  0  0  0
  5  1  1  0  0  0  0
  8  7  1  0  0  0  0
 10 16  2  0  0  0  0
 11 14  1  0  0  0  0
 12 42  1  6  0  0  0
 12 11  1  0  0  0  0
 13  5  1  0  0  0  0
 13  9  1  0  0  0  0
 14 17  1  0  0  0  0
 15 16  1  0  0  0  0
 16  3  1  0  0  0  0
 17  9  1  0  0  0  0
 18 22  1  0  0  0  0
 18 25  1  0  0  0  0
 19 20  1  0  0  0  0
 20 22  2  0  0  0  0
 21 24  1  0  0  0  0
 23 19  2  0  0  0  0
 23 24  1  0  0  0  0
 24 18  2  0  0  0  0
 26 25  1  0  0  0  0
 26 29  1  0  0  0  0
 29 28  2  0  0  0  0
 29 27  2  0  0  0  0
 30 29  1  0  0  0  0
 31 36  1  0  0  0  0
 32 33  1  0  0  0  0
 33 30  1  0  0  0  0
 34 32  1  0  0  0  0
 35 31  1  0  0  0  0
 35 34  2  0  0  0  0
 36 33  1  0  0  0  0
 39 41  1  1  0  0  0
 39  4  1  0  0  0  0
 39 38  1  0  0  0  0
 40 37  1  1  0  0  0
 40 39  1  0  0  0  0
 40 38  1  0  0  0  0
 43 45  2  0  0  0  0
 43 48  1  0  0  0  0
 44 51  1  0  0  0  0
 44 50  1  0  0  0  0
 48 47  1  0  0  0  0
 49 52  1  6  0  0  0
 49 46  1  0  0  0  0
 49 43  1  0  0  0  0
 50 46  1  6  0  0  0
 50 47  1  0  0  0  0
 51 42  1  6  0  0  0
 51 50  1  0  0  0  0
 53 52  2  0  0  0  0
M  END
>  <MODEL>
7

>  <REMARK>
 VINA RESULT:      -5.9      4.031      5.985
  Name = 
  10 active torsions:
  status: ('A' for Active; 'I' for Inactive)
    1  A    between atoms: C_2  and  C_51
    2  A    between atoms: C_3  and  C_52
    3  A    between atoms: C_11  and  C_28
    4  A    between atoms: C_15  and  C_39
    5  A    between atoms: N_27  and  C_42
    6  A    between atoms: N_31  and  S_40
    7  A    between atoms: N_31  and  C_51
    8  A    between atoms: C_33  and  C_46
    9  A    between atoms: C_35  and  C_46
   10  A    between atoms: S_40  and  C_42
                            x       y       z     vdW  Elec       q    Type
                         _______ _______ _______ _____ _____    ______ ____

>  <TORSDO>
F 10

$$$$
=
 OpenBabel10222417523D

 53 58  0  0  1  0  0  0  0  0999 V2000
  191.4430  175.7530  138.8160 C   0  0  1  0  0  3  0  0  0  0  0  0
  186.6700  179.1070  140.7940 C   0  0  0  0  0  2  0  0  0  0  0  0
  192.0120  176.9890  139.4970 C   0  0  0  0  0  0  0  0  0  0  0  0
  189.6910  177.4580  142.5630 C   0  0  2  0  0  3  0  0  0  0  0  0
  190.0490  175.5610  138.9780 O   0  0  0  0  0  0  0  0  0  0  0  0
  193.0600  177.5190  139.0350 O   0  0  0  0  0  0  0  0  0  0  0  0
  187.6080  177.9880  141.2140 C   0  0  0  0  0  2  0  0  0  0  0  0
  188.7030  178.5390  142.1130 C   0  0  0  0  0  2  0  0  0  0  0  0
  188.2120  176.1210  137.5440 C   0  0  0  0  0  2  0  0  0  0  0  0
  191.8260  178.6740  141.1440 O   0  0  0  0  0  0  0  0  0  0  0  0
  185.5890  178.7680  138.5390 C   0  0  0  0  0  2  0  0  0  0  0  0
  185.4830  178.5110  140.0420 C   0  0  2  0  0  3  0  0  0  0  0  0
  189.3670  176.6370  138.3840 C   0  0  0  0  0  2  0  0  0  0  0  0
  186.8510  178.1820  137.9190 C   0  0  0  0  0  2  0  0  0  0  0  0
  190.3840  176.8680  141.4250 N   0  0  0  0  0  2  0  0  0  0  0  0
  191.4130  177.5610  140.7180 C   0  0  0  0  0  0  0  0  0  0  0  0
  186.8910  176.6680  138.0630 C   0  0  0  0  0  2  0  0  0  0  0  0
  193.3700  174.4540  135.7840 C   0  0  0  0  0  0  0  0  0  0  0  0
  191.1710  176.0970  136.3200 C   0  0  0  0  0  3  0  0  0  0  0  0
  191.5470  175.8460  134.9990 C   0  0  0  0  0  3  0  0  0  0  0  0
  193.6730  174.1220  138.1370 F   0  0  0  0  0  0  0  0  0  0  0  0
  192.6420  175.0230  134.7320 C   0  0  0  0  0  3  0  0  0  0  0  0
  191.8950  175.5380  137.3880 C   0  0  0  0  0  0  0  0  0  0  0  0
  192.9920  174.7050  137.1150 C   0  0  0  0  0  0  0  0  0  0  0  0
  194.4970  173.5310  135.4700 C   0  0  0  0  0  2  0  0  0  0  0  0
  195.4550  174.2080  134.6100 N   0  0  0  0  0  2  0  0  0  0  0  0
  198.0720  174.5350  134.8800 O   0  0  0  0  0  0  0  0  0  0  0  0
  196.5960  176.2100  135.8910 O   0  0  0  0  0  0  0  0  0  0  0  0
  196.7680  174.7460  135.6010 S   0  0  0  0  0  0  0  0  0  0  0  0
  196.7760  173.8370  137.1350 C   0  0  0  0  0  2  0  0  0  0  0  0
  196.8270  175.2790  140.5550 C   0  0  0  0  0  2  0  0  0  0  0  0
  198.6250  174.3080  138.4860 C   0  0  0  0  0  2  0  0  0  0  0  0
  197.2390  174.6900  138.2150 N   0  0  0  0  0  0  0  0  0  0  0  0
  199.1540  175.0290  139.7000 C   0  0  0  0  0  3  0  0  0  0  0  0
  198.3220  175.4370  140.6720 C   0  0  0  0  0  3  0  0  0  0  0  0
  196.4480  174.3500  139.3980 C   0  0  0  0  0  2  0  0  0  0  0  0
  188.1600  178.1200  144.8220 O   0  0  0  0  0  1  0  0  0  0  0  0
  189.5960  176.2210  144.8050 C   0  0  0  0  0  2  0  0  0  0  0  0
  189.0260  176.3730  143.4150 C   0  0  1  0  0  0  0  0  0  0  0  0
  188.1730  176.7400  144.6180 C   0  0  2  0  0  3  0  0  0  0  0  0
  188.7240  175.1470  142.8220 O   0  0  0  0  0  1  0  0  0  0  0  0
  184.1840  179.1230  140.5380 C   0  0  0  0  0  2  0  0  0  0  0  0
  180.0410  176.9120  138.5790 C   0  0  0  0  0  0  0  0  0  0  0  0
  183.1920  176.9700  140.1650 O   0  0  0  0  0  0  0  0  0  0  0  0
  178.9440  176.7130  138.0840 O   0  0  0  0  0  0  0  0  0  0  0  0
  181.8610  178.5850  138.8730 C   0  0  0  0  0  2  0  0  0  0  0  0
  180.9490  177.2170  140.7910 O   0  0  0  0  0  0  0  0  0  0  0  0
  180.4150  176.2700  139.8900 C   0  0  0  0  0  2  0  0  0  0  0  0
  181.0650  177.7440  137.8650 C   0  0  1  0  0  3  0  0  0  0  0  0
  182.0740  177.8210  140.1890 C   0  0  1  0  0  0  0  0  0  0  0  0
  183.2430  178.0510  141.0750 C   0  0  2  0  0  3  0  0  0  0  0  0
  181.9790  176.8570  137.0760 C   0  0  0  0  0  3  0  0  0  0  0  0
  181.7660  175.6590  136.9960 O   0  0  0  0  0  0  0  0  0  0  0  0
  1 23  1  6  0  0  0
  1  5  1  0  0  0  0
  1  3  1  0  0  0  0
  2  7  1  0  0  0  0
  3 16  1  0  0  0  0
  4  8  1  6  0  0  0
  4 39  1  0  0  0  0
  6  3  2  0  0  0  0
  7  8  1  0  0  0  0
  9 17  1  0  0  0  0
  9 13  1  0  0  0  0
 11 12  1  0  0  0  0
 12 42  1  1  0  0  0
 12  2  1  0  0  0  0
 13  5  1  0  0  0  0
 14 17  1  0  0  0  0
 14 11  1  0  0  0  0
 15  4  1  0  0  0  0
 16 10  2  0  0  0  0
 16 15  1  0  0  0  0
 18 24  1  0  0  0  0
 19 23  1  0  0  0  0
 20 19  2  0  0  0  0
 22 20  1  0  0  0  0
 22 18  2  0  0  0  0
 24 23  2  0  0  0  0
 24 21  1  0  0  0  0
 25 18  1  0  0  0  0
 26 25  1  0  0  0  0
 26 29  1  0  0  0  0
 27 29  2  0  0  0  0
 29 28  2  0  0  0  0
 29 30  1  0  0  0  0
 30 33  1  0  0  0  0
 31 35  1  0  0  0  0
 32 34  1  0  0  0  0
 33 32  1  0  0  0  0
 33 36  1  0  0  0  0
 34 35  2  0  0  0  0
 36 31  1  0  0  0  0
 39 41  1  6  0  0  0
 39 40  1  0  0  0  0
 39 38  1  0  0  0  0
 40 38  1  0  0  0  0
 40 37  1  6  0  0  0
 43 48  1  0  0  0  0
 44 50  1  0  0  0  0
 44 51  1  0  0  0  0
 45 43  2  0  0  0  0
 48 47  1  0  0  0  0
 49 52  1  1  0  0  0
 49 43  1  0  0  0  0
 49 46  1  0  0  0  0
 50 46  1  6  0  0  0
 50 47  1  0  0  0  0
 50 51  1  0  0  0  0
 51 42  1  6  0  0  0
 53 52  2  0  0  0  0
M  END
>  <MODEL>
8

>  <REMARK>
 VINA RESULT:      -5.7      5.201     12.162
  Name = 
  10 active torsions:
  status: ('A' for Active; 'I' for Inactive)
    1  A    between atoms: C_2  and  C_51
    2  A    between atoms: C_3  and  C_52
    3  A    between atoms: C_11  and  C_28
    4  A    between atoms: C_15  and  C_39
    5  A    between atoms: N_27  and  C_42
    6  A    between atoms: N_31  and  S_40
    7  A    between atoms: N_31  and  C_51
    8  A    between atoms: C_33  and  C_46
    9  A    between atoms: C_35  and  C_46
   10  A    between atoms: S_40  and  C_42
                            x       y       z     vdW  Elec       q    Type
                         _______ _______ _______ _____ _____    ______ ____

>  <TORSDO>
F 10

$$$$
=
 OpenBabel10222417523D

 53 58  0  0  1  0  0  0  0  0999 V2000
  186.9150  177.3320  138.9480 C   0  0  1  0  0  3  0  0  0  0  0  0
  191.4660  175.6380  135.1590 C   0  0  0  0  0  2  0  0  0  0  0  0
  186.6850  178.0410  137.6210 C   0  0  0  0  0  0  0  0  0  0  0  0
  187.6120  175.3400  135.0020 C   0  0  2  0  0  3  0  0  0  0  0  0
  187.9280  176.3420  138.9370 O   0  0  0  0  0  0  0  0  0  0  0  0
  186.2110  179.2100  137.6220 O   0  0  0  0  0  0  0  0  0  0  0  0
  190.0730  175.2420  135.6150 C   0  0  0  0  0  2  0  0  0  0  0  0
  189.0440  175.7020  134.5940 C   0  0  0  0  0  2  0  0  0  0  0  0
  190.2300  176.4460  139.5940 C   0  0  0  0  0  2  0  0  0  0  0  0
  186.8880  178.0720  135.2670 O   0  0  0  0  0  0  0  0  0  0  0  0
  193.0940  176.0630  137.0400 C   0  0  0  0  0  2  0  0  0  0  0  0
  192.4970  175.0180  136.0990 C   0  0  2  0  0  3  0  0  0  0  0  0
  189.1600  176.9510  138.6430 C   0  0  0  0  0  2  0  0  0  0  0  0
  192.0510  176.7500  137.9120 C   0  0  0  0  0  2  0  0  0  0  0  0
  187.2370  175.9910  136.2510 N   0  0  0  0  0  2  0  0  0  0  0  0
  186.9410  177.3860  136.3240 C   0  0  0  0  0  0  0  0  0  0  0  0
  191.3450  175.7570  138.8230 C   0  0  0  0  0  2  0  0  0  0  0  0
  185.9410  179.3490  142.0430 C   0  0  0  0  0  0  0  0  0  0  0  0
  188.2540  178.6940  140.6130 C   0  0  0  0  0  3  0  0  0  0  0  0
  188.3460  179.4760  141.7660 C   0  0  0  0  0  3  0  0  0  0  0  0
  184.6380  178.0890  140.4770 F   0  0  0  0  0  0  0  0  0  0  0  0
  187.1920  179.8000  142.4810 C   0  0  0  0  0  3  0  0  0  0  0  0
  187.0050  178.2380  140.1560 C   0  0  0  0  0  0  0  0  0  0  0  0
  185.8470  178.5610  140.8820 C   0  0  0  0  0  0  0  0  0  0  0  0
  184.7330  179.6580  142.8570 C   0  0  0  0  0  2  0  0  0  0  0  0
  184.3340  178.4760  143.6040 N   0  0  0  0  0  2  0  0  0  0  0  0
  185.6890  179.9370  145.3520 O   0  0  0  0  0  0  0  0  0  0  0  0
  183.8140  178.5960  146.1870 O   0  0  0  0  0  0  0  0  0  0  0  0
  184.9580  178.6300  145.2120 S   0  0  0  0  0  0  0  0  0  0  0  0
  186.0690  177.2790  145.5570 C   0  0  0  0  0  2  0  0  0  0  0  0
  189.7310  177.8820  145.5760 C   0  0  0  0  0  2  0  0  0  0  0  0
  187.6860  176.4460  144.0890 C   0  0  0  0  0  2  0  0  0  0  0  0
  187.3770  177.5560  144.9910 N   0  0  0  0  0  0  0  0  0  0  0  0
  189.0950  176.5560  143.5650 C   0  0  0  0  0  3  0  0  0  0  0  0
  190.0450  177.1840  144.2760 C   0  0  0  0  0  3  0  0  0  0  0  0
  188.3390  177.5100  146.0920 C   0  0  0  0  0  2  0  0  0  0  0  0
  185.0510  174.2280  134.7080 O   0  0  0  0  0  1  0  0  0  0  0  0
  186.6040  173.3720  136.2970 C   0  0  0  0  0  2  0  0  0  0  0  0
  187.3910  173.8280  135.0910 C   0  0  1  0  0  0  0  0  0  0  0  0
  186.0070  173.2300  134.9000 C   0  0  2  0  0  3  0  0  0  0  0  0
  188.4540  172.9760  134.7920 O   0  0  0  0  0  1  0  0  0  0  0  0
  193.6300  174.3940  135.3020 C   0  0  0  0  0  2  0  0  0  0  0  0
  198.0140  172.4710  137.0260 C   0  0  0  0  0  0  0  0  0  0  0  0
  194.5580  173.1720  137.1470 O   0  0  0  0  0  0  0  0  0  0  0  0
  199.1750  172.1110  137.1250 O   0  0  0  0  0  0  0  0  0  0  0  0
  196.4620  174.0140  135.8370 C   0  0  0  0  0  2  0  0  0  0  0  0
  195.9510  171.5630  136.1710 O   0  0  0  0  0  0  0  0  0  0  0  0
  196.8890  171.4880  137.2240 C   0  0  0  0  0  2  0  0  0  0  0  0
  197.6770  173.9120  136.7710 C   0  0  1  0  0  3  0  0  0  0  0  0
  195.4570  172.8830  136.1060 C   0  0  1  0  0  0  0  0  0  0  0  0
  194.0000  173.0230  135.8560 C   0  0  2  0  0  3  0  0  0  0  0  0
  197.4070  174.6060  138.0710 C   0  0  0  0  0  3  0  0  0  0  0  0
  197.9620  175.6570  138.3430 O   0  0  0  0  0  0  0  0  0  0  0  0
  1 23  1  1  0  0  0
  2  7  1  0  0  0  0
  2 12  1  0  0  0  0
  3  6  2  0  0  0  0
  3  1  1  0  0  0  0
  4  8  1  1  0  0  0
  4 39  1  0  0  0  0
  4 15  1  0  0  0  0
  5  1  1  0  0  0  0
  8  7  1  0  0  0  0
 10 16  2  0  0  0  0
 11 14  1  0  0  0  0
 12 42  1  6  0  0  0
 12 11  1  0  0  0  0
 13  5  1  0  0  0  0
 13  9  1  0  0  0  0
 14 17  1  0  0  0  0
 15 16  1  0  0  0  0
 16  3  1  0  0  0  0
 17  9  1  0  0  0  0
 18 22  1  0  0  0  0
 18 25  1  0  0  0  0
 19 20  1  0  0  0  0
 20 22  2  0  0  0  0
 21 24  1  0  0  0  0
 23 19  2  0  0  0  0
 23 24  1  0  0  0  0
 24 18  2  0  0  0  0
 25 26  1  0  0  0  0
 26 29  1  0  0  0  0
 29 27  2  0  0  0  0
 29 30  1  0  0  0  0
 29 28  2  0  0  0  0
 31 36  1  0  0  0  0
 32 33  1  0  0  0  0
 33 30  1  0  0  0  0
 33 36  1  0  0  0  0
 34 32  1  0  0  0  0
 34 35  2  0  0  0  0
 35 31  1  0  0  0  0
 39 41  1  6  0  0  0
 39 38  1  0  0  0  0
 40 37  1  1  0  0  0
 40 39  1  0  0  0  0
 40 38  1  0  0  0  0
 43 45  2  0  0  0  0
 43 48  1  0  0  0  0
 46 49  1  0  0  0  0
 47 48  1  0  0  0  0
 49 43  1  0  0  0  0
 49 52  1  1  0  0  0
 50 46  1  6  0  0  0
 50 47  1  0  0  0  0
 50 44  1  0  0  0  0
 51 42  1  6  0  0  0
 51 50  1  0  0  0  0
 51 44  1  0  0  0  0
 52 53  2  0  0  0  0
M  END
>  <MODEL>
9

>  <REMARK>
 VINA RESULT:      -5.7      3.391      4.982
  Name = 
  10 active torsions:
  status: ('A' for Active; 'I' for Inactive)
    1  A    between atoms: C_2  and  C_51
    2  A    between atoms: C_3  and  C_52
    3  A    between atoms: C_11  and  C_28
    4  A    between atoms: C_15  and  C_39
    5  A    between atoms: N_27  and  C_42
    6  A    between atoms: N_31  and  S_40
    7  A    between atoms: N_31  and  C_51
    8  A    between atoms: C_33  and  C_46
    9  A    between atoms: C_35  and  C_46
   10  A    between atoms: S_40  and  C_42
                            x       y       z     vdW  Elec       q    Type
                         _______ _______ _______ _____ _____    ______ ____

>  <TORSDO>
F 10

$$$$
