=
 OpenBabel10222421233D

 39 43  0  0  1  0  0  0  0  0999 V2000
  188.4940  177.7230  145.5270 C   0  0  0  0  0  0  0  0  0  0  0  0
  184.1470  178.6150  140.6000 C   0  0  0  0  0  2  0  0  0  0  0  0
  186.3170  178.1210  144.8640 C   0  0  0  0  0  0  0  0  0  0  0  0
  183.8260  178.5750  144.3010 C   0  0  0  0  0  3  0  0  0  0  0  0
  187.6030  177.9070  144.3780 C   0  0  2  0  0  3  0  0  0  0  0  0
  190.4810  177.3430  146.8200 C   0  0  0  0  0  3  0  0  0  0  0  0
  189.7240  177.4480  148.0040 C   0  0  0  0  0  3  0  0  0  0  0  0
  187.7470  177.8260  146.6900 C   0  0  0  0  0  0  0  0  0  0  0  0
  184.2680  178.5560  141.9270 C   0  0  0  0  0  0  0  0  0  0  0  0
  187.5940  177.7960  149.1110 O   0  0  0  0  0  1  0  0  0  0  0  0
  188.3420  177.6920  147.9460 C   0  0  0  0  0  0  0  0  0  0  0  0
  186.3550  178.0790  146.3230 C   0  0  0  0  0  0  0  0  0  0  0  0
  186.7950  178.1050  142.1050 C   0  0  0  0  0  3  0  0  0  0  0  0
  185.2610  178.3300  143.9840 C   0  0  0  0  0  0  0  0  0  0  0  0
  187.8720  177.8910  142.9970 C   0  0  0  0  0  0  0  0  0  0  0  0
  183.1560  178.7310  142.9210 C   0  0  0  0  0  3  0  0  0  0  0  0
  189.8680  177.4800  145.5630 C   0  0  0  0  0  3  0  0  0  0  0  0
  185.5060  178.3200  142.6300 C   0  0  0  0  0  0  0  0  0  0  0  0
  185.3830  178.2320  147.1080 O   0  0  0  0  0  0  0  0  0  0  0  0
  182.8420  178.8540  139.9110 C   0  0  0  0  0  2  0  0  0  0  0  0
  184.0110  180.6680  138.9050 O   0  0  0  0  0  0  0  0  0  0  0  0
  182.9050  180.0890  139.0780 C   0  0  0  0  0  0  0  0  0  0  0  0
  181.5580  181.9550  138.2120 C   0  0  0  0  0  1  0  0  0  0  0  0
  181.7430  180.5740  138.4790 O   0  0  0  0  0  0  0  0  0  0  0  0
  189.2040  177.6720  142.5210 N   0  0  0  0  0  2  0  0  0  0  0  0
  189.6320  176.4420  141.8660 C   0  0  2  0  0  3  0  0  0  0  0  0
  190.3540  175.5610  142.8750 C   0  0  0  0  0  1  0  0  0  0  0  0
  190.5570  176.7720  140.6960 C   0  0  2  0  0  3  0  0  0  0  0  0
  191.6870  177.4500  141.1590 O   0  0  0  0  0  1  0  0  0  0  0  0
  189.8360  177.6430  139.6810 C   0  0  0  0  0  2  0  0  0  0  0  0
  189.4720  176.8630  138.5480 O   0  0  0  0  0  0  0  0  0  0  0  0
  186.3780  175.8030  136.7810 C   0  0  0  0  0  0  0  0  0  0  0  0
  185.5830  176.9380  136.9630 C   0  0  0  0  0  3  0  0  0  0  0  0
  187.6740  175.7670  137.3040 C   0  0  0  0  0  3  0  0  0  0  0  0
  187.3790  178.0000  138.1910 C   0  0  0  0  0  3  0  0  0  0  0  0
  188.1820  176.8690  138.0130 C   0  0  0  0  0  0  0  0  0  0  0  0
  186.0830  178.0360  137.6680 C   0  0  0  0  0  3  0  0  0  0  0  0
  185.4510  173.7640  135.4750 N   0  0  0  0  0  0  0  0  0  0  0  0
  185.8650  174.6740  136.0570 C   0  0  0  0  0  0  0  0  0  0  0  0
  1 17  2  0  0  0  0
  1  8  1  0  0  0  0
  2  9  1  0  0  0  0
  3 12  1  0  0  0  0
  5 15  1  6  0  0  0
  5  3  1  0  0  0  0
  5  1  1  0  0  0  0
  6  7  2  0  0  0  0
  8 11  2  0  0  0  0
  9 18  2  0  0  0  0
  9 16  1  0  0  0  0
 11  7  1  0  0  0  0
 11 10  1  0  0  0  0
 12  8  1  0  0  0  0
 12 19  2  0  0  0  0
 13 18  1  0  0  0  0
 13 15  2  0  0  0  0
 14  4  1  0  0  0  0
 14  3  2  0  0  0  0
 16  4  2  0  0  0  0
 17  6  1  0  0  0  0
 18 14  1  0  0  0  0
 20  2  1  0  0  0  0
 21 22  2  0  0  0  0
 22 20  1  0  0  0  0
 23 24  1  0  0  0  0
 24 22  1  0  0  0  0
 25 15  1  0  0  0  0
 26 25  1  0  0  0  0
 26 27  1  1  0  0  0
 28 29  1  1  0  0  0
 28 26  1  0  0  0  0
 30 28  1  0  0  0  0
 31 30  1  0  0  0  0
 32 33  2  0  0  0  0
 32 34  1  0  0  0  0
 33 37  1  0  0  0  0
 34 36  2  0  0  0  0
 36 35  1  0  0  0  0
 36 31  1  0  0  0  0
 37 35  2  0  0  0  0
 38 39  3  0  0  0  0
 39 32  1  0  0  0  0
M  END
>  <MODEL>
1

>  <REMARK>
 VINA RESULT:      -9.7      0.000      0.000
  Name = 
  10 active torsions:
  status: ('A' for Active; 'I' for Inactive)
    1  A    between atoms: C_1  and  C_8
    2  A    between atoms: C_6  and  C_26
    3  A    between atoms: C_6  and  C_30
    4  A    between atoms: C_9  and  C_12
    5  A    between atoms: C_12  and  C_33
    6  A    between atoms: O_14  and  C_20
    7  A    between atoms: O_14  and  C_30
    8  A    between atoms: C_26  and  N_34
    9  A    between atoms: C_31  and  N_34
   10  A    between atoms: C_33  and  O_37
                            x       y       z     vdW  Elec       q    Type
                         _______ _______ _______ _____ _____    ______ ____

>  <TORSDO>
F 10

$$$$
=
 OpenBabel10222421233D

 39 43  0  0  1  0  0  0  0  0999 V2000
  188.1270  177.5610  145.4330 C   0  0  0  0  0  0  0  0  0  0  0  0
  183.0710  178.5800  141.2650 C   0  0  0  0  0  2  0  0  0  0  0  0
  185.9400  178.2310  145.1110 C   0  0  0  0  0  0  0  0  0  0  0  0
  183.4740  179.0180  144.9330 C   0  0  0  0  0  3  0  0  0  0  0  0
  187.0630  177.7550  144.4440 C   0  0  2  0  0  3  0  0  0  0  0  0
  190.2550  177.0120  146.4000 C   0  0  0  0  0  3  0  0  0  0  0  0
  189.7650  177.3750  147.6710 C   0  0  0  0  0  3  0  0  0  0  0  0
  187.6420  177.9180  146.6820 C   0  0  0  0  0  0  0  0  0  0  0  0
  183.4380  178.6540  142.5450 C   0  0  0  0  0  0  0  0  0  0  0  0
  187.9600  178.1920  149.0710 O   0  0  0  0  0  1  0  0  0  0  0  0
  188.4460  177.8340  147.8200 C   0  0  0  0  0  0  0  0  0  0  0  0
  186.2550  178.3510  146.5310 C   0  0  0  0  0  0  0  0  0  0  0  0
  185.8640  177.8200  142.3410 C   0  0  0  0  0  3  0  0  0  0  0  0
  184.7710  178.5060  144.4080 C   0  0  0  0  0  0  0  0  0  0  0  0
  187.0540  177.5360  143.0530 C   0  0  0  0  0  0  0  0  0  0  0  0
  182.5760  179.1210  143.6830 C   0  0  0  0  0  3  0  0  0  0  0  0
  189.4340  177.1030  145.2630 C   0  0  0  0  0  3  0  0  0  0  0  0
  184.7450  178.3010  143.0480 C   0  0  0  0  0  0  0  0  0  0  0  0
  185.4850  178.7500  147.4440 O   0  0  0  0  0  0  0  0  0  0  0  0
  181.7030  178.9470  140.7880 C   0  0  0  0  0  2  0  0  0  0  0  0
  182.8960  179.8900  138.9560 O   0  0  0  0  0  0  0  0  0  0  0  0
  181.7800  179.7240  139.5180 C   0  0  0  0  0  0  0  0  0  0  0  0
  180.3170  181.6250  138.9740 C   0  0  0  0  0  1  0  0  0  0  0  0
  180.6130  180.2370  138.9530 O   0  0  0  0  0  0  0  0  0  0  0  0
  188.2240  177.0500  142.3880 N   0  0  0  0  0  2  0  0  0  0  0  0
  189.1490  177.9070  141.6570 C   0  0  2  0  0  3  0  0  0  0  0  0
  188.5080  178.3290  140.3420 C   0  0  0  0  0  1  0  0  0  0  0  0
  190.4520  177.1580  141.3920 C   0  0  2  0  0  3  0  0  0  0  0  0
  191.4880  177.7250  142.1380 O   0  0  0  0  0  1  0  0  0  0  0  0
  190.8110  177.2240  139.9160 C   0  0  0  0  0  2  0  0  0  0  0  0
  190.6860  175.9330  139.3310 O   0  0  0  0  0  0  0  0  0  0  0  0
  193.0060  175.8910  136.4260 C   0  0  0  0  0  0  0  0  0  0  0  0
  192.4240  174.8820  135.6540 C   0  0  0  0  0  3  0  0  0  0  0  0
  192.4360  176.2490  137.6510 C   0  0  0  0  0  3  0  0  0  0  0  0
  190.7030  174.5900  137.3320 C   0  0  0  0  0  3  0  0  0  0  0  0
  191.2780  175.5990  138.1110 C   0  0  0  0  0  0  0  0  0  0  0  0
  191.2720  174.2310  136.1060 C   0  0  0  0  0  3  0  0  0  0  0  0
  195.1420  177.0980  135.5890 N   0  0  0  0  0  0  0  0  0  0  0  0
  194.1890  176.5590  135.9620 C   0  0  0  0  0  0  0  0  0  0  0  0
  1  8  1  0  0  0  0
  2  9  1  0  0  0  0
  3 12  1  0  0  0  0
  5 15  1  1  0  0  0
  5  3  1  0  0  0  0
  5  1  1  0  0  0  0
  6  7  2  0  0  0  0
  7 11  1  0  0  0  0
  8 11  2  0  0  0  0
  9 18  2  0  0  0  0
  9 16  1  0  0  0  0
 11 10  1  0  0  0  0
 12  8  1  0  0  0  0
 12 19  2  0  0  0  0
 13 18  1  0  0  0  0
 13 15  2  0  0  0  0
 14  4  1  0  0  0  0
 14  3  2  0  0  0  0
 16  4  2  0  0  0  0
 17  1  2  0  0  0  0
 17  6  1  0  0  0  0
 18 14  1  0  0  0  0
 20  2  1  0  0  0  0
 21 22  2  0  0  0  0
 22 20  1  0  0  0  0
 24 23  1  0  0  0  0
 24 22  1  0  0  0  0
 25 15  1  0  0  0  0
 26 27  1  6  0  0  0
 26 25  1  0  0  0  0
 28 26  1  0  0  0  0
 28 29  1  1  0  0  0
 30 28  1  0  0  0  0
 31 30  1  0  0  0  0
 32 34  1  0  0  0  0
 33 37  1  0  0  0  0
 33 32  2  0  0  0  0
 34 36  2  0  0  0  0
 35 36  1  0  0  0  0
 36 31  1  0  0  0  0
 37 35  2  0  0  0  0
 38 39  3  0  0  0  0
 39 32  1  0  0  0  0
M  END
>  <MODEL>
2

>  <REMARK>
 VINA RESULT:      -9.7      2.511      3.292
  Name = 
  10 active torsions:
  status: ('A' for Active; 'I' for Inactive)
    1  A    between atoms: C_1  and  C_8
    2  A    between atoms: C_6  and  C_26
    3  A    between atoms: C_6  and  C_30
    4  A    between atoms: C_9  and  C_12
    5  A    between atoms: C_12  and  C_33
    6  A    between atoms: O_14  and  C_20
    7  A    between atoms: O_14  and  C_30
    8  A    between atoms: C_26  and  N_34
    9  A    between atoms: C_31  and  N_34
   10  A    between atoms: C_33  and  O_37
                            x       y       z     vdW  Elec       q    Type
                         _______ _______ _______ _____ _____    ______ ____

>  <TORSDO>
F 10

$$$$
=
 OpenBabel10222421233D

 39 43  0  0  1  0  0  0  0  0999 V2000
  185.1240  178.1680  142.8680 C   0  0  0  0  0  0  0  0  0  0  0  0
  190.4170  177.1020  146.7160 C   0  0  0  0  0  2  0  0  0  0  0  0
  186.0550  178.1530  144.9810 C   0  0  0  0  0  0  0  0  0  0  0  0
  186.9350  178.1890  147.4220 C   0  0  0  0  0  3  0  0  0  0  0  0
  186.3410  177.9130  143.6420 C   0  0  0  0  0  0  0  0  0  0  0  0
  183.6170  178.3790  141.0100 C   0  0  0  0  0  3  0  0  0  0  0  0
  182.5930  178.7750  141.8930 C   0  0  0  0  0  3  0  0  0  0  0  0
  184.1180  178.5590  143.7380 C   0  0  0  0  0  0  0  0  0  0  0  0
  189.1370  177.4760  146.7320 C   0  0  0  0  0  0  0  0  0  0  0  0
  181.8310  179.2590  144.1440 O   0  0  0  0  0  1  0  0  0  0  0  0
  182.8380  178.8680  143.2730 C   0  0  0  0  0  0  0  0  0  0  0  0
  184.6590  178.5650  145.0950 C   0  0  0  0  0  0  0  0  0  0  0  0
  188.6200  177.3280  144.2150 C   0  0  0  0  0  3  0  0  0  0  0  0
  187.0400  177.9850  145.9500 C   0  0  0  0  0  0  0  0  0  0  0  0
  187.6210  177.5000  143.2270 C   0  0  0  0  0  0  0  0  0  0  0  0
  188.3420  177.8440  147.9510 C   0  0  0  0  0  2  0  0  0  0  0  0
  184.9000  178.0700  141.4940 C   0  0  0  0  0  3  0  0  0  0  0  0
  188.2960  177.5790  145.5620 C   0  0  0  0  0  0  0  0  0  0  0  0
  184.0450  178.8650  146.1520 O   0  0  0  0  0  0  0  0  0  0  0  0
  191.2550  177.0160  147.9510 C   0  0  0  0  0  2  0  0  0  0  0  0
  192.3510  175.2690  146.7610 O   0  0  0  0  0  0  0  0  0  0  0  0
  192.3430  176.0110  147.7800 C   0  0  0  0  0  0  0  0  0  0  0  0
  193.5280  176.9120  149.7380 C   0  0  0  0  0  1  0  0  0  0  0  0
  193.3530  175.9220  148.7360 O   0  0  0  0  0  0  0  0  0  0  0  0
  187.8910  177.2550  141.8430 N   0  0  0  0  0  2  0  0  0  0  0  0
  188.9370  177.9400  141.0940 C   0  0  2  0  0  3  0  0  0  0  0  0
  188.3680  178.4280  139.7700 C   0  0  0  0  0  1  0  0  0  0  0  0
  190.1060  176.9890  140.8470 C   0  0  2  0  0  3  0  0  0  0  0  0
  191.2510  177.4630  141.4940 O   0  0  0  0  0  1  0  0  0  0  0  0
  190.3900  176.8740  139.3580 C   0  0  0  0  0  2  0  0  0  0  0  0
  190.9550  175.6000  139.0720 O   0  0  0  0  0  0  0  0  0  0  0  0
  193.3290  175.7630  136.2160 C   0  0  0  0  0  0  0  0  0  0  0  0
  192.8620  174.6990  135.4390 C   0  0  0  0  0  3  0  0  0  0  0  0
  192.7020  176.0720  137.4260 C   0  0  0  0  0  3  0  0  0  0  0  0
  191.1420  174.2530  137.0840 C   0  0  0  0  0  3  0  0  0  0  0  0
  191.6030  175.3170  137.8670 C   0  0  0  0  0  0  0  0  0  0  0  0
  191.7690  173.9440  135.8730 C   0  0  0  0  0  3  0  0  0  0  0  0
  195.3570  177.1640  135.4120 N   0  0  0  0  0  0  0  0  0  0  0  0
  194.4530  176.5390  135.7700 C   0  0  0  0  0  0  0  0  0  0  0  0
  1  5  1  0  0  0  0
  1  8  1  0  0  0  0
  2  9  1  0  0  0  0
  2 20  1  0  0  0  0
  3 12  1  0  0  0  0
  3 14  1  0  0  0  0
  4 16  1  0  0  0  0
  5  3  2  0  0  0  0
  6 17  1  0  0  0  0
  6  7  2  0  0  0  0
  7 11  1  0  0  0  0
  8 12  1  0  0  0  0
  9 16  1  0  0  0  0
 11  8  2  0  0  0  0
 11 10  1  0  0  0  0
 12 19  2  0  0  0  0
 13 18  1  0  0  0  0
 14  4  2  0  0  0  0
 15  5  1  0  0  0  0
 15 13  2  0  0  0  0
 17  1  2  0  0  0  0
 18 14  1  0  0  0  0
 18  9  2  0  0  0  0
 21 22  2  0  0  0  0
 22 20  1  0  0  0  0
 22 24  1  0  0  0  0
 24 23  1  0  0  0  0
 25 15  1  0  0  0  0
 26 27  1  6  0  0  0
 26 25  1  0  0  0  0
 28 26  1  0  0  0  0
 28 29  1  1  0  0  0
 30 28  1  0  0  0  0
 31 30  1  0  0  0  0
 32 34  1  0  0  0  0
 33 37  1  0  0  0  0
 33 32  2  0  0  0  0
 34 36  2  0  0  0  0
 35 36  1  0  0  0  0
 36 31  1  0  0  0  0
 37 35  2  0  0  0  0
 38 39  3  0  0  0  0
 39 32  1  0  0  0  0
M  END
>  <MODEL>
3

>  <REMARK>
 VINA RESULT:      -9.6      3.194      7.346
  Name = 
  10 active torsions:
  status: ('A' for Active; 'I' for Inactive)
    1  A    between atoms: C_1  and  C_8
    2  A    between atoms: C_6  and  C_26
    3  A    between atoms: C_6  and  C_30
    4  A    between atoms: C_9  and  C_12
    5  A    between atoms: C_12  and  C_33
    6  A    between atoms: O_14  and  C_20
    7  A    between atoms: O_14  and  C_30
    8  A    between atoms: C_26  and  N_34
    9  A    between atoms: C_31  and  N_34
   10  A    between atoms: C_33  and  O_37
                            x       y       z     vdW  Elec       q    Type
                         _______ _______ _______ _____ _____    ______ ____

>  <TORSDO>
F 10

$$$$
=
 OpenBabel10222421233D

 39 43  0  0  1  0  0  0  0  0999 V2000
  188.0980  177.5570  145.4000 C   0  0  0  0  0  0  0  0  0  0  0  0
  183.0470  178.6140  141.2370 C   0  0  0  0  0  2  0  0  0  0  0  0
  185.9120  178.2350  145.0810 C   0  0  0  0  0  0  0  0  0  0  0  0
  183.4490  179.0290  144.9070 C   0  0  0  0  0  3  0  0  0  0  0  0
  187.0350  177.7600  144.4110 C   0  0  2  0  0  3  0  0  0  0  0  0
  190.2240  176.9980  146.3650 C   0  0  0  0  0  3  0  0  0  0  0  0
  189.7340  177.3540  147.6370 C   0  0  0  0  0  3  0  0  0  0  0  0
  187.6140  177.9080  146.6510 C   0  0  0  0  0  0  0  0  0  0  0  0
  183.4130  178.6800  142.5170 C   0  0  0  0  0  0  0  0  0  0  0  0
  187.9320  178.1660  149.0420 O   0  0  0  0  0  1  0  0  0  0  0  0
  188.4160  177.8150  147.7890 C   0  0  0  0  0  0  0  0  0  0  0  0
  186.2270  178.3450  146.5020 C   0  0  0  0  0  0  0  0  0  0  0  0
  185.8370  177.8410  142.3090 C   0  0  0  0  0  3  0  0  0  0  0  0
  184.7450  178.5170  144.3790 C   0  0  0  0  0  0  0  0  0  0  0  0
  187.0260  177.5500  143.0200 C   0  0  0  0  0  0  0  0  0  0  0  0
  182.5520  179.1420  143.6580 C   0  0  0  0  0  3  0  0  0  0  0  0
  189.4040  177.0970  145.2280 C   0  0  0  0  0  3  0  0  0  0  0  0
  184.7190  178.3210  143.0180 C   0  0  0  0  0  0  0  0  0  0  0  0
  185.4580  178.7410  147.4170 O   0  0  0  0  0  0  0  0  0  0  0  0
  181.6790  178.9880  140.7610 C   0  0  0  0  0  2  0  0  0  0  0  0
  180.0130  177.5320  141.6400 O   0  0  0  0  0  0  0  0  0  0  0  0
  180.8010  177.7860  140.6880 C   0  0  0  0  0  0  0  0  0  0  0  0
  181.7020  175.8450  139.4760 C   0  0  0  0  0  1  0  0  0  0  0  0
  180.8420  176.9710  139.5580 O   0  0  0  0  0  0  0  0  0  0  0  0
  188.1950  177.0650  142.3520 N   0  0  0  0  0  2  0  0  0  0  0  0
  189.1700  177.9330  141.7030 C   0  0  2  0  0  3  0  0  0  0  0  0
  188.5740  178.4790  140.4130 C   0  0  0  0  0  1  0  0  0  0  0  0
  190.4460  177.1500  141.4050 C   0  0  2  0  0  3  0  0  0  0  0  0
  191.5090  177.6700  142.1490 O   0  0  0  0  0  1  0  0  0  0  0  0
  190.7860  177.2350  139.9260 C   0  0  0  0  0  2  0  0  0  0  0  0
  190.7090  175.9420  139.3380 O   0  0  0  0  0  0  0  0  0  0  0  0
  189.0070  176.3430  136.0580 C   0  0  0  0  0  0  0  0  0  0  0  0
  189.5780  175.2840  135.3470 C   0  0  0  0  0  3  0  0  0  0  0  0
  189.3760  176.5710  137.3860 C   0  0  0  0  0  3  0  0  0  0  0  0
  190.8860  174.6820  137.2930 C   0  0  0  0  0  3  0  0  0  0  0  0
  190.3190  175.7400  138.0120 C   0  0  0  0  0  0  0  0  0  0  0  0
  190.5170  174.4530  135.9640 C   0  0  0  0  0  3  0  0  0  0  0  0
  187.2650  177.8850  134.9120 N   0  0  0  0  0  0  0  0  0  0  0  0
  188.0420  177.1970  135.4240 C   0  0  0  0  0  0  0  0  0  0  0  0
  1  8  1  0  0  0  0
  2  9  1  0  0  0  0
  3 12  1  0  0  0  0
  5 15  1  1  0  0  0
  5  3  1  0  0  0  0
  5  1  1  0  0  0  0
  6  7  2  0  0  0  0
  7 11  1  0  0  0  0
  8 11  2  0  0  0  0
  9 18  2  0  0  0  0
  9 16  1  0  0  0  0
 11 10  1  0  0  0  0
 12  8  1  0  0  0  0
 12 19  2  0  0  0  0
 13 18  1  0  0  0  0
 13 15  2  0  0  0  0
 14  4  1  0  0  0  0
 14  3  2  0  0  0  0
 16  4  2  0  0  0  0
 17  1  2  0  0  0  0
 17  6  1  0  0  0  0
 18 14  1  0  0  0  0
 20  2  1  0  0  0  0
 22 20  1  0  0  0  0
 22 21  2  0  0  0  0
 23 24  1  0  0  0  0
 24 22  1  0  0  0  0
 25 15  1  0  0  0  0
 26 27  1  6  0  0  0
 26 25  1  0  0  0  0
 28 26  1  0  0  0  0
 28 29  1  1  0  0  0
 30 28  1  0  0  0  0
 31 30  1  0  0  0  0
 32 34  1  0  0  0  0
 33 37  1  0  0  0  0
 33 32  2  0  0  0  0
 34 36  2  0  0  0  0
 35 36  1  0  0  0  0
 36 31  1  0  0  0  0
 37 35  2  0  0  0  0
 38 39  3  0  0  0  0
 39 32  1  0  0  0  0
M  END
>  <MODEL>
4

>  <REMARK>
 VINA RESULT:      -9.6      1.980      2.628
  Name = 
  10 active torsions:
  status: ('A' for Active; 'I' for Inactive)
    1  A    between atoms: C_1  and  C_8
    2  A    between atoms: C_6  and  C_26
    3  A    between atoms: C_6  and  C_30
    4  A    between atoms: C_9  and  C_12
    5  A    between atoms: C_12  and  C_33
    6  A    between atoms: O_14  and  C_20
    7  A    between atoms: O_14  and  C_30
    8  A    between atoms: C_26  and  N_34
    9  A    between atoms: C_31  and  N_34
   10  A    between atoms: C_33  and  O_37
                            x       y       z     vdW  Elec       q    Type
                         _______ _______ _______ _____ _____    ______ ____

>  <TORSDO>
F 10

$$$$
=
 OpenBabel10222421233D

 39 43  0  0  1  0  0  0  0  0999 V2000
  189.3820  177.1200  144.9460 C   0  0  0  0  0  0  0  0  0  0  0  0
  183.2510  178.7160  142.9900 C   0  0  0  0  0  2  0  0  0  0  0  0
  187.2650  177.8630  145.4980 C   0  0  0  0  0  0  0  0  0  0  0  0
  184.9460  178.7090  146.2960 C   0  0  0  0  0  3  0  0  0  0  0  0
  188.0510  177.4490  144.4280 C   0  0  0  0  0  0  0  0  0  0  0  0
  191.6780  176.4230  145.0270 C   0  0  0  0  0  3  0  0  0  0  0  0
  191.6900  176.6410  146.4190 C   0  0  0  0  0  3  0  0  0  0  0  0
  189.3910  177.3350  146.3160 C   0  0  0  0  0  0  0  0  0  0  0  0
  184.0490  178.6310  144.0550 C   0  0  0  0  0  0  0  0  0  0  0  0
  190.5470  177.3180  148.4490 O   0  0  0  0  0  1  0  0  0  0  0  0
  190.5380  177.1020  147.0770 C   0  0  0  0  0  0  0  0  0  0  0  0
  188.0680  177.8080  146.7170 C   0  0  0  0  0  0  0  0  0  0  0  0
  186.1940  177.7840  142.9120 C   0  0  0  0  0  3  0  0  0  0  0  0
  185.9430  178.2400  145.2920 C   0  0  0  0  0  0  0  0  0  0  0  0
  187.5390  177.3970  143.1190 C   0  0  0  0  0  0  0  0  0  0  0  0
  183.6730  178.9760  145.4670 C   0  0  0  0  0  2  0  0  0  0  0  0
  190.5160  176.6620  144.2740 C   0  0  0  0  0  3  0  0  0  0  0  0
  185.4260  178.1980  144.0170 C   0  0  0  0  0  0  0  0  0  0  0  0
  187.6940  178.1100  147.8810 O   0  0  0  0  0  0  0  0  0  0  0  0
  181.8260  179.1620  143.0740 C   0  0  0  0  0  2  0  0  0  0  0  0
  179.8890  179.0260  141.6970 O   0  0  0  0  0  0  0  0  0  0  0  0
  181.1480  179.0070  141.7550 C   0  0  0  0  0  0  0  0  0  0  0  0
  181.3390  178.4910  139.3580 C   0  0  0  0  0  1  0  0  0  0  0  0
  181.9150  178.8690  140.5990 O   0  0  0  0  0  0  0  0  0  0  0  0
  188.3690  176.9720  142.0320 N   0  0  0  0  0  2  0  0  0  0  0  0
  189.1770  177.8840  141.2330 C   0  0  2  0  0  3  0  0  0  0  0  0
  188.2770  178.6280  140.2570 C   0  0  0  0  0  1  0  0  0  0  0  0
  190.2460  177.1010  140.4730 C   0  0  2  0  0  3  0  0  0  0  0  0
  191.5170  177.4990  140.8930 O   0  0  0  0  0  1  0  0  0  0  0  0
  190.1180  177.3450  138.9780 C   0  0  0  0  0  2  0  0  0  0  0  0
  189.9000  176.1110  138.3050 O   0  0  0  0  0  0  0  0  0  0  0  0
  193.0540  175.4600  136.4470 C   0  0  0  0  0  0  0  0  0  0  0  0
  192.8700  174.1190  136.1000 C   0  0  0  0  0  3  0  0  0  0  0  0
  192.0730  176.1330  137.1810 C   0  0  0  0  0  3  0  0  0  0  0  0
  190.7230  174.1240  137.2200 C   0  0  0  0  0  3  0  0  0  0  0  0
  190.8990  175.4670  137.5710 C   0  0  0  0  0  0  0  0  0  0  0  0
  191.7050  173.4510  136.4860 C   0  0  0  0  0  3  0  0  0  0  0  0
  195.2160  176.7010  135.7310 N   0  0  0  0  0  0  0  0  0  0  0  0
  194.2520  176.1470  136.0510 C   0  0  0  0  0  0  0  0  0  0  0  0
  1  8  1  0  0  0  0
  2 20  1  0  0  0  0
  2  9  1  0  0  0  0
  3 12  1  0  0  0  0
  5  1  1  0  0  0  0
  5  3  2  0  0  0  0
  6  7  2  0  0  0  0
  7 11  1  0  0  0  0
  8 12  1  0  0  0  0
  8 11  2  0  0  0  0
  9 16  1  0  0  0  0
 11 10  1  0  0  0  0
 12 19  2  0  0  0  0
 13 15  2  0  0  0  0
 13 18  1  0  0  0  0
 14  3  1  0  0  0  0
 14  4  2  0  0  0  0
 15  5  1  0  0  0  0
 16  4  1  0  0  0  0
 17  1  2  0  0  0  0
 17  6  1  0  0  0  0
 18  9  2  0  0  0  0
 18 14  1  0  0  0  0
 21 22  2  0  0  0  0
 22 20  1  0  0  0  0
 23 24  1  0  0  0  0
 24 22  1  0  0  0  0
 25 15  1  0  0  0  0
 26 27  1  6  0  0  0
 26 25  1  0  0  0  0
 28 29  1  1  0  0  0
 28 26  1  0  0  0  0
 30 28  1  0  0  0  0
 31 30  1  0  0  0  0
 32 34  1  0  0  0  0
 33 32  2  0  0  0  0
 33 37  1  0  0  0  0
 34 36  2  0  0  0  0
 35 36  1  0  0  0  0
 36 31  1  0  0  0  0
 37 35  2  0  0  0  0
 38 39  3  0  0  0  0
 39 32  1  0  0  0  0
M  END
>  <MODEL>
5

>  <REMARK>
 VINA RESULT:      -9.4      2.798      3.808
  Name = 
  10 active torsions:
  status: ('A' for Active; 'I' for Inactive)
    1  A    between atoms: C_1  and  C_8
    2  A    between atoms: C_6  and  C_26
    3  A    between atoms: C_6  and  C_30
    4  A    between atoms: C_9  and  C_12
    5  A    between atoms: C_12  and  C_33
    6  A    between atoms: O_14  and  C_20
    7  A    between atoms: O_14  and  C_30
    8  A    between atoms: C_26  and  N_34
    9  A    between atoms: C_31  and  N_34
   10  A    between atoms: C_33  and  O_37
                            x       y       z     vdW  Elec       q    Type
                         _______ _______ _______ _____ _____    ______ ____

>  <TORSDO>
F 10

$$$$
=
 OpenBabel10222421233D

 39 43  0  0  1  0  0  0  0  0999 V2000
  188.1290  177.5670  145.5760 C   0  0  0  0  0  0  0  0  0  0  0  0
  183.0400  178.5240  141.4340 C   0  0  0  0  0  2  0  0  0  0  0  0
  185.9370  178.2260  145.2620 C   0  0  0  0  0  0  0  0  0  0  0  0
  183.4680  179.0030  145.0940 C   0  0  0  0  0  3  0  0  0  0  0  0
  187.0580  177.7460  144.5920 C   0  0  2  0  0  3  0  0  0  0  0  0
  190.2660  177.0360  146.5340 C   0  0  0  0  0  3  0  0  0  0  0  0
  189.7840  177.4110  147.8040 C   0  0  0  0  0  3  0  0  0  0  0  0
  187.6530  177.9360  146.8240 C   0  0  0  0  0  0  0  0  0  0  0  0
  183.4160  178.6130  142.7110 C   0  0  0  0  0  0  0  0  0  0  0  0
  187.9870  178.2370  149.2080 O   0  0  0  0  0  1  0  0  0  0  0  0
  188.4640  177.8670  147.9580 C   0  0  0  0  0  0  0  0  0  0  0  0
  186.2620  178.3630  146.6790 C   0  0  0  0  0  0  0  0  0  0  0  0
  185.8430  177.7850  142.4980 C   0  0  0  0  0  3  0  0  0  0  0  0
  184.7630  178.4900  144.5650 C   0  0  0  0  0  0  0  0  0  0  0  0
  187.0390  177.5130  143.2050 C   0  0  0  0  0  0  0  0  0  0  0  0
  182.5610  179.0900  143.8490 C   0  0  0  0  0  3  0  0  0  0  0  0
  189.4360  177.1110  145.4020 C   0  0  0  0  0  3  0  0  0  0  0  0
  184.7280  178.2700  143.2070 C   0  0  0  0  0  0  0  0  0  0  0  0
  185.4980  178.7690  147.5930 O   0  0  0  0  0  0  0  0  0  0  0  0
  181.6680  178.8820  140.9630 C   0  0  0  0  0  2  0  0  0  0  0  0
  181.2230  177.1760  139.3620 O   0  0  0  0  0  0  0  0  0  0  0  0
  181.4470  178.3990  139.5690 C   0  0  0  0  0  0  0  0  0  0  0  0
  182.0480  180.5980  138.6460 C   0  0  0  0  0  1  0  0  0  0  0  0
  181.4660  179.3110  138.5150 O   0  0  0  0  0  0  0  0  0  0  0  0
  188.2060  177.0230  142.5360 N   0  0  0  0  0  2  0  0  0  0  0  0
  189.3060  177.8780  142.1060 C   0  0  2  0  0  3  0  0  0  0  0  0
  188.7840  178.9030  141.1100 C   0  0  0  0  0  1  0  0  0  0  0  0
  190.4030  177.0300  141.4660 C   0  0  2  0  0  3  0  0  0  0  0  0
  191.5790  177.1300  142.2140 O   0  0  0  0  0  1  0  0  0  0  0  0
  190.6760  177.5020  140.0470 C   0  0  0  0  0  2  0  0  0  0  0  0
  190.1590  176.5570  139.1170 O   0  0  0  0  0  0  0  0  0  0  0  0
  187.0570  177.4220  137.2600 C   0  0  0  0  0  0  0  0  0  0  0  0
  187.5790  177.6350  135.9820 C   0  0  0  0  0  3  0  0  0  0  0  0
  187.9060  177.0640  138.3110 C   0  0  0  0  0  3  0  0  0  0  0  0
  189.8000  177.1300  136.8060 C   0  0  0  0  0  3  0  0  0  0  0  0
  189.2850  176.9150  138.0880 C   0  0  0  0  0  0  0  0  0  0  0  0
  188.9500  177.4880  135.7540 C   0  0  0  0  0  3  0  0  0  0  0  0
  184.5130  177.6940  137.6830 N   0  0  0  0  0  0  0  0  0  0  0  0
  185.6480  177.5730  137.4950 C   0  0  0  0  0  0  0  0  0  0  0  0
  1  8  1  0  0  0  0
  2  9  1  0  0  0  0
  3 12  1  0  0  0  0
  5 15  1  1  0  0  0
  5  3  1  0  0  0  0
  5  1  1  0  0  0  0
  6  7  2  0  0  0  0
  7 11  1  0  0  0  0
  8 11  2  0  0  0  0
  9 18  2  0  0  0  0
  9 16  1  0  0  0  0
 11 10  1  0  0  0  0
 12  8  1  0  0  0  0
 12 19  2  0  0  0  0
 13 15  2  0  0  0  0
 13 18  1  0  0  0  0
 14  4  1  0  0  0  0
 14  3  2  0  0  0  0
 16  4  2  0  0  0  0
 17  1  2  0  0  0  0
 17  6  1  0  0  0  0
 18 14  1  0  0  0  0
 20  2  1  0  0  0  0
 21 22  2  0  0  0  0
 22 20  1  0  0  0  0
 24 23  1  0  0  0  0
 24 22  1  0  0  0  0
 25 15  1  0  0  0  0
 26 27  1  6  0  0  0
 26 25  1  0  0  0  0
 28 26  1  0  0  0  0
 28 29  1  1  0  0  0
 30 28  1  0  0  0  0
 31 30  1  0  0  0  0
 32 39  1  0  0  0  0
 32 34  1  0  0  0  0
 33 32  2  0  0  0  0
 35 36  1  0  0  0  0
 36 34  2  0  0  0  0
 36 31  1  0  0  0  0
 37 33  1  0  0  0  0
 37 35  2  0  0  0  0
 39 38  3  0  0  0  0
M  END
>  <MODEL>
6

>  <REMARK>
 VINA RESULT:      -9.3      1.446      1.846
  Name = 
  10 active torsions:
  status: ('A' for Active; 'I' for Inactive)
    1  A    between atoms: C_1  and  C_8
    2  A    between atoms: C_6  and  C_26
    3  A    between atoms: C_6  and  C_30
    4  A    between atoms: C_9  and  C_12
    5  A    between atoms: C_12  and  C_33
    6  A    between atoms: O_14  and  C_20
    7  A    between atoms: O_14  and  C_30
    8  A    between atoms: C_26  and  N_34
    9  A    between atoms: C_31  and  N_34
   10  A    between atoms: C_33  and  O_37
                            x       y       z     vdW  Elec       q    Type
                         _______ _______ _______ _____ _____    ______ ____

>  <TORSDO>
F 10

$$$$
=
 OpenBabel10222421233D

 39 43  0  0  1  0  0  0  0  0999 V2000
  185.1750  178.2140  142.8560 C   0  0  0  0  0  0  0  0  0  0  0  0
  190.4390  177.1100  146.7320 C   0  0  0  0  0  2  0  0  0  0  0  0
  186.0980  178.2060  144.9730 C   0  0  0  0  0  0  0  0  0  0  0  0
  186.9700  178.2520  147.4160 C   0  0  0  0  0  3  0  0  0  0  0  0
  186.3860  177.9490  143.6370 C   0  0  0  0  0  0  0  0  0  0  0  0
  183.6760  178.4280  140.9910 C   0  0  0  0  0  3  0  0  0  0  0  0
  182.6550  178.8470  141.8670 C   0  0  0  0  0  3  0  0  0  0  0  0
  184.1710  178.6270  143.7190 C   0  0  0  0  0  0  0  0  0  0  0  0
  189.1640  177.5030  146.7400 C   0  0  0  0  0  0  0  0  0  0  0  0
  181.8920  179.3630  144.1110 O   0  0  0  0  0  1  0  0  0  0  0  0
  182.8980  178.9500  143.2460 C   0  0  0  0  0  0  0  0  0  0  0  0
  184.7080  178.6390  145.0780 C   0  0  0  0  0  0  0  0  0  0  0  0
  188.6540  177.3380  144.2230 C   0  0  0  0  0  3  0  0  0  0  0  0
  187.0770  178.0330  145.9460 C   0  0  0  0  0  0  0  0  0  0  0  0
  187.6610  177.5140  143.2300 C   0  0  0  0  0  0  0  0  0  0  0  0
  188.3700  177.8930  147.9530 C   0  0  0  0  0  2  0  0  0  0  0  0
  184.9530  178.1050  141.4820 C   0  0  0  0  0  3  0  0  0  0  0  0
  188.3290  177.6060  145.5670 C   0  0  0  0  0  0  0  0  0  0  0  0
  184.0940  178.9570  146.1300 O   0  0  0  0  0  0  0  0  0  0  0  0
  191.2720  177.0250  147.9710 C   0  0  0  0  0  2  0  0  0  0  0  0
  192.4310  175.3490  146.7380 O   0  0  0  0  0  0  0  0  0  0  0  0
  192.3370  175.9930  147.8180 C   0  0  0  0  0  0  0  0  0  0  0  0
  193.5560  176.7830  149.8030 C   0  0  0  0  0  1  0  0  0  0  0  0
  193.2340  175.7700  148.8630 O   0  0  0  0  0  0  0  0  0  0  0  0
  187.9320  177.2520  141.8500 N   0  0  0  0  0  2  0  0  0  0  0  0
  189.0260  177.8720  141.1130 C   0  0  2  0  0  3  0  0  0  0  0  0
  188.5280  178.2990  139.7390 C   0  0  0  0  0  1  0  0  0  0  0  0
  190.1820  176.8840  140.9710 C   0  0  2  0  0  3  0  0  0  0  0  0
  191.1880  177.1930  141.8900 O   0  0  0  0  0  1  0  0  0  0  0  0
  190.7580  176.9420  139.5660 C   0  0  0  0  0  2  0  0  0  0  0  0
  190.6140  175.6760  138.9330 O   0  0  0  0  0  0  0  0  0  0  0  0
  188.5550  175.2430  135.8680 C   0  0  0  0  0  0  0  0  0  0  0  0
  189.5510  175.2780  134.8890 C   0  0  0  0  0  3  0  0  0  0  0  0
  188.8980  175.3740  137.2170 C   0  0  0  0  0  3  0  0  0  0  0  0
  191.2310  175.5760  136.6070 C   0  0  0  0  0  3  0  0  0  0  0  0
  190.2410  175.5420  137.5940 C   0  0  0  0  0  0  0  0  0  0  0  0
  190.8890  175.4450  135.2570 C   0  0  0  0  0  3  0  0  0  0  0  0
  186.0730  174.9350  135.1850 N   0  0  0  0  0  0  0  0  0  0  0  0
  187.1800  175.0720  135.4900 C   0  0  0  0  0  0  0  0  0  0  0  0
  1  5  1  0  0  0  0
  1  8  1  0  0  0  0
  2  9  1  0  0  0  0
  2 20  1  0  0  0  0
  3 12  1  0  0  0  0
  3 14  1  0  0  0  0
  4 16  1  0  0  0  0
  5  3  2  0  0  0  0
  6 17  1  0  0  0  0
  6  7  2  0  0  0  0
  7 11  1  0  0  0  0
  8 12  1  0  0  0  0
  9 16  1  0  0  0  0
 11  8  2  0  0  0  0
 11 10  1  0  0  0  0
 12 19  2  0  0  0  0
 13 18  1  0  0  0  0
 14  4  2  0  0  0  0
 15  5  1  0  0  0  0
 15 13  2  0  0  0  0
 17  1  2  0  0  0  0
 18 14  1  0  0  0  0
 18  9  2  0  0  0  0
 21 22  2  0  0  0  0
 22 20  1  0  0  0  0
 22 24  1  0  0  0  0
 24 23  1  0  0  0  0
 25 15  1  0  0  0  0
 26 27  1  6  0  0  0
 26 25  1  0  0  0  0
 28 26  1  0  0  0  0
 28 29  1  1  0  0  0
 30 28  1  0  0  0  0
 31 30  1  0  0  0  0
 32 34  1  0  0  0  0
 33 37  1  0  0  0  0
 33 32  2  0  0  0  0
 34 36  2  0  0  0  0
 35 36  1  0  0  0  0
 36 31  1  0  0  0  0
 37 35  2  0  0  0  0
 38 39  3  0  0  0  0
 39 32  1  0  0  0  0
M  END
>  <MODEL>
7

>  <REMARK>
 VINA RESULT:      -9.2      2.264      6.775
  Name = 
  10 active torsions:
  status: ('A' for Active; 'I' for Inactive)
    1  A    between atoms: C_1  and  C_8
    2  A    between atoms: C_6  and  C_26
    3  A    between atoms: C_6  and  C_30
    4  A    between atoms: C_9  and  C_12
    5  A    between atoms: C_12  and  C_33
    6  A    between atoms: O_14  and  C_20
    7  A    between atoms: O_14  and  C_30
    8  A    between atoms: C_26  and  N_34
    9  A    between atoms: C_31  and  N_34
   10  A    between atoms: C_33  and  O_37
                            x       y       z     vdW  Elec       q    Type
                         _______ _______ _______ _____ _____    ______ ____

>  <TORSDO>
F 10

$$$$
=
 OpenBabel10222421233D

 39 43  0  0  1  0  0  0  0  0999 V2000
  188.4430  177.5570  145.9240 C   0  0  0  0  0  0  0  0  0  0  0  0
  188.6820  177.4200  139.3000 C   0  0  0  0  0  2  0  0  0  0  0  0
  189.7130  177.4610  143.9980 C   0  0  0  0  0  0  0  0  0  0  0  0
  191.2920  177.3450  141.9420 C   0  0  0  0  0  3  0  0  0  0  0  0
  188.4040  177.5340  144.4600 C   0  0  2  0  0  3  0  0  0  0  0  0
  187.7230  177.6330  148.2140 C   0  0  0  0  0  3  0  0  0  0  0  0
  189.0670  177.5720  148.6330 C   0  0  0  0  0  3  0  0  0  0  0  0
  189.7660  177.4980  146.3350 C   0  0  0  0  0  0  0  0  0  0  0  0
  189.4340  177.4090  140.4010 C   0  0  0  0  0  0  0  0  0  0  0  0
  191.4300  177.4450  148.1000 O   0  0  0  0  0  1  0  0  0  0  0  0
  190.1040  177.5050  147.6890 C   0  0  0  0  0  0  0  0  0  0  0  0
  190.6140  177.4360  145.1460 C   0  0  0  0  0  0  0  0  0  0  0  0
  187.5820  177.5340  142.1830 C   0  0  0  0  0  3  0  0  0  0  0  0
  189.9730  177.4230  142.6320 C   0  0  0  0  0  0  0  0  0  0  0  0
  187.3130  177.5750  143.5720 C   0  0  0  0  0  0  0  0  0  0  0  0
  190.9330  177.3320  140.4430 C   0  0  0  0  0  3  0  0  0  0  0  0
  187.3980  177.6250  146.8460 C   0  0  0  0  0  3  0  0  0  0  0  0
  188.9190  177.4590  141.7490 C   0  0  0  0  0  0  0  0  0  0  0  0
  191.8710  177.3720  145.1180 O   0  0  0  0  0  0  0  0  0  0  0  0
  189.2570  177.3760  137.9200 C   0  0  0  0  0  2  0  0  0  0  0  0
  188.9990  179.7140  137.5520 O   0  0  0  0  0  0  0  0  0  0  0  0
  188.7970  178.5470  137.1200 C   0  0  0  0  0  0  0  0  0  0  0  0
  188.0450  177.0430  135.3260 C   0  0  0  0  0  1  0  0  0  0  0  0
  188.1720  178.3380  135.8920 O   0  0  0  0  0  0  0  0  0  0  0  0
  185.9740  177.6460  144.0710 N   0  0  0  0  0  2  0  0  0  0  0  0
  185.3380  178.8880  144.4940 C   0  0  2  0  0  3  0  0  0  0  0  0
  184.5800  178.6470  145.7920 C   0  0  0  0  0  1  0  0  0  0  0  0
  184.3820  179.3780  143.4080 C   0  0  2  0  0  3  0  0  0  0  0  0
  183.1590  179.7420  143.9790 O   0  0  0  0  0  1  0  0  0  0  0  0
  184.1440  178.2850  142.3800 C   0  0  0  0  0  2  0  0  0  0  0  0
  183.8250  178.8670  141.1220 O   0  0  0  0  0  0  0  0  0  0  0  0
  183.4100  176.4560  138.3220 C   0  0  0  0  0  0  0  0  0  0  0  0
  184.4290  176.8850  137.4680 C   0  0  0  0  0  3  0  0  0  0  0  0
  183.2000  177.1090  139.5400 C   0  0  0  0  0  3  0  0  0  0  0  0
  185.0280  178.6170  139.0500 C   0  0  0  0  0  3  0  0  0  0  0  0
  184.0100  178.1950  139.9120 C   0  0  0  0  0  0  0  0  0  0  0  0
  185.2390  177.9640  137.8320 C   0  0  0  0  0  3  0  0  0  0  0  0
  181.9080  174.4530  137.6480 N   0  0  0  0  0  0  0  0  0  0  0  0
  182.5780  175.3470  137.9490 C   0  0  0  0  0  0  0  0  0  0  0  0
  1  8  2  0  0  0  0
  1 17  1  0  0  0  0
  2  9  1  0  0  0  0
  3  5  1  0  0  0  0
  3 12  1  0  0  0  0
  4 14  1  0  0  0  0
  5 15  1  6  0  0  0
  5  1  1  0  0  0  0
  6  7  1  0  0  0  0
  8 11  1  0  0  0  0
  9 16  1  0  0  0  0
  9 18  2  0  0  0  0
 11 10  1  0  0  0  0
 11  7  2  0  0  0  0
 12  8  1  0  0  0  0
 13 15  2  0  0  0  0
 14  3  2  0  0  0  0
 15 25  1  0  0  0  0
 16  4  2  0  0  0  0
 17  6  2  0  0  0  0
 18 13  1  0  0  0  0
 18 14  1  0  0  0  0
 19 12  2  0  0  0  0
 20  2  1  0  0  0  0
 22 21  2  0  0  0  0
 22 20  1  0  0  0  0
 23 24  1  0  0  0  0
 24 22  1  0  0  0  0
 25 26  1  0  0  0  0
 26 27  1  1  0  0  0
 28 29  1  1  0  0  0
 28 26  1  0  0  0  0
 30 28  1  0  0  0  0
 31 30  1  0  0  0  0
 32 34  1  0  0  0  0
 33 37  1  0  0  0  0
 33 32  2  0  0  0  0
 34 36  2  0  0  0  0
 35 36  1  0  0  0  0
 36 31  1  0  0  0  0
 37 35  2  0  0  0  0
 38 39  3  0  0  0  0
 39 32  1  0  0  0  0
M  END
>  <MODEL>
8

>  <REMARK>
 VINA RESULT:      -9.1      2.204      5.088
  Name = 
  10 active torsions:
  status: ('A' for Active; 'I' for Inactive)
    1  A    between atoms: C_1  and  C_8
    2  A    between atoms: C_6  and  C_26
    3  A    between atoms: C_6  and  C_30
    4  A    between atoms: C_9  and  C_12
    5  A    between atoms: C_12  and  C_33
    6  A    between atoms: O_14  and  C_20
    7  A    between atoms: O_14  and  C_30
    8  A    between atoms: C_26  and  N_34
    9  A    between atoms: C_31  and  N_34
   10  A    between atoms: C_33  and  O_37
                            x       y       z     vdW  Elec       q    Type
                         _______ _______ _______ _____ _____    ______ ____

>  <TORSDO>
F 10

$$$$
=
 OpenBabel10222421233D

 39 43  0  0  1  0  0  0  0  0999 V2000
  187.5910  177.9150  141.1260 C   0  0  0  0  0  0  0  0  0  0  0  0
  192.7370  175.7120  137.5710 C   0  0  0  0  0  2  0  0  0  0  0  0
  188.5780  177.6180  139.0580 C   0  0  0  0  0  0  0  0  0  0  0  0
  189.5380  177.3680  136.6610 C   0  0  0  0  0  3  0  0  0  0  0  0
  188.7660  177.3990  140.4190 C   0  0  2  0  0  3  0  0  0  0  0  0
  186.0840  178.4950  142.9030 C   0  0  0  0  0  3  0  0  0  0  0  0
  185.1840  179.0280  141.9580 C   0  0  0  0  0  3  0  0  0  0  0  0
  186.7070  178.4380  140.1950 C   0  0  0  0  0  0  0  0  0  0  0  0
  191.5440  176.3020  137.4810 C   0  0  0  0  0  0  0  0  0  0  0  0
  184.6070  179.5270  139.6550 O   0  0  0  0  0  1  0  0  0  0  0  0
  185.4920  179.0030  140.5880 C   0  0  0  0  0  0  0  0  0  0  0  0
  187.2880  178.2740  138.8640 C   0  0  0  0  0  0  0  0  0  0  0  0
  190.9170  176.3790  139.9750 C   0  0  0  0  0  3  0  0  0  0  0  0
  189.5500  177.2240  138.1440 C   0  0  0  0  0  0  0  0  0  0  0  0
  189.9300  176.7770  140.9080 C   0  0  0  0  0  0  0  0  0  0  0  0
  190.8790  176.7530  136.2120 C   0  0  0  0  0  3  0  0  0  0  0  0
  187.3030  177.9300  142.4910 C   0  0  0  0  0  3  0  0  0  0  0  0
  190.6950  176.6170  138.6050 C   0  0  0  0  0  0  0  0  0  0  0  0
  186.7790  178.6280  137.7680 O   0  0  0  0  0  0  0  0  0  0  0  0
  193.5820  175.3960  136.3790 C   0  0  0  0  0  2  0  0  0  0  0  0
  195.4040  173.9030  136.0350 O   0  0  0  0  0  0  0  0  0  0  0  0
  194.8580  174.7470  136.7960 C   0  0  0  0  0  0  0  0  0  0  0  0
  195.8210  174.1270  138.9720 C   0  0  0  0  0  1  0  0  0  0  0  0
  195.4450  175.1000  138.0100 O   0  0  0  0  0  0  0  0  0  0  0  0
  190.1030  176.5650  142.3130 N   0  0  0  0  0  2  0  0  0  0  0  0
  191.3030  176.9540  143.0430 C   0  0  2  0  0  3  0  0  0  0  0  0
  191.9140  175.7220  143.6950 C   0  0  0  0  0  1  0  0  0  0  0  0
  190.9520  177.9930  144.1050 C   0  0  2  0  0  3  0  0  0  0  0  0
  191.7810  179.1100  143.9710 O   0  0  0  0  0  1  0  0  0  0  0  0
  191.1280  177.4080  145.4970 C   0  0  0  0  0  2  0  0  0  0  0  0
  189.9350  176.7430  145.8950 O   0  0  0  0  0  0  0  0  0  0  0  0
  186.7400  178.2930  146.9960 C   0  0  0  0  0  0  0  0  0  0  0  0
  187.0450  178.5780  148.3300 C   0  0  0  0  0  3  0  0  0  0  0  0
  187.6940  177.6820  146.1770 C   0  0  0  0  0  3  0  0  0  0  0  0
  189.2580  177.6430  148.0240 C   0  0  0  0  0  3  0  0  0  0  0  0
  188.9610  177.3540  146.6880 C   0  0  0  0  0  0  0  0  0  0  0  0
  188.3040  178.2540  148.8440 C   0  0  0  0  0  3  0  0  0  0  0  0
  184.4060  178.8950  146.0420 N   0  0  0  0  0  0  0  0  0  0  0  0
  185.4470  178.6260  146.4670 C   0  0  0  0  0  0  0  0  0  0  0  0
  1 17  1  0  0  0  0
  4 14  1  0  0  0  0
  5  3  1  6  0  0  0
  5 15  1  0  0  0  0
  5  1  1  0  0  0  0
  7  6  1  0  0  0  0
  8 11  1  0  0  0  0
  8  1  2  0  0  0  0
  9  2  1  0  0  0  0
  9 18  2  0  0  0  0
 10 11  1  0  0  0  0
 11  7  2  0  0  0  0
 12  3  1  0  0  0  0
 12  8  1  0  0  0  0
 13 15  2  0  0  0  0
 14 18  1  0  0  0  0
 14  3  2  0  0  0  0
 15 25  1  0  0  0  0
 16  4  2  0  0  0  0
 16  9  1  0  0  0  0
 17  6  2  0  0  0  0
 18 13  1  0  0  0  0
 19 12  2  0  0  0  0
 20 22  1  0  0  0  0
 20  2  1  0  0  0  0
 21 22  2  0  0  0  0
 22 24  1  0  0  0  0
 24 23  1  0  0  0  0
 25 26  1  0  0  0  0
 26 27  1  1  0  0  0
 26 28  1  0  0  0  0
 28 29  1  1  0  0  0
 28 30  1  0  0  0  0
 30 31  1  0  0  0  0
 31 36  1  0  0  0  0
 32 33  1  0  0  0  0
 33 37  2  0  0  0  0
 34 36  1  0  0  0  0
 34 32  2  0  0  0  0
 35 37  1  0  0  0  0
 36 35  2  0  0  0  0
 38 39  3  0  0  0  0
 39 32  1  0  0  0  0
M  END
>  <MODEL>
9

>  <REMARK>
 VINA RESULT:      -9.0      2.965      8.845
  Name = 
  10 active torsions:
  status: ('A' for Active; 'I' for Inactive)
    1  A    between atoms: C_1  and  C_8
    2  A    between atoms: C_6  and  C_26
    3  A    between atoms: C_6  and  C_30
    4  A    between atoms: C_9  and  C_12
    5  A    between atoms: C_12  and  C_33
    6  A    between atoms: O_14  and  C_20
    7  A    between atoms: O_14  and  C_30
    8  A    between atoms: C_26  and  N_34
    9  A    between atoms: C_31  and  N_34
   10  A    between atoms: C_33  and  O_37
                            x       y       z     vdW  Elec       q    Type
                         _______ _______ _______ _____ _____    ______ ____

>  <TORSDO>
F 10

$$$$
