=
 OpenBabel10222417133D

 51 54  0  0  1  0  0  0  0  0999 V2000
  183.3720  175.2950  137.2640 C   0  0  1  0  0  3  0  0  0  0  0  0
  179.3870  176.4280  137.5770 O   0  0  0  0  0  0  0  0  0  0  0  0
  181.0670  174.9150  138.2140 C   0  0  0  0  0  2  0  0  0  0  0  0
  184.4580  177.0830  135.3210 Cl  0  0  0  0  0  0  0  0  0  0  0  0
  181.4260  177.4970  138.0650 C   0  0  2  0  0  3  0  0  0  0  0  0
  180.5430  176.2890  137.9410 C   0  0  0  0  0  0  0  0  0  0  0  0
  183.3210  176.6560  136.5930 C   0  0  0  0  0  0  0  0  0  0  0  0
  182.0670  174.4900  137.1490 C   0  0  0  0  0  2  0  0  0  0  0  0
  182.4520  177.6100  136.9670 C   0  0  0  0  0  3  0  0  0  0  0  0
  182.0110  177.6590  139.4350 C   0  0  0  0  0  0  0  0  0  0  0  0
  182.0510  178.9450  140.0590 N   0  0  0  0  0  2  0  0  0  0  0  0
  182.4660  176.6490  140.0320 O   0  0  0  0  0  0  0  0  0  0  0  0
  182.6690  179.1700  141.3570 C   0  0  2  0  0  3  0  0  0  0  0  0
  183.9940  178.4140  141.4340 C   0  0  1  0  0  3  0  0  0  0  0  0
  185.0980  179.2930  141.0720 N   0  0  0  0  0  2  0  0  0  0  0  0
  184.2750  178.0030  142.8420 C   0  0  0  0  0  2  0  0  0  0  0  0
  185.3300  178.9930  143.2570 C   0  0  1  0  0  3  0  0  0  0  0  0
  185.5270  179.9120  142.2100 O   0  0  0  0  0  0  0  0  0  0  0  0
  184.9440  179.6850  144.4900 N   0  0  0  0  0  2  0  0  0  0  0  0
  185.6040  179.0820  145.5770 N   0  0  0  0  0  0  0  0  0  0  0  0
  184.6500  178.6430  146.4330 O   0  0  0  0  0  1  0  0  0  0  0  0
  186.3450  177.9200  145.0800 C   0  0  0  0  0  2  0  0  0  0  0  0
  187.7410  177.9470  145.5110 N   0  0  0  0  0  0  0  0  0  0  0  0
  187.8050  177.2210  146.7710 C   0  0  0  0  0  3  0  0  0  0  0  0
  189.1140  177.5300  147.4760 C   0  0  0  0  0  2  0  0  0  0  0  0
  187.8380  178.2020  147.9280 C   0  0  0  0  0  2  0  0  0  0  0  0
  188.4850  177.1610  144.5350 C   0  0  0  0  0  2  0  0  0  0  0  0
  189.3140  178.0720  143.6460 C   0  0  0  0  0  2  0  0  0  0  0  0
  190.6340  176.5180  144.3060 O   0  0  0  0  0  1  0  0  0  0  0  0
  190.6450  177.6530  143.6430 O   0  0  0  0  0  0  0  0  0  0  0  0
  181.7300  178.6850  142.4560 C   0  0  0  0  0  2  0  0  0  0  0  0
  180.6150  179.6860  142.6900 C   0  0  0  0  0  1  0  0  0  0  0  0
  184.5400  174.5530  136.9680 O   0  0  0  0  0  0  0  0  0  0  0  0
  184.1840  173.3680  136.2970 C   0  0  0  0  0  2  0  0  0  0  0  0
  185.2080  172.2820  136.5730 C   0  0  0  0  0  2  0  0  0  0  0  0
  186.4470  172.8740  137.2160 C   0  0  0  0  0  2  0  0  0  0  0  0
  188.8420  172.4660  136.0910 O   0  0  0  0  0  0  0  0  0  0  0  0
  187.6210  173.3330  135.9590 S   0  0  0  0  0  0  0  0  0  0  0  0
  187.0100  173.1370  134.6000 O   0  0  0  0  0  0  0  0  0  0  0  0
  188.0490  174.9980  136.1620 N   0  0  0  0  0  2  0  0  0  0  0  0
  190.3130  175.9020  136.6480 C   0  0  0  0  0  0  0  0  0  0  0  0
  191.6540  175.4350  137.1820 C   0  0  0  0  0  1  0  0  0  0  0  0
  189.3340  176.4920  137.6540 C   0  0  2  0  0  0  0  0  0  0  0  0
  189.7820  176.5400  138.9770 O   0  0  0  0  0  1  0  0  0  0  0  0
  190.2640  176.4140  135.2120 C   0  0  0  0  0  1  0  0  0  0  0  0
  189.1270  175.0620  137.1430 C   0  0  1  0  0  3  0  0  0  0  0  0
  188.3680  177.5910  137.1980 C   0  0  2  0  0  3  0  0  0  0  0  0
  189.0880  179.4090  138.5650 O   0  0  0  0  0  1  0  0  0  0  0  0
  189.0490  178.9480  137.2500 C   0  0  0  0  0  2  0  0  0  0  0  0
  186.4180  178.6320  137.6320 O   0  0  0  0  0  1  0  0  0  0  0  0
  187.1860  177.5960  138.0430 N   0  0  0  0  0  2  0  0  0  0  0  0
  1 33  1  6  0  0  0
  2  6  2  0  0  0  0
  4  7  1  0  0  0  0
  5 10  1  1  0  0  0
  6  5  1  0  0  0  0
  6  3  1  0  0  0  0
  7  9  2  0  0  0  0
  7  1  1  0  0  0  0
  8  1  1  0  0  0  0
  8  3  1  0  0  0  0
  9  5  1  0  0  0  0
 10 12  2  0  0  0  0
 10 11  1  0  0  0  0
 11 13  1  0  0  0  0
 13 31  1  1  0  0  0
 14 13  1  1  0  0  0
 14 16  1  0  0  0  0
 15 14  1  0  0  0  0
 15 18  1  0  0  0  0
 16 17  1  0  0  0  0
 17 19  1  1  0  0  0
 18 17  1  0  0  0  0
 19 20  1  0  0  0  0
 20 21  1  0  0  0  0
 22 23  1  0  0  0  0
 22 20  1  0  0  0  0
 23 24  1  0  0  0  0
 24 25  1  0  0  0  0
 24 26  1  0  0  0  0
 25 26  1  0  0  0  0
 27 23  1  0  0  0  0
 28 27  1  0  0  0  0
 30 28  1  0  0  0  0
 30 29  1  0  0  0  0
 31 32  1  0  0  0  0
 34 35  1  0  0  0  0
 34 33  1  0  0  0  0
 35 36  1  0  0  0  0
 38 37  2  0  0  0  0
 38 40  1  0  0  0  0
 38 36  1  0  0  0  0
 39 38  2  0  0  0  0
 41 46  1  0  0  0  0
 41 42  1  0  0  0  0
 41 43  1  0  0  0  0
 43 44  1  1  0  0  0
 45 41  1  0  0  0  0
 46 40  1  6  0  0  0
 46 43  1  0  0  0  0
 47 49  1  1  0  0  0
 47 43  1  0  0  0  0
 47 51  1  0  0  0  0
 49 48  1  0  0  0  0
 50 51  1  0  0  0  0
M  END
>  <MODEL>
1

>  <REMARK>
 VINA RESULT:      -6.3      0.000      0.000
  Name = 
  22 active torsions:
  status: ('A' for Active; 'I' for Inactive)
    1  A    between atoms: C_2  and  C_14
    2  A    between atoms: C_2  and  N_21
    3  A    between atoms: C_2  and  C_40
    4  A    between atoms: C_3  and  C_28
    5  A    between atoms: C_5  and  N_23
    6  A    between atoms: O_7  and  C_8
    7  A    between atoms: O_7  and  C_19
    8  A    between atoms: O_11  and  C_37
    9  A    between atoms: C_12  and  C_24
   10  A    between atoms: C_12  and  S_36
   11  A    between atoms: C_15  and  C_42
   12  A    between atoms: C_18  and  N_23
   13  A    between atoms: C_18  and  N_31
   14  A    between atoms: C_19  and  C_24
   15  A    between atoms: N_20  and  N_31
   16  A    between atoms: N_20  and  C_38
   17  A    between atoms: N_23  and  C_27
   18  A    between atoms: C_27  and  C_37
   19  A    between atoms: C_29  and  C_42
   20  A    between atoms: N_35  and  C_42
   21  A    between atoms: S_36  and  N_44
   22  A    between atoms: N_44  and  C_51
                            x       y       z     vdW  Elec       q    Type
                         _______ _______ _______ _____ _____    ______ ____

>  <TORSDO>
F 22

$$$$
=
 OpenBabel10222417133D

 51 54  0  0  1  0  0  0  0  0999 V2000
  191.3390  177.1310  142.9730 C   0  0  1  0  0  3  0  0  0  0  0  0
  189.6530  179.0620  146.2420 O   0  0  0  0  0  0  0  0  0  0  0  0
  190.3190  179.1990  143.9940 C   0  0  0  0  0  2  0  0  0  0  0  0
  192.1300  174.5860  143.9930 Cl  0  0  0  0  0  0  0  0  0  0  0  0
  189.0750  177.1410  145.0110 C   0  0  2  0  0  3  0  0  0  0  0  0
  189.6700  178.5120  145.1530 C   0  0  0  0  0  0  0  0  0  0  0  0
  191.1120  176.0200  143.9820 C   0  0  0  0  0  0  0  0  0  0  0  0
  191.6160  178.5050  143.6040 C   0  0  0  0  0  2  0  0  0  0  0  0
  190.1050  176.0500  144.8700 C   0  0  0  0  0  3  0  0  0  0  0  0
  187.9990  177.0710  143.9710 C   0  0  0  0  0  0  0  0  0  0  0  0
  186.9940  178.0860  143.9000 N   0  0  0  0  0  2  0  0  0  0  0  0
  187.9890  176.1090  143.1600 O   0  0  0  0  0  0  0  0  0  0  0  0
  185.8870  178.0320  142.9560 C   0  0  2  0  0  3  0  0  0  0  0  0
  186.0280  179.1590  141.9340 C   0  0  1  0  0  3  0  0  0  0  0  0
  187.1000  178.8590  140.9970 N   0  0  0  0  0  2  0  0  0  0  0  0
  184.7970  179.2520  141.0930 C   0  0  0  0  0  2  0  0  0  0  0  0
  185.2480  178.6270  139.8000 C   0  0  1  0  0  3  0  0  0  0  0  0
  186.5630  178.1530  139.9600 O   0  0  0  0  0  0  0  0  0  0  0  0
  184.3490  177.5420  139.4000 N   0  0  0  0  0  2  0  0  0  0  0  0
  184.1060  177.6370  138.0160 N   0  0  0  0  0  0  0  0  0  0  0  0
  184.4830  178.8780  137.6260 O   0  0  0  0  0  1  0  0  0  0  0  0
  184.9580  176.6610  137.3320 C   0  0  0  0  0  2  0  0  0  0  0  0
  185.7290  177.2790  136.2550 N   0  0  0  0  0  0  0  0  0  0  0  0
  187.1330  177.0500  136.5610 C   0  0  0  0  0  3  0  0  0  0  0  0
  188.0030  177.7560  135.5350 C   0  0  0  0  0  2  0  0  0  0  0  0
  187.8060  178.3680  136.9030 C   0  0  0  0  0  2  0  0  0  0  0  0
  185.4320  176.5170  135.0500 C   0  0  0  0  0  2  0  0  0  0  0  0
  184.2580  175.5840  135.2920 C   0  0  0  0  0  2  0  0  0  0  0  0
  185.6930  174.0590  134.8370 O   0  0  0  0  0  1  0  0  0  0  0  0
  184.4440  174.3910  134.5940 O   0  0  0  0  0  0  0  0  0  0  0  0
  184.5710  178.1770  143.7110 C   0  0  0  0  0  2  0  0  0  0  0  0
  184.8110  178.7190  145.1080 C   0  0  0  0  0  1  0  0  0  0  0  0
  192.2250  176.7840  141.9260 O   0  0  0  0  0  0  0  0  0  0  0  0
  191.8770  177.4950  140.7620 C   0  0  0  0  0  2  0  0  0  0  0  0
  190.9190  176.6770  139.9150 C   0  0  0  0  0  2  0  0  0  0  0  0
  191.0660  177.0420  138.4510 C   0  0  0  0  0  2  0  0  0  0  0  0
  190.8430  174.4070  138.0280 O   0  0  0  0  0  0  0  0  0  0  0  0
  191.5820  175.6140  137.5210 S   0  0  0  0  0  0  0  0  0  0  0  0
  191.2700  175.8190  136.0650 O   0  0  0  0  0  0  0  0  0  0  0  0
  193.2880  175.3950  137.7180 N   0  0  0  0  0  2  0  0  0  0  0  0
  194.4890  173.4960  136.6550 C   0  0  0  0  0  0  0  0  0  0  0  0
  194.2240  172.0770  136.1880 C   0  0  0  0  0  1  0  0  0  0  0  0
  195.0230  173.6700  138.0710 C   0  0  2  0  0  0  0  0  0  0  0  0
  195.2120  172.4900  138.7950 O   0  0  0  0  0  1  0  0  0  0  0  0
  194.8940  174.5230  135.6030 C   0  0  0  0  0  1  0  0  0  0  0  0
  193.5460  173.9610  137.7750 C   0  0  1  0  0  3  0  0  0  0  0  0
  195.9630  174.8410  138.3730 C   0  0  2  0  0  3  0  0  0  0  0  0
  197.9440  175.4070  137.1680 O   0  0  0  0  0  1  0  0  0  0  0  0
  197.3970  174.4660  138.0390 C   0  0  0  0  0  2  0  0  0  0  0  0
  197.0440  174.8940  140.3490 O   0  0  0  0  0  1  0  0  0  0  0  0
  195.8610  175.2130  139.7740 N   0  0  0  0  0  2  0  0  0  0  0  0
  1 33  1  1  0  0  0
  1  8  1  0  0  0  0
  1  7  1  0  0  0  0
  3  6  1  0  0  0  0
  5 10  1  6  0  0  0
  5  6  1  0  0  0  0
  6  2  2  0  0  0  0
  7  4  1  0  0  0  0
  7  9  2  0  0  0  0
  8  3  1  0  0  0  0
  9  5  1  0  0  0  0
 11 10  1  0  0  0  0
 12 10  2  0  0  0  0
 13 31  1  1  0  0  0
 13 11  1  0  0  0  0
 14 13  1  1  0  0  0
 15 14  1  0  0  0  0
 16 14  1  0  0  0  0
 17 19  1  1  0  0  0
 17 18  1  0  0  0  0
 17 16  1  0  0  0  0
 18 15  1  0  0  0  0
 20 19  1  0  0  0  0
 21 20  1  0  0  0  0
 22 20  1  0  0  0  0
 23 24  1  0  0  0  0
 23 22  1  0  0  0  0
 24 26  1  0  0  0  0
 25 24  1  0  0  0  0
 25 26  1  0  0  0  0
 27 28  1  0  0  0  0
 27 23  1  0  0  0  0
 30 29  1  0  0  0  0
 30 28  1  0  0  0  0
 31 32  1  0  0  0  0
 34 33  1  0  0  0  0
 35 34  1  0  0  0  0
 36 35  1  0  0  0  0
 38 40  1  0  0  0  0
 38 37  2  0  0  0  0
 38 36  1  0  0  0  0
 39 38  2  0  0  0  0
 41 46  1  0  0  0  0
 41 43  1  0  0  0  0
 42 41  1  0  0  0  0
 43 47  1  0  0  0  0
 43 44  1  1  0  0  0
 45 41  1  0  0  0  0
 46 40  1  6  0  0  0
 46 43  1  0  0  0  0
 47 49  1  1  0  0  0
 47 51  1  0  0  0  0
 48 49  1  0  0  0  0
 51 50  1  0  0  0  0
M  END
>  <MODEL>
2

>  <REMARK>
 VINA RESULT:      -5.9      3.811      8.395
  Name = 
  22 active torsions:
  status: ('A' for Active; 'I' for Inactive)
    1  A    between atoms: C_2  and  C_14
    2  A    between atoms: C_2  and  N_21
    3  A    between atoms: C_2  and  C_40
    4  A    between atoms: C_3  and  C_28
    5  A    between atoms: C_5  and  N_23
    6  A    between atoms: O_7  and  C_8
    7  A    between atoms: O_7  and  C_19
    8  A    between atoms: O_11  and  C_37
    9  A    between atoms: C_12  and  C_24
   10  A    between atoms: C_12  and  S_36
   11  A    between atoms: C_15  and  C_42
   12  A    between atoms: C_18  and  N_23
   13  A    between atoms: C_18  and  N_31
   14  A    between atoms: C_19  and  C_24
   15  A    between atoms: N_20  and  N_31
   16  A    between atoms: N_20  and  C_38
   17  A    between atoms: N_23  and  C_27
   18  A    between atoms: C_27  and  C_37
   19  A    between atoms: C_29  and  C_42
   20  A    between atoms: N_35  and  C_42
   21  A    between atoms: S_36  and  N_44
   22  A    between atoms: N_44  and  C_51
                            x       y       z     vdW  Elec       q    Type
                         _______ _______ _______ _____ _____    ______ ____

>  <TORSDO>
F 22

$$$$
=
 OpenBabel10222417133D

 51 54  0  0  1  0  0  0  0  0999 V2000
  187.0080  174.7410  136.8700 C   0  0  1  0  0  3  0  0  0  0  0  0
  186.8450  178.4190  134.9440 O   0  0  0  0  0  0  0  0  0  0  0  0
  186.2490  177.1450  136.8260 C   0  0  0  0  0  2  0  0  0  0  0  0
  188.3000  173.0230  134.9920 Cl  0  0  0  0  0  0  0  0  0  0  0  0
  188.6080  177.0580  135.7090 C   0  0  2  0  0  3  0  0  0  0  0  0
  187.2120  177.6070  135.7790 C   0  0  0  0  0  0  0  0  0  0  0  0
  187.9790  174.5950  135.7120 C   0  0  0  0  0  0  0  0  0  0  0  0
  185.8380  175.6990  136.5920 C   0  0  0  0  0  2  0  0  0  0  0  0
  188.6720  175.6350  135.2200 C   0  0  0  0  0  3  0  0  0  0  0  0
  189.3910  177.2840  136.9660 C   0  0  0  0  0  0  0  0  0  0  0  0
  189.8690  176.1750  137.7310 N   0  0  0  0  0  2  0  0  0  0  0  0
  189.6250  178.4630  137.3410 O   0  0  0  0  0  0  0  0  0  0  0  0
  190.5740  176.3370  138.9950 C   0  0  2  0  0  3  0  0  0  0  0  0
  189.9830  177.5150  139.7660 C   0  0  1  0  0  3  0  0  0  0  0  0
  188.7180  177.1330  140.3780 N   0  0  0  0  0  2  0  0  0  0  0  0
  190.8690  177.8810  140.9110 C   0  0  0  0  0  2  0  0  0  0  0  0
  190.1190  177.3130  142.0870 C   0  0  1  0  0  3  0  0  0  0  0  0
  188.9900  176.6210  141.6130 O   0  0  0  0  0  0  0  0  0  0  0  0
  190.9770  176.4290  142.8780 N   0  0  0  0  0  2  0  0  0  0  0  0
  190.6140  176.5330  144.2340 N   0  0  0  0  0  0  0  0  0  0  0  0
  191.7590  176.5750  144.9550 O   0  0  0  0  0  1  0  0  0  0  0  0
  189.9030  177.7990  144.4240 C   0  0  0  0  0  2  0  0  0  0  0  0
  188.8950  177.6990  145.4780 N   0  0  0  0  0  0  0  0  0  0  0  0
  187.7480  177.0170  144.8960 C   0  0  0  0  0  3  0  0  0  0  0  0
  186.4640  177.6570  145.3940 C   0  0  0  0  0  2  0  0  0  0  0  0
  186.9760  177.9760  144.0080 C   0  0  0  0  0  2  0  0  0  0  0  0
  189.4470  176.8060  146.4870 C   0  0  0  0  0  2  0  0  0  0  0  0
  189.6580  177.5520  147.7930 C   0  0  0  0  0  2  0  0  0  0  0  0
  188.0690  178.1040  149.1210 O   0  0  0  0  0  1  0  0  0  0  0  0
  188.6280  178.4720  147.9890 O   0  0  0  0  0  0  0  0  0  0  0  0
  192.0530  176.5850  138.7200 C   0  0  0  0  0  2  0  0  0  0  0  0
  192.5860  175.5880  137.7090 C   0  0  0  0  0  1  0  0  0  0  0  0
  186.6240  173.5110  137.4560 O   0  0  0  0  0  0  0  0  0  0  0  0
  185.5830  172.9380  136.7020 C   0  0  0  0  0  2  0  0  0  0  0  0
  184.4460  172.5160  137.6130 C   0  0  0  0  0  2  0  0  0  0  0  0
  183.4280  171.6970  136.8440 C   0  0  0  0  0  2  0  0  0  0  0  0
  181.3740  172.5340  135.3440 O   0  0  0  0  0  0  0  0  0  0  0  0
  181.8820  172.5760  136.7580 S   0  0  0  0  0  0  0  0  0  0  0  0
  180.8800  171.9280  137.6710 O   0  0  0  0  0  0  0  0  0  0  0  0
  182.1340  174.2160  137.2520 N   0  0  0  0  0  2  0  0  0  0  0  0
  181.1470  175.6370  139.0370 C   0  0  0  0  0  0  0  0  0  0  0  0
  180.0750  175.5680  140.1080 C   0  0  0  0  0  1  0  0  0  0  0  0
  180.7400  176.2110  137.6860 C   0  0  2  0  0  0  0  0  0  0  0  0
  179.4080  176.6160  137.5780 O   0  0  0  0  0  1  0  0  0  0  0  0
  182.5900  175.8240  139.4930 C   0  0  0  0  0  1  0  0  0  0  0  0
  180.8930  174.6940  137.8510 C   0  0  1  0  0  3  0  0  0  0  0  0
  181.7790  176.9760  136.8590 C   0  0  2  0  0  3  0  0  0  0  0  0
  182.9280  178.7910  137.8970 O   0  0  0  0  0  1  0  0  0  0  0  0
  181.7580  178.4510  137.2190 C   0  0  0  0  0  2  0  0  0  0  0  0
  182.5470  177.3660  134.7780 O   0  0  0  0  0  1  0  0  0  0  0  0
  181.5080  176.8070  135.4410 N   0  0  0  0  0  2  0  0  0  0  0  0
  1 33  1  6  0  0  0
  2  6  2  0  0  0  0
  4  7  1  0  0  0  0
  5  6  1  0  0  0  0
  5 10  1  1  0  0  0
  6  3  1  0  0  0  0
  7  1  1  0  0  0  0
  8  3  1  0  0  0  0
  8  1  1  0  0  0  0
  9  5  1  0  0  0  0
  9  7  2  0  0  0  0
 10 12  2  0  0  0  0
 10 11  1  0  0  0  0
 11 13  1  0  0  0  0
 13 31  1  6  0  0  0
 14 13  1  1  0  0  0
 14 15  1  0  0  0  0
 14 16  1  0  0  0  0
 15 18  1  0  0  0  0
 16 17  1  0  0  0  0
 17 19  1  6  0  0  0
 18 17  1  0  0  0  0
 19 20  1  0  0  0  0
 20 22  1  0  0  0  0
 20 21  1  0  0  0  0
 22 23  1  0  0  0  0
 23 27  1  0  0  0  0
 24 25  1  0  0  0  0
 24 23  1  0  0  0  0
 26 24  1  0  0  0  0
 26 25  1  0  0  0  0
 27 28  1  0  0  0  0
 28 30  1  0  0  0  0
 30 29  1  0  0  0  0
 32 31  1  0  0  0  0
 34 33  1  0  0  0  0
 34 35  1  0  0  0  0
 36 35  1  0  0  0  0
 37 38  2  0  0  0  0
 38 36  1  0  0  0  0
 38 40  1  0  0  0  0
 38 39  2  0  0  0  0
 41 45  1  0  0  0  0
 41 42  1  0  0  0  0
 43 44  1  6  0  0  0
 43 46  1  0  0  0  0
 43 41  1  0  0  0  0
 46 40  1  6  0  0  0
 46 41  1  0  0  0  0
 47 49  1  1  0  0  0
 47 43  1  0  0  0  0
 49 48  1  0  0  0  0
 50 51  1  0  0  0  0
 51 47  1  0  0  0  0
M  END
>  <MODEL>
3

>  <REMARK>
 VINA RESULT:      -5.9      2.738      6.719
  Name = 
  22 active torsions:
  status: ('A' for Active; 'I' for Inactive)
    1  A    between atoms: C_2  and  C_14
    2  A    between atoms: C_2  and  N_21
    3  A    between atoms: C_2  and  C_40
    4  A    between atoms: C_3  and  C_28
    5  A    between atoms: C_5  and  N_23
    6  A    between atoms: O_7  and  C_8
    7  A    between atoms: O_7  and  C_19
    8  A    between atoms: O_11  and  C_37
    9  A    between atoms: C_12  and  C_24
   10  A    between atoms: C_12  and  S_36
   11  A    between atoms: C_15  and  C_42
   12  A    between atoms: C_18  and  N_23
   13  A    between atoms: C_18  and  N_31
   14  A    between atoms: C_19  and  C_24
   15  A    between atoms: N_20  and  N_31
   16  A    between atoms: N_20  and  C_38
   17  A    between atoms: N_23  and  C_27
   18  A    between atoms: C_27  and  C_37
   19  A    between atoms: C_29  and  C_42
   20  A    between atoms: N_35  and  C_42
   21  A    between atoms: S_36  and  N_44
   22  A    between atoms: N_44  and  C_51
                            x       y       z     vdW  Elec       q    Type
                         _______ _______ _______ _____ _____    ______ ____

>  <TORSDO>
F 22

$$$$
=
 OpenBabel10222417133D

 51 54  0  0  1  0  0  0  0  0999 V2000
  183.1460  179.0610  140.1430 C   0  0  1  0  0  3  0  0  0  0  0  0
  179.6830  178.7770  137.8660 O   0  0  0  0  0  0  0  0  0  0  0  0
  181.9870  179.2320  137.9110 C   0  0  0  0  0  2  0  0  0  0  0  0
  182.2590  178.6390  142.8240 Cl  0  0  0  0  0  0  0  0  0  0  0  0
  180.8780  177.2560  139.2080 C   0  0  2  0  0  3  0  0  0  0  0  0
  180.7770  178.4380  138.2870 C   0  0  0  0  0  0  0  0  0  0  0  0
  182.1370  178.4230  141.0830 C   0  0  0  0  0  0  0  0  0  0  0  0
  182.5250  180.0070  139.1040 C   0  0  0  0  0  2  0  0  0  0  0  0
  181.1460  177.6310  140.6420 C   0  0  0  0  0  3  0  0  0  0  0  0
  181.7970  176.1890  138.6970 C   0  0  0  0  0  0  0  0  0  0  0  0
  181.5090  175.5100  137.4720 N   0  0  0  0  0  2  0  0  0  0  0  0
  182.8280  175.8980  139.3580 O   0  0  0  0  0  0  0  0  0  0  0  0
  182.3300  174.4200  136.9660 C   0  0  2  0  0  3  0  0  0  0  0  0
  182.6330  174.6490  135.4860 C   0  0  1  0  0  3  0  0  0  0  0  0
  183.3700  175.8920  135.3090 N   0  0  0  0  0  2  0  0  0  0  0  0
  183.5460  173.5840  134.9730 C   0  0  0  0  0  2  0  0  0  0  0  0
  184.8640  174.3070  134.8960 C   0  0  1  0  0  3  0  0  0  0  0  0
  184.7000  175.6060  135.4100 O   0  0  0  0  0  0  0  0  0  0  0  0
  185.9030  173.5830  135.6310 N   0  0  0  0  0  2  0  0  0  0  0  0
  186.3200  174.3670  136.7230 N   0  0  0  0  0  0  0  0  0  0  0  0
  185.6010  173.9710  137.8000 O   0  0  0  0  0  1  0  0  0  0  0  0
  187.7330  174.0810  136.9830 C   0  0  0  0  0  2  0  0  0  0  0  0
  188.4820  175.2990  137.2860 N   0  0  0  0  0  0  0  0  0  0  0  0
  189.7360  175.2130  136.5520 C   0  0  0  0  0  3  0  0  0  0  0  0
  190.9000  175.1680  137.5270 C   0  0  0  0  0  2  0  0  0  0  0  0
  190.4250  173.8960  136.8640 C   0  0  0  0  0  2  0  0  0  0  0  0
  187.7280  176.3990  136.7020 C   0  0  0  0  0  2  0  0  0  0  0  0
  188.3150  177.7310  137.1370 C   0  0  0  0  0  2  0  0  0  0  0  0
  186.1990  178.0660  137.0950 O   0  0  0  0  0  1  0  0  0  0  0  0
  187.3020  178.5700  137.6020 O   0  0  0  0  0  0  0  0  0  0  0  0
  181.5850  173.1010  137.1450 C   0  0  0  0  0  2  0  0  0  0  0  0
  180.3550  173.2930  138.0110 C   0  0  0  0  0  1  0  0  0  0  0  0
  184.2880  179.5830  140.7960 O   0  0  0  0  0  0  0  0  0  0  0  0
  185.4160  178.8140  140.4550 C   0  0  0  0  0  2  0  0  0  0  0  0
  185.8110  177.9190  141.6150 C   0  0  0  0  0  2  0  0  0  0  0  0
  185.9460  178.7320  142.8880 C   0  0  0  0  0  2  0  0  0  0  0  0
  186.2350  177.9820  145.4410 O   0  0  0  0  0  0  0  0  0  0  0  0
  186.8820  177.8180  144.0950 S   0  0  0  0  0  0  0  0  0  0  0  0
  186.9040  176.3630  143.7210 O   0  0  0  0  0  0  0  0  0  0  0  0
  188.5020  178.4260  144.1350 N   0  0  0  0  0  2  0  0  0  0  0  0
  190.7980  177.9790  143.2910 C   0  0  0  0  0  0  0  0  0  0  0  0
  191.4970  177.5510  142.0150 C   0  0  0  0  0  1  0  0  0  0  0  0
  190.4270  176.8820  144.2790 C   0  0  2  0  0  0  0  0  0  0  0  0
  190.7750  175.5830  143.8990 O   0  0  0  0  0  1  0  0  0  0  0  0
  191.1190  179.3640  143.8420 C   0  0  0  0  0  1  0  0  0  0  0  0
  189.3430  177.4970  143.3870 C   0  0  1  0  0  3  0  0  0  0  0  0
  190.4230  177.1990  145.7780 C   0  0  2  0  0  3  0  0  0  0  0  0
  191.8690  175.5860  146.7770 O   0  0  0  0  0  1  0  0  0  0  0  0
  191.7890  176.9200  146.3810 C   0  0  0  0  0  2  0  0  0  0  0  0
  189.1650  177.0110  147.6370 O   0  0  0  0  0  1  0  0  0  0  0  0
  189.4110  176.4040  146.4530 N   0  0  0  0  0  2  0  0  0  0  0  0
  1 33  1  1  0  0  0
  1  7  1  0  0  0  0
  2  6  2  0  0  0  0
  3  6  1  0  0  0  0
  3  8  1  0  0  0  0
  5 10  1  6  0  0  0
  5  9  1  0  0  0  0
  6  5  1  0  0  0  0
  7  4  1  0  0  0  0
  8  1  1  0  0  0  0
  9  7  2  0  0  0  0
 10 12  2  0  0  0  0
 11 10  1  0  0  0  0
 13 31  1  6  0  0  0
 13 11  1  0  0  0  0
 14 13  1  1  0  0  0
 15 18  1  0  0  0  0
 15 14  1  0  0  0  0
 16 14  1  0  0  0  0
 17 16  1  0  0  0  0
 17 18  1  0  0  0  0
 17 19  1  1  0  0  0
 19 20  1  0  0  0  0
 20 22  1  0  0  0  0
 20 21  1  0  0  0  0
 22 23  1  0  0  0  0
 24 26  1  0  0  0  0
 24 23  1  0  0  0  0
 24 25  1  0  0  0  0
 26 25  1  0  0  0  0
 27 28  1  0  0  0  0
 27 23  1  0  0  0  0
 28 30  1  0  0  0  0
 29 30  1  0  0  0  0
 31 32  1  0  0  0  0
 34 33  1  0  0  0  0
 34 35  1  0  0  0  0
 35 36  1  0  0  0  0
 36 38  1  0  0  0  0
 38 40  1  0  0  0  0
 38 37  2  0  0  0  0
 39 38  2  0  0  0  0
 41 46  1  0  0  0  0
 41 45  1  0  0  0  0
 41 43  1  0  0  0  0
 42 41  1  0  0  0  0
 43 44  1  6  0  0  0
 43 47  1  0  0  0  0
 46 40  1  1  0  0  0
 46 43  1  0  0  0  0
 47 49  1  1  0  0  0
 47 51  1  0  0  0  0
 49 48  1  0  0  0  0
 51 50  1  0  0  0  0
M  END
>  <MODEL>
4

>  <REMARK>
 VINA RESULT:      -5.8      2.754      7.805
  Name = 
  22 active torsions:
  status: ('A' for Active; 'I' for Inactive)
    1  A    between atoms: C_2  and  C_14
    2  A    between atoms: C_2  and  N_21
    3  A    between atoms: C_2  and  C_40
    4  A    between atoms: C_3  and  C_28
    5  A    between atoms: C_5  and  N_23
    6  A    between atoms: O_7  and  C_8
    7  A    between atoms: O_7  and  C_19
    8  A    between atoms: O_11  and  C_37
    9  A    between atoms: C_12  and  C_24
   10  A    between atoms: C_12  and  S_36
   11  A    between atoms: C_15  and  C_42
   12  A    between atoms: C_18  and  N_23
   13  A    between atoms: C_18  and  N_31
   14  A    between atoms: C_19  and  C_24
   15  A    between atoms: N_20  and  N_31
   16  A    between atoms: N_20  and  C_38
   17  A    between atoms: N_23  and  C_27
   18  A    between atoms: C_27  and  C_37
   19  A    between atoms: C_29  and  C_42
   20  A    between atoms: N_35  and  C_42
   21  A    between atoms: S_36  and  N_44
   22  A    between atoms: N_44  and  C_51
                            x       y       z     vdW  Elec       q    Type
                         _______ _______ _______ _____ _____    ______ ____

>  <TORSDO>
F 22

$$$$
=
 OpenBabel10222417133D

 51 54  0  0  1  0  0  0  0  0999 V2000
  182.4040  176.2420  137.7230 C   0  0  1  0  0  3  0  0  0  0  0  0
  178.9330  177.2910  139.7510 O   0  0  0  0  0  0  0  0  0  0  0  0
  180.8580  175.9470  139.6930 C   0  0  0  0  0  2  0  0  0  0  0  0
  182.2760  177.7360  135.2940 Cl  0  0  0  0  0  0  0  0  0  0  0  0
  180.8480  178.4830  139.0750 C   0  0  2  0  0  3  0  0  0  0  0  0
  180.1340  177.2450  139.5350 C   0  0  0  0  0  0  0  0  0  0  0  0
  181.9110  177.4800  136.9950 C   0  0  0  0  0  0  0  0  0  0  0  0
  181.2840  175.3900  138.3420 C   0  0  0  0  0  2  0  0  0  0  0  0
  181.2260  178.4540  137.6170 C   0  0  0  0  0  3  0  0  0  0  0  0
  181.9840  178.8740  139.9700 C   0  0  0  0  0  0  0  0  0  0  0  0
  181.8140  178.8940  141.3890 N   0  0  0  0  0  2  0  0  0  0  0  0
  183.0910  179.1830  139.4580 O   0  0  0  0  0  0  0  0  0  0  0  0
  182.8610  179.3310  142.3010 C   0  0  2  0  0  3  0  0  0  0  0  0
  184.2110  178.7940  141.8280 C   0  0  1  0  0  3  0  0  0  0  0  0
  185.2470  179.8000  142.0140 N   0  0  0  0  0  2  0  0  0  0  0  0
  184.6360  177.6420  142.6780 C   0  0  0  0  0  2  0  0  0  0  0  0
  185.6940  178.2650  143.5510 C   0  0  1  0  0  3  0  0  0  0  0  0
  185.7620  179.6410  143.2680 O   0  0  0  0  0  0  0  0  0  0  0  0
  185.4040  178.0390  144.9680 N   0  0  0  0  0  2  0  0  0  0  0  0
  186.4500  178.5800  145.7400 N   0  0  0  0  0  0  0  0  0  0  0  0
  185.8880  179.1640  146.8250 O   0  0  0  0  0  1  0  0  0  0  0  0
  187.3000  177.4790  146.1990 C   0  0  0  0  0  2  0  0  0  0  0  0
  188.7190  177.8160  146.0990 N   0  0  0  0  0  0  0  0  0  0  0  0
  189.3470  177.3480  147.3260 C   0  0  0  0  0  3  0  0  0  0  0  0
  188.9870  178.2770  148.4730 C   0  0  0  0  0  2  0  0  0  0  0  0
  188.2800  176.9490  148.3300 C   0  0  0  0  0  2  0  0  0  0  0  0
  189.2570  177.0040  145.0160 C   0  0  0  0  0  2  0  0  0  0  0  0
  189.9230  177.8880  143.9760 C   0  0  0  0  0  2  0  0  0  0  0  0
  191.8850  177.6570  143.1450 O   0  0  0  0  0  1  0  0  0  0  0  0
  191.2830  178.0160  144.2580 O   0  0  0  0  0  0  0  0  0  0  0  0
  182.5590  178.8150  143.7030 C   0  0  0  0  0  2  0  0  0  0  0  0
  181.1190  179.1050  144.0830 C   0  0  0  0  0  1  0  0  0  0  0  0
  183.3680  175.4980  137.0010 O   0  0  0  0  0  0  0  0  0  0  0  0
  182.9460  174.1590  136.9010 C   0  0  0  0  0  2  0  0  0  0  0  0
  184.1200  173.2640  136.5470 C   0  0  0  0  0  2  0  0  0  0  0  0
  185.2300  174.0770  135.9090 C   0  0  0  0  0  2  0  0  0  0  0  0
  186.5440  172.7410  137.8220 O   0  0  0  0  0  0  0  0  0  0  0  0
  186.7890  173.6750  136.6700 S   0  0  0  0  0  0  0  0  0  0  0  0
  187.6850  173.0080  135.6650 O   0  0  0  0  0  0  0  0  0  0  0  0
  187.5380  175.1310  137.2320 N   0  0  0  0  0  2  0  0  0  0  0  0
  187.4490  177.2960  136.0130 C   0  0  0  0  0  0  0  0  0  0  0  0
  187.2500  177.8220  134.6040 C   0  0  0  0  0  1  0  0  0  0  0  0
  188.8830  177.0590  136.4680 C   0  0  2  0  0  0  0  0  0  0  0  0
  189.8730  177.3550  135.5270 O   0  0  0  0  0  1  0  0  0  0  0  0
  186.4170  177.6860  137.0660 C   0  0  0  0  0  1  0  0  0  0  0  0
  188.0090  175.8660  136.0630 C   0  0  1  0  0  3  0  0  0  0  0  0
  189.2370  177.2520  137.9460 C   0  0  2  0  0  3  0  0  0  0  0  0
  189.0320  179.6040  137.6040 O   0  0  0  0  0  1  0  0  0  0  0  0
  188.6690  178.5640  138.4590 C   0  0  0  0  0  2  0  0  0  0  0  0
  190.9210  177.5520  139.4120 O   0  0  0  0  0  1  0  0  0  0  0  0
  190.6800  177.2350  138.1180 N   0  0  0  0  0  2  0  0  0  0  0  0
  1 33  1  6  0  0  0
  1  8  1  0  0  0  0
  4  7  1  0  0  0  0
  5  6  1  0  0  0  0
  5 10  1  1  0  0  0
  6  3  1  0  0  0  0
  6  2  2  0  0  0  0
  7  9  2  0  0  0  0
  7  1  1  0  0  0  0
  8  3  1  0  0  0  0
  9  5  1  0  0  0  0
 10 11  1  0  0  0  0
 11 13  1  0  0  0  0
 12 10  2  0  0  0  0
 13 31  1  1  0  0  0
 14 15  1  0  0  0  0
 14 13  1  1  0  0  0
 14 16  1  0  0  0  0
 15 18  1  0  0  0  0
 16 17  1  0  0  0  0
 17 19  1  1  0  0  0
 18 17  1  0  0  0  0
 19 20  1  0  0  0  0
 20 22  1  0  0  0  0
 20 21  1  0  0  0  0
 23 22  1  0  0  0  0
 23 24  1  0  0  0  0
 24 26  1  0  0  0  0
 24 25  1  0  0  0  0
 26 25  1  0  0  0  0
 27 23  1  0  0  0  0
 28 30  1  0  0  0  0
 28 27  1  0  0  0  0
 29 30  1  0  0  0  0
 31 32  1  0  0  0  0
 34 33  1  0  0  0  0
 35 34  1  0  0  0  0
 36 35  1  0  0  0  0
 36 38  1  0  0  0  0
 38 40  1  0  0  0  0
 38 37  2  0  0  0  0
 39 38  2  0  0  0  0
 41 46  1  0  0  0  0
 41 43  1  0  0  0  0
 41 45  1  0  0  0  0
 42 41  1  0  0  0  0
 43 44  1  6  0  0  0
 43 47  1  0  0  0  0
 46 43  1  0  0  0  0
 46 40  1  1  0  0  0
 47 51  1  0  0  0  0
 47 49  1  6  0  0  0
 48 49  1  0  0  0  0
 51 50  1  0  0  0  0
M  END
>  <MODEL>
5

>  <REMARK>
 VINA RESULT:      -5.6      1.563      2.069
  Name = 
  22 active torsions:
  status: ('A' for Active; 'I' for Inactive)
    1  A    between atoms: C_2  and  C_14
    2  A    between atoms: C_2  and  N_21
    3  A    between atoms: C_2  and  C_40
    4  A    between atoms: C_3  and  C_28
    5  A    between atoms: C_5  and  N_23
    6  A    between atoms: O_7  and  C_8
    7  A    between atoms: O_7  and  C_19
    8  A    between atoms: O_11  and  C_37
    9  A    between atoms: C_12  and  C_24
   10  A    between atoms: C_12  and  S_36
   11  A    between atoms: C_15  and  C_42
   12  A    between atoms: C_18  and  N_23
   13  A    between atoms: C_18  and  N_31
   14  A    between atoms: C_19  and  C_24
   15  A    between atoms: N_20  and  N_31
   16  A    between atoms: N_20  and  C_38
   17  A    between atoms: N_23  and  C_27
   18  A    between atoms: C_27  and  C_37
   19  A    between atoms: C_29  and  C_42
   20  A    between atoms: N_35  and  C_42
   21  A    between atoms: S_36  and  N_44
   22  A    between atoms: N_44  and  C_51
                            x       y       z     vdW  Elec       q    Type
                         _______ _______ _______ _____ _____    ______ ____

>  <TORSDO>
F 22

$$$$
=
 OpenBabel10222417133D

 51 54  0  0  1  0  0  0  0  0999 V2000
  189.0240  178.0550  143.8960 C   0  0  1  0  0  3  0  0  0  0  0  0
  191.3710  174.7210  143.0980 O   0  0  0  0  0  0  0  0  0  0  0  0
  189.2130  175.5810  143.4450 C   0  0  0  0  0  2  0  0  0  0  0  0
  190.9100  180.1530  144.3310 Cl  0  0  0  0  0  0  0  0  0  0  0  0
  191.0280  176.7730  141.9950 C   0  0  2  0  0  3  0  0  0  0  0  0
  190.5860  175.6220  142.8520 C   0  0  0  0  0  0  0  0  0  0  0  0
  190.4000  178.6310  143.6120 C   0  0  0  0  0  0  0  0  0  0  0  0
  189.0480  176.6490  144.5170 C   0  0  0  0  0  2  0  0  0  0  0  0
  191.2640  178.0440  142.7680 C   0  0  0  0  0  3  0  0  0  0  0  0
  190.1670  176.9710  140.7860 C   0  0  0  0  0  0  0  0  0  0  0  0
  190.4320  176.2490  139.5810 N   0  0  0  0  0  2  0  0  0  0  0  0
  189.2040  177.7800  140.8430 O   0  0  0  0  0  0  0  0  0  0  0  0
  189.6710  176.4540  138.3570 C   0  0  2  0  0  3  0  0  0  0  0  0
  189.9420  175.3070  137.3850 C   0  0  1  0  0  3  0  0  0  0  0  0
  189.9740  175.8030  136.0170 N   0  0  0  0  0  2  0  0  0  0  0  0
  191.3030  174.7390  137.6210 C   0  0  0  0  0  2  0  0  0  0  0  0
  192.0880  175.3080  136.4680 C   0  0  1  0  0  3  0  0  0  0  0  0
  191.2560  176.1770  135.7390 O   0  0  0  0  0  0  0  0  0  0  0  0
  193.2840  176.0080  136.9420 N   0  0  0  0  0  2  0  0  0  0  0  0
  194.1890  176.1420  135.8730 N   0  0  0  0  0  0  0  0  0  0  0  0
  195.0000  177.1870  136.1620 O   0  0  0  0  0  1  0  0  0  0  0  0
  195.0060  174.9280  135.8070 C   0  0  0  0  0  2  0  0  0  0  0  0
  195.7850  174.7350  137.0290 N   0  0  0  0  0  0  0  0  0  0  0  0
  195.8480  173.3000  137.2630 C   0  0  0  0  0  3  0  0  0  0  0  0
  194.7170  172.8810  138.1850 C   0  0  0  0  0  2  0  0  0  0  0  0
  194.6070  172.6320  136.6980 C   0  0  0  0  0  2  0  0  0  0  0  0
  197.1410  175.1710  136.7220 C   0  0  0  0  0  2  0  0  0  0  0  0
  198.1150  174.6270  137.7530 C   0  0  0  0  0  2  0  0  0  0  0  0
  197.6170  175.3920  139.6920 O   0  0  0  0  0  1  0  0  0  0  0  0
  198.4290  175.6180  138.6830 O   0  0  0  0  0  0  0  0  0  0  0  0
  190.0790  177.7790  137.7230 C   0  0  0  0  0  2  0  0  0  0  0  0
  188.8580  178.5520  137.2630 C   0  0  0  0  0  1  0  0  0  0  0  0
  188.1450  178.9580  144.5400 O   0  0  0  0  0  0  0  0  0  0  0  0
  187.4100  178.2740  145.5260 C   0  0  0  0  0  2  0  0  0  0  0  0
  185.9220  178.4360  145.2780 C   0  0  0  0  0  2  0  0  0  0  0  0
  185.5440  177.8550  143.9290 C   0  0  0  0  0  2  0  0  0  0  0  0
  184.1220  180.1220  143.8660 O   0  0  0  0  0  0  0  0  0  0  0  0
  184.7110  179.0860  142.9500 S   0  0  0  0  0  0  0  0  0  0  0  0
  185.6920  179.7390  142.0180 O   0  0  0  0  0  0  0  0  0  0  0  0
  183.4590  178.3260  142.0270 N   0  0  0  0  0  2  0  0  0  0  0  0
  182.9380  177.9270  139.6300 C   0  0  0  0  0  0  0  0  0  0  0  0
  183.5830  178.0840  138.2650 C   0  0  0  0  0  1  0  0  0  0  0  0
  182.0740  179.0800  140.1230 C   0  0  2  0  0  0  0  0  0  0  0  0
  181.9680  180.1700  139.2560 O   0  0  0  0  0  1  0  0  0  0  0  0
  182.5830  176.5160  140.0860 C   0  0  0  0  0  1  0  0  0  0  0  0
  183.4890  178.8970  140.6850 C   0  0  1  0  0  3  0  0  0  0  0  0
  180.8730  178.7770  141.0250 C   0  0  2  0  0  3  0  0  0  0  0  0
  179.2460  177.1870  140.3050 O   0  0  0  0  0  1  0  0  0  0  0  0
  179.6340  178.5210  140.1850 C   0  0  0  0  0  2  0  0  0  0  0  0
  179.6880  180.6640  141.3570 O   0  0  0  0  0  1  0  0  0  0  0  0
  180.6380  179.8890  141.9310 N   0  0  0  0  0  2  0  0  0  0  0  0
  1  8  1  0  0  0  0
  1 33  1  1  0  0  0
  3  8  1  0  0  0  0
  5 10  1  6  0  0  0
  5  9  1  0  0  0  0
  5  6  1  0  0  0  0
  6  2  2  0  0  0  0
  6  3  1  0  0  0  0
  7  1  1  0  0  0  0
  7  4  1  0  0  0  0
  9  7  2  0  0  0  0
 10 12  2  0  0  0  0
 11 10  1  0  0  0  0
 13 31  1  6  0  0  0
 13 11  1  0  0  0  0
 14 16  1  0  0  0  0
 14 13  1  1  0  0  0
 15 14  1  0  0  0  0
 17 19  1  1  0  0  0
 17 16  1  0  0  0  0
 18 15  1  0  0  0  0
 18 17  1  0  0  0  0
 20 21  1  0  0  0  0
 20 19  1  0  0  0  0
 22 20  1  0  0  0  0
 22 23  1  0  0  0  0
 23 24  1  0  0  0  0
 24 25  1  0  0  0  0
 26 24  1  0  0  0  0
 26 25  1  0  0  0  0
 27 23  1  0  0  0  0
 27 28  1  0  0  0  0
 28 30  1  0  0  0  0
 30 29  1  0  0  0  0
 32 31  1  0  0  0  0
 33 34  1  0  0  0  0
 35 34  1  0  0  0  0
 36 35  1  0  0  0  0
 38 37  2  0  0  0  0
 38 36  1  0  0  0  0
 39 38  2  0  0  0  0
 40 38  1  0  0  0  0
 41 45  1  0  0  0  0
 41 43  1  0  0  0  0
 41 46  1  0  0  0  0
 42 41  1  0  0  0  0
 43 44  1  6  0  0  0
 43 46  1  0  0  0  0
 43 47  1  0  0  0  0
 46 40  1  1  0  0  0
 47 49  1  6  0  0  0
 47 51  1  0  0  0  0
 49 48  1  0  0  0  0
 50 51  1  0  0  0  0
M  END
>  <MODEL>
6

>  <REMARK>
 VINA RESULT:      -5.5      4.075     10.194
  Name = 
  22 active torsions:
  status: ('A' for Active; 'I' for Inactive)
    1  A    between atoms: C_2  and  C_14
    2  A    between atoms: C_2  and  N_21
    3  A    between atoms: C_2  and  C_40
    4  A    between atoms: C_3  and  C_28
    5  A    between atoms: C_5  and  N_23
    6  A    between atoms: O_7  and  C_8
    7  A    between atoms: O_7  and  C_19
    8  A    between atoms: O_11  and  C_37
    9  A    between atoms: C_12  and  C_24
   10  A    between atoms: C_12  and  S_36
   11  A    between atoms: C_15  and  C_42
   12  A    between atoms: C_18  and  N_23
   13  A    between atoms: C_18  and  N_31
   14  A    between atoms: C_19  and  C_24
   15  A    between atoms: N_20  and  N_31
   16  A    between atoms: N_20  and  C_38
   17  A    between atoms: N_23  and  C_27
   18  A    between atoms: C_27  and  C_37
   19  A    between atoms: C_29  and  C_42
   20  A    between atoms: N_35  and  C_42
   21  A    between atoms: S_36  and  N_44
   22  A    between atoms: N_44  and  C_51
                            x       y       z     vdW  Elec       q    Type
                         _______ _______ _______ _____ _____    ______ ____

>  <TORSDO>
F 22

$$$$
=
 OpenBabel10222417133D

 51 54  0  0  1  0  0  0  0  0999 V2000
  182.0830  177.8750  137.6840 C   0  0  1  0  0  3  0  0  0  0  0  0
  180.8780  181.5600  136.1920 O   0  0  0  0  0  0  0  0  0  0  0  0
  180.4640  179.2520  136.3270 C   0  0  0  0  0  2  0  0  0  0  0  0
  184.5590  178.4250  138.9930 Cl  0  0  0  0  0  0  0  0  0  0  0  0
  181.2020  180.7110  138.3630 C   0  0  2  0  0  3  0  0  0  0  0  0
  180.8370  180.5770  136.9130 C   0  0  0  0  0  0  0  0  0  0  0  0
  182.9600  178.8750  138.4160 C   0  0  0  0  0  0  0  0  0  0  0  0
  181.6660  178.3210  136.2740 C   0  0  0  0  0  2  0  0  0  0  0  0
  182.5460  180.1200  138.7030 C   0  0  0  0  0  3  0  0  0  0  0  0
  180.1120  180.2630  139.2880 C   0  0  0  0  0  0  0  0  0  0  0  0
  180.3950  179.3580  140.3580 N   0  0  0  0  0  2  0  0  0  0  0  0
  178.9420  180.6930  139.1130 O   0  0  0  0  0  0  0  0  0  0  0  0
  179.3630  178.8370  141.2420 C   0  0  2  0  0  3  0  0  0  0  0  0
  179.5550  179.4040  142.6470 C   0  0  1  0  0  3  0  0  0  0  0  0
  179.5320  178.3310  143.6310 N   0  0  0  0  0  2  0  0  0  0  0  0
  180.9120  180.0150  142.7780 C   0  0  0  0  0  2  0  0  0  0  0  0
  181.6520  178.9780  143.5790 C   0  0  1  0  0  3  0  0  0  0  0  0
  180.8080  177.8700  143.7770 O   0  0  0  0  0  0  0  0  0  0  0  0
  182.8880  178.5760  142.9030 N   0  0  0  0  0  2  0  0  0  0  0  0
  183.9750  179.2300  143.5120 N   0  0  0  0  0  0  0  0  0  0  0  0
  183.4770  180.2890  144.1940 O   0  0  0  0  0  1  0  0  0  0  0  0
  184.5870  178.3090  144.4730 C   0  0  0  0  0  2  0  0  0  0  0  0
  186.0460  178.3550  144.4100 N   0  0  0  0  0  0  0  0  0  0  0  0
  186.5390  177.5330  145.5060 C   0  0  0  0  0  3  0  0  0  0  0  0
  187.1580  178.4190  146.5730 C   0  0  0  0  0  2  0  0  0  0  0  0
  185.7700  177.8560  146.7750 C   0  0  0  0  0  2  0  0  0  0  0  0
  186.4230  177.6780  143.1760 C   0  0  0  0  0  2  0  0  0  0  0  0
  187.7230  176.9170  143.3680 C   0  0  0  0  0  2  0  0  0  0  0  0
  188.0880  178.0250  141.5700 O   0  0  0  0  0  1  0  0  0  0  0  0
  188.4580  176.9220  142.1830 O   0  0  0  0  0  0  0  0  0  0  0  0
  179.4490  177.3160  141.2800 C   0  0  0  0  0  2  0  0  0  0  0  0
  180.5780  176.8200  140.3950 C   0  0  0  0  0  1  0  0  0  0  0  0
  182.5480  176.5410  137.7580 O   0  0  0  0  0  0  0  0  0  0  0  0
  182.5030  175.9580  136.4780 C   0  0  0  0  0  2  0  0  0  0  0  0
  183.9070  175.6400  135.9970 C   0  0  0  0  0  2  0  0  0  0  0  0
  184.6250  174.7620  137.0040 C   0  0  0  0  0  2  0  0  0  0  0  0
  186.1110  172.5630  136.6480 O   0  0  0  0  0  0  0  0  0  0  0  0
  186.0500  174.0110  136.2460 S   0  0  0  0  0  0  0  0  0  0  0  0
  185.9400  174.1130  134.7510 O   0  0  0  0  0  0  0  0  0  0  0  0
  187.4760  174.8370  136.7760 N   0  0  0  0  0  2  0  0  0  0  0  0
  187.9040  177.2850  136.7590 C   0  0  0  0  0  0  0  0  0  0  0  0
  187.3610  178.5490  136.1190 C   0  0  0  0  0  1  0  0  0  0  0  0
  189.0590  176.5910  136.0510 C   0  0  2  0  0  0  0  0  0  0  0  0
  189.5000  177.2000  134.8730 O   0  0  0  0  0  1  0  0  0  0  0  0
  187.8180  177.1690  138.2780 C   0  0  0  0  0  1  0  0  0  0  0  0
  187.6420  176.0160  135.9340 C   0  0  1  0  0  3  0  0  0  0  0  0
  190.0990  175.8370  136.8860 C   0  0  2  0  0  3  0  0  0  0  0  0
  191.4730  176.1720  138.8070 O   0  0  0  0  0  1  0  0  0  0  0  0
  190.9390  176.8130  137.6910 C   0  0  0  0  0  2  0  0  0  0  0  0
  192.1550  175.6700  135.9790 O   0  0  0  0  0  1  0  0  0  0  0  0
  190.9550  175.0450  136.0170 N   0  0  0  0  0  2  0  0  0  0  0  0
  1 33  1  6  0  0  0
  1  7  1  0  0  0  0
  2  6  2  0  0  0  0
  3  6  1  0  0  0  0
  5  9  1  0  0  0  0
  5 10  1  1  0  0  0
  6  5  1  0  0  0  0
  7  9  2  0  0  0  0
  7  4  1  0  0  0  0
  8  3  1  0  0  0  0
  8  1  1  0  0  0  0
 10 11  1  0  0  0  0
 11 13  1  0  0  0  0
 12 10  2  0  0  0  0
 13 31  1  1  0  0  0
 14 13  1  6  0  0  0
 14 16  1  0  0  0  0
 14 15  1  0  0  0  0
 15 18  1  0  0  0  0
 16 17  1  0  0  0  0
 17 19  1  6  0  0  0
 17 18  1  0  0  0  0
 19 20  1  0  0  0  0
 20 21  1  0  0  0  0
 20 22  1  0  0  0  0
 23 22  1  0  0  0  0
 23 24  1  0  0  0  0
 24 25  1  0  0  0  0
 24 26  1  0  0  0  0
 25 26  1  0  0  0  0
 27 28  1  0  0  0  0
 27 23  1  0  0  0  0
 29 30  1  0  0  0  0
 30 28  1  0  0  0  0
 32 31  1  0  0  0  0
 34 33  1  0  0  0  0
 35 34  1  0  0  0  0
 35 36  1  0  0  0  0
 38 37  2  0  0  0  0
 38 40  1  0  0  0  0
 38 36  1  0  0  0  0
 39 38  2  0  0  0  0
 41 45  1  0  0  0  0
 42 41  1  0  0  0  0
 43 44  1  6  0  0  0
 43 41  1  0  0  0  0
 43 47  1  0  0  0  0
 46 43  1  0  0  0  0
 46 41  1  0  0  0  0
 46 40  1  1  0  0  0
 47 49  1  6  0  0  0
 49 48  1  0  0  0  0
 50 51  1  0  0  0  0
 51 47  1  0  0  0  0
M  END
>  <MODEL>
7

>  <REMARK>
 VINA RESULT:      -5.5      2.463      3.555
  Name = 
  22 active torsions:
  status: ('A' for Active; 'I' for Inactive)
    1  A    between atoms: C_2  and  C_14
    2  A    between atoms: C_2  and  N_21
    3  A    between atoms: C_2  and  C_40
    4  A    between atoms: C_3  and  C_28
    5  A    between atoms: C_5  and  N_23
    6  A    between atoms: O_7  and  C_8
    7  A    between atoms: O_7  and  C_19
    8  A    between atoms: O_11  and  C_37
    9  A    between atoms: C_12  and  C_24
   10  A    between atoms: C_12  and  S_36
   11  A    between atoms: C_15  and  C_42
   12  A    between atoms: C_18  and  N_23
   13  A    between atoms: C_18  and  N_31
   14  A    between atoms: C_19  and  C_24
   15  A    between atoms: N_20  and  N_31
   16  A    between atoms: N_20  and  C_38
   17  A    between atoms: N_23  and  C_27
   18  A    between atoms: C_27  and  C_37
   19  A    between atoms: C_29  and  C_42
   20  A    between atoms: N_35  and  C_42
   21  A    between atoms: S_36  and  N_44
   22  A    between atoms: N_44  and  C_51
                            x       y       z     vdW  Elec       q    Type
                         _______ _______ _______ _____ _____    ______ ____

>  <TORSDO>
F 22

$$$$
=
 OpenBabel10222417133D

 51 54  0  0  1  0  0  0  0  0999 V2000
  191.0220  177.5460  143.1790 C   0  0  1  0  0  3  0  0  0  0  0  0
  189.8370  178.6200  147.0130 O   0  0  0  0  0  0  0  0  0  0  0  0
  190.1170  179.2750  144.7750 C   0  0  0  0  0  2  0  0  0  0  0  0
  192.0540  174.9010  143.4800 Cl  0  0  0  0  0  0  0  0  0  0  0  0
  189.1280  176.9680  145.4930 C   0  0  2  0  0  3  0  0  0  0  0  0
  189.6910  178.3160  145.8410 C   0  0  0  0  0  0  0  0  0  0  0  0
  191.0020  176.2320  143.9420 C   0  0  0  0  0  0  0  0  0  0  0  0
  191.3530  178.7700  144.0470 C   0  0  0  0  0  2  0  0  0  0  0  0
  190.1550  176.0050  144.9590 C   0  0  0  0  0  3  0  0  0  0  0  0
  187.8970  177.0470  144.6430 C   0  0  0  0  0  0  0  0  0  0  0  0
  186.8730  178.0000  144.9380 N   0  0  0  0  0  2  0  0  0  0  0  0
  187.7750  176.2650  143.6640 O   0  0  0  0  0  0  0  0  0  0  0  0
  185.6270  178.0730  144.1880 C   0  0  2  0  0  3  0  0  0  0  0  0
  185.7100  179.2030  143.1630 C   0  0  1  0  0  3  0  0  0  0  0  0
  186.5870  178.8250  142.0650 N   0  0  0  0  0  2  0  0  0  0  0  0
  184.3760  179.4270  142.5300 C   0  0  0  0  0  2  0  0  0  0  0  0
  184.5550  178.7900  141.1780 C   0  0  1  0  0  3  0  0  0  0  0  0
  185.8280  178.1930  141.1230 O   0  0  0  0  0  0  0  0  0  0  0  0
  183.5050  177.8020  140.9200 N   0  0  0  0  0  2  0  0  0  0  0  0
  182.7470  178.2200  139.8100 N   0  0  0  0  0  0  0  0  0  0  0  0
  181.9600  177.1790  139.4460 O   0  0  0  0  0  1  0  0  0  0  0  0
  181.8830  179.3250  140.2340 C   0  0  0  0  0  2  0  0  0  0  0  0
  180.4680  178.9710  140.1340 N   0  0  0  0  0  0  0  0  0  0  0  0
  179.8330  179.4390  141.3580 C   0  0  0  0  0  3  0  0  0  0  0  0
  179.6510  178.2760  142.3180 C   0  0  0  0  0  2  0  0  0  0  0  0
  180.7800  179.2570  142.5300 C   0  0  0  0  0  2  0  0  0  0  0  0
  179.9220  179.7700  139.0460 C   0  0  0  0  0  2  0  0  0  0  0  0
  180.1630  181.2470  139.3050 C   0  0  0  0  0  2  0  0  0  0  0  0
  180.7580  181.1280  137.2500 O   0  0  0  0  0  1  0  0  0  0  0  0
  180.1780  181.9470  138.0980 O   0  0  0  0  0  0  0  0  0  0  0  0
  184.4720  178.3280  145.1490 C   0  0  0  0  0  2  0  0  0  0  0  0
  184.9460  178.2560  146.5890 C   0  0  0  0  0  1  0  0  0  0  0  0
  191.7330  177.4890  141.9570 O   0  0  0  0  0  0  0  0  0  0  0  0
  190.8260  177.3190  140.8950 C   0  0  0  0  0  2  0  0  0  0  0  0
  191.3920  176.3500  139.8730 C   0  0  0  0  0  2  0  0  0  0  0  0
  191.0660  176.8150  138.4660 C   0  0  0  0  0  2  0  0  0  0  0  0
  190.8240  174.3130  137.5470 O   0  0  0  0  0  0  0  0  0  0  0  0
  191.5810  175.5850  137.2870 S   0  0  0  0  0  0  0  0  0  0  0  0
  191.2910  176.0670  135.8940 O   0  0  0  0  0  0  0  0  0  0  0  0
  193.2820  175.3120  137.4580 N   0  0  0  0  0  2  0  0  0  0  0  0
  194.3610  173.2640  136.5520 C   0  0  0  0  0  0  0  0  0  0  0  0
  194.0190  171.8190  136.2410 C   0  0  0  0  0  1  0  0  0  0  0  0
  194.9570  173.5550  137.9230 C   0  0  2  0  0  0  0  0  0  0  0  0
  195.1270  172.4460  138.7560 O   0  0  0  0  0  1  0  0  0  0  0  0
  194.7660  174.1620  135.3880 C   0  0  0  0  0  1  0  0  0  0  0  0
  193.4840  173.8800  137.6520 C   0  0  1  0  0  3  0  0  0  0  0  0
  195.9570  174.7060  138.0720 C   0  0  2  0  0  3  0  0  0  0  0  0
  197.6810  175.6970  136.7540 O   0  0  0  0  0  1  0  0  0  0  0  0
  197.1660  174.4750  137.1820 C   0  0  0  0  0  2  0  0  0  0  0  0
  195.4920  175.6530  140.0630 O   0  0  0  0  0  1  0  0  0  0  0  0
  196.3760  174.8250  139.4580 N   0  0  0  0  0  2  0  0  0  0  0  0
  1 33  1  6  0  0  0
  1  7  1  0  0  0  0
  1  8  1  0  0  0  0
  3  6  1  0  0  0  0
  4  7  1  0  0  0  0
  5 10  1  6  0  0  0
  5  6  1  0  0  0  0
  6  2  2  0  0  0  0
  7  9  2  0  0  0  0
  8  3  1  0  0  0  0
  9  5  1  0  0  0  0
 10 11  1  0  0  0  0
 12 10  2  0  0  0  0
 13 11  1  0  0  0  0
 13 31  1  1  0  0  0
 14 13  1  1  0  0  0
 15 14  1  0  0  0  0
 16 14  1  0  0  0  0
 17 19  1  1  0  0  0
 17 16  1  0  0  0  0
 18 17  1  0  0  0  0
 18 15  1  0  0  0  0
 20 22  1  0  0  0  0
 20 19  1  0  0  0  0
 21 20  1  0  0  0  0
 23 22  1  0  0  0  0
 23 24  1  0  0  0  0
 24 25  1  0  0  0  0
 24 26  1  0  0  0  0
 25 26  1  0  0  0  0
 27 28  1  0  0  0  0
 27 23  1  0  0  0  0
 29 30  1  0  0  0  0
 30 28  1  0  0  0  0
 31 32  1  0  0  0  0
 34 33  1  0  0  0  0
 35 34  1  0  0  0  0
 36 35  1  0  0  0  0
 38 40  1  0  0  0  0
 38 37  2  0  0  0  0
 38 36  1  0  0  0  0
 39 38  2  0  0  0  0
 41 46  1  0  0  0  0
 41 43  1  0  0  0  0
 42 41  1  0  0  0  0
 43 47  1  0  0  0  0
 43 44  1  1  0  0  0
 45 41  1  0  0  0  0
 46 40  1  6  0  0  0
 46 43  1  0  0  0  0
 47 49  1  6  0  0  0
 47 51  1  0  0  0  0
 48 49  1  0  0  0  0
 51 50  1  0  0  0  0
M  END
>  <MODEL>
8

>  <REMARK>
 VINA RESULT:      -5.5      3.802      8.324
  Name = 
  22 active torsions:
  status: ('A' for Active; 'I' for Inactive)
    1  A    between atoms: C_2  and  C_14
    2  A    between atoms: C_2  and  N_21
    3  A    between atoms: C_2  and  C_40
    4  A    between atoms: C_3  and  C_28
    5  A    between atoms: C_5  and  N_23
    6  A    between atoms: O_7  and  C_8
    7  A    between atoms: O_7  and  C_19
    8  A    between atoms: O_11  and  C_37
    9  A    between atoms: C_12  and  C_24
   10  A    between atoms: C_12  and  S_36
   11  A    between atoms: C_15  and  C_42
   12  A    between atoms: C_18  and  N_23
   13  A    between atoms: C_18  and  N_31
   14  A    between atoms: C_19  and  C_24
   15  A    between atoms: N_20  and  N_31
   16  A    between atoms: N_20  and  C_38
   17  A    between atoms: N_23  and  C_27
   18  A    between atoms: C_27  and  C_37
   19  A    between atoms: C_29  and  C_42
   20  A    between atoms: N_35  and  C_42
   21  A    between atoms: S_36  and  N_44
   22  A    between atoms: N_44  and  C_51
                            x       y       z     vdW  Elec       q    Type
                         _______ _______ _______ _____ _____    ______ ____

>  <TORSDO>
F 22

$$$$
=
 OpenBabel10222417133D

 51 54  0  0  1  0  0  0  0  0999 V2000
  190.5790  176.6670  142.4610 C   0  0  1  0  0  3  0  0  0  0  0  0
  190.6280  179.3850  145.6030 O   0  0  0  0  0  0  0  0  0  0  0  0
  190.2370  179.0140  143.3170 C   0  0  0  0  0  2  0  0  0  0  0  0
  191.5940  174.2560  143.6030 Cl  0  0  0  0  0  0  0  0  0  0  0  0
  189.4570  177.3830  145.2000 C   0  0  2  0  0  3  0  0  0  0  0  0
  190.1300  178.6520  144.7640 C   0  0  0  0  0  0  0  0  0  0  0  0
  190.7600  175.8020  143.6950 C   0  0  0  0  0  0  0  0  0  0  0  0
  191.1850  178.0750  142.5870 C   0  0  0  0  0  2  0  0  0  0  0  0
  190.2540  176.1420  144.8920 C   0  0  0  0  0  3  0  0  0  0  0  0
  188.0290  177.2910  144.7560 C   0  0  0  0  0  0  0  0  0  0  0  0
  187.0650  178.2390  145.2180 N   0  0  0  0  0  2  0  0  0  0  0  0
  187.6890  176.3690  143.9690 O   0  0  0  0  0  0  0  0  0  0  0  0
  185.6530  178.1560  144.8730 C   0  0  2  0  0  3  0  0  0  0  0  0
  185.3700  179.0290  143.6520 C   0  0  1  0  0  3  0  0  0  0  0  0
  185.1770  178.1980  142.4720 N   0  0  0  0  0  2  0  0  0  0  0  0
  184.0770  179.7580  143.8240 C   0  0  0  0  0  2  0  0  0  0  0  0
  183.1520  178.9810  142.9260 C   0  0  1  0  0  3  0  0  0  0  0  0
  183.8520  177.8800  142.3970 O   0  0  0  0  0  0  0  0  0  0  0  0
  181.9620  178.5390  143.6550 N   0  0  0  0  0  2  0  0  0  0  0  0
  180.8160  179.0150  142.9910 N   0  0  0  0  0  0  0  0  0  0  0  0
  180.6110  180.2880  143.4050 O   0  0  0  0  0  1  0  0  0  0  0  0
  181.0930  179.0380  141.5530 C   0  0  0  0  0  2  0  0  0  0  0  0
  179.9190  179.4430  140.7830 N   0  0  0  0  0  0  0  0  0  0  0  0
  180.3350  179.5120  139.3900 C   0  0  0  0  0  3  0  0  0  0  0  0
  180.1620  180.9310  138.8740 C   0  0  0  0  0  2  0  0  0  0  0  0
  181.5360  180.4310  139.2580 C   0  0  0  0  0  2  0  0  0  0  0  0
  178.9670  178.3450  140.8830 C   0  0  0  0  0  2  0  0  0  0  0  0
  179.1250  177.4010  139.7030 C   0  0  0  0  0  2  0  0  0  0  0  0
  179.2360  175.8690  141.1970 O   0  0  0  0  0  1  0  0  0  0  0  0
  179.8320  176.2640  140.0940 O   0  0  0  0  0  0  0  0  0  0  0  0
  184.8150  178.6300  146.0550 C   0  0  0  0  0  2  0  0  0  0  0  0
  185.6430  178.6510  147.3260 C   0  0  0  0  0  1  0  0  0  0  0  0
  190.8890  176.0080  141.2470 O   0  0  0  0  0  0  0  0  0  0  0  0
  191.1000  176.9640  140.2360 C   0  0  0  0  0  2  0  0  0  0  0  0
  191.3020  176.2770  138.8990 C   0  0  0  0  0  2  0  0  0  0  0  0
  192.6660  176.6180  138.3300 C   0  0  0  0  0  2  0  0  0  0  0  0
  192.6400  174.0820  137.4740 O   0  0  0  0  0  0  0  0  0  0  0  0
  193.1010  175.4510  137.0580 S   0  0  0  0  0  0  0  0  0  0  0  0
  192.4330  175.8350  135.7680 O   0  0  0  0  0  0  0  0  0  0  0  0
  194.8180  175.4610  136.8410 N   0  0  0  0  0  2  0  0  0  0  0  0
  196.6940  173.9680  136.1850 C   0  0  0  0  0  0  0  0  0  0  0  0
  196.9430  172.7200  135.3580 C   0  0  0  0  0  1  0  0  0  0  0  0
  196.4210  173.7720  137.6700 C   0  0  2  0  0  0  0  0  0  0  0  0
  196.4290  172.4480  138.1170 O   0  0  0  0  0  1  0  0  0  0  0  0
  197.3810  175.2560  135.7440 C   0  0  0  0  0  1  0  0  0  0  0  0
  195.2580  174.0760  136.7190 C   0  0  1  0  0  3  0  0  0  0  0  0
  196.8720  174.8510  138.6590 C   0  0  2  0  0  3  0  0  0  0  0  0
  198.7960  175.9920  139.4900 O   0  0  0  0  0  1  0  0  0  0  0  0
  198.3880  174.8820  138.7530 C   0  0  0  0  0  2  0  0  0  0  0  0
  195.6320  175.7180  140.3290 O   0  0  0  0  0  1  0  0  0  0  0  0
  196.2990  174.5960  139.9700 N   0  0  0  0  0  2  0  0  0  0  0  0
  1 33  1  6  0  0  0
  1  8  1  0  0  0  0
  1  7  1  0  0  0  0
  3  6  1  0  0  0  0
  4  7  1  0  0  0  0
  5 10  1  6  0  0  0
  6  5  1  0  0  0  0
  6  2  2  0  0  0  0
  7  9  2  0  0  0  0
  8  3  1  0  0  0  0
  9  5  1  0  0  0  0
 10 11  1  0  0  0  0
 12 10  2  0  0  0  0
 13 11  1  0  0  0  0
 13 31  1  1  0  0  0
 14 16  1  0  0  0  0
 14 13  1  1  0  0  0
 15 14  1  0  0  0  0
 17 19  1  1  0  0  0
 17 16  1  0  0  0  0
 18 15  1  0  0  0  0
 18 17  1  0  0  0  0
 20 21  1  0  0  0  0
 20 19  1  0  0  0  0
 22 20  1  0  0  0  0
 23 27  1  0  0  0  0
 23 22  1  0  0  0  0
 24 23  1  0  0  0  0
 25 26  1  0  0  0  0
 25 24  1  0  0  0  0
 26 24  1  0  0  0  0
 28 30  1  0  0  0  0
 28 27  1  0  0  0  0
 30 29  1  0  0  0  0
 31 32  1  0  0  0  0
 34 33  1  0  0  0  0
 35 34  1  0  0  0  0
 36 35  1  0  0  0  0
 38 37  2  0  0  0  0
 38 36  1  0  0  0  0
 39 38  2  0  0  0  0
 40 38  1  0  0  0  0
 41 46  1  0  0  0  0
 41 43  1  0  0  0  0
 42 41  1  0  0  0  0
 43 44  1  1  0  0  0
 43 47  1  0  0  0  0
 45 41  1  0  0  0  0
 46 40  1  1  0  0  0
 46 43  1  0  0  0  0
 47 49  1  1  0  0  0
 47 51  1  0  0  0  0
 49 48  1  0  0  0  0
 51 50  1  0  0  0  0
M  END
>  <MODEL>
9

>  <REMARK>
 VINA RESULT:      -5.5      4.279      8.515
  Name = 
  22 active torsions:
  status: ('A' for Active; 'I' for Inactive)
    1  A    between atoms: C_2  and  C_14
    2  A    between atoms: C_2  and  N_21
    3  A    between atoms: C_2  and  C_40
    4  A    between atoms: C_3  and  C_28
    5  A    between atoms: C_5  and  N_23
    6  A    between atoms: O_7  and  C_8
    7  A    between atoms: O_7  and  C_19
    8  A    between atoms: O_11  and  C_37
    9  A    between atoms: C_12  and  C_24
   10  A    between atoms: C_12  and  S_36
   11  A    between atoms: C_15  and  C_42
   12  A    between atoms: C_18  and  N_23
   13  A    between atoms: C_18  and  N_31
   14  A    between atoms: C_19  and  C_24
   15  A    between atoms: N_20  and  N_31
   16  A    between atoms: N_20  and  C_38
   17  A    between atoms: N_23  and  C_27
   18  A    between atoms: C_27  and  C_37
   19  A    between atoms: C_29  and  C_42
   20  A    between atoms: N_35  and  C_42
   21  A    between atoms: S_36  and  N_44
   22  A    between atoms: N_44  and  C_51
                            x       y       z     vdW  Elec       q    Type
                         _______ _______ _______ _____ _____    ______ ____

>  <TORSDO>
F 22

$$$$
