=
 OpenBabel10222415263D

 47 55  0  0  1  0  0  0  0  0999 V2000
  183.5680  177.0950  138.6520 C   0  0  0  0  0  2  0  0  0  0  0  0
  179.4390  181.8230  139.0510 C   0  0  0  0  0  0  0  0  0  0  0  0
  181.7370  178.6820  136.9040 N   0  0  0  0  0  2  0  0  0  0  0  0
  182.2190  177.7510  135.9750 N   0  0  0  0  0  2  0  0  0  0  0  0
  181.2750  180.1690  139.7320 C   0  0  1  0  0  3  0  0  0  0  0  0
  185.4560  173.5310  136.6780 C   0  0  1  0  0  3  0  0  0  0  0  0
  179.8490  181.3900  135.4780 C   0  0  0  0  0  3  0  0  0  0  0  0
  180.6620  180.2630  135.2960 C   0  0  0  0  0  3  0  0  0  0  0  0
  178.9310  182.1440  140.1550 O   0  0  0  0  0  0  0  0  0  0  0  0
  180.9760  174.3710  135.9260 N   0  0  0  0  0  0  0  0  0  0  0  0
  183.3250  176.1040  137.4950 C   0  0  1  0  0  3  0  0  0  0  0  0
  181.1830  179.9500  136.5460 C   0  0  0  0  0  0  0  0  0  0  0  0
  186.0700  172.7980  137.7740 N   0  0  0  0  0  1  0  0  0  0  0  0
  183.6590  172.9370  135.9030 C   0  0  0  0  0  0  0  0  0  0  0  0
  185.0940  172.6240  135.6290 C   0  0  0  0  0  2  0  0  0  0  0  0
  184.0790  173.8340  137.0010 N   0  0  0  0  0  0  0  0  0  0  0  0
  182.4490  179.4960  139.3330 N   0  0  0  0  0  2  0  0  0  0  0  0
  180.7770  180.8640  137.4450 N   0  0  0  0  0  0  0  0  0  0  0  0
  180.5450  180.8740  138.8460 C   0  0  2  0  0  3  0  0  0  0  0  0
  179.0260  182.4280  137.7320 C   0  0  0  0  0  2  0  0  0  0  0  0
  182.4950  172.5440  135.3920 C   0  0  0  0  0  3  0  0  0  0  0  0
  180.1700  172.1860  136.2010 N   0  0  0  0  0  1  0  0  0  0  0  0
  183.4020  174.6620  137.9850 C   0  0  0  0  0  2  0  0  0  0  0  0
  181.9150  175.4010  135.4950 C   0  0  0  0  0  2  0  0  0  0  0  0
  182.6140  177.1360  139.7880 N   0  0  1  0  0  0  0  0  0  0  0  0
  181.0000  179.8170  141.1240 C   0  0  0  0  0  0  0  0  0  0  0  0
  180.0170  180.4550  142.0450 C   0  0  0  0  0  1  0  0  0  0  0  0
  181.8530  178.8490  141.4800 C   0  0  0  0  0  0  0  0  0  0  0  0
  182.1010  176.4320  136.5950 C   0  0  2  0  0  3  0  0  0  0  0  0
  182.7790  178.5030  140.3390 C   0  0  2  0  0  3  0  0  0  0  0  0
  179.9610  181.6970  136.8210 C   0  0  0  0  0  0  0  0  0  0  0  0
  181.2080  173.0930  135.8560 C   0  0  0  0  0  0  0  0  0  0  0  0
  179.3890  175.4290  140.0870 C   0  0  0  0  0  2  0  0  0  0  0  0
  180.8230  175.4600  139.5970 C   0  0  1  0  0  3  0  0  0  0  0  0
  181.2240  176.9090  139.3570 C   0  0  1  0  0  3  0  0  0  0  0  0
  180.3390  176.5220  140.5340 C   0  0  1  0  0  3  0  0  0  0  0  0
  182.0590  178.3580  142.8810 C   0  0  0  0  0  2  0  0  0  0  0  0
  183.2700  179.0100  143.5350 C   0  0  0  0  0  2  0  0  0  0  0  0
  184.5400  178.2670  143.1530 C   0  0  0  0  0  2  0  0  0  0  0  0
  187.8490  177.8260  146.2620 C   0  0  0  0  0  3  0  0  0  0  0  0
  185.2300  179.1640  145.4250 C   0  0  0  0  0  3  0  0  0  0  0  0
  185.5460  178.3190  144.2570 C   0  0  0  0  0  0  0  0  0  0  0  0
  185.7050  178.9770  146.6560 C   0  0  0  0  0  3  0  0  0  0  0  0
  187.9180  177.7630  144.9320 C   0  0  0  0  0  0  0  0  0  0  0  0
  186.7380  177.7460  144.0400 C   0  0  0  0  0  3  0  0  0  0  0  0
  186.5670  177.8180  147.0220 C   0  0  0  0  0  2  0  0  0  0  0  0
  189.1420  177.6700  144.3630 F   0  0  0  0  0  0  0  0  0  0  0  0
  2  9  2  0  0  0  0
  4 29  1  0  0  0  0
  4  3  1  0  0  0  0
  5 17  1  6  0  0  0
  5 26  1  0  0  0  0
  6 16  1  0  0  0  0
  6 13  1  1  0  0  0
  7 31  2  0  0  0  0
  8  7  1  0  0  0  0
  8 12  2  0  0  0  0
 11 23  1  1  0  0  0
 11  1  1  0  0  0  0
 12  3  1  0  0  0  0
 12 18  1  0  0  0  0
 14 16  1  0  0  0  0
 15 14  1  0  0  0  0
 15  6  1  0  0  0  0
 16 23  1  0  0  0  0
 18 19  1  0  0  0  0
 19  2  1  1  0  0  0
 19  5  1  0  0  0  0
 20  2  1  0  0  0  0
 21 32  1  0  0  0  0
 21 14  2  0  0  0  0
 24 10  1  0  0  0  0
 25  1  1  6  0  0  0
 25 30  1  0  0  0  0
 26 28  2  0  0  0  0
 26 27  1  0  0  0  0
 28 37  1  0  0  0  0
 29 24  1  6  0  0  0
 29 11  1  0  0  0  0
 30 17  1  6  0  0  0
 30 28  1  0  0  0  0
 31 18  1  0  0  0  0
 31 20  1  0  0  0  0
 32 10  2  0  0  0  0
 32 22  1  0  0  0  0
 34 33  1  6  0  0  0
 34 36  1  0  0  0  0
 35 34  1  0  0  0  0
 35 25  1  1  0  0  0
 35 36  1  0  0  0  0
 36 33  1  6  0  0  0
 37 38  1  0  0  0  0
 39 38  1  0  0  0  0
 39 42  1  0  0  0  0
 40 46  1  0  0  0  0
 41 43  2  0  0  0  0
 42 41  1  0  0  0  0
 43 46  1  0  0  0  0
 44 40  2  0  0  0  0
 45 42  2  0  0  0  0
 45 44  1  0  0  0  0
 47 44  1  0  0  0  0
M  END
>  <MODEL>
1

>  <REMARK>
 VINA RESULT:      -9.1      0.000      0.000
  Name = 
  5 active torsions:
  status: ('A' for Active; 'I' for Inactive)
    1  A    between atoms: C_5  and  C_30
    2  A    between atoms: C_19  and  C_31
    3  A    between atoms: C_19  and  C_42
    4  A    between atoms: C_30  and  C_31
    5  A    between atoms: C_37  and  N_38
                            x       y       z     vdW  Elec       q    Type
                         _______ _______ _______ _____ _____    ______ ____

>  <TORSDO>
F 5

$$$$
=
 OpenBabel10222415263D

 47 55  0  0  1  0  0  0  0  0999 V2000
  184.7480  177.3290  137.7780 C   0  0  0  0  0  2  0  0  0  0  0  0
  179.6770  180.9940  138.4250 C   0  0  0  0  0  0  0  0  0  0  0  0
  182.4980  178.4250  136.1450 N   0  0  0  0  0  2  0  0  0  0  0  0
  183.1230  177.6120  135.1900 N   0  0  0  0  0  2  0  0  0  0  0  0
  181.8810  179.8160  138.9930 C   0  0  1  0  0  3  0  0  0  0  0  0
  187.2780  174.2570  135.6990 C   0  0  1  0  0  3  0  0  0  0  0  0
  179.9550  180.6030  134.8350 C   0  0  0  0  0  3  0  0  0  0  0  0
  180.9920  179.6890  134.6050 C   0  0  0  0  0  3  0  0  0  0  0  0
  179.1770  181.2100  139.5580 O   0  0  0  0  0  0  0  0  0  0  0  0
  182.6870  174.0370  135.2320 N   0  0  0  0  0  0  0  0  0  0  0  0
  184.6680  176.2880  136.6420 C   0  0  1  0  0  3  0  0  0  0  0  0
  181.6470  179.5250  135.8200 C   0  0  0  0  0  0  0  0  0  0  0  0
  188.1090  173.7030  136.7560 N   0  0  0  0  0  1  0  0  0  0  0  0
  185.6200  173.2540  135.0430 C   0  0  0  0  0  0  0  0  0  0  0  0
  187.0690  173.2720  134.6780 C   0  0  0  0  0  2  0  0  0  0  0  0
  185.8900  174.2420  136.1080 N   0  0  0  0  0  0  0  0  0  0  0  0
  183.1520  179.4220  138.5210 N   0  0  0  0  0  2  0  0  0  0  0  0
  181.0980  180.3380  136.7400 N   0  0  0  0  0  0  0  0  0  0  0  0
  180.9560  180.3190  138.1530 C   0  0  2  0  0  3  0  0  0  0  0  0
  179.0560  181.4650  137.1330 C   0  0  0  0  0  2  0  0  0  0  0  0
  184.5490  172.5960  134.6070 C   0  0  0  0  0  3  0  0  0  0  0  0
  182.4220  171.7310  135.5650 N   0  0  0  0  0  1  0  0  0  0  0  0
  185.1040  174.9120  137.1310 C   0  0  0  0  0  2  0  0  0  0  0  0
  183.3370  175.2470  134.7390 C   0  0  0  0  0  2  0  0  0  0  0  0
  183.8820  177.1710  138.9730 N   0  0  1  0  0  0  0  0  0  0  0  0
  181.7810  179.4350  140.4000 C   0  0  0  0  0  0  0  0  0  0  0  0
  180.7360  179.8480  141.3800 C   0  0  0  0  0  1  0  0  0  0  0  0
  182.8530  178.6940  140.7050 C   0  0  0  0  0  0  0  0  0  0  0  0
  183.3490  176.3120  135.8210 C   0  0  2  0  0  3  0  0  0  0  0  0
  183.7620  178.5490  139.5070 C   0  0  2  0  0  3  0  0  0  0  0  0
  180.0760  180.9520  136.1670 C   0  0  0  0  0  0  0  0  0  0  0  0
  183.2000  172.8450  135.1510 C   0  0  0  0  0  0  0  0  0  0  0  0
  181.0980  174.8690  139.5700 C   0  0  0  0  0  2  0  0  0  0  0  0
  182.4770  175.1510  139.0070 C   0  0  1  0  0  3  0  0  0  0  0  0
  182.5560  176.6250  138.6320 C   0  0  1  0  0  3  0  0  0  0  0  0
  181.8110  176.1700  139.8800 C   0  0  1  0  0  3  0  0  0  0  0  0
  183.2520  178.2880  142.0910 C   0  0  0  0  0  2  0  0  0  0  0  0
  184.5730  178.9220  142.5070 C   0  0  0  0  0  2  0  0  0  0  0  0
  185.6520  177.8580  142.6290 C   0  0  0  0  0  2  0  0  0  0  0  0
  186.9080  178.2480  146.9980 C   0  0  0  0  0  3  0  0  0  0  0  0
  187.4620  177.0760  144.2290 C   0  0  0  0  0  3  0  0  0  0  0  0
  186.1950  177.8020  144.0210 C   0  0  0  0  0  0  0  0  0  0  0  0
  188.3280  177.3130  145.2130 C   0  0  0  0  0  3  0  0  0  0  0  0
  185.6870  178.2060  146.4650 C   0  0  0  0  0  0  0  0  0  0  0  0
  185.4140  178.2570  145.0120 C   0  0  0  0  0  3  0  0  0  0  0  0
  188.1530  178.4190  146.1960 C   0  0  0  0  0  2  0  0  0  0  0  0
  184.6280  178.1540  147.3050 F   0  0  0  0  0  0  0  0  0  0  0  0
  2  9  2  0  0  0  0
  4 29  1  0  0  0  0
  4  3  1  0  0  0  0
  5 17  1  6  0  0  0
  5 26  1  0  0  0  0
  6 16  1  0  0  0  0
  6 13  1  1  0  0  0
  7 31  2  0  0  0  0
  8  7  1  0  0  0  0
  8 12  2  0  0  0  0
 11 23  1  1  0  0  0
 11  1  1  0  0  0  0
 12  3  1  0  0  0  0
 12 18  1  0  0  0  0
 14 16  1  0  0  0  0
 15 14  1  0  0  0  0
 15  6  1  0  0  0  0
 16 23  1  0  0  0  0
 18 19  1  0  0  0  0
 19  2  1  1  0  0  0
 19  5  1  0  0  0  0
 20  2  1  0  0  0  0
 21 14  2  0  0  0  0
 21 32  1  0  0  0  0
 24 10  1  0  0  0  0
 25  1  1  6  0  0  0
 25 30  1  0  0  0  0
 26 28  2  0  0  0  0
 26 27  1  0  0  0  0
 28 37  1  0  0  0  0
 29 24  1  6  0  0  0
 29 11  1  0  0  0  0
 30 17  1  6  0  0  0
 30 28  1  0  0  0  0
 31 18  1  0  0  0  0
 31 20  1  0  0  0  0
 32 10  2  0  0  0  0
 32 22  1  0  0  0  0
 34 33  1  6  0  0  0
 34 36  1  0  0  0  0
 35 25  1  1  0  0  0
 35 34  1  0  0  0  0
 35 36  1  0  0  0  0
 36 33  1  6  0  0  0
 37 38  1  0  0  0  0
 38 39  1  0  0  0  0
 39 42  1  0  0  0  0
 41 43  2  0  0  0  0
 42 41  1  0  0  0  0
 42 45  2  0  0  0  0
 43 46  1  0  0  0  0
 44 40  2  0  0  0  0
 44 47  1  0  0  0  0
 45 44  1  0  0  0  0
 46 40  1  0  0  0  0
M  END
>  <MODEL>
2

>  <REMARK>
 VINA RESULT:      -7.5      1.494      1.878
  Name = 
  5 active torsions:
  status: ('A' for Active; 'I' for Inactive)
    1  A    between atoms: C_5  and  C_30
    2  A    between atoms: C_19  and  C_31
    3  A    between atoms: C_19  and  C_42
    4  A    between atoms: C_30  and  C_31
    5  A    between atoms: C_37  and  N_38
                            x       y       z     vdW  Elec       q    Type
                         _______ _______ _______ _____ _____    ______ ____

>  <TORSDO>
F 5

$$$$
=
 OpenBabel10222415263D

 47 55  0  0  1  0  0  0  0  0999 V2000
  191.6420  176.2120  134.9060 C   0  0  0  0  0  2  0  0  0  0  0  0
  186.3540  172.9560  135.9050 C   0  0  0  0  0  0  0  0  0  0  0  0
  190.6910  173.3820  135.0300 N   0  0  0  0  0  2  0  0  0  0  0  0
  192.0630  173.1730  134.8420 N   0  0  0  0  0  2  0  0  0  0  0  0
  187.9070  174.9520  135.4890 C   0  0  0  0  0  0  0  0  0  0  0  0
  196.0970  176.7030  134.6300 C   0  0  1  0  0  3  0  0  0  0  0  0
  188.6630  170.4290  134.7210 C   0  0  0  0  0  3  0  0  0  0  0  0
  189.9130  171.0490  134.5940 C   0  0  0  0  0  3  0  0  0  0  0  0
  185.3690  173.4850  136.4800 O   0  0  0  0  0  0  0  0  0  0  0  0
  194.3860  173.5730  137.5650 N   0  0  0  0  0  0  0  0  0  0  0  0
  192.9480  175.4720  135.2620 C   0  0  1  0  0  3  0  0  0  0  0  0
  189.6880  172.4150  134.7140 C   0  0  0  0  0  0  0  0  0  0  0  0
  196.3140  178.1250  134.8460 N   0  0  0  0  0  1  0  0  0  0  0  0
  196.3950  175.3620  136.1450 C   0  0  0  0  0  0  0  0  0  0  0  0
  197.2430  175.9640  135.0720 C   0  0  0  0  0  2  0  0  0  0  0  0
  195.2510  176.1720  135.6770 N   0  0  0  0  0  0  0  0  0  0  0  0
  189.0230  175.4360  134.7730 N   0  0  0  0  0  0  0  0  0  0  0  0
  188.3680  172.6440  134.8400 N   0  0  0  0  0  0  0  0  0  0  0  0
  187.5680  173.6490  135.4440 C   0  0  2  0  0  3  0  0  0  0  0  0
  186.4170  171.4970  135.5270 C   0  0  0  0  0  2  0  0  0  0  0  0
  196.6010  174.4870  137.1260 C   0  0  0  0  0  3  0  0  0  0  0  0
  195.7300  174.0770  139.4210 N   0  0  0  0  0  1  0  0  0  0  0  0
  193.8700  176.3600  136.0900 C   0  0  0  0  0  2  0  0  0  0  0  0
  194.0850  173.3760  136.1510 C   0  0  0  0  0  2  0  0  0  0  0  0
  190.7220  176.6310  135.9920 N   0  0  1  0  0  0  0  0  0  0  0  0
  187.3860  176.0430  136.3110 C   0  0  0  0  0  0  0  0  0  0  0  0
  186.0910  176.0850  137.0480 C   0  0  0  0  0  1  0  0  0  0  0  0
  188.2460  177.0650  136.2320 C   0  0  0  0  0  0  0  0  0  0  0  0
  192.7590  174.0280  135.8030 C   0  0  2  0  0  3  0  0  0  0  0  0
  189.4030  176.7250  135.3220 C   0  0  2  0  0  3  0  0  0  0  0  0
  187.7640  171.4680  134.8780 C   0  0  0  0  0  0  0  0  0  0  0  0
  195.5140  174.0370  138.0170 C   0  0  0  0  0  0  0  0  0  0  0  0
  190.9810  175.7690  139.5410 C   0  0  0  0  0  2  0  0  0  0  0  0
  191.6350  176.0680  138.2070 C   0  0  1  0  0  3  0  0  0  0  0  0
  190.6810  175.6540  137.0950 C   0  0  1  0  0  3  0  0  0  0  0  0
  190.1650  176.2930  138.3770 C   0  0  1  0  0  3  0  0  0  0  0  0
  187.9850  178.4500  136.7420 C   0  0  0  0  0  2  0  0  0  0  0  0
  188.2940  178.5710  138.2280 C   0  0  0  0  0  2  0  0  0  0  0  0
  187.0150  178.4510  139.0430 C   0  0  0  0  0  2  0  0  0  0  0  0
  188.4190  177.6850  143.3150 C   0  0  0  0  0  3  0  0  0  0  0  0
  186.2720  178.7990  141.4450 C   0  0  0  0  0  3  0  0  0  0  0  0
  187.3170  178.3540  140.5030 C   0  0  0  0  0  0  0  0  0  0  0  0
  186.1310  178.3620  142.6960 C   0  0  0  0  0  3  0  0  0  0  0  0
  189.1290  177.9910  142.2290 C   0  0  0  0  0  0  0  0  0  0  0  0
  188.5710  178.0400  140.8610 C   0  0  0  0  0  3  0  0  0  0  0  0
  186.9840  177.2870  143.2770 C   0  0  0  0  0  2  0  0  0  0  0  0
  190.4520  178.2340  142.3810 F   0  0  0  0  0  0  0  0  0  0  0  0
  2  9  2  0  0  0  0
  4  3  1  0  0  0  0
  4 29  1  0  0  0  0
  5 26  1  0  0  0  0
  6 13  1  1  0  0  0
  6 15  1  0  0  0  0
  6 16  1  0  0  0  0
  7 31  2  0  0  0  0
  8 12  2  0  0  0  0
  8  7  1  0  0  0  0
 10 32  2  0  0  0  0
 11  1  1  1  0  0  0
 11 29  1  0  0  0  0
 11 23  1  0  0  0  0
 12 18  1  0  0  0  0
 12  3  1  0  0  0  0
 14 21  2  0  0  0  0
 15 14  1  0  0  0  0
 16 23  1  0  0  0  0
 16 14  1  0  0  0  0
 17  5  2  0  0  0  0
 18 31  1  0  0  0  0
 18 19  1  0  0  0  0
 19  5  1  6  0  0  0
 19  2  1  0  0  0  0
 20  2  1  0  0  0  0
 21 32  1  0  0  0  0
 24 10  1  0  0  0  0
 25  1  1  6  0  0  0
 26 27  1  0  0  0  0
 28 26  2  0  0  0  0
 28 37  1  0  0  0  0
 29 24  1  6  0  0  0
 30 17  1  1  0  0  0
 30 25  1  0  0  0  0
 30 28  1  0  0  0  0
 31 20  1  0  0  0  0
 32 22  1  0  0  0  0
 34 36  1  0  0  0  0
 34 33  1  1  0  0  0
 35 25  1  6  0  0  0
 35 34  1  0  0  0  0
 35 36  1  0  0  0  0
 36 33  1  1  0  0  0
 37 38  1  0  0  0  0
 38 39  1  0  0  0  0
 39 42  1  0  0  0  0
 41 43  2  0  0  0  0
 42 45  2  0  0  0  0
 42 41  1  0  0  0  0
 43 46  1  0  0  0  0
 44 47  1  0  0  0  0
 44 40  2  0  0  0  0
 45 44  1  0  0  0  0
 46 40  1  0  0  0  0
M  END
>  <MODEL>
3

>  <REMARK>
 VINA RESULT:      -7.4      6.636     10.313
  Name = 
  5 active torsions:
  status: ('A' for Active; 'I' for Inactive)
    1  A    between atoms: C_5  and  C_30
    2  A    between atoms: C_19  and  C_31
    3  A    between atoms: C_19  and  C_42
    4  A    between atoms: C_30  and  C_31
    5  A    between atoms: C_37  and  N_38
                            x       y       z     vdW  Elec       q    Type
                         _______ _______ _______ _____ _____    ______ ____

>  <TORSDO>
F 5

$$$$
=
 OpenBabel10222415263D

 47 55  0  0  1  0  0  0  0  0999 V2000
  185.2570  178.7030  137.5680 C   0  0  0  0  0  2  0  0  0  0  0  0
  189.7110  177.0400  141.6860 C   0  0  0  0  0  0  0  0  0  0  0  0
  185.5680  178.1050  140.4790 N   0  0  0  0  0  2  0  0  0  0  0  0
  184.1830  178.3000  140.4140 N   0  0  0  0  0  2  0  0  0  0  0  0
  188.6290  177.8140  139.4950 C   0  0  1  0  0  3  0  0  0  0  0  0
  181.0170  179.1910  136.1750 C   0  0  1  0  0  3  0  0  0  0  0  0
  186.9010  177.8820  143.8110 C   0  0  0  0  0  3  0  0  0  0  0  0
  185.8150  178.1440  142.9640 C   0  0  0  0  0  3  0  0  0  0  0  0
  190.7900  176.5250  141.2970 O   0  0  0  0  0  0  0  0  0  0  0  0
  182.0150  175.7470  139.0880 N   0  0  0  0  0  0  0  0  0  0  0  0
  183.8230  178.2760  137.9410 C   0  0  1  0  0  3  0  0  0  0  0  0
  186.3340  178.2330  141.6780 C   0  0  0  0  0  0  0  0  0  0  0  0
  181.1160  179.2090  134.7250 N   0  0  0  0  0  1  0  0  0  0  0  0
  180.4390  177.4940  137.1600 C   0  0  0  0  0  0  0  0  0  0  0  0
  179.7380  178.6740  136.5690 C   0  0  0  0  0  2  0  0  0  0  0  0
  181.7300  178.0480  136.7020 N   0  0  0  0  0  0  0  0  0  0  0  0
  187.6430  178.6320  138.9030 N   0  0  0  0  0  2  0  0  0  0  0  0
  187.6730  178.1040  141.7220 N   0  0  0  0  0  0  0  0  0  0  0  0
  188.6760  177.6420  140.8300 C   0  0  2  0  0  3  0  0  0  0  0  0
  189.3290  177.1850  143.1390 C   0  0  0  0  0  2  0  0  0  0  0  0
  180.0510  176.3940  137.8000 C   0  0  0  0  0  3  0  0  0  0  0  0
  180.8220  174.0370  138.0140 N   0  0  0  0  0  1  0  0  0  0  0  0
  183.1210  177.6270  136.7530 C   0  0  0  0  0  2  0  0  0  0  0  0
  182.2590  177.1030  139.5710 C   0  0  0  0  0  2  0  0  0  0  0  0
  186.2510  177.6680  137.1890 N   0  0  1  0  0  0  0  0  0  0  0  0
  189.3790  177.1580  138.4250 C   0  0  0  0  0  0  0  0  0  0  0  0
  190.6550  176.3970  138.5460 C   0  0  0  0  0  1  0  0  0  0  0  0
  188.7630  177.4240  137.2670 C   0  0  0  0  0  0  0  0  0  0  0  0
  183.6940  177.5080  139.2850 C   0  0  2  0  0  3  0  0  0  0  0  0
  187.5560  178.3040  137.4910 C   0  0  2  0  0  3  0  0  0  0  0  0
  188.0050  177.8630  142.9800 C   0  0  0  0  0  0  0  0  0  0  0  0
  181.0170  175.4100  138.3260 C   0  0  0  0  0  0  0  0  0  0  0  0
  185.7420  174.0490  137.3910 C   0  0  0  0  0  2  0  0  0  0  0  0
  185.1910  175.4480  137.2070 C   0  0  1  0  0  3  0  0  0  0  0  0
  186.0820  176.4250  137.9610 C   0  0  1  0  0  3  0  0  0  0  0  0
  186.6720  175.2330  137.2200 C   0  0  1  0  0  3  0  0  0  0  0  0
  189.3230  177.1310  135.9080 C   0  0  0  0  0  2  0  0  0  0  0  0
  189.4980  175.6350  135.6820 C   0  0  0  0  0  2  0  0  0  0  0  0
  190.6380  175.3800  134.7070 C   0  0  0  0  0  2  0  0  0  0  0  0
  194.0310  173.6860  137.2420 C   0  0  0  0  0  3  0  0  0  0  0  0
  192.9900  175.9510  135.4720 C   0  0  0  0  0  3  0  0  0  0  0  0
  191.8820  174.9780  135.4300 C   0  0  0  0  0  0  0  0  0  0  0  0
  193.9260  176.0070  136.4190 C   0  0  0  0  0  3  0  0  0  0  0  0
  193.1480  173.0520  136.4710 C   0  0  0  0  0  0  0  0  0  0  0  0
  191.9810  173.7040  135.8380 C   0  0  0  0  0  3  0  0  0  0  0  0
  193.9160  175.1230  137.6180 C   0  0  0  0  0  2  0  0  0  0  0  0
  193.3040  171.7200  136.2870 F   0  0  0  0  0  0  0  0  0  0  0  0
  1 11  1  0  0  0  0
  2 20  1  0  0  0  0
  3 12  1  0  0  0  0
  4  3  1  0  0  0  0
  5 26  1  6  0  0  0
  5 19  1  0  0  0  0
  6 13  1  6  0  0  0
  6 15  1  0  0  0  0
  6 16  1  0  0  0  0
  8  7  1  0  0  0  0
  9  2  2  0  0  0  0
 10 24  1  0  0  0  0
 11 23  1  6  0  0  0
 11 29  1  0  0  0  0
 12 18  1  0  0  0  0
 12  8  2  0  0  0  0
 14 21  2  0  0  0  0
 15 14  1  0  0  0  0
 16 23  1  0  0  0  0
 16 14  1  0  0  0  0
 17  5  1  0  0  0  0
 18 31  1  0  0  0  0
 19  2  1  1  0  0  0
 19 18  1  0  0  0  0
 21 32  1  0  0  0  0
 22 32  1  0  0  0  0
 25 30  1  0  0  0  0
 25  1  1  1  0  0  0
 26 27  1  0  0  0  0
 28 26  2  0  0  0  0
 29 24  1  1  0  0  0
 29  4  1  0  0  0  0
 30 28  1  1  0  0  0
 30 17  1  0  0  0  0
 31 20  1  0  0  0  0
 31  7  2  0  0  0  0
 32 10  2  0  0  0  0
 34 36  1  0  0  0  0
 34 33  1  1  0  0  0
 34 35  1  0  0  0  0
 35 25  1  6  0  0  0
 36 33  1  1  0  0  0
 36 35  1  0  0  0  0
 37 28  1  0  0  0  0
 38 37  1  0  0  0  0
 39 42  1  0  0  0  0
 39 38  1  0  0  0  0
 40 46  1  0  0  0  0
 41 43  2  0  0  0  0
 42 41  1  0  0  0  0
 42 45  2  0  0  0  0
 43 46  1  0  0  0  0
 44 40  2  0  0  0  0
 45 44  1  0  0  0  0
 47 44  1  0  0  0  0
M  END
>  <MODEL>
4

>  <REMARK>
 VINA RESULT:      -7.3      4.935      8.587
  Name = 
  5 active torsions:
  status: ('A' for Active; 'I' for Inactive)
    1  A    between atoms: C_5  and  C_30
    2  A    between atoms: C_19  and  C_31
    3  A    between atoms: C_19  and  C_42
    4  A    between atoms: C_30  and  C_31
    5  A    between atoms: C_37  and  N_38
                            x       y       z     vdW  Elec       q    Type
                         _______ _______ _______ _____ _____    ______ ____

>  <TORSDO>
F 5

$$$$
=
 OpenBabel10222415263D

 47 55  0  0  1  0  0  0  0  0999 V2000
  184.5370  179.7100  138.7640 C   0  0  0  0  0  2  0  0  0  0  0  0
  189.4270  176.6150  141.2300 C   0  0  0  0  0  0  0  0  0  0  0  0
  185.4320  178.5580  141.3720 N   0  0  0  0  0  2  0  0  0  0  0  0
  184.1460  178.9910  141.7220 N   0  0  0  0  0  2  0  0  0  0  0  0
  188.0200  177.9370  139.5440 C   0  0  1  0  0  3  0  0  0  0  0  0
  180.2820  181.1420  138.6850 C   0  0  1  0  0  3  0  0  0  0  0  0
  187.4760  177.5230  144.1430 C   0  0  0  0  0  3  0  0  0  0  0  0
  186.2940  178.1110  143.6740 C   0  0  0  0  0  3  0  0  0  0  0  0
  190.2420  176.0040  140.4930 O   0  0  0  0  0  0  0  0  0  0  0  0
  181.2320  177.1160  140.7420 N   0  0  0  0  0  0  0  0  0  0  0  0
  183.1840  179.4690  139.4660 C   0  0  1  0  0  3  0  0  0  0  0  0
  186.4820  178.3400  142.3160 C   0  0  0  0  0  0  0  0  0  0  0  0
  180.0190  181.4020  137.2790 N   0  0  0  0  0  1  0  0  0  0  0  0
  179.6260  179.4180  139.5680 C   0  0  0  0  0  0  0  0  0  0  0  0
  179.0640  180.7850  139.3510 C   0  0  0  0  0  2  0  0  0  0  0  0
  180.8490  179.8200  138.8420 N   0  0  0  0  0  0  0  0  0  0  0  0
  187.1110  179.0010  139.3600 N   0  0  0  0  0  2  0  0  0  0  0  0
  187.7310  177.9820  141.9680 N   0  0  0  0  0  0  0  0  0  0  0  0
  188.3600  177.5250  140.7810 C   0  0  2  0  0  3  0  0  0  0  0  0
  189.4590  176.5610  142.7370 C   0  0  0  0  0  2  0  0  0  0  0  0
  179.1890  178.3020  140.1460 C   0  0  0  0  0  3  0  0  0  0  0  0
  179.4770  175.8500  139.8360 N   0  0  0  0  0  1  0  0  0  0  0  0
  182.0880  179.1700  138.4490 C   0  0  0  0  0  2  0  0  0  0  0  0
  181.8670  178.3030  141.3050 C   0  0  0  0  0  2  0  0  0  0  0  0
  185.1650  178.6070  137.9950 N   0  0  1  0  0  0  0  0  0  0  0  0
  188.3250  177.3670  138.2330 C   0  0  0  0  0  0  0  0  0  0  0  0
  189.4020  176.3930  137.8960 C   0  0  0  0  0  1  0  0  0  0  0  0
  187.5090  177.9350  137.3370 C   0  0  0  0  0  0  0  0  0  0  0  0
  183.2370  178.5060  140.6840 C   0  0  2  0  0  3  0  0  0  0  0  0
  186.6070  178.9500  137.9990 C   0  0  2  0  0  3  0  0  0  0  0  0
  188.3090  177.4680  143.0420 C   0  0  0  0  0  0  0  0  0  0  0  0
  180.0270  177.0930  140.2520 C   0  0  0  0  0  0  0  0  0  0  0  0
  183.7370  175.2360  137.9720 C   0  0  0  0  0  2  0  0  0  0  0  0
  183.5890  176.7280  138.1940 C   0  0  1  0  0  3  0  0  0  0  0  0
  184.9380  177.2920  138.6190 C   0  0  1  0  0  3  0  0  0  0  0  0
  184.8400  176.1940  137.5690 C   0  0  1  0  0  3  0  0  0  0  0  0
  187.6370  177.7990  135.8500 C   0  0  0  0  0  2  0  0  0  0  0  0
  186.5500  176.9050  135.2690 C   0  0  0  0  0  2  0  0  0  0  0  0
  187.1700  175.6920  134.5940 C   0  0  0  0  0  2  0  0  0  0  0  0
  185.1430  172.0960  136.5360 C   0  0  0  0  0  3  0  0  0  0  0  0
  187.7220  173.6470  135.9930 C   0  0  0  0  0  3  0  0  0  0  0  0
  186.7170  174.4250  135.2440 C   0  0  0  0  0  0  0  0  0  0  0  0
  187.4540  172.8190  137.0010 C   0  0  0  0  0  3  0  0  0  0  0  0
  184.8570  172.7180  135.3920 C   0  0  0  0  0  0  0  0  0  0  0  0
  185.4810  173.9870  134.9600 C   0  0  0  0  0  3  0  0  0  0  0  0
  186.0830  172.6390  137.5580 C   0  0  0  0  0  2  0  0  0  0  0  0
  183.9080  172.1770  134.5940 F   0  0  0  0  0  0  0  0  0  0  0  0
  1 11  1  0  0  0  0
  2 20  1  0  0  0  0
  3  4  1  0  0  0  0
  3 12  1  0  0  0  0
  5 26  1  6  0  0  0
  5 19  1  0  0  0  0
  6 13  1  6  0  0  0
  6 16  1  0  0  0  0
  6 15  1  0  0  0  0
  8  7  1  0  0  0  0
  9  2  2  0  0  0  0
 10 24  1  0  0  0  0
 11 23  1  6  0  0  0
 11 29  1  0  0  0  0
 12  8  2  0  0  0  0
 14 21  2  0  0  0  0
 15 14  1  0  0  0  0
 16 14  1  0  0  0  0
 17  5  1  0  0  0  0
 18 12  1  0  0  0  0
 18 31  1  0  0  0  0
 19  2  1  1  0  0  0
 19 18  1  0  0  0  0
 20 31  1  0  0  0  0
 21 32  1  0  0  0  0
 22 32  1  0  0  0  0
 23 16  1  0  0  0  0
 25 30  1  0  0  0  0
 25  1  1  1  0  0  0
 27 26  1  0  0  0  0
 28 26  2  0  0  0  0
 29 24  1  1  0  0  0
 29  4  1  0  0  0  0
 30 28  1  6  0  0  0
 30 17  1  0  0  0  0
 31  7  2  0  0  0  0
 32 10  2  0  0  0  0
 34 33  1  1  0  0  0
 34 35  1  0  0  0  0
 35 25  1  6  0  0  0
 36 33  1  1  0  0  0
 36 34  1  0  0  0  0
 36 35  1  0  0  0  0
 37 28  1  0  0  0  0
 38 37  1  0  0  0  0
 39 42  1  0  0  0  0
 39 38  1  0  0  0  0
 40 46  1  0  0  0  0
 41 43  2  0  0  0  0
 42 41  1  0  0  0  0
 43 46  1  0  0  0  0
 44 40  2  0  0  0  0
 45 42  2  0  0  0  0
 45 44  1  0  0  0  0
 47 44  1  0  0  0  0
M  END
>  <MODEL>
5

>  <REMARK>
 VINA RESULT:      -7.1      3.767      8.635
  Name = 
  5 active torsions:
  status: ('A' for Active; 'I' for Inactive)
    1  A    between atoms: C_5  and  C_30
    2  A    between atoms: C_19  and  C_31
    3  A    between atoms: C_19  and  C_42
    4  A    between atoms: C_30  and  C_31
    5  A    between atoms: C_37  and  N_38
                            x       y       z     vdW  Elec       q    Type
                         _______ _______ _______ _____ _____    ______ ____

>  <TORSDO>
F 5

$$$$
=
 OpenBabel10222415263D

 47 55  0  0  1  0  0  0  0  0999 V2000
  191.4750  176.3330  135.1150 C   0  0  0  0  0  2  0  0  0  0  0  0
  186.1570  173.1980  136.3250 C   0  0  0  0  0  0  0  0  0  0  0  0
  190.4490  173.5280  135.2170 N   0  0  0  0  0  2  0  0  0  0  0  0
  191.8020  173.2860  134.9460 N   0  0  0  0  0  2  0  0  0  0  0  0
  187.7430  175.1610  135.8750 C   0  0  1  0  0  3  0  0  0  0  0  0
  195.9190  176.7070  134.6000 C   0  0  1  0  0  3  0  0  0  0  0  0
  188.3210  170.6420  134.9440 C   0  0  0  0  0  3  0  0  0  0  0  0
  189.5800  171.2300  134.7630 C   0  0  0  0  0  3  0  0  0  0  0  0
  185.2220  173.7380  136.9690 O   0  0  0  0  0  0  0  0  0  0  0  0
  194.2840  173.5440  137.5430 N   0  0  0  0  0  0  0  0  0  0  0  0
  192.7760  175.5470  135.3760 C   0  0  1  0  0  3  0  0  0  0  0  0
  189.4020  172.5980  134.9330 C   0  0  0  0  0  0  0  0  0  0  0  0
  196.1900  178.1160  134.8410 N   0  0  0  0  0  1  0  0  0  0  0  0
  196.2630  175.3160  136.0590 C   0  0  0  0  0  0  0  0  0  0  0  0
  197.0660  175.9240  134.9560 C   0  0  0  0  0  2  0  0  0  0  0  0
  195.1180  176.1710  135.6780 N   0  0  0  0  0  0  0  0  0  0  0  0
  188.8300  175.6340  135.1100 N   0  0  0  0  0  2  0  0  0  0  0  0
  188.0990  172.8600  135.1390 N   0  0  0  0  0  0  0  0  0  0  0  0
  187.3630  173.8700  135.8150 C   0  0  2  0  0  3  0  0  0  0  0  0
  186.1560  171.7490  135.9050 C   0  0  0  0  0  2  0  0  0  0  0  0
  196.4970  174.4080  137.0030 C   0  0  0  0  0  3  0  0  0  0  0  0
  195.7440  173.9580  139.3320 N   0  0  0  0  0  1  0  0  0  0  0  0
  193.7690  176.3850  136.1740 C   0  0  0  0  0  2  0  0  0  0  0  0
  193.8990  173.3950  136.1430 C   0  0  0  0  0  2  0  0  0  0  0  0
  190.6300  176.7460  136.2630 N   0  0  1  0  0  0  0  0  0  0  0  0
  187.3010  176.2420  136.7540 C   0  0  0  0  0  0  0  0  0  0  0  0
  186.0510  176.3000  137.5650 C   0  0  0  0  0  1  0  0  0  0  0  0
  188.1850  177.2420  136.6540 C   0  0  0  0  0  0  0  0  0  0  0  0
  192.5750  174.0940  135.8890 C   0  0  2  0  0  3  0  0  0  0  0  0
  189.2790  176.8960  135.6710 C   0  0  2  0  0  3  0  0  0  0  0  0
  187.4630  171.7010  135.1800 C   0  0  0  0  0  0  0  0  0  0  0  0
  195.4490  173.9630  137.9420 C   0  0  0  0  0  0  0  0  0  0  0  0
  191.0870  175.7720  139.7620 C   0  0  0  0  0  2  0  0  0  0  0  0
  191.6630  176.0840  138.3950 C   0  0  1  0  0  3  0  0  0  0  0  0
  190.6220  175.7400  137.3390 C   0  0  1  0  0  3  0  0  0  0  0  0
  190.2180  176.3610  138.6690 C   0  0  1  0  0  3  0  0  0  0  0  0
  187.9930  178.6190  137.2150 C   0  0  0  0  0  2  0  0  0  0  0  0
  187.3280  178.5810  138.5840 C   0  0  0  0  0  2  0  0  0  0  0  0
  188.3800  178.6190  139.6820 C   0  0  0  0  0  2  0  0  0  0  0  0
  186.2920  177.8860  143.6710 C   0  0  0  0  0  3  0  0  0  0  0  0
  188.5330  177.1310  141.7330 C   0  0  0  0  0  3  0  0  0  0  0  0
  187.8070  178.1790  140.9900 C   0  0  0  0  0  0  0  0  0  0  0  0
  188.4910  176.9600  143.0540 C   0  0  0  0  0  3  0  0  0  0  0  0
  185.7770  178.2500  142.4960 C   0  0  0  0  0  0  0  0  0  0  0  0
  186.5870  178.6290  141.3180 C   0  0  0  0  0  3  0  0  0  0  0  0
  187.7530  177.8790  143.9650 C   0  0  0  0  0  2  0  0  0  0  0  0
  184.4300  178.3160  142.3840 F   0  0  0  0  0  0  0  0  0  0  0  0
  2  9  2  0  0  0  0
  4  3  1  0  0  0  0
  4 29  1  0  0  0  0
  5 17  1  1  0  0  0
  5 26  1  0  0  0  0
  6 13  1  1  0  0  0
  6 15  1  0  0  0  0
  6 16  1  0  0  0  0
  7 31  2  0  0  0  0
  8 12  2  0  0  0  0
  8  7  1  0  0  0  0
 10 32  2  0  0  0  0
 11  1  1  1  0  0  0
 11 29  1  0  0  0  0
 11 23  1  0  0  0  0
 12 18  1  0  0  0  0
 12  3  1  0  0  0  0
 14 21  2  0  0  0  0
 15 14  1  0  0  0  0
 16 14  1  0  0  0  0
 16 23  1  0  0  0  0
 18 31  1  0  0  0  0
 18 19  1  0  0  0  0
 19  5  1  0  0  0  0
 19  2  1  6  0  0  0
 20  2  1  0  0  0  0
 21 32  1  0  0  0  0
 24 10  1  0  0  0  0
 25  1  1  6  0  0  0
 26 27  1  0  0  0  0
 28 26  2  0  0  0  0
 28 37  1  0  0  0  0
 29 24  1  6  0  0  0
 30 17  1  1  0  0  0
 30 25  1  0  0  0  0
 30 28  1  0  0  0  0
 31 20  1  0  0  0  0
 32 22  1  0  0  0  0
 34 36  1  0  0  0  0
 34 33  1  1  0  0  0
 35 25  1  6  0  0  0
 35 34  1  0  0  0  0
 35 36  1  0  0  0  0
 36 33  1  1  0  0  0
 37 38  1  0  0  0  0
 38 39  1  0  0  0  0
 39 42  1  0  0  0  0
 40 46  1  0  0  0  0
 41 43  2  0  0  0  0
 42 45  2  0  0  0  0
 42 41  1  0  0  0  0
 43 46  1  0  0  0  0
 44 40  2  0  0  0  0
 45 44  1  0  0  0  0
 47 44  1  0  0  0  0
M  END
>  <MODEL>
6

>  <REMARK>
 VINA RESULT:      -6.8      6.534     10.137
  Name = 
  5 active torsions:
  status: ('A' for Active; 'I' for Inactive)
    1  A    between atoms: C_5  and  C_30
    2  A    between atoms: C_19  and  C_31
    3  A    between atoms: C_19  and  C_42
    4  A    between atoms: C_30  and  C_31
    5  A    between atoms: C_37  and  N_38
                            x       y       z     vdW  Elec       q    Type
                         _______ _______ _______ _____ _____    ______ ____

>  <TORSDO>
F 5

$$$$
