=
 OpenBabel10222419273D

 42 47  0  0  1  0  0  0  0  0999 V2000
  183.8670  178.3360  140.9100 N   0  0  0  0  0  1  0  0  0  0  0  0
  185.8570  178.2880  146.2410 C   0  0  0  0  0  3  0  0  0  0  0  0
  187.5390  177.5720  144.0780 N   0  0  0  0  0  0  0  0  0  0  0  0
  185.3460  178.3510  144.8670 C   0  0  0  0  0  0  0  0  0  0  0  0
  190.7620  176.9150  144.8540 S   0  0  0  0  0  0  0  0  0  0  0  0
  187.1510  178.0740  146.4770 C   0  0  0  0  0  0  0  0  0  0  0  0
  188.7880  177.3970  148.1300 N   0  0  0  0  0  0  0  0  0  0  0  0
  183.5120  178.7280  143.3240 C   0  0  0  0  0  0  0  0  0  0  0  0
  186.1780  177.9640  143.8040 C   0  0  2  0  0  3  0  0  0  0  0  0
  190.9800  176.5360  147.3070 C   0  0  0  0  0  3  0  0  0  0  0  0
  189.6990  177.0520  147.0810 C   0  0  0  0  0  0  0  0  0  0  0  0
  185.6690  177.9630  142.4980 C   0  0  0  0  0  3  0  0  0  0  0  0
  189.3910  177.2800  145.7510 C   0  0  0  0  0  0  0  0  0  0  0  0
  184.3480  178.3450  142.2510 C   0  0  0  0  0  0  0  0  0  0  0  0
  188.1580  178.0440  145.3310 C   0  0  0  0  0  0  0  0  0  0  0  0
  184.0220  178.7200  144.6260 C   0  0  0  0  0  3  0  0  0  0  0  0
  187.6030  177.8690  147.8700 C   0  0  0  0  0  3  0  0  0  0  0  0
  191.7220  176.3820  146.1370 C   0  0  0  0  0  3  0  0  0  0  0  0
  179.7290  178.7770  143.9590 C   0  0  0  0  0  3  0  0  0  0  0  0
  181.1980  178.6440  144.2760 C   0  0  0  0  0  2  0  0  0  0  0  0
  182.0820  179.1430  143.1350 C   0  0  2  0  0  3  0  0  0  0  0  0
  181.5310  178.6800  141.7940 C   0  0  0  0  0  2  0  0  0  0  0  0
  179.2870  179.0100  142.7670 N   0  0  0  0  0  0  0  0  0  0  0  0
  180.1400  179.2780  141.6230 C   0  0  0  0  0  2  0  0  0  0  0  0
  188.3430  177.0970  143.0270 N   0  0  0  0  0  2  0  0  0  0  0  0
  188.6970  178.2380  142.1990 C   0  0  0  0  0  2  0  0  0  0  0  0
  189.9970  177.9510  141.4790 C   0  0  0  0  0  2  0  0  0  0  0  0
  189.8500  176.6870  140.6610 C   0  0  0  0  0  2  0  0  0  0  0  0
  190.8330  176.7190  139.5080 C   0  0  0  0  0  2  0  0  0  0  0  0
  190.8380  176.7540  137.1290 O   0  0  0  0  0  1  0  0  0  0  0  0
  190.1440  177.2190  138.2490 C   0  0  1  0  0  3  0  0  0  0  0  0
  187.1540  175.6580  136.9460 C   0  0  0  0  0  2  0  0  0  0  0  0
  188.5400  175.7490  137.2030 O   0  0  0  0  0  0  0  0  0  0  0  0
  188.7000  176.7240  138.2070 C   0  0  2  0  0  3  0  0  0  0  0  0
  186.5670  177.0480  136.7430 C   0  0  1  0  0  0  0  0  0  0  0  0
  187.5530  178.0670  137.8300 P   0  0  1  0  0  0  0  0  0  0  0  0
  186.7240  178.5940  139.2080 O   0  0  0  0  0  1  0  0  0  0  0  0
  188.2110  179.2170  137.1000 O   0  0  0  0  0  0  0  0  0  0  0  0
  186.7390  177.4540  135.4180 O   0  0  0  0  0  1  0  0  0  0  0  0
  185.0950  177.1020  137.1350 C   0  0  0  0  0  2  0  0  0  0  0  0
  184.5740  175.7640  137.3730 N   0  0  0  0  0  2  0  0  0  0  0  0
  183.3550  175.9260  138.1430 C   0  0  0  0  0  1  0  0  0  0  0  0
  1 14  1  0  0  0  0
  2  6  1  0  0  0  0
  3 15  1  0  0  0  0
  4  2  2  0  0  0  0
  5 13  1  0  0  0  0
  5 18  1  0  0  0  0
  6 17  1  0  0  0  0
  8 16  2  0  0  0  0
  9 12  1  1  0  0  0
  9  3  1  0  0  0  0
  9  4  1  0  0  0  0
 11 10  1  0  0  0  0
 11  7  1  0  0  0  0
 13 11  2  0  0  0  0
 14 12  2  0  0  0  0
 14  8  1  0  0  0  0
 15 13  1  0  0  0  0
 15  6  2  0  0  0  0
 16  4  1  0  0  0  0
 17  7  2  0  0  0  0
 18 10  2  0  0  0  0
 19 20  1  0  0  0  0
 21  8  1  1  0  0  0
 21 20  1  0  0  0  0
 22 21  1  0  0  0  0
 23 19  2  0  0  0  0
 24 22  1  0  0  0  0
 24 23  1  0  0  0  0
 25  3  1  0  0  0  0
 26 25  1  0  0  0  0
 27 26  1  0  0  0  0
 28 27  1  0  0  0  0
 29 28  1  0  0  0  0
 31 30  1  6  0  0  0
 31 29  1  0  0  0  0
 32 33  1  0  0  0  0
 33 34  1  0  0  0  0
 34 31  1  6  0  0  0
 35 39  1  6  0  0  0
 35 32  1  0  0  0  0
 35 40  1  0  0  0  0
 35 36  1  0  0  0  0
 36 38  2  6  0  0  0
 36 34  1  0  0  0  0
 36 37  1  0  0  0  0
 40 41  1  0  0  0  0
 41 42  1  0  0  0  0
M  END
>  <MODEL>
1

>  <REMARK>
 VINA RESULT:     -10.0      0.000      0.000
  Name = 
  10 active torsions:
  status: ('A' for Active; 'I' for Inactive)
    1  A    between atoms: C_5  and  C_36
    2  A    between atoms: N_6  and  N_21
    3  A    between atoms: C_7  and  C_25
    4  A    between atoms: N_8  and  C_25
    5  A    between atoms: C_13  and  C_20
    6  A    between atoms: C_15  and  C_17
    7  A    between atoms: C_15  and  C_41
    8  A    between atoms: C_17  and  C_22
    9  A    between atoms: N_21  and  C_22
   10  A    between atoms: C_36  and  C_41
                            x       y       z     vdW  Elec       q    Type
                         _______ _______ _______ _____ _____    ______ ____

>  <TORSDO>
F 10

$$$$
=
 OpenBabel10222419273D

 42 47  0  0  1  0  0  0  0  0999 V2000
  183.8270  178.2880  140.9350 N   0  0  0  0  0  1  0  0  0  0  0  0
  185.8680  178.3560  146.2470 C   0  0  0  0  0  3  0  0  0  0  0  0
  187.5300  177.5940  144.0830 N   0  0  0  0  0  0  0  0  0  0  0  0
  185.3440  178.3890  144.8770 C   0  0  0  0  0  0  0  0  0  0  0  0
  190.7610  176.9540  144.8430 S   0  0  0  0  0  0  0  0  0  0  0  0
  187.1650  178.1470  146.4740 C   0  0  0  0  0  0  0  0  0  0  0  0
  188.8180  177.5070  148.1260 N   0  0  0  0  0  0  0  0  0  0  0  0
  183.4960  178.7330  143.3430 C   0  0  0  0  0  0  0  0  0  0  0  0
  186.1660  177.9790  143.8150 C   0  0  2  0  0  3  0  0  0  0  0  0
  191.0020  176.6280  147.3010 C   0  0  0  0  0  3  0  0  0  0  0  0
  189.7190  177.1390  147.0760 C   0  0  0  0  0  0  0  0  0  0  0  0
  185.6450  177.9500  142.5140 C   0  0  0  0  0  3  0  0  0  0  0  0
  189.3980  177.3380  145.7440 C   0  0  0  0  0  0  0  0  0  0  0  0
  184.3210  178.3260  142.2710 C   0  0  0  0  0  0  0  0  0  0  0  0
  188.1610  178.0930  145.3200 C   0  0  0  0  0  0  0  0  0  0  0  0
  184.0180  178.7530  144.6410 C   0  0  0  0  0  3  0  0  0  0  0  0
  187.6310  177.9730  147.8670 C   0  0  0  0  0  3  0  0  0  0  0  0
  191.7330  176.4490  146.1270 C   0  0  0  0  0  3  0  0  0  0  0  0
  179.7120  178.7510  143.9750 C   0  0  0  0  0  3  0  0  0  0  0  0
  181.1810  178.6210  144.2910 C   0  0  0  0  0  2  0  0  0  0  0  0
  182.0640  179.1430  143.1600 C   0  0  2  0  0  3  0  0  0  0  0  0
  181.5170  178.6990  141.8100 C   0  0  0  0  0  2  0  0  0  0  0  0
  179.2700  179.0020  142.7860 N   0  0  0  0  0  0  0  0  0  0  0  0
  180.1220  179.2920  141.6470 C   0  0  0  0  0  2  0  0  0  0  0  0
  188.3240  177.0960  143.0360 N   0  0  0  0  0  2  0  0  0  0  0  0
  188.7990  178.2360  142.2690 C   0  0  0  0  0  2  0  0  0  0  0  0
  189.3770  177.7520  140.9560 C   0  0  0  0  0  2  0  0  0  0  0  0
  188.6880  178.4630  139.8120 C   0  0  0  0  0  2  0  0  0  0  0  0
  187.5160  177.6290  139.3350 C   0  0  0  0  0  2  0  0  0  0  0  0
  186.9140  178.9960  137.4840 O   0  0  0  0  0  1  0  0  0  0  0  0
  187.3870  177.7260  137.8240 C   0  0  1  0  0  3  0  0  0  0  0  0
  189.8200  177.3000  135.1830 C   0  0  0  0  0  2  0  0  0  0  0  0
  188.7270  177.9230  135.8250 O   0  0  0  0  0  0  0  0  0  0  0  0
  188.7430  177.4830  137.1640 C   0  0  2  0  0  3  0  0  0  0  0  0
  189.8230  175.8080  135.4820 C   0  0  1  0  0  0  0  0  0  0  0  0
  189.1590  175.7260  137.1400 P   0  0  1  0  0  0  0  0  0  0  0  0
  190.3100  175.3340  138.3160 O   0  0  0  0  0  1  0  0  0  0  0  0
  187.9430  174.8310  137.2280 O   0  0  0  0  0  0  0  0  0  0  0  0
  188.9790  175.1380  134.5940 O   0  0  0  0  0  1  0  0  0  0  0  0
  191.2290  175.2240  135.4320 C   0  0  0  0  0  2  0  0  0  0  0  0
  191.2380  173.9570  134.7170 N   0  0  0  0  0  2  0  0  0  0  0  0
  191.4340  172.9210  135.7140 C   0  0  0  0  0  1  0  0  0  0  0  0
  1 14  1  0  0  0  0
  2  6  1  0  0  0  0
  3 15  1  0  0  0  0
  4  2  2  0  0  0  0
  5 13  1  0  0  0  0
  5 18  1  0  0  0  0
  6 17  1  0  0  0  0
  8 16  2  0  0  0  0
  9 12  1  1  0  0  0
  9  3  1  0  0  0  0
  9  4  1  0  0  0  0
 11 10  1  0  0  0  0
 11  7  1  0  0  0  0
 13 11  2  0  0  0  0
 14 12  2  0  0  0  0
 14  8  1  0  0  0  0
 15 13  1  0  0  0  0
 15  6  2  0  0  0  0
 16  4  1  0  0  0  0
 17  7  2  0  0  0  0
 18 10  2  0  0  0  0
 19 20  1  0  0  0  0
 21  8  1  1  0  0  0
 21 20  1  0  0  0  0
 22 21  1  0  0  0  0
 23 19  2  0  0  0  0
 24 22  1  0  0  0  0
 24 23  1  0  0  0  0
 25  3  1  0  0  0  0
 26 25  1  0  0  0  0
 27 26  1  0  0  0  0
 28 27  1  0  0  0  0
 29 28  1  0  0  0  0
 31 30  1  1  0  0  0
 31 29  1  0  0  0  0
 32 35  1  0  0  0  0
 32 33  1  0  0  0  0
 33 34  1  0  0  0  0
 34 31  1  6  0  0  0
 35 39  1  6  0  0  0
 35 36  1  0  0  0  0
 36 34  1  0  0  0  0
 36 38  2  1  0  0  0
 36 37  1  0  0  0  0
 40 35  1  0  0  0  0
 41 40  1  0  0  0  0
 41 42  1  0  0  0  0
M  END
>  <MODEL>
2

>  <REMARK>
 VINA RESULT:      -9.4      1.905      2.776
  Name = 
  10 active torsions:
  status: ('A' for Active; 'I' for Inactive)
    1  A    between atoms: C_5  and  C_36
    2  A    between atoms: N_6  and  N_21
    3  A    between atoms: C_7  and  C_25
    4  A    between atoms: N_8  and  C_25
    5  A    between atoms: C_13  and  C_20
    6  A    between atoms: C_15  and  C_17
    7  A    between atoms: C_15  and  C_41
    8  A    between atoms: C_17  and  C_22
    9  A    between atoms: N_21  and  C_22
   10  A    between atoms: C_36  and  C_41
                            x       y       z     vdW  Elec       q    Type
                         _______ _______ _______ _____ _____    ______ ____

>  <TORSDO>
F 10

$$$$
=
 OpenBabel10222419273D

 42 47  0  0  1  0  0  0  0  0999 V2000
  188.3560  178.0550  138.7920 N   0  0  0  0  0  1  0  0  0  0  0  0
  191.2130  176.6530  143.5100 C   0  0  0  0  0  3  0  0  0  0  0  0
  188.6350  177.8120  143.6880 N   0  0  0  0  0  0  0  0  0  0  0  0
  190.4670  176.9650  142.2860 C   0  0  0  0  0  0  0  0  0  0  0  0
  187.3430  178.0950  146.7980 S   0  0  0  0  0  0  0  0  0  0  0  0
  190.6270  176.7370  144.7040 C   0  0  0  0  0  0  0  0  0  0  0  0
  190.9940  176.8920  147.0940 N   0  0  0  0  0  0  0  0  0  0  0  0
  190.3580  177.0810  139.8640 C   0  0  0  0  0  0  0  0  0  0  0  0
  189.2030  177.5680  142.3840 C   0  0  0  0  0  0  0  0  0  0  0  0
  189.1510  177.8270  148.4910 C   0  0  0  0  0  3  0  0  0  0  0  0
  189.6840  177.4480  147.2540 C   0  0  0  0  0  0  0  0  0  0  0  0
  188.5180  177.9250  141.2140 C   0  0  0  0  0  3  0  0  0  0  0  0
  188.8180  177.5800  146.1830 C   0  0  0  0  0  0  0  0  0  0  0  0
  189.0840  177.6830  139.9590 C   0  0  0  0  0  0  0  0  0  0  0  0
  189.1310  177.0080  144.8220 C   0  0  0  0  0  0  0  0  0  0  0  0
  191.0410  176.7330  141.0350 C   0  0  0  0  0  2  0  0  0  0  0  0
  191.4490  176.5600  145.9210 C   0  0  0  0  0  3  0  0  0  0  0  0
  187.8210  178.2380  148.4110 C   0  0  0  0  0  3  0  0  0  0  0  0
  191.2910  175.0800  136.7270 C   0  0  0  0  0  3  0  0  0  0  0  0
  190.4400  175.5610  137.8760 C   0  0  0  0  0  2  0  0  0  0  0  0
  191.0300  176.7970  138.5530 C   0  0  2  0  0  3  0  0  0  0  0  0
  192.5370  176.6500  138.7090 C   0  0  0  0  0  2  0  0  0  0  0  0
  192.5020  175.4880  136.5320 N   0  0  0  0  0  0  0  0  0  0  0  0
  193.1470  176.5250  137.3180 C   0  0  0  0  0  2  0  0  0  0  0  0
  187.4130  178.4990  143.7890 N   0  0  0  0  0  2  0  0  0  0  0  0
  186.3630  177.5850  143.3710 C   0  0  0  0  0  2  0  0  0  0  0  0
  185.0230  178.2800  143.4720 C   0  0  0  0  0  2  0  0  0  0  0  0
  184.2950  178.1640  142.1500 C   0  0  0  0  0  2  0  0  0  0  0  0
  184.9120  179.1230  141.1520 C   0  0  0  0  0  2  0  0  0  0  0  0
  184.4120  180.2920  139.1420 O   0  0  0  0  0  1  0  0  0  0  0  0
  184.0870  179.1480  139.8760 C   0  0  1  0  0  3  0  0  0  0  0  0
  184.8990  177.1430  136.9790 C   0  0  0  0  0  2  0  0  0  0  0  0
  185.0510  178.2370  137.8590 O   0  0  0  0  0  0  0  0  0  0  0  0
  184.3670  177.8990  139.0430 C   0  0  2  0  0  3  0  0  0  0  0  0
  183.4360  176.7270  136.9080 C   0  0  1  0  0  0  0  0  0  0  0  0
  182.8360  177.0760  138.5550 P   0  0  1  0  0  0  0  0  0  0  0  0
  182.5420  175.6900  139.4800 O   0  0  0  0  0  1  0  0  0  0  0  0
  181.6430  178.0060  138.5470 O   0  0  0  0  0  0  0  0  0  0  0  0
  182.7580  177.5130  135.9740 O   0  0  0  0  0  1  0  0  0  0  0  0
  183.2850  175.2480  136.5760 C   0  0  0  0  0  2  0  0  0  0  0  0
  184.5840  174.5960  136.5140 N   0  0  0  0  0  2  0  0  0  0  0  0
  184.5820  173.5690  137.5390 C   0  0  0  0  0  1  0  0  0  0  0  0
  1 14  1  0  0  0  0
  2  6  1  0  0  0  0
  3 25  1  0  0  0  0
  3 15  1  0  0  0  0
  4  9  1  0  0  0  0
  4  2  2  0  0  0  0
  5 18  1  0  0  0  0
  6 15  2  0  0  0  0
  6 17  1  0  0  0  0
  7 11  1  0  0  0  0
  8 14  2  0  0  0  0
  8 16  1  0  0  0  0
  9  3  1  0  0  0  0
 11 10  1  0  0  0  0
 12  9  2  0  0  0  0
 13  5  1  0  0  0  0
 13 11  2  0  0  0  0
 14 12  1  0  0  0  0
 15 13  1  0  0  0  0
 16  4  1  0  0  0  0
 17  7  2  0  0  0  0
 18 10  2  0  0  0  0
 19 20  1  0  0  0  0
 20 21  1  0  0  0  0
 21 22  1  0  0  0  0
 21  8  1  1  0  0  0
 23 19  2  0  0  0  0
 23 24  1  0  0  0  0
 24 22  1  0  0  0  0
 26 27  1  0  0  0  0
 26 25  1  0  0  0  0
 28 27  1  0  0  0  0
 29 28  1  0  0  0  0
 31 30  1  6  0  0  0
 31 29  1  0  0  0  0
 32 33  1  0  0  0  0
 33 34  1  0  0  0  0
 34 31  1  6  0  0  0
 35 39  1  6  0  0  0
 35 32  1  0  0  0  0
 35 36  1  0  0  0  0
 36 38  2  6  0  0  0
 36 34  1  0  0  0  0
 36 37  1  0  0  0  0
 40 35  1  0  0  0  0
 41 40  1  0  0  0  0
 41 42  1  0  0  0  0
M  END
>  <MODEL>
3

>  <REMARK>
 VINA RESULT:      -9.4      2.840      6.498
  Name = 
  10 active torsions:
  status: ('A' for Active; 'I' for Inactive)
    1  A    between atoms: C_5  and  C_36
    2  A    between atoms: N_6  and  N_21
    3  A    between atoms: C_7  and  C_25
    4  A    between atoms: N_8  and  C_25
    5  A    between atoms: C_13  and  C_20
    6  A    between atoms: C_15  and  C_17
    7  A    between atoms: C_15  and  C_41
    8  A    between atoms: C_17  and  C_22
    9  A    between atoms: N_21  and  C_22
   10  A    between atoms: C_36  and  C_41
                            x       y       z     vdW  Elec       q    Type
                         _______ _______ _______ _____ _____    ______ ____

>  <TORSDO>
F 10

$$$$
=
 OpenBabel10222419273D

 42 47  0  0  1  0  0  0  0  0999 V2000
  189.3860  177.9300  141.6010 N   0  0  0  0  0  1  0  0  0  0  0  0
  184.0730  178.4450  143.5740 C   0  0  0  0  0  3  0  0  0  0  0  0
  184.6530  179.0060  140.8590 N   0  0  0  0  0  0  0  0  0  0  0  0
  185.4370  178.2620  143.0660 C   0  0  0  0  0  0  0  0  0  0  0  0
  182.0080  179.7730  138.9000 S   0  0  0  0  0  0  0  0  0  0  0  0
  183.0640  178.6970  142.7390 C   0  0  0  0  0  0  0  0  0  0  0  0
  180.7970  179.5310  142.5520 N   0  0  0  0  0  0  0  0  0  0  0  0
  187.7710  177.7320  143.4610 C   0  0  0  0  0  0  0  0  0  0  0  0
  185.7210  178.5720  141.7270 C   0  0  0  0  0  0  0  0  0  0  0  0
  180.0450  180.3550  140.3200 C   0  0  0  0  0  3  0  0  0  0  0  0
  181.0160  179.8030  141.1630 C   0  0  0  0  0  0  0  0  0  0  0  0
  187.0370  178.4590  141.2590 C   0  0  0  0  0  3  0  0  0  0  0  0
  182.2030  179.4620  140.5370 C   0  0  0  0  0  0  0  0  0  0  0  0
  188.0600  178.0380  142.1130 C   0  0  0  0  0  0  0  0  0  0  0  0
  183.2700  178.6480  141.2280 C   0  0  1  0  0  3  0  0  0  0  0  0
  186.4570  177.8540  143.9260 C   0  0  0  0  0  3  0  0  0  0  0  0
  181.7340  179.0210  143.2980 C   0  0  0  0  0  3  0  0  0  0  0  0
  180.4520  180.4240  138.9880 C   0  0  0  0  0  3  0  0  0  0  0  0
  189.3270  176.9850  146.8880 C   0  0  0  0  0  3  0  0  0  0  0  0
  188.2460  177.1320  145.8450 C   0  0  0  0  0  2  0  0  0  0  0  0
  188.8190  177.2820  144.4370 C   0  0  2  0  0  3  0  0  0  0  0  0
  190.0210  178.2150  144.4480 C   0  0  0  0  0  2  0  0  0  0  0  0
  190.5710  177.2440  146.6500 N   0  0  0  0  0  0  0  0  0  0  0  0
  191.0910  177.5990  145.3410 C   0  0  0  0  0  2  0  0  0  0  0  0
  184.9530  179.4060  139.5450 N   0  0  0  0  0  2  0  0  0  0  0  0
  185.1050  178.2000  138.7460 C   0  0  0  0  0  2  0  0  0  0  0  0
  185.7310  178.5560  137.4150 C   0  0  0  0  0  2  0  0  0  0  0  0
  186.5970  177.4070  136.9450 C   0  0  0  0  0  2  0  0  0  0  0  0
  187.5800  177.0400  138.0380 C   0  0  0  0  0  2  0  0  0  0  0  0
  189.0410  178.8880  138.3700 O   0  0  0  0  0  1  0  0  0  0  0  0
  188.9420  177.6460  137.7390 C   0  0  1  0  0  3  0  0  0  0  0  0
  192.2850  176.5080  138.5160 C   0  0  0  0  0  2  0  0  0  0  0  0
  191.2320  177.4490  138.4770 O   0  0  0  0  0  0  0  0  0  0  0  0
  190.0500  176.7200  138.2360 C   0  0  2  0  0  3  0  0  0  0  0  0
  192.2070  175.5840  137.3080 C   0  0  1  0  0  0  0  0  0  0  0  0
  190.4490  175.4530  137.0120 P   0  0  1  0  0  0  0  0  0  0  0  0
  189.7980  173.9480  137.4270 O   0  0  0  0  0  1  0  0  0  0  0  0
  190.0720  175.8550  135.6030 O   0  0  0  0  0  0  0  0  0  0  0  0
  192.8360  176.1740  136.2100 O   0  0  0  0  0  1  0  0  0  0  0  0
  192.8110  174.2170  137.6040 C   0  0  0  0  0  2  0  0  0  0  0  0
  194.1950  174.1560  137.1600 N   0  0  0  0  0  2  0  0  0  0  0  0
  194.9660  173.6460  138.2790 C   0  0  0  0  0  1  0  0  0  0  0  0
  1 14  1  0  0  0  0
  3 15  1  0  0  0  0
  3  9  1  0  0  0  0
  4  2  1  0  0  0  0
  4 16  1  0  0  0  0
  5 18  1  0  0  0  0
  5 13  1  0  0  0  0
  6 17  1  0  0  0  0
  6  2  2  0  0  0  0
  7 17  2  0  0  0  0
  8 16  2  0  0  0  0
  9  4  2  0  0  0  0
 10 11  1  0  0  0  0
 11  7  1  0  0  0  0
 12  9  1  0  0  0  0
 12 14  2  0  0  0  0
 13 11  2  0  0  0  0
 14  8  1  0  0  0  0
 15 13  1  6  0  0  0
 15  6  1  0  0  0  0
 18 10  2  0  0  0  0
 20 19  1  0  0  0  0
 21  8  1  6  0  0  0
 21 22  1  0  0  0  0
 21 20  1  0  0  0  0
 22 24  1  0  0  0  0
 23 19  2  0  0  0  0
 24 23  1  0  0  0  0
 25  3  1  0  0  0  0
 26 25  1  0  0  0  0
 27 26  1  0  0  0  0
 28 27  1  0  0  0  0
 28 29  1  0  0  0  0
 31 29  1  0  0  0  0
 31 30  1  1  0  0  0
 33 32  1  0  0  0  0
 34 31  1  6  0  0  0
 34 33  1  0  0  0  0
 35 39  1  6  0  0  0
 35 40  1  0  0  0  0
 35 32  1  0  0  0  0
 36 38  2  6  0  0  0
 36 35  1  0  0  0  0
 36 37  1  0  0  0  0
 36 34  1  0  0  0  0
 41 40  1  0  0  0  0
 41 42  1  0  0  0  0
M  END
>  <MODEL>
4

>  <REMARK>
 VINA RESULT:      -8.9      2.874      7.298
  Name = 
  10 active torsions:
  status: ('A' for Active; 'I' for Inactive)
    1  A    between atoms: C_5  and  C_36
    2  A    between atoms: N_6  and  N_21
    3  A    between atoms: C_7  and  C_25
    4  A    between atoms: N_8  and  C_25
    5  A    between atoms: C_13  and  C_20
    6  A    between atoms: C_15  and  C_17
    7  A    between atoms: C_15  and  C_41
    8  A    between atoms: C_17  and  C_22
    9  A    between atoms: N_21  and  C_22
   10  A    between atoms: C_36  and  C_41
                            x       y       z     vdW  Elec       q    Type
                         _______ _______ _______ _____ _____    ______ ____

>  <TORSDO>
F 10

$$$$
=
 OpenBabel10222419273D

 42 47  0  0  1  0  0  0  0  0999 V2000
  189.3750  177.7640  141.8340 N   0  0  0  0  0  1  0  0  0  0  0  0
  184.1700  178.3980  144.0450 C   0  0  0  0  0  3  0  0  0  0  0  0
  184.6260  178.8890  141.2930 N   0  0  0  0  0  0  0  0  0  0  0  0
  185.5050  178.1850  143.4770 C   0  0  0  0  0  0  0  0  0  0  0  0
  181.9000  179.6480  139.4450 S   0  0  0  0  0  0  0  0  0  0  0  0
  183.1250  178.6450  143.2540 C   0  0  0  0  0  0  0  0  0  0  0  0
  180.8630  179.5070  143.1560 N   0  0  0  0  0  0  0  0  0  0  0  0
  187.8490  177.6310  143.7730 C   0  0  0  0  0  0  0  0  0  0  0  0
  185.7290  178.4600  142.1190 C   0  0  0  0  0  0  0  0  0  0  0  0
  180.0160  180.2890  140.9440 C   0  0  0  0  0  3  0  0  0  0  0  0
  181.0190  179.7440  141.7520 C   0  0  0  0  0  0  0  0  0  0  0  0
  187.0200  178.3170  141.5910 C   0  0  0  0  0  3  0  0  0  0  0  0
  182.1700  179.3710  141.0790 C   0  0  0  0  0  0  0  0  0  0  0  0
  188.0770  177.9020  142.4060 C   0  0  0  0  0  0  0  0  0  0  0  0
  183.2580  178.5590  141.7370 C   0  0  1  0  0  3  0  0  0  0  0  0
  186.5610  177.7830  144.2970 C   0  0  0  0  0  3  0  0  0  0  0  0
  181.8280  179.0020  143.8680 C   0  0  0  0  0  3  0  0  0  0  0  0
  180.3590  180.3220  139.5920 C   0  0  0  0  0  3  0  0  0  0  0  0
  189.5770  176.9860  147.1370 C   0  0  0  0  0  3  0  0  0  0  0  0
  188.4430  177.1230  146.1520 C   0  0  0  0  0  2  0  0  0  0  0  0
  188.9360  177.1890  144.7080 C   0  0  2  0  0  3  0  0  0  0  0  0
  190.1670  178.0790  144.6070 C   0  0  0  0  0  2  0  0  0  0  0  0
  190.8120  177.1900  146.8170 N   0  0  0  0  0  0  0  0  0  0  0  0
  191.2660  177.4660  145.4650 C   0  0  0  0  0  2  0  0  0  0  0  0
  184.8670  179.2540  139.9570 N   0  0  0  0  0  2  0  0  0  0  0  0
  184.9090  178.0310  139.1720 C   0  0  0  0  0  2  0  0  0  0  0  0
  185.5320  178.3210  137.8240 C   0  0  0  0  0  2  0  0  0  0  0  0
  184.9860  177.3520  136.7980 C   0  0  0  0  0  2  0  0  0  0  0  0
  186.1370  176.6480  136.1100 C   0  0  0  0  0  2  0  0  0  0  0  0
  186.2030  174.4900  137.1080 O   0  0  0  0  0  1  0  0  0  0  0  0
  186.8480  175.7290  137.0900 C   0  0  1  0  0  3  0  0  0  0  0  0
  190.2250  174.4400  137.1340 C   0  0  0  0  0  2  0  0  0  0  0  0
  188.8170  174.3370  137.1840 O   0  0  0  0  0  0  0  0  0  0  0  0
  188.3070  175.5490  136.6790 C   0  0  2  0  0  3  0  0  0  0  0  0
  190.6760  175.7580  137.7490 C   0  0  1  0  0  0  0  0  0  0  0  0
  189.3440  176.8750  137.3330 P   0  0  1  0  0  0  0  0  0  0  0  0
  189.7510  178.0050  136.1420 O   0  0  0  0  0  0  0  0  0  0  0  0
  188.7500  177.5400  138.5550 O   0  0  0  0  0  1  0  0  0  0  0  0
  190.7810  175.6300  139.1350 O   0  0  0  0  0  1  0  0  0  0  0  0
  191.9940  176.2370  137.1520 C   0  0  0  0  0  2  0  0  0  0  0  0
  193.0370  176.2760  138.1650 N   0  0  0  0  0  2  0  0  0  0  0  0
  194.0230  175.2830  137.7830 C   0  0  0  0  0  1  0  0  0  0  0  0
  1 14  1  0  0  0  0
  3 15  1  0  0  0  0
  3  9  1  0  0  0  0
  4  2  1  0  0  0  0
  4 16  1  0  0  0  0
  5 18  1  0  0  0  0
  5 13  1  0  0  0  0
  6 17  1  0  0  0  0
  6  2  2  0  0  0  0
  7 17  2  0  0  0  0
  8 16  2  0  0  0  0
  9  4  2  0  0  0  0
 10 11  1  0  0  0  0
 11  7  1  0  0  0  0
 12  9  1  0  0  0  0
 12 14  2  0  0  0  0
 13 11  2  0  0  0  0
 14  8  1  0  0  0  0
 15 13  1  6  0  0  0
 15  6  1  0  0  0  0
 18 10  2  0  0  0  0
 20 19  1  0  0  0  0
 21  8  1  6  0  0  0
 21 20  1  0  0  0  0
 22 21  1  0  0  0  0
 22 24  1  0  0  0  0
 23 19  2  0  0  0  0
 24 23  1  0  0  0  0
 25  3  1  0  0  0  0
 26 25  1  0  0  0  0
 27 26  1  0  0  0  0
 28 27  1  0  0  0  0
 29 28  1  0  0  0  0
 29 31  1  0  0  0  0
 31 30  1  6  0  0  0
 32 33  1  0  0  0  0
 32 35  1  0  0  0  0
 34 31  1  1  0  0  0
 34 33  1  0  0  0  0
 34 36  1  0  0  0  0
 35 39  1  1  0  0  0
 36 37  2  6  0  0  0
 36 35  1  0  0  0  0
 36 38  1  0  0  0  0
 40 35  1  0  0  0  0
 40 41  1  0  0  0  0
 42 41  1  0  0  0  0
M  END
>  <MODEL>
5

>  <REMARK>
 VINA RESULT:      -8.8      2.550      7.089
  Name = 
  10 active torsions:
  status: ('A' for Active; 'I' for Inactive)
    1  A    between atoms: C_5  and  C_36
    2  A    between atoms: N_6  and  N_21
    3  A    between atoms: C_7  and  C_25
    4  A    between atoms: N_8  and  C_25
    5  A    between atoms: C_13  and  C_20
    6  A    between atoms: C_15  and  C_17
    7  A    between atoms: C_15  and  C_41
    8  A    between atoms: C_17  and  C_22
    9  A    between atoms: N_21  and  C_22
   10  A    between atoms: C_36  and  C_41
                            x       y       z     vdW  Elec       q    Type
                         _______ _______ _______ _____ _____    ______ ____

>  <TORSDO>
F 10

$$$$
=
 OpenBabel10222419273D

 42 47  0  0  1  0  0  0  0  0999 V2000
  187.9170  178.1440  138.8240 N   0  0  0  0  0  1  0  0  0  0  0  0
  191.0010  176.7020  143.3840 C   0  0  0  0  0  3  0  0  0  0  0  0
  188.4320  177.8540  143.6980 N   0  0  0  0  0  0  0  0  0  0  0  0
  190.1960  177.0250  142.2010 C   0  0  0  0  0  0  0  0  0  0  0  0
  187.2920  178.1040  146.8700 S   0  0  0  0  0  0  0  0  0  0  0  0
  190.4740  176.7740  144.6070 C   0  0  0  0  0  0  0  0  0  0  0  0
  190.9550  176.9070  146.9770 N   0  0  0  0  0  0  0  0  0  0  0  0
  189.9690  177.1630  139.7890 C   0  0  0  0  0  0  0  0  0  0  0  0
  188.9370  177.6240  142.3660 C   0  0  0  0  0  0  0  0  0  0  0  0
  189.1800  177.8240  148.4710 C   0  0  0  0  0  3  0  0  0  0  0  0
  189.6540  177.4580  147.2060 C   0  0  0  0  0  0  0  0  0  0  0  0
  188.1960  177.9910  141.2350 C   0  0  0  0  0  3  0  0  0  0  0  0
  188.7360  177.5990  146.1790 C   0  0  0  0  0  0  0  0  0  0  0  0
  188.7010  177.7620  139.9510 C   0  0  0  0  0  0  0  0  0  0  0  0
  188.9840  177.0400  144.7990 C   0  0  0  0  0  0  0  0  0  0  0  0
  190.7090  176.8070  140.9220 C   0  0  0  0  0  2  0  0  0  0  0  0
  191.3530  176.5860  145.7800 C   0  0  0  0  0  3  0  0  0  0  0  0
  187.8470  178.2330  148.4600 C   0  0  0  0  0  3  0  0  0  0  0  0
  190.5890  175.2950  136.4970 C   0  0  0  0  0  3  0  0  0  0  0  0
  189.8260  175.7940  137.6980 C   0  0  0  0  0  2  0  0  0  0  0  0
  190.5780  176.8940  138.4440 C   0  0  2  0  0  3  0  0  0  0  0  0
  192.0570  176.5500  138.5500 C   0  0  0  0  0  2  0  0  0  0  0  0
  191.8390  175.5620  136.2990 N   0  0  0  0  0  0  0  0  0  0  0  0
  192.6220  176.4510  137.1390 C   0  0  0  0  0  2  0  0  0  0  0  0
  187.2160  178.5370  143.8650 N   0  0  0  0  0  2  0  0  0  0  0  0
  186.1440  177.5920  143.5960 C   0  0  0  0  0  2  0  0  0  0  0  0
  184.8170  178.2220  143.9570 C   0  0  0  0  0  2  0  0  0  0  0  0
  184.1480  178.7400  142.7030 C   0  0  0  0  0  2  0  0  0  0  0  0
  182.6700  178.9420  142.9680 C   0  0  0  0  0  2  0  0  0  0  0  0
  180.9460  179.5750  141.4560 O   0  0  0  0  0  1  0  0  0  0  0  0
  181.8630  178.5590  141.7390 C   0  0  1  0  0  3  0  0  0  0  0  0
  183.5100  179.2360  138.5920 C   0  0  0  0  0  2  0  0  0  0  0  0
  183.0190  179.5660  139.8750 O   0  0  0  0  0  0  0  0  0  0  0  0
  182.7910  178.3480  140.5450 C   0  0  2  0  0  3  0  0  0  0  0  0
  182.6220  178.1800  137.9470 C   0  0  1  0  0  0  0  0  0  0  0  0
  182.0690  177.2090  139.3430 P   0  0  1  0  0  0  0  0  0  0  0  0
  182.7750  175.6740  139.4260 O   0  0  0  0  0  0  0  0  0  0  0  0
  180.5610  177.1360  139.4300 O   0  0  0  0  0  1  0  0  0  0  0  0
  181.5310  178.7870  137.3230 O   0  0  0  0  0  1  0  0  0  0  0  0
  183.3970  177.3180  136.9590 C   0  0  0  0  0  2  0  0  0  0  0  0
  184.8270  177.3890  137.2200 N   0  0  0  0  0  2  0  0  0  0  0  0
  185.4920  177.1540  135.9520 C   0  0  0  0  0  1  0  0  0  0  0  0
  1 14  1  0  0  0  0
  2  6  1  0  0  0  0
  3 25  1  0  0  0  0
  3 15  1  0  0  0  0
  4  9  1  0  0  0  0
  4  2  2  0  0  0  0
  5 18  1  0  0  0  0
  6 15  2  0  0  0  0
  6 17  1  0  0  0  0
  7 11  1  0  0  0  0
  8 14  2  0  0  0  0
  8 16  1  0  0  0  0
  9  3  1  0  0  0  0
 11 10  1  0  0  0  0
 12  9  2  0  0  0  0
 13  5  1  0  0  0  0
 13 11  2  0  0  0  0
 14 12  1  0  0  0  0
 15 13  1  0  0  0  0
 16  4  1  0  0  0  0
 17  7  2  0  0  0  0
 18 10  2  0  0  0  0
 19 20  1  0  0  0  0
 20 21  1  0  0  0  0
 21 22  1  0  0  0  0
 21  8  1  1  0  0  0
 23 19  2  0  0  0  0
 23 24  1  0  0  0  0
 24 22  1  0  0  0  0
 26 25  1  0  0  0  0
 26 27  1  0  0  0  0
 28 29  1  0  0  0  0
 28 27  1  0  0  0  0
 31 30  1  6  0  0  0
 31 29  1  0  0  0  0
 32 33  1  0  0  0  0
 33 34  1  0  0  0  0
 34 31  1  1  0  0  0
 35 39  1  6  0  0  0
 35 32  1  0  0  0  0
 35 36  1  0  0  0  0
 36 37  2  1  0  0  0
 36 38  1  0  0  0  0
 36 34  1  0  0  0  0
 40 41  1  0  0  0  0
 40 35  1  0  0  0  0
 42 41  1  0  0  0  0
M  END
>  <MODEL>
6

>  <REMARK>
 VINA RESULT:      -8.7      3.047      6.852
  Name = 
  10 active torsions:
  status: ('A' for Active; 'I' for Inactive)
    1  A    between atoms: C_5  and  C_36
    2  A    between atoms: N_6  and  N_21
    3  A    between atoms: C_7  and  C_25
    4  A    between atoms: N_8  and  C_25
    5  A    between atoms: C_13  and  C_20
    6  A    between atoms: C_15  and  C_17
    7  A    between atoms: C_15  and  C_41
    8  A    between atoms: C_17  and  C_22
    9  A    between atoms: N_21  and  C_22
   10  A    between atoms: C_36  and  C_41
                            x       y       z     vdW  Elec       q    Type
                         _______ _______ _______ _____ _____    ______ ____

>  <TORSDO>
F 10

$$$$
=
 OpenBabel10222419273D

 42 47  0  0  1  0  0  0  0  0999 V2000
  188.4580  178.0150  138.8460 N   0  0  0  0  0  1  0  0  0  0  0  0
  191.3620  176.6950  143.5590 C   0  0  0  0  0  3  0  0  0  0  0  0
  188.7510  177.7790  143.7410 N   0  0  0  0  0  0  0  0  0  0  0  0
  190.6050  176.9860  142.3360 C   0  0  0  0  0  0  0  0  0  0  0  0
  187.4560  178.0240  146.8530 S   0  0  0  0  0  0  0  0  0  0  0  0
  190.7750  176.7620  144.7540 C   0  0  0  0  0  0  0  0  0  0  0  0
  191.1410  176.9270  147.1440 N   0  0  0  0  0  0  0  0  0  0  0  0
  190.4890  177.0990  139.9150 C   0  0  0  0  0  0  0  0  0  0  0  0
  189.3240  177.5520  142.4370 C   0  0  0  0  0  0  0  0  0  0  0  0
  189.2740  177.8090  148.5440 C   0  0  0  0  0  3  0  0  0  0  0  0
  189.8150  177.4460  147.3060 C   0  0  0  0  0  0  0  0  0  0  0  0
  188.6280  177.8890  141.2680 C   0  0  0  0  0  3  0  0  0  0  0  0
  188.9440  177.5520  146.2360 C   0  0  0  0  0  0  0  0  0  0  0  0
  189.1980  177.6640  140.0120 C   0  0  0  0  0  0  0  0  0  0  0  0
  189.2720  176.9900  144.8740 C   0  0  0  0  0  0  0  0  0  0  0  0
  191.1830  176.7710  141.0840 C   0  0  0  0  0  2  0  0  0  0  0  0
  191.6030  176.6080  145.9700 C   0  0  0  0  0  3  0  0  0  0  0  0
  187.9320  178.1800  148.4660 C   0  0  0  0  0  3  0  0  0  0  0  0
  191.4930  175.1190  136.7860 C   0  0  0  0  0  3  0  0  0  0  0  0
  190.6270  175.5710  137.9360 C   0  0  0  0  0  2  0  0  0  0  0  0
  191.1660  176.8350  138.6030 C   0  0  2  0  0  3  0  0  0  0  0  0
  192.6790  176.7530  138.7530 C   0  0  0  0  0  2  0  0  0  0  0  0
  192.6850  175.5760  136.5830 N   0  0  0  0  0  0  0  0  0  0  0  0
  193.2880  176.6440  137.3610 C   0  0  0  0  0  2  0  0  0  0  0  0
  187.5100  178.4300  143.8440 N   0  0  0  0  0  2  0  0  0  0  0  0
  186.4950  177.5160  143.3480 C   0  0  0  0  0  2  0  0  0  0  0  0
  185.1450  177.9130  143.9050 C   0  0  0  0  0  2  0  0  0  0  0  0
  184.8870  179.3730  143.6030 C   0  0  0  0  0  2  0  0  0  0  0  0
  183.4570  179.7150  143.9680 C   0  0  0  0  0  2  0  0  0  0  0  0
  181.3930  178.5350  144.0800 O   0  0  0  0  0  1  0  0  0  0  0  0
  182.4980  178.7730  143.2580 C   0  0  1  0  0  3  0  0  0  0  0  0
  180.4340  179.3420  140.3430 C   0  0  0  0  0  2  0  0  0  0  0  0
  180.6720  179.1290  141.7190 O   0  0  0  0  0  0  0  0  0  0  0  0
  182.0390  179.3870  141.9370 C   0  0  2  0  0  3  0  0  0  0  0  0
  181.4780  178.6080  139.5120 C   0  0  1  0  0  0  0  0  0  0  0  0
  182.9400  178.6880  140.5370 P   0  0  1  0  0  0  0  0  0  0  0  0
  184.1230  179.7490  139.9540 O   0  0  0  0  0  0  0  0  0  0  0  0
  183.5130  177.3190  140.8280 O   0  0  0  0  0  1  0  0  0  0  0  0
  181.0950  177.2780  139.3250 O   0  0  0  0  0  1  0  0  0  0  0  0
  181.7150  179.2930  138.1720 C   0  0  0  0  0  2  0  0  0  0  0  0
  181.5300  180.7310  138.2860 N   0  0  0  0  0  2  0  0  0  0  0  0
  180.8080  181.1510  137.1000 C   0  0  0  0  0  1  0  0  0  0  0  0
  1 14  1  0  0  0  0
  2  6  1  0  0  0  0
  3 25  1  0  0  0  0
  3 15  1  0  0  0  0
  4  9  1  0  0  0  0
  4  2  2  0  0  0  0
  5 18  1  0  0  0  0
  6 15  2  0  0  0  0
  6 17  1  0  0  0  0
  7 11  1  0  0  0  0
  8 14  2  0  0  0  0
  8 16  1  0  0  0  0
  9  3  1  0  0  0  0
 11 10  1  0  0  0  0
 12  9  2  0  0  0  0
 13  5  1  0  0  0  0
 13 11  2  0  0  0  0
 14 12  1  0  0  0  0
 15 13  1  0  0  0  0
 16  4  1  0  0  0  0
 17  7  2  0  0  0  0
 18 10  2  0  0  0  0
 19 20  1  0  0  0  0
 20 21  1  0  0  0  0
 21 22  1  0  0  0  0
 21  8  1  1  0  0  0
 23 19  2  0  0  0  0
 23 24  1  0  0  0  0
 24 22  1  0  0  0  0
 26 25  1  0  0  0  0
 26 27  1  0  0  0  0
 28 27  1  0  0  0  0
 28 29  1  0  0  0  0
 31 29  1  0  0  0  0
 31 30  1  1  0  0  0
 32 33  1  0  0  0  0
 33 34  1  0  0  0  0
 34 31  1  1  0  0  0
 35 39  1  6  0  0  0
 35 32  1  0  0  0  0
 35 36  1  0  0  0  0
 36 37  2  6  0  0  0
 36 38  1  0  0  0  0
 36 34  1  0  0  0  0
 40 41  1  0  0  0  0
 40 35  1  0  0  0  0
 42 41  1  0  0  0  0
M  END
>  <MODEL>
7

>  <REMARK>
 VINA RESULT:      -8.7      3.110      7.336
  Name = 
  10 active torsions:
  status: ('A' for Active; 'I' for Inactive)
    1  A    between atoms: C_5  and  C_36
    2  A    between atoms: N_6  and  N_21
    3  A    between atoms: C_7  and  C_25
    4  A    between atoms: N_8  and  C_25
    5  A    between atoms: C_13  and  C_20
    6  A    between atoms: C_15  and  C_17
    7  A    between atoms: C_15  and  C_41
    8  A    between atoms: C_17  and  C_22
    9  A    between atoms: N_21  and  C_22
   10  A    between atoms: C_36  and  C_41
                            x       y       z     vdW  Elec       q    Type
                         _______ _______ _______ _____ _____    ______ ____

>  <TORSDO>
F 10

$$$$
=
 OpenBabel10222419273D

 42 47  0  0  1  0  0  0  0  0999 V2000
  183.4470  178.0740  140.3160 N   0  0  0  0  0  1  0  0  0  0  0  0
  184.9330  178.5050  145.7920 C   0  0  0  0  0  3  0  0  0  0  0  0
  186.8340  177.7040  143.8510 N   0  0  0  0  0  0  0  0  0  0  0  0
  184.5500  178.4440  144.3770 C   0  0  0  0  0  0  0  0  0  0  0  0
  189.9920  177.2440  144.9630 S   0  0  0  0  0  0  0  0  0  0  0  0
  186.2070  178.3640  146.1590 C   0  0  0  0  0  0  0  0  0  0  0  0
  187.7060  177.8820  148.0010 N   0  0  0  0  0  0  0  0  0  0  0  0
  182.8560  178.6280  142.6500 C   0  0  0  0  0  0  0  0  0  0  0  0
  185.4900  178.0160  143.4270 C   0  0  2  0  0  3  0  0  0  0  0  0
  189.9940  177.0570  147.4470 C   0  0  0  0  0  3  0  0  0  0  0  0
  188.7220  177.4990  147.0670 C   0  0  0  0  0  0  0  0  0  0  0  0
  185.1060  177.8970  142.0840 C   0  0  0  0  0  3  0  0  0  0  0  0
  188.5310  177.6160  145.7010 C   0  0  0  0  0  0  0  0  0  0  0  0
  183.8000  178.2030  141.6900 C   0  0  0  0  0  0  0  0  0  0  0  0
  187.3160  178.2930  145.1150 C   0  0  0  0  0  0  0  0  0  0  0  0
  183.2420  178.7380  143.9900 C   0  0  0  0  0  3  0  0  0  0  0  0
  186.5350  178.2820  147.5990 C   0  0  0  0  0  3  0  0  0  0  0  0
  190.8470  176.8490  146.3640 C   0  0  0  0  0  3  0  0  0  0  0  0
  179.9860  180.3540  140.7790 C   0  0  0  0  0  3  0  0  0  0  0  0
  181.3480  179.7420  140.9900 C   0  0  0  0  0  2  0  0  0  0  0  0
  181.4360  178.9660  142.3020 C   0  0  2  0  0  3  0  0  0  0  0  0
  180.7460  179.7340  143.4210 C   0  0  0  0  0  2  0  0  0  0  0  0
  179.1060  180.4500  141.7210 N   0  0  0  0  0  0  0  0  0  0  0  0
  179.2770  179.8920  143.0510 C   0  0  0  0  0  2  0  0  0  0  0  0
  187.7480  177.1870  142.9170 N   0  0  0  0  0  2  0  0  0  0  0  0
  188.4690  178.3120  142.3450 C   0  0  0  0  0  2  0  0  0  0  0  0
  188.3730  178.2550  140.8350 C   0  0  0  0  0  2  0  0  0  0  0  0
  189.0960  177.0240  140.3320 C   0  0  0  0  0  2  0  0  0  0  0  0
  189.9800  177.4050  139.1620 C   0  0  0  0  0  2  0  0  0  0  0  0
  188.3650  176.9560  137.4740 O   0  0  0  0  0  1  0  0  0  0  0  0
  189.6220  176.5680  137.9450 C   0  0  1  0  0  3  0  0  0  0  0  0
  191.2270  176.2240  134.7230 C   0  0  0  0  0  2  0  0  0  0  0  0
  190.1310  176.4310  135.5890 O   0  0  0  0  0  0  0  0  0  0  0  0
  190.6680  176.7580  136.8490 C   0  0  2  0  0  3  0  0  0  0  0  0
  192.2380  175.2900  135.3730 C   0  0  1  0  0  0  0  0  0  0  0  0
  192.0980  175.6860  137.1100 P   0  0  1  0  0  0  0  0  0  0  0  0
  193.4240  176.5400  137.7230 O   0  0  0  0  0  0  0  0  0  0  0  0
  191.7790  174.4710  137.9530 O   0  0  0  0  0  1  0  0  0  0  0  0
  191.8740  173.9600  135.1530 O   0  0  0  0  0  1  0  0  0  0  0  0
  193.6530  175.5500  134.8690 C   0  0  0  0  0  2  0  0  0  0  0  0
  194.5730  174.5390  135.3660 N   0  0  0  0  0  2  0  0  0  0  0  0
  195.9040  175.1100  135.2760 C   0  0  0  0  0  1  0  0  0  0  0  0
  1 14  1  0  0  0  0
  2  6  1  0  0  0  0
  3 15  1  0  0  0  0
  4  2  2  0  0  0  0
  5 13  1  0  0  0  0
  5 18  1  0  0  0  0
  6 17  1  0  0  0  0
  8 16  2  0  0  0  0
  9 12  1  1  0  0  0
  9  3  1  0  0  0  0
  9  4  1  0  0  0  0
 11 10  1  0  0  0  0
 11  7  1  0  0  0  0
 13 11  2  0  0  0  0
 14 12  2  0  0  0  0
 14  8  1  0  0  0  0
 15 13  1  0  0  0  0
 15  6  2  0  0  0  0
 16  4  1  0  0  0  0
 17  7  2  0  0  0  0
 18 10  2  0  0  0  0
 19 20  1  0  0  0  0
 19 23  2  0  0  0  0
 20 21  1  0  0  0  0
 21  8  1  1  0  0  0
 21 22  1  0  0  0  0
 23 24  1  0  0  0  0
 24 22  1  0  0  0  0
 25  3  1  0  0  0  0
 26 25  1  0  0  0  0
 27 26  1  0  0  0  0
 28 27  1  0  0  0  0
 29 28  1  0  0  0  0
 31 30  1  6  0  0  0
 31 29  1  0  0  0  0
 32 35  1  0  0  0  0
 32 33  1  0  0  0  0
 33 34  1  0  0  0  0
 34 36  1  0  0  0  0
 34 31  1  1  0  0  0
 35 39  1  6  0  0  0
 35 36  1  0  0  0  0
 36 37  2  1  0  0  0
 36 38  1  0  0  0  0
 40 41  1  0  0  0  0
 40 35  1  0  0  0  0
 42 41  1  0  0  0  0
M  END
>  <MODEL>
8

>  <REMARK>
 VINA RESULT:      -8.2      2.663      3.909
  Name = 
  10 active torsions:
  status: ('A' for Active; 'I' for Inactive)
    1  A    between atoms: C_5  and  C_36
    2  A    between atoms: N_6  and  N_21
    3  A    between atoms: C_7  and  C_25
    4  A    between atoms: N_8  and  C_25
    5  A    between atoms: C_13  and  C_20
    6  A    between atoms: C_15  and  C_17
    7  A    between atoms: C_15  and  C_41
    8  A    between atoms: C_17  and  C_22
    9  A    between atoms: N_21  and  C_22
   10  A    between atoms: C_36  and  C_41
                            x       y       z     vdW  Elec       q    Type
                         _______ _______ _______ _____ _____    ______ ____

>  <TORSDO>
F 10

$$$$
=
 OpenBabel10222419273D

 42 47  0  0  1  0  0  0  0  0999 V2000
  186.4420  177.8890  143.5650 N   0  0  0  0  0  1  0  0  0  0  0  0
  191.6850  177.2090  141.4580 C   0  0  0  0  0  3  0  0  0  0  0  0
  189.4290  177.1000  139.7490 N   0  0  0  0  0  0  0  0  0  0  0  0
  190.3430  177.4340  142.0060 C   0  0  0  0  0  0  0  0  0  0  0  0
  190.0780  176.7570  136.4490 S   0  0  0  0  0  0  0  0  0  0  0  0
  191.8790  177.1330  140.1410 C   0  0  0  0  0  0  0  0  0  0  0  0
  193.3910  176.4120  138.3910 N   0  0  0  0  0  0  0  0  0  0  0  0
  188.8880  177.8180  143.9100 C   0  0  0  0  0  0  0  0  0  0  0  0
  189.2280  177.3470  141.1560 C   0  0  0  0  0  0  0  0  0  0  0  0
  192.4300  176.0030  136.1250 C   0  0  0  0  0  3  0  0  0  0  0  0
  192.2960  176.3740  137.4680 C   0  0  0  0  0  0  0  0  0  0  0  0
  187.9420  177.4980  141.6910 C   0  0  0  0  0  3  0  0  0  0  0  0
  191.0250  176.7800  137.8350 C   0  0  0  0  0  0  0  0  0  0  0  0
  187.7650  177.7360  143.0570 C   0  0  0  0  0  0  0  0  0  0  0  0
  190.7440  177.4320  139.1670 C   0  0  1  0  0  3  0  0  0  0  0  0
  190.1700  177.6580  143.3720 C   0  0  0  0  0  3  0  0  0  0  0  0
  193.2160  176.7590  139.6330 C   0  0  0  0  0  3  0  0  0  0  0  0
  191.2490  176.1490  135.3970 C   0  0  0  0  0  3  0  0  0  0  0  0
  189.7440  177.4580  147.6320 C   0  0  0  0  0  3  0  0  0  0  0  0
  189.9760  177.5000  146.1420 C   0  0  0  0  0  2  0  0  0  0  0  0
  188.7750  178.0630  145.3860 C   0  0  2  0  0  3  0  0  0  0  0  0
  187.4790  177.5040  145.9550 C   0  0  0  0  0  2  0  0  0  0  0  0
  188.5750  177.6070  148.1640 N   0  0  0  0  0  0  0  0  0  0  0  0
  187.3760  177.9360  147.4120 C   0  0  0  0  0  2  0  0  0  0  0  0
  188.3120  176.9200  138.9150 N   0  0  0  0  0  2  0  0  0  0  0  0
  187.7300  178.2310  138.6770 C   0  0  0  0  0  2  0  0  0  0  0  0
  186.6870  178.1270  137.5860 C   0  0  0  0  0  2  0  0  0  0  0  0
  186.5030  176.6740  137.2040 C   0  0  0  0  0  2  0  0  0  0  0  0
  185.0480  176.2890  137.3800 C   0  0  0  0  0  2  0  0  0  0  0  0
  183.3140  177.6770  136.5260 O   0  0  0  0  0  1  0  0  0  0  0  0
  184.2020  177.5340  137.5950 C   0  0  1  0  0  3  0  0  0  0  0  0
  181.3740  177.5780  139.8480 C   0  0  0  0  0  2  0  0  0  0  0  0
  182.0480  177.2550  138.6500 O   0  0  0  0  0  0  0  0  0  0  0  0
  183.4240  177.4210  138.9040 C   0  0  2  0  0  3  0  0  0  0  0  0
  181.8810  178.9060  140.3930 C   0  0  1  0  0  0  0  0  0  0  0  0
  183.6020  178.9120  139.9080 P   0  0  1  0  0  0  0  0  0  0  0  0
  184.6730  178.6810  141.1970 O   0  0  0  0  0  1  0  0  0  0  0  0
  183.9640  180.1320  139.0910 O   0  0  0  0  0  0  0  0  0  0  0  0
  181.2070  179.9660  139.7830 O   0  0  0  0  0  1  0  0  0  0  0  0
  181.7440  178.9830  141.9090 C   0  0  0  0  0  2  0  0  0  0  0  0
  180.3770  179.3000  142.2890 N   0  0  0  0  0  2  0  0  0  0  0  0
  180.1320  178.6290  143.5520 C   0  0  0  0  0  1  0  0  0  0  0  0
  2  4  1  0  0  0  0
  3  9  1  0  0  0  0
  4 16  1  0  0  0  0
  5 13  1  0  0  0  0
  6  2  2  0  0  0  0
  7 17  2  0  0  0  0
  9 12  1  0  0  0  0
  9  4  2  0  0  0  0
 10 11  1  0  0  0  0
 11 13  2  0  0  0  0
 11  7  1  0  0  0  0
 12 14  2  0  0  0  0
 14  1  1  0  0  0  0
 14  8  1  0  0  0  0
 15 13  1  6  0  0  0
 15  3  1  0  0  0  0
 15  6  1  0  0  0  0
 16  8  2  0  0  0  0
 17  6  1  0  0  0  0
 18 10  2  0  0  0  0
 18  5  1  0  0  0  0
 19 23  2  0  0  0  0
 20 19  1  0  0  0  0
 21  8  1  6  0  0  0
 21 22  1  0  0  0  0
 21 20  1  0  0  0  0
 22 24  1  0  0  0  0
 24 23  1  0  0  0  0
 25  3  1  0  0  0  0
 26 25  1  0  0  0  0
 27 26  1  0  0  0  0
 28 29  1  0  0  0  0
 28 27  1  0  0  0  0
 29 31  1  0  0  0  0
 31 30  1  6  0  0  0
 32 35  1  0  0  0  0
 33 34  1  0  0  0  0
 33 32  1  0  0  0  0
 34 31  1  6  0  0  0
 34 36  1  0  0  0  0
 35 39  1  6  0  0  0
 35 40  1  0  0  0  0
 36 38  2  6  0  0  0
 36 35  1  0  0  0  0
 36 37  1  0  0  0  0
 40 41  1  0  0  0  0
 41 42  1  0  0  0  0
M  END
>  <MODEL>
9

>  <REMARK>
 VINA RESULT:      -8.1      2.831      7.179
  Name = 
  10 active torsions:
  status: ('A' for Active; 'I' for Inactive)
    1  A    between atoms: C_5  and  C_36
    2  A    between atoms: N_6  and  N_21
    3  A    between atoms: C_7  and  C_25
    4  A    between atoms: N_8  and  C_25
    5  A    between atoms: C_13  and  C_20
    6  A    between atoms: C_15  and  C_17
    7  A    between atoms: C_15  and  C_41
    8  A    between atoms: C_17  and  C_22
    9  A    between atoms: N_21  and  C_22
   10  A    between atoms: C_36  and  C_41
                            x       y       z     vdW  Elec       q    Type
                         _______ _______ _______ _____ _____    ______ ____

>  <TORSDO>
F 10

$$$$
