=
 OpenBabel10222415133D

 34 38  0  0  1  0  0  0  0  0999 V2000
  189.3350  178.1390  142.7670 N   0  0  0  0  0  0  0  0  0  0  0  0
  190.5950  177.6340  143.3300 C   0  0  2  0  0  3  0  0  0  0  0  0
  189.3370  176.8860  143.5420 C   0  0  1  0  0  3  0  0  0  0  0  0
  188.6490  177.0910  144.8710 C   0  0  0  0  0  0  0  0  0  0  0  0
  189.2460  176.7670  145.9320 O   0  0  0  0  0  0  0  0  0  0  0  0
  184.2170  178.4890  143.1340 N   0  0  0  0  0  0  0  0  0  0  0  0
  183.2180  179.0820  143.8270 C   0  0  0  0  0  0  0  0  0  0  0  0
  185.2000  178.3690  144.0400 C   0  0  0  0  0  0  0  0  0  0  0  0
  186.5150  177.7620  143.8830 C   0  0  0  0  0  3  0  0  0  0  0  0
  183.5450  179.3300  145.0820 O   0  0  0  0  0  0  0  0  0  0  0  0
  186.8870  178.2350  146.2060 O   0  0  0  0  0  0  0  0  0  0  0  0
  184.7730  178.8860  145.2240 C   0  0  0  0  0  0  0  0  0  0  0  0
  185.6320  178.9090  146.4420 C   0  0  1  0  0  3  0  0  0  0  0  0
  182.0930  179.3610  143.3320 O   0  0  0  0  0  0  0  0  0  0  0  0
  187.3140  177.7100  144.9600 C   0  0  0  0  0  0  0  0  0  0  0  0
  184.9720  178.2980  147.4910 F   0  0  0  0  0  0  0  0  0  0  0  0
  184.2000  178.0110  141.7580 C   0  0  0  0  0  2  0  0  0  0  0  0
  183.8180  179.3470  139.4170 S   0  0  0  0  0  1  0  0  0  0  0  0
  184.8760  179.0210  140.8520 C   0  0  0  0  0  2  0  0  0  0  0  0
  191.0370  178.5480  144.4680 C   0  0  0  0  0  2  0  0  0  0  0  0
  191.0330  179.8720  144.0310 O   0  0  0  0  0  1  0  0  0  0  0  0
  189.3160  177.7580  141.3650 C   0  0  0  0  0  2  0  0  0  0  0  0
  190.5300  176.9050  141.0490 C   0  0  0  0  0  2  0  0  0  0  0  0
  190.3170  176.1870  139.8050 N   0  0  0  0  0  2  0  0  0  0  0  0
  191.1990  176.7830  138.8180 C   0  0  0  0  0  2  0  0  0  0  0  0
  190.4860  176.8800  137.4810 C   0  0  1  0  0  3  0  0  0  0  0  0
  185.9750  176.0750  137.0020 C   0  0  0  0  0  1  0  0  0  0  0  0
  187.1400  178.8850  137.5310 N   0  0  0  0  0  1  0  0  0  0  0  0
  189.7570  175.6670  137.2290 N   0  0  0  0  0  0  0  0  0  0  0  0
  189.3840  177.9820  137.5630 C   0  0  0  0  0  3  0  0  0  0  0  0
  188.0140  177.7680  137.4290 C   0  0  0  0  0  0  0  0  0  0  0  0
  187.4180  176.3950  137.1720 C   0  0  0  0  0  0  0  0  0  0  0  0
  189.2110  174.4010  136.9830 N   0  0  0  0  0  2  0  0  0  0  0  0
  188.3780  175.5270  137.1040 C   0  0  0  0  0  0  0  0  0  0  0  0
  1  2  1  0  0  0  0
  1  3  1  0  0  0  0
  2  3  1  0  0  0  0
  2 20  1  1  0  0  0
  3  4  1  1  0  0  0
  4 15  1  0  0  0  0
  4  5  2  0  0  0  0
  6  7  1  0  0  0  0
  6  8  1  0  0  0  0
  7 10  1  0  0  0  0
  8 12  2  0  0  0  0
  9  8  1  0  0  0  0
  9 15  2  0  0  0  0
 10 12  1  0  0  0  0
 11 13  1  0  0  0  0
 12 13  1  0  0  0  0
 13 16  1  1  0  0  0
 14  7  2  0  0  0  0
 15 11  1  0  0  0  0
 17  6  1  0  0  0  0
 18 19  1  0  0  0  0
 19 17  1  0  0  0  0
 21 20  1  0  0  0  0
 22  1  1  0  0  0  0
 23 22  1  0  0  0  0
 24 23  1  0  0  0  0
 25 24  1  0  0  0  0
 26 30  1  0  0  0  0
 26 25  1  1  0  0  0
 27 32  1  0  0  0  0
 29 26  1  0  0  0  0
 31 28  1  0  0  0  0
 31 30  2  0  0  0  0
 32 31  1  0  0  0  0
 33 34  1  0  0  0  0
 33 29  1  0  0  0  0
 34 32  2  0  0  0  0
 34 29  1  0  0  0  0
M  END
>  <MODEL>
1

>  <REMARK>
 VINA RESULT:      -8.2      0.000      0.000
  Name = 
  10 active torsions:
  status: ('A' for Active; 'I' for Inactive)
    1  A    between atoms: C_1  and  C_30
    2  A    between atoms: C_2  and  C_13
    3  A    between atoms: C_2  and  C_28
    4  A    between atoms: N_3  and  C_25
    5  A    between atoms: N_4  and  C_19
    6  A    between atoms: C_9  and  C_12
    7  A    between atoms: N_16  and  C_30
    8  A    between atoms: N_16  and  C_34
    9  A    between atoms: C_19  and  C_34
   10  A    between atoms: C_25  and  C_32
                            x       y       z     vdW  Elec       q    Type
                         _______ _______ _______ _____ _____    ______ ____

>  <TORSDO>
F 10

$$$$
=
 OpenBabel10222415133D

 34 38  0  0  1  0  0  0  0  0999 V2000
  190.0470  177.4970  143.3060 N   0  0  0  0  0  0  0  0  0  0  0  0
  191.5110  177.5910  143.4010 C   0  0  2  0  0  3  0  0  0  0  0  0
  190.7830  176.5590  144.1720 C   0  0  1  0  0  3  0  0  0  0  0  0
  190.5160  176.8700  145.6270 C   0  0  0  0  0  0  0  0  0  0  0  0
  191.4380  176.7150  146.4710 O   0  0  0  0  0  0  0  0  0  0  0  0
  185.7880  178.2580  145.0520 N   0  0  0  0  0  0  0  0  0  0  0  0
  184.9440  178.7000  146.0120 C   0  0  0  0  0  0  0  0  0  0  0  0
  186.9420  178.0680  145.7110 C   0  0  0  0  0  0  0  0  0  0  0  0
  188.2080  177.5570  145.2030 C   0  0  0  0  0  3  0  0  0  0  0  0
  185.5210  178.7940  147.1960 O   0  0  0  0  0  0  0  0  0  0  0  0
  189.0490  177.7320  147.4440 O   0  0  0  0  0  0  0  0  0  0  0  0
  186.7620  178.3990  147.0180 C   0  0  0  0  0  0  0  0  0  0  0  0
  187.8570  178.3020  148.0260 C   0  0  1  0  0  3  0  0  0  0  0  0
  183.7340  178.9840  145.8040 O   0  0  0  0  0  0  0  0  0  0  0  0
  189.2160  177.4020  146.0740 C   0  0  0  0  0  0  0  0  0  0  0  0
  187.4460  177.5220  149.0890 F   0  0  0  0  0  0  0  0  0  0  0  0
  185.4920  177.9690  143.6550 C   0  0  0  0  0  2  0  0  0  0  0  0
  184.9550  178.8970  141.1530 S   0  0  0  0  0  1  0  0  0  0  0  0
  185.4360  179.2600  142.8620 C   0  0  0  0  0  2  0  0  0  0  0  0
  191.8830  178.8620  144.1580 C   0  0  0  0  0  2  0  0  0  0  0  0
  190.9330  179.8490  143.9050 O   0  0  0  0  0  1  0  0  0  0  0  0
  189.7490  176.7790  142.0790 C   0  0  0  0  0  2  0  0  0  0  0  0
  188.7210  177.5490  141.2700 C   0  0  0  0  0  2  0  0  0  0  0  0
  188.9740  177.3670  139.8520 N   0  0  0  0  0  2  0  0  0  0  0  0
  190.3510  176.9270  139.7220 C   0  0  0  0  0  2  0  0  0  0  0  0
  190.7080  176.7770  138.2550 C   0  0  1  0  0  3  0  0  0  0  0  0
  187.8400  174.9060  135.1720 C   0  0  0  0  0  1  0  0  0  0  0  0
  187.9500  177.9370  135.7510 N   0  0  0  0  0  1  0  0  0  0  0  0
  190.5110  175.4140  137.8420 N   0  0  0  0  0  0  0  0  0  0  0  0
  189.6960  177.5910  137.3910 C   0  0  0  0  0  3  0  0  0  0  0  0
  188.8120  177.0530  136.4570 C   0  0  0  0  0  0  0  0  0  0  0  0
  188.7380  175.5660  136.1580 C   0  0  0  0  0  0  0  0  0  0  0  0
  190.4520  174.0430  137.5620 N   0  0  0  0  0  2  0  0  0  0  0  0
  189.6060  174.9470  136.8940 C   0  0  0  0  0  0  0  0  0  0  0  0
  1  2  1  0  0  0  0
  1  3  1  0  0  0  0
  2 20  1  1  0  0  0
  2  3  1  0  0  0  0
  3  4  1  1  0  0  0
  4 15  1  0  0  0  0
  4  5  2  0  0  0  0
  6  8  1  0  0  0  0
  6  7  1  0  0  0  0
  7 10  1  0  0  0  0
  8 12  2  0  0  0  0
  9  8  1  0  0  0  0
  9 15  2  0  0  0  0
 11 13  1  0  0  0  0
 12 10  1  0  0  0  0
 12 13  1  0  0  0  0
 13 16  1  1  0  0  0
 14  7  2  0  0  0  0
 15 11  1  0  0  0  0
 17  6  1  0  0  0  0
 18 19  1  0  0  0  0
 19 17  1  0  0  0  0
 21 20  1  0  0  0  0
 22  1  1  0  0  0  0
 23 22  1  0  0  0  0
 24 23  1  0  0  0  0
 25 24  1  0  0  0  0
 26 25  1  1  0  0  0
 27 32  1  0  0  0  0
 28 31  1  0  0  0  0
 29 26  1  0  0  0  0
 30 26  1  0  0  0  0
 31 30  2  0  0  0  0
 32 31  1  0  0  0  0
 32 34  2  0  0  0  0
 33 29  1  0  0  0  0
 34 33  1  0  0  0  0
 34 29  1  0  0  0  0
M  END
>  <MODEL>
2

>  <REMARK>
 VINA RESULT:      -8.0      1.617      2.041
  Name = 
  10 active torsions:
  status: ('A' for Active; 'I' for Inactive)
    1  A    between atoms: C_1  and  C_30
    2  A    between atoms: C_2  and  C_13
    3  A    between atoms: C_2  and  C_28
    4  A    between atoms: N_3  and  C_25
    5  A    between atoms: N_4  and  C_19
    6  A    between atoms: C_9  and  C_12
    7  A    between atoms: N_16  and  C_30
    8  A    between atoms: N_16  and  C_34
    9  A    between atoms: C_19  and  C_34
   10  A    between atoms: C_25  and  C_32
                            x       y       z     vdW  Elec       q    Type
                         _______ _______ _______ _____ _____    ______ ____

>  <TORSDO>
F 10

$$$$
=
 OpenBabel10222415133D

 34 38  0  0  1  0  0  0  0  0999 V2000
  184.9610  178.2290  143.2970 N   0  0  0  0  0  0  0  0  0  0  0  0
  183.9320  179.2420  143.5710 C   0  0  2  0  0  3  0  0  0  0  0  0
  185.2590  179.3410  144.2170 C   0  0  1  0  0  3  0  0  0  0  0  0
  185.3550  178.8350  145.6370 C   0  0  0  0  0  0  0  0  0  0  0  0
  184.3260  178.8380  146.3640 O   0  0  0  0  0  0  0  0  0  0  0  0
  190.0660  177.3020  145.3800 N   0  0  0  0  0  0  0  0  0  0  0  0
  190.8440  176.8770  146.4010 C   0  0  0  0  0  0  0  0  0  0  0  0
  188.8840  177.5480  145.9650 C   0  0  0  0  0  0  0  0  0  0  0  0
  187.6620  178.0720  145.3680 C   0  0  0  0  0  3  0  0  0  0  0  0
  190.2000  176.8450  147.5540 O   0  0  0  0  0  0  0  0  0  0  0  0
  186.6960  178.0080  147.5640 O   0  0  0  0  0  0  0  0  0  0  0  0
  188.9830  177.2650  147.2920 C   0  0  0  0  0  0  0  0  0  0  0  0
  187.8370  177.4310  148.2330 C   0  0  1  0  0  3  0  0  0  0  0  0
  192.0540  176.5530  146.2710 O   0  0  0  0  0  0  0  0  0  0  0  0
  186.6130  178.2870  146.1760 C   0  0  0  0  0  0  0  0  0  0  0  0
  188.2120  178.2410  149.2870 F   0  0  0  0  0  0  0  0  0  0  0  0
  190.4450  177.5270  143.9910 C   0  0  0  0  0  2  0  0  0  0  0  0
  190.2950  176.6840  141.4070 S   0  0  0  0  0  1  0  0  0  0  0  0
  190.1550  176.2870  143.1700 C   0  0  0  0  0  2  0  0  0  0  0  0
  182.8200  178.6140  144.4050 C   0  0  0  0  0  2  0  0  0  0  0  0
  181.5820  178.9410  143.8540 O   0  0  0  0  0  1  0  0  0  0  0  0
  185.5650  178.5750  142.0220 C   0  0  0  0  0  2  0  0  0  0  0  0
  184.4890  179.0180  141.0480 C   0  0  0  0  0  2  0  0  0  0  0  0
  185.0870  179.3310  139.7620 N   0  0  0  0  0  2  0  0  0  0  0  0
  184.8800  178.1740  138.9080 C   0  0  0  0  0  2  0  0  0  0  0  0
  185.8740  178.1950  137.7620 C   0  0  1  0  0  3  0  0  0  0  0  0
  189.5890  175.4720  137.6390 C   0  0  0  0  0  1  0  0  0  0  0  0
  186.8820  174.6880  136.3790 N   0  0  0  0  0  1  0  0  0  0  0  0
  187.2050  178.3760  138.2750 N   0  0  0  0  0  0  0  0  0  0  0  0
  185.9110  176.7900  137.0840 C   0  0  0  0  0  3  0  0  0  0  0  0
  187.0160  175.9420  137.0370 C   0  0  0  0  0  0  0  0  0  0  0  0
  188.3560  176.3050  137.6530 C   0  0  0  0  0  0  0  0  0  0  0  0
  188.4420  178.7170  138.8360 N   0  0  0  0  0  2  0  0  0  0  0  0
  188.2670  177.4810  138.1880 C   0  0  0  0  0  0  0  0  0  0  0  0
  1  2  1  0  0  0  0
  1  3  1  0  0  0  0
  2  3  1  0  0  0  0
  2 20  1  1  0  0  0
  3  4  1  1  0  0  0
  4 15  1  0  0  0  0
  4  5  2  0  0  0  0
  6  8  1  0  0  0  0
  6  7  1  0  0  0  0
  7 10  1  0  0  0  0
  8 12  2  0  0  0  0
  9  8  1  0  0  0  0
  9 15  2  0  0  0  0
 11 13  1  0  0  0  0
 12 10  1  0  0  0  0
 12 13  1  0  0  0  0
 13 16  1  1  0  0  0
 14  7  2  0  0  0  0
 15 11  1  0  0  0  0
 17  6  1  0  0  0  0
 18 19  1  0  0  0  0
 19 17  1  0  0  0  0
 21 20  1  0  0  0  0
 22  1  1  0  0  0  0
 23 22  1  0  0  0  0
 24 23  1  0  0  0  0
 25 24  1  0  0  0  0
 26 29  1  0  0  0  0
 26 25  1  1  0  0  0
 27 32  1  0  0  0  0
 28 31  1  0  0  0  0
 29 33  1  0  0  0  0
 30 26  1  0  0  0  0
 31 30  2  0  0  0  0
 31 32  1  0  0  0  0
 32 34  2  0  0  0  0
 34 29  1  0  0  0  0
 34 33  1  0  0  0  0
M  END
>  <MODEL>
3

>  <REMARK>
 VINA RESULT:      -7.9      2.211      5.527
  Name = 
  10 active torsions:
  status: ('A' for Active; 'I' for Inactive)
    1  A    between atoms: C_1  and  C_30
    2  A    between atoms: C_2  and  C_13
    3  A    between atoms: C_2  and  C_28
    4  A    between atoms: N_3  and  C_25
    5  A    between atoms: N_4  and  C_19
    6  A    between atoms: C_9  and  C_12
    7  A    between atoms: N_16  and  C_30
    8  A    between atoms: N_16  and  C_34
    9  A    between atoms: C_19  and  C_34
   10  A    between atoms: C_25  and  C_32
                            x       y       z     vdW  Elec       q    Type
                         _______ _______ _______ _____ _____    ______ ____

>  <TORSDO>
F 10

$$$$
=
 OpenBabel10222415133D

 34 38  0  0  1  0  0  0  0  0999 V2000
  182.9810  178.8260  141.3310 N   0  0  0  0  0  0  0  0  0  0  0  0
  183.4210  177.4530  141.0440 C   0  0  2  0  0  3  0  0  0  0  0  0
  184.4180  178.5400  141.1680 C   0  0  1  0  0  3  0  0  0  0  0  0
  184.9270  179.1360  139.8760 C   0  0  0  0  0  0  0  0  0  0  0  0
  184.2850  180.0740  139.3340 O   0  0  0  0  0  0  0  0  0  0  0  0
  189.4660  177.1350  139.8840 N   0  0  0  0  0  0  0  0  0  0  0  0
  190.2530  176.8890  138.8120 C   0  0  0  0  0  0  0  0  0  0  0  0
  188.3810  177.7190  139.3520 C   0  0  0  0  0  0  0  0  0  0  0  0
  187.1690  178.1710  140.0210 C   0  0  0  0  0  3  0  0  0  0  0  0
  189.7120  177.2960  137.6780 O   0  0  0  0  0  0  0  0  0  0  0  0
  186.3330  178.7760  137.8540 O   0  0  0  0  0  0  0  0  0  0  0  0
  188.5470  177.8090  138.0050 C   0  0  0  0  0  0  0  0  0  0  0  0
  187.5170  178.4140  137.1120 C   0  0  1  0  0  3  0  0  0  0  0  0
  191.3770  176.3250  138.8830 O   0  0  0  0  0  0  0  0  0  0  0  0
  186.1870  178.6800  139.2620 C   0  0  0  0  0  0  0  0  0  0  0  0
  187.1790  177.5190  136.1150 F   0  0  0  0  0  0  0  0  0  0  0  0
  189.6990  176.7700  141.2760 C   0  0  0  0  0  2  0  0  0  0  0  0
  191.6410  177.3480  143.0940 S   0  0  0  0  0  1  0  0  0  0  0  0
  190.3060  177.9420  142.0210 C   0  0  0  0  0  2  0  0  0  0  0  0
  183.0030  177.0800  139.6250 C   0  0  0  0  0  2  0  0  0  0  0  0
  182.1050  176.0150  139.6690 O   0  0  0  0  0  1  0  0  0  0  0  0
  182.7340  178.9000  142.7600 C   0  0  0  0  0  2  0  0  0  0  0  0
  184.0040  178.5600  143.5180 C   0  0  0  0  0  2  0  0  0  0  0  0
  183.9400  179.1130  144.8600 N   0  0  0  0  0  2  0  0  0  0  0  0
  185.3090  179.2580  145.3210 C   0  0  0  0  0  2  0  0  0  0  0  0
  185.7950  177.9480  145.9140 C   0  0  1  0  0  3  0  0  0  0  0  0
  190.2580  177.0180  146.5790 C   0  0  0  0  0  1  0  0  0  0  0  0
  188.4610  178.2940  148.7410 N   0  0  0  0  0  1  0  0  0  0  0  0
  186.7840  177.3600  145.0510 N   0  0  0  0  0  0  0  0  0  0  0  0
  186.5630  178.2340  147.2420 C   0  0  0  0  0  3  0  0  0  0  0  0
  187.9120  177.9700  147.4690 C   0  0  0  0  0  0  0  0  0  0  0  0
  188.8160  177.3470  146.4200 C   0  0  0  0  0  0  0  0  0  0  0  0
  187.6130  176.7770  144.0850 N   0  0  0  0  0  2  0  0  0  0  0  0
  188.1230  177.1230  145.3490 C   0  0  0  0  0  0  0  0  0  0  0  0
  1 22  1  0  0  0  0
  2 20  1  6  0  0  0
  2  3  1  0  0  0  0
  2  1  1  0  0  0  0
  3  4  1  6  0  0  0
  3  1  1  0  0  0  0
  5  4  2  0  0  0  0
  6 17  1  0  0  0  0
  7 14  2  0  0  0  0
  7  6  1  0  0  0  0
  8  6  1  0  0  0  0
  8  9  1  0  0  0  0
 10 12  1  0  0  0  0
 10  7  1  0  0  0  0
 11 15  1  0  0  0  0
 12  8  2  0  0  0  0
 13 16  1  6  0  0  0
 13 11  1  0  0  0  0
 13 12  1  0  0  0  0
 15  4  1  0  0  0  0
 15  9  2  0  0  0  0
 17 19  1  0  0  0  0
 19 18  1  0  0  0  0
 20 21  1  0  0  0  0
 22 23  1  0  0  0  0
 23 24  1  0  0  0  0
 24 25  1  0  0  0  0
 26 25  1  6  0  0  0
 26 30  1  0  0  0  0
 29 34  1  0  0  0  0
 29 26  1  0  0  0  0
 30 31  2  0  0  0  0
 31 28  1  0  0  0  0
 32 27  1  0  0  0  0
 32 31  1  0  0  0  0
 33 29  1  0  0  0  0
 33 34  1  0  0  0  0
 34 32  2  0  0  0  0
M  END
>  <MODEL>
4

>  <REMARK>
 VINA RESULT:      -7.9      3.911      8.507
  Name = 
  10 active torsions:
  status: ('A' for Active; 'I' for Inactive)
    1  A    between atoms: C_1  and  C_30
    2  A    between atoms: C_2  and  C_13
    3  A    between atoms: C_2  and  C_28
    4  A    between atoms: N_3  and  C_25
    5  A    between atoms: N_4  and  C_19
    6  A    between atoms: C_9  and  C_12
    7  A    between atoms: N_16  and  C_30
    8  A    between atoms: N_16  and  C_34
    9  A    between atoms: C_19  and  C_34
   10  A    between atoms: C_25  and  C_32
                            x       y       z     vdW  Elec       q    Type
                         _______ _______ _______ _____ _____    ______ ____

>  <TORSDO>
F 10

$$$$
=
 OpenBabel10222415133D

 34 38  0  0  1  0  0  0  0  0999 V2000
  190.5200  176.6200  140.3880 N   0  0  0  0  0  0  0  0  0  0  0  0
  189.8510  177.8290  140.8920 C   0  0  2  0  0  3  0  0  0  0  0  0
  190.8440  177.1260  141.7340 C   0  0  1  0  0  3  0  0  0  0  0  0
  190.2920  176.1960  142.7890 C   0  0  0  0  0  0  0  0  0  0  0  0
  189.9670  175.0220  142.4690 O   0  0  0  0  0  0  0  0  0  0  0  0
  187.8470  177.5570  146.8860 N   0  0  0  0  0  0  0  0  0  0  0  0
  188.3740  177.8070  148.1070 C   0  0  0  0  0  0  0  0  0  0  0  0
  188.9220  177.2820  146.1300 C   0  0  0  0  0  0  0  0  0  0  0  0
  188.9740  176.8940  144.7270 C   0  0  0  0  0  3  0  0  0  0  0  0
  189.6910  177.7090  148.1240 O   0  0  0  0  0  0  0  0  0  0  0  0
  191.3520  176.6990  144.9850 O   0  0  0  0  0  0  0  0  0  0  0  0
  190.0390  177.3780  146.9010 C   0  0  0  0  0  0  0  0  0  0  0  0
  191.4070  177.1330  146.3600 C   0  0  1  0  0  3  0  0  0  0  0  0
  187.6840  178.0960  149.1200 O   0  0  0  0  0  0  0  0  0  0  0  0
  190.1750  176.6140  144.1980 C   0  0  0  0  0  0  0  0  0  0  0  0
  192.0450  176.1730  147.1210 F   0  0  0  0  0  0  0  0  0  0  0  0
  186.4430  177.5060  146.5030 C   0  0  0  0  0  2  0  0  0  0  0  0
  185.2820  178.6220  144.3070 S   0  0  0  0  0  1  0  0  0  0  0  0
  186.0100  178.8500  145.9520 C   0  0  0  0  0  2  0  0  0  0  0  0
  188.3850  177.5110  141.1690 C   0  0  0  0  0  2  0  0  0  0  0  0
  187.7230  178.6720  141.5620 O   0  0  0  0  0  1  0  0  0  0  0  0
  191.5900  177.0640  139.5110 C   0  0  0  0  0  2  0  0  0  0  0  0
  191.7310  176.1020  138.3460 C   0  0  0  0  0  2  0  0  0  0  0  0
  190.4560  175.4590  138.0810 N   0  0  0  0  0  2  0  0  0  0  0  0
  190.4210  175.1630  136.6600 C   0  0  0  0  0  2  0  0  0  0  0  0
  189.3200  175.9680  135.9930 C   0  0  1  0  0  3  0  0  0  0  0  0
  186.1110  178.2530  138.3820 C   0  0  0  0  0  1  0  0  0  0  0  0
  188.7600  179.5410  137.4550 N   0  0  0  0  0  1  0  0  0  0  0  0
  188.0400  175.5570  136.5030 N   0  0  0  0  0  0  0  0  0  0  0  0
  189.4420  177.4640  136.4190 C   0  0  0  0  0  3  0  0  0  0  0  0
  188.4920  178.1790  137.1460 C   0  0  0  0  0  0  0  0  0  0  0  0
  187.1850  177.5650  137.6150 C   0  0  0  0  0  0  0  0  0  0  0  0
  186.8300  174.9910  136.9270 N   0  0  0  0  0  2  0  0  0  0  0  0
  187.1360  176.3320  137.2250 C   0  0  0  0  0  0  0  0  0  0  0  0
  1  2  1  0  0  0  0
  1  3  1  0  0  0  0
  2 20  1  1  0  0  0
  2  3  1  0  0  0  0
  3  4  1  1  0  0  0
  4 15  1  0  0  0  0
  5  4  2  0  0  0  0
  6  7  1  0  0  0  0
  7 10  1  0  0  0  0
  7 14  2  0  0  0  0
  8  6  1  0  0  0  0
  8 12  2  0  0  0  0
  9  8  1  0  0  0  0
 11 13  1  0  0  0  0
 12 10  1  0  0  0  0
 13 12  1  0  0  0  0
 13 16  1  1  0  0  0
 15  9  2  0  0  0  0
 15 11  1  0  0  0  0
 17  6  1  0  0  0  0
 18 19  1  0  0  0  0
 19 17  1  0  0  0  0
 20 21  1  0  0  0  0
 22  1  1  0  0  0  0
 23 22  1  0  0  0  0
 24 23  1  0  0  0  0
 25 24  1  0  0  0  0
 26 30  1  0  0  0  0
 26 29  1  0  0  0  0
 26 25  1  1  0  0  0
 29 33  1  0  0  0  0
 29 34  1  0  0  0  0
 30 31  2  0  0  0  0
 31 28  1  0  0  0  0
 31 32  1  0  0  0  0
 32 27  1  0  0  0  0
 33 34  1  0  0  0  0
 34 32  2  0  0  0  0
M  END
>  <MODEL>
5

>  <REMARK>
 VINA RESULT:      -7.8      2.905      4.197
  Name = 
  10 active torsions:
  status: ('A' for Active; 'I' for Inactive)
    1  A    between atoms: C_1  and  C_30
    2  A    between atoms: C_2  and  C_13
    3  A    between atoms: C_2  and  C_28
    4  A    between atoms: N_3  and  C_25
    5  A    between atoms: N_4  and  C_19
    6  A    between atoms: C_9  and  C_12
    7  A    between atoms: N_16  and  C_30
    8  A    between atoms: N_16  and  C_34
    9  A    between atoms: C_19  and  C_34
   10  A    between atoms: C_25  and  C_32
                            x       y       z     vdW  Elec       q    Type
                         _______ _______ _______ _____ _____    ______ ____

>  <TORSDO>
F 10

$$$$
=
 OpenBabel10222415133D

 34 38  0  0  1  0  0  0  0  0999 V2000
  189.0820  177.9060  142.5070 N   0  0  0  0  0  0  0  0  0  0  0  0
  190.4460  177.7830  143.0410 C   0  0  2  0  0  3  0  0  0  0  0  0
  189.3930  176.8370  143.4730 C   0  0  1  0  0  3  0  0  0  0  0  0
  188.7360  177.1250  144.8020 C   0  0  0  0  0  0  0  0  0  0  0  0
  189.3690  176.8960  145.8670 O   0  0  0  0  0  0  0  0  0  0  0  0
  184.2890  178.4370  143.0380 N   0  0  0  0  0  0  0  0  0  0  0  0
  183.2730  179.0080  143.7250 C   0  0  0  0  0  0  0  0  0  0  0  0
  185.2680  178.3350  143.9500 C   0  0  0  0  0  0  0  0  0  0  0  0
  186.5960  177.7550  143.8010 C   0  0  0  0  0  3  0  0  0  0  0  0
  183.5870  179.2610  144.9820 O   0  0  0  0  0  0  0  0  0  0  0  0
  186.9430  178.2310  146.1270 O   0  0  0  0  0  0  0  0  0  0  0  0
  184.8230  178.8420  145.1320 C   0  0  0  0  0  0  0  0  0  0  0  0
  185.6730  178.8790  146.3560 C   0  0  1  0  0  3  0  0  0  0  0  0
  182.1470  179.2660  143.2230 O   0  0  0  0  0  0  0  0  0  0  0  0
  187.3880  177.7170  144.8830 C   0  0  0  0  0  0  0  0  0  0  0  0
  185.0190  178.2530  147.3990 F   0  0  0  0  0  0  0  0  0  0  0  0
  184.2910  177.9610  141.6610 C   0  0  0  0  0  2  0  0  0  0  0  0
  184.5630  178.5940  139.0270 S   0  0  0  0  0  1  0  0  0  0  0  0
  184.9200  179.0010  140.7560 C   0  0  0  0  0  2  0  0  0  0  0  0
  190.7250  178.9550  143.9760 C   0  0  0  0  0  2  0  0  0  0  0  0
  192.0700  178.9490  144.3420 O   0  0  0  0  0  1  0  0  0  0  0  0
  189.0850  177.2880  141.1920 C   0  0  0  0  0  2  0  0  0  0  0  0
  188.5740  178.2760  140.1600 C   0  0  0  0  0  2  0  0  0  0  0  0
  188.9590  177.8410  138.8290 N   0  0  0  0  0  2  0  0  0  0  0  0
  189.9060  176.7540  138.9990 C   0  0  0  0  0  2  0  0  0  0  0  0
  190.8790  176.7320  137.8340 C   0  0  1  0  0  3  0  0  0  0  0  0
  194.3030  173.6660  137.5080 C   0  0  0  0  0  1  0  0  0  0  0  0
  191.5110  173.2140  136.2700 N   0  0  0  0  0  1  0  0  0  0  0  0
  192.2300  176.7560  138.3270 N   0  0  0  0  0  0  0  0  0  0  0  0
  190.7650  175.3640  137.0920 C   0  0  0  0  0  3  0  0  0  0  0  0
  191.7800  174.4150  136.9820 C   0  0  0  0  0  0  0  0  0  0  0  0
  193.1590  174.6140  137.5860 C   0  0  0  0  0  0  0  0  0  0  0  0
  193.5040  176.9470  138.8770 N   0  0  0  0  0  2  0  0  0  0  0  0
  193.1960  175.7660  138.1760 C   0  0  0  0  0  0  0  0  0  0  0  0
  1  2  1  0  0  0  0
  1  3  1  0  0  0  0
  2  3  1  0  0  0  0
  2 20  1  1  0  0  0
  3  4  1  1  0  0  0
  4 15  1  0  0  0  0
  4  5  2  0  0  0  0
  6  7  1  0  0  0  0
  6  8  1  0  0  0  0
  7 10  1  0  0  0  0
  8 12  2  0  0  0  0
  9  8  1  0  0  0  0
  9 15  2  0  0  0  0
 10 12  1  0  0  0  0
 11 13  1  0  0  0  0
 12 13  1  0  0  0  0
 13 16  1  1  0  0  0
 14  7  2  0  0  0  0
 15 11  1  0  0  0  0
 17  6  1  0  0  0  0
 18 19  1  0  0  0  0
 19 17  1  0  0  0  0
 20 21  1  0  0  0  0
 22  1  1  0  0  0  0
 23 22  1  0  0  0  0
 24 25  1  0  0  0  0
 24 23  1  0  0  0  0
 26 29  1  0  0  0  0
 26 25  1  1  0  0  0
 27 32  1  0  0  0  0
 28 31  1  0  0  0  0
 29 33  1  0  0  0  0
 30 26  1  0  0  0  0
 31 30  2  0  0  0  0
 31 32  1  0  0  0  0
 32 34  2  0  0  0  0
 34 29  1  0  0  0  0
 34 33  1  0  0  0  0
M  END
>  <MODEL>
6

>  <REMARK>
 VINA RESULT:      -7.8      1.595      2.866
  Name = 
  10 active torsions:
  status: ('A' for Active; 'I' for Inactive)
    1  A    between atoms: C_1  and  C_30
    2  A    between atoms: C_2  and  C_13
    3  A    between atoms: C_2  and  C_28
    4  A    between atoms: N_3  and  C_25
    5  A    between atoms: N_4  and  C_19
    6  A    between atoms: C_9  and  C_12
    7  A    between atoms: N_16  and  C_30
    8  A    between atoms: N_16  and  C_34
    9  A    between atoms: C_19  and  C_34
   10  A    between atoms: C_25  and  C_32
                            x       y       z     vdW  Elec       q    Type
                         _______ _______ _______ _____ _____    ______ ____

>  <TORSDO>
F 10

$$$$
=
 OpenBabel10222415133D

 34 38  0  0  1  0  0  0  0  0999 V2000
  184.9600  178.4050  143.2810 N   0  0  0  0  0  0  0  0  0  0  0  0
  183.9050  179.3650  143.6400 C   0  0  2  0  0  3  0  0  0  0  0  0
  185.2180  179.4190  144.3190 C   0  0  1  0  0  3  0  0  0  0  0  0
  185.2990  178.7660  145.6800 C   0  0  0  0  0  0  0  0  0  0  0  0
  184.2490  178.6270  146.3610 O   0  0  0  0  0  0  0  0  0  0  0  0
  189.8870  176.9130  145.3300 N   0  0  0  0  0  0  0  0  0  0  0  0
  190.7300  176.6200  146.3470 C   0  0  0  0  0  0  0  0  0  0  0  0
  188.7750  177.3310  145.9540 C   0  0  0  0  0  0  0  0  0  0  0  0
  187.5330  177.8220  145.3710 C   0  0  0  0  0  3  0  0  0  0  0  0
  190.1900  176.8290  147.5330 O   0  0  0  0  0  0  0  0  0  0  0  0
  186.7620  178.1990  147.6120 O   0  0  0  0  0  0  0  0  0  0  0  0
  188.9770  177.2750  147.2980 C   0  0  0  0  0  0  0  0  0  0  0  0
  187.9280  177.6730  148.2810 C   0  0  1  0  0  3  0  0  0  0  0  0
  191.9070  176.2020  146.1820 O   0  0  0  0  0  0  0  0  0  0  0  0
  186.5710  178.2400  146.2070 C   0  0  0  0  0  0  0  0  0  0  0  0
  188.4330  178.6270  149.1420 F   0  0  0  0  0  0  0  0  0  0  0  0
  190.1530  176.8710  143.8980 C   0  0  0  0  0  2  0  0  0  0  0  0
  191.6820  179.1220  143.9680 S   0  0  0  0  0  1  0  0  0  0  0  0
  190.2050  178.2800  143.3420 C   0  0  0  0  0  2  0  0  0  0  0  0
  182.7920  178.6310  144.3810 C   0  0  0  0  0  2  0  0  0  0  0  0
  181.5580  178.9870  143.8380 O   0  0  0  0  0  1  0  0  0  0  0  0
  185.5800  178.8960  142.0620 C   0  0  0  0  0  2  0  0  0  0  0  0
  186.9250  178.2210  141.8630 C   0  0  0  0  0  2  0  0  0  0  0  0
  187.7350  179.0000  140.9430 N   0  0  0  0  0  2  0  0  0  0  0  0
  187.7960  178.2520  139.7000 C   0  0  0  0  0  2  0  0  0  0  0  0
  189.0840  178.5770  138.9660 C   0  0  1  0  0  3  0  0  0  0  0  0
  191.7670  175.3360  137.0880 C   0  0  0  0  0  1  0  0  0  0  0  0
  189.5300  176.7860  135.5290 N   0  0  0  0  0  1  0  0  0  0  0  0
  190.1650  177.8020  139.5120 N   0  0  0  0  0  0  0  0  0  0  0  0
  188.9720  178.0940  137.4860 C   0  0  0  0  0  3  0  0  0  0  0  0
  189.7640  177.1120  136.8930 C   0  0  0  0  0  0  0  0  0  0  0  0
  190.8660  176.3840  137.6420 C   0  0  0  0  0  0  0  0  0  0  0  0
  191.1870  177.1380  140.2010 N   0  0  0  0  0  2  0  0  0  0  0  0
  190.9180  176.8330  138.8550 C   0  0  0  0  0  0  0  0  0  0  0  0
  1  2  1  0  0  0  0
  1  3  1  0  0  0  0
  2  3  1  0  0  0  0
  2 20  1  1  0  0  0
  3  4  1  1  0  0  0
  4 15  1  0  0  0  0
  4  5  2  0  0  0  0
  6  8  1  0  0  0  0
  6  7  1  0  0  0  0
  7 10  1  0  0  0  0
  8 12  2  0  0  0  0
  9  8  1  0  0  0  0
  9 15  2  0  0  0  0
 11 13  1  0  0  0  0
 12 10  1  0  0  0  0
 12 13  1  0  0  0  0
 13 16  1  1  0  0  0
 14  7  2  0  0  0  0
 15 11  1  0  0  0  0
 17  6  1  0  0  0  0
 19 17  1  0  0  0  0
 19 18  1  0  0  0  0
 21 20  1  0  0  0  0
 22  1  1  0  0  0  0
 23 22  1  0  0  0  0
 24 23  1  0  0  0  0
 25 24  1  0  0  0  0
 26 29  1  0  0  0  0
 26 25  1  1  0  0  0
 27 32  1  0  0  0  0
 28 31  1  0  0  0  0
 29 33  1  0  0  0  0
 30 26  1  0  0  0  0
 31 30  2  0  0  0  0
 31 32  1  0  0  0  0
 32 34  2  0  0  0  0
 34 29  1  0  0  0  0
 34 33  1  0  0  0  0
M  END
>  <MODEL>
7

>  <REMARK>
 VINA RESULT:      -7.7      2.479      5.374
  Name = 
  10 active torsions:
  status: ('A' for Active; 'I' for Inactive)
    1  A    between atoms: C_1  and  C_30
    2  A    between atoms: C_2  and  C_13
    3  A    between atoms: C_2  and  C_28
    4  A    between atoms: N_3  and  C_25
    5  A    between atoms: N_4  and  C_19
    6  A    between atoms: C_9  and  C_12
    7  A    between atoms: N_16  and  C_30
    8  A    between atoms: N_16  and  C_34
    9  A    between atoms: C_19  and  C_34
   10  A    between atoms: C_25  and  C_32
                            x       y       z     vdW  Elec       q    Type
                         _______ _______ _______ _____ _____    ______ ____

>  <TORSDO>
F 10

$$$$
=
 OpenBabel10222415133D

 34 38  0  0  1  0  0  0  0  0999 V2000
  189.9110  178.0210  140.2920 N   0  0  0  0  0  0  0  0  0  0  0  0
  188.7160  177.4810  140.9570 C   0  0  2  0  0  3  0  0  0  0  0  0
  188.9410  177.2260  139.5170 C   0  0  1  0  0  3  0  0  0  0  0  0
  188.1890  178.1130  138.5520 C   0  0  0  0  0  0  0  0  0  0  0  0
  188.6940  179.2120  138.2020 O   0  0  0  0  0  0  0  0  0  0  0  0
  183.2640  178.2540  137.9680 N   0  0  0  0  0  0  0  0  0  0  0  0
  182.5250  177.5390  137.0890 C   0  0  0  0  0  0  0  0  0  0  0  0
  184.5150  177.8140  137.7570 C   0  0  0  0  0  0  0  0  0  0  0  0
  185.7530  178.2530  138.3880 C   0  0  0  0  0  3  0  0  0  0  0  0
  183.2520  176.6970  136.3770 O   0  0  0  0  0  0  0  0  0  0  0  0
  186.9000  176.7130  136.9480 O   0  0  0  0  0  0  0  0  0  0  0  0
  184.4900  176.8650  136.7830 C   0  0  0  0  0  0  0  0  0  0  0  0
  185.7230  176.1710  136.3110 C   0  0  1  0  0  3  0  0  0  0  0  0
  181.2790  177.6660  136.9580 O   0  0  0  0  0  0  0  0  0  0  0  0
  186.9000  177.6970  137.9680 C   0  0  0  0  0  0  0  0  0  0  0  0
  185.8380  176.3040  134.9410 F   0  0  0  0  0  0  0  0  0  0  0  0
  182.8240  179.3140  138.8650 C   0  0  0  0  0  2  0  0  0  0  0  0
  183.4440  178.6280  141.4250 S   0  0  0  0  0  1  0  0  0  0  0  0
  182.2010  178.7110  140.1090 C   0  0  0  0  0  2  0  0  0  0  0  0
  187.7720  178.6290  141.3000 C   0  0  0  0  0  2  0  0  0  0  0  0
  186.8810  178.2200  142.2900 O   0  0  0  0  0  1  0  0  0  0  0  0
  191.0120  177.1300  140.6130 C   0  0  0  0  0  2  0  0  0  0  0  0
  190.8890  176.6600  142.0510 C   0  0  0  0  0  2  0  0  0  0  0  0
  192.0170  177.1480  142.8260 N   0  0  0  0  0  2  0  0  0  0  0  0
  191.4700  177.7720  144.0170 C   0  0  0  0  0  2  0  0  0  0  0  0
  190.6660  176.7570  144.8090 C   0  0  1  0  0  3  0  0  0  0  0  0
  188.3660  177.8490  148.6490 C   0  0  0  0  0  1  0  0  0  0  0  0
  187.0870  177.9170  145.8400 N   0  0  0  0  0  1  0  0  0  0  0  0
  191.0730  176.7820  146.1880 N   0  0  0  0  0  0  0  0  0  0  0  0
  189.1690  177.1950  144.8410 C   0  0  0  0  0  3  0  0  0  0  0  0
  188.4500  177.5370  145.9850 C   0  0  0  0  0  0  0  0  0  0  0  0
  189.0590  177.5140  147.3750 C   0  0  0  0  0  0  0  0  0  0  0  0
  191.6350  176.7510  147.4700 N   0  0  0  0  0  2  0  0  0  0  0  0
  190.2940  177.1340  147.2860 C   0  0  0  0  0  0  0  0  0  0  0  0
  1 22  1  0  0  0  0
  1  2  1  0  0  0  0
  2 20  1  6  0  0  0
  3  4  1  6  0  0  0
  3  1  1  0  0  0  0
  3  2  1  0  0  0  0
  5  4  2  0  0  0  0
  6 17  1  0  0  0  0
  7  6  1  0  0  0  0
  8  6  1  0  0  0  0
  8  9  1  0  0  0  0
 10 12  1  0  0  0  0
 10  7  1  0  0  0  0
 11 15  1  0  0  0  0
 12  8  2  0  0  0  0
 13 16  1  6  0  0  0
 13 12  1  0  0  0  0
 13 11  1  0  0  0  0
 14  7  2  0  0  0  0
 15  9  2  0  0  0  0
 15  4  1  0  0  0  0
 17 19  1  0  0  0  0
 19 18  1  0  0  0  0
 20 21  1  0  0  0  0
 22 23  1  0  0  0  0
 23 24  1  0  0  0  0
 24 25  1  0  0  0  0
 26 25  1  6  0  0  0
 26 30  1  0  0  0  0
 26 29  1  0  0  0  0
 28 31  1  0  0  0  0
 29 34  1  0  0  0  0
 29 33  1  0  0  0  0
 30 31  2  0  0  0  0
 31 32  1  0  0  0  0
 32 27  1  0  0  0  0
 34 32  2  0  0  0  0
 34 33  1  0  0  0  0
M  END
>  <MODEL>
8

>  <REMARK>
 VINA RESULT:      -7.6      4.107      7.337
  Name = 
  10 active torsions:
  status: ('A' for Active; 'I' for Inactive)
    1  A    between atoms: C_1  and  C_30
    2  A    between atoms: C_2  and  C_13
    3  A    between atoms: C_2  and  C_28
    4  A    between atoms: N_3  and  C_25
    5  A    between atoms: N_4  and  C_19
    6  A    between atoms: C_9  and  C_12
    7  A    between atoms: N_16  and  C_30
    8  A    between atoms: N_16  and  C_34
    9  A    between atoms: C_19  and  C_34
   10  A    between atoms: C_25  and  C_32
                            x       y       z     vdW  Elec       q    Type
                         _______ _______ _______ _____ _____    ______ ____

>  <TORSDO>
F 10

$$$$
=
 OpenBabel10222415133D

 34 38  0  0  1  0  0  0  0  0999 V2000
  189.9880  177.9790  140.5600 N   0  0  0  0  0  0  0  0  0  0  0  0
  188.7480  177.4640  141.1580 C   0  0  2  0  0  3  0  0  0  0  0  0
  189.0320  177.2280  139.7260 C   0  0  1  0  0  3  0  0  0  0  0  0
  188.3530  178.1550  138.7440 C   0  0  0  0  0  0  0  0  0  0  0  0
  188.9760  179.1600  138.3120 O   0  0  0  0  0  0  0  0  0  0  0  0
  184.9690  175.7640  136.0150 N   0  0  0  0  0  0  0  0  0  0  0  0
  183.6320  175.9660  136.0110 C   0  0  0  0  0  0  0  0  0  0  0  0
  185.4240  176.6880  136.8760 C   0  0  0  0  0  0  0  0  0  0  0  0
  186.7920  176.9250  137.3200 C   0  0  0  0  0  3  0  0  0  0  0  0
  183.2620  176.9540  136.8060 O   0  0  0  0  0  0  0  0  0  0  0  0
  185.9100  178.6340  138.7550 O   0  0  0  0  0  0  0  0  0  0  0  0
  184.3700  177.4050  137.3500 C   0  0  0  0  0  0  0  0  0  0  0  0
  184.5350  178.5160  138.3320 C   0  0  1  0  0  3  0  0  0  0  0  0
  182.8230  175.2820  135.3290 O   0  0  0  0  0  0  0  0  0  0  0  0
  186.9950  177.8800  138.2390 C   0  0  0  0  0  0  0  0  0  0  0  0
  183.7330  178.2890  139.4330 F   0  0  0  0  0  0  0  0  0  0  0  0
  185.7270  174.7320  135.3210 C   0  0  0  0  0  2  0  0  0  0  0  0
  184.7720  172.2750  136.0010 S   0  0  0  0  0  1  0  0  0  0  0  0
  186.0060  173.5770  136.2610 C   0  0  0  0  0  2  0  0  0  0  0  0
  187.8230  178.6340  141.4790 C   0  0  0  0  0  2  0  0  0  0  0  0
  186.6530  178.1550  142.0650 O   0  0  0  0  0  1  0  0  0  0  0  0
  191.0460  177.0480  140.9140 C   0  0  0  0  0  2  0  0  0  0  0  0
  190.9890  176.7490  142.4010 C   0  0  0  0  0  2  0  0  0  0  0  0
  191.6820  177.7900  143.1390 N   0  0  0  0  0  2  0  0  0  0  0  0
  190.7270  178.3450  144.0820 C   0  0  0  0  0  2  0  0  0  0  0  0
  189.9750  177.2220  144.7740 C   0  0  1  0  0  3  0  0  0  0  0  0
  187.9420  177.7460  148.8750 C   0  0  0  0  0  1  0  0  0  0  0  0
  186.4770  178.2030  146.1960 N   0  0  0  0  0  1  0  0  0  0  0  0
  190.4730  177.0550  146.1120 N   0  0  0  0  0  0  0  0  0  0  0  0
  188.4850  177.6420  144.9670 C   0  0  0  0  0  3  0  0  0  0  0  0
  187.8450  177.8140  146.1940 C   0  0  0  0  0  0  0  0  0  0  0  0
  188.5460  177.5990  147.5230 C   0  0  0  0  0  0  0  0  0  0  0  0
  191.1200  176.8470  147.3370 N   0  0  0  0  0  2  0  0  0  0  0  0
  189.7710  177.2430  147.2990 C   0  0  0  0  0  0  0  0  0  0  0  0
  1 22  1  0  0  0  0
  1  2  1  0  0  0  0
  2 20  1  6  0  0  0
  3  4  1  6  0  0  0
  3  1  1  0  0  0  0
  3  2  1  0  0  0  0
  5  4  2  0  0  0  0
  6  8  1  0  0  0  0
  7  6  1  0  0  0  0
  7 10  1  0  0  0  0
  8  9  1  0  0  0  0
  8 12  2  0  0  0  0
  9 15  2  0  0  0  0
 10 12  1  0  0  0  0
 12 13  1  0  0  0  0
 13 11  1  0  0  0  0
 13 16  1  1  0  0  0
 14  7  2  0  0  0  0
 15  4  1  0  0  0  0
 15 11  1  0  0  0  0
 17  6  1  0  0  0  0
 17 19  1  0  0  0  0
 18 19  1  0  0  0  0
 20 21  1  0  0  0  0
 22 23  1  0  0  0  0
 23 24  1  0  0  0  0
 24 25  1  0  0  0  0
 26 25  1  1  0  0  0
 26 30  1  0  0  0  0
 26 29  1  0  0  0  0
 29 34  1  0  0  0  0
 29 33  1  0  0  0  0
 30 31  2  0  0  0  0
 31 28  1  0  0  0  0
 31 32  1  0  0  0  0
 32 27  1  0  0  0  0
 34 33  1  0  0  0  0
 34 32  2  0  0  0  0
M  END
>  <MODEL>
9

>  <REMARK>
 VINA RESULT:      -7.5      3.855      7.488
  Name = 
  10 active torsions:
  status: ('A' for Active; 'I' for Inactive)
    1  A    between atoms: C_1  and  C_30
    2  A    between atoms: C_2  and  C_13
    3  A    between atoms: C_2  and  C_28
    4  A    between atoms: N_3  and  C_25
    5  A    between atoms: N_4  and  C_19
    6  A    between atoms: C_9  and  C_12
    7  A    between atoms: N_16  and  C_30
    8  A    between atoms: N_16  and  C_34
    9  A    between atoms: C_19  and  C_34
   10  A    between atoms: C_25  and  C_32
                            x       y       z     vdW  Elec       q    Type
                         _______ _______ _______ _____ _____    ______ ____

>  <TORSDO>
F 10

$$$$
