=
 OpenBabel10222418463D

 61 68  0  0  1  0  0  0  0  0999 V2000
  186.8170  178.2770  142.2840 S   0  0  0  0  0  0  0  0  0  0  0  0
  184.6980  178.5750  140.9890 C   0  0  0  0  0  0  0  0  0  0  0  0
  185.7270  178.6270  140.0410 C   0  0  0  0  0  3  0  0  0  0  0  0
  185.1390  178.3990  142.2970 C   0  0  0  0  0  0  0  0  0  0  0  0
  186.9830  178.4860  140.6230 C   0  0  0  0  0  0  0  0  0  0  0  0
  184.2690  178.2960  143.5100 C   0  0  0  0  0  2  0  0  0  0  0  0
  184.9550  178.8880  144.6920 C   0  0  0  0  0  3  0  0  0  0  0  0
  185.3130  178.1310  145.6770 N   0  0  0  0  0  0  0  0  0  0  0  0
  185.9960  178.6470  146.8250 C   0  0  0  0  0  0  0  0  0  0  0  0
  187.3190  178.1990  147.1310 N   0  0  0  0  0  0  0  0  0  0  0  0
  185.4290  179.4850  147.5840 O   0  0  0  0  0  0  0  0  0  0  0  0
  188.8610  177.9490  148.8630 O   0  0  0  0  0  1  0  0  0  0  0  0
  188.1170  178.8850  148.1420 C   0  0  0  0  0  2  0  0  0  0  0  0
  187.8470  176.9860  146.5200 C   0  0  0  0  0  2  0  0  0  0  0  0
  188.7250  177.3510  145.3230 C   0  0  0  0  0  2  0  0  0  0  0  0
  190.1530  177.6390  145.7660 C   0  0  0  0  0  2  0  0  0  0  0  0
  191.7220  178.9080  144.4960 O   0  0  0  0  0  1  0  0  0  0  0  0
  191.0910  177.6630  144.5630 C   0  0  2  0  0  3  0  0  0  0  0  0
  190.3100  177.4260  143.2770 C   0  0  0  0  0  2  0  0  0  0  0  0
  190.8110  176.1910  142.5410 C   0  0  1  0  0  3  0  0  0  0  0  0
  189.9460  175.1260  142.8030 O   0  0  0  0  0  1  0  0  0  0  0  0
  190.8500  176.4630  141.0430 C   0  0  0  0  0  2  0  0  0  0  0  0
  191.8060  177.6010  140.7410 C   0  0  0  0  0  1  0  0  0  0  0  0
  188.2720  178.4500  139.8730 C   0  0  0  0  0  2  0  0  0  0  0  0
  188.0700  177.8160  138.5060 C   0  0  0  0  0  2  0  0  0  0  0  0
  189.4060  177.6760  137.7910 C   0  0  0  0  0  2  0  0  0  0  0  0
  189.3630  173.4380  136.9810 C   0  0  0  0  0  2  0  0  0  0  0  0
  188.6690  175.8200  136.3100 C   0  0  1  0  0  3  0  0  0  0  0  0
  190.8120  173.4690  136.5360 C   0  0  0  0  0  2  0  0  0  0  0  0
  191.9780  176.9420  137.4820 O   0  0  0  0  0  1  0  0  0  0  0  0
  189.6640  176.2210  137.4050 C   0  0  1  0  0  3  0  0  0  0  0  0
  188.5320  174.3110  136.0580 C   0  0  2  0  0  3  0  0  0  0  0  0
  187.5060  175.0390  136.9020 C   0  0  0  0  0  2  0  0  0  0  0  0
  191.6090  174.5830  137.2260 C   0  0  2  0  0  3  0  0  0  0  0  0
  191.1070  176.0070  136.9080 C   0  0  2  0  0  3  0  0  0  0  0  0
  195.6850  173.0950  137.3500 C   0  0  1  0  0  3  0  0  0  0  0  0
  193.9430  174.6980  138.1640 C   0  0  0  0  0  2  0  0  0  0  0  0
  195.4370  174.5040  137.9060 C   0  0  1  0  0  3  0  0  0  0  0  0
  193.1030  174.4300  136.9100 C   0  0  1  0  0  3  0  0  0  0  0  0
  193.4160  173.0500  136.3120 C   0  0  0  0  0  2  0  0  0  0  0  0
  196.1120  174.6530  139.1240 O   0  0  0  0  0  1  0  0  0  0  0  0
  194.9090  172.9070  136.0520 C   0  0  0  0  0  2  0  0  0  0  0  0
  197.1640  172.8390  137.0690 C   0  0  0  0  0  2  0  0  0  0  0  0
  199.1650  174.7390  137.3430 O   0  0  0  0  0  1  0  0  0  0  0  0
  197.6760  173.5900  135.8350 C   0  0  1  0  0  0  0  0  0  0  0  0
  197.4540  175.0840  135.7320 C   0  0  0  0  0  2  0  0  0  0  0  0
  198.8530  174.5440  135.9950 C   0  0  1  0  0  3  0  0  0  0  0  0
  197.6490  172.9260  134.6060 O   0  0  0  0  0  1  0  0  0  0  0  0
  182.9720  178.7010  140.5330 S   0  0  0  0  0  0  0  0  0  0  0  0
  180.3140  176.5600  136.4960 C   0  0  0  0  0  2  0  0  0  0  0  0
  182.6580  176.6460  138.5970 C   0  0  1  0  0  0  0  0  0  0  0  0
  181.3860  176.5860  135.4080 C   0  0  0  0  0  2  0  0  0  0  0  0
  183.0100  177.2840  135.9140 S   0  0  0  0  0  0  0  0  0  0  0  0
  181.6860  175.4710  138.4770 C   0  0  1  0  0  3  0  0  0  0  0  0
  182.5870  177.8390  137.5980 C   0  0  1  0  0  3  0  0  0  0  0  0
  181.4890  176.5580  139.5330 C   0  0  1  0  0  3  0  0  0  0  0  0
  182.8630  176.9360  140.0850 C   0  0  2  0  0  3  0  0  0  0  0  0
  180.4980  175.4270  137.4940 C   0  0  0  0  0  2  0  0  0  0  0  0
  181.5110  178.9430  137.5860 C   0  0  0  0  0  3  0  0  0  0  0  0
  182.1100  180.1760  137.7770 F   0  0  0  0  0  0  0  0  0  0  0  0
  180.4780  178.7730  138.4850 F   0  0  0  0  0  0  0  0  0  0  0  0
  1  4  1  0  0  0  0
  2  4  2  0  0  0  0
  3  5  2  0  0  0  0
  3  2  1  0  0  0  0
  4  6  1  0  0  0  0
  5  1  1  0  0  0  0
  6  7  1  0  0  0  0
  7  8  2  0  0  0  0
  8  9  1  0  0  0  0
  9 10  1  0  0  0  0
  9 11  2  0  0  0  0
 10 13  1  0  0  0  0
 13 12  1  0  0  0  0
 14 10  1  0  0  0  0
 15 16  1  0  0  0  0
 15 14  1  0  0  0  0
 18 17  1  6  0  0  0
 18 16  1  0  0  0  0
 19 18  1  0  0  0  0
 20 21  1  6  0  0  0
 20 19  1  0  0  0  0
 22 20  1  0  0  0  0
 23 22  1  0  0  0  0
 24  5  1  0  0  0  0
 25 24  1  0  0  0  0
 26 25  1  0  0  0  0
 28 33  1  1  0  0  0
 28 31  1  0  0  0  0
 29 27  1  0  0  0  0
 31 26  1  6  0  0  0
 32 28  1  0  0  0  0
 32 33  1  1  0  0  0
 32 27  1  0  0  0  0
 34 29  1  6  0  0  0
 35 34  1  0  0  0  0
 35 31  1  0  0  0  0
 35 30  1  1  0  0  0
 36 43  1  6  0  0  0
 36 38  1  0  0  0  0
 38 37  1  0  0  0  0
 38 41  1  1  0  0  0
 39 40  1  1  0  0  0
 39 34  1  0  0  0  0
 39 37  1  0  0  0  0
 42 40  1  0  0  0  0
 42 36  1  0  0  0  0
 45 48  1  6  0  0  0
 45 47  1  0  0  0  0
 45 43  1  0  0  0  0
 46 45  1  0  0  0  0
 46 47  1  0  0  0  0
 47 44  1  1  0  0  0
 49  2  1  0  0  0  0
 50 58  1  0  0  0  0
 51 56  1  0  0  0  0
 51 57  1  0  0  0  0
 52 53  1  0  0  0  0
 52 50  1  0  0  0  0
 53 55  1  0  0  0  0
 54 51  1  0  0  0  0
 54 56  1  0  0  0  0
 55 51  1  0  0  0  0
 56 57  1  0  0  0  0
 57 49  1  0  0  0  0
 58 54  1  0  0  0  0
 59 55  1  0  0  0  0
 59 60  1  0  0  0  0
 59 61  1  0  0  0  0
M  END
>  <MODEL>
1

>  <REMARK>
 VINA RESULT:      -7.1      0.000      0.000
  Name = 
  21 active torsions:
  status: ('A' for Active; 'I' for Inactive)
    1  A    between atoms: C_2  and  C_50
    2  A    between atoms: C_3  and  C_8
    3  A    between atoms: C_4  and  N_57
    4  A    between atoms: C_5  and  C_27
    5  A    between atoms: C_5  and  C_45
    6  A    between atoms: C_8  and  C_14
    7  A    between atoms: C_13  and  C_50
    8  A    between atoms: C_14  and  C_27
    9  A    between atoms: C_20  and  C_33
   10  A    between atoms: C_21  and  S_51
   11  A    between atoms: C_22  and  C_47
   12  A    between atoms: C_24  and  C_28
   13  A    between atoms: C_28  and  C_52
   14  A    between atoms: N_29  and  C_37
   15  A    between atoms: N_29  and  C_39
   16  A    between atoms: C_31  and  C_43
   17  A    between atoms: C_33  and  C_40
   18  A    between atoms: C_37  and  C_45
   19  A    between atoms: C_38  and  C_52
   20  A    between atoms: C_38  and  C_55
   21  A    between atoms: C_48  and  S_51
                            x       y       z     vdW  Elec       q    Type
                         _______ _______ _______ _____ _____    ______ ____

>  <TORSDO>
F 21

$$$$
=
 OpenBabel10222418463D

 61 68  0  0  1  0  0  0  0  0999 V2000
  188.7640  177.4710  140.5390 S   0  0  0  0  0  0  0  0  0  0  0  0
  190.6720  176.8480  139.0460 C   0  0  0  0  0  0  0  0  0  0  0  0
  190.9400  176.2310  140.2740 C   0  0  0  0  0  3  0  0  0  0  0  0
  189.4980  177.5950  139.0300 C   0  0  0  0  0  0  0  0  0  0  0  0
  189.9580  176.5000  141.2210 C   0  0  0  0  0  0  0  0  0  0  0  0
  188.9550  178.3510  137.8580 C   0  0  0  0  0  2  0  0  0  0  0  0
  188.3620  177.4120  136.8660 C   0  0  0  0  0  3  0  0  0  0  0  0
  187.3030  176.7350  137.1690 N   0  0  0  0  0  0  0  0  0  0  0  0
  186.6810  175.8370  136.2420 C   0  0  0  0  0  0  0  0  0  0  0  0
  185.3860  176.1360  135.7160 N   0  0  0  0  0  0  0  0  0  0  0  0
  187.2630  174.7680  135.8980 O   0  0  0  0  0  0  0  0  0  0  0  0
  184.1490  174.2620  135.0840 O   0  0  0  0  0  1  0  0  0  0  0  0
  184.8470  175.3700  134.5980 C   0  0  0  0  0  2  0  0  0  0  0  0
  184.5410  177.1340  136.3590 C   0  0  0  0  0  2  0  0  0  0  0  0
  184.3520  176.7770  137.8330 C   0  0  0  0  0  2  0  0  0  0  0  0
  183.2520  175.7370  138.0020 C   0  0  0  0  0  2  0  0  0  0  0  0
  181.0450  175.4260  138.8470 O   0  0  0  0  0  1  0  0  0  0  0  0
  181.9440  176.4040  138.4170 C   0  0  2  0  0  3  0  0  0  0  0  0
  181.3390  177.1610  137.2410 C   0  0  0  0  0  2  0  0  0  0  0  0
  180.8090  178.5220  137.6690 C   0  0  1  0  0  3  0  0  0  0  0  0
  179.7670  178.3360  138.5810 O   0  0  0  0  0  1  0  0  0  0  0  0
  181.9230  179.3280  138.3230 C   0  0  0  0  0  2  0  0  0  0  0  0
  181.4110  180.6950  138.7340 C   0  0  0  0  0  1  0  0  0  0  0  0
  189.9330  175.9470  142.6070 C   0  0  0  0  0  2  0  0  0  0  0  0
  191.1760  176.3770  143.3680 C   0  0  0  0  0  2  0  0  0  0  0  0
  190.8980  177.6540  144.1460 C   0  0  0  0  0  2  0  0  0  0  0  0
  187.9920  176.5260  147.1290 C   0  0  0  0  0  2  0  0  0  0  0  0
  190.1610  177.7620  146.5180 C   0  0  1  0  0  3  0  0  0  0  0  0
  186.9820  177.5100  146.5740 C   0  0  0  0  0  2  0  0  0  0  0  0
  188.5470  178.6890  143.3380 O   0  0  0  0  0  1  0  0  0  0  0  0
  189.7070  177.4690  145.0840 C   0  0  1  0  0  3  0  0  0  0  0  0
  189.2130  177.2790  147.6260 C   0  0  2  0  0  3  0  0  0  0  0  0
  190.4400  176.4670  147.2670 C   0  0  0  0  0  2  0  0  0  0  0  0
  187.1740  177.7570  145.0730 C   0  0  2  0  0  3  0  0  0  0  0  0
  188.5310  178.3920  144.7060 C   0  0  2  0  0  3  0  0  0  0  0  0
  183.2200  178.7600  143.5880 C   0  0  1  0  0  3  0  0  0  0  0  0
  185.5820  178.0580  143.1460 C   0  0  0  0  0  2  0  0  0  0  0  0
  184.3800  178.8180  142.5850 C   0  0  1  0  0  3  0  0  0  0  0  0
  186.0010  178.5810  144.5240 C   0  0  1  0  0  3  0  0  0  0  0  0
  184.8150  178.5970  145.5010 C   0  0  0  0  0  2  0  0  0  0  0  0
  183.9960  178.2030  141.3870 O   0  0  0  0  0  1  0  0  0  0  0  0
  183.6510  179.3800  144.9120 C   0  0  0  0  0  2  0  0  0  0  0  0
  181.9860  179.5060  143.0860 C   0  0  0  0  0  2  0  0  0  0  0  0
  179.4100  180.1080  143.9200 O   0  0  0  0  0  1  0  0  0  0  0  0
  180.8280  178.5680  142.7240 C   0  0  1  0  0  0  0  0  0  0  0  0
  180.0950  177.8350  143.8270 C   0  0  0  0  0  2  0  0  0  0  0  0
  179.4090  178.9800  143.0950 C   0  0  1  0  0  3  0  0  0  0  0  0
  180.9150  177.8520  141.5280 O   0  0  0  0  0  1  0  0  0  0  0  0
  191.7460  176.6600  137.6270 S   0  0  0  0  0  0  0  0  0  0  0  0
  194.3880  173.2280  134.5960 C   0  0  0  0  0  2  0  0  0  0  0  0
  193.0250  174.1470  137.2820 C   0  0  1  0  0  0  0  0  0  0  0  0
  195.6890  173.0990  135.3870 C   0  0  0  0  0  2  0  0  0  0  0  0
  195.7820  174.0970  136.9270 S   0  0  0  0  0  0  0  0  0  0  0  0
  192.6280  172.8720  136.5360 C   0  0  1  0  0  3  0  0  0  0  0  0
  194.2170  175.0180  136.7830 C   0  0  1  0  0  3  0  0  0  0  0  0
  191.8290  174.1650  136.3770 C   0  0  1  0  0  3  0  0  0  0  0  0
  191.7430  174.8390  137.7460 C   0  0  2  0  0  3  0  0  0  0  0  0
  193.2410  172.4280  135.1930 C   0  0  0  0  0  2  0  0  0  0  0  0
  194.2040  175.9410  135.5480 C   0  0  0  0  0  3  0  0  0  0  0  0
  194.6140  177.2110  135.9140 F   0  0  0  0  0  0  0  0  0  0  0  0
  193.0030  176.0070  134.8700 F   0  0  0  0  0  0  0  0  0  0  0  0
  1  5  1  0  0  0  0
  2  3  1  0  0  0  0
  3  5  2  0  0  0  0
  4  2  2  0  0  0  0
  4  1  1  0  0  0  0
  5 24  1  0  0  0  0
  6  4  1  0  0  0  0
  7  8  2  0  0  0  0
  7  6  1  0  0  0  0
  9  8  1  0  0  0  0
 10  9  1  0  0  0  0
 10 14  1  0  0  0  0
 11  9  2  0  0  0  0
 13 12  1  0  0  0  0
 13 10  1  0  0  0  0
 14 15  1  0  0  0  0
 15 16  1  0  0  0  0
 16 18  1  0  0  0  0
 18 17  1  6  0  0  0
 19 20  1  0  0  0  0
 19 18  1  0  0  0  0
 20 22  1  0  0  0  0
 20 21  1  1  0  0  0
 22 23  1  0  0  0  0
 24 25  1  0  0  0  0
 25 26  1  0  0  0  0
 28 33  1  1  0  0  0
 28 32  1  0  0  0  0
 29 27  1  0  0  0  0
 31 26  1  6  0  0  0
 31 28  1  0  0  0  0
 32 27  1  6  0  0  0
 33 32  1  0  0  0  0
 34 29  1  1  0  0  0
 35 30  1  6  0  0  0
 35 34  1  0  0  0  0
 35 31  1  0  0  0  0
 36 43  1  6  0  0  0
 36 42  1  0  0  0  0
 38 41  1  6  0  0  0
 38 37  1  0  0  0  0
 38 36  1  0  0  0  0
 39 37  1  6  0  0  0
 39 34  1  0  0  0  0
 39 40  1  0  0  0  0
 42 40  1  0  0  0  0
 45 48  1  6  0  0  0
 45 43  1  0  0  0  0
 45 47  1  0  0  0  0
 45 46  1  0  0  0  0
 47 46  1  0  0  0  0
 47 44  1  1  0  0  0
 49 57  1  0  0  0  0
 49  2  1  0  0  0  0
 50 58  1  0  0  0  0
 50 52  1  0  0  0  0
 51 57  1  0  0  0  0
 52 53  1  0  0  0  0
 54 51  1  0  0  0  0
 55 53  1  0  0  0  0
 55 51  1  0  0  0  0
 56 54  1  0  0  0  0
 56 51  1  0  0  0  0
 56 57  1  0  0  0  0
 58 54  1  0  0  0  0
 59 60  1  0  0  0  0
 59 55  1  0  0  0  0
 61 59  1  0  0  0  0
M  END
>  <MODEL>
2

>  <REMARK>
 VINA RESULT:      -6.9      4.606     12.057
  Name = 
  21 active torsions:
  status: ('A' for Active; 'I' for Inactive)
    1  A    between atoms: C_2  and  C_50
    2  A    between atoms: C_3  and  C_8
    3  A    between atoms: C_4  and  N_57
    4  A    between atoms: C_5  and  C_27
    5  A    between atoms: C_5  and  C_45
    6  A    between atoms: C_8  and  C_14
    7  A    between atoms: C_13  and  C_50
    8  A    between atoms: C_14  and  C_27
    9  A    between atoms: C_20  and  C_33
   10  A    between atoms: C_21  and  S_51
   11  A    between atoms: C_22  and  C_47
   12  A    between atoms: C_24  and  C_28
   13  A    between atoms: C_28  and  C_52
   14  A    between atoms: N_29  and  C_37
   15  A    between atoms: N_29  and  C_39
   16  A    between atoms: C_31  and  C_43
   17  A    between atoms: C_33  and  C_40
   18  A    between atoms: C_37  and  C_45
   19  A    between atoms: C_38  and  C_52
   20  A    between atoms: C_38  and  C_55
   21  A    between atoms: C_48  and  S_51
                            x       y       z     vdW  Elec       q    Type
                         _______ _______ _______ _____ _____    ______ ____

>  <TORSDO>
F 21

$$$$
=
 OpenBabel10222418463D

 61 68  0  0  1  0  0  0  0  0999 V2000
  186.3380  177.0870  137.1480 S   0  0  0  0  0  0  0  0  0  0  0  0
  184.3690  176.4650  135.7350 C   0  0  0  0  0  0  0  0  0  0  0  0
  185.4920  176.2640  134.9230 C   0  0  0  0  0  3  0  0  0  0  0  0
  184.6680  176.9400  137.0090 C   0  0  0  0  0  0  0  0  0  0  0  0
  186.6760  176.5840  135.5780 C   0  0  0  0  0  0  0  0  0  0  0  0
  183.6760  177.2350  138.0900 C   0  0  0  0  0  2  0  0  0  0  0  0
  182.6560  178.2070  137.6050 C   0  0  0  0  0  3  0  0  0  0  0  0
  181.5340  178.3350  138.2350 N   0  0  0  0  0  0  0  0  0  0  0  0
  180.5320  179.2720  137.8250 C   0  0  0  0  0  0  0  0  0  0  0  0
  180.2760  180.4370  138.6120 N   0  0  0  0  0  0  0  0  0  0  0  0
  179.8550  179.0660  136.7760 O   0  0  0  0  0  0  0  0  0  0  0  0
  180.0350  182.7450  138.3800 O   0  0  0  0  0  1  0  0  0  0  0  0
  179.4430  181.5150  138.0900 C   0  0  0  0  0  2  0  0  0  0  0  0
  180.7500  180.5160  139.9880 C   0  0  0  0  0  2  0  0  0  0  0  0
  179.9020  179.6100  140.8790 C   0  0  0  0  0  2  0  0  0  0  0  0
  180.1930  179.8700  142.3510 C   0  0  0  0  0  2  0  0  0  0  0  0
  179.2080  178.4420  143.9860 O   0  0  0  0  0  1  0  0  0  0  0  0
  180.2950  178.5540  143.1170 C   0  0  2  0  0  3  0  0  0  0  0  0
  181.5880  178.5070  143.9210 C   0  0  0  0  0  2  0  0  0  0  0  0
  182.6990  179.2880  143.2330 C   0  0  1  0  0  3  0  0  0  0  0  0
  183.5640  179.7980  144.2060 O   0  0  0  0  0  1  0  0  0  0  0  0
  183.4700  178.3710  142.2940 C   0  0  0  0  0  2  0  0  0  0  0  0
  184.9430  178.3650  142.6560 C   0  0  0  0  0  1  0  0  0  0  0  0
  188.0420  176.4290  134.9980 C   0  0  0  0  0  2  0  0  0  0  0  0
  189.0960  176.8460  136.0110 C   0  0  0  0  0  2  0  0  0  0  0  0
  189.4020  175.6910  136.9530 C   0  0  0  0  0  2  0  0  0  0  0  0
  193.0920  176.1860  139.1340 C   0  0  0  0  0  2  0  0  0  0  0  0
  191.6460  176.7520  137.0860 C   0  0  1  0  0  3  0  0  0  0  0  0
  192.4100  177.0610  140.1660 C   0  0  0  0  0  2  0  0  0  0  0  0
  188.7320  176.7410  139.3400 O   0  0  0  0  0  1  0  0  0  0  0  0
  190.5510  176.0480  137.8940 C   0  0  1  0  0  3  0  0  0  0  0  0
  193.0150  176.8560  137.7740 C   0  0  2  0  0  3  0  0  0  0  0  0
  192.7640  175.7810  136.7370 C   0  0  0  0  0  2  0  0  0  0  0  0
  190.9220  176.7230  140.3230 C   0  0  2  0  0  3  0  0  0  0  0  0
  190.0850  176.9560  139.0500 C   0  0  2  0  0  3  0  0  0  0  0  0
  189.7580  177.6470  144.4020 C   0  0  1  0  0  3  0  0  0  0  0  0
  189.2060  176.6680  142.1650 C   0  0  0  0  0  2  0  0  0  0  0  0
  188.6310  177.3620  143.4010 C   0  0  1  0  0  3  0  0  0  0  0  0
  190.3380  177.4790  141.5260 C   0  0  1  0  0  3  0  0  0  0  0  0
  191.4240  177.8310  142.5540 C   0  0  0  0  0  2  0  0  0  0  0  0
  187.6910  176.5030  143.9840 O   0  0  0  0  0  1  0  0  0  0  0  0
  190.8120  178.5370  143.7550 C   0  0  0  0  0  2  0  0  0  0  0  0
  189.2470  178.3430  145.6620 C   0  0  0  0  0  2  0  0  0  0  0  0
  187.0470  177.7290  147.2350 O   0  0  0  0  0  1  0  0  0  0  0  0
  189.4270  177.4950  146.9270 C   0  0  1  0  0  0  0  0  0  0  0  0
  189.1460  178.1130  148.2800 C   0  0  0  0  0  2  0  0  0  0  0  0
  188.1880  177.0760  147.7090 C   0  0  1  0  0  3  0  0  0  0  0  0
  190.4510  176.5460  146.9380 O   0  0  0  0  0  1  0  0  0  0  0  0
  182.7070  176.1130  135.1730 S   0  0  0  0  0  0  0  0  0  0  0  0
  180.7740  171.8760  137.6740 C   0  0  0  0  0  2  0  0  0  0  0  0
  181.9680  173.3700  135.1720 C   0  0  1  0  0  0  0  0  0  0  0  0
  179.5420  171.5830  136.8200 C   0  0  0  0  0  2  0  0  0  0  0  0
  179.2740  172.7210  135.4010 S   0  0  0  0  0  0  0  0  0  0  0  0
  182.6060  172.1210  135.7830 C   0  0  1  0  0  3  0  0  0  0  0  0
  180.6130  173.9160  135.7170 C   0  0  1  0  0  3  0  0  0  0  0  0
  183.1180  173.5210  136.1230 C   0  0  1  0  0  3  0  0  0  0  0  0
  183.0880  174.3590  134.8460 C   0  0  2  0  0  3  0  0  0  0  0  0
  182.0720  171.4030  137.0390 C   0  0  0  0  0  2  0  0  0  0  0  0
  180.4130  174.6650  137.0490 C   0  0  0  0  0  3  0  0  0  0  0  0
  179.8040  175.8850  136.8070 F   0  0  0  0  0  0  0  0  0  0  0  0
  181.5540  174.8460  137.8040 F   0  0  0  0  0  0  0  0  0  0  0  0
  2  4  2  0  0  0  0
  3  5  2  0  0  0  0
  3  2  1  0  0  0  0
  4  1  1  0  0  0  0
  4  6  1  0  0  0  0
  5  1  1  0  0  0  0
  7  6  1  0  0  0  0
  7  8  2  0  0  0  0
  9  8  1  0  0  0  0
  9 10  1  0  0  0  0
 10 14  1  0  0  0  0
 11  9  2  0  0  0  0
 13 12  1  0  0  0  0
 13 10  1  0  0  0  0
 14 15  1  0  0  0  0
 15 16  1  0  0  0  0
 16 18  1  0  0  0  0
 18 19  1  0  0  0  0
 18 17  1  1  0  0  0
 20 19  1  0  0  0  0
 20 21  1  1  0  0  0
 22 23  1  0  0  0  0
 22 20  1  0  0  0  0
 24  5  1  0  0  0  0
 24 25  1  0  0  0  0
 25 26  1  0  0  0  0
 27 29  1  0  0  0  0
 28 33  1  6  0  0  0
 28 32  1  0  0  0  0
 28 31  1  0  0  0  0
 31 26  1  6  0  0  0
 31 35  1  0  0  0  0
 32 33  1  6  0  0  0
 32 27  1  0  0  0  0
 34 29  1  6  0  0  0
 34 39  1  0  0  0  0
 35 30  1  1  0  0  0
 35 34  1  0  0  0  0
 36 43  1  1  0  0  0
 37 38  1  0  0  0  0
 38 41  1  1  0  0  0
 38 36  1  0  0  0  0
 39 37  1  1  0  0  0
 39 40  1  0  0  0  0
 40 42  1  0  0  0  0
 42 36  1  0  0  0  0
 43 45  1  0  0  0  0
 45 48  1  6  0  0  0
 45 47  1  0  0  0  0
 45 46  1  0  0  0  0
 47 44  1  6  0  0  0
 47 46  1  0  0  0  0
 49  2  1  0  0  0  0
 51 55  1  0  0  0  0
 51 54  1  0  0  0  0
 51 56  1  0  0  0  0
 52 50  1  0  0  0  0
 53 55  1  0  0  0  0
 53 52  1  0  0  0  0
 54 56  1  0  0  0  0
 54 58  1  0  0  0  0
 55 59  1  0  0  0  0
 57 51  1  0  0  0  0
 57 49  1  0  0  0  0
 57 56  1  0  0  0  0
 58 50  1  0  0  0  0
 59 61  1  0  0  0  0
 60 59  1  0  0  0  0
M  END
>  <MODEL>
3

>  <REMARK>
 VINA RESULT:      -6.6      3.849      8.517
  Name = 
  21 active torsions:
  status: ('A' for Active; 'I' for Inactive)
    1  A    between atoms: C_2  and  C_50
    2  A    between atoms: C_3  and  C_8
    3  A    between atoms: C_4  and  N_57
    4  A    between atoms: C_5  and  C_27
    5  A    between atoms: C_5  and  C_45
    6  A    between atoms: C_8  and  C_14
    7  A    between atoms: C_13  and  C_50
    8  A    between atoms: C_14  and  C_27
    9  A    between atoms: C_20  and  C_33
   10  A    between atoms: C_21  and  S_51
   11  A    between atoms: C_22  and  C_47
   12  A    between atoms: C_24  and  C_28
   13  A    between atoms: C_28  and  C_52
   14  A    between atoms: N_29  and  C_37
   15  A    between atoms: N_29  and  C_39
   16  A    between atoms: C_31  and  C_43
   17  A    between atoms: C_33  and  C_40
   18  A    between atoms: C_37  and  C_45
   19  A    between atoms: C_38  and  C_52
   20  A    between atoms: C_38  and  C_55
   21  A    between atoms: C_48  and  S_51
                            x       y       z     vdW  Elec       q    Type
                         _______ _______ _______ _____ _____    ______ ____

>  <TORSDO>
F 21

$$$$
=
 OpenBabel10222418463D

 61 68  0  0  1  0  0  0  0  0999 V2000
  186.7430  177.8580  136.4650 S   0  0  0  0  0  0  0  0  0  0  0  0
  185.0440  176.1380  137.1070 C   0  0  0  0  0  0  0  0  0  0  0  0
  186.0950  175.4240  136.5170 C   0  0  0  0  0  3  0  0  0  0  0  0
  185.2420  177.5140  137.1430 C   0  0  0  0  0  0  0  0  0  0  0  0
  187.1220  176.2610  136.0940 C   0  0  0  0  0  0  0  0  0  0  0  0
  184.2970  178.5210  137.7210 C   0  0  0  0  0  2  0  0  0  0  0  0
  184.8380  179.0660  138.9970 C   0  0  0  0  0  3  0  0  0  0  0  0
  184.8240  178.3400  140.0670 N   0  0  0  0  0  0  0  0  0  0  0  0
  185.3530  178.8080  141.3120 C   0  0  0  0  0  0  0  0  0  0  0  0
  184.4680  179.1790  142.3730 N   0  0  0  0  0  0  0  0  0  0  0  0
  186.6030  178.9150  141.4770 O   0  0  0  0  0  0  0  0  0  0  0  0
  185.0660  178.2110  144.4090 O   0  0  0  0  0  1  0  0  0  0  0  0
  184.9820  179.4210  143.7160 C   0  0  0  0  0  2  0  0  0  0  0  0
  183.0580  179.4280  142.1030 C   0  0  0  0  0  2  0  0  0  0  0  0
  182.2890  178.1070  142.1100 C   0  0  0  0  0  2  0  0  0  0  0  0
  181.3000  178.0480  140.9540 C   0  0  0  0  0  2  0  0  0  0  0  0
  180.1040  180.0970  141.1900 O   0  0  0  0  0  1  0  0  0  0  0  0
  181.0480  179.4450  140.3940 C   0  0  2  0  0  3  0  0  0  0  0  0
  180.5260  179.3570  138.9650 C   0  0  0  0  0  2  0  0  0  0  0  0
  180.1810  177.9240  138.5860 C   0  0  1  0  0  3  0  0  0  0  0  0
  178.9350  177.5990  139.1300 O   0  0  0  0  0  1  0  0  0  0  0  0
  180.1280  177.7890  137.0700 C   0  0  0  0  0  2  0  0  0  0  0  0
  181.4240  178.2810  136.4540 C   0  0  0  0  0  1  0  0  0  0  0  0
  188.3990  175.7990  135.4740 C   0  0  0  0  0  2  0  0  0  0  0  0
  189.5870  176.2880  136.2870 C   0  0  0  0  0  2  0  0  0  0  0  0
  189.8700  175.3260  137.4300 C   0  0  0  0  0  2  0  0  0  0  0  0
  193.4340  176.4220  139.6020 C   0  0  0  0  0  2  0  0  0  0  0  0
  191.9620  176.6670  137.5090 C   0  0  1  0  0  3  0  0  0  0  0  0
  192.6320  177.2690  140.5680 C   0  0  0  0  0  2  0  0  0  0  0  0
  189.0360  176.4370  139.7370 O   0  0  0  0  0  1  0  0  0  0  0  0
  190.9510  175.8850  138.3540 C   0  0  1  0  0  3  0  0  0  0  0  0
  193.2970  176.9870  138.1990 C   0  0  2  0  0  3  0  0  0  0  0  0
  193.1970  175.8230  137.2350 C   0  0  0  0  0  2  0  0  0  0  0  0
  191.1950  176.7580  140.7360 C   0  0  2  0  0  3  0  0  0  0  0  0
  190.3560  176.8000  139.4430 C   0  0  2  0  0  3  0  0  0  0  0  0
  189.7630  177.7300  144.7170 C   0  0  1  0  0  3  0  0  0  0  0  0
  189.3920  176.6500  142.4890 C   0  0  0  0  0  2  0  0  0  0  0  0
  188.7100  177.3420  143.6700 C   0  0  1  0  0  3  0  0  0  0  0  0
  190.5030  177.5110  141.8810 C   0  0  1  0  0  3  0  0  0  0  0  0
  191.5090  177.9640  142.9510 C   0  0  0  0  0  2  0  0  0  0  0  0
  187.7960  176.4440  144.2340 O   0  0  0  0  0  1  0  0  0  0  0  0
  190.7920  178.6660  144.0940 C   0  0  0  0  0  2  0  0  0  0  0  0
  189.1430  178.4300  145.9250 C   0  0  0  0  0  2  0  0  0  0  0  0
  186.8990  178.0600  147.5110 O   0  0  0  0  0  1  0  0  0  0  0  0
  189.2470  177.6040  147.2120 C   0  0  1  0  0  0  0  0  0  0  0  0
  189.0250  178.2800  148.5480 C   0  0  0  0  0  2  0  0  0  0  0  0
  187.9770  177.3200  148.0030 C   0  0  1  0  0  3  0  0  0  0  0  0
  190.1820  176.5660  147.2490 O   0  0  0  0  0  1  0  0  0  0  0  0
  183.5930  175.3260  137.7720 S   0  0  0  0  0  0  0  0  0  0  0  0
  179.9490  171.5840  136.9630 C   0  0  0  0  0  2  0  0  0  0  0  0
  182.1030  173.6730  136.0080 C   0  0  1  0  0  0  0  0  0  0  0  0
  178.9330  172.3570  136.1240 C   0  0  0  0  0  2  0  0  0  0  0  0
  179.3670  174.1090  135.7720 S   0  0  0  0  0  0  0  0  0  0  0  0
  182.1750  172.1830  135.6690 C   0  0  1  0  0  3  0  0  0  0  0  0
  180.8790  174.2520  136.7790 C   0  0  1  0  0  3  0  0  0  0  0  0
  182.9770  172.7730  136.8290 C   0  0  1  0  0  3  0  0  0  0  0  0
  183.5090  174.1370  136.3910 C   0  0  2  0  0  3  0  0  0  0  0  0
  181.1640  171.1320  136.1690 C   0  0  0  0  0  2  0  0  0  0  0  0
  180.5890  174.0640  138.2820 C   0  0  0  0  0  3  0  0  0  0  0  0
  179.2290  174.1830  138.5100 F   0  0  0  0  0  0  0  0  0  0  0  0
  181.2870  174.9000  139.1290 F   0  0  0  0  0  0  0  0  0  0  0  0
  1  4  1  0  0  0  0
  2  4  2  0  0  0  0
  2 49  1  0  0  0  0
  3  2  1  0  0  0  0
  4  6  1  0  0  0  0
  5  1  1  0  0  0  0
  5  3  2  0  0  0  0
  6  7  1  0  0  0  0
  7  8  2  0  0  0  0
  8  9  1  0  0  0  0
  9 11  2  0  0  0  0
  9 10  1  0  0  0  0
 10 13  1  0  0  0  0
 13 12  1  0  0  0  0
 14 15  1  0  0  0  0
 14 10  1  0  0  0  0
 16 15  1  0  0  0  0
 18 16  1  0  0  0  0
 18 17  1  1  0  0  0
 19 18  1  0  0  0  0
 20 19  1  0  0  0  0
 20 21  1  1  0  0  0
 22 20  1  0  0  0  0
 23 22  1  0  0  0  0
 24  5  1  0  0  0  0
 24 25  1  0  0  0  0
 25 26  1  0  0  0  0
 27 29  1  0  0  0  0
 28 33  1  6  0  0  0
 28 32  1  0  0  0  0
 28 31  1  0  0  0  0
 31 26  1  6  0  0  0
 31 35  1  0  0  0  0
 32 33  1  6  0  0  0
 32 27  1  0  0  0  0
 34 29  1  6  0  0  0
 34 39  1  0  0  0  0
 35 30  1  1  0  0  0
 35 34  1  0  0  0  0
 36 43  1  1  0  0  0
 37 38  1  0  0  0  0
 38 41  1  1  0  0  0
 38 36  1  0  0  0  0
 39 37  1  1  0  0  0
 39 40  1  0  0  0  0
 40 42  1  0  0  0  0
 42 36  1  0  0  0  0
 43 45  1  0  0  0  0
 45 48  1  6  0  0  0
 45 47  1  0  0  0  0
 45 46  1  0  0  0  0
 47 44  1  6  0  0  0
 47 46  1  0  0  0  0
 51 57  1  0  0  0  0
 51 55  1  0  0  0  0
 51 56  1  0  0  0  0
 52 50  1  0  0  0  0
 53 52  1  0  0  0  0
 53 55  1  0  0  0  0
 54 51  1  0  0  0  0
 54 58  1  0  0  0  0
 54 56  1  0  0  0  0
 55 59  1  0  0  0  0
 57 56  1  0  0  0  0
 57 49  1  0  0  0  0
 58 50  1  0  0  0  0
 59 60  1  0  0  0  0
 59 61  1  0  0  0  0
M  END
>  <MODEL>
4

>  <REMARK>
 VINA RESULT:      -6.4      3.465      8.106
  Name = 
  21 active torsions:
  status: ('A' for Active; 'I' for Inactive)
    1  A    between atoms: C_2  and  C_50
    2  A    between atoms: C_3  and  C_8
    3  A    between atoms: C_4  and  N_57
    4  A    between atoms: C_5  and  C_27
    5  A    between atoms: C_5  and  C_45
    6  A    between atoms: C_8  and  C_14
    7  A    between atoms: C_13  and  C_50
    8  A    between atoms: C_14  and  C_27
    9  A    between atoms: C_20  and  C_33
   10  A    between atoms: C_21  and  S_51
   11  A    between atoms: C_22  and  C_47
   12  A    between atoms: C_24  and  C_28
   13  A    between atoms: C_28  and  C_52
   14  A    between atoms: N_29  and  C_37
   15  A    between atoms: N_29  and  C_39
   16  A    between atoms: C_31  and  C_43
   17  A    between atoms: C_33  and  C_40
   18  A    between atoms: C_37  and  C_45
   19  A    between atoms: C_38  and  C_52
   20  A    between atoms: C_38  and  C_55
   21  A    between atoms: C_48  and  S_51
                            x       y       z     vdW  Elec       q    Type
                         _______ _______ _______ _____ _____    ______ ____

>  <TORSDO>
F 21

$$$$
=
 OpenBabel10222418463D

 61 68  0  0  1  0  0  0  0  0999 V2000
  184.6670  178.9830  140.3990 S   0  0  0  0  0  0  0  0  0  0  0  0
  182.9250  177.8270  139.0260 C   0  0  0  0  0  0  0  0  0  0  0  0
  184.0670  177.8790  138.2160 C   0  0  0  0  0  3  0  0  0  0  0  0
  183.0880  178.4160  140.2760 C   0  0  0  0  0  0  0  0  0  0  0  0
  185.1300  178.5130  138.8510 C   0  0  0  0  0  0  0  0  0  0  0  0
  182.0470  178.4990  141.3480 C   0  0  0  0  0  2  0  0  0  0  0  0
  182.6490  178.9970  142.6170 C   0  0  0  0  0  3  0  0  0  0  0  0
  183.3980  178.2190  143.3270 N   0  0  0  0  0  0  0  0  0  0  0  0
  184.0180  178.6570  144.5400 C   0  0  0  0  0  0  0  0  0  0  0  0
  185.3990  178.3730  144.7820 N   0  0  0  0  0  0  0  0  0  0  0  0
  183.3470  179.2800  145.4130 O   0  0  0  0  0  0  0  0  0  0  0  0
  186.0060  178.2200  147.0280 O   0  0  0  0  0  1  0  0  0  0  0  0
  186.1040  179.0150  145.8850 C   0  0  0  0  0  2  0  0  0  0  0  0
  186.0900  177.3560  144.0000 C   0  0  0  0  0  2  0  0  0  0  0  0
  187.2680  177.9870  143.2580 C   0  0  0  0  0  2  0  0  0  0  0  0
  188.5420  177.1850  143.4830 C   0  0  0  0  0  2  0  0  0  0  0  0
  190.2350  177.8310  141.9340 O   0  0  0  0  0  1  0  0  0  0  0  0
  189.7720  178.0530  143.2330 C   0  0  2  0  0  3  0  0  0  0  0  0
  190.8760  177.7070  144.2250 C   0  0  0  0  0  2  0  0  0  0  0  0
  190.3210  176.9870  145.4460 C   0  0  1  0  0  3  0  0  0  0  0  0
  191.3840  176.4490  146.1760 O   0  0  0  0  0  1  0  0  0  0  0  0
  189.5460  177.9670  146.3160 C   0  0  0  0  0  2  0  0  0  0  0  0
  189.4310  177.4340  147.7320 C   0  0  0  0  0  1  0  0  0  0  0  0
  186.4940  178.6820  138.2710 C   0  0  0  0  0  2  0  0  0  0  0  0
  187.2110  177.3420  138.2100 C   0  0  0  0  0  2  0  0  0  0  0  0
  187.2570  176.8370  136.7760 C   0  0  0  0  0  2  0  0  0  0  0  0
  188.1880  172.6340  137.0750 C   0  0  0  0  0  2  0  0  0  0  0  0
  186.8150  174.5190  135.9940 C   0  0  1  0  0  3  0  0  0  0  0  0
  189.4990  172.8330  136.3410 C   0  0  0  0  0  2  0  0  0  0  0  0
  189.8580  176.5930  136.1230 O   0  0  0  0  0  1  0  0  0  0  0  0
  187.8210  175.4190  136.7190 C   0  0  1  0  0  3  0  0  0  0  0  0
  187.0350  173.0080  136.1600 C   0  0  2  0  0  3  0  0  0  0  0  0
  185.9910  173.7220  136.9940 C   0  0  0  0  0  2  0  0  0  0  0  0
  190.0740  174.2390  136.5470 C   0  0  2  0  0  3  0  0  0  0  0  0
  189.1830  175.3720  135.9980 C   0  0  2  0  0  3  0  0  0  0  0  0
  194.4100  174.2110  136.3380 C   0  0  1  0  0  3  0  0  0  0  0  0
  192.2660  175.4760  136.6030 C   0  0  0  0  0  2  0  0  0  0  0  0
  193.7060  175.5530  136.0950 C   0  0  1  0  0  3  0  0  0  0  0  0
  191.4950  174.3130  135.9710 C   0  0  1  0  0  3  0  0  0  0  0  0
  192.2460  172.9830  136.1460 C   0  0  0  0  0  2  0  0  0  0  0  0
  194.3660  176.5630  136.8070 O   0  0  0  0  0  1  0  0  0  0  0  0
  193.6650  173.0980  135.6100 C   0  0  0  0  0  2  0  0  0  0  0  0
  195.8570  174.2220  135.8490 C   0  0  0  0  0  2  0  0  0  0  0  0
  197.0480  172.0800  137.1460 O   0  0  0  0  0  1  0  0  0  0  0  0
  196.8650  174.4780  136.9750 C   0  0  1  0  0  0  0  0  0  0  0  0
  196.5300  174.0390  138.3840 C   0  0  0  0  0  2  0  0  0  0  0  0
  197.5900  173.2880  137.5920 C   0  0  1  0  0  3  0  0  0  0  0  0
  197.6380  175.6390  136.9100 O   0  0  0  0  0  1  0  0  0  0  0  0
  181.4070  177.0460  138.4870 S   0  0  0  0  0  0  0  0  0  0  0  0
  180.5120  171.9470  137.4170 C   0  0  0  0  0  2  0  0  0  0  0  0
  181.4350  174.8640  136.6690 C   0  0  1  0  0  0  0  0  0  0  0  0
  179.4690  172.0720  136.3080 C   0  0  0  0  0  2  0  0  0  0  0  0
  179.0060  173.7900  135.8460 S   0  0  0  0  0  0  0  0  0  0  0  0
  182.3400  173.6380  136.5290 C   0  0  1  0  0  3  0  0  0  0  0  0
  179.9480  174.7050  137.1090 C   0  0  1  0  0  3  0  0  0  0  0  0
  182.4310  174.5570  137.7480 C   0  0  1  0  0  3  0  0  0  0  0  0
  182.2680  175.9980  137.2670 C   0  0  2  0  0  3  0  0  0  0  0  0
  181.9310  172.2090  136.9390 C   0  0  0  0  0  2  0  0  0  0  0  0
  179.4600  174.3840  138.5360 C   0  0  0  0  0  3  0  0  0  0  0  0
  178.9310  175.5270  139.1120 F   0  0  0  0  0  0  0  0  0  0  0  0
  180.4020  173.8240  139.3730 F   0  0  0  0  0  0  0  0  0  0  0  0
  2  4  2  0  0  0  0
  3  5  2  0  0  0  0
  3  2  1  0  0  0  0
  4  1  1  0  0  0  0
  4  6  1  0  0  0  0
  5  1  1  0  0  0  0
  6  7  1  0  0  0  0
  7  8  2  0  0  0  0
  8  9  1  0  0  0  0
  9 10  1  0  0  0  0
  9 11  2  0  0  0  0
 10 13  1  0  0  0  0
 13 12  1  0  0  0  0
 14 10  1  0  0  0  0
 15 16  1  0  0  0  0
 15 14  1  0  0  0  0
 18 17  1  6  0  0  0
 18 16  1  0  0  0  0
 18 19  1  0  0  0  0
 19 20  1  0  0  0  0
 20 21  1  1  0  0  0
 20 22  1  0  0  0  0
 22 23  1  0  0  0  0
 24  5  1  0  0  0  0
 25 24  1  0  0  0  0
 26 25  1  0  0  0  0
 28 32  1  0  0  0  0
 28 31  1  0  0  0  0
 28 33  1  1  0  0  0
 29 27  1  0  0  0  0
 31 26  1  6  0  0  0
 32 33  1  1  0  0  0
 32 27  1  0  0  0  0
 34 29  1  6  0  0  0
 35 30  1  1  0  0  0
 35 34  1  0  0  0  0
 35 31  1  0  0  0  0
 36 43  1  6  0  0  0
 38 36  1  0  0  0  0
 38 37  1  0  0  0  0
 38 41  1  1  0  0  0
 39 40  1  1  0  0  0
 39 34  1  0  0  0  0
 39 37  1  0  0  0  0
 42 40  1  0  0  0  0
 42 36  1  0  0  0  0
 43 45  1  0  0  0  0
 45 48  1  6  0  0  0
 45 47  1  0  0  0  0
 45 46  1  0  0  0  0
 47 44  1  6  0  0  0
 47 46  1  0  0  0  0
 49  2  1  0  0  0  0
 51 55  1  0  0  0  0
 51 57  1  0  0  0  0
 51 56  1  0  0  0  0
 52 50  1  0  0  0  0
 53 52  1  0  0  0  0
 53 55  1  0  0  0  0
 54 51  1  0  0  0  0
 54 58  1  0  0  0  0
 54 56  1  0  0  0  0
 55 59  1  0  0  0  0
 57 56  1  0  0  0  0
 57 49  1  0  0  0  0
 58 50  1  0  0  0  0
 59 60  1  0  0  0  0
 59 61  1  0  0  0  0
M  END
>  <MODEL>
5

>  <REMARK>
 VINA RESULT:      -6.4      2.120      3.211
  Name = 
  21 active torsions:
  status: ('A' for Active; 'I' for Inactive)
    1  A    between atoms: C_2  and  C_50
    2  A    between atoms: C_3  and  C_8
    3  A    between atoms: C_4  and  N_57
    4  A    between atoms: C_5  and  C_27
    5  A    between atoms: C_5  and  C_45
    6  A    between atoms: C_8  and  C_14
    7  A    between atoms: C_13  and  C_50
    8  A    between atoms: C_14  and  C_27
    9  A    between atoms: C_20  and  C_33
   10  A    between atoms: C_21  and  S_51
   11  A    between atoms: C_22  and  C_47
   12  A    between atoms: C_24  and  C_28
   13  A    between atoms: C_28  and  C_52
   14  A    between atoms: N_29  and  C_37
   15  A    between atoms: N_29  and  C_39
   16  A    between atoms: C_31  and  C_43
   17  A    between atoms: C_33  and  C_40
   18  A    between atoms: C_37  and  C_45
   19  A    between atoms: C_38  and  C_52
   20  A    between atoms: C_38  and  C_55
   21  A    between atoms: C_48  and  S_51
                            x       y       z     vdW  Elec       q    Type
                         _______ _______ _______ _____ _____    ______ ____

>  <TORSDO>
F 21

$$$$
=
 OpenBabel10222418463D

 61 68  0  0  1  0  0  0  0  0999 V2000
  187.0150  178.2950  142.1760 S   0  0  0  0  0  0  0  0  0  0  0  0
  184.8760  178.5840  140.9110 C   0  0  0  0  0  0  0  0  0  0  0  0
  185.8900  178.6190  139.9460 C   0  0  0  0  0  3  0  0  0  0  0  0
  185.3380  178.4240  142.2140 C   0  0  0  0  0  0  0  0  0  0  0  0
  187.1540  178.4800  140.5090 C   0  0  0  0  0  0  0  0  0  0  0  0
  184.4860  178.3420  143.4420 C   0  0  0  0  0  2  0  0  0  0  0  0
  185.1940  178.9500  144.6040 C   0  0  0  0  0  3  0  0  0  0  0  0
  185.4310  178.2410  145.6590 N   0  0  0  0  0  0  0  0  0  0  0  0
  186.1280  178.7710  146.7920 C   0  0  0  0  0  0  0  0  0  0  0  0
  187.3270  178.1420  147.2530 N   0  0  0  0  0  0  0  0  0  0  0  0
  185.6790  179.7830  147.4030 O   0  0  0  0  0  0  0  0  0  0  0  0
  187.9370  178.2510  149.5020 O   0  0  0  0  0  1  0  0  0  0  0  0
  188.1750  178.8010  148.2400 C   0  0  0  0  0  2  0  0  0  0  0  0
  187.6610  176.7890  146.8280 C   0  0  0  0  0  2  0  0  0  0  0  0
  189.1760  176.5970  146.8570 C   0  0  0  0  0  2  0  0  0  0  0  0
  189.7910  176.9310  145.5050 C   0  0  0  0  0  2  0  0  0  0  0  0
  191.7370  176.9480  146.8810 O   0  0  0  0  0  1  0  0  0  0  0  0
  191.3100  176.7990  145.5600 C   0  0  2  0  0  3  0  0  0  0  0  0
  191.9670  177.8690  144.6960 C   0  0  0  0  0  2  0  0  0  0  0  0
  190.9480  178.5700  143.8090 C   0  0  1  0  0  3  0  0  0  0  0  0
  191.0850  179.9520  143.9650 O   0  0  0  0  0  1  0  0  0  0  0  0
  191.1870  178.1940  142.3520 C   0  0  0  0  0  2  0  0  0  0  0  0
  191.6790  176.7630  142.2530 C   0  0  0  0  0  1  0  0  0  0  0  0
  188.4310  178.4270  139.7400 C   0  0  0  0  0  2  0  0  0  0  0  0
  189.0020  177.0180  139.7610 C   0  0  0  0  0  2  0  0  0  0  0  0
  188.3170  176.1600  138.7090 C   0  0  0  0  0  2  0  0  0  0  0  0
  189.5390  176.5930  134.5940 C   0  0  0  0  0  2  0  0  0  0  0  0
  188.7150  177.6710  136.7770 C   0  0  1  0  0  3  0  0  0  0  0  0
  190.9920  176.3720  134.9620 C   0  0  0  0  0  2  0  0  0  0  0  0
  190.8580  175.2770  138.5800 O   0  0  0  0  0  1  0  0  0  0  0  0
  189.0220  176.2880  137.3600 C   0  0  1  0  0  3  0  0  0  0  0  0
  189.0280  177.8460  135.2830 C   0  0  2  0  0  3  0  0  0  0  0  0
  187.6070  177.5820  135.7380 C   0  0  0  0  0  2  0  0  0  0  0  0
  191.1500  175.4910  136.2070 C   0  0  2  0  0  3  0  0  0  0  0  0
  190.5460  176.0980  137.4890 C   0  0  2  0  0  3  0  0  0  0  0  0
  195.2110  174.2530  135.3020 C   0  0  1  0  0  3  0  0  0  0  0  0
  192.8720  173.6690  135.9760 C   0  0  0  0  0  2  0  0  0  0  0  0
  194.3440  173.2740  136.1050 C   0  0  1  0  0  3  0  0  0  0  0  0
  192.6270  175.1210  136.4010 C   0  0  1  0  0  3  0  0  0  0  0  0
  193.5570  176.0880  135.6520 C   0  0  0  0  0  2  0  0  0  0  0  0
  194.4950  171.9820  135.5880 O   0  0  0  0  0  1  0  0  0  0  0  0
  195.0100  175.6710  135.8240 C   0  0  0  0  0  2  0  0  0  0  0  0
  196.6970  173.9130  135.3910 C   0  0  0  0  0  2  0  0  0  0  0  0
  197.6010  172.1120  137.2970 O   0  0  0  0  0  1  0  0  0  0  0  0
  197.3510  174.4290  136.6790 C   0  0  1  0  0  0  0  0  0  0  0  0
  196.6710  174.1790  138.0080 C   0  0  0  0  0  2  0  0  0  0  0  0
  197.9410  173.4190  137.6550 C   0  0  1  0  0  3  0  0  0  0  0  0
  198.0530  175.6350  136.6190 O   0  0  0  0  0  1  0  0  0  0  0  0
  183.1430  178.7110  140.4820 S   0  0  0  0  0  0  0  0  0  0  0  0
  180.3270  176.5100  136.5870 C   0  0  0  0  0  2  0  0  0  0  0  0
  182.7540  176.6280  138.5910 C   0  0  1  0  0  0  0  0  0  0  0  0
  181.3540  176.5210  135.4570 C   0  0  0  0  0  2  0  0  0  0  0  0
  182.9970  177.2270  135.8860 S   0  0  0  0  0  0  0  0  0  0  0  0
  181.7790  175.4510  138.5260 C   0  0  1  0  0  3  0  0  0  0  0  0
  182.6410  177.8060  137.5770 C   0  0  1  0  0  3  0  0  0  0  0  0
  181.6240  176.5530  139.5740 C   0  0  1  0  0  3  0  0  0  0  0  0
  183.0190  176.9400  140.0640 C   0  0  2  0  0  3  0  0  0  0  0  0
  180.5530  175.3920  137.5930 C   0  0  0  0  0  2  0  0  0  0  0  0
  181.5640  178.9090  137.5930 C   0  0  0  0  0  3  0  0  0  0  0  0
  181.1680  179.1890  136.2960 F   0  0  0  0  0  0  0  0  0  0  0  0
  181.9180  180.0750  138.2420 F   0  0  0  0  0  0  0  0  0  0  0  0
  1  4  1  0  0  0  0
  2  4  2  0  0  0  0
  3  5  2  0  0  0  0
  3  2  1  0  0  0  0
  4  6  1  0  0  0  0
  5  1  1  0  0  0  0
  6  7  1  0  0  0  0
  7  8  2  0  0  0  0
  8  9  1  0  0  0  0
  9 10  1  0  0  0  0
  9 11  2  0  0  0  0
 10 13  1  0  0  0  0
 13 12  1  0  0  0  0
 14 15  1  0  0  0  0
 14 10  1  0  0  0  0
 16 18  1  0  0  0  0
 16 15  1  0  0  0  0
 18 17  1  1  0  0  0
 19 18  1  0  0  0  0
 20 21  1  6  0  0  0
 20 19  1  0  0  0  0
 22 20  1  0  0  0  0
 23 22  1  0  0  0  0
 24 25  1  0  0  0  0
 24  5  1  0  0  0  0
 26 25  1  0  0  0  0
 27 29  1  0  0  0  0
 28 33  1  6  0  0  0
 28 31  1  0  0  0  0
 31 35  1  0  0  0  0
 31 26  1  1  0  0  0
 32 27  1  6  0  0  0
 32 33  1  0  0  0  0
 32 28  1  0  0  0  0
 34 29  1  6  0  0  0
 34 39  1  0  0  0  0
 34 35  1  0  0  0  0
 35 30  1  1  0  0  0
 36 43  1  1  0  0  0
 36 42  1  0  0  0  0
 36 38  1  0  0  0  0
 37 38  1  0  0  0  0
 37 39  1  0  0  0  0
 38 41  1  6  0  0  0
 39 40  1  6  0  0  0
 40 42  1  0  0  0  0
 43 45  1  0  0  0  0
 45 48  1  6  0  0  0
 45 47  1  0  0  0  0
 45 46  1  0  0  0  0
 47 44  1  6  0  0  0
 47 46  1  0  0  0  0
 49  2  1  0  0  0  0
 50 58  1  0  0  0  0
 51 56  1  0  0  0  0
 51 57  1  0  0  0  0
 52 53  1  0  0  0  0
 52 50  1  0  0  0  0
 53 55  1  0  0  0  0
 54 51  1  0  0  0  0
 54 56  1  0  0  0  0
 55 59  1  0  0  0  0
 55 51  1  0  0  0  0
 56 57  1  0  0  0  0
 57 49  1  0  0  0  0
 58 54  1  0  0  0  0
 59 61  1  0  0  0  0
 60 59  1  0  0  0  0
M  END
>  <MODEL>
6

>  <REMARK>
 VINA RESULT:      -6.0      1.362      1.967
  Name = 
  21 active torsions:
  status: ('A' for Active; 'I' for Inactive)
    1  A    between atoms: C_2  and  C_50
    2  A    between atoms: C_3  and  C_8
    3  A    between atoms: C_4  and  N_57
    4  A    between atoms: C_5  and  C_27
    5  A    between atoms: C_5  and  C_45
    6  A    between atoms: C_8  and  C_14
    7  A    between atoms: C_13  and  C_50
    8  A    between atoms: C_14  and  C_27
    9  A    between atoms: C_20  and  C_33
   10  A    between atoms: C_21  and  S_51
   11  A    between atoms: C_22  and  C_47
   12  A    between atoms: C_24  and  C_28
   13  A    between atoms: C_28  and  C_52
   14  A    between atoms: N_29  and  C_37
   15  A    between atoms: N_29  and  C_39
   16  A    between atoms: C_31  and  C_43
   17  A    between atoms: C_33  and  C_40
   18  A    between atoms: C_37  and  C_45
   19  A    between atoms: C_38  and  C_52
   20  A    between atoms: C_38  and  C_55
   21  A    between atoms: C_48  and  S_51
                            x       y       z     vdW  Elec       q    Type
                         _______ _______ _______ _____ _____    ______ ____

>  <TORSDO>
F 21

$$$$
=
 OpenBabel10222418463D

 61 68  0  0  1  0  0  0  0  0999 V2000
  187.4990  178.1220  142.4580 S   0  0  0  0  0  0  0  0  0  0  0  0
  185.3980  178.5700  141.1760 C   0  0  0  0  0  0  0  0  0  0  0  0
  186.4440  178.7930  140.2720 C   0  0  0  0  0  3  0  0  0  0  0  0
  185.8180  178.2030  142.4500 C   0  0  0  0  0  0  0  0  0  0  0  0
  187.6910  178.5900  140.8530 C   0  0  0  0  0  0  0  0  0  0  0  0
  184.9270  177.8930  143.6120 C   0  0  0  0  0  2  0  0  0  0  0  0
  185.4140  178.5860  144.8380 C   0  0  0  0  0  3  0  0  0  0  0  0
  185.7890  177.8960  145.8650 N   0  0  0  0  0  0  0  0  0  0  0  0
  186.2870  178.5130  147.0570 C   0  0  0  0  0  0  0  0  0  0  0  0
  187.4530  177.9910  147.7000 N   0  0  0  0  0  0  0  0  0  0  0  0
  185.6900  179.5080  147.5590 O   0  0  0  0  0  0  0  0  0  0  0  0
  189.4940  178.5790  148.6630 O   0  0  0  0  0  1  0  0  0  0  0  0
  188.1110  178.7430  148.7620 C   0  0  0  0  0  2  0  0  0  0  0  0
  187.9350  176.6530  147.3800 C   0  0  0  0  0  2  0  0  0  0  0  0
  189.3160  176.7430  146.7320 C   0  0  0  0  0  2  0  0  0  0  0  0
  189.2440  177.4860  145.4050 C   0  0  0  0  0  2  0  0  0  0  0  0
  190.3940  179.0280  143.9960 O   0  0  0  0  0  1  0  0  0  0  0  0
  190.5350  178.2590  145.1540 C   0  0  2  0  0  3  0  0  0  0  0  0
  191.7040  177.2970  144.9790 C   0  0  0  0  0  2  0  0  0  0  0  0
  191.4170  176.2630  143.9000 C   0  0  1  0  0  3  0  0  0  0  0  0
  191.9780  176.6970  142.6960 O   0  0  0  0  0  1  0  0  0  0  0  0
  192.0240  174.9230  144.2940 C   0  0  0  0  0  2  0  0  0  0  0  0
  192.3870  174.9240  145.7670 C   0  0  0  0  0  1  0  0  0  0  0  0
  188.9950  178.6990  140.1370 C   0  0  0  0  0  2  0  0  0  0  0  0
  189.5940  177.3190  139.9170 C   0  0  0  0  0  2  0  0  0  0  0  0
  188.5820  176.4130  139.2320 C   0  0  0  0  0  2  0  0  0  0  0  0
  188.3140  176.5890  134.9290 C   0  0  0  0  0  2  0  0  0  0  0  0
  188.3830  177.8130  137.1870 C   0  0  1  0  0  3  0  0  0  0  0  0
  189.7860  176.2550  134.7840 C   0  0  0  0  0  2  0  0  0  0  0  0
  190.8500  175.3090  138.2890 O   0  0  0  0  0  1  0  0  0  0  0  0
  188.7780  176.4310  137.7170 C   0  0  1  0  0  3  0  0  0  0  0  0
  188.1650  177.9050  135.6700 C   0  0  2  0  0  3  0  0  0  0  0  0
  186.9780  177.7830  136.6040 C   0  0  0  0  0  2  0  0  0  0  0  0
  190.3080  175.4100  135.9530 C   0  0  2  0  0  3  0  0  0  0  0  0
  190.2340  176.1130  137.3230 C   0  0  2  0  0  3  0  0  0  0  0  0
  194.4800  174.3520  136.5180 C   0  0  1  0  0  3  0  0  0  0  0  0
  192.7440  176.0430  135.8890 C   0  0  0  0  0  2  0  0  0  0  0  0
  194.1820  175.5810  135.6470 C   0  0  1  0  0  3  0  0  0  0  0  0
  191.7310  174.9190  135.6480 C   0  0  1  0  0  3  0  0  0  0  0  0
  192.0830  173.6640  136.4600 C   0  0  0  0  0  2  0  0  0  0  0  0
  195.0410  176.6270  136.0030 O   0  0  0  0  0  1  0  0  0  0  0  0
  193.5120  173.2270  136.1740 C   0  0  0  0  0  2  0  0  0  0  0  0
  195.9050  173.8390  136.3200 C   0  0  0  0  0  2  0  0  0  0  0  0
  197.9710  175.6000  136.8880 O   0  0  0  0  0  1  0  0  0  0  0  0
  196.6800  173.7070  137.6360 C   0  0  1  0  0  0  0  0  0  0  0  0
  198.1480  173.3410  137.6000 C   0  0  0  0  0  2  0  0  0  0  0  0
  197.7310  174.7560  137.9750 C   0  0  1  0  0  3  0  0  0  0  0  0
  195.9980  173.2090  138.7490 O   0  0  0  0  0  1  0  0  0  0  0  0
  183.6780  178.7280  140.7060 S   0  0  0  0  0  0  0  0  0  0  0  0
  180.2140  176.9050  137.1530 C   0  0  0  0  0  2  0  0  0  0  0  0
  182.8380  178.4220  138.0100 C   0  0  1  0  0  0  0  0  0  0  0  0
  179.7550  178.2130  136.5110 C   0  0  0  0  0  2  0  0  0  0  0  0
  180.5340  179.7390  137.1780 S   0  0  0  0  0  0  0  0  0  0  0  0
  182.8360  177.2300  137.0500 C   0  0  1  0  0  3  0  0  0  0  0  0
  181.4980  179.0110  138.5440 C   0  0  1  0  0  3  0  0  0  0  0  0
  183.1600  177.0530  138.5330 C   0  0  1  0  0  3  0  0  0  0  0  0
  184.0080  178.2440  138.9780 C   0  0  2  0  0  3  0  0  0  0  0  0
  181.5740  176.4370  136.6570 C   0  0  0  0  0  2  0  0  0  0  0  0
  180.5890  178.3640  139.6080 C   0  0  0  0  0  3  0  0  0  0  0  0
  180.7210  179.0460  140.8060 F   0  0  0  0  0  0  0  0  0  0  0  0
  180.7810  177.0120  139.8090 F   0  0  0  0  0  0  0  0  0  0  0  0
  2  4  2  0  0  0  0
  3  5  2  0  0  0  0
  3  2  1  0  0  0  0
  4  1  1  0  0  0  0
  4  6  1  0  0  0  0
  5  1  1  0  0  0  0
  6  7  1  0  0  0  0
  7  8  2  0  0  0  0
  8  9  1  0  0  0  0
  9 11  2  0  0  0  0
  9 10  1  0  0  0  0
 10 13  1  0  0  0  0
 12 13  1  0  0  0  0
 14 10  1  0  0  0  0
 15 14  1  0  0  0  0
 16 15  1  0  0  0  0
 18 17  1  6  0  0  0
 18 16  1  0  0  0  0
 19 18  1  0  0  0  0
 20 21  1  6  0  0  0
 20 22  1  0  0  0  0
 20 19  1  0  0  0  0
 22 23  1  0  0  0  0
 24  5  1  0  0  0  0
 25 24  1  0  0  0  0
 26 25  1  0  0  0  0
 28 33  1  1  0  0  0
 28 31  1  0  0  0  0
 29 27  1  0  0  0  0
 31 26  1  1  0  0  0
 32 27  1  6  0  0  0
 32 33  1  0  0  0  0
 32 28  1  0  0  0  0
 34 29  1  6  0  0  0
 34 35  1  0  0  0  0
 35 31  1  0  0  0  0
 35 30  1  1  0  0  0
 36 43  1  6  0  0  0
 38 37  1  0  0  0  0
 38 41  1  1  0  0  0
 38 36  1  0  0  0  0
 39 37  1  1  0  0  0
 39 34  1  0  0  0  0
 39 40  1  0  0  0  0
 42 40  1  0  0  0  0
 42 36  1  0  0  0  0
 43 45  1  0  0  0  0
 45 47  1  0  0  0  0
 45 48  1  1  0  0  0
 46 45  1  0  0  0  0
 46 47  1  0  0  0  0
 47 44  1  6  0  0  0
 49  2  1  0  0  0  0
 51 56  1  0  0  0  0
 51 55  1  0  0  0  0
 51 57  1  0  0  0  0
 52 50  1  0  0  0  0
 52 53  1  0  0  0  0
 53 55  1  0  0  0  0
 54 51  1  0  0  0  0
 54 56  1  0  0  0  0
 55 59  1  0  0  0  0
 56 57  1  0  0  0  0
 57 49  1  0  0  0  0
 58 54  1  0  0  0  0
 58 50  1  0  0  0  0
 59 61  1  0  0  0  0
 59 60  1  0  0  0  0
M  END
>  <MODEL>
7

>  <REMARK>
 VINA RESULT:      -5.9      1.576      2.220
  Name = 
  21 active torsions:
  status: ('A' for Active; 'I' for Inactive)
    1  A    between atoms: C_2  and  C_50
    2  A    between atoms: C_3  and  C_8
    3  A    between atoms: C_4  and  N_57
    4  A    between atoms: C_5  and  C_27
    5  A    between atoms: C_5  and  C_45
    6  A    between atoms: C_8  and  C_14
    7  A    between atoms: C_13  and  C_50
    8  A    between atoms: C_14  and  C_27
    9  A    between atoms: C_20  and  C_33
   10  A    between atoms: C_21  and  S_51
   11  A    between atoms: C_22  and  C_47
   12  A    between atoms: C_24  and  C_28
   13  A    between atoms: C_28  and  C_52
   14  A    between atoms: N_29  and  C_37
   15  A    between atoms: N_29  and  C_39
   16  A    between atoms: C_31  and  C_43
   17  A    between atoms: C_33  and  C_40
   18  A    between atoms: C_37  and  C_45
   19  A    between atoms: C_38  and  C_52
   20  A    between atoms: C_38  and  C_55
   21  A    between atoms: C_48  and  S_51
                            x       y       z     vdW  Elec       q    Type
                         _______ _______ _______ _____ _____    ______ ____

>  <TORSDO>
F 21

$$$$
=
 OpenBabel10222418463D

 61 68  0  0  1  0  0  0  0  0999 V2000
  186.6750  178.6480  141.7940 S   0  0  0  0  0  0  0  0  0  0  0  0
  184.7450  178.7840  140.2080 C   0  0  0  0  0  0  0  0  0  0  0  0
  185.8560  178.4620  139.4190 C   0  0  0  0  0  3  0  0  0  0  0  0
  185.0340  178.9390  141.5600 C   0  0  0  0  0  0  0  0  0  0  0  0
  187.0210  178.3620  140.1720 C   0  0  0  0  0  0  0  0  0  0  0  0
  184.0480  179.2710  142.6350 C   0  0  0  0  0  2  0  0  0  0  0  0
  184.7270  179.3350  143.9600 C   0  0  0  0  0  3  0  0  0  0  0  0
  184.6420  178.3390  144.7790 N   0  0  0  0  0  0  0  0  0  0  0  0
  185.2950  178.3410  146.0530 C   0  0  0  0  0  0  0  0  0  0  0  0
  186.7180  178.2100  146.1280 N   0  0  0  0  0  0  0  0  0  0  0  0
  184.6210  178.4390  147.1180 O   0  0  0  0  0  0  0  0  0  0  0  0
  187.5710  177.2510  148.0750 O   0  0  0  0  0  1  0  0  0  0  0  0
  187.4180  178.4540  147.3840 C   0  0  0  0  0  2  0  0  0  0  0  0
  187.4750  177.7240  144.9820 C   0  0  0  0  0  2  0  0  0  0  0  0
  188.9710  177.9020  145.2390 C   0  0  0  0  0  2  0  0  0  0  0  0
  189.6800  178.4010  143.9870 C   0  0  0  0  0  2  0  0  0  0  0  0
  191.1990  180.1280  144.6110 O   0  0  0  0  0  1  0  0  0  0  0  0
  191.1260  178.7680  144.3020 C   0  0  2  0  0  3  0  0  0  0  0  0
  192.0210  178.4770  143.1030 C   0  0  0  0  0  2  0  0  0  0  0  0
  191.5590  177.2360  142.3530 C   0  0  1  0  0  3  0  0  0  0  0  0
  192.3710  177.0560  141.2310 O   0  0  0  0  0  1  0  0  0  0  0  0
  191.6620  176.0160  143.2600 C   0  0  0  0  0  2  0  0  0  0  0  0
  190.3740  175.2170  143.2140 C   0  0  0  0  0  1  0  0  0  0  0  0
  188.3590  177.9850  139.6290 C   0  0  0  0  0  2  0  0  0  0  0  0
  188.5080  178.4820  138.2000 C   0  0  0  0  0  2  0  0  0  0  0  0
  189.8130  177.9770  137.6040 C   0  0  0  0  0  2  0  0  0  0  0  0
  188.8090  173.8160  137.0570 C   0  0  0  0  0  2  0  0  0  0  0  0
  188.5210  176.2680  136.3420 C   0  0  1  0  0  3  0  0  0  0  0  0
  190.1590  173.5330  136.4280 C   0  0  0  0  0  2  0  0  0  0  0  0
  192.1170  176.7170  137.0070 O   0  0  0  0  0  1  0  0  0  0  0  0
  189.7180  176.4880  137.2740 C   0  0  1  0  0  3  0  0  0  0  0  0
  188.0510  174.8130  136.1990 C   0  0  2  0  0  3  0  0  0  0  0  0
  187.3190  175.7630  137.1250 C   0  0  0  0  0  2  0  0  0  0  0  0
  191.2510  174.4790  136.9420 C   0  0  2  0  0  3  0  0  0  0  0  0
  191.0060  175.9650  136.6080 C   0  0  2  0  0  3  0  0  0  0  0  0
  194.7730  172.0050  136.3830 C   0  0  1  0  0  3  0  0  0  0  0  0
  193.5830  173.8230  137.6260 C   0  0  0  0  0  2  0  0  0  0  0  0
  194.9510  173.3050  137.1800 C   0  0  1  0  0  3  0  0  0  0  0  0
  192.6260  174.0100  136.4450 C   0  0  1  0  0  3  0  0  0  0  0  0
  192.5160  172.7290  135.6040 C   0  0  0  0  0  2  0  0  0  0  0  0
  195.7160  173.0530  138.3250 O   0  0  0  0  0  1  0  0  0  0  0  0
  193.8960  172.2610  135.1640 C   0  0  0  0  0  2  0  0  0  0  0  0
  196.1080  171.4360  135.9060 C   0  0  0  0  0  2  0  0  0  0  0  0
  198.6540  171.8610  136.9190 O   0  0  0  0  0  1  0  0  0  0  0  0
  196.7140  170.4300  136.8910 C   0  0  1  0  0  0  0  0  0  0  0  0
  197.9380  169.6380  136.4840 C   0  0  0  0  0  2  0  0  0  0  0  0
  198.0650  170.7460  137.5200 C   0  0  1  0  0  3  0  0  0  0  0  0
  195.8450  169.7360  137.7360 O   0  0  0  0  0  1  0  0  0  0  0  0
  183.1010  178.9520  139.5200 S   0  0  0  0  0  0  0  0  0  0  0  0
  181.0420  174.3490  137.9340 C   0  0  0  0  0  2  0  0  0  0  0  0
  182.3990  177.1480  137.4410 C   0  0  1  0  0  0  0  0  0  0  0  0
  179.8810  174.8420  137.0720 C   0  0  0  0  0  2  0  0  0  0  0  0
  179.7040  176.6680  136.9530 S   0  0  0  0  0  0  0  0  0  0  0  0
  183.0060  175.8280  136.9610 C   0  0  1  0  0  3  0  0  0  0  0  0
  181.0010  177.1740  138.1290 C   0  0  1  0  0  3  0  0  0  0  0  0
  183.4730  176.4910  138.2560 C   0  0  1  0  0  3  0  0  0  0  0  0
  183.5280  178.0010  138.0220 C   0  0  2  0  0  3  0  0  0  0  0  0
  182.3900  174.4420  137.2360 C   0  0  0  0  0  2  0  0  0  0  0  0
  180.6930  176.6990  139.5630 C   0  0  0  0  0  3  0  0  0  0  0  0
  179.5180  175.9670  139.5670 F   0  0  0  0  0  0  0  0  0  0  0  0
  180.6350  177.6940  140.5170 F   0  0  0  0  0  0  0  0  0  0  0  0
  2  4  2  0  0  0  0
  3  5  2  0  0  0  0
  3  2  1  0  0  0  0
  4  1  1  0  0  0  0
  4  6  1  0  0  0  0
  5  1  1  0  0  0  0
  6  7  1  0  0  0  0
  7  8  2  0  0  0  0
  8  9  1  0  0  0  0
  9 10  1  0  0  0  0
  9 11  2  0  0  0  0
 10 13  1  0  0  0  0
 13 12  1  0  0  0  0
 14 15  1  0  0  0  0
 14 10  1  0  0  0  0
 16 18  1  0  0  0  0
 16 15  1  0  0  0  0
 18 17  1  6  0  0  0
 19 18  1  0  0  0  0
 20 21  1  6  0  0  0
 20 19  1  0  0  0  0
 20 22  1  0  0  0  0
 23 22  1  0  0  0  0
 24  5  1  0  0  0  0
 25 24  1  0  0  0  0
 26 25  1  0  0  0  0
 28 33  1  1  0  0  0
 28 31  1  0  0  0  0
 29 27  1  0  0  0  0
 31 26  1  6  0  0  0
 32 28  1  0  0  0  0
 32 27  1  1  0  0  0
 32 33  1  0  0  0  0
 34 29  1  6  0  0  0
 35 34  1  0  0  0  0
 35 30  1  1  0  0  0
 35 31  1  0  0  0  0
 36 43  1  6  0  0  0
 36 38  1  0  0  0  0
 38 37  1  0  0  0  0
 38 41  1  1  0  0  0
 39 40  1  1  0  0  0
 39 34  1  0  0  0  0
 39 37  1  0  0  0  0
 42 40  1  0  0  0  0
 42 36  1  0  0  0  0
 43 45  1  0  0  0  0
 45 47  1  0  0  0  0
 45 48  1  1  0  0  0
 46 45  1  0  0  0  0
 46 47  1  0  0  0  0
 47 44  1  6  0  0  0
 49  2  1  0  0  0  0
 51 57  1  0  0  0  0
 51 55  1  0  0  0  0
 51 56  1  0  0  0  0
 52 50  1  0  0  0  0
 53 52  1  0  0  0  0
 53 55  1  0  0  0  0
 54 58  1  0  0  0  0
 54 51  1  0  0  0  0
 54 56  1  0  0  0  0
 55 59  1  0  0  0  0
 57 56  1  0  0  0  0
 57 49  1  0  0  0  0
 58 50  1  0  0  0  0
 59 60  1  0  0  0  0
 59 61  1  0  0  0  0
M  END
>  <MODEL>
8

>  <REMARK>
 VINA RESULT:      -5.8      1.673      2.119
  Name = 
  21 active torsions:
  status: ('A' for Active; 'I' for Inactive)
    1  A    between atoms: C_2  and  C_50
    2  A    between atoms: C_3  and  C_8
    3  A    between atoms: C_4  and  N_57
    4  A    between atoms: C_5  and  C_27
    5  A    between atoms: C_5  and  C_45
    6  A    between atoms: C_8  and  C_14
    7  A    between atoms: C_13  and  C_50
    8  A    between atoms: C_14  and  C_27
    9  A    between atoms: C_20  and  C_33
   10  A    between atoms: C_21  and  S_51
   11  A    between atoms: C_22  and  C_47
   12  A    between atoms: C_24  and  C_28
   13  A    between atoms: C_28  and  C_52
   14  A    between atoms: N_29  and  C_37
   15  A    between atoms: N_29  and  C_39
   16  A    between atoms: C_31  and  C_43
   17  A    between atoms: C_33  and  C_40
   18  A    between atoms: C_37  and  C_45
   19  A    between atoms: C_38  and  C_52
   20  A    between atoms: C_38  and  C_55
   21  A    between atoms: C_48  and  S_51
                            x       y       z     vdW  Elec       q    Type
                         _______ _______ _______ _____ _____    ______ ____

>  <TORSDO>
F 21

$$$$
=
 OpenBabel10222418463D

 61 68  0  0  1  0  0  0  0  0999 V2000
  188.2390  177.4940  141.5630 S   0  0  0  0  0  0  0  0  0  0  0  0
  189.7280  177.2650  139.5650 C   0  0  0  0  0  0  0  0  0  0  0  0
  190.3750  176.5730  140.5960 C   0  0  0  0  0  3  0  0  0  0  0  0
  188.5250  177.8530  139.9440 C   0  0  0  0  0  0  0  0  0  0  0  0
  189.6620  176.6230  141.7890 C   0  0  0  0  0  0  0  0  0  0  0  0
  187.6160  178.6420  139.0540 C   0  0  0  0  0  2  0  0  0  0  0  0
  186.8070  177.7290  138.2000 C   0  0  0  0  0  3  0  0  0  0  0  0
  185.5260  177.6590  138.3620 N   0  0  0  0  0  0  0  0  0  0  0  0
  184.7010  176.8150  137.5510 C   0  0  0  0  0  0  0  0  0  0  0  0
  183.5200  177.3410  136.9400 N   0  0  0  0  0  0  0  0  0  0  0  0
  184.9990  175.5960  137.3860 O   0  0  0  0  0  0  0  0  0  0  0  0
  183.4180  176.7630  134.6830 O   0  0  0  0  0  1  0  0  0  0  0  0
  182.8080  176.5740  135.9240 C   0  0  0  0  0  2  0  0  0  0  0  0
  182.9500  178.6000  137.4020 C   0  0  0  0  0  2  0  0  0  0  0  0
  181.4340  178.4600  137.5410 C   0  0  0  0  0  2  0  0  0  0  0  0
  180.7190  179.6290  136.8790 C   0  0  0  0  0  2  0  0  0  0  0  0
  180.3790  180.7980  138.9290 O   0  0  0  0  0  1  0  0  0  0  0  0
  180.9570  180.9160  137.6630 C   0  0  2  0  0  3  0  0  0  0  0  0
  180.3360  182.1020  136.9360 C   0  0  0  0  0  2  0  0  0  0  0  0
  180.5110  183.3920  137.7250 C   0  0  1  0  0  3  0  0  0  0  0  0
  181.5800  184.1120  137.1840 O   0  0  0  0  0  1  0  0  0  0  0  0
  179.2390  184.2250  137.6420 C   0  0  0  0  0  2  0  0  0  0  0  0
  179.5560  185.6190  137.1350 C   0  0  0  0  0  1  0  0  0  0  0  0
  190.0640  175.9420  143.0540 C   0  0  0  0  0  2  0  0  0  0  0  0
  191.3980  176.4840  143.5430 C   0  0  0  0  0  2  0  0  0  0  0  0
  191.1770  177.7100  144.4150 C   0  0  0  0  0  2  0  0  0  0  0  0
  188.4470  176.4010  147.4890 C   0  0  0  0  0  2  0  0  0  0  0  0
  190.5910  177.6560  146.8300 C   0  0  1  0  0  3  0  0  0  0  0  0
  187.4190  177.4320  147.0700 C   0  0  0  0  0  2  0  0  0  0  0  0
  188.7950  178.8230  143.8320 O   0  0  0  0  0  1  0  0  0  0  0  0
  190.0430  177.4710  145.4110 C   0  0  1  0  0  3  0  0  0  0  0  0
  189.7070  177.1040  147.9590 C   0  0  2  0  0  3  0  0  0  0  0  0
  190.8980  176.3080  147.4660 C   0  0  0  0  0  2  0  0  0  0  0  0
  187.5200  177.7830  145.5810 C   0  0  2  0  0  3  0  0  0  0  0  0
  188.8600  178.4290  145.1750 C   0  0  2  0  0  3  0  0  0  0  0  0
  183.5250  178.9180  144.3170 C   0  0  1  0  0  3  0  0  0  0  0  0
  185.8840  178.3120  143.7410 C   0  0  0  0  0  2  0  0  0  0  0  0
  184.6630  179.1230  143.3080 C   0  0  1  0  0  3  0  0  0  0  0  0
  186.3260  178.6560  145.1670 C   0  0  1  0  0  3  0  0  0  0  0  0
  185.1610  178.5280  146.1610 C   0  0  0  0  0  2  0  0  0  0  0  0
  184.2600  178.6630  142.0480 O   0  0  0  0  0  1  0  0  0  0  0  0
  183.9760  179.3660  145.7020 C   0  0  0  0  0  2  0  0  0  0  0  0
  182.2720  179.7060  143.9410 C   0  0  0  0  0  2  0  0  0  0  0  0
  180.0310  180.7650  142.6960 O   0  0  0  0  0  1  0  0  0  0  0  0
  181.0670  178.8060  143.6450 C   0  0  1  0  0  0  0  0  0  0  0  0
  179.7510  179.0750  144.3420 C   0  0  0  0  0  2  0  0  0  0  0  0
  179.8970  179.3830  142.8590 C   0  0  1  0  0  3  0  0  0  0  0  0
  181.3080  177.4530  143.3900 O   0  0  0  0  0  1  0  0  0  0  0  0
  190.3950  177.3520  137.9060 S   0  0  0  0  0  0  0  0  0  0  0  0
  193.1480  173.8480  135.0630 C   0  0  0  0  0  2  0  0  0  0  0  0
  191.1200  174.6670  137.3280 C   0  0  1  0  0  0  0  0  0  0  0  0
  193.9970  173.2020  136.1570 C   0  0  0  0  0  2  0  0  0  0  0  0
  193.7260  173.8510  137.8550 S   0  0  0  0  0  0  0  0  0  0  0  0
  190.7590  173.7150  136.1860 C   0  0  1  0  0  3  0  0  0  0  0  0
  192.5730  175.2110  137.4770 C   0  0  1  0  0  3  0  0  0  0  0  0
  190.3840  175.1960  136.1330 C   0  0  1  0  0  3  0  0  0  0  0  0
  189.9450  175.6240  137.5330 C   0  0  2  0  0  3  0  0  0  0  0  0
  191.7150  173.3410  135.0360 C   0  0  0  0  0  2  0  0  0  0  0  0
  193.2260  176.2890  136.5900 C   0  0  0  0  0  3  0  0  0  0  0  0
  192.5750  176.3430  135.3690 F   0  0  0  0  0  0  0  0  0  0  0  0
  194.5860  176.1530  136.3960 F   0  0  0  0  0  0  0  0  0  0  0  0
  1  5  1  0  0  0  0
  2  4  2  0  0  0  0
  2  3  1  0  0  0  0
  3  5  2  0  0  0  0
  4  1  1  0  0  0  0
  5 24  1  0  0  0  0
  6  4  1  0  0  0  0
  7  8  2  0  0  0  0
  7  6  1  0  0  0  0
  9  8  1  0  0  0  0
 10 14  1  0  0  0  0
 10  9  1  0  0  0  0
 11  9  2  0  0  0  0
 12 13  1  0  0  0  0
 13 10  1  0  0  0  0
 14 15  1  0  0  0  0
 16 15  1  0  0  0  0
 16 18  1  0  0  0  0
 18 17  1  1  0  0  0
 19 18  1  0  0  0  0
 19 20  1  0  0  0  0
 20 21  1  6  0  0  0
 22 20  1  0  0  0  0
 23 22  1  0  0  0  0
 24 25  1  0  0  0  0
 25 26  1  0  0  0  0
 27 32  1  0  0  0  0
 28 33  1  6  0  0  0
 28 32  1  0  0  0  0
 29 27  1  0  0  0  0
 31 26  1  6  0  0  0
 31 28  1  0  0  0  0
 32 33  1  6  0  0  0
 34 29  1  1  0  0  0
 35 30  1  6  0  0  0
 35 31  1  0  0  0  0
 35 34  1  0  0  0  0
 36 43  1  6  0  0  0
 36 42  1  0  0  0  0
 38 41  1  6  0  0  0
 38 37  1  0  0  0  0
 38 36  1  0  0  0  0
 39 37  1  6  0  0  0
 39 34  1  0  0  0  0
 39 40  1  0  0  0  0
 42 40  1  0  0  0  0
 45 48  1  6  0  0  0
 45 43  1  0  0  0  0
 45 46  1  0  0  0  0
 47 44  1  1  0  0  0
 47 45  1  0  0  0  0
 47 46  1  0  0  0  0
 49  2  1  0  0  0  0
 50 52  1  0  0  0  0
 51 55  1  0  0  0  0
 51 57  1  0  0  0  0
 52 53  1  0  0  0  0
 54 51  1  0  0  0  0
 55 53  1  0  0  0  0
 56 54  1  0  0  0  0
 56 51  1  0  0  0  0
 56 57  1  0  0  0  0
 57 49  1  0  0  0  0
 58 50  1  0  0  0  0
 58 54  1  0  0  0  0
 59 55  1  0  0  0  0
 60 59  1  0  0  0  0
 61 59  1  0  0  0  0
M  END
>  <MODEL>
9

>  <REMARK>
 VINA RESULT:      -5.7      4.640     12.041
  Name = 
  21 active torsions:
  status: ('A' for Active; 'I' for Inactive)
    1  A    between atoms: C_2  and  C_50
    2  A    between atoms: C_3  and  C_8
    3  A    between atoms: C_4  and  N_57
    4  A    between atoms: C_5  and  C_27
    5  A    between atoms: C_5  and  C_45
    6  A    between atoms: C_8  and  C_14
    7  A    between atoms: C_13  and  C_50
    8  A    between atoms: C_14  and  C_27
    9  A    between atoms: C_20  and  C_33
   10  A    between atoms: C_21  and  S_51
   11  A    between atoms: C_22  and  C_47
   12  A    between atoms: C_24  and  C_28
   13  A    between atoms: C_28  and  C_52
   14  A    between atoms: N_29  and  C_37
   15  A    between atoms: N_29  and  C_39
   16  A    between atoms: C_31  and  C_43
   17  A    between atoms: C_33  and  C_40
   18  A    between atoms: C_37  and  C_45
   19  A    between atoms: C_38  and  C_52
   20  A    between atoms: C_38  and  C_55
   21  A    between atoms: C_48  and  S_51
                            x       y       z     vdW  Elec       q    Type
                         _______ _______ _______ _____ _____    ______ ____

>  <TORSDO>
F 21

$$$$
