=
 OpenBabel10222417253D

 28 31  0  0  1  0  0  0  0  0999 V2000
  189.0000  177.6380  138.6240 C   0  0  0  0  0  0  0  0  0  0  0  0
  190.9370  177.1400  139.9780 C   0  0  0  0  0  3  0  0  0  0  0  0
  188.4250  177.8530  137.3800 O   0  0  0  0  0  1  0  0  0  0  0  0
  188.7770  177.4930  141.0450 C   0  0  0  0  0  0  0  0  0  0  0  0
  190.1680  177.2240  141.1480 C   0  0  0  0  0  0  0  0  0  0  0  0
  190.3580  177.3430  138.7250 C   0  0  0  0  0  3  0  0  0  0  0  0
  188.2150  177.7060  139.7760 C   0  0  0  0  0  3  0  0  0  0  0  0
  188.1620  176.8530  144.5760 C   0  0  0  0  0  3  0  0  0  0  0  0
  185.8050  178.4120  143.3110 C   0  0  0  0  0  0  0  0  0  0  0  0
  184.8820  178.3090  145.6430 C   0  0  2  0  0  3  0  0  0  0  0  0
  183.3490  178.7460  143.7420 C   0  0  0  0  0  2  0  0  0  0  0  0
  186.0010  178.1370  144.6320 C   0  0  0  0  0  0  0  0  0  0  0  0
  183.7190  179.1620  145.1500 C   0  0  0  0  0  2  0  0  0  0  0  0
  185.3650  178.8480  146.8230 F   0  0  0  0  0  0  0  0  0  0  0  0
  186.8500  178.3300  142.2670 C   0  0  0  0  0  3  0  0  0  0  0  0
  187.2710  177.6220  145.1980 C   0  0  0  0  0  3  0  0  0  0  0  0
  187.8710  177.4700  142.2150 C   0  0  0  0  0  0  0  0  0  0  0  0
  187.9760  176.3450  143.1910 C   0  0  0  0  0  2  0  0  0  0  0  0
  184.5280  179.0510  142.8350 C   0  0  0  0  0  2  0  0  0  0  0  0
  191.4430  176.7710  145.1940 N   0  0  0  0  0  0  0  0  0  0  0  0
  191.1000  175.8720  142.9550 C   0  0  0  0  0  3  0  0  0  0  0  0
  190.8700  177.0890  142.4400 C   0  0  0  0  0  0  0  0  0  0  0  0
  191.8010  175.6960  144.2710 C   0  0  0  0  0  2  0  0  0  0  0  0
  190.9730  179.0530  145.4640 O   0  0  0  0  0  0  0  0  0  0  0  0
  191.2030  178.0920  144.6840 C   0  0  0  0  0  0  0  0  0  0  0  0
  191.2510  178.3320  143.2050 C   0  0  0  0  0  2  0  0  0  0  0  0
  192.4880  175.6670  146.9650 O   0  0  0  0  0  1  0  0  0  0  0  0
  191.4110  176.4860  146.6200 C   0  0  0  0  0  2  0  0  0  0  0  0
  1  6  2  0  0  0  0
  1  7  1  0  0  0  0
  2  5  2  0  0  0  0
  3  1  1  0  0  0  0
  4  5  1  0  0  0  0
  4 17  1  0  0  0  0
  5 22  1  0  0  0  0
  6  2  1  0  0  0  0
  7  4  2  0  0  0  0
  8 16  2  0  0  0  0
  9 12  2  0  0  0  0
 10 14  1  1  0  0  0
 11 13  1  0  0  0  0
 12 16  1  0  0  0  0
 12 10  1  0  0  0  0
 13 10  1  0  0  0  0
 15  9  1  0  0  0  0
 17 15  2  0  0  0  0
 17 18  1  0  0  0  0
 18  8  1  0  0  0  0
 19  9  1  0  0  0  0
 19 11  1  0  0  0  0
 20 28  1  0  0  0  0
 21 23  1  0  0  0  0
 22 21  2  0  0  0  0
 22 26  1  0  0  0  0
 23 20  1  0  0  0  0
 25 20  1  0  0  0  0
 25 24  2  0  0  0  0
 26 25  1  0  0  0  0
 28 27  1  0  0  0  0
M  END
>  <MODEL>
1

>  <REMARK>
 VINA RESULT:      -9.9      0.000      0.000
  Name = 
  3 active torsions:
  status: ('A' for Active; 'I' for Inactive)
    1  A    between atoms: N_8  and  C_12
    2  A    between atoms: C_15  and  C_23
    3  A    between atoms: C_17  and  C_21
                            x       y       z     vdW  Elec       q    Type
                         _______ _______ _______ _____ _____    ______ ____

>  <TORSDO>
F 3

$$$$
=
 OpenBabel10222417253D

 28 31  0  0  1  0  0  0  0  0999 V2000
  188.7320  176.9650  138.0440 C   0  0  0  0  0  0  0  0  0  0  0  0
  190.6040  176.3960  139.4590 C   0  0  0  0  0  3  0  0  0  0  0  0
  188.1310  176.9830  136.7940 O   0  0  0  0  0  1  0  0  0  0  0  0
  188.6550  177.4920  140.4200 C   0  0  0  0  0  0  0  0  0  0  0  0
  189.9570  176.9470  140.5740 C   0  0  0  0  0  0  0  0  0  0  0  0
  189.9970  176.4020  138.2030 C   0  0  0  0  0  3  0  0  0  0  0  0
  188.0630  177.4990  139.1470 C   0  0  0  0  0  3  0  0  0  0  0  0
  185.7280  179.1980  141.7540 C   0  0  0  0  0  3  0  0  0  0  0  0
  187.2320  177.6760  143.9920 C   0  0  0  0  0  0  0  0  0  0  0  0
  185.3780  178.5710  145.4280 C   0  0  2  0  0  3  0  0  0  0  0  0
  187.4890  177.8170  146.4910 C   0  0  0  0  0  2  0  0  0  0  0  0
  186.0180  178.2910  144.0800 C   0  0  0  0  0  0  0  0  0  0  0  0
  185.9790  177.7780  146.5830 C   0  0  0  0  0  2  0  0  0  0  0  0
  184.0150  178.3340  145.3830 F   0  0  0  0  0  0  0  0  0  0  0  0
  187.9040  177.3110  142.7250 C   0  0  0  0  0  3  0  0  0  0  0  0
  185.2370  178.7700  142.9140 C   0  0  0  0  0  3  0  0  0  0  0  0
  187.8500  177.9730  141.5650 C   0  0  0  0  0  0  0  0  0  0  0  0
  187.1850  179.3070  141.4740 C   0  0  0  0  0  2  0  0  0  0  0  0
  187.9030  177.1070  145.2140 C   0  0  0  0  0  2  0  0  0  0  0  0
  191.3810  177.2250  144.5860 N   0  0  0  0  0  0  0  0  0  0  0  0
  190.7320  175.9060  142.6430 C   0  0  0  0  0  3  0  0  0  0  0  0
  190.7020  176.9860  141.8480 C   0  0  0  0  0  0  0  0  0  0  0  0
  191.4710  175.9130  143.9500 C   0  0  0  0  0  2  0  0  0  0  0  0
  191.3680  179.5530  144.2950 O   0  0  0  0  0  0  0  0  0  0  0  0
  191.3620  178.4080  143.7710 C   0  0  0  0  0  0  0  0  0  0  0  0
  191.3590  178.2750  142.2780 C   0  0  0  0  0  2  0  0  0  0  0  0
  192.2000  176.2930  146.5630 O   0  0  0  0  0  1  0  0  0  0  0  0
  191.3880  177.3000  146.0400 C   0  0  0  0  0  2  0  0  0  0  0  0
  1  6  2  0  0  0  0
  1  7  1  0  0  0  0
  2  5  2  0  0  0  0
  3  1  1  0  0  0  0
  4  5  1  0  0  0  0
  4 17  1  0  0  0  0
  5 22  1  0  0  0  0
  6  2  1  0  0  0  0
  7  4  2  0  0  0  0
  8 16  2  0  0  0  0
  9 12  2  0  0  0  0
  9 19  1  0  0  0  0
 10 14  1  6  0  0  0
 10 13  1  0  0  0  0
 11 13  1  0  0  0  0
 12 10  1  0  0  0  0
 15  9  1  0  0  0  0
 16 12  1  0  0  0  0
 17 15  2  0  0  0  0
 18 17  1  0  0  0  0
 18  8  1  0  0  0  0
 19 11  1  0  0  0  0
 20 28  1  0  0  0  0
 21 23  1  0  0  0  0
 22 26  1  0  0  0  0
 22 21  2  0  0  0  0
 23 20  1  0  0  0  0
 25 24  2  0  0  0  0
 25 20  1  0  0  0  0
 26 25  1  0  0  0  0
 28 27  1  0  0  0  0
M  END
>  <MODEL>
2

>  <REMARK>
 VINA RESULT:      -9.6      1.026      2.080
  Name = 
  3 active torsions:
  status: ('A' for Active; 'I' for Inactive)
    1  A    between atoms: N_8  and  C_12
    2  A    between atoms: C_15  and  C_23
    3  A    between atoms: C_17  and  C_21
                            x       y       z     vdW  Elec       q    Type
                         _______ _______ _______ _____ _____    ______ ____

>  <TORSDO>
F 3

$$$$
=
 OpenBabel10222417253D

 28 31  0  0  1  0  0  0  0  0999 V2000
  192.3730  176.9780  139.2350 C   0  0  0  0  0  0  0  0  0  0  0  0
  189.9880  177.3520  139.1680 C   0  0  0  0  0  3  0  0  0  0  0  0
  193.5760  176.7650  138.5780 O   0  0  0  0  0  1  0  0  0  0  0  0
  191.1330  177.2460  141.3140 C   0  0  0  0  0  0  0  0  0  0  0  0
  189.9330  177.3900  140.5690 C   0  0  0  0  0  0  0  0  0  0  0  0
  191.1990  177.1500  138.5050 C   0  0  0  0  0  3  0  0  0  0  0  0
  192.3400  177.0330  140.6300 C   0  0  0  0  0  3  0  0  0  0  0  0
  190.1770  179.0030  144.3570 C   0  0  0  0  0  3  0  0  0  0  0  0
  191.5130  176.2890  145.0230 C   0  0  0  0  0  0  0  0  0  0  0  0
  191.0520  176.9880  147.3890 C   0  0  2  0  0  3  0  0  0  0  0  0
  192.7680  175.2530  146.9420 C   0  0  0  0  0  2  0  0  0  0  0  0
  190.8890  177.1390  145.8880 C   0  0  0  0  0  0  0  0  0  0  0  0
  191.6000  175.6350  147.8250 C   0  0  0  0  0  2  0  0  0  0  0  0
  189.8510  177.2160  148.0390 F   0  0  0  0  0  0  0  0  0  0  0  0
  191.3670  176.3240  143.5510 C   0  0  0  0  0  3  0  0  0  0  0  0
  190.0450  178.2840  145.4700 C   0  0  0  0  0  3  0  0  0  0  0  0
  191.1830  177.4030  142.7850 C   0  0  0  0  0  0  0  0  0  0  0  0
  191.2620  178.7770  143.3650 C   0  0  0  0  0  2  0  0  0  0  0  0
  192.2490  175.0760  145.5250 C   0  0  0  0  0  2  0  0  0  0  0  0
  186.4600  178.2890  142.8780 N   0  0  0  0  0  0  0  0  0  0  0  0
  187.7820  178.5140  140.8440 C   0  0  0  0  0  3  0  0  0  0  0  0
  188.6020  177.5140  141.1990 C   0  0  0  0  0  0  0  0  0  0  0  0
  186.4280  178.6780  141.4700 C   0  0  0  0  0  2  0  0  0  0  0  0
  187.3000  176.8030  144.4880 O   0  0  0  0  0  0  0  0  0  0  0  0
  187.3130  177.2120  143.2960 C   0  0  0  0  0  0  0  0  0  0  0  0
  188.2140  176.5530  142.2960 C   0  0  0  0  0  2  0  0  0  0  0  0
  184.3680  178.2490  143.9130 O   0  0  0  0  0  1  0  0  0  0  0  0
  185.5650  178.9590  143.8090 C   0  0  0  0  0  2  0  0  0  0  0  0
  1  7  1  0  0  0  0
  2  5  2  0  0  0  0
  3  1  1  0  0  0  0
  4 17  1  0  0  0  0
  5 22  1  0  0  0  0
  5  4  1  0  0  0  0
  6  2  1  0  0  0  0
  6  1  2  0  0  0  0
  7  4  2  0  0  0  0
  8 16  2  0  0  0  0
  9 19  1  0  0  0  0
  9 12  2  0  0  0  0
 10 13  1  0  0  0  0
 10 14  1  1  0  0  0
 11 13  1  0  0  0  0
 12 10  1  0  0  0  0
 15  9  1  0  0  0  0
 16 12  1  0  0  0  0
 17 18  1  0  0  0  0
 17 15  2  0  0  0  0
 18  8  1  0  0  0  0
 19 11  1  0  0  0  0
 20 25  1  0  0  0  0
 20 28  1  0  0  0  0
 21 22  2  0  0  0  0
 21 23  1  0  0  0  0
 22 26  1  0  0  0  0
 23 20  1  0  0  0  0
 25 24  2  0  0  0  0
 26 25  1  0  0  0  0
 28 27  1  0  0  0  0
M  END
>  <MODEL>
3

>  <REMARK>
 VINA RESULT:      -8.6      2.546      5.465
  Name = 
  3 active torsions:
  status: ('A' for Active; 'I' for Inactive)
    1  A    between atoms: N_8  and  C_12
    2  A    between atoms: C_15  and  C_23
    3  A    between atoms: C_17  and  C_21
                            x       y       z     vdW  Elec       q    Type
                         _______ _______ _______ _____ _____    ______ ____

>  <TORSDO>
F 3

$$$$
=
 OpenBabel10222417253D

 28 31  0  0  1  0  0  0  0  0999 V2000
  183.0190  178.8400  142.7130 C   0  0  0  0  0  0  0  0  0  0  0  0
  184.5900  178.9820  140.8850 C   0  0  0  0  0  3  0  0  0  0  0  0
  181.7270  178.9720  143.2020 O   0  0  0  0  0  1  0  0  0  0  0  0
  185.3630  178.2950  143.0890 C   0  0  0  0  0  0  0  0  0  0  0  0
  185.6410  178.5930  141.7290 C   0  0  0  0  0  0  0  0  0  0  0  0
  183.2880  179.1020  141.3710 C   0  0  0  0  0  3  0  0  0  0  0  0
  184.0480  178.4330  143.5640 C   0  0  0  0  0  3  0  0  0  0  0  0
  188.3950  176.3750  143.7030 C   0  0  0  0  0  3  0  0  0  0  0  0
  187.5950  178.0050  146.2120 C   0  0  0  0  0  0  0  0  0  0  0  0
  189.6730  176.9750  147.1700 C   0  0  2  0  0  3  0  0  0  0  0  0
  187.9440  177.8830  148.7000 C   0  0  0  0  0  2  0  0  0  0  0  0
  188.7460  177.3010  146.0140 C   0  0  0  0  0  0  0  0  0  0  0  0
  189.4300  177.8100  148.4220 C   0  0  0  0  0  2  0  0  0  0  0  0
  190.9970  177.1090  146.7920 F   0  0  0  0  0  0  0  0  0  0  0  0
  186.6630  178.4190  145.1390 C   0  0  0  0  0  3  0  0  0  0  0  0
  189.1830  176.7660  144.7020 C   0  0  0  0  0  3  0  0  0  0  0  0
  186.3840  177.7550  144.0130 C   0  0  0  0  0  0  0  0  0  0  0  0
  186.9100  176.3760  143.7870 C   0  0  0  0  0  2  0  0  0  0  0  0
  187.2850  178.6220  147.5490 C   0  0  0  0  0  2  0  0  0  0  0  0
  189.6570  177.8450  140.5000 N   0  0  0  0  0  0  0  0  0  0  0  0
  187.2620  177.8740  140.0510 C   0  0  0  0  0  3  0  0  0  0  0  0
  187.0050  178.5790  141.1630 C   0  0  0  0  0  0  0  0  0  0  0  0
  188.6390  177.8270  139.4530 C   0  0  0  0  0  2  0  0  0  0  0  0
  190.3190  178.7000  142.5830 O   0  0  0  0  0  0  0  0  0  0  0  0
  189.4260  178.6010  141.7000 C   0  0  0  0  0  0  0  0  0  0  0  0
  188.1130  179.2970  141.8920 C   0  0  0  0  0  2  0  0  0  0  0  0
  190.6910  176.0060  139.5030 O   0  0  0  0  0  1  0  0  0  0  0  0
  190.9150  177.1530  140.2650 C   0  0  0  0  0  2  0  0  0  0  0  0
  1  3  1  0  0  0  0
  1  7  1  0  0  0  0
  2  6  1  0  0  0  0
  2  5  2  0  0  0  0
  4  7  2  0  0  0  0
  4 17  1  0  0  0  0
  5  4  1  0  0  0  0
  6  1  2  0  0  0  0
  8 18  1  0  0  0  0
  8 16  2  0  0  0  0
  9 19  1  0  0  0  0
 10 14  1  6  0  0  0
 10 13  1  0  0  0  0
 12  9  2  0  0  0  0
 12 10  1  0  0  0  0
 13 11  1  0  0  0  0
 15  9  1  0  0  0  0
 16 12  1  0  0  0  0
 17 15  2  0  0  0  0
 18 17  1  0  0  0  0
 19 11  1  0  0  0  0
 20 25  1  0  0  0  0
 21 22  2  0  0  0  0
 22  5  1  0  0  0  0
 22 26  1  0  0  0  0
 23 21  1  0  0  0  0
 23 20  1  0  0  0  0
 25 26  1  0  0  0  0
 25 24  2  0  0  0  0
 27 28  1  0  0  0  0
 28 20  1  0  0  0  0
M  END
>  <MODEL>
4

>  <REMARK>
 VINA RESULT:      -8.6      2.816      5.278
  Name = 
  3 active torsions:
  status: ('A' for Active; 'I' for Inactive)
    1  A    between atoms: N_8  and  C_12
    2  A    between atoms: C_15  and  C_23
    3  A    between atoms: C_17  and  C_21
                            x       y       z     vdW  Elec       q    Type
                         _______ _______ _______ _____ _____    ______ ____

>  <TORSDO>
F 3

$$$$
=
 OpenBabel10222417253D

 28 31  0  0  1  0  0  0  0  0999 V2000
  188.2900  177.9650  138.5100 C   0  0  0  0  0  0  0  0  0  0  0  0
  185.9650  178.2770  137.9360 C   0  0  0  0  0  3  0  0  0  0  0  0
  189.6060  177.7510  138.1260 O   0  0  0  0  0  1  0  0  0  0  0  0
  186.6430  178.2980  140.2740 C   0  0  0  0  0  0  0  0  0  0  0  0
  185.6210  178.3780  139.2920 C   0  0  0  0  0  0  0  0  0  0  0  0
  187.2900  178.0740  137.5460 C   0  0  0  0  0  3  0  0  0  0  0  0
  187.9690  178.0830  139.8640 C   0  0  0  0  0  3  0  0  0  0  0  0
  184.4650  179.3850  142.9810 C   0  0  0  0  0  3  0  0  0  0  0  0
  186.9300  177.8730  144.0880 C   0  0  0  0  0  0  0  0  0  0  0  0
  185.8260  178.3140  146.2990 C   0  0  2  0  0  3  0  0  0  0  0  0
  188.2480  177.7770  146.2290 C   0  0  0  0  0  2  0  0  0  0  0  0
  185.8290  178.2830  144.7820 C   0  0  0  0  0  0  0  0  0  0  0  0
  186.9420  177.5000  146.9440 C   0  0  0  0  0  2  0  0  0  0  0  0
  184.6100  177.8790  146.7970 F   0  0  0  0  0  0  0  0  0  0  0  0
  187.0040  177.7550  142.6150 C   0  0  0  0  0  3  0  0  0  0  0  0
  184.5760  178.7630  144.1520 C   0  0  0  0  0  3  0  0  0  0  0  0
  186.3870  178.5240  141.7130 C   0  0  0  0  0  0  0  0  0  0  0  0
  185.6330  179.7430  142.1330 C   0  0  0  0  0  2  0  0  0  0  0  0
  188.1170  177.2820  144.7990 C   0  0  0  0  0  2  0  0  0  0  0  0
  181.3610  178.3830  139.5280 N   0  0  0  0  0  0  0  0  0  0  0  0
  183.5280  177.4490  140.1380 C   0  0  0  0  0  3  0  0  0  0  0  0
  184.1880  178.4980  139.6270 C   0  0  0  0  0  0  0  0  0  0  0  0
  182.0680  177.5310  140.4810 C   0  0  0  0  0  2  0  0  0  0  0  0
  181.4170  180.3230  138.2100 O   0  0  0  0  0  0  0  0  0  0  0  0
  182.0290  179.5260  138.9700 C   0  0  0  0  0  0  0  0  0  0  0  0
  183.4640  179.7850  139.3150 C   0  0  0  0  0  2  0  0  0  0  0  0
  179.4670  177.1680  140.1470 O   0  0  0  0  0  1  0  0  0  0  0  0
  179.9680  178.0900  139.2260 C   0  0  0  0  0  2  0  0  0  0  0  0
  1  7  1  0  0  0  0
  2  5  2  0  0  0  0
  3  1  1  0  0  0  0
  4 17  1  0  0  0  0
  5 22  1  0  0  0  0
  5  4  1  0  0  0  0
  6  2  1  0  0  0  0
  6  1  2  0  0  0  0
  7  4  2  0  0  0  0
  8 16  2  0  0  0  0
  9 12  2  0  0  0  0
  9 19  1  0  0  0  0
 10 14  1  1  0  0  0
 10 13  1  0  0  0  0
 11 13  1  0  0  0  0
 12 10  1  0  0  0  0
 15  9  1  0  0  0  0
 16 12  1  0  0  0  0
 17 18  1  0  0  0  0
 17 15  2  0  0  0  0
 18  8  1  0  0  0  0
 19 11  1  0  0  0  0
 20 23  1  0  0  0  0
 21 23  1  0  0  0  0
 22 21  2  0  0  0  0
 24 25  2  0  0  0  0
 25 26  1  0  0  0  0
 25 20  1  0  0  0  0
 26 22  1  0  0  0  0
 28 20  1  0  0  0  0
 28 27  1  0  0  0  0
M  END
>  <MODEL>
5

>  <REMARK>
 VINA RESULT:      -8.4      3.894      6.872
  Name = 
  3 active torsions:
  status: ('A' for Active; 'I' for Inactive)
    1  A    between atoms: N_8  and  C_12
    2  A    between atoms: C_15  and  C_23
    3  A    between atoms: C_17  and  C_21
                            x       y       z     vdW  Elec       q    Type
                         _______ _______ _______ _____ _____    ______ ____

>  <TORSDO>
F 3

$$$$
=
 OpenBabel10222417253D

 28 31  0  0  1  0  0  0  0  0999 V2000
  181.2170  178.6020  143.5830 C   0  0  0  0  0  0  0  0  0  0  0  0
  182.2950  178.5940  141.4220 C   0  0  0  0  0  3  0  0  0  0  0  0
  180.0620  178.5900  144.3510 O   0  0  0  0  0  1  0  0  0  0  0  0
  183.6480  178.6500  143.4450 C   0  0  0  0  0  0  0  0  0  0  0  0
  183.5590  178.6480  142.0280 C   0  0  0  0  0  0  0  0  0  0  0  0
  181.1320  178.5690  142.1930 C   0  0  0  0  0  3  0  0  0  0  0  0
  182.4670  178.6350  144.2040 C   0  0  0  0  0  3  0  0  0  0  0  0
  185.6890  179.2980  146.3900 C   0  0  0  0  0  3  0  0  0  0  0  0
  187.1380  177.3710  144.4460 C   0  0  0  0  0  0  0  0  0  0  0  0
  188.9160  177.4080  146.2170 C   0  0  2  0  0  3  0  0  0  0  0  0
  189.5020  176.6930  143.9140 C   0  0  0  0  0  2  0  0  0  0  0  0
  187.5180  177.7120  145.7100 C   0  0  0  0  0  0  0  0  0  0  0  0
  189.6720  176.3790  145.3850 C   0  0  0  0  0  2  0  0  0  0  0  0
  188.8800  176.9810  147.5330 F   0  0  0  0  0  0  0  0  0  0  0  0
  185.7830  177.5750  143.8870 C   0  0  0  0  0  3  0  0  0  0  0  0
  186.6520  178.4250  146.6790 C   0  0  0  0  0  3  0  0  0  0  0  0
  184.9400  178.5740  144.1630 C   0  0  0  0  0  0  0  0  0  0  0  0
  185.3710  179.7310  145.0030 C   0  0  0  0  0  2  0  0  0  0  0  0
  188.0310  176.5380  143.5660 C   0  0  0  0  0  2  0  0  0  0  0  0
  187.1700  178.2620  139.7900 N   0  0  0  0  0  0  0  0  0  0  0  0
  184.7400  178.1640  139.9470 C   0  0  0  0  0  3  0  0  0  0  0  0
  184.7370  178.7660  141.1450 C   0  0  0  0  0  0  0  0  0  0  0  0
  185.9240  178.2530  139.0270 C   0  0  0  0  0  2  0  0  0  0  0  0
  188.2920  179.0020  141.7130 O   0  0  0  0  0  0  0  0  0  0  0  0
  187.2120  178.9090  141.0720 C   0  0  0  0  0  0  0  0  0  0  0  0
  185.9580  179.5010  141.6400 C   0  0  0  0  0  2  0  0  0  0  0  0
  189.1110  178.6650  138.5580 O   0  0  0  0  0  1  0  0  0  0  0  0
  188.3600  177.6740  139.1920 C   0  0  0  0  0  2  0  0  0  0  0  0
  1  7  1  0  0  0  0
  1  3  1  0  0  0  0
  2  5  2  0  0  0  0
  2  6  1  0  0  0  0
  4 17  1  0  0  0  0
  4  7  2  0  0  0  0
  5  4  1  0  0  0  0
  6  1  2  0  0  0  0
  8 16  2  0  0  0  0
  9 12  2  0  0  0  0
 10 14  1  1  0  0  0
 11 13  1  0  0  0  0
 12 10  1  0  0  0  0
 12 16  1  0  0  0  0
 13 10  1  0  0  0  0
 15 17  2  0  0  0  0
 15  9  1  0  0  0  0
 17 18  1  0  0  0  0
 18  8  1  0  0  0  0
 19 11  1  0  0  0  0
 19  9  1  0  0  0  0
 20 25  1  0  0  0  0
 21 22  2  0  0  0  0
 22 26  1  0  0  0  0
 22  5  1  0  0  0  0
 23 20  1  0  0  0  0
 23 21  1  0  0  0  0
 25 26  1  0  0  0  0
 25 24  2  0  0  0  0
 27 28  1  0  0  0  0
 28 20  1  0  0  0  0
M  END
>  <MODEL>
6

>  <REMARK>
 VINA RESULT:      -8.3      3.122      6.478
  Name = 
  3 active torsions:
  status: ('A' for Active; 'I' for Inactive)
    1  A    between atoms: N_8  and  C_12
    2  A    between atoms: C_15  and  C_23
    3  A    between atoms: C_17  and  C_21
                            x       y       z     vdW  Elec       q    Type
                         _______ _______ _______ _____ _____    ______ ____

>  <TORSDO>
F 3

$$$$
=
 OpenBabel10222417253D

 28 31  0  0  1  0  0  0  0  0999 V2000
  183.5240  179.0040  143.4730 C   0  0  0  0  0  0  0  0  0  0  0  0
  185.1550  178.0950  145.0060 C   0  0  0  0  0  3  0  0  0  0  0  0
  182.2440  179.4740  143.2190 O   0  0  0  0  0  1  0  0  0  0  0  0
  185.7710  178.4920  142.6840 C   0  0  0  0  0  0  0  0  0  0  0  0
  186.1120  178.0310  143.9830 C   0  0  0  0  0  0  0  0  0  0  0  0
  183.8710  178.5800  144.7550 C   0  0  0  0  0  3  0  0  0  0  0  0
  184.4710  178.9660  142.4480 C   0  0  0  0  0  3  0  0  0  0  0  0
  189.2130  178.5970  141.5020 C   0  0  0  0  0  3  0  0  0  0  0  0
  187.2500  178.1700  139.1450 C   0  0  0  0  0  0  0  0  0  0  0  0
  189.3630  178.1130  137.7930 C   0  0  2  0  0  3  0  0  0  0  0  0
  187.2040  178.5780  136.6630 C   0  0  0  0  0  2  0  0  0  0  0  0
  188.6120  178.1040  139.1110 C   0  0  0  0  0  0  0  0  0  0  0  0
  188.4990  177.7990  136.5780 C   0  0  0  0  0  2  0  0  0  0  0  0
  190.4260  177.2270  137.8270 F   0  0  0  0  0  0  0  0  0  0  0  0
  186.4320  178.1080  140.3770 C   0  0  0  0  0  3  0  0  0  0  0  0
  189.4760  178.0560  140.3150 C   0  0  0  0  0  3  0  0  0  0  0  0
  186.7560  178.5810  141.5840 C   0  0  0  0  0  0  0  0  0  0  0  0
  187.9910  179.3980  141.7810 C   0  0  0  0  0  2  0  0  0  0  0  0
  186.4380  178.0880  137.8800 C   0  0  0  0  0  2  0  0  0  0  0  0
  190.1730  176.7730  144.3390 N   0  0  0  0  0  0  0  0  0  0  0  0
  188.2530  178.0310  145.1570 C   0  0  0  0  0  3  0  0  0  0  0  0
  187.4180  177.4200  144.3050 C   0  0  0  0  0  0  0  0  0  0  0  0
  189.5930  177.4450  145.4990 C   0  0  0  0  0  2  0  0  0  0  0  0
  189.7930  175.4370  142.4480 O   0  0  0  0  0  0  0  0  0  0  0  0
  189.3130  176.0930  143.4110 C   0  0  0  0  0  0  0  0  0  0  0  0
  187.8280  176.1480  143.6050 C   0  0  0  0  0  2  0  0  0  0  0  0
  192.0310  177.7640  143.3330 O   0  0  0  0  0  1  0  0  0  0  0  0
  191.6220  176.7480  144.1970 C   0  0  0  0  0  2  0  0  0  0  0  0
  1  6  1  0  0  0  0
  3  1  1  0  0  0  0
  4  5  2  0  0  0  0
  5 22  1  0  0  0  0
  5  2  1  0  0  0  0
  6  2  2  0  0  0  0
  7  4  1  0  0  0  0
  7  1  2  0  0  0  0
  8 18  1  0  0  0  0
  9 15  1  0  0  0  0
 10 14  1  1  0  0  0
 10 12  1  0  0  0  0
 11 19  1  0  0  0  0
 12  9  2  0  0  0  0
 12 16  1  0  0  0  0
 13 11  1  0  0  0  0
 13 10  1  0  0  0  0
 15 17  2  0  0  0  0
 16  8  2  0  0  0  0
 17 18  1  0  0  0  0
 17  4  1  0  0  0  0
 19  9  1  0  0  0  0
 20 23  1  0  0  0  0
 21 23  1  0  0  0  0
 22 21  2  0  0  0  0
 24 25  2  0  0  0  0
 25 26  1  0  0  0  0
 25 20  1  0  0  0  0
 26 22  1  0  0  0  0
 27 28  1  0  0  0  0
 28 20  1  0  0  0  0
M  END
>  <MODEL>
7

>  <REMARK>
 VINA RESULT:      -8.3      3.050      5.822
  Name = 
  3 active torsions:
  status: ('A' for Active; 'I' for Inactive)
    1  A    between atoms: N_8  and  C_12
    2  A    between atoms: C_15  and  C_23
    3  A    between atoms: C_17  and  C_21
                            x       y       z     vdW  Elec       q    Type
                         _______ _______ _______ _____ _____    ______ ____

>  <TORSDO>
F 3

$$$$
=
 OpenBabel10222417253D

 28 31  0  0  1  0  0  0  0  0999 V2000
  190.3590  177.5400  139.2310 C   0  0  0  0  0  0  0  0  0  0  0  0
  188.1580  178.3310  139.8340 C   0  0  0  0  0  3  0  0  0  0  0  0
  191.3520  177.3560  138.2800 O   0  0  0  0  0  1  0  0  0  0  0  0
  189.5710  177.2920  141.5220 C   0  0  0  0  0  0  0  0  0  0  0  0
  188.3390  177.8940  141.1540 C   0  0  0  0  0  0  0  0  0  0  0  0
  189.1600  178.1580  138.8790 C   0  0  0  0  0  3  0  0  0  0  0  0
  190.5640  177.1170  140.5450 C   0  0  0  0  0  3  0  0  0  0  0  0
  191.5460  175.4150  143.9370 C   0  0  0  0  0  3  0  0  0  0  0  0
  189.8590  177.5940  145.3490 C   0  0  0  0  0  0  0  0  0  0  0  0
  190.9870  176.7050  147.4070 C   0  0  2  0  0  3  0  0  0  0  0  0
  188.8880  178.0090  147.6330 C   0  0  0  0  0  2  0  0  0  0  0  0
  190.8290  176.8110  145.9010 C   0  0  0  0  0  0  0  0  0  0  0  0
  190.2810  177.8060  148.1890 C   0  0  0  0  0  2  0  0  0  0  0  0
  192.3250  176.6900  147.7610 F   0  0  0  0  0  0  0  0  0  0  0  0
  189.6680  177.8050  143.8970 C   0  0  0  0  0  3  0  0  0  0  0  0
  191.7760  175.9790  145.1200 C   0  0  0  0  0  3  0  0  0  0  0  0
  189.8930  176.9220  142.9180 C   0  0  0  0  0  0  0  0  0  0  0  0
  190.2400  175.5040  143.2310 C   0  0  0  0  0  2  0  0  0  0  0  0
  189.0190  178.5060  146.2030 C   0  0  0  0  0  2  0  0  0  0  0  0
  185.5790  178.6700  144.3140 N   0  0  0  0  0  0  0  0  0  0  0  0
  186.4780  179.1590  142.1020 C   0  0  0  0  0  3  0  0  0  0  0  0
  187.1980  178.0270  142.0820 C   0  0  0  0  0  0  0  0  0  0  0  0
  185.3180  179.3350  143.0390 C   0  0  0  0  0  2  0  0  0  0  0  0
  186.5030  176.8100  145.4070 O   0  0  0  0  0  0  0  0  0  0  0  0
  186.3330  177.4470  144.3330 C   0  0  0  0  0  0  0  0  0  0  0  0
  186.9050  176.9120  143.0550 C   0  0  0  0  0  2  0  0  0  0  0  0
  183.6210  179.0190  145.5350 O   0  0  0  0  0  1  0  0  0  0  0  0
  185.0010  179.2290  145.5260 C   0  0  0  0  0  2  0  0  0  0  0  0
  1  7  1  0  0  0  0
  2  5  2  0  0  0  0
  3  1  1  0  0  0  0
  4 17  1  0  0  0  0
  5  4  1  0  0  0  0
  5 22  1  0  0  0  0
  6  1  2  0  0  0  0
  6  2  1  0  0  0  0
  7  4  2  0  0  0  0
  8 16  2  0  0  0  0
  9 12  2  0  0  0  0
  9 19  1  0  0  0  0
 10 14  1  6  0  0  0
 10 13  1  0  0  0  0
 11 13  1  0  0  0  0
 12 10  1  0  0  0  0
 15  9  1  0  0  0  0
 16 12  1  0  0  0  0
 17 18  1  0  0  0  0
 17 15  2  0  0  0  0
 18  8  1  0  0  0  0
 19 11  1  0  0  0  0
 20 25  1  0  0  0  0
 20 28  1  0  0  0  0
 21 23  1  0  0  0  0
 22 21  2  0  0  0  0
 22 26  1  0  0  0  0
 23 20  1  0  0  0  0
 25 24  2  0  0  0  0
 26 25  1  0  0  0  0
 28 27  1  0  0  0  0
M  END
>  <MODEL>
8

>  <REMARK>
 VINA RESULT:      -8.1      2.792      5.088
  Name = 
  3 active torsions:
  status: ('A' for Active; 'I' for Inactive)
    1  A    between atoms: N_8  and  C_12
    2  A    between atoms: C_15  and  C_23
    3  A    between atoms: C_17  and  C_21
                            x       y       z     vdW  Elec       q    Type
                         _______ _______ _______ _____ _____    ______ ____

>  <TORSDO>
F 3

$$$$
=
 OpenBabel10222417253D

 28 31  0  0  1  0  0  0  0  0999 V2000
  190.4600  176.7530  146.3410 C   0  0  0  0  0  0  0  0  0  0  0  0
  191.6820  176.6190  144.2620 C   0  0  0  0  0  3  0  0  0  0  0  0
  190.4100  176.5950  147.7190 O   0  0  0  0  0  1  0  0  0  0  0  0
  189.3670  177.3720  144.2550 C   0  0  0  0  0  0  0  0  0  0  0  0
  190.5560  177.0540  143.5480 C   0  0  0  0  0  0  0  0  0  0  0  0
  191.6370  176.4710  145.6490 C   0  0  0  0  0  3  0  0  0  0  0  0
  189.3360  177.2060  145.6490 C   0  0  0  0  0  3  0  0  0  0  0  0
  187.6750  178.6280  141.2860 C   0  0  0  0  0  3  0  0  0  0  0  0
  185.6740  178.2530  143.6190 C   0  0  0  0  0  0  0  0  0  0  0  0
  184.0100  179.0510  141.9180 C   0  0  2  0  0  3  0  0  0  0  0  0
  183.4490  179.1860  144.3310 C   0  0  0  0  0  2  0  0  0  0  0  0
  185.3850  178.5500  142.3200 C   0  0  0  0  0  0  0  0  0  0  0  0
  182.9260  178.8090  142.9620 C   0  0  0  0  0  2  0  0  0  0  0  0
  183.6120  178.4860  140.7190 F   0  0  0  0  0  0  0  0  0  0  0  0
  186.9640  177.7050  144.0930 C   0  0  0  0  0  3  0  0  0  0  0  0
  186.3580  178.4560  141.2050 C   0  0  0  0  0  3  0  0  0  0  0  0
  188.1790  177.9590  143.5970 C   0  0  0  0  0  0  0  0  0  0  0  0
  188.3740  179.0010  142.5450 C   0  0  0  0  0  2  0  0  0  0  0  0
  184.5980  178.2530  144.6720 C   0  0  0  0  0  2  0  0  0  0  0  0
  191.2700  176.4860  139.3800 N   0  0  0  0  0  0  0  0  0  0  0  0
  189.8060  176.3760  141.3250 C   0  0  0  0  0  3  0  0  0  0  0  0
  190.6540  177.0960  142.0750 C   0  0  0  0  0  0  0  0  0  0  0  0
  189.8820  176.3860  139.8260 C   0  0  0  0  0  2  0  0  0  0  0  0
  193.3870  177.4310  139.7430 O   0  0  0  0  0  0  0  0  0  0  0  0
  192.2060  177.2610  140.1470 C   0  0  0  0  0  0  0  0  0  0  0  0
  191.7630  177.8920  141.4320 C   0  0  0  0  0  2  0  0  0  0  0  0
  190.9670  174.6480  137.9750 O   0  0  0  0  0  1  0  0  0  0  0  0
  191.6500  175.8550  138.1250 C   0  0  0  0  0  2  0  0  0  0  0  0
  1  3  1  0  0  0  0
  2  6  2  0  0  0  0
  4  7  1  0  0  0  0
  5  4  2  0  0  0  0
  5  2  1  0  0  0  0
  6  1  1  0  0  0  0
  7  1  2  0  0  0  0
  8 18  1  0  0  0  0
  9 15  1  0  0  0  0
  9 19  1  0  0  0  0
 10 14  1  6  0  0  0
 10 12  1  0  0  0  0
 10 13  1  0  0  0  0
 11 19  1  0  0  0  0
 12  9  2  0  0  0  0
 13 11  1  0  0  0  0
 16  8  2  0  0  0  0
 16 12  1  0  0  0  0
 17 15  2  0  0  0  0
 17  4  1  0  0  0  0
 18 17  1  0  0  0  0
 20 23  1  0  0  0  0
 20 25  1  0  0  0  0
 21 22  2  0  0  0  0
 22  5  1  0  0  0  0
 23 21  1  0  0  0  0
 24 25  2  0  0  0  0
 25 26  1  0  0  0  0
 26 22  1  0  0  0  0
 27 28  1  0  0  0  0
 28 20  1  0  0  0  0
M  END
>  <MODEL>
9

>  <REMARK>
 VINA RESULT:      -8.0      2.402      5.002
  Name = 
  3 active torsions:
  status: ('A' for Active; 'I' for Inactive)
    1  A    between atoms: N_8  and  C_12
    2  A    between atoms: C_15  and  C_23
    3  A    between atoms: C_17  and  C_21
                            x       y       z     vdW  Elec       q    Type
                         _______ _______ _______ _____ _____    ______ ____

>  <TORSDO>
F 3

$$$$
