=
 OpenBabel10222418493D

 68 79  0  0  1  0  0  0  0  0999 V2000
  179.5360  177.6880  142.4340 S   0  0  0  0  0  0  0  0  0  0  0  0
  180.1160  178.6810  140.9860 C   0  0  1  0  0  3  0  0  0  0  0  0
  182.5290  179.4560  143.3070 C   0  0  0  0  0  0  0  0  0  0  0  0
  185.6730  176.9830  143.7670 C   0  0  0  0  0  1  0  0  0  0  0  0
  180.2070  178.9880  143.5510 C   0  0  0  0  0  2  0  0  0  0  0  0
  183.7540  179.1880  143.7620 C   0  0  0  0  0  0  0  0  0  0  0  0
  185.1750  179.6840  144.2130 N   0  0  0  0  0  0  0  0  0  0  0  0
  181.1810  179.5510  141.3920 N   0  0  0  0  0  2  0  0  0  0  0  0
  184.9340  178.4410  143.5260 C   0  0  1  0  0  0  0  0  0  0  0  0
  181.3380  179.6040  142.8160 C   0  0  0  0  0  0  0  0  0  0  0  0
  184.4520  178.6430  145.1940 C   0  0  1  0  0  0  0  0  0  0  0  0
  183.3100  177.4550  145.4190 C   0  0  0  0  0  1  0  0  0  0  0  0
  185.5830  178.2570  146.2250 C   0  0  2  0  0  3  0  0  0  0  0  0
  184.4680  179.1770  146.6430 C   0  0  0  0  0  2  0  0  0  0  0  0
  187.4980  178.9760  147.3980 C   0  0  0  0  0  2  0  0  0  0  0  0
  189.2690  177.0660  144.4240 N   0  0  0  0  0  0  0  0  0  0  0  0
  188.0720  177.2230  145.3050 C   0  0  2  0  0  3  0  0  0  0  0  0
  192.3300  176.8850  146.3240 C   0  0  0  0  0  2  0  0  0  0  0  0
  189.3300  175.9970  143.4910 C   0  0  0  0  0  0  0  0  0  0  0  0
  186.7840  179.1210  146.1330 N   0  0  1  0  0  0  0  0  0  0  0  0
  188.1900  175.2310  143.2450 O   0  0  0  0  0  1  0  0  0  0  0  0
  190.9520  177.5610  146.2410 C   0  0  2  0  0  3  0  0  0  0  0  0
  190.1620  175.3410  147.0510 N   0  0  0  0  0  2  0  0  0  0  0  0
  188.1640  178.5130  146.1770 C   0  0  2  0  0  0  0  0  0  0  0  0
  192.4830  176.1030  147.6260 C   0  0  0  0  0  2  0  0  0  0  0  0
  190.3560  175.7870  142.7750 O   0  0  0  0  0  0  0  0  0  0  0  0
  189.8990  176.7940  147.0910 C   0  0  2  0  0  3  0  0  0  0  0  0
  191.4010  175.0130  147.7610 C   0  0  0  0  0  2  0  0  0  0  0  0
  190.5260  177.6620  144.8240 C   0  0  0  0  0  0  0  0  0  0  0  0
  188.3920  177.0940  146.7510 C   0  0  2  0  0  3  0  0  0  0  0  0
  191.1860  178.3330  143.9850 O   0  0  0  0  0  0  0  0  0  0  0  0
  186.6720  178.5400  141.5890 C   0  0  1  0  0  3  0  0  0  0  0  0
  186.0520  179.8050  141.8510 O   0  0  0  0  0  0  0  0  0  0  0  0
  185.2160  178.6710  141.9800 C   0  0  2  0  0  3  0  0  0  0  0  0
  188.7170  177.0170  140.1250 O   0  0  0  0  0  0  0  0  0  0  0  0
  186.9190  178.5250  140.1300 N   0  0  0  0  0  2  0  0  0  0  0  0
  188.2320  178.1160  139.7280 C   0  0  0  0  0  0  0  0  0  0  0  0
  189.0800  179.0730  138.9100 C   0  0  0  0  0  2  0  0  0  0  0  0
  189.2820  178.5910  137.5590 N   0  0  0  0  0  2  0  0  0  0  0  0
  188.0450  177.9310  137.0950 C   0  0  1  0  0  3  0  0  0  0  0  0
  187.2060  178.8260  136.3870 O   0  0  0  0  0  1  0  0  0  0  0  0
  188.0280  175.3580  137.1770 C   0  0  0  0  0  2  0  0  0  0  0  0
  188.4020  176.6150  136.3530 C   0  0  2  0  0  3  0  0  0  0  0  0
  190.5220  175.3860  135.6110 C   0  0  0  0  0  2  0  0  0  0  0  0
  190.2780  174.2990  136.6540 C   0  0  2  0  0  3  0  0  0  0  0  0
  189.9200  176.7120  136.0820 C   0  0  0  0  0  2  0  0  0  0  0  0
  188.7550  174.1170  136.7140 C   0  0  0  0  0  2  0  0  0  0  0  0
  192.2090  174.7300  137.7130 C   0  0  0  0  0  1  0  0  0  0  0  0
  190.8170  174.6740  137.8840 O   0  0  0  0  0  0  0  0  0  0  0  0
  180.4310  177.9400  139.7310 C   0  0  0  0  0  0  0  0  0  0  0  0
  180.5910  178.5430  138.6720 O   0  0  0  0  0  0  0  0  0  0  0  0
  180.8620  176.5170  139.8970 C   0  0  0  0  0  2  0  0  0  0  0  0
  180.0320  175.4600  139.2490 C   0  0  0  0  0  0  0  0  0  0  0  0
  179.0910  174.8660  139.9400 C   0  0  0  0  0  2  0  0  0  0  0  0
  180.7090  174.6980  138.2270 N   0  0  0  0  0  2  0  0  0  0  0  0
  180.5910  174.9710  136.8460 N   0  0  0  0  0  2  0  0  0  0  0  0
  182.6760  172.7100  136.5620 C   0  0  0  0  0  2  0  0  0  0  0  0
  182.7560  170.4770  135.4650 C   0  0  0  0  0  1  0  0  0  0  0  0
  182.3230  175.2900  134.7800 S   0  0  0  0  0  0  0  0  0  0  0  0
  181.7850  175.7350  136.4500 C   0  0  2  0  0  3  0  0  0  0  0  0
  183.0330  175.2410  137.1630 C   0  0  1  0  0  0  0  0  0  0  0  0
  184.7730  171.7440  135.8120 O   0  0  0  0  0  0  0  0  0  0  0  0
  185.5750  172.2790  136.8570 C   0  0  0  0  0  2  0  0  0  0  0  0
  183.8670  176.2790  137.9080 C   0  0  0  0  0  1  0  0  0  0  0  0
  183.6170  173.8680  136.8880 C   0  0  1  0  0  0  0  0  0  0  0  0
  184.9430  173.5170  137.5240 C   0  0  0  0  0  2  0  0  0  0  0  0
  183.5040  171.4350  136.3830 C   0  0  1  0  0  3  0  0  0  0  0  0
  183.7630  174.9340  135.8340 C   0  0  1  0  0  3  0  0  0  0  0  0
  1  5  1  0  0  0  0
  2 50  1  6  0  0  0
  2  8  1  0  0  0  0
  2  1  1  0  0  0  0
  3  6  2  0  0  0  0
  6  7  1  0  0  0  0
  7 11  1  0  0  0  0
  8 10  1  0  0  0  0
  9  6  1  0  0  0  0
  9  4  1  1  0  0  0
  9  7  1  0  0  0  0
 10  3  2  0  0  0  0
 10  5  1  0  0  0  0
 11 12  1  6  0  0  0
 11 13  1  0  0  0  0
 11 14  1  0  0  0  0
 13 14  1  1  0  0  0
 16 29  1  0  0  0  0
 17 16  1  6  0  0  0
 17 24  1  0  0  0  0
 17 30  1  0  0  0  0
 18 25  1  0  0  0  0
 19 16  1  0  0  0  0
 20 24  1  0  0  0  0
 20 13  1  0  0  0  0
 20 15  1  1  0  0  0
 21 19  1  0  0  0  0
 22 18  1  6  0  0  0
 22 27  1  0  0  0  0
 23 28  1  0  0  0  0
 24 30  1  0  0  0  0
 24 15  1  6  0  0  0
 25 28  1  0  0  0  0
 26 19  2  0  0  0  0
 27 23  1  6  0  0  0
 29 22  1  0  0  0  0
 30 27  1  0  0  0  0
 31 29  2  0  0  0  0
 32 33  1  0  0  0  0
 32 34  1  0  0  0  0
 33 34  1  0  0  0  0
 34  9  1  0  0  0  0
 36 32  1  0  0  0  0
 37 35  2  0  0  0  0
 37 36  1  0  0  0  0
 38 37  1  0  0  0  0
 39 38  1  0  0  0  0
 40 39  1  0  0  0  0
 41 40  1  0  0  0  0
 43 40  1  0  0  0  0
 43 42  1  0  0  0  0
 44 46  1  0  0  0  0
 44 45  1  0  0  0  0
 45 47  1  0  0  0  0
 45 49  1  0  0  0  0
 46 43  1  0  0  0  0
 47 42  1  0  0  0  0
 48 49  1  0  0  0  0
 50 52  1  0  0  0  0
 51 50  2  0  0  0  0
 53 52  1  0  0  0  0
 53 54  2  0  0  0  0
 55 53  1  0  0  0  0
 56 55  1  0  0  0  0
 57 65  1  0  0  0  0
 58 67  1  0  0  0  0
 59 68  1  0  0  0  0
 59 60  1  0  0  0  0
 60 56  1  0  0  0  0
 60 61  1  0  0  0  0
 61 64  1  0  0  0  0
 62 67  1  0  0  0  0
 62 63  1  0  0  0  0
 63 66  1  0  0  0  0
 65 61  1  0  0  0  0
 65 66  1  0  0  0  0
 67 57  1  0  0  0  0
 68 65  1  0  0  0  0
 68 61  1  0  0  0  0
M  END
>  <MODEL>
1

>  <REMARK>
 VINA RESULT:      -4.1      0.000      0.000
  Name = 
  15 active torsions:
  status: ('A' for Active; 'I' for Inactive)
    1  A    between atoms: C_7  and  N_29
    2  A    between atoms: C_8  and  C_12
    3  A    between atoms: C_8  and  N_38
    4  A    between atoms: C_9  and  C_17
    5  A    between atoms: C_16  and  N_39
    6  A    between atoms: C_17  and  C_47
    7  A    between atoms: N_22  and  C_28
    8  A    between atoms: O_23  and  C_57
    9  A    between atoms: C_30  and  N_36
   10  A    between atoms: C_30  and  C_47
   11  A    between atoms: N_31  and  C_35
   12  A    between atoms: N_31  and  N_36
   13  A    between atoms: N_38  and  C_50
   14  A    between atoms: C_43  and  C_64
   15  A    between atoms: C_50  and  C_51
                            x       y       z     vdW  Elec       q    Type
                         _______ _______ _______ _____ _____    ______ ____

>  <TORSDO>
F 15

$$$$
=
 OpenBabel10222418493D

 68 79  0  0  1  0  0  0  0  0999 V2000
  189.0770  179.0420  140.8020 S   0  0  0  0  0  0  0  0  0  0  0  0
  189.9890  177.4680  141.1340 C   0  0  1  0  0  3  0  0  0  0  0  0
  188.0160  176.5230  138.4840 C   0  0  0  0  0  0  0  0  0  0  0  0
  189.2730  177.2850  134.7350 C   0  0  0  0  0  1  0  0  0  0  0  0
  187.6230  178.0480  140.2700 C   0  0  0  0  0  2  0  0  0  0  0  0
  187.9470  176.3420  137.1640 C   0  0  0  0  0  0  0  0  0  0  0  0
  187.5680  175.4410  135.9340 N   0  0  0  0  0  0  0  0  0  0  0  0
  189.4180  176.4060  140.3580 N   0  0  0  0  0  2  0  0  0  0  0  0
  188.6940  176.3390  135.9600 C   0  0  1  0  0  0  0  0  0  0  0  0
  188.1760  176.7760  139.7450 C   0  0  0  0  0  0  0  0  0  0  0  0
  187.0630  176.9600  135.8720 C   0  0  1  0  0  0  0  0  0  0  0  0
  187.3800  178.5540  135.5180 C   0  0  0  0  0  1  0  0  0  0  0  0
  185.5170  176.8270  135.5820 C   0  0  2  0  0  3  0  0  0  0  0  0
  185.9930  177.2100  136.9580 C   0  0  0  0  0  2  0  0  0  0  0  0
  184.9570  175.1590  137.1520 C   0  0  0  0  0  2  0  0  0  0  0  0
  181.3770  175.7710  135.5910 N   0  0  0  0  0  0  0  0  0  0  0  0
  182.7370  176.3040  135.9100 C   0  0  2  0  0  3  0  0  0  0  0  0
  179.8310  174.2100  138.4520 C   0  0  0  0  0  2  0  0  0  0  0  0
  180.3900  176.6290  135.0380 C   0  0  0  0  0  0  0  0  0  0  0  0
  185.0100  175.4410  135.7200 N   0  0  1  0  0  0  0  0  0  0  0  0
  180.7530  177.9010  134.5940 O   0  0  0  0  0  0  0  0  0  0  0  0
  181.1620  174.4160  137.7110 C   0  0  2  0  0  3  0  0  0  0  0  0
  181.0000  176.6970  138.7010 N   0  0  0  0  0  2  0  0  0  0  0  0
  183.6940  175.1770  136.4100 C   0  0  2  0  0  0  0  0  0  0  0  0
  179.8970  174.7700  139.8700 C   0  0  0  0  0  2  0  0  0  0  0  0
  179.2040  176.2350  134.8180 O   0  0  0  0  0  1  0  0  0  0  0  0
  181.9390  175.6360  138.2830 C   0  0  2  0  0  3  0  0  0  0  0  0
  180.2210  176.2770  139.8700 C   0  0  0  0  0  2  0  0  0  0  0  0
  180.9100  174.5750  136.2580 C   0  0  0  0  0  0  0  0  0  0  0  0
  183.0660  176.2270  137.3580 C   0  0  2  0  0  3  0  0  0  0  0  0
  180.3840  173.6530  135.5780 O   0  0  0  0  0  0  0  0  0  0  0  0
  191.0870  175.5630  135.2900 C   0  0  1  0  0  3  0  0  0  0  0  0
  190.1450  174.4850  135.3490 O   0  0  0  0  0  0  0  0  0  0  0  0
  189.9880  175.4950  136.3270 C   0  0  2  0  0  3  0  0  0  0  0  0
  192.7640  176.3650  137.5690 O   0  0  0  0  0  0  0  0  0  0  0  0
  192.3760  174.9730  135.7180 N   0  0  0  0  0  2  0  0  0  0  0  0
  193.2100  175.8220  136.5160 C   0  0  0  0  0  0  0  0  0  0  0  0
  194.6060  176.1550  136.0190 C   0  0  0  0  0  2  0  0  0  0  0  0
  195.5990  175.2530  136.5640 N   0  0  0  0  0  2  0  0  0  0  0  0
  196.7890  175.2620  135.6890 C   0  0  1  0  0  3  0  0  0  0  0  0
  197.7010  176.2820  136.0510 O   0  0  0  0  0  1  0  0  0  0  0  0
  196.4120  172.8340  134.9180 C   0  0  0  0  0  2  0  0  0  0  0  0
  197.3820  173.8300  135.5990 C   0  0  2  0  0  3  0  0  0  0  0  0
  198.0270  171.9530  137.2170 C   0  0  0  0  0  2  0  0  0  0  0  0
  196.8610  171.1010  136.7220 C   0  0  2  0  0  3  0  0  0  0  0  0
  197.6970  173.4400  137.0610 C   0  0  0  0  0  2  0  0  0  0  0  0
  196.7460  171.3910  135.2190 C   0  0  0  0  0  2  0  0  0  0  0  0
  194.8420  170.3140  137.3030 C   0  0  0  0  0  1  0  0  0  0  0  0
  195.6950  171.4230  137.4160 O   0  0  0  0  0  0  0  0  0  0  0  0
  191.4770  177.5060  141.0420 C   0  0  0  0  0  0  0  0  0  0  0  0
  192.0360  177.4750  139.9490 O   0  0  0  0  0  0  0  0  0  0  0  0
  192.2020  177.9150  142.2860 C   0  0  0  0  0  2  0  0  0  0  0  0
  191.6600  177.4420  143.5930 C   0  0  0  0  0  0  0  0  0  0  0  0
  191.4170  176.1660  143.7650 C   0  0  0  0  0  2  0  0  0  0  0  0
  190.8210  178.3930  144.2820 N   0  0  0  0  0  2  0  0  0  0  0  0
  189.4170  178.4440  144.1330 N   0  0  0  0  0  2  0  0  0  0  0  0
  186.3900  178.9550  143.7930 C   0  0  0  0  0  2  0  0  0  0  0  0
  184.8500  179.3750  141.8830 C   0  0  0  0  0  1  0  0  0  0  0  0
  187.9070  176.1940  143.9690 S   0  0  0  0  0  0  0  0  0  0  0  0
  188.8530  177.3710  144.9670 C   0  0  2  0  0  3  0  0  0  0  0  0
  187.6810  177.8610  145.8010 C   0  0  1  0  0  0  0  0  0  0  0  0
  184.0400  178.3580  143.9080 O   0  0  0  0  0  0  0  0  0  0  0  0
  183.8760  178.6330  145.2930 C   0  0  0  0  0  2  0  0  0  0  0  0
  187.7400  177.6070  147.3040 C   0  0  0  0  0  1  0  0  0  0  0  0
  186.3690  178.2790  145.1630 C   0  0  1  0  0  0  0  0  0  0  0  0
  185.2070  178.6070  146.0720 C   0  0  0  0  0  2  0  0  0  0  0  0
  184.9570  179.3240  143.4010 C   0  0  1  0  0  3  0  0  0  0  0  0
  186.7150  176.8150  145.1960 C   0  0  1  0  0  3  0  0  0  0  0  0
  1  2  1  0  0  0  0
  2 50  1  6  0  0  0
  3 10  2  0  0  0  0
  5  1  1  0  0  0  0
  6  3  2  0  0  0  0
  7  9  1  0  0  0  0
  7  6  1  0  0  0  0
  8  2  1  0  0  0  0
  9  4  1  6  0  0  0
  9 34  1  0  0  0  0
  9  6  1  0  0  0  0
 10  5  1  0  0  0  0
 10  8  1  0  0  0  0
 11 12  1  6  0  0  0
 11  7  1  0  0  0  0
 11 14  1  0  0  0  0
 13 20  1  0  0  0  0
 13 11  1  0  0  0  0
 13 14  1  1  0  0  0
 16 29  1  0  0  0  0
 17 16  1  1  0  0  0
 17 24  1  0  0  0  0
 17 30  1  0  0  0  0
 18 25  1  0  0  0  0
 19 16  1  0  0  0  0
 20 24  1  0  0  0  0
 20 15  1  1  0  0  0
 21 19  2  0  0  0  0
 22 27  1  0  0  0  0
 22 18  1  1  0  0  0
 23 28  1  0  0  0  0
 24 15  1  1  0  0  0
 24 30  1  0  0  0  0
 26 19  1  0  0  0  0
 27 23  1  6  0  0  0
 28 25  1  0  0  0  0
 29 22  1  0  0  0  0
 30 27  1  0  0  0  0
 31 29  2  0  0  0  0
 32 33  1  0  0  0  0
 32 36  1  0  0  0  0
 32 34  1  0  0  0  0
 33 34  1  0  0  0  0
 36 37  1  0  0  0  0
 37 35  2  0  0  0  0
 38 37  1  0  0  0  0
 38 39  1  0  0  0  0
 40 41  1  0  0  0  0
 40 39  1  0  0  0  0
 42 47  1  0  0  0  0
 42 43  1  0  0  0  0
 43 40  1  0  0  0  0
 43 46  1  0  0  0  0
 45 44  1  0  0  0  0
 45 49  1  0  0  0  0
 46 44  1  0  0  0  0
 47 45  1  0  0  0  0
 48 49  1  0  0  0  0
 50 52  1  0  0  0  0
 51 50  2  0  0  0  0
 52 53  1  0  0  0  0
 53 54  2  0  0  0  0
 53 55  1  0  0  0  0
 56 55  1  0  0  0  0
 56 60  1  0  0  0  0
 57 65  1  0  0  0  0
 58 67  1  0  0  0  0
 59 60  1  0  0  0  0
 59 68  1  0  0  0  0
 60 61  1  0  0  0  0
 61 64  1  0  0  0  0
 62 63  1  0  0  0  0
 63 66  1  0  0  0  0
 65 68  1  0  0  0  0
 65 61  1  0  0  0  0
 65 66  1  0  0  0  0
 67 57  1  0  0  0  0
 67 62  1  0  0  0  0
 68 61  1  0  0  0  0
M  END
>  <MODEL>
2

>  <REMARK>
 VINA RESULT:      -3.2      3.565     10.453
  Name = 
  15 active torsions:
  status: ('A' for Active; 'I' for Inactive)
    1  A    between atoms: C_7  and  N_29
    2  A    between atoms: C_8  and  C_12
    3  A    between atoms: C_8  and  N_38
    4  A    between atoms: C_9  and  C_17
    5  A    between atoms: C_16  and  N_39
    6  A    between atoms: C_17  and  C_47
    7  A    between atoms: N_22  and  C_28
    8  A    between atoms: O_23  and  C_57
    9  A    between atoms: C_30  and  N_36
   10  A    between atoms: C_30  and  C_47
   11  A    between atoms: N_31  and  C_35
   12  A    between atoms: N_31  and  N_36
   13  A    between atoms: N_38  and  C_50
   14  A    between atoms: C_43  and  C_64
   15  A    between atoms: C_50  and  C_51
                            x       y       z     vdW  Elec       q    Type
                         _______ _______ _______ _____ _____    ______ ____

>  <TORSDO>
F 15

$$$$
=
 OpenBabel10222418493D

 68 79  0  0  1  0  0  0  0  0999 V2000
  188.1420  176.3980  142.7510 S   0  0  0  0  0  0  0  0  0  0  0  0
  187.9310  178.1950  142.3710 C   0  0  1  0  0  3  0  0  0  0  0  0
  189.5410  177.1220  139.5310 C   0  0  0  0  0  0  0  0  0  0  0  0
  187.3770  175.5140  136.5400 C   0  0  0  0  0  1  0  0  0  0  0  0
  189.7170  176.4170  141.7990 C   0  0  0  0  0  2  0  0  0  0  0  0
  189.4050  176.7190  138.2670 C   0  0  0  0  0  0  0  0  0  0  0  0
  189.8250  176.8190  136.7560 N   0  0  0  0  0  0  0  0  0  0  0  0
  188.6730  178.5310  141.1920 N   0  0  0  0  0  2  0  0  0  0  0  0
  188.4840  176.5460  137.2050 C   0  0  1  0  0  0  0  0  0  0  0  0
  189.5560  177.4800  140.7780 C   0  0  0  0  0  0  0  0  0  0  0  0
  189.7380  175.3390  137.3630 C   0  0  1  0  0  0  0  0  0  0  0  0
  188.8050  174.0450  137.8370 C   0  0  0  0  0  1  0  0  0  0  0  0
  191.0790  174.6590  136.8810 C   0  0  2  0  0  3  0  0  0  0  0  0
  190.9260  175.0830  138.3170 C   0  0  0  0  0  2  0  0  0  0  0  0
  192.6800  176.3060  137.4170 C   0  0  0  0  0  2  0  0  0  0  0  0
  195.0640  173.6460  135.7230 N   0  0  0  0  0  0  0  0  0  0  0  0
  193.8020  173.9330  136.4700 C   0  0  2  0  0  3  0  0  0  0  0  0
  197.9330  175.1870  137.2750 C   0  0  0  0  0  2  0  0  0  0  0  0
  195.4430  172.3030  135.4580 C   0  0  0  0  0  0  0  0  0  0  0  0
  192.0470  175.6170  136.2950 N   0  0  1  0  0  0  0  0  0  0  0  0
  194.5360  171.2710  135.7000 O   0  0  0  0  0  1  0  0  0  0  0  0
  196.4450  175.3750  136.9400 C   0  0  2  0  0  3  0  0  0  0  0  0
  196.1410  173.7530  138.8060 N   0  0  0  0  0  2  0  0  0  0  0  0
  193.5240  175.4660  136.5620 C   0  0  2  0  0  0  0  0  0  0  0  0
  198.1690  175.2300  138.7830 C   0  0  0  0  0  2  0  0  0  0  0  0
  196.5400  172.0140  134.8900 O   0  0  0  0  0  0  0  0  0  0  0  0
  195.5410  174.9150  138.1200 C   0  0  2  0  0  3  0  0  0  0  0  0
  197.3660  174.1350  139.5130 C   0  0  0  0  0  2  0  0  0  0  0  0
  196.1130  174.6430  135.6940 C   0  0  0  0  0  0  0  0  0  0  0  0
  194.0360  174.6320  137.7610 C   0  0  2  0  0  3  0  0  0  0  0  0
  196.6570  174.9350  134.5950 O   0  0  0  0  0  0  0  0  0  0  0  0
  186.1700  177.7390  137.2660 C   0  0  1  0  0  3  0  0  0  0  0  0
  186.8660  177.9270  136.0270 O   0  0  0  0  0  0  0  0  0  0  0  0
  187.6720  177.9100  137.1900 C   0  0  2  0  0  3  0  0  0  0  0  0
  184.6960  178.5640  139.6730 O   0  0  0  0  0  0  0  0  0  0  0  0
  185.4180  178.9950  137.4810 N   0  0  0  0  0  2  0  0  0  0  0  0
  184.4130  178.9470  138.5000 C   0  0  0  0  0  0  0  0  0  0  0  0
  182.9730  179.2550  138.1270 C   0  0  0  0  0  2  0  0  0  0  0  0
  182.5740  178.5690  136.9150 N   0  0  0  0  0  2  0  0  0  0  0  0
  181.8830  177.3150  137.2790 C   0  0  1  0  0  3  0  0  0  0  0  0
  180.5180  177.5360  137.5840 O   0  0  0  0  0  1  0  0  0  0  0  0
  181.6730  174.8300  136.6370 C   0  0  0  0  0  2  0  0  0  0  0  0
  182.1650  176.2330  136.2020 C   0  0  2  0  0  3  0  0  0  0  0  0
  184.2100  175.0940  135.1650 C   0  0  0  0  0  2  0  0  0  0  0  0
  183.8540  173.7820  135.8600 C   0  0  2  0  0  3  0  0  0  0  0  0
  183.6940  176.2800  135.9830 C   0  0  0  0  0  2  0  0  0  0  0  0
  182.3200  173.7130  135.8520 C   0  0  0  0  0  2  0  0  0  0  0  0
  185.2820  172.6830  137.1960 C   0  0  0  0  0  1  0  0  0  0  0  0
  184.3800  173.7570  137.1510 O   0  0  0  0  0  0  0  0  0  0  0  0
  186.5390  178.7300  142.3400 C   0  0  0  0  0  0  0  0  0  0  0  0
  186.2370  179.6460  141.5790 O   0  0  0  0  0  0  0  0  0  0  0  0
  185.4970  177.8910  143.0130 C   0  0  0  0  0  2  0  0  0  0  0  0
  184.8050  178.4660  144.2030 C   0  0  0  0  0  0  0  0  0  0  0  0
  184.0800  179.5490  144.0650 C   0  0  0  0  0  2  0  0  0  0  0  0
  185.4830  178.2560  145.4590 N   0  0  0  0  0  2  0  0  0  0  0  0
  186.8860  178.3320  145.6090 N   0  0  0  0  0  2  0  0  0  0  0  0
  189.8780  177.5700  145.5450 C   0  0  0  0  0  2  0  0  0  0  0  0
  191.9150  178.4120  144.3870 C   0  0  0  0  0  1  0  0  0  0  0  0
  188.3760  179.4540  147.5820 S   0  0  0  0  0  0  0  0  0  0  0  0
  187.1780  178.2080  147.0460 C   0  0  2  0  0  3  0  0  0  0  0  0
  188.0510  177.0000  147.3410 C   0  0  1  0  0  0  0  0  0  0  0  0
  192.0890  177.2870  146.5070 O   0  0  0  0  0  0  0  0  0  0  0  0
  191.8360  176.0260  147.1120 C   0  0  0  0  0  2  0  0  0  0  0  0
  187.5500  176.0190  148.3980 C   0  0  0  0  0  1  0  0  0  0  0  0
  189.4930  176.9270  146.8750 C   0  0  1  0  0  0  0  0  0  0  0  0
  190.3350  175.7610  147.3430 C   0  0  0  0  0  2  0  0  0  0  0  0
  191.3640  177.3090  145.2810 C   0  0  1  0  0  3  0  0  0  0  0  0
  189.1510  177.8630  148.0030 C   0  0  1  0  0  3  0  0  0  0  0  0
  2 50  1  6  0  0  0
  2  1  1  0  0  0  0
  3 10  2  0  0  0  0
  5  1  1  0  0  0  0
  6  3  2  0  0  0  0
  7  9  1  0  0  0  0
  7 11  1  0  0  0  0
  7  6  1  0  0  0  0
  8  2  1  0  0  0  0
  9  4  1  6  0  0  0
  9  6  1  0  0  0  0
 10  8  1  0  0  0  0
 10  5  1  0  0  0  0
 11 12  1  1  0  0  0
 11 14  1  0  0  0  0
 13 11  1  0  0  0  0
 13 14  1  1  0  0  0
 17 16  1  6  0  0  0
 17 24  1  0  0  0  0
 17 30  1  0  0  0  0
 18 25  1  0  0  0  0
 19 21  1  0  0  0  0
 19 16  1  0  0  0  0
 20 24  1  0  0  0  0
 20 13  1  0  0  0  0
 20 15  1  1  0  0  0
 22 18  1  1  0  0  0
 22 27  1  0  0  0  0
 23 28  1  0  0  0  0
 24 15  1  6  0  0  0
 24 30  1  0  0  0  0
 25 28  1  0  0  0  0
 26 19  2  0  0  0  0
 27 23  1  6  0  0  0
 29 16  1  0  0  0  0
 29 22  1  0  0  0  0
 30 27  1  0  0  0  0
 31 29  2  0  0  0  0
 32 36  1  0  0  0  0
 33 34  1  0  0  0  0
 33 32  1  0  0  0  0
 34  9  1  0  0  0  0
 34 32  1  0  0  0  0
 36 37  1  0  0  0  0
 37 35  2  0  0  0  0
 38 37  1  0  0  0  0
 39 40  1  0  0  0  0
 39 38  1  0  0  0  0
 40 41  1  0  0  0  0
 43 42  1  0  0  0  0
 43 40  1  0  0  0  0
 44 45  1  0  0  0  0
 44 46  1  0  0  0  0
 45 49  1  0  0  0  0
 46 43  1  0  0  0  0
 47 45  1  0  0  0  0
 47 42  1  0  0  0  0
 49 48  1  0  0  0  0
 50 52  1  0  0  0  0
 51 50  2  0  0  0  0
 52 53  1  0  0  0  0
 53 55  1  0  0  0  0
 54 53  2  0  0  0  0
 55 56  1  0  0  0  0
 56 60  1  0  0  0  0
 57 65  1  0  0  0  0
 58 67  1  0  0  0  0
 59 68  1  0  0  0  0
 60 61  1  0  0  0  0
 60 59  1  0  0  0  0
 61 68  1  0  0  0  0
 61 64  1  0  0  0  0
 62 63  1  0  0  0  0
 63 66  1  0  0  0  0
 65 61  1  0  0  0  0
 65 66  1  0  0  0  0
 65 68  1  0  0  0  0
 67 57  1  0  0  0  0
 67 62  1  0  0  0  0
M  END
>  <MODEL>
3

>  <REMARK>
 VINA RESULT:      -3.2      3.391      9.619
  Name = 
  15 active torsions:
  status: ('A' for Active; 'I' for Inactive)
    1  A    between atoms: C_7  and  N_29
    2  A    between atoms: C_8  and  C_12
    3  A    between atoms: C_8  and  N_38
    4  A    between atoms: C_9  and  C_17
    5  A    between atoms: C_16  and  N_39
    6  A    between atoms: C_17  and  C_47
    7  A    between atoms: N_22  and  C_28
    8  A    between atoms: O_23  and  C_57
    9  A    between atoms: C_30  and  N_36
   10  A    between atoms: C_30  and  C_47
   11  A    between atoms: N_31  and  C_35
   12  A    between atoms: N_31  and  N_36
   13  A    between atoms: N_38  and  C_50
   14  A    between atoms: C_43  and  C_64
   15  A    between atoms: C_50  and  C_51
                            x       y       z     vdW  Elec       q    Type
                         _______ _______ _______ _____ _____    ______ ____

>  <TORSDO>
F 15

$$$$
=
 OpenBabel10222418493D

 68 79  0  0  1  0  0  0  0  0999 V2000
  188.0790  176.5930  142.6850 S   0  0  0  0  0  0  0  0  0  0  0  0
  187.7150  178.2870  142.0410 C   0  0  1  0  0  3  0  0  0  0  0  0
  189.5210  176.9780  139.4260 C   0  0  0  0  0  0  0  0  0  0  0  0
  187.6270  174.7520  136.6560 C   0  0  0  0  0  1  0  0  0  0  0  0
  189.6790  176.6280  141.7760 C   0  0  0  0  0  2  0  0  0  0  0  0
  189.4690  176.3860  138.2320 C   0  0  0  0  0  0  0  0  0  0  0  0
  189.9330  176.3080  136.7330 N   0  0  0  0  0  0  0  0  0  0  0  0
  188.4650  178.5200  140.8420 N   0  0  0  0  0  2  0  0  0  0  0  0
  188.6080  175.9720  137.1870 C   0  0  1  0  0  0  0  0  0  0  0  0
  189.4570  177.5120  140.6060 C   0  0  0  0  0  0  0  0  0  0  0  0
  189.9630  174.9290  137.5490 C   0  0  1  0  0  0  0  0  0  0  0  0
  189.1370  173.6380  138.1940 C   0  0  0  0  0  1  0  0  0  0  0  0
  191.3710  174.3140  137.1880 C   0  0  2  0  0  3  0  0  0  0  0  0
  191.1430  174.9250  138.5450 C   0  0  0  0  0  2  0  0  0  0  0  0
  192.9210  176.0610  137.5130 C   0  0  0  0  0  2  0  0  0  0  0  0
  195.3350  173.3780  135.8990 N   0  0  0  0  0  0  0  0  0  0  0  0
  194.1000  173.6700  136.6880 C   0  0  2  0  0  3  0  0  0  0  0  0
  198.2050  175.1500  137.1750 C   0  0  0  0  0  2  0  0  0  0  0  0
  195.7600  172.0350  135.7160 C   0  0  0  0  0  0  0  0  0  0  0  0
  192.2650  175.2630  136.4820 N   0  0  1  0  0  0  0  0  0  0  0  0
  194.9130  170.9890  136.0820 O   0  0  0  0  0  1  0  0  0  0  0  0
  196.6960  175.2510  136.9070 C   0  0  2  0  0  3  0  0  0  0  0  0
  196.5580  173.7660  138.9030 N   0  0  0  0  0  2  0  0  0  0  0  0
  193.7590  175.1930  136.6800 C   0  0  2  0  0  0  0  0  0  0  0  0
  198.5140  175.3190  138.6610 C   0  0  0  0  0  2  0  0  0  0  0  0
  196.8390  171.7480  135.1130 O   0  0  0  0  0  0  0  0  0  0  0  0
  195.8740  174.8470  138.1650 C   0  0  2  0  0  3  0  0  0  0  0  0
  197.7990  174.2520  139.5130 C   0  0  0  0  0  2  0  0  0  0  0  0
  196.3350  174.4120  135.7390 C   0  0  0  0  0  0  0  0  0  0  0  0
  194.3670  174.4760  137.9090 C   0  0  2  0  0  3  0  0  0  0  0  0
  196.8100  174.6400  134.5940 O   0  0  0  0  0  0  0  0  0  0  0  0
  186.1970  176.9090  136.8890 C   0  0  1  0  0  3  0  0  0  0  0  0
  187.0060  177.0630  135.7160 O   0  0  0  0  0  0  0  0  0  0  0  0
  187.6730  177.2340  136.9530 C   0  0  2  0  0  3  0  0  0  0  0  0
  184.0030  177.4900  138.7590 O   0  0  0  0  0  0  0  0  0  0  0  0
  185.3050  178.0900  136.9000 N   0  0  0  0  0  2  0  0  0  0  0  0
  184.0490  177.9120  137.5660 C   0  0  0  0  0  0  0  0  0  0  0  0
  182.7660  178.1260  136.7830 C   0  0  0  0  0  2  0  0  0  0  0  0
  181.9910  179.2290  137.3140 N   0  0  0  0  0  2  0  0  0  0  0  0
  181.1660  179.8010  136.2310 C   0  0  1  0  0  3  0  0  0  0  0  0
  180.6630  178.7990  135.3670 O   0  0  0  0  0  1  0  0  0  0  0  0
  179.7120  181.8930  135.8510 C   0  0  0  0  0  2  0  0  0  0  0  0
  180.1070  180.7630  136.8340 C   0  0  2  0  0  3  0  0  0  0  0  0
  179.9860  182.4880  138.7220 C   0  0  0  0  0  2  0  0  0  0  0  0
  179.8960  183.6220  137.7040 C   0  0  2  0  0  3  0  0  0  0  0  0
  180.7550  181.3060  138.1270 C   0  0  0  0  0  2  0  0  0  0  0  0
  179.0610  183.0690  136.5410 C   0  0  0  0  0  2  0  0  0  0  0  0
  180.9970  184.9490  136.2680 C   0  0  0  0  0  1  0  0  0  0  0  0
  181.1720  184.0170  137.3020 O   0  0  0  0  0  0  0  0  0  0  0  0
  186.2810  178.6730  141.9010 C   0  0  0  0  0  0  0  0  0  0  0  0
  185.9120  179.3800  140.9660 O   0  0  0  0  0  0  0  0  0  0  0  0
  185.3070  177.8980  142.7330 C   0  0  0  0  0  2  0  0  0  0  0  0
  184.7280  178.5720  143.9310 C   0  0  0  0  0  0  0  0  0  0  0  0
  184.1920  179.7610  143.8050 C   0  0  0  0  0  2  0  0  0  0  0  0
  185.3700  178.2450  145.1810 N   0  0  0  0  0  2  0  0  0  0  0  0
  186.7690  178.3010  145.3750 N   0  0  0  0  0  2  0  0  0  0  0  0
  189.7910  177.6670  145.4440 C   0  0  0  0  0  2  0  0  0  0  0  0
  191.8340  178.5650  144.3410 C   0  0  0  0  0  1  0  0  0  0  0  0
  188.1340  179.5350  147.3720 S   0  0  0  0  0  0  0  0  0  0  0  0
  187.0100  178.2260  146.8250 C   0  0  2  0  0  3  0  0  0  0  0  0
  187.9210  177.0640  147.1860 C   0  0  1  0  0  0  0  0  0  0  0  0
  191.9730  177.5020  146.4960 O   0  0  0  0  0  0  0  0  0  0  0  0
  191.7490  176.2470  147.1250 C   0  0  0  0  0  2  0  0  0  0  0  0
  187.4210  176.0900  148.2480 C   0  0  0  0  0  1  0  0  0  0  0  0
  189.3820  177.0400  146.7760 C   0  0  1  0  0  0  0  0  0  0  0  0
  190.2530  175.9240  147.3060 C   0  0  0  0  0  2  0  0  0  0  0  0
  191.2950  177.4630  145.2430 C   0  0  1  0  0  3  0  0  0  0  0  0
  188.9580  177.9900  147.8650 C   0  0  1  0  0  3  0  0  0  0  0  0
  2 50  1  6  0  0  0
  2  1  1  0  0  0  0
  3 10  2  0  0  0  0
  5  1  1  0  0  0  0
  6  3  2  0  0  0  0
  7  9  1  0  0  0  0
  7 11  1  0  0  0  0
  7  6  1  0  0  0  0
  8  2  1  0  0  0  0
  9  4  1  6  0  0  0
  9  6  1  0  0  0  0
 10  8  1  0  0  0  0
 10  5  1  0  0  0  0
 11 12  1  1  0  0  0
 11 14  1  0  0  0  0
 13 11  1  0  0  0  0
 13 14  1  1  0  0  0
 17 16  1  6  0  0  0
 17 30  1  0  0  0  0
 18 25  1  0  0  0  0
 19 16  1  0  0  0  0
 19 21  1  0  0  0  0
 20 24  1  0  0  0  0
 20 13  1  0  0  0  0
 20 15  1  1  0  0  0
 22 18  1  1  0  0  0
 22 27  1  0  0  0  0
 23 28  1  0  0  0  0
 24 17  1  0  0  0  0
 24 15  1  6  0  0  0
 24 30  1  0  0  0  0
 25 28  1  0  0  0  0
 26 19  2  0  0  0  0
 27 23  1  6  0  0  0
 29 16  1  0  0  0  0
 29 22  1  0  0  0  0
 30 27  1  0  0  0  0
 31 29  2  0  0  0  0
 32 36  1  0  0  0  0
 32 34  1  0  0  0  0
 33 32  1  0  0  0  0
 33 34  1  0  0  0  0
 34  9  1  0  0  0  0
 36 37  1  0  0  0  0
 37 35  2  0  0  0  0
 38 39  1  0  0  0  0
 38 37  1  0  0  0  0
 40 43  1  0  0  0  0
 40 39  1  0  0  0  0
 41 40  1  0  0  0  0
 42 47  1  0  0  0  0
 42 43  1  0  0  0  0
 43 46  1  0  0  0  0
 45 44  1  0  0  0  0
 46 44  1  0  0  0  0
 47 45  1  0  0  0  0
 48 49  1  0  0  0  0
 49 45  1  0  0  0  0
 50 52  1  0  0  0  0
 51 50  2  0  0  0  0
 52 53  1  0  0  0  0
 53 55  1  0  0  0  0
 54 53  2  0  0  0  0
 55 56  1  0  0  0  0
 56 60  1  0  0  0  0
 57 65  1  0  0  0  0
 58 67  1  0  0  0  0
 59 68  1  0  0  0  0
 60 61  1  0  0  0  0
 60 59  1  0  0  0  0
 61 68  1  0  0  0  0
 61 64  1  0  0  0  0
 62 63  1  0  0  0  0
 63 66  1  0  0  0  0
 65 61  1  0  0  0  0
 65 66  1  0  0  0  0
 65 68  1  0  0  0  0
 67 57  1  0  0  0  0
 67 62  1  0  0  0  0
M  END
>  <MODEL>
4

>  <REMARK>
 VINA RESULT:      -2.6      3.988     10.342
  Name = 
  15 active torsions:
  status: ('A' for Active; 'I' for Inactive)
    1  A    between atoms: C_7  and  N_29
    2  A    between atoms: C_8  and  C_12
    3  A    between atoms: C_8  and  N_38
    4  A    between atoms: C_9  and  C_17
    5  A    between atoms: C_16  and  N_39
    6  A    between atoms: C_17  and  C_47
    7  A    between atoms: N_22  and  C_28
    8  A    between atoms: O_23  and  C_57
    9  A    between atoms: C_30  and  N_36
   10  A    between atoms: C_30  and  C_47
   11  A    between atoms: N_31  and  C_35
   12  A    between atoms: N_31  and  N_36
   13  A    between atoms: N_38  and  C_50
   14  A    between atoms: C_43  and  C_64
   15  A    between atoms: C_50  and  C_51
                            x       y       z     vdW  Elec       q    Type
                         _______ _______ _______ _____ _____    ______ ____

>  <TORSDO>
F 15

$$$$
=
 OpenBabel10222418493D

 68 79  0  0  1  0  0  0  0  0999 V2000
  179.8180  177.6750  142.6460 S   0  0  0  0  0  0  0  0  0  0  0  0
  180.4530  178.5450  141.1440 C   0  0  1  0  0  3  0  0  0  0  0  0
  182.9040  179.3240  143.4230 C   0  0  0  0  0  0  0  0  0  0  0  0
  185.9060  176.7130  144.0430 C   0  0  0  0  0  1  0  0  0  0  0  0
  180.5590  179.0010  143.6850 C   0  0  0  0  0  2  0  0  0  0  0  0
  184.1120  179.0170  143.8980 C   0  0  0  0  0  0  0  0  0  0  0  0
  185.5580  179.4600  144.3240 N   0  0  0  0  0  0  0  0  0  0  0  0
  181.5640  179.3770  141.5000 N   0  0  0  0  0  2  0  0  0  0  0  0
  185.2490  178.1930  143.7120 C   0  0  1  0  0  0  0  0  0  0  0  0
  181.7230  179.5080  142.9190 C   0  0  0  0  0  0  0  0  0  0  0  0
  184.7780  178.5210  145.3620 C   0  0  1  0  0  0  0  0  0  0  0  0
  183.6240  177.3570  145.6420 C   0  0  0  0  0  1  0  0  0  0  0  0
  185.8460  178.2490  146.4930 C   0  0  2  0  0  3  0  0  0  0  0  0
  184.7090  179.2020  146.7470 C   0  0  0  0  0  2  0  0  0  0  0  0
  187.8070  178.9210  147.6180 C   0  0  0  0  0  2  0  0  0  0  0  0
  189.4580  177.0770  144.5350 N   0  0  0  0  0  0  0  0  0  0  0  0
  188.2920  177.2200  145.4600 C   0  0  2  0  0  3  0  0  0  0  0  0
  192.5790  176.8210  146.3230 C   0  0  0  0  0  2  0  0  0  0  0  0
  189.4770  176.0330  143.5730 C   0  0  0  0  0  0  0  0  0  0  0  0
  187.0510  179.1060  146.3820 N   0  0  1  0  0  0  0  0  0  0  0  0
  188.3220  175.2840  143.3460 O   0  0  0  0  0  1  0  0  0  0  0  0
  191.2060  177.5090  146.3060 C   0  0  2  0  0  3  0  0  0  0  0  0
  190.4240  175.2760  147.0830 N   0  0  0  0  0  2  0  0  0  0  0  0
  188.4260  178.4860  146.3630 C   0  0  2  0  0  0  0  0  0  0  0  0
  192.7700  176.0030  147.5980 C   0  0  0  0  0  2  0  0  0  0  0  0
  190.4760  175.8340  142.8170 O   0  0  0  0  0  0  0  0  0  0  0  0
  190.1750  176.7290  147.1700 C   0  0  2  0  0  3  0  0  0  0  0  0
  191.6830  174.9180  147.7420 C   0  0  0  0  0  2  0  0  0  0  0  0
  190.7330  177.6520  144.9070 C   0  0  0  0  0  0  0  0  0  0  0  0
  188.6610  177.0500  146.8900 C   0  0  2  0  0  3  0  0  0  0  0  0
  191.3700  178.3400  144.0640 O   0  0  0  0  0  0  0  0  0  0  0  0
  186.9530  178.7510  141.8240 C   0  0  1  0  0  3  0  0  0  0  0  0
  185.8500  179.6640  141.8700 O   0  0  0  0  0  0  0  0  0  0  0  0
  185.5440  178.3130  142.1560 C   0  0  2  0  0  3  0  0  0  0  0  0
  188.3510  176.5460  140.4710 O   0  0  0  0  0  0  0  0  0  0  0  0
  187.3090  178.6480  140.3910 N   0  0  0  0  0  2  0  0  0  0  0  0
  188.3820  177.7500  140.0830 C   0  0  0  0  0  0  0  0  0  0  0  0
  189.6140  178.2930  139.3790 C   0  0  0  0  0  2  0  0  0  0  0  0
  189.3430  178.6130  137.9930 N   0  0  0  0  0  2  0  0  0  0  0  0
  189.8370  177.5130  137.1400 C   0  0  1  0  0  3  0  0  0  0  0  0
  190.4020  176.4660  137.9080 O   0  0  0  0  0  1  0  0  0  0  0  0
  187.7100  178.2280  135.8760 C   0  0  0  0  0  2  0  0  0  0  0  0
  188.7280  177.0900  136.1400 C   0  0  2  0  0  3  0  0  0  0  0  0
  186.7660  175.4460  136.0850 C   0  0  0  0  0  2  0  0  0  0  0  0
  185.7720  176.6040  136.1260 C   0  0  2  0  0  3  0  0  0  0  0  0
  188.0700  175.8470  136.7790 C   0  0  0  0  0  2  0  0  0  0  0  0
  186.4090  177.7270  135.2950 C   0  0  0  0  0  2  0  0  0  0  0  0
  184.1370  177.0010  137.6100 C   0  0  0  0  0  1  0  0  0  0  0  0
  185.5300  176.9910  137.4440 O   0  0  0  0  0  0  0  0  0  0  0  0
  180.7270  177.7140  139.9360 C   0  0  0  0  0  0  0  0  0  0  0  0
  180.5290  176.5020  139.9530 O   0  0  0  0  0  0  0  0  0  0  0  0
  180.9210  178.4610  138.6530 C   0  0  0  0  0  2  0  0  0  0  0  0
  179.8980  178.2770  137.5820 C   0  0  0  0  0  0  0  0  0  0  0  0
  179.0450  179.2400  137.3340 C   0  0  0  0  0  2  0  0  0  0  0  0
  179.4630  176.9150  137.3860 N   0  0  0  0  0  2  0  0  0  0  0  0
  180.3210  175.8790  136.9510 N   0  0  0  0  0  2  0  0  0  0  0  0
  182.4950  173.7310  136.5090 C   0  0  0  0  0  2  0  0  0  0  0  0
  184.6370  173.1000  137.6080 C   0  0  0  0  0  1  0  0  0  0  0  0
  179.8010  173.4910  138.1340 S   0  0  0  0  0  0  0  0  0  0  0  0
  179.4970  174.6700  136.7950 C   0  0  2  0  0  3  0  0  0  0  0  0
  180.0070  173.7810  135.6730 C   0  0  1  0  0  0  0  0  0  0  0  0
  183.3440  171.4580  136.4150 O   0  0  0  0  0  0  0  0  0  0  0  0
  182.8650  171.1660  135.1090 C   0  0  0  0  0  2  0  0  0  0  0  0
  179.0030  173.3690  134.6000 C   0  0  0  0  0  1  0  0  0  0  0  0
  181.3380  173.0610  135.7700 C   0  0  1  0  0  0  0  0  0  0  0  0
  181.6980  172.0770  134.6790 C   0  0  0  0  0  2  0  0  0  0  0  0
  183.7300  172.8300  136.4150 C   0  0  1  0  0  3  0  0  0  0  0  0
  180.1940  172.5690  136.6160 C   0  0  1  0  0  3  0  0  0  0  0  0
  1  5  1  0  0  0  0
  2 50  1  6  0  0  0
  2  8  1  0  0  0  0
  2  1  1  0  0  0  0
  3  6  2  0  0  0  0
  6  7  1  0  0  0  0
  7 11  1  0  0  0  0
  8 10  1  0  0  0  0
  9  6  1  0  0  0  0
  9  4  1  1  0  0  0
  9  7  1  0  0  0  0
 10  3  2  0  0  0  0
 10  5  1  0  0  0  0
 11 12  1  6  0  0  0
 11 13  1  0  0  0  0
 11 14  1  0  0  0  0
 13 14  1  1  0  0  0
 16 29  1  0  0  0  0
 17 16  1  6  0  0  0
 17 24  1  0  0  0  0
 17 30  1  0  0  0  0
 18 25  1  0  0  0  0
 19 16  1  0  0  0  0
 20 13  1  0  0  0  0
 20 15  1  1  0  0  0
 21 19  1  0  0  0  0
 22 18  1  6  0  0  0
 22 27  1  0  0  0  0
 23 28  1  0  0  0  0
 24 20  1  0  0  0  0
 24 30  1  0  0  0  0
 24 15  1  6  0  0  0
 25 28  1  0  0  0  0
 26 19  2  0  0  0  0
 27 23  1  6  0  0  0
 29 22  1  0  0  0  0
 30 27  1  0  0  0  0
 31 29  2  0  0  0  0
 32 33  1  0  0  0  0
 32 34  1  0  0  0  0
 33 34  1  0  0  0  0
 34  9  1  0  0  0  0
 36 32  1  0  0  0  0
 37 36  1  0  0  0  0
 37 35  2  0  0  0  0
 38 37  1  0  0  0  0
 39 38  1  0  0  0  0
 40 41  1  0  0  0  0
 40 39  1  0  0  0  0
 42 43  1  0  0  0  0
 43 46  1  0  0  0  0
 43 40  1  0  0  0  0
 44 45  1  0  0  0  0
 44 46  1  0  0  0  0
 45 49  1  0  0  0  0
 47 42  1  0  0  0  0
 47 45  1  0  0  0  0
 49 48  1  0  0  0  0
 50 51  2  0  0  0  0
 52 50  1  0  0  0  0
 53 52  1  0  0  0  0
 54 53  2  0  0  0  0
 55 53  1  0  0  0  0
 56 55  1  0  0  0  0
 60 56  1  0  0  0  0
 60 59  1  0  0  0  0
 61 65  1  0  0  0  0
 61 68  1  0  0  0  0
 61 60  1  0  0  0  0
 63 62  1  0  0  0  0
 64 61  1  0  0  0  0
 65 57  1  0  0  0  0
 65 68  1  0  0  0  0
 66 63  1  0  0  0  0
 66 65  1  0  0  0  0
 67 62  1  0  0  0  0
 67 57  1  0  0  0  0
 67 58  1  0  0  0  0
 68 59  1  0  0  0  0
M  END
>  <MODEL>
5

>  <REMARK>
 VINA RESULT:      -2.5      1.415      2.504
  Name = 
  15 active torsions:
  status: ('A' for Active; 'I' for Inactive)
    1  A    between atoms: C_7  and  N_29
    2  A    between atoms: C_8  and  C_12
    3  A    between atoms: C_8  and  N_38
    4  A    between atoms: C_9  and  C_17
    5  A    between atoms: C_16  and  N_39
    6  A    between atoms: C_17  and  C_47
    7  A    between atoms: N_22  and  C_28
    8  A    between atoms: O_23  and  C_57
    9  A    between atoms: C_30  and  N_36
   10  A    between atoms: C_30  and  C_47
   11  A    between atoms: N_31  and  C_35
   12  A    between atoms: N_31  and  N_36
   13  A    between atoms: N_38  and  C_50
   14  A    between atoms: C_43  and  C_64
   15  A    between atoms: C_50  and  C_51
                            x       y       z     vdW  Elec       q    Type
                         _______ _______ _______ _____ _____    ______ ____

>  <TORSDO>
F 15

$$$$
=
 OpenBabel10222418493D

 68 79  0  0  1  0  0  0  0  0999 V2000
  189.1490  179.3820  141.8440 S   0  0  0  0  0  0  0  0  0  0  0  0
  189.7760  177.6730  142.1680 C   0  0  1  0  0  3  0  0  0  0  0  0
  187.7710  177.1150  139.4330 C   0  0  0  0  0  0  0  0  0  0  0  0
  189.2690  177.7260  135.7460 C   0  0  0  0  0  1  0  0  0  0  0  0
  187.5700  178.6510  141.2420 C   0  0  0  0  0  2  0  0  0  0  0  0
  187.7210  176.9720  138.1080 C   0  0  0  0  0  0  0  0  0  0  0  0
  187.2430  176.1680  136.8450 N   0  0  0  0  0  0  0  0  0  0  0  0
  189.0670  176.7350  141.3490 N   0  0  0  0  0  2  0  0  0  0  0  0
  188.4990  176.8670  136.9290 C   0  0  1  0  0  0  0  0  0  0  0  0
  187.9250  177.3150  140.7050 C   0  0  0  0  0  0  0  0  0  0  0  0
  186.9970  177.7510  136.8030 C   0  0  1  0  0  0  0  0  0  0  0  0
  187.5840  179.2760  136.4950 C   0  0  0  0  0  1  0  0  0  0  0  0
  185.4600  177.8800  136.4640 C   0  0  2  0  0  3  0  0  0  0  0  0
  185.9470  178.1550  137.8620 C   0  0  0  0  0  2  0  0  0  0  0  0
  184.3850  176.4110  137.9630 C   0  0  0  0  0  2  0  0  0  0  0  0
  181.2690  177.4470  135.7620 N   0  0  0  0  0  0  0  0  0  0  0  0
  182.6190  177.7930  136.3030 C   0  0  2  0  0  3  0  0  0  0  0  0
  179.0280  176.3080  138.3480 C   0  0  0  0  0  2  0  0  0  0  0  0
  180.5380  178.4060  135.0120 C   0  0  0  0  0  0  0  0  0  0  0  0
  184.7280  176.5950  136.5550 N   0  0  1  0  0  0  0  0  0  0  0  0
  181.1650  179.5810  134.5970 O   0  0  0  0  0  1  0  0  0  0  0  0
  180.4820  176.2710  137.8540 C   0  0  2  0  0  3  0  0  0  0  0  0
  180.5080  178.6060  138.7200 N   0  0  0  0  0  2  0  0  0  0  0  0
  183.2870  176.5700  137.0050 C   0  0  2  0  0  0  0  0  0  0  0  0
  178.9330  176.9370  139.7360 C   0  0  0  0  0  2  0  0  0  0  0  0
  179.3610  178.1780  134.5950 O   0  0  0  0  0  0  0  0  0  0  0  0
  181.3290  177.3950  138.5150 C   0  0  2  0  0  3  0  0  0  0  0  0
  179.4830  178.3770  139.7430 C   0  0  0  0  0  2  0  0  0  0  0  0
  180.5130  176.3750  136.3750 C   0  0  0  0  0  0  0  0  0  0  0  0
  182.6770  177.7560  137.7890 C   0  0  2  0  0  3  0  0  0  0  0  0
  179.9750  175.5020  135.6420 O   0  0  0  0  0  0  0  0  0  0  0  0
  190.9230  176.4370  137.7780 C   0  0  1  0  0  3  0  0  0  0  0  0
  190.7130  175.9900  136.4330 O   0  0  0  0  0  0  0  0  0  0  0  0
  189.6230  175.8150  137.3180 C   0  0  2  0  0  3  0  0  0  0  0  0
  193.7160  176.9470  138.5430 O   0  0  0  0  0  0  0  0  0  0  0  0
  191.8940  175.4800  138.3560 N   0  0  0  0  0  2  0  0  0  0  0  0
  193.2750  175.8180  138.1810 C   0  0  0  0  0  0  0  0  0  0  0  0
  194.1820  174.8430  137.4490 C   0  0  0  0  0  2  0  0  0  0  0  0
  193.6090  174.4200  136.1880 N   0  0  0  0  0  2  0  0  0  0  0  0
  193.1040  173.0390  136.3300 C   0  0  1  0  0  3  0  0  0  0  0  0
  191.8640  172.8620  135.6690 O   0  0  0  0  0  1  0  0  0  0  0  0
  194.9720  171.4870  137.1840 C   0  0  0  0  0  2  0  0  0  0  0  0
  194.2210  172.0320  135.9450 C   0  0  2  0  0  3  0  0  0  0  0  0
  196.4700  172.0900  134.7210 C   0  0  0  0  0  2  0  0  0  0  0  0
  197.2100  171.8420  136.0330 C   0  0  2  0  0  3  0  0  0  0  0  0
  195.1490  172.8170  134.9910 C   0  0  0  0  0  2  0  0  0  0  0  0
  196.3160  170.8890  136.8390 C   0  0  0  0  0  2  0  0  0  0  0  0
  198.7660  173.4090  136.4300 C   0  0  0  0  0  1  0  0  0  0  0  0
  197.4370  173.0460  136.6980 O   0  0  0  0  0  0  0  0  0  0  0  0
  191.2530  177.4660  142.1240 C   0  0  0  0  0  0  0  0  0  0  0  0
  191.8630  177.5390  141.0610 O   0  0  0  0  0  0  0  0  0  0  0  0
  191.9610  177.5060  143.4430 C   0  0  0  0  0  2  0  0  0  0  0  0
  191.5500  178.5560  144.4200 C   0  0  0  0  0  0  0  0  0  0  0  0
  192.0730  179.7540  144.3360 C   0  0  0  0  0  2  0  0  0  0  0  0
  191.1910  178.0610  145.7270 N   0  0  0  0  0  2  0  0  0  0  0  0
  190.8870  176.7060  145.9900 N   0  0  0  0  0  2  0  0  0  0  0  0
  187.9740  177.6130  145.5100 C   0  0  0  0  0  2  0  0  0  0  0  0
  186.1650  177.0440  143.8980 C   0  0  0  0  0  1  0  0  0  0  0  0
  189.0380  175.3890  147.4790 S   0  0  0  0  0  0  0  0  0  0  0  0
  190.3410  176.6390  147.3550 C   0  0  2  0  0  3  0  0  0  0  0  0
  189.4560  177.8340  147.6670 C   0  0  1  0  0  0  0  0  0  0  0  0
  185.6320  177.8640  146.0970 O   0  0  0  0  0  0  0  0  0  0  0  0
  185.7980  179.0130  146.9170 C   0  0  0  0  0  2  0  0  0  0  0  0
  189.7770  178.6300  148.9280 C   0  0  0  0  0  1  0  0  0  0  0  0
  188.1250  178.0430  146.9680 C   0  0  1  0  0  0  0  0  0  0  0  0
  187.2380  179.1700  147.4470 C   0  0  0  0  0  2  0  0  0  0  0  0
  186.5680  177.9810  145.0280 C   0  0  1  0  0  3  0  0  0  0  0  0
  188.2340  176.9400  147.9870 C   0  0  1  0  0  3  0  0  0  0  0  0
  1  2  1  0  0  0  0
  2 50  1  6  0  0  0
  3 10  2  0  0  0  0
  5  1  1  0  0  0  0
  6  3  2  0  0  0  0
  7  9  1  0  0  0  0
  7  6  1  0  0  0  0
  8  2  1  0  0  0  0
  9  4  1  6  0  0  0
  9 34  1  0  0  0  0
  9  6  1  0  0  0  0
 10  5  1  0  0  0  0
 10  8  1  0  0  0  0
 11 12  1  6  0  0  0
 11  7  1  0  0  0  0
 11 14  1  0  0  0  0
 13 20  1  0  0  0  0
 13 11  1  0  0  0  0
 13 14  1  1  0  0  0
 16 29  1  0  0  0  0
 17 16  1  1  0  0  0
 17 24  1  0  0  0  0
 17 30  1  0  0  0  0
 18 25  1  0  0  0  0
 19 16  1  0  0  0  0
 20 24  1  0  0  0  0
 20 15  1  1  0  0  0
 21 19  1  0  0  0  0
 22 18  1  1  0  0  0
 22 27  1  0  0  0  0
 23 28  1  0  0  0  0
 24 30  1  0  0  0  0
 24 15  1  1  0  0  0
 25 28  1  0  0  0  0
 26 19  2  0  0  0  0
 27 23  1  6  0  0  0
 29 22  1  0  0  0  0
 30 27  1  0  0  0  0
 31 29  2  0  0  0  0
 32 36  1  0  0  0  0
 33 34  1  0  0  0  0
 33 32  1  0  0  0  0
 34 32  1  0  0  0  0
 37 36  1  0  0  0  0
 37 35  2  0  0  0  0
 38 37  1  0  0  0  0
 39 40  1  0  0  0  0
 39 38  1  0  0  0  0
 41 40  1  0  0  0  0
 43 40  1  0  0  0  0
 43 42  1  0  0  0  0
 44 46  1  0  0  0  0
 44 45  1  0  0  0  0
 45 49  1  0  0  0  0
 45 47  1  0  0  0  0
 46 43  1  0  0  0  0
 47 42  1  0  0  0  0
 48 49  1  0  0  0  0
 50 52  1  0  0  0  0
 51 50  2  0  0  0  0
 52 53  1  0  0  0  0
 53 55  1  0  0  0  0
 54 53  2  0  0  0  0
 55 56  1  0  0  0  0
 56 60  1  0  0  0  0
 57 65  1  0  0  0  0
 58 67  1  0  0  0  0
 59 68  1  0  0  0  0
 60 59  1  0  0  0  0
 60 61  1  0  0  0  0
 61 68  1  0  0  0  0
 61 64  1  0  0  0  0
 62 63  1  0  0  0  0
 63 66  1  0  0  0  0
 65 66  1  0  0  0  0
 65 61  1  0  0  0  0
 65 68  1  0  0  0  0
 67 57  1  0  0  0  0
 67 62  1  0  0  0  0
M  END
>  <MODEL>
6

>  <REMARK>
 VINA RESULT:      -2.4      3.467     10.606
  Name = 
  15 active torsions:
  status: ('A' for Active; 'I' for Inactive)
    1  A    between atoms: C_7  and  N_29
    2  A    between atoms: C_8  and  C_12
    3  A    between atoms: C_8  and  N_38
    4  A    between atoms: C_9  and  C_17
    5  A    between atoms: C_16  and  N_39
    6  A    between atoms: C_17  and  C_47
    7  A    between atoms: N_22  and  C_28
    8  A    between atoms: O_23  and  C_57
    9  A    between atoms: C_30  and  N_36
   10  A    between atoms: C_30  and  C_47
   11  A    between atoms: N_31  and  C_35
   12  A    between atoms: N_31  and  N_36
   13  A    between atoms: N_38  and  C_50
   14  A    between atoms: C_43  and  C_64
   15  A    between atoms: C_50  and  C_51
                            x       y       z     vdW  Elec       q    Type
                         _______ _______ _______ _____ _____    ______ ____

>  <TORSDO>
F 15

$$$$
=
 OpenBabel10222418493D

 68 79  0  0  1  0  0  0  0  0999 V2000
  179.9060  177.1920  141.8150 S   0  0  0  0  0  0  0  0  0  0  0  0
  180.5080  178.3150  140.4750 C   0  0  1  0  0  3  0  0  0  0  0  0
  182.6490  179.1530  143.0290 C   0  0  0  0  0  0  0  0  0  0  0  0
  185.9550  176.9320  143.6240 C   0  0  0  0  0  1  0  0  0  0  0  0
  180.3670  178.4760  143.0510 C   0  0  0  0  0  2  0  0  0  0  0  0
  183.8530  178.9630  143.5720 C   0  0  0  0  0  0  0  0  0  0  0  0
  185.1840  179.5510  144.1670 N   0  0  0  0  0  0  0  0  0  0  0  0
  181.4550  179.2460  141.0140 N   0  0  0  0  0  2  0  0  0  0  0  0
  185.1100  178.3350  143.3980 C   0  0  1  0  0  0  0  0  0  0  0  0
  181.4930  179.2280  142.4480 C   0  0  0  0  0  0  0  0  0  0  0  0
  184.4810  178.3960  145.0270 C   0  0  1  0  0  0  0  0  0  0  0  0
  183.3950  177.1380  145.1050 C   0  0  0  0  0  1  0  0  0  0  0  0
  185.5920  177.9800  146.0690 C   0  0  2  0  0  3  0  0  0  0  0  0
  184.4150  178.8060  146.5150 C   0  0  0  0  0  2  0  0  0  0  0  0
  187.3860  178.7350  147.4000 C   0  0  0  0  0  2  0  0  0  0  0  0
  189.4450  177.0700  144.4640 N   0  0  0  0  0  0  0  0  0  0  0  0
  188.1860  177.1210  145.2690 C   0  0  2  0  0  3  0  0  0  0  0  0
  192.3820  176.9480  146.5540 C   0  0  0  0  0  2  0  0  0  0  0  0
  189.6230  176.0540  143.4880 C   0  0  0  0  0  0  0  0  0  0  0  0
  186.7480  178.9070  146.0980 N   0  0  1  0  0  0  0  0  0  0  0  0
  188.5440  175.2450  143.1310 O   0  0  0  0  0  1  0  0  0  0  0  0
  190.9780  177.5560  146.4110 C   0  0  2  0  0  3  0  0  0  0  0  0
  190.2580  175.2620  147.0600 N   0  0  0  0  0  2  0  0  0  0  0  0
  188.1530  178.3680  146.2060 C   0  0  2  0  0  0  0  0  0  0  0  0
  192.4930  176.1090  147.8250 C   0  0  0  0  0  2  0  0  0  0  0  0
  190.7030  175.9330  142.8330 O   0  0  0  0  0  0  0  0  0  0  0  0
  189.9150  176.6950  147.1510 C   0  0  2  0  0  3  0  0  0  0  0  0
  191.4650  174.9610  147.8360 C   0  0  0  0  0  2  0  0  0  0  0  0
  190.6390  177.7080  144.9750 C   0  0  0  0  0  0  0  0  0  0  0  0
  188.4200  176.9350  146.7260 C   0  0  2  0  0  3  0  0  0  0  0  0
  191.3150  178.4530  144.2150 O   0  0  0  0  0  0  0  0  0  0  0  0
  186.9740  178.8850  141.6640 C   0  0  1  0  0  3  0  0  0  0  0  0
  186.0650  179.9730  141.8740 O   0  0  0  0  0  0  0  0  0  0  0  0
  185.4930  178.6780  141.8950 C   0  0  2  0  0  3  0  0  0  0  0  0
  187.8560  176.7100  139.8930 O   0  0  0  0  0  0  0  0  0  0  0  0
  187.3680  178.9790  140.2400 N   0  0  0  0  0  2  0  0  0  0  0  0
  188.2020  177.9190  139.7570 C   0  0  0  0  0  0  0  0  0  0  0  0
  189.5650  178.2630  139.1810 C   0  0  0  0  0  2  0  0  0  0  0  0
  189.8560  177.4890  137.9920 N   0  0  0  0  0  2  0  0  0  0  0  0
  190.9590  176.5520  138.2870 C   0  0  1  0  0  3  0  0  0  0  0  0
  190.4790  175.2560  138.5980 O   0  0  0  0  0  1  0  0  0  0  0  0
  191.5250  175.9700  135.8430 C   0  0  0  0  0  2  0  0  0  0  0  0
  192.0210  176.6230  137.1570 C   0  0  2  0  0  3  0  0  0  0  0  0
  194.3290  175.6250  136.6740 C   0  0  0  0  0  2  0  0  0  0  0  0
  193.7420  174.7600  135.5620 C   0  0  2  0  0  3  0  0  0  0  0  0
  193.2640  175.9120  137.7360 C   0  0  0  0  0  2  0  0  0  0  0  0
  192.6520  175.6170  134.9020 C   0  0  0  0  0  2  0  0  0  0  0  0
  192.6730  172.8660  135.0120 C   0  0  0  0  0  1  0  0  0  0  0  0
  193.2360  173.5710  136.0870 O   0  0  0  0  0  0  0  0  0  0  0  0
  180.9870  177.6800  139.2140 C   0  0  0  0  0  0  0  0  0  0  0  0
  182.1530  177.8130  138.8500 O   0  0  0  0  0  0  0  0  0  0  0  0
  180.0950  176.6320  138.6250 C   0  0  0  0  0  2  0  0  0  0  0  0
  180.6050  175.2300  138.5810 C   0  0  0  0  0  0  0  0  0  0  0  0
  180.0920  174.3330  139.3870 C   0  0  0  0  0  2  0  0  0  0  0  0
  181.9950  175.1020  138.2160 N   0  0  0  0  0  2  0  0  0  0  0  0
  182.4990  174.0370  137.4360 N   0  0  0  0  0  2  0  0  0  0  0  0
  185.2670  175.2110  136.7300 C   0  0  0  0  0  2  0  0  0  0  0  0
  187.6380  174.5230  137.0520 C   0  0  0  0  0  1  0  0  0  0  0  0
  183.3760  173.4300  134.9390 S   0  0  0  0  0  0  0  0  0  0  0  0
  182.3010  174.4020  136.0240 C   0  0  2  0  0  3  0  0  0  0  0  0
  182.9150  175.7530  135.6990 C   0  0  1  0  0  0  0  0  0  0  0  0
  187.0150  175.9460  135.2140 O   0  0  0  0  0  0  0  0  0  0  0  0
  186.4630  177.2280  134.9480 C   0  0  0  0  0  2  0  0  0  0  0  0
  182.0110  176.7880  135.0350 C   0  0  0  0  0  1  0  0  0  0  0  0
  184.4160  175.9710  135.7150 C   0  0  1  0  0  0  0  0  0  0  0  0
  184.9490  177.3010  135.2300 C   0  0  0  0  0  2  0  0  0  0  0  0
  186.7270  175.6470  136.5770 C   0  0  1  0  0  3  0  0  0  0  0  0
  183.8210  175.1610  134.5940 C   0  0  1  0  0  3  0  0  0  0  0  0
  1  5  1  0  0  0  0
  2 50  1  6  0  0  0
  2  8  1  0  0  0  0
  2  1  1  0  0  0  0
  3  6  2  0  0  0  0
  6  7  1  0  0  0  0
  7 11  1  0  0  0  0
  8 10  1  0  0  0  0
  9  6  1  0  0  0  0
  9  4  1  1  0  0  0
  9  7  1  0  0  0  0
 10  3  2  0  0  0  0
 10  5  1  0  0  0  0
 11 12  1  6  0  0  0
 11 13  1  0  0  0  0
 11 14  1  0  0  0  0
 13 20  1  0  0  0  0
 13 14  1  1  0  0  0
 16 29  1  0  0  0  0
 17 16  1  6  0  0  0
 17 24  1  0  0  0  0
 17 30  1  0  0  0  0
 18 25  1  0  0  0  0
 19 16  1  0  0  0  0
 20 24  1  0  0  0  0
 20 15  1  1  0  0  0
 21 19  1  0  0  0  0
 22 18  1  6  0  0  0
 22 27  1  0  0  0  0
 23 28  1  0  0  0  0
 24 30  1  0  0  0  0
 24 15  1  6  0  0  0
 25 28  1  0  0  0  0
 26 19  2  0  0  0  0
 27 23  1  6  0  0  0
 29 22  1  0  0  0  0
 30 27  1  0  0  0  0
 31 29  2  0  0  0  0
 32 33  1  0  0  0  0
 32 34  1  0  0  0  0
 33 34  1  0  0  0  0
 34  9  1  0  0  0  0
 36 32  1  0  0  0  0
 37 35  2  0  0  0  0
 37 36  1  0  0  0  0
 38 37  1  0  0  0  0
 39 40  1  0  0  0  0
 39 38  1  0  0  0  0
 40 41  1  0  0  0  0
 42 43  1  0  0  0  0
 43 46  1  0  0  0  0
 43 40  1  0  0  0  0
 44 46  1  0  0  0  0
 45 49  1  0  0  0  0
 45 44  1  0  0  0  0
 47 45  1  0  0  0  0
 47 42  1  0  0  0  0
 48 49  1  0  0  0  0
 51 50  2  0  0  0  0
 52 50  1  0  0  0  0
 53 52  1  0  0  0  0
 53 54  2  0  0  0  0
 55 53  1  0  0  0  0
 56 55  1  0  0  0  0
 59 60  1  0  0  0  0
 60 56  1  0  0  0  0
 61 65  1  0  0  0  0
 61 60  1  0  0  0  0
 62 67  1  0  0  0  0
 63 62  1  0  0  0  0
 63 66  1  0  0  0  0
 64 61  1  0  0  0  0
 65 57  1  0  0  0  0
 66 65  1  0  0  0  0
 67 57  1  0  0  0  0
 67 58  1  0  0  0  0
 68 59  1  0  0  0  0
 68 61  1  0  0  0  0
 68 65  1  0  0  0  0
M  END
>  <MODEL>
7

>  <REMARK>
 VINA RESULT:      -2.3      1.437      2.308
  Name = 
  15 active torsions:
  status: ('A' for Active; 'I' for Inactive)
    1  A    between atoms: C_7  and  N_29
    2  A    between atoms: C_8  and  C_12
    3  A    between atoms: C_8  and  N_38
    4  A    between atoms: C_9  and  C_17
    5  A    between atoms: C_16  and  N_39
    6  A    between atoms: C_17  and  C_47
    7  A    between atoms: N_22  and  C_28
    8  A    between atoms: O_23  and  C_57
    9  A    between atoms: C_30  and  N_36
   10  A    between atoms: C_30  and  C_47
   11  A    between atoms: N_31  and  C_35
   12  A    between atoms: N_31  and  N_36
   13  A    between atoms: N_38  and  C_50
   14  A    between atoms: C_43  and  C_64
   15  A    between atoms: C_50  and  C_51
                            x       y       z     vdW  Elec       q    Type
                         _______ _______ _______ _____ _____    ______ ____

>  <TORSDO>
F 15

$$$$
=
 OpenBabel10222418493D

 68 79  0  0  1  0  0  0  0  0999 V2000
  186.1240  178.2350  140.3920 S   0  0  0  0  0  0  0  0  0  0  0  0
  185.1420  178.1560  138.8270 C   0  0  1  0  0  3  0  0  0  0  0  0
  188.3150  177.6030  137.6270 C   0  0  0  0  0  0  0  0  0  0  0  0
  189.8160  173.8670  137.7040 C   0  0  0  0  0  1  0  0  0  0  0  0
  187.5290  178.9390  139.4350 C   0  0  0  0  0  2  0  0  0  0  0  0
  189.2110  176.6910  137.2480 C   0  0  0  0  0  0  0  0  0  0  0  0
  190.2540  176.1650  136.1960 N   0  0  0  0  0  0  0  0  0  0  0  0
  186.0300  178.1190  137.7020 N   0  0  0  0  0  2  0  0  0  0  0  0
  189.4210  175.3110  137.0040 C   0  0  1  0  0  0  0  0  0  0  0  0
  187.3890  178.4000  138.0600 C   0  0  0  0  0  0  0  0  0  0  0  0
  190.7490  176.1930  137.7210 C   0  0  1  0  0  0  0  0  0  0  0  0
  190.3720  176.2260  139.3400 C   0  0  0  0  0  1  0  0  0  0  0  0
  192.1140  175.4020  137.6830 C   0  0  2  0  0  3  0  0  0  0  0  0
  192.1180  176.9010  137.8230 C   0  0  0  0  0  2  0  0  0  0  0  0
  193.6420  176.1350  136.0430 C   0  0  0  0  0  2  0  0  0  0  0  0
  195.1250  172.5320  136.7120 N   0  0  0  0  0  0  0  0  0  0  0  0
  194.3560  173.7080  137.2200 C   0  0  2  0  0  3  0  0  0  0  0  0
  198.2560  173.5100  135.2120 C   0  0  0  0  0  2  0  0  0  0  0  0
  195.4350  171.4550  137.5850 C   0  0  0  0  0  0  0  0  0  0  0  0
  192.6060  175.1410  136.3090 N   0  0  1  0  0  0  0  0  0  0  0  0
  194.8380  171.3950  138.8440 O   0  0  0  0  0  1  0  0  0  0  0  0
  196.7800  173.9010  135.3840 C   0  0  2  0  0  3  0  0  0  0  0  0
  197.5330  174.5170  137.6760 N   0  0  0  0  0  2  0  0  0  0  0  0
  194.0370  174.7240  136.0790 C   0  0  2  0  0  0  0  0  0  0  0  0
  199.1800  174.5820  135.7840 C   0  0  0  0  0  2  0  0  0  0  0  0
  196.1450  170.4710  137.2120 O   0  0  0  0  0  0  0  0  0  0  0  0
  196.5900  174.8600  136.5930 C   0  0  2  0  0  3  0  0  0  0  0  0
  198.9140  174.8170  137.2850 C   0  0  0  0  0  2  0  0  0  0  0  0
  195.9500  172.6810  135.5320 C   0  0  0  0  0  0  0  0  0  0  0  0
  195.1240  174.9790  137.1510 C   0  0  2  0  0  3  0  0  0  0  0  0
  195.8780  171.8190  134.6150 O   0  0  0  0  0  0  0  0  0  0  0  0
  186.8500  175.4750  136.6220 C   0  0  1  0  0  3  0  0  0  0  0  0
  187.2820  174.1530  136.9670 O   0  0  0  0  0  0  0  0  0  0  0  0
  188.1590  174.8910  136.1370 C   0  0  2  0  0  3  0  0  0  0  0  0
  185.8310  177.3500  134.5990 O   0  0  0  0  0  0  0  0  0  0  0  0
  185.7090  175.2800  135.6990 N   0  0  0  0  0  2  0  0  0  0  0  0
  185.1210  176.4790  135.1810 C   0  0  0  0  0  0  0  0  0  0  0  0
  183.6480  176.7450  135.4400 C   0  0  0  0  0  2  0  0  0  0  0  0
  182.9170  175.5210  135.6910 N   0  0  0  0  0  2  0  0  0  0  0  0
  181.5590  175.8600  136.1630 C   0  0  1  0  0  3  0  0  0  0  0  0
  181.0140  176.9570  135.4510 O   0  0  0  0  0  1  0  0  0  0  0  0
  181.1110  173.6060  137.3250 C   0  0  0  0  0  2  0  0  0  0  0  0
  180.6830  174.5790  136.1980 C   0  0  2  0  0  3  0  0  0  0  0  0
  180.2760  172.5330  134.7130 C   0  0  0  0  0  2  0  0  0  0  0  0
  180.9780  171.6350  135.7270 C   0  0  2  0  0  3  0  0  0  0  0  0
  180.8350  173.9560  134.7920 C   0  0  0  0  0  2  0  0  0  0  0  0
  180.6080  172.1990  137.1060 C   0  0  0  0  0  2  0  0  0  0  0  0
  182.8020  170.3280  135.7510 C   0  0  0  0  0  1  0  0  0  0  0  0
  182.3550  171.6350  135.5060 O   0  0  0  0  0  0  0  0  0  0  0  0
  184.0700  177.1230  138.7430 C   0  0  0  0  0  0  0  0  0  0  0  0
  184.3560  175.9330  138.6370 O   0  0  0  0  0  0  0  0  0  0  0  0
  182.6940  177.5700  139.1240 C   0  0  0  0  0  2  0  0  0  0  0  0
  182.5750  178.6780  140.1180 C   0  0  0  0  0  0  0  0  0  0  0  0
  182.9190  179.8930  139.7710 C   0  0  0  0  0  2  0  0  0  0  0  0
  182.7660  178.2830  141.4920 N   0  0  0  0  0  2  0  0  0  0  0  0
  184.0340  178.2130  142.1130 N   0  0  0  0  0  2  0  0  0  0  0  0
  186.6680  177.4400  143.5290 C   0  0  0  0  0  2  0  0  0  0  0  0
  189.0440  177.1380  142.8490 C   0  0  0  0  0  1  0  0  0  0  0  0
  185.3420  180.2910  143.2710 S   0  0  0  0  0  0  0  0  0  0  0  0
  183.9890  179.0900  143.2940 C   0  0  2  0  0  3  0  0  0  0  0  0
  184.4340  178.3630  144.5520 C   0  0  1  0  0  0  0  0  0  0  0  0
  188.4860  177.7630  145.1050 O   0  0  0  0  0  0  0  0  0  0  0  0
  187.7920  177.2760  146.2460 C   0  0  0  0  0  2  0  0  0  0  0  0
  183.4900  178.4030  145.7510 C   0  0  0  0  0  1  0  0  0  0  0  0
  185.8680  177.9050  144.7430 C   0  0  1  0  0  0  0  0  0  0  0  0
  186.2600  177.3300  146.0860 C   0  0  0  0  0  2  0  0  0  0  0  0
  188.0530  176.9810  143.9940 C   0  0  1  0  0  3  0  0  0  0  0  0
  185.5680  179.3780  144.8280 C   0  0  1  0  0  3  0  0  0  0  0  0
  2 50  1  1  0  0  0
  2  1  1  0  0  0  0
  3 10  2  0  0  0  0
  5  1  1  0  0  0  0
  6  3  2  0  0  0  0
  7  9  1  0  0  0  0
  7  6  1  0  0  0  0
  7 11  1  0  0  0  0
  8 10  1  0  0  0  0
  8  2  1  0  0  0  0
  9  6  1  0  0  0  0
  9  4  1  1  0  0  0
 10  5  1  0  0  0  0
 11 14  1  0  0  0  0
 11 12  1  1  0  0  0
 13 11  1  0  0  0  0
 13 14  1  1  0  0  0
 16 19  1  0  0  0  0
 17 16  1  6  0  0  0
 18 25  1  0  0  0  0
 19 21  1  0  0  0  0
 20 15  1  6  0  0  0
 20 13  1  0  0  0  0
 22 18  1  1  0  0  0
 22 29  1  0  0  0  0
 22 27  1  0  0  0  0
 24 15  1  6  0  0  0
 24 20  1  0  0  0  0
 24 30  1  0  0  0  0
 24 17  1  0  0  0  0
 25 28  1  0  0  0  0
 26 19  2  0  0  0  0
 27 30  1  0  0  0  0
 27 23  1  1  0  0  0
 28 23  1  0  0  0  0
 29 16  1  0  0  0  0
 30 17  1  0  0  0  0
 31 29  2  0  0  0  0
 32 33  1  0  0  0  0
 34 32  1  0  0  0  0
 34 33  1  0  0  0  0
 34  9  1  0  0  0  0
 35 37  2  0  0  0  0
 36 32  1  0  0  0  0
 37 38  1  0  0  0  0
 37 36  1  0  0  0  0
 38 39  1  0  0  0  0
 39 40  1  0  0  0  0
 40 43  1  0  0  0  0
 41 40  1  0  0  0  0
 43 42  1  0  0  0  0
 44 46  1  0  0  0  0
 44 45  1  0  0  0  0
 45 47  1  0  0  0  0
 46 43  1  0  0  0  0
 47 42  1  0  0  0  0
 49 45  1  0  0  0  0
 49 48  1  0  0  0  0
 50 52  1  0  0  0  0
 51 50  2  0  0  0  0
 52 53  1  0  0  0  0
 53 55  1  0  0  0  0
 54 53  2  0  0  0  0
 55 56  1  0  0  0  0
 56 60  1  0  0  0  0
 57 67  1  0  0  0  0
 57 65  1  0  0  0  0
 58 67  1  0  0  0  0
 59 60  1  0  0  0  0
 59 68  1  0  0  0  0
 60 61  1  0  0  0  0
 61 65  1  0  0  0  0
 61 68  1  0  0  0  0
 61 64  1  0  0  0  0
 62 63  1  0  0  0  0
 65 68  1  0  0  0  0
 65 66  1  0  0  0  0
 66 63  1  0  0  0  0
 67 62  1  0  0  0  0
M  END
>  <MODEL>
8

>  <REMARK>
 VINA RESULT:      -2.0      3.616      9.355
  Name = 
  15 active torsions:
  status: ('A' for Active; 'I' for Inactive)
    1  A    between atoms: C_7  and  N_29
    2  A    between atoms: C_8  and  C_12
    3  A    between atoms: C_8  and  N_38
    4  A    between atoms: C_9  and  C_17
    5  A    between atoms: C_16  and  N_39
    6  A    between atoms: C_17  and  C_47
    7  A    between atoms: N_22  and  C_28
    8  A    between atoms: O_23  and  C_57
    9  A    between atoms: C_30  and  N_36
   10  A    between atoms: C_30  and  C_47
   11  A    between atoms: N_31  and  C_35
   12  A    between atoms: N_31  and  N_36
   13  A    between atoms: N_38  and  C_50
   14  A    between atoms: C_43  and  C_64
   15  A    between atoms: C_50  and  C_51
                            x       y       z     vdW  Elec       q    Type
                         _______ _______ _______ _____ _____    ______ ____

>  <TORSDO>
F 15

$$$$
=
 OpenBabel10222418493D

 68 79  0  0  1  0  0  0  0  0999 V2000
  188.2270  176.5390  142.5960 S   0  0  0  0  0  0  0  0  0  0  0  0
  187.9040  178.2760  142.0520 C   0  0  1  0  0  3  0  0  0  0  0  0
  189.5330  177.0300  139.2940 C   0  0  0  0  0  0  0  0  0  0  0  0
  187.4250  175.0190  136.5140 C   0  0  0  0  0  1  0  0  0  0  0  0
  189.7840  176.5580  141.6150 C   0  0  0  0  0  2  0  0  0  0  0  0
  189.4030  176.5010  138.0770 C   0  0  0  0  0  0  0  0  0  0  0  0
  189.7940  176.4790  136.5550 N   0  0  0  0  0  0  0  0  0  0  0  0
  188.6070  178.5390  140.8310 N   0  0  0  0  0  2  0  0  0  0  0  0
  188.4780  176.1730  137.0550 C   0  0  1  0  0  0  0  0  0  0  0  0
  189.5450  177.5060  140.5000 C   0  0  0  0  0  0  0  0  0  0  0  0
  189.8040  175.0610  137.3020 C   0  0  1  0  0  0  0  0  0  0  0  0
  188.9820  173.6960  137.7800 C   0  0  0  0  0  1  0  0  0  0  0  0
  191.2780  174.5380  137.0870 C   0  0  2  0  0  3  0  0  0  0  0  0
  190.8560  175.0630  138.4330 C   0  0  0  0  0  2  0  0  0  0  0  0
  192.8590  176.1830  137.6870 C   0  0  0  0  0  2  0  0  0  0  0  0
  195.2320  173.7370  135.6830 N   0  0  0  0  0  0  0  0  0  0  0  0
  193.9970  173.9270  136.5030 C   0  0  2  0  0  3  0  0  0  0  0  0
  198.1270  175.2310  137.2320 C   0  0  0  0  0  2  0  0  0  0  0  0
  195.6330  172.4310  135.2940 C   0  0  0  0  0  0  0  0  0  0  0  0
  192.1940  175.5680  136.5410 N   0  0  1  0  0  0  0  0  0  0  0  0
  194.7640  171.3570  135.4890 O   0  0  0  0  0  1  0  0  0  0  0  0
  196.6210  175.4030  136.9770 C   0  0  2  0  0  3  0  0  0  0  0  0
  196.4420  173.6280  138.7150 N   0  0  0  0  0  2  0  0  0  0  0  0
  193.6850  175.4380  136.7320 C   0  0  2  0  0  0  0  0  0  0  0  0
  198.4280  175.1610  138.7270 C   0  0  0  0  0  2  0  0  0  0  0  0
  196.7100  172.2200  134.6580 O   0  0  0  0  0  0  0  0  0  0  0  0
  195.7830  174.8240  138.1520 C   0  0  2  0  0  3  0  0  0  0  0  0
  197.6880  173.9880  139.3990 C   0  0  0  0  0  2  0  0  0  0  0  0
  196.2520  174.7640  135.6900 C   0  0  0  0  0  0  0  0  0  0  0  0
  194.2710  174.5260  137.8360 C   0  0  2  0  0  3  0  0  0  0  0  0
  196.7400  175.1580  134.5960 O   0  0  0  0  0  0  0  0  0  0  0  0
  186.4350  177.3530  135.9530 C   0  0  1  0  0  3  0  0  0  0  0  0
  187.6870  177.9510  135.5960 O   0  0  0  0  0  0  0  0  0  0  0  0
  187.5860  177.4800  136.9270 C   0  0  2  0  0  3  0  0  0  0  0  0
  184.3470  177.8590  137.9610 O   0  0  0  0  0  0  0  0  0  0  0  0
  185.4680  178.4730  135.9920 N   0  0  0  0  0  2  0  0  0  0  0  0
  184.2790  178.2380  136.7550 C   0  0  0  0  0  0  0  0  0  0  0  0
  182.9310  178.3400  136.0630 C   0  0  0  0  0  2  0  0  0  0  0  0
  182.1900  177.0990  136.1460 N   0  0  0  0  0  2  0  0  0  0  0  0
  180.7470  177.3920  136.0280 C   0  0  1  0  0  3  0  0  0  0  0  0
  180.1530  176.6890  134.9520 O   0  0  0  0  0  1  0  0  0  0  0  0
  179.8110  178.5610  138.1230 C   0  0  0  0  0  2  0  0  0  0  0  0
  180.0620  177.2100  137.4100 C   0  0  2  0  0  3  0  0  0  0  0  0
  180.6620  176.2200  139.6940 C   0  0  0  0  0  2  0  0  0  0  0  0
  180.6970  177.6160  140.3090 C   0  0  2  0  0  3  0  0  0  0  0  0
  181.0160  176.2910  138.2060 C   0  0  0  0  0  2  0  0  0  0  0  0
  179.5830  178.4060  139.6090 C   0  0  0  0  0  2  0  0  0  0  0  0
  181.8020  179.5680  140.3810 C   0  0  0  0  0  1  0  0  0  0  0  0
  181.9530  178.1960  140.1290 O   0  0  0  0  0  0  0  0  0  0  0  0
  186.4820  178.7240  141.9990 C   0  0  0  0  0  0  0  0  0  0  0  0
  186.0860  179.4410  141.0830 O   0  0  0  0  0  0  0  0  0  0  0  0
  185.5300  177.9980  142.8970 C   0  0  0  0  0  2  0  0  0  0  0  0
  185.0260  178.7190  144.1020 C   0  0  0  0  0  0  0  0  0  0  0  0
  184.7470  179.9960  144.0180 C   0  0  0  0  0  2  0  0  0  0  0  0
  185.5140  178.2120  145.3620 N   0  0  0  0  0  2  0  0  0  0  0  0
  186.8540  177.8160  145.5750 N   0  0  0  0  0  2  0  0  0  0  0  0
  189.8380  177.0260  145.6880 C   0  0  0  0  0  2  0  0  0  0  0  0
  191.8770  177.5430  144.3580 C   0  0  0  0  0  1  0  0  0  0  0  0
  188.3650  179.3610  147.2180 S   0  0  0  0  0  0  0  0  0  0  0  0
  187.1510  178.0360  146.9990 C   0  0  2  0  0  3  0  0  0  0  0  0
  188.0130  176.9250  147.5740 C   0  0  1  0  0  0  0  0  0  0  0  0
  192.0500  176.9570  146.6860 O   0  0  0  0  0  0  0  0  0  0  0  0
  191.7860  175.8800  147.5760 C   0  0  0  0  0  2  0  0  0  0  0  0
  187.5070  176.2310  148.8350 C   0  0  0  0  0  1  0  0  0  0  0  0
  189.4520  176.7250  147.1350 C   0  0  1  0  0  0  0  0  0  0  0  0
  190.2840  175.6960  147.8670 C   0  0  0  0  0  2  0  0  0  0  0  0
  191.3190  176.6920  145.4910 C   0  0  1  0  0  3  0  0  0  0  0  0
  189.1260  177.9080  148.0060 C   0  0  1  0  0  3  0  0  0  0  0  0
  2 50  1  6  0  0  0
  2  1  1  0  0  0  0
  3 10  2  0  0  0  0
  5  1  1  0  0  0  0
  6  3  2  0  0  0  0
  7  9  1  0  0  0  0
  7 11  1  0  0  0  0
  7  6  1  0  0  0  0
  8  2  1  0  0  0  0
  9  4  1  6  0  0  0
  9  6  1  0  0  0  0
 10  8  1  0  0  0  0
 10  5  1  0  0  0  0
 11 12  1  1  0  0  0
 11 14  1  0  0  0  0
 13 11  1  0  0  0  0
 13 14  1  1  0  0  0
 16 29  1  0  0  0  0
 17 16  1  6  0  0  0
 17 24  1  0  0  0  0
 17 30  1  0  0  0  0
 18 25  1  0  0  0  0
 19 21  1  0  0  0  0
 19 16  1  0  0  0  0
 20 24  1  0  0  0  0
 20 13  1  0  0  0  0
 20 15  1  1  0  0  0
 22 18  1  1  0  0  0
 22 27  1  0  0  0  0
 23 28  1  0  0  0  0
 24 15  1  6  0  0  0
 24 30  1  0  0  0  0
 25 28  1  0  0  0  0
 26 19  2  0  0  0  0
 27 23  1  6  0  0  0
 29 22  1  0  0  0  0
 30 27  1  0  0  0  0
 31 29  2  0  0  0  0
 32 36  1  0  0  0  0
 32 34  1  0  0  0  0
 33 32  1  0  0  0  0
 33 34  1  0  0  0  0
 34  9  1  0  0  0  0
 36 37  1  0  0  0  0
 37 35  2  0  0  0  0
 38 39  1  0  0  0  0
 38 37  1  0  0  0  0
 40 39  1  0  0  0  0
 40 43  1  0  0  0  0
 41 40  1  0  0  0  0
 42 47  1  0  0  0  0
 43 42  1  0  0  0  0
 43 46  1  0  0  0  0
 44 45  1  0  0  0  0
 46 44  1  0  0  0  0
 47 45  1  0  0  0  0
 49 45  1  0  0  0  0
 49 48  1  0  0  0  0
 50 52  1  0  0  0  0
 51 50  2  0  0  0  0
 52 53  1  0  0  0  0
 53 55  1  0  0  0  0
 54 53  2  0  0  0  0
 55 56  1  0  0  0  0
 56 60  1  0  0  0  0
 57 65  1  0  0  0  0
 58 67  1  0  0  0  0
 59 68  1  0  0  0  0
 60 59  1  0  0  0  0
 60 61  1  0  0  0  0
 61 68  1  0  0  0  0
 61 64  1  0  0  0  0
 62 63  1  0  0  0  0
 63 66  1  0  0  0  0
 65 61  1  0  0  0  0
 65 66  1  0  0  0  0
 65 68  1  0  0  0  0
 67 57  1  0  0  0  0
 67 62  1  0  0  0  0
M  END
>  <MODEL>
9

>  <REMARK>
 VINA RESULT:      -1.5      3.513     10.083
  Name = 
  15 active torsions:
  status: ('A' for Active; 'I' for Inactive)
    1  A    between atoms: C_7  and  N_29
    2  A    between atoms: C_8  and  C_12
    3  A    between atoms: C_8  and  N_38
    4  A    between atoms: C_9  and  C_17
    5  A    between atoms: C_16  and  N_39
    6  A    between atoms: C_17  and  C_47
    7  A    between atoms: N_22  and  C_28
    8  A    between atoms: O_23  and  C_57
    9  A    between atoms: C_30  and  N_36
   10  A    between atoms: C_30  and  C_47
   11  A    between atoms: N_31  and  C_35
   12  A    between atoms: N_31  and  N_36
   13  A    between atoms: N_38  and  C_50
   14  A    between atoms: C_43  and  C_64
   15  A    between atoms: C_50  and  C_51
                            x       y       z     vdW  Elec       q    Type
                         _______ _______ _______ _____ _____    ______ ____

>  <TORSDO>
F 15

$$$$
