=
 OpenBabel10222419453D

 33 37  0  0  1  0  0  0  0  0999 V2000
  189.8580  176.9900  140.8890 C   0  0  2  0  0  3  0  0  0  0  0  0
  188.6320  177.8230  137.2450 C   0  0  0  0  0  3  0  0  0  0  0  0
  185.2870  178.7140  138.5090 N   0  0  0  0  0  0  0  0  0  0  0  0
  187.5070  178.3400  139.2670 C   0  0  0  0  0  0  0  0  0  0  0  0
  184.8930  178.9690  139.7890 C   0  0  0  0  0  3  0  0  0  0  0  0
  188.6560  177.1470  141.8170 C   0  0  0  0  0  2  0  0  0  0  0  0
  187.1580  178.1150  136.9390 C   0  0  0  0  0  3  0  0  0  0  0  0
  189.4300  176.7300  139.4220 C   0  0  1  0  0  3  0  0  0  0  0  0
  186.5830  178.4030  138.2630 C   0  0  0  0  0  0  0  0  0  0  0  0
  188.8660  178.0080  138.7640 C   0  0  1  0  0  3  0  0  0  0  0  0
  187.1040  178.6070  140.5760 C   0  0  0  0  0  0  0  0  0  0  0  0
  188.0660  178.5420  141.7110 C   0  0  0  0  0  2  0  0  0  0  0  0
  185.7980  178.9140  140.8100 N   0  0  0  0  0  0  0  0  0  0  0  0
  191.8020  177.0630  138.5990 C   0  0  0  0  0  2  0  0  0  0  0  0
  191.4080  174.1550  136.0930 C   0  0  2  0  0  0  0  0  0  0  0  0
  193.0750  174.4820  137.9550 O   0  0  0  0  0  0  0  0  0  0  0  0
  192.1890  172.8650  136.3420 C   0  0  0  0  0  2  0  0  0  0  0  0
  190.5750  176.1520  138.5670 C   0  0  2  0  0  3  0  0  0  0  0  0
  193.8690  174.4770  135.6750 O   0  0  0  0  0  1  0  0  0  0  0  0
  192.8440  174.2120  136.5900 C   0  0  1  0  0  0  0  0  0  0  0  0
  190.3080  174.4960  137.1070 C   0  0  1  0  0  3  0  0  0  0  0  0
  190.1670  175.8810  137.2520 O   0  0  0  0  0  0  0  0  0  0  0  0
  192.6840  176.7420  137.5610 O   0  0  0  0  0  0  0  0  0  0  0  0
  193.5830  175.7940  138.0750 C   0  0  0  0  0  2  0  0  0  0  0  0
  187.9340  174.6810  135.5500 S   0  0  0  0  0  1  0  0  0  0  0  0
  188.9920  173.8760  136.7450 C   0  0  0  0  0  0  0  0  0  0  0  0
  188.6460  172.8160  137.2420 O   0  0  0  0  0  0  0  0  0  0  0  0
  191.2700  174.5700  134.7580 O   0  0  0  0  0  0  0  0  0  0  0  0
  191.2980  175.8890  134.7830 O   0  0  0  0  0  1  0  0  0  0  0  0
  190.6530  175.9480  141.3760 O   0  0  0  0  0  0  0  0  0  0  0  0
  190.3260  175.8460  142.7310 C   0  0  0  0  0  2  0  0  0  0  0  0
  191.2660  176.7190  144.8640 C   0  0  0  0  0  1  0  0  0  0  0  0
  191.5770  175.9750  143.5800 C   0  0  0  0  0  2  0  0  0  0  0  0
  1 30  1  1  0  0  0
  1  6  1  0  0  0  0
  3  5  1  0  0  0  0
  4 11  2  0  0  0  0
  5 13  2  0  0  0  0
  7  2  2  0  0  0  0
  7  9  1  0  0  0  0
  8 18  1  6  0  0  0
  8  1  1  0  0  0  0
  9  3  2  0  0  0  0
  9  4  1  0  0  0  0
 10  2  1  6  0  0  0
 10  4  1  0  0  0  0
 10  8  1  0  0  0  0
 11 13  1  0  0  0  0
 11 12  1  0  0  0  0
 12  6  1  0  0  0  0
 15 28  1  6  0  0  0
 15 17  1  0  0  0  0
 15 20  1  0  0  0  0
 15 21  1  0  0  0  0
 16 24  1  0  0  0  0
 17 20  1  0  0  0  0
 18 14  1  6  0  0  0
 20 19  1  6  0  0  0
 20 16  1  0  0  0  0
 21 26  1  6  0  0  0
 21 22  1  0  0  0  0
 22 18  1  0  0  0  0
 23 24  1  0  0  0  0
 23 14  1  0  0  0  0
 25 26  1  0  0  0  0
 26 27  2  0  0  0  0
 28 29  1  0  0  0  0
 30 31  1  0  0  0  0
 31 33  1  0  0  0  0
 33 32  1  0  0  0  0
M  END
>  <MODEL>
1

>  <REMARK>
 VINA RESULT:      -6.5      0.000      0.000
  Name = 
  6 active torsions:
  status: ('A' for Active; 'I' for Inactive)
    1  A    between atoms: C_2  and  O_6
    2  A    between atoms: C_3  and  O_12
    3  A    between atoms: O_12  and  C_27
    4  A    between atoms: C_13  and  C_19
    5  A    between atoms: C_18  and  C_28
    6  A    between atoms: C_27  and  C_29
                            x       y       z     vdW  Elec       q    Type
                         _______ _______ _______ _____ _____    ______ ____

>  <TORSDO>
F 6

$$$$
=
 OpenBabel10222419453D

 33 37  0  0  1  0  0  0  0  0999 V2000
  184.5670  178.5620  140.2070 C   0  0  2  0  0  3  0  0  0  0  0  0
  181.3350  178.8730  142.4270 C   0  0  0  0  0  3  0  0  0  0  0  0
  183.3580  178.7070  145.5030 N   0  0  0  0  0  0  0  0  0  0  0  0
  183.5790  179.0660  143.1660 C   0  0  0  0  0  0  0  0  0  0  0  0
  184.7040  178.8600  145.6540 C   0  0  0  0  0  3  0  0  0  0  0  0
  185.7480  178.3600  141.1540 C   0  0  0  0  0  2  0  0  0  0  0  0
  181.3810  178.6810  143.9480 C   0  0  0  0  0  3  0  0  0  0  0  0
  183.2230  178.1420  140.8560 C   0  0  1  0  0  3  0  0  0  0  0  0
  182.8120  178.8100  144.2660 C   0  0  0  0  0  0  0  0  0  0  0  0
  182.7690  179.1620  141.9230 C   0  0  1  0  0  3  0  0  0  0  0  0
  184.9570  179.2280  143.3210 C   0  0  0  0  0  0  0  0  0  0  0  0
  185.8420  179.4980  142.1550 C   0  0  0  0  0  2  0  0  0  0  0  0
  185.4920  179.1170  144.5690 N   0  0  0  0  0  0  0  0  0  0  0  0
  181.8660  176.4410  139.5590 C   0  0  0  0  0  2  0  0  0  0  0  0
  180.4100  179.2220  137.3130 C   0  0  2  0  0  0  0  0  0  0  0  0
  179.2420  177.5420  138.7850 O   0  0  0  0  0  0  0  0  0  0  0  0
  178.9310  179.5770  137.4570 C   0  0  0  0  0  2  0  0  0  0  0  0
  182.1060  177.9290  139.8140 C   0  0  2  0  0  3  0  0  0  0  0  0
  178.9370  177.4000  136.3950 O   0  0  0  0  0  1  0  0  0  0  0  0
  179.3740  178.1250  137.5090 C   0  0  1  0  0  0  0  0  0  0  0  0
  181.3120  179.5470  138.5120 C   0  0  1  0  0  3  0  0  0  0  0  0
  182.3580  178.6240  138.6220 O   0  0  0  0  0  0  0  0  0  0  0  0
  181.1360  176.2530  138.3800 O   0  0  0  0  0  0  0  0  0  0  0  0
  179.7800  176.2380  138.7430 C   0  0  0  0  0  2  0  0  0  0  0  0
  180.7760  182.2930  137.9970 S   0  0  0  0  0  1  0  0  0  0  0  0
  181.8550  180.9420  138.4500 C   0  0  0  0  0  0  0  0  0  0  0  0
  183.0230  181.1680  138.7290 O   0  0  0  0  0  0  0  0  0  0  0  0
  180.9500  179.2450  136.0160 O   0  0  0  0  0  0  0  0  0  0  0  0
  181.8520  178.2830  135.9810 O   0  0  0  0  0  1  0  0  0  0  0  0
  184.8140  177.8330  139.0380 O   0  0  0  0  0  0  0  0  0  0  0  0
  186.0490  178.2970  138.5770 C   0  0  0  0  0  2  0  0  0  0  0  0
  185.0940  177.0800  136.6280 C   0  0  0  0  0  1  0  0  0  0  0  0
  186.3380  177.7290  137.2000 C   0  0  0  0  0  2  0  0  0  0  0  0
  1 30  1  6  0  0  0
  1  8  1  0  0  0  0
  1  6  1  0  0  0  0
  2  7  2  0  0  0  0
  3  5  1  0  0  0  0
  4 11  2  0  0  0  0
  4  9  1  0  0  0  0
  6 12  1  0  0  0  0
  7  9  1  0  0  0  0
  8 18  1  6  0  0  0
  8 10  1  0  0  0  0
  9  3  2  0  0  0  0
 10  2  1  1  0  0  0
 10  4  1  0  0  0  0
 11 13  1  0  0  0  0
 12 11  1  0  0  0  0
 13  5  2  0  0  0  0
 15 28  1  6  0  0  0
 15 17  1  0  0  0  0
 15 20  1  0  0  0  0
 15 21  1  0  0  0  0
 17 20  1  0  0  0  0
 18 14  1  6  0  0  0
 20 19  1  6  0  0  0
 20 16  1  0  0  0  0
 21 26  1  6  0  0  0
 21 22  1  0  0  0  0
 22 18  1  0  0  0  0
 23 24  1  0  0  0  0
 23 14  1  0  0  0  0
 24 16  1  0  0  0  0
 25 26  1  0  0  0  0
 26 27  2  0  0  0  0
 29 28  1  0  0  0  0
 31 30  1  0  0  0  0
 32 33  1  0  0  0  0
 33 31  1  0  0  0  0
M  END
>  <MODEL>
2

>  <REMARK>
 VINA RESULT:      -6.0      5.969      9.520
  Name = 
  6 active torsions:
  status: ('A' for Active; 'I' for Inactive)
    1  A    between atoms: C_2  and  O_6
    2  A    between atoms: C_3  and  O_12
    3  A    between atoms: O_12  and  C_27
    4  A    between atoms: C_13  and  C_19
    5  A    between atoms: C_18  and  C_28
    6  A    between atoms: C_27  and  C_29
                            x       y       z     vdW  Elec       q    Type
                         _______ _______ _______ _____ _____    ______ ____

>  <TORSDO>
F 6

$$$$
=
 OpenBabel10222419453D

 33 37  0  0  1  0  0  0  0  0999 V2000
  185.0970  178.6760  140.8070 C   0  0  2  0  0  3  0  0  0  0  0  0
  185.4570  177.9620  136.9550 C   0  0  0  0  0  3  0  0  0  0  0  0
  189.1210  178.2940  137.1740 N   0  0  0  0  0  0  0  0  0  0  0  0
  187.2080  178.0070  138.5530 C   0  0  0  0  0  0  0  0  0  0  0  0
  189.9180  178.2900  138.2800 C   0  0  0  0  0  3  0  0  0  0  0  0
  186.4920  178.9910  141.3400 C   0  0  0  0  0  2  0  0  0  0  0  0
  186.7960  178.1280  136.2270 C   0  0  0  0  0  3  0  0  0  0  0  0
  184.9870  178.9300  139.2810 C   0  0  1  0  0  3  0  0  0  0  0  0
  187.7800  178.1550  137.3220 C   0  0  0  0  0  0  0  0  0  0  0  0
  185.7320  177.8450  138.4730 C   0  0  1  0  0  3  0  0  0  0  0  0
  188.0250  177.9980  139.6840 C   0  0  0  0  0  0  0  0  0  0  0  0
  187.4540  177.8520  141.0510 C   0  0  0  0  0  2  0  0  0  0  0  0
  189.3690  178.1430  139.5210 N   0  0  0  0  0  0  0  0  0  0  0  0
  183.0110  180.4730  138.9120 C   0  0  0  0  0  2  0  0  0  0  0  0
  180.6910  177.4540  138.2820 C   0  0  2  0  0  0  0  0  0  0  0  0
  181.2260  179.4300  136.8100 O   0  0  0  0  0  0  0  0  0  0  0  0
  180.1590  177.2250  136.8690 C   0  0  0  0  0  2  0  0  0  0  0  0
  183.5240  179.0370  138.8050 C   0  0  2  0  0  3  0  0  0  0  0  0
  178.9770  179.1880  137.6550 O   0  0  0  0  0  1  0  0  0  0  0  0
  180.2420  178.6330  137.4320 C   0  0  1  0  0  0  0  0  0  0  0  0
  182.2020  177.2780  138.4820 C   0  0  1  0  0  3  0  0  0  0  0  0
  182.6840  178.1370  139.4770 O   0  0  0  0  0  0  0  0  0  0  0  0
  181.6140  180.5070  138.8360 O   0  0  0  0  0  0  0  0  0  0  0  0
  181.2890  180.6710  137.4800 C   0  0  0  0  0  2  0  0  0  0  0  0
  183.3000  174.8320  137.5310 S   0  0  0  0  0  1  0  0  0  0  0  0
  182.5700  175.8600  138.7980 C   0  0  0  0  0  0  0  0  0  0  0  0
  182.3980  175.4070  139.9190 O   0  0  0  0  0  0  0  0  0  0  0  0
  179.8160  177.1780  139.3470 O   0  0  0  0  0  0  0  0  0  0  0  0
  180.1380  178.0220  140.3090 O   0  0  0  0  0  1  0  0  0  0  0  0
  184.1730  179.4510  141.5160 O   0  0  0  0  0  0  0  0  0  0  0  0
  183.7980  178.6590  142.6050 C   0  0  0  0  0  2  0  0  0  0  0  0
  184.9240  179.0170  144.7950 C   0  0  0  0  0  1  0  0  0  0  0  0
  183.8120  179.4840  143.8790 C   0  0  0  0  0  2  0  0  0  0  0  0
  1  6  1  0  0  0  0
  1 30  1  1  0  0  0
  3  9  2  0  0  0  0
  3  5  1  0  0  0  0
  4 11  2  0  0  0  0
  5 13  2  0  0  0  0
  7  2  2  0  0  0  0
  7  9  1  0  0  0  0
  8 18  1  6  0  0  0
  8  1  1  0  0  0  0
  9  4  1  0  0  0  0
 10  2  1  6  0  0  0
 10  4  1  0  0  0  0
 10  8  1  0  0  0  0
 11 12  1  0  0  0  0
 12  6  1  0  0  0  0
 13 11  1  0  0  0  0
 15 21  1  0  0  0  0
 15 28  1  1  0  0  0
 16 20  1  0  0  0  0
 16 24  1  0  0  0  0
 17 20  1  0  0  0  0
 17 15  1  0  0  0  0
 18 14  1  1  0  0  0
 18 22  1  0  0  0  0
 20 19  1  1  0  0  0
 20 15  1  0  0  0  0
 21 26  1  1  0  0  0
 21 22  1  0  0  0  0
 23 14  1  0  0  0  0
 24 23  1  0  0  0  0
 25 26  1  0  0  0  0
 26 27  2  0  0  0  0
 28 29  1  0  0  0  0
 30 31  1  0  0  0  0
 31 33  1  0  0  0  0
 33 32  1  0  0  0  0
M  END
>  <MODEL>
3

>  <REMARK>
 VINA RESULT:      -5.8      5.634      8.357
  Name = 
  6 active torsions:
  status: ('A' for Active; 'I' for Inactive)
    1  A    between atoms: C_2  and  O_6
    2  A    between atoms: C_3  and  O_12
    3  A    between atoms: O_12  and  C_27
    4  A    between atoms: C_13  and  C_19
    5  A    between atoms: C_18  and  C_28
    6  A    between atoms: C_27  and  C_29
                            x       y       z     vdW  Elec       q    Type
                         _______ _______ _______ _____ _____    ______ ____

>  <TORSDO>
F 6

$$$$
=
 OpenBabel10222419453D

 33 37  0  0  1  0  0  0  0  0999 V2000
  189.2980  176.7490  142.0750 C   0  0  2  0  0  3  0  0  0  0  0  0
  187.3660  178.4760  139.1140 C   0  0  0  0  0  3  0  0  0  0  0  0
  184.3350  178.7790  141.1890 N   0  0  0  0  0  0  0  0  0  0  0  0
  186.6640  178.3480  141.3750 C   0  0  0  0  0  0  0  0  0  0  0  0
  184.2030  178.6480  142.5390 C   0  0  0  0  0  3  0  0  0  0  0  0
  188.3040  176.5720  143.2200 C   0  0  0  0  0  2  0  0  0  0  0  0
  185.8590  178.7510  139.1880 C   0  0  0  0  0  3  0  0  0  0  0  0
  188.5870  176.8770  140.7020 C   0  0  1  0  0  3  0  0  0  0  0  0
  185.5580  178.6270  140.6240 C   0  0  0  0  0  0  0  0  0  0  0  0
  187.8970  178.2500  140.5500 C   0  0  1  0  0  3  0  0  0  0  0  0
  186.5280  178.2180  142.7580 C   0  0  0  0  0  0  0  0  0  0  0  0
  187.6980  177.9030  143.6250 C   0  0  0  0  0  2  0  0  0  0  0  0
  185.2930  178.3700  143.3120 N   0  0  0  0  0  0  0  0  0  0  0  0
  190.8310  177.4350  139.6690 C   0  0  0  0  0  2  0  0  0  0  0  0
  189.8330  175.6590  136.3910 C   0  0  2  0  0  0  0  0  0  0  0  0
  191.7790  175.2420  137.9390 O   0  0  0  0  0  0  0  0  0  0  0  0
  190.5340  174.3510  136.0270 C   0  0  0  0  0  2  0  0  0  0  0  0
  189.5420  176.6270  139.5180 C   0  0  2  0  0  3  0  0  0  0  0  0
  192.2240  176.0560  135.7110 O   0  0  0  0  0  1  0  0  0  0  0  0
  191.3270  175.4970  136.6280 C   0  0  1  0  0  0  0  0  0  0  0  0
  188.9270  175.6290  137.6290 C   0  0  1  0  0  3  0  0  0  0  0  0
  188.9240  176.8660  138.2820 O   0  0  0  0  0  0  0  0  0  0  0  0
  191.5210  177.4970  138.4530 O   0  0  0  0  0  0  0  0  0  0  0  0
  192.4050  176.4070  138.4340 C   0  0  0  0  0  2  0  0  0  0  0  0
  187.1100  173.4770  137.2220 S   0  0  0  0  0  1  0  0  0  0  0  0
  187.5260  175.2150  137.2950 C   0  0  0  0  0  0  0  0  0  0  0  0
  186.6600  176.0520  137.0950 O   0  0  0  0  0  0  0  0  0  0  0  0
  189.5350  176.5380  135.3370 O   0  0  0  0  0  0  0  0  0  0  0  0
  189.4490  177.7380  135.8780 O   0  0  0  0  0  1  0  0  0  0  0  0
  190.1790  175.6630  142.0880 O   0  0  0  0  0  0  0  0  0  0  0  0
  190.6980  175.6350  143.3860 C   0  0  0  0  0  2  0  0  0  0  0  0
  191.6070  177.2880  145.0080 C   0  0  0  0  0  1  0  0  0  0  0  0
  191.6740  176.7800  143.5820 C   0  0  0  0  0  2  0  0  0  0  0  0
  1 30  1  6  0  0  0
  1  6  1  0  0  0  0
  2  7  2  0  0  0  0
  3  5  1  0  0  0  0
  4 11  2  0  0  0  0
  5 13  2  0  0  0  0
  6 12  1  0  0  0  0
  7  9  1  0  0  0  0
  8 18  1  6  0  0  0
  8  1  1  0  0  0  0
  9  3  2  0  0  0  0
  9  4  1  0  0  0  0
 10  2  1  6  0  0  0
 10  8  1  0  0  0  0
 10  4  1  0  0  0  0
 11 13  1  0  0  0  0
 11 12  1  0  0  0  0
 15 28  1  6  0  0  0
 15 20  1  0  0  0  0
 15 21  1  0  0  0  0
 16 24  1  0  0  0  0
 17 15  1  0  0  0  0
 17 20  1  0  0  0  0
 18 14  1  1  0  0  0
 20 19  1  6  0  0  0
 20 16  1  0  0  0  0
 21 26  1  6  0  0  0
 21 22  1  0  0  0  0
 22 18  1  0  0  0  0
 23 14  1  0  0  0  0
 24 23  1  0  0  0  0
 25 26  1  0  0  0  0
 27 26  2  0  0  0  0
 28 29  1  0  0  0  0
 30 31  1  0  0  0  0
 31 33  1  0  0  0  0
 33 32  1  0  0  0  0
M  END
>  <MODEL>
4

>  <REMARK>
 VINA RESULT:      -5.8      1.657      2.107
  Name = 
  6 active torsions:
  status: ('A' for Active; 'I' for Inactive)
    1  A    between atoms: C_2  and  O_6
    2  A    between atoms: C_3  and  O_12
    3  A    between atoms: O_12  and  C_27
    4  A    between atoms: C_13  and  C_19
    5  A    between atoms: C_18  and  C_28
    6  A    between atoms: C_27  and  C_29
                            x       y       z     vdW  Elec       q    Type
                         _______ _______ _______ _____ _____    ______ ____

>  <TORSDO>
F 6

$$$$
=
 OpenBabel10222419453D

 33 37  0  0  1  0  0  0  0  0999 V2000
  186.5750  178.4940  138.4620 C   0  0  2  0  0  3  0  0  0  0  0  0
  184.5530  178.8380  141.8190 C   0  0  0  0  0  3  0  0  0  0  0  0
  187.3950  177.4920  143.7400 N   0  0  0  0  0  0  0  0  0  0  0  0
  186.8720  178.3950  141.6070 C   0  0  0  0  0  0  0  0  0  0  0  0
  188.6930  177.3370  143.3560 C   0  0  0  0  0  3  0  0  0  0  0  0
  187.9060  177.8290  138.8040 C   0  0  0  0  0  2  0  0  0  0  0  0
  185.0750  178.2540  143.1380 C   0  0  0  0  0  3  0  0  0  0  0  0
  185.4840  178.1890  139.5220 C   0  0  1  0  0  3  0  0  0  0  0  0
  186.5020  178.0150  142.8650 C   0  0  0  0  0  0  0  0  0  0  0  0
  185.7380  178.9650  140.8330 C   0  0  1  0  0  3  0  0  0  0  0  0
  188.2030  178.2410  141.2160 C   0  0  0  0  0  0  0  0  0  0  0  0
  188.6590  178.6270  139.8520 C   0  0  0  0  0  2  0  0  0  0  0  0
  189.0880  177.7090  142.1040 N   0  0  0  0  0  0  0  0  0  0  0  0
  183.4520  179.6920  139.6950 C   0  0  0  0  0  2  0  0  0  0  0  0
  181.3840  177.2500  137.5370 C   0  0  2  0  0  0  0  0  0  0  0  0
  181.9110  179.6900  137.1810 O   0  0  0  0  0  0  0  0  0  0  0  0
  180.9840  177.6820  136.1270 C   0  0  0  0  0  2  0  0  0  0  0  0
  184.0610  178.4730  139.0020 C   0  0  2  0  0  3  0  0  0  0  0  0
  179.6220  179.0470  137.5930 O   0  0  0  0  0  1  0  0  0  0  0  0
  180.9330  178.6790  137.2720 C   0  0  1  0  0  0  0  0  0  0  0  0
  182.8830  177.0310  137.7860 C   0  0  1  0  0  3  0  0  0  0  0  0
  183.2270  177.3500  139.1040 O   0  0  0  0  0  0  0  0  0  0  0  0
  182.0670  179.7300  139.5020 O   0  0  0  0  0  0  0  0  0  0  0  0
  181.8430  180.4890  138.3420 C   0  0  0  0  0  2  0  0  0  0  0  0
  183.7010  175.1960  135.7710 S   0  0  0  0  0  1  0  0  0  0  0  0
  183.3120  175.6330  137.4610 C   0  0  0  0  0  0  0  0  0  0  0  0
  183.4210  174.7940  138.3430 O   0  0  0  0  0  0  0  0  0  0  0  0
  180.4450  176.5020  138.2670 O   0  0  0  0  0  0  0  0  0  0  0  0
  180.6380  176.8150  139.5340 O   0  0  0  0  0  1  0  0  0  0  0  0
  186.1810  178.0600  137.1920 O   0  0  0  0  0  0  0  0  0  0  0  0
  186.9390  176.9100  136.9520 C   0  0  0  0  0  2  0  0  0  0  0  0
  186.5410  177.8780  134.6940 C   0  0  0  0  0  1  0  0  0  0  0  0
  187.2670  176.8010  135.4750 C   0  0  0  0  0  2  0  0  0  0  0  0
  1 30  1  6  0  0  0
  1  6  1  0  0  0  0
  1  8  1  0  0  0  0
  2  7  2  0  0  0  0
  4  9  1  0  0  0  0
  5  3  1  0  0  0  0
  6 12  1  0  0  0  0
  8 18  1  6  0  0  0
  8 10  1  0  0  0  0
  9  7  1  0  0  0  0
  9  3  2  0  0  0  0
 10  4  1  0  0  0  0
 10  2  1  1  0  0  0
 11  4  2  0  0  0  0
 11 13  1  0  0  0  0
 12 11  1  0  0  0  0
 13  5  2  0  0  0  0
 15 21  1  0  0  0  0
 15 28  1  1  0  0  0
 16 20  1  0  0  0  0
 16 24  1  0  0  0  0
 17 20  1  0  0  0  0
 17 15  1  0  0  0  0
 18 22  1  0  0  0  0
 18 14  1  1  0  0  0
 20 15  1  0  0  0  0
 20 19  1  1  0  0  0
 21 26  1  1  0  0  0
 21 22  1  0  0  0  0
 23 14  1  0  0  0  0
 24 23  1  0  0  0  0
 25 26  1  0  0  0  0
 26 27  2  0  0  0  0
 28 29  1  0  0  0  0
 31 30  1  0  0  0  0
 32 33  1  0  0  0  0
 33 31  1  0  0  0  0
M  END
>  <MODEL>
5

>  <REMARK>
 VINA RESULT:      -5.6      4.825      8.239
  Name = 
  6 active torsions:
  status: ('A' for Active; 'I' for Inactive)
    1  A    between atoms: C_2  and  O_6
    2  A    between atoms: C_3  and  O_12
    3  A    between atoms: O_12  and  C_27
    4  A    between atoms: C_13  and  C_19
    5  A    between atoms: C_18  and  C_28
    6  A    between atoms: C_27  and  C_29
                            x       y       z     vdW  Elec       q    Type
                         _______ _______ _______ _____ _____    ______ ____

>  <TORSDO>
F 6

$$$$
=
 OpenBabel10222419453D

 33 37  0  0  1  0  0  0  0  0999 V2000
  191.1100  177.4580  139.9810 C   0  0  2  0  0  3  0  0  0  0  0  0
  187.3960  178.2080  141.0380 C   0  0  0  0  0  3  0  0  0  0  0  0
  188.1390  177.2880  144.5280 N   0  0  0  0  0  0  0  0  0  0  0  0
  189.2320  177.8400  142.4930 C   0  0  0  0  0  0  0  0  0  0  0  0
  189.3500  177.1350  145.1360 C   0  0  0  0  0  3  0  0  0  0  0  0
  191.8280  176.9100  141.2120 C   0  0  0  0  0  2  0  0  0  0  0  0
  186.8670  177.8500  142.4320 C   0  0  0  0  0  3  0  0  0  0  0  0
  189.5740  177.2660  140.0700 C   0  0  1  0  0  3  0  0  0  0  0  0
  188.0930  177.6360  143.2190 C   0  0  0  0  0  0  0  0  0  0  0  0
  188.9420  178.2390  141.0900 C   0  0  1  0  0  3  0  0  0  0  0  0
  190.4710  177.6880  143.1170 C   0  0  0  0  0  0  0  0  0  0  0  0
  191.7440  177.8870  142.3700 C   0  0  0  0  0  2  0  0  0  0  0  0
  190.5020  177.3340  144.4320 N   0  0  0  0  0  0  0  0  0  0  0  0
  187.9470  178.6160  138.6750 C   0  0  0  0  0  2  0  0  0  0  0  0
  187.9350  175.8930  135.9400 C   0  0  2  0  0  0  0  0  0  0  0  0
  188.5300  178.3390  135.7980 O   0  0  0  0  0  0  0  0  0  0  0  0
  188.5950  176.2040  134.5980 C   0  0  0  0  0  2  0  0  0  0  0  0
  188.8820  177.4070  138.7000 C   0  0  2  0  0  3  0  0  0  0  0  0
  186.5810  177.5490  134.6130 O   0  0  0  0  0  1  0  0  0  0  0  0
  187.7650  177.2640  135.3010 C   0  0  1  0  0  0  0  0  0  0  0  0
  188.8660  175.8060  137.1570 C   0  0  1  0  0  3  0  0  0  0  0  0
  188.2170  176.2320  138.3210 O   0  0  0  0  0  0  0  0  0  0  0  0
  187.0630  178.5360  137.5940 O   0  0  0  0  0  0  0  0  0  0  0  0
  187.6780  179.2020  136.5210 C   0  0  0  0  0  2  0  0  0  0  0  0
  188.4590  173.0080  136.8380 S   0  0  0  0  0  1  0  0  0  0  0  0
  189.4210  174.4270  137.3480 C   0  0  0  0  0  0  0  0  0  0  0  0
  190.5320  174.2630  137.8260 O   0  0  0  0  0  0  0  0  0  0  0  0
  186.7610  175.1230  135.9110 O   0  0  0  0  0  0  0  0  0  0  0  0
  185.9760  175.6200  136.8480 O   0  0  0  0  0  1  0  0  0  0  0  0
  191.6340  176.8230  138.8500 O   0  0  0  0  0  0  0  0  0  0  0  0
  193.0170  176.8070  139.0520 C   0  0  0  0  0  2  0  0  0  0  0  0
  193.5410  176.1830  136.7010 C   0  0  0  0  0  1  0  0  0  0  0  0
  193.6630  175.7690  138.1540 C   0  0  0  0  0  2  0  0  0  0  0  0
  1 30  1  6  0  0  0
  1  8  1  0  0  0  0
  1  6  1  0  0  0  0
  2  7  2  0  0  0  0
  3  5  1  0  0  0  0
  4 11  2  0  0  0  0
  4  9  1  0  0  0  0
  6 12  1  0  0  0  0
  7  9  1  0  0  0  0
  8 18  1  6  0  0  0
  8 10  1  0  0  0  0
  9  3  2  0  0  0  0
 10  2  1  1  0  0  0
 10  4  1  0  0  0  0
 11 13  1  0  0  0  0
 12 11  1  0  0  0  0
 13  5  2  0  0  0  0
 15 28  1  6  0  0  0
 15 21  1  0  0  0  0
 16 24  1  0  0  0  0
 17 20  1  0  0  0  0
 17 15  1  0  0  0  0
 18 14  1  1  0  0  0
 20 19  1  6  0  0  0
 20 16  1  0  0  0  0
 20 15  1  0  0  0  0
 21 26  1  1  0  0  0
 21 22  1  0  0  0  0
 22 18  1  0  0  0  0
 23 14  1  0  0  0  0
 24 23  1  0  0  0  0
 25 26  1  0  0  0  0
 26 27  2  0  0  0  0
 28 29  1  0  0  0  0
 30 31  1  0  0  0  0
 32 33  1  0  0  0  0
 33 31  1  0  0  0  0
M  END
>  <MODEL>
6

>  <REMARK>
 VINA RESULT:      -5.6      2.520      4.846
  Name = 
  6 active torsions:
  status: ('A' for Active; 'I' for Inactive)
    1  A    between atoms: C_2  and  O_6
    2  A    between atoms: C_3  and  O_12
    3  A    between atoms: O_12  and  C_27
    4  A    between atoms: C_13  and  C_19
    5  A    between atoms: C_18  and  C_28
    6  A    between atoms: C_27  and  C_29
                            x       y       z     vdW  Elec       q    Type
                         _______ _______ _______ _____ _____    ______ ____

>  <TORSDO>
F 6

$$$$
=
 OpenBabel10222419453D

 33 37  0  0  1  0  0  0  0  0999 V2000
  184.5300  178.4750  142.1740 C   0  0  2  0  0  3  0  0  0  0  0  0
  181.4460  178.6760  139.7410 C   0  0  0  0  0  3  0  0  0  0  0  0
  179.1110  178.4580  142.5840 N   0  0  0  0  0  0  0  0  0  0  0  0
  181.3980  178.8830  142.1020 C   0  0  0  0  0  0  0  0  0  0  0  0
  179.3600  178.6280  143.9140 C   0  0  0  0  0  3  0  0  0  0  0  0
  183.9810  178.2650  143.5830 C   0  0  0  0  0  2  0  0  0  0  0  0
  180.0130  178.4440  140.2360 C   0  0  0  0  0  3  0  0  0  0  0  0
  183.5260  178.0160  141.0840 C   0  0  1  0  0  3  0  0  0  0  0  0
  180.1280  178.5860  141.6970 C   0  0  0  0  0  0  0  0  0  0  0  0
  182.3420  179.0000  140.9590 C   0  0  1  0  0  3  0  0  0  0  0  0
  181.6510  179.0620  143.4630 C   0  0  0  0  0  0  0  0  0  0  0  0
  183.0190  179.3770  143.9610 C   0  0  0  0  0  2  0  0  0  0  0  0
  180.6210  178.9260  144.3430 N   0  0  0  0  0  0  0  0  0  0  0  0
  185.0570  179.0200  139.3330 C   0  0  0  0  0  2  0  0  0  0  0  0
  184.1110  176.2440  136.8250 C   0  0  2  0  0  0  0  0  0  0  0  0
  186.3640  176.9160  137.7330 O   0  0  0  0  0  0  0  0  0  0  0  0
  185.1670  175.2030  136.4560 C   0  0  0  0  0  2  0  0  0  0  0  0
  184.1970  177.8140  139.7110 C   0  0  2  0  0  3  0  0  0  0  0  0
  185.9180  177.2410  135.3840 O   0  0  0  0  0  1  0  0  0  0  0  0
  185.5570  176.6630  136.6060 C   0  0  1  0  0  0  0  0  0  0  0  0
  183.6070  176.2230  138.2740 C   0  0  1  0  0  3  0  0  0  0  0  0
  183.2650  177.5090  138.7080 O   0  0  0  0  0  0  0  0  0  0  0  0
  185.3610  179.0030  137.9680 O   0  0  0  0  0  0  0  0  0  0  0  0
  186.5740  178.3090  137.8340 C   0  0  0  0  0  2  0  0  0  0  0  0
  182.1110  174.0450  137.2190 S   0  0  0  0  0  1  0  0  0  0  0  0
  182.4490  175.2890  138.4580 C   0  0  0  0  0  0  0  0  0  0  0  0
  181.7490  175.3540  139.4560 O   0  0  0  0  0  0  0  0  0  0  0  0
  183.2520  176.6730  135.8000 O   0  0  0  0  0  0  0  0  0  0  0  0
  182.8370  177.8750  136.1530 O   0  0  0  0  0  1  0  0  0  0  0  0
  185.7410  177.7820  142.0680 O   0  0  0  0  0  0  0  0  0  0  0  0
  186.3560  177.9370  143.3140 C   0  0  0  0  0  2  0  0  0  0  0  0
  188.1880  177.1320  144.7940 C   0  0  0  0  0  1  0  0  0  0  0  0
  187.5550  177.0140  143.4220 C   0  0  0  0  0  2  0  0  0  0  0  0
  1 30  1  1  0  0  0
  1  6  1  0  0  0  0
  2  7  2  0  0  0  0
  3  5  1  0  0  0  0
  4 11  2  0  0  0  0
  5 13  2  0  0  0  0
  6 12  1  0  0  0  0
  7  9  1  0  0  0  0
  8 18  1  6  0  0  0
  8  1  1  0  0  0  0
  9  4  1  0  0  0  0
  9  3  2  0  0  0  0
 10  2  1  6  0  0  0
 10  8  1  0  0  0  0
 10  4  1  0  0  0  0
 11 12  1  0  0  0  0
 11 13  1  0  0  0  0
 15 28  1  6  0  0  0
 15 21  1  0  0  0  0
 16 24  1  0  0  0  0
 17 20  1  0  0  0  0
 17 15  1  0  0  0  0
 18 14  1  6  0  0  0
 20 19  1  6  0  0  0
 20 15  1  0  0  0  0
 20 16  1  0  0  0  0
 21 26  1  6  0  0  0
 21 22  1  0  0  0  0
 22 18  1  0  0  0  0
 23 14  1  0  0  0  0
 24 23  1  0  0  0  0
 25 26  1  0  0  0  0
 26 27  2  0  0  0  0
 28 29  1  0  0  0  0
 30 31  1  0  0  0  0
 31 33  1  0  0  0  0
 33 32  1  0  0  0  0
M  END
>  <MODEL>
7

>  <REMARK>
 VINA RESULT:      -5.5      4.966      6.850
  Name = 
  6 active torsions:
  status: ('A' for Active; 'I' for Inactive)
    1  A    between atoms: C_2  and  O_6
    2  A    between atoms: C_3  and  O_12
    3  A    between atoms: O_12  and  C_27
    4  A    between atoms: C_13  and  C_19
    5  A    between atoms: C_18  and  C_28
    6  A    between atoms: C_27  and  C_29
                            x       y       z     vdW  Elec       q    Type
                         _______ _______ _______ _____ _____    ______ ____

>  <TORSDO>
F 6

$$$$
=
 OpenBabel10222419453D

 33 37  0  0  1  0  0  0  0  0999 V2000
  184.7430  178.8990  141.4070 C   0  0  2  0  0  3  0  0  0  0  0  0
  187.8490  177.0790  142.9930 C   0  0  0  0  0  3  0  0  0  0  0  0
  186.8190  178.1340  146.3710 N   0  0  0  0  0  0  0  0  0  0  0  0
  185.9770  177.9520  144.1570 C   0  0  0  0  0  0  0  0  0  0  0  0
  185.6190  178.6280  146.7860 C   0  0  0  0  0  3  0  0  0  0  0  0
  184.0150  179.6180  142.5390 C   0  0  0  0  0  2  0  0  0  0  0  0
  188.2130  177.2500  144.4730 C   0  0  0  0  0  3  0  0  0  0  0  0
  186.2320  178.6310  141.7510 C   0  0  1  0  0  3  0  0  0  0  0  0
  186.9850  177.8030  145.0660 C   0  0  0  0  0  0  0  0  0  0  0  0
  186.3740  177.5030  142.7960 C   0  0  1  0  0  3  0  0  0  0  0  0
  184.7470  178.4530  144.5840 C   0  0  0  0  0  0  0  0  0  0  0  0
  183.6170  178.6450  143.6340 C   0  0  0  0  0  2  0  0  0  0  0  0
  184.5950  178.7840  145.8960 N   0  0  0  0  0  0  0  0  0  0  0  0
  188.4460  178.9860  140.5730 C   0  0  0  0  0  2  0  0  0  0  0  0
  187.0620  177.3690  137.3530 C   0  0  2  0  0  0  0  0  0  0  0  0
  189.0570  176.7410  138.7610 O   0  0  0  0  0  0  0  0  0  0  0  0
  187.6060  176.0050  136.9290 C   0  0  0  0  0  2  0  0  0  0  0  0
  187.0770  178.3100  140.5020 C   0  0  2  0  0  3  0  0  0  0  0  0
  189.4300  177.5440  136.5160 O   0  0  0  0  0  1  0  0  0  0  0  0
  188.5460  177.0600  137.4860 C   0  0  1  0  0  0  0  0  0  0  0  0
  186.2420  177.4070  138.6490 C   0  0  1  0  0  3  0  0  0  0  0  0
  186.4040  178.6280  139.3130 O   0  0  0  0  0  0  0  0  0  0  0  0
  189.0560  179.0010  139.3130 O   0  0  0  0  0  0  0  0  0  0  0  0
  189.8250  177.8300  139.2240 C   0  0  0  0  0  2  0  0  0  0  0  0
  184.0790  177.4800  136.8030 S   0  0  0  0  0  1  0  0  0  0  0  0
  184.7880  177.1360  138.4080 C   0  0  0  0  0  0  0  0  0  0  0  0
  184.0890  176.6610  139.2890 O   0  0  0  0  0  0  0  0  0  0  0  0
  186.7820  178.2910  136.3300 O   0  0  0  0  0  0  0  0  0  0  0  0
  187.1810  179.4650  136.7790 O   0  0  0  0  0  1  0  0  0  0  0  0
  184.6250  179.6740  140.2480 O   0  0  0  0  0  0  0  0  0  0  0  0
  183.2500  179.7520  140.0050 C   0  0  0  0  0  2  0  0  0  0  0  0
  181.5200  180.4560  138.3610 C   0  0  0  0  0  1  0  0  0  0  0  0
  182.9910  180.5140  138.7180 C   0  0  0  0  0  2  0  0  0  0  0  0
  1 30  1  6  0  0  0
  1  8  1  0  0  0  0
  1  6  1  0  0  0  0
  2  7  2  0  0  0  0
  3  5  1  0  0  0  0
  4 11  2  0  0  0  0
  4  9  1  0  0  0  0
  6 12  1  0  0  0  0
  7  9  1  0  0  0  0
  8 18  1  6  0  0  0
  8 10  1  0  0  0  0
  9  3  2  0  0  0  0
 10  2  1  1  0  0  0
 10  4  1  0  0  0  0
 11 13  1  0  0  0  0
 12 11  1  0  0  0  0
 13  5  2  0  0  0  0
 15 28  1  6  0  0  0
 15 20  1  0  0  0  0
 15 21  1  0  0  0  0
 16 24  1  0  0  0  0
 17 15  1  0  0  0  0
 17 20  1  0  0  0  0
 18 14  1  1  0  0  0
 20 19  1  6  0  0  0
 20 16  1  0  0  0  0
 21 26  1  6  0  0  0
 21 22  1  0  0  0  0
 22 18  1  0  0  0  0
 23 14  1  0  0  0  0
 24 23  1  0  0  0  0
 25 26  1  0  0  0  0
 26 27  2  0  0  0  0
 28 29  1  0  0  0  0
 31 30  1  0  0  0  0
 32 33  1  0  0  0  0
 33 31  1  0  0  0  0
M  END
>  <MODEL>
8

>  <REMARK>
 VINA RESULT:      -5.4      3.589      6.244
  Name = 
  6 active torsions:
  status: ('A' for Active; 'I' for Inactive)
    1  A    between atoms: C_2  and  O_6
    2  A    between atoms: C_3  and  O_12
    3  A    between atoms: O_12  and  C_27
    4  A    between atoms: C_13  and  C_19
    5  A    between atoms: C_18  and  C_28
    6  A    between atoms: C_27  and  C_29
                            x       y       z     vdW  Elec       q    Type
                         _______ _______ _______ _____ _____    ______ ____

>  <TORSDO>
F 6

$$$$
=
 OpenBabel10222419453D

 33 37  0  0  1  0  0  0  0  0999 V2000
  189.0610  177.3510  140.8450 C   0  0  2  0  0  3  0  0  0  0  0  0
  187.2360  177.9400  137.4100 C   0  0  0  0  0  3  0  0  0  0  0  0
  184.0740  178.6870  139.1500 N   0  0  0  0  0  0  0  0  0  0  0  0
  186.4040  178.4820  139.5630 C   0  0  0  0  0  0  0  0  0  0  0  0
  183.8660  178.9770  140.4650 C   0  0  0  0  0  3  0  0  0  0  0  0
  188.0090  177.4790  141.9430 C   0  0  0  0  0  2  0  0  0  0  0  0
  185.7160  178.1290  137.3280 C   0  0  0  0  0  3  0  0  0  0  0  0
  188.4300  176.9980  139.4730 C   0  0  1  0  0  3  0  0  0  0  0  0
  185.3340  178.4420  138.7150 C   0  0  0  0  0  0  0  0  0  0  0  0
  187.6880  178.2080  138.8650 C   0  0  1  0  0  3  0  0  0  0  0  0
  186.1910  178.7840  140.9090 C   0  0  0  0  0  0  0  0  0  0  0  0
  187.3190  178.8300  141.8800 C   0  0  0  0  0  2  0  0  0  0  0  0
  184.9190  179.0230  141.3330 N   0  0  0  0  0  0  0  0  0  0  0  0
  190.5540  177.4830  138.1810 C   0  0  0  0  0  2  0  0  0  0  0  0
  190.0820  174.2810  136.0790 C   0  0  2  0  0  0  0  0  0  0  0  0
  192.0040  174.9950  137.5460 O   0  0  0  0  0  0  0  0  0  0  0  0
  191.0510  173.1190  136.2920 C   0  0  0  0  0  2  0  0  0  0  0  0
  189.4660  176.4500  138.4710 C   0  0  2  0  0  3  0  0  0  0  0  0
  192.3670  174.8130  135.1670 O   0  0  0  0  0  1  0  0  0  0  0  0
  191.5660  174.5480  136.2830 C   0  0  1  0  0  0  0  0  0  0  0  0
  189.1490  174.6180  137.2500 C   0  0  1  0  0  3  0  0  0  0  0  0
  188.8640  175.9880  137.2910 O   0  0  0  0  0  0  0  0  0  0  0  0
  191.2670  177.1410  137.0270 O   0  0  0  0  0  0  0  0  0  0  0  0
  192.3560  176.3590  137.4440 C   0  0  0  0  0  2  0  0  0  0  0  0
  186.3510  174.6250  136.7340 S   0  0  0  0  0  1  0  0  0  0  0  0
  187.8790  173.8250  137.2090 C   0  0  0  0  0  0  0  0  0  0  0  0
  187.8800  172.6330  137.4740 O   0  0  0  0  0  0  0  0  0  0  0  0
  189.6550  174.5240  134.7630 O   0  0  0  0  0  0  0  0  0  0  0  0
  189.4320  175.8220  134.6870 O   0  0  0  0  0  1  0  0  0  0  0  0
  189.9890  176.3810  141.2390 O   0  0  0  0  0  0  0  0  0  0  0  0
  189.9120  176.3520  142.6340 C   0  0  0  0  0  2  0  0  0  0  0  0
  191.5780  177.7100  143.8890 C   0  0  0  0  0  1  0  0  0  0  0  0
  191.3060  176.3710  143.2340 C   0  0  0  0  0  2  0  0  0  0  0  0
  1 30  1  1  0  0  0
  1  6  1  0  0  0  0
  3  5  1  0  0  0  0
  4 11  2  0  0  0  0
  5 13  2  0  0  0  0
  7  2  2  0  0  0  0
  7  9  1  0  0  0  0
  8 18  1  6  0  0  0
  8  1  1  0  0  0  0
  9  3  2  0  0  0  0
  9  4  1  0  0  0  0
 10  2  1  6  0  0  0
 10  8  1  0  0  0  0
 10  4  1  0  0  0  0
 11 13  1  0  0  0  0
 11 12  1  0  0  0  0
 12  6  1  0  0  0  0
 15 28  1  6  0  0  0
 15 20  1  0  0  0  0
 15 17  1  0  0  0  0
 15 21  1  0  0  0  0
 18 14  1  6  0  0  0
 20 19  1  6  0  0  0
 20 17  1  0  0  0  0
 20 16  1  0  0  0  0
 21 26  1  6  0  0  0
 21 22  1  0  0  0  0
 22 18  1  0  0  0  0
 23 24  1  0  0  0  0
 23 14  1  0  0  0  0
 24 16  1  0  0  0  0
 25 26  1  0  0  0  0
 26 27  2  0  0  0  0
 29 28  1  0  0  0  0
 30 31  1  0  0  0  0
 31 33  1  0  0  0  0
 33 32  1  0  0  0  0
M  END
>  <MODEL>
9

>  <REMARK>
 VINA RESULT:      -5.3      1.166      1.268
  Name = 
  6 active torsions:
  status: ('A' for Active; 'I' for Inactive)
    1  A    between atoms: C_2  and  O_6
    2  A    between atoms: C_3  and  O_12
    3  A    between atoms: O_12  and  C_27
    4  A    between atoms: C_13  and  C_19
    5  A    between atoms: C_18  and  C_28
    6  A    between atoms: C_27  and  C_29
                            x       y       z     vdW  Elec       q    Type
                         _______ _______ _______ _____ _____    ______ ____

>  <TORSDO>
F 6

$$$$
