=
 OpenBabel10222419463D

 33 37  0  0  1  0  0  0  0  0999 V2000
  187.8910  177.1890  144.3480 C   0  0  0  0  0  3  0  0  0  0  0  0
  187.6510  178.4550  140.3450 C   0  0  0  0  0  3  0  0  0  0  0  0
  186.5660  178.6560  141.2060 C   0  0  0  0  0  3  0  0  0  0  0  0
  190.4470  176.7440  142.5560 S   0  0  2  0  0  0  0  0  0  0  0  0
  186.6260  178.2190  142.5370 C   0  0  0  0  0  0  0  0  0  0  0  0
  188.7960  177.7920  140.8000 C   0  0  0  0  0  0  0  0  0  0  0  0
  189.8340  176.7000  138.7020 C   0  0  1  0  0  3  0  0  0  0  0  0
  188.8830  177.4080  142.1290 C   0  0  0  0  0  0  0  0  0  0  0  0
  191.0260  176.7840  137.7350 C   0  0  0  0  0  2  0  0  0  0  0  0
  185.6350  177.9720  144.7360 C   0  0  0  0  0  3  0  0  0  0  0  0
  185.5320  178.4000  143.4020 C   0  0  0  0  0  0  0  0  0  0  0  0
  187.8100  177.6020  143.0140 C   0  0  0  0  0  0  0  0  0  0  0  0
  192.5400  175.9990  138.3820 S   0  0  0  0  0  0  0  0  0  0  0  0
  192.4520  177.4090  140.7820 C   0  0  0  0  0  2  0  0  0  0  0  0
  191.0460  176.8260  140.8620 C   0  0  2  0  0  3  0  0  0  0  0  0
  192.9740  177.4840  139.3470 C   0  0  0  0  0  2  0  0  0  0  0  0
  186.8060  177.3750  145.2050 C   0  0  0  0  0  3  0  0  0  0  0  0
  190.1690  175.2590  142.7430 O   0  0  0  0  0  0  0  0  0  0  0  0
  190.0360  177.5660  139.9670 C   0  0  2  0  0  3  0  0  0  0  0  0
  183.1580  179.0480  143.6920 C   0  0  0  0  0  1  0  0  0  0  0  0
  184.3550  178.9920  142.9250 O   0  0  0  0  0  0  0  0  0  0  0  0
  188.4960  176.9360  137.9760 C   0  0  1  0  0  3  0  0  0  0  0  0
  188.6200  177.7940  136.7210 C   0  0  0  0  0  2  0  0  0  0  0  0
  187.3200  178.5170  136.4080 C   0  0  2  0  0  3  0  0  0  0  0  0
  186.2650  178.1790  137.4470 C   0  0  0  0  0  1  0  0  0  0  0  0
  185.7490  177.2170  135.1650 O   0  0  0  0  0  1  0  0  0  0  0  0
  186.8410  178.0770  135.0390 C   0  0  0  0  0  2  0  0  0  0  0  0
  187.8130  175.6130  137.6540 C   0  0  0  0  0  2  0  0  0  0  0  0
  188.4520  174.9660  136.4340 C   0  0  2  0  0  3  0  0  0  0  0  0
  188.0050  173.0780  135.9300 C   0  0  2  0  0  3  0  0  0  0  0  0
  187.4660  174.3470  135.6470 O   0  0  0  0  0  0  0  0  0  0  0  0
  189.0920  173.6500  136.7910 C   0  0  0  0  0  2  0  0  0  0  0  0
  188.5830  172.4660  134.6640 C   0  0  0  0  0  1  0  0  0  0  0  0
  1 17  1  0  0  0  0
  2  6  1  0  0  0  0
  2  3  2  0  0  0  0
  3  5  1  0  0  0  0
  4 18  2  6  0  0  0
  5 12  1  0  0  0  0
  5 11  2  0  0  0  0
  6  8  2  0  0  0  0
  7 22  1  6  0  0  0
  7 19  1  0  0  0  0
  8  4  1  0  0  0  0
  8 12  1  0  0  0  0
  9 13  1  0  0  0  0
  9  7  1  0  0  0  0
 10 17  2  0  0  0  0
 11 10  1  0  0  0  0
 12  1  2  0  0  0  0
 13 16  1  0  0  0  0
 15 14  1  1  0  0  0
 15  4  1  0  0  0  0
 16 14  1  0  0  0  0
 19  6  1  1  0  0  0
 19 15  1  0  0  0  0
 21 11  1  0  0  0  0
 21 20  1  0  0  0  0
 22 23  1  6  0  0  0
 24 23  1  0  0  0  0
 24 25  1  1  0  0  0
 27 26  1  0  0  0  0
 27 24  1  0  0  0  0
 28 22  1  0  0  0  0
 29 32  1  0  0  0  0
 29 28  1  1  0  0  0
 30 33  1  6  0  0  0
 30 32  1  0  0  0  0
 31 30  1  0  0  0  0
 31 29  1  0  0  0  0
M  END
>  <MODEL>
1

>  <REMARK>
 VINA RESULT:      -7.4      0.000      0.000
  Name = 
  7 active torsions:
  status: ('A' for Active; 'I' for Inactive)
    1  A    between atoms: C_4  and  C_7
    2  A    between atoms: C_4  and  C_10
    3  A    between atoms: C_8  and  C_23
    4  A    between atoms: C_10  and  C_24
    5  A    between atoms: O_16  and  C_22
    6  A    between atoms: C_18  and  C_24
    7  A    between atoms: C_23  and  C_24
                            x       y       z     vdW  Elec       q    Type
                         _______ _______ _______ _____ _____    ______ ____

>  <TORSDO>
F 7

$$$$
=
 OpenBabel10222419463D

 33 37  0  0  1  0  0  0  0  0999 V2000
  186.0260  178.9660  146.8900 C   0  0  0  0  0  3  0  0  0  0  0  0
  187.4070  176.7910  143.5660 C   0  0  0  0  0  3  0  0  0  0  0  0
  188.0280  176.6320  144.8100 C   0  0  0  0  0  3  0  0  0  0  0  0
  184.4690  179.3670  144.1770 S   0  0  2  0  0  0  0  0  0  0  0  0
  187.5900  177.3680  145.9210 C   0  0  0  0  0  0  0  0  0  0  0  0
  186.3580  177.7070  143.4150 C   0  0  0  0  0  0  0  0  0  0  0  0
  186.4330  178.4300  140.9370 C   0  0  1  0  0  3  0  0  0  0  0  0
  185.8860  178.3940  144.5210 C   0  0  0  0  0  0  0  0  0  0  0  0
  185.6890  178.3070  139.5980 C   0  0  0  0  0  2  0  0  0  0  0  0
  187.7430  177.9610  148.2660 C   0  0  0  0  0  3  0  0  0  0  0  0
  188.2230  177.2270  147.1690 C   0  0  0  0  0  0  0  0  0  0  0  0
  186.4880  178.2490  145.7810 C   0  0  0  0  0  0  0  0  0  0  0  0
  184.2660  179.4390  139.4530 S   0  0  0  0  0  0  0  0  0  0  0  0
  183.1510  178.6220  141.8710 C   0  0  0  0  0  2  0  0  0  0  0  0
  184.5250  178.9890  142.4190 C   0  0  2  0  0  3  0  0  0  0  0  0
  183.1830  178.2990  140.3780 C   0  0  0  0  0  2  0  0  0  0  0  0
  186.6510  178.8200  148.1280 C   0  0  0  0  0  3  0  0  0  0  0  0
  184.9920  180.7960  144.2300 O   0  0  0  0  0  0  0  0  0  0  0  0
  185.5930  177.9190  142.1300 C   0  0  2  0  0  3  0  0  0  0  0  0
  190.6590  176.8480  147.4150 C   0  0  0  0  0  1  0  0  0  0  0  0
  189.3240  176.3710  147.3020 O   0  0  0  0  0  0  0  0  0  0  0  0
  187.8510  177.8340  140.8560 C   0  0  1  0  0  3  0  0  0  0  0  0
  188.2470  177.3760  139.4560 C   0  0  0  0  0  2  0  0  0  0  0  0
  189.4530  178.1420  138.9370 C   0  0  2  0  0  3  0  0  0  0  0  0
  189.0640  178.9840  137.7340 C   0  0  0  0  0  1  0  0  0  0  0  0
  190.5140  176.0550  139.4040 O   0  0  0  0  0  1  0  0  0  0  0  0
  190.5200  177.1450  138.5330 C   0  0  0  0  0  2  0  0  0  0  0  0
  188.8820  178.8090  141.4100 C   0  0  0  0  0  2  0  0  0  0  0  0
  189.6340  178.1830  142.5770 C   0  0  2  0  0  3  0  0  0  0  0  0
  191.3140  179.0240  143.2750 C   0  0  2  0  0  3  0  0  0  0  0  0
  189.9380  179.1650  143.5340 O   0  0  0  0  0  0  0  0  0  0  0  0
  191.0850  177.9690  142.2340 C   0  0  0  0  0  2  0  0  0  0  0  0
  192.0140  178.4400  144.4920 C   0  0  0  0  0  1  0  0  0  0  0  0
  1 17  1  0  0  0  0
  2  3  2  0  0  0  0
  3  5  1  0  0  0  0
  4 18  2  6  0  0  0
  4  8  1  0  0  0  0
  5 11  2  0  0  0  0
  6  2  1  0  0  0  0
  6  8  2  0  0  0  0
  7 22  1  6  0  0  0
  7 19  1  0  0  0  0
  8 12  1  0  0  0  0
  9  7  1  0  0  0  0
 11 21  1  0  0  0  0
 11 10  1  0  0  0  0
 12  5  1  0  0  0  0
 12  1  2  0  0  0  0
 13  9  1  0  0  0  0
 13 16  1  0  0  0  0
 15 14  1  1  0  0  0
 15  4  1  0  0  0  0
 16 14  1  0  0  0  0
 17 10  2  0  0  0  0
 19 15  1  0  0  0  0
 19  6  1  1  0  0  0
 21 20  1  0  0  0  0
 22 23  1  6  0  0  0
 22 28  1  0  0  0  0
 24 25  1  6  0  0  0
 24 23  1  0  0  0  0
 27 24  1  0  0  0  0
 27 26  1  0  0  0  0
 29 28  1  6  0  0  0
 29 31  1  0  0  0  0
 30 31  1  0  0  0  0
 30 33  1  1  0  0  0
 32 29  1  0  0  0  0
 32 30  1  0  0  0  0
M  END
>  <MODEL>
2

>  <REMARK>
 VINA RESULT:      -7.0      3.383      6.379
  Name = 
  7 active torsions:
  status: ('A' for Active; 'I' for Inactive)
    1  A    between atoms: C_4  and  C_7
    2  A    between atoms: C_4  and  C_10
    3  A    between atoms: C_8  and  C_23
    4  A    between atoms: C_10  and  C_24
    5  A    between atoms: O_16  and  C_22
    6  A    between atoms: C_18  and  C_24
    7  A    between atoms: C_23  and  C_24
                            x       y       z     vdW  Elec       q    Type
                         _______ _______ _______ _____ _____    ______ ____

>  <TORSDO>
F 7

$$$$
=
 OpenBabel10222419463D

 33 37  0  0  1  0  0  0  0  0999 V2000
  185.8200  178.6320  143.3270 C   0  0  0  0  0  3  0  0  0  0  0  0
  184.1590  178.6680  139.4640 C   0  0  0  0  0  3  0  0  0  0  0  0
  183.3290  178.8160  140.5810 C   0  0  0  0  0  3  0  0  0  0  0  0
  187.8280  178.3750  140.9090 S   0  0  2  0  0  0  0  0  0  0  0  0
  183.8680  178.7840  141.8750 C   0  0  0  0  0  0  0  0  0  0  0  0
  185.5330  178.4610  139.6310 C   0  0  0  0  0  0  0  0  0  0  0  0
  186.2850  177.1390  137.5440 C   0  0  1  0  0  3  0  0  0  0  0  0
  186.0790  178.4840  140.9050 C   0  0  0  0  0  0  0  0  0  0  0  0
  187.0940  177.2540  136.2420 C   0  0  0  0  0  2  0  0  0  0  0  0
  183.6140  178.9010  144.2830 C   0  0  0  0  0  3  0  0  0  0  0  0
  183.0370  178.9120  143.0020 C   0  0  0  0  0  0  0  0  0  0  0  0
  185.2690  178.6360  142.0410 C   0  0  0  0  0  0  0  0  0  0  0  0
  188.8920  177.0770  136.4880 S   0  0  0  0  0  0  0  0  0  0  0  0
  188.9820  179.0150  138.4870 C   0  0  0  0  0  2  0  0  0  0  0  0
  187.9090  178.1430  139.1270 C   0  0  2  0  0  3  0  0  0  0  0  0
  189.0620  178.8270  136.9720 C   0  0  0  0  0  2  0  0  0  0  0  0
  184.9940  178.7650  144.4430 C   0  0  0  0  0  3  0  0  0  0  0  0
  188.0990  176.9740  141.4430 O   0  0  0  0  0  0  0  0  0  0  0  0
  186.5200  178.3360  138.4940 C   0  0  2  0  0  3  0  0  0  0  0  0
  180.7190  178.6050  143.8200 C   0  0  0  0  0  1  0  0  0  0  0  0
  181.6520  179.0390  142.8380 O   0  0  0  0  0  0  0  0  0  0  0  0
  184.8030  176.8280  137.2660 C   0  0  1  0  0  3  0  0  0  0  0  0
  184.4220  176.9070  135.7910 C   0  0  0  0  0  2  0  0  0  0  0  0
  183.0170  177.4560  135.6040 C   0  0  2  0  0  3  0  0  0  0  0  0
  182.4440  177.9010  136.9380 C   0  0  0  0  0  1  0  0  0  0  0  0
  181.2690  175.8760  135.9890 O   0  0  0  0  0  1  0  0  0  0  0  0
  182.1460  176.3620  135.0190 C   0  0  0  0  0  2  0  0  0  0  0  0
  184.4150  175.4730  137.8460 C   0  0  0  0  0  2  0  0  0  0  0  0
  184.7430  174.3590  136.8620 C   0  0  2  0  0  3  0  0  0  0  0  0
  184.1680  172.4730  137.2290 C   0  0  2  0  0  3  0  0  0  0  0  0
  183.5930  173.5940  136.6000 O   0  0  0  0  0  0  0  0  0  0  0  0
  185.4320  173.2110  137.5530 C   0  0  0  0  0  2  0  0  0  0  0  0
  184.4270  171.3810  136.2030 C   0  0  0  0  0  1  0  0  0  0  0  0
  1 17  1  0  0  0  0
  2  6  1  0  0  0  0
  2  3  2  0  0  0  0
  3  5  1  0  0  0  0
  4 18  2  1  0  0  0
  5 12  1  0  0  0  0
  5 11  2  0  0  0  0
  6  8  2  0  0  0  0
  7 22  1  6  0  0  0
  7 19  1  0  0  0  0
  8  4  1  0  0  0  0
  8 12  1  0  0  0  0
  9 13  1  0  0  0  0
  9  7  1  0  0  0  0
 10 17  2  0  0  0  0
 11 10  1  0  0  0  0
 12  1  2  0  0  0  0
 13 16  1  0  0  0  0
 15 14  1  6  0  0  0
 15  4  1  0  0  0  0
 16 14  1  0  0  0  0
 19 15  1  0  0  0  0
 19  6  1  1  0  0  0
 21 11  1  0  0  0  0
 21 20  1  0  0  0  0
 22 23  1  6  0  0  0
 22 28  1  0  0  0  0
 24 23  1  0  0  0  0
 24 25  1  1  0  0  0
 27 24  1  0  0  0  0
 27 26  1  0  0  0  0
 29 32  1  0  0  0  0
 29 28  1  1  0  0  0
 30 33  1  6  0  0  0
 30 32  1  0  0  0  0
 31 29  1  0  0  0  0
 31 30  1  0  0  0  0
M  END
>  <MODEL>
3

>  <REMARK>
 VINA RESULT:      -6.4      2.831      3.718
  Name = 
  7 active torsions:
  status: ('A' for Active; 'I' for Inactive)
    1  A    between atoms: C_4  and  C_7
    2  A    between atoms: C_4  and  C_10
    3  A    between atoms: C_8  and  C_23
    4  A    between atoms: C_10  and  C_24
    5  A    between atoms: O_16  and  C_22
    6  A    between atoms: C_18  and  C_24
    7  A    between atoms: C_23  and  C_24
                            x       y       z     vdW  Elec       q    Type
                         _______ _______ _______ _____ _____    ______ ____

>  <TORSDO>
F 7

$$$$
=
 OpenBabel10222419463D

 33 37  0  0  1  0  0  0  0  0999 V2000
  192.4950  177.6230  141.1920 C   0  0  0  0  0  3  0  0  0  0  0  0
  188.6680  176.3710  142.4050 C   0  0  0  0  0  3  0  0  0  0  0  0
  189.0250  176.3100  141.0530 C   0  0  0  0  0  3  0  0  0  0  0  0
  191.8700  177.7370  144.2810 S   0  0  2  0  0  0  0  0  0  0  0  0
  190.2900  176.7450  140.6340 C   0  0  0  0  0  0  0  0  0  0  0  0
  189.5640  176.8910  143.3470 C   0  0  0  0  0  0  0  0  0  0  0  0
  188.0890  177.8330  145.2460 C   0  0  1  0  0  3  0  0  0  0  0  0
  190.8350  177.2690  142.9460 C   0  0  0  0  0  0  0  0  0  0  0  0
  187.6640  177.5970  146.7050 C   0  0  0  0  0  2  0  0  0  0  0  0
  191.9340  177.1260  138.8920 C   0  0  0  0  0  3  0  0  0  0  0  0
  190.6490  176.7060  139.2740 C   0  0  0  0  0  0  0  0  0  0  0  0
  191.2200  177.2140  141.5970 C   0  0  0  0  0  0  0  0  0  0  0  0
  188.8850  178.1930  147.9210 S   0  0  0  0  0  0  0  0  0  0  0  0
  190.9960  176.8200  146.7310 C   0  0  0  0  0  2  0  0  0  0  0  0
  190.5430  177.5720  145.4860 C   0  0  2  0  0  3  0  0  0  0  0  0
  189.8790  176.6720  147.7640 C   0  0  0  0  0  2  0  0  0  0  0  0
  192.8490  177.5770  139.8440 C   0  0  0  0  0  3  0  0  0  0  0  0
  191.9950  179.2470  144.1260 O   0  0  0  0  0  0  0  0  0  0  0  0
  189.2940  176.9560  144.8320 C   0  0  2  0  0  3  0  0  0  0  0  0
  189.1320  177.1280  137.3610 C   0  0  0  0  0  1  0  0  0  0  0  0
  189.7240  176.2610  138.3210 O   0  0  0  0  0  0  0  0  0  0  0  0
  186.8880  177.7590  144.2860 C   0  0  1  0  0  3  0  0  0  0  0  0
  185.5590  177.4790  144.9810 C   0  0  0  0  0  2  0  0  0  0  0  0
  184.8650  178.7650  145.3980 C   0  0  2  0  0  3  0  0  0  0  0  0
  184.8890  178.9100  146.9100 C   0  0  0  0  0  1  0  0  0  0  0  0
  183.1610  179.8070  144.0900 O   0  0  0  0  0  1  0  0  0  0  0  0
  183.4280  178.7150  144.9180 C   0  0  0  0  0  2  0  0  0  0  0  0
  186.7920  179.0220  143.4380 C   0  0  0  0  0  2  0  0  0  0  0  0
  186.5180  178.6670  141.9830 C   0  0  2  0  0  3  0  0  0  0  0  0
  184.7770  179.1690  141.1230 C   0  0  2  0  0  3  0  0  0  0  0  0
  186.0270  179.7920  141.3000 O   0  0  0  0  0  0  0  0  0  0  0  0
  185.2140  177.9270  141.8420 C   0  0  0  0  0  2  0  0  0  0  0  0
  184.5440  178.8850  139.6480 C   0  0  0  0  0  1  0  0  0  0  0  0
  1 12  1  0  0  0  0
  2  6  1  0  0  0  0
  3  2  2  0  0  0  0
  4 18  2  6  0  0  0
  4 15  1  0  0  0  0
  5  3  1  0  0  0  0
  5 12  2  0  0  0  0
  7 22  1  6  0  0  0
  7  9  1  0  0  0  0
  8  6  2  0  0  0  0
  8  4  1  0  0  0  0
  9 13  1  0  0  0  0
 10 11  2  0  0  0  0
 10 17  1  0  0  0  0
 11  5  1  0  0  0  0
 12  8  1  0  0  0  0
 14 16  1  0  0  0  0
 15 14  1  1  0  0  0
 16 13  1  0  0  0  0
 17  1  2  0  0  0  0
 19  6  1  6  0  0  0
 19  7  1  0  0  0  0
 19 15  1  0  0  0  0
 20 21  1  0  0  0  0
 21 11  1  0  0  0  0
 22 28  1  1  0  0  0
 22 23  1  0  0  0  0
 23 24  1  0  0  0  0
 24 25  1  1  0  0  0
 26 27  1  0  0  0  0
 27 24  1  0  0  0  0
 29 28  1  1  0  0  0
 30 33  1  6  0  0  0
 30 31  1  0  0  0  0
 30 32  1  0  0  0  0
 31 29  1  0  0  0  0
 32 29  1  0  0  0  0
M  END
>  <MODEL>
4

>  <REMARK>
 VINA RESULT:      -6.3      2.660      7.258
  Name = 
  7 active torsions:
  status: ('A' for Active; 'I' for Inactive)
    1  A    between atoms: C_4  and  C_7
    2  A    between atoms: C_4  and  C_10
    3  A    between atoms: C_8  and  C_23
    4  A    between atoms: C_10  and  C_24
    5  A    between atoms: O_16  and  C_22
    6  A    between atoms: C_18  and  C_24
    7  A    between atoms: C_23  and  C_24
                            x       y       z     vdW  Elec       q    Type
                         _______ _______ _______ _____ _____    ______ ____

>  <TORSDO>
F 7

$$$$
=
 OpenBabel10222419463D

 33 37  0  0  1  0  0  0  0  0999 V2000
  188.6670  177.5440  143.3910 C   0  0  0  0  0  3  0  0  0  0  0  0
  185.3090  178.7890  141.1870 C   0  0  0  0  0  3  0  0  0  0  0  0
  185.2370  178.7100  142.5820 C   0  0  0  0  0  3  0  0  0  0  0  0
  189.0130  177.7540  140.2640 S   0  0  2  0  0  0  0  0  0  0  0  0
  186.3430  178.2760  143.3260 C   0  0  0  0  0  0  0  0  0  0  0  0
  186.4810  178.4090  140.5210 C   0  0  0  0  0  0  0  0  0  0  0  0
  185.7160  177.6340  138.1790 C   0  0  1  0  0  3  0  0  0  0  0  0
  187.5940  178.0330  141.2540 C   0  0  0  0  0  0  0  0  0  0  0  0
  185.7360  178.0170  136.6900 C   0  0  0  0  0  2  0  0  0  0  0  0
  187.4060  177.7600  145.4440 C   0  0  0  0  0  3  0  0  0  0  0  0
  186.2710  178.1750  144.7270 C   0  0  0  0  0  0  0  0  0  0  0  0
  187.5490  177.9510  142.6550 C   0  0  0  0  0  0  0  0  0  0  0  0
  187.3040  177.6030  135.8570 S   0  0  0  0  0  0  0  0  0  0  0  0
  188.8600  178.9090  137.7630 C   0  0  0  0  0  2  0  0  0  0  0  0
  188.1040  178.0070  138.7320 C   0  0  2  0  0  3  0  0  0  0  0  0
  188.0990  179.1320  136.4560 C   0  0  0  0  0  2  0  0  0  0  0  0
  188.5940  177.4510  144.7810 C   0  0  0  0  0  3  0  0  0  0  0  0
  189.1880  176.2420  140.3050 O   0  0  0  0  0  0  0  0  0  0  0  0
  186.6770  178.5000  139.0250 C   0  0  2  0  0  3  0  0  0  0  0  0
  184.9220  178.3580  146.7980 C   0  0  0  0  0  1  0  0  0  0  0  0
  185.0730  178.4780  145.3890 O   0  0  0  0  0  0  0  0  0  0  0  0
  184.2780  177.5580  138.7260 C   0  0  1  0  0  3  0  0  0  0  0  0
  183.3250  178.5700  138.0980 C   0  0  0  0  0  2  0  0  0  0  0  0
  182.7900  179.5490  139.1310 C   0  0  2  0  0  3  0  0  0  0  0  0
  181.8440  178.8430  140.0860 C   0  0  0  0  0  1  0  0  0  0  0  0
  180.9730  181.0980  139.1810 O   0  0  0  0  0  1  0  0  0  0  0  0
  182.0470  180.6540  138.4080 C   0  0  0  0  0  2  0  0  0  0  0  0
  183.7210  176.1460  138.5930 C   0  0  0  0  0  2  0  0  0  0  0  0
  182.5270  176.1310  137.6490 C   0  0  2  0  0  3  0  0  0  0  0  0
  181.5350  174.4270  137.2880 C   0  0  2  0  0  3  0  0  0  0  0  0
  181.4500  175.4540  138.2460 O   0  0  0  0  0  0  0  0  0  0  0  0
  182.6900  175.0760  136.5860 C   0  0  0  0  0  2  0  0  0  0  0  0
  180.2940  174.4360  136.4090 C   0  0  0  0  0  1  0  0  0  0  0  0
  1 17  1  0  0  0  0
  2  3  2  0  0  0  0
  3  5  1  0  0  0  0
  4 18  2  6  0  0  0
  4  8  1  0  0  0  0
  5 11  2  0  0  0  0
  6  2  1  0  0  0  0
  6  8  2  0  0  0  0
  7 22  1  1  0  0  0
  7 19  1  0  0  0  0
  8 12  1  0  0  0  0
  9  7  1  0  0  0  0
 11 21  1  0  0  0  0
 11 10  1  0  0  0  0
 12  5  1  0  0  0  0
 12  1  2  0  0  0  0
 13 16  1  0  0  0  0
 13  9  1  0  0  0  0
 15 14  1  6  0  0  0
 15 19  1  0  0  0  0
 15  4  1  0  0  0  0
 16 14  1  0  0  0  0
 17 10  2  0  0  0  0
 19  6  1  1  0  0  0
 21 20  1  0  0  0  0
 22 23  1  6  0  0  0
 23 24  1  0  0  0  0
 24 25  1  1  0  0  0
 27 24  1  0  0  0  0
 27 26  1  0  0  0  0
 28 22  1  0  0  0  0
 29 31  1  0  0  0  0
 29 28  1  1  0  0  0
 30 33  1  6  0  0  0
 30 31  1  0  0  0  0
 32 30  1  0  0  0  0
 32 29  1  0  0  0  0
M  END
>  <MODEL>
5

>  <REMARK>
 VINA RESULT:      -6.2      3.280      4.616
  Name = 
  7 active torsions:
  status: ('A' for Active; 'I' for Inactive)
    1  A    between atoms: C_4  and  C_7
    2  A    between atoms: C_4  and  C_10
    3  A    between atoms: C_8  and  C_23
    4  A    between atoms: C_10  and  C_24
    5  A    between atoms: O_16  and  C_22
    6  A    between atoms: C_18  and  C_24
    7  A    between atoms: C_23  and  C_24
                            x       y       z     vdW  Elec       q    Type
                         _______ _______ _______ _____ _____    ______ ____

>  <TORSDO>
F 7

$$$$
=
 OpenBabel10222419463D

 33 37  0  0  1  0  0  0  0  0999 V2000
  186.2340  178.1300  137.4780 C   0  0  0  0  0  3  0  0  0  0  0  0
  182.7980  175.8980  138.4230 C   0  0  0  0  0  3  0  0  0  0  0  0
  183.6120  175.5060  137.3530 C   0  0  0  0  0  3  0  0  0  0  0  0
  184.5510  179.0880  139.9660 S   0  0  2  0  0  0  0  0  0  0  0  0
  184.7480  176.2540  137.0150 C   0  0  0  0  0  0  0  0  0  0  0  0
  183.0990  177.0570  139.1470 C   0  0  0  0  0  0  0  0  0  0  0  0
  180.8350  177.8970  140.0650 C   0  0  1  0  0  3  0  0  0  0  0  0
  184.2500  177.7680  138.8530 C   0  0  0  0  0  0  0  0  0  0  0  0
  180.0140  178.0540  141.3540 C   0  0  0  0  0  2  0  0  0  0  0  0
  186.7030  176.6360  135.6340 C   0  0  0  0  0  3  0  0  0  0  0  0
  185.5590  175.8770  135.9300 C   0  0  0  0  0  0  0  0  0  0  0  0
  185.0860  177.3930  137.7890 C   0  0  0  0  0  0  0  0  0  0  0  0
  180.4820  179.5170  142.3380 S   0  0  0  0  0  0  0  0  0  0  0  0
  183.1870  178.8540  142.3530 C   0  0  0  0  0  2  0  0  0  0  0  0
  183.0010  178.8230  140.8410 C   0  0  2  0  0  3  0  0  0  0  0  0
  181.8770  178.6310  143.1090 C   0  0  0  0  0  2  0  0  0  0  0  0
  187.0390  177.7500  136.4040 C   0  0  0  0  0  3  0  0  0  0  0  0
  184.2600  180.3310  139.1360 O   0  0  0  0  0  0  0  0  0  0  0  0
  182.3130  177.5390  140.3450 C   0  0  2  0  0  3  0  0  0  0  0  0
  185.9810  173.5660  135.1440 C   0  0  0  0  0  1  0  0  0  0  0  0
  185.2130  174.7630  135.1530 O   0  0  0  0  0  0  0  0  0  0  0  0
  180.1360  176.9680  139.0550 C   0  0  1  0  0  3  0  0  0  0  0  0
  179.1400  176.0030  139.6930 C   0  0  0  0  0  2  0  0  0  0  0  0
  179.7680  174.6440  139.9550 C   0  0  2  0  0  3  0  0  0  0  0  0
  179.8130  173.8290  138.6740 C   0  0  0  0  0  1  0  0  0  0  0  0
  179.1500  174.4620  142.2540 O   0  0  0  0  0  1  0  0  0  0  0  0
  178.9310  173.9170  140.9880 C   0  0  0  0  0  2  0  0  0  0  0  0
  179.4650  177.7740  137.9500 C   0  0  0  0  0  2  0  0  0  0  0  0
  180.1470  179.1250  137.7870 C   0  0  2  0  0  3  0  0  0  0  0  0
  180.0750  180.0980  136.0350 C   0  0  2  0  0  3  0  0  0  0  0  0
  179.2660  180.0390  137.1850 O   0  0  0  0  0  0  0  0  0  0  0  0
  181.0700  179.1260  136.5960 C   0  0  0  0  0  2  0  0  0  0  0  0
  180.6880  181.4840  135.9040 C   0  0  0  0  0  1  0  0  0  0  0  0
  1 12  1  0  0  0  0
  2  6  1  0  0  0  0
  3  2  2  0  0  0  0
  4 18  2  6  0  0  0
  4 15  1  0  0  0  0
  5  3  1  0  0  0  0
  5 12  2  0  0  0  0
  7 22  1  6  0  0  0
  7 19  1  0  0  0  0
  7  9  1  0  0  0  0
  8  6  2  0  0  0  0
  8  4  1  0  0  0  0
  9 13  1  0  0  0  0
 10 11  2  0  0  0  0
 10 17  1  0  0  0  0
 11  5  1  0  0  0  0
 12  8  1  0  0  0  0
 13 16  1  0  0  0  0
 14 16  1  0  0  0  0
 15 14  1  1  0  0  0
 17  1  2  0  0  0  0
 19  6  1  6  0  0  0
 19 15  1  0  0  0  0
 20 21  1  0  0  0  0
 21 11  1  0  0  0  0
 22 28  1  6  0  0  0
 22 23  1  0  0  0  0
 23 24  1  0  0  0  0
 24 25  1  6  0  0  0
 24 27  1  0  0  0  0
 27 26  1  0  0  0  0
 29 28  1  6  0  0  0
 30 33  1  1  0  0  0
 30 32  1  0  0  0  0
 30 31  1  0  0  0  0
 31 29  1  0  0  0  0
 32 29  1  0  0  0  0
M  END
>  <MODEL>
6

>  <REMARK>
 VINA RESULT:      -6.2      5.086      9.043
  Name = 
  7 active torsions:
  status: ('A' for Active; 'I' for Inactive)
    1  A    between atoms: C_4  and  C_7
    2  A    between atoms: C_4  and  C_10
    3  A    between atoms: C_8  and  C_23
    4  A    between atoms: C_10  and  C_24
    5  A    between atoms: O_16  and  C_22
    6  A    between atoms: C_18  and  C_24
    7  A    between atoms: C_23  and  C_24
                            x       y       z     vdW  Elec       q    Type
                         _______ _______ _______ _____ _____    ______ ____

>  <TORSDO>
F 7

$$$$
=
 OpenBabel10222419463D

 33 37  0  0  1  0  0  0  0  0999 V2000
  185.1480  177.1470  137.4640 C   0  0  0  0  0  3  0  0  0  0  0  0
  186.3360  179.1140  140.9850 C   0  0  0  0  0  3  0  0  0  0  0  0
  187.2730  178.8640  139.9760 C   0  0  0  0  0  3  0  0  0  0  0  0
  182.9050  177.7140  139.6060 S   0  0  2  0  0  0  0  0  0  0  0  0
  186.8940  178.1900  138.8070 C   0  0  0  0  0  0  0  0  0  0  0  0
  185.0170  178.6690  140.8460 C   0  0  0  0  0  0  0  0  0  0  0  0
  184.1540  178.3170  143.2540 C   0  0  1  0  0  3  0  0  0  0  0  0
  184.6230  178.0520  139.6690 C   0  0  0  0  0  0  0  0  0  0  0  0
  183.1920  178.8850  144.3110 C   0  0  0  0  0  2  0  0  0  0  0  0
  187.4150  177.2630  136.6280 C   0  0  0  0  0  3  0  0  0  0  0  0
  187.8350  177.9190  137.7980 C   0  0  0  0  0  0  0  0  0  0  0  0
  185.5430  177.7950  138.6390 C   0  0  0  0  0  0  0  0  0  0  0  0
  181.4590  178.3740  144.0600 S   0  0  0  0  0  0  0  0  0  0  0  0
  181.4210  179.1960  141.3990 C   0  0  0  0  0  2  0  0  0  0  0  0
  182.6390  178.2860  141.2920 C   0  0  2  0  0  3  0  0  0  0  0  0
  181.1830  179.6880  142.8260 C   0  0  0  0  0  2  0  0  0  0  0  0
  186.0820  176.8840  136.4620 C   0  0  0  0  0  3  0  0  0  0  0  0
  182.8310  176.2000  139.7500 O   0  0  0  0  0  0  0  0  0  0  0  0
  183.9200  178.9270  141.8530 C   0  0  2  0  0  3  0  0  0  0  0  0
  190.2150  177.3460  138.1800 C   0  0  0  0  0  1  0  0  0  0  0  0
  189.1740  178.2930  137.9720 O   0  0  0  0  0  0  0  0  0  0  0  0
  185.6170  178.3670  143.7340 C   0  0  1  0  0  3  0  0  0  0  0  0
  185.8000  179.0580  145.0820 C   0  0  0  0  0  2  0  0  0  0  0  0
  185.9820  178.0510  146.2060 C   0  0  2  0  0  3  0  0  0  0  0  0
  184.8460  178.1690  147.2070 C   0  0  0  0  0  1  0  0  0  0  0  0
  188.0070  177.1470  147.0910 O   0  0  0  0  0  1  0  0  0  0  0  0
  187.2990  178.3340  146.9000 C   0  0  0  0  0  2  0  0  0  0  0  0
  186.2260  176.9700  143.7630 C   0  0  0  0  0  2  0  0  0  0  0  0
  187.5130  176.9340  142.9500 C   0  0  2  0  0  3  0  0  0  0  0  0
  189.2510  176.4380  143.8180 C   0  0  2  0  0  3  0  0  0  0  0  0
  188.2020  175.7340  143.1960 O   0  0  0  0  0  0  0  0  0  0  0  0
  188.5880  177.7650  143.6010 C   0  0  0  0  0  2  0  0  0  0  0  0
  190.5170  176.3230  142.9840 C   0  0  0  0  0  1  0  0  0  0  0  0
  1 12  1  0  0  0  0
  3  2  2  0  0  0  0
  4  8  1  0  0  0  0
  4 18  2  1  0  0  0
  4 15  1  0  0  0  0
  5  3  1  0  0  0  0
  6  2  1  0  0  0  0
  7 22  1  1  0  0  0
  7  9  1  0  0  0  0
  8  6  2  0  0  0  0
 10 11  2  0  0  0  0
 11 21  1  0  0  0  0
 11  5  1  0  0  0  0
 12  5  2  0  0  0  0
 12  8  1  0  0  0  0
 13  9  1  0  0  0  0
 14 16  1  0  0  0  0
 15 14  1  6  0  0  0
 15 19  1  0  0  0  0
 16 13  1  0  0  0  0
 17 10  1  0  0  0  0
 17  1  2  0  0  0  0
 19  6  1  6  0  0  0
 19  7  1  0  0  0  0
 21 20  1  0  0  0  0
 22 28  1  1  0  0  0
 22 23  1  0  0  0  0
 23 24  1  0  0  0  0
 24 27  1  0  0  0  0
 24 25  1  1  0  0  0
 27 26  1  0  0  0  0
 29 31  1  0  0  0  0
 29 32  1  0  0  0  0
 29 28  1  1  0  0  0
 30 33  1  6  0  0  0
 31 30  1  0  0  0  0
 32 30  1  0  0  0  0
M  END
>  <MODEL>
7

>  <REMARK>
 VINA RESULT:      -6.2      3.306      8.324
  Name = 
  7 active torsions:
  status: ('A' for Active; 'I' for Inactive)
    1  A    between atoms: C_4  and  C_7
    2  A    between atoms: C_4  and  C_10
    3  A    between atoms: C_8  and  C_23
    4  A    between atoms: C_10  and  C_24
    5  A    between atoms: O_16  and  C_22
    6  A    between atoms: C_18  and  C_24
    7  A    between atoms: C_23  and  C_24
                            x       y       z     vdW  Elec       q    Type
                         _______ _______ _______ _____ _____    ______ ____

>  <TORSDO>
F 7

$$$$
=
 OpenBabel10222419463D

 33 37  0  0  1  0  0  0  0  0999 V2000
  186.3720  178.4180  142.2050 C   0  0  0  0  0  3  0  0  0  0  0  0
  183.7330  178.6250  138.9370 C   0  0  0  0  0  3  0  0  0  0  0  0
  185.1050  178.4550  138.7160 C   0  0  0  0  0  3  0  0  0  0  0  0
  183.3030  178.7160  142.8670 S   0  0  2  0  0  0  0  0  0  0  0  0
  185.9960  178.4060  139.7960 C   0  0  0  0  0  0  0  0  0  0  0  0
  183.2440  178.7740  140.2400 C   0  0  0  0  0  0  0  0  0  0  0  0
  181.0810  180.1650  140.0050 C   0  0  1  0  0  3  0  0  0  0  0  0
  184.1140  178.6710  141.3140 C   0  0  0  0  0  0  0  0  0  0  0  0
  179.5490  180.0820  140.1060 C   0  0  0  0  0  2  0  0  0  0  0  0
  188.2410  178.1850  140.6870 C   0  0  0  0  0  3  0  0  0  0  0  0
  187.3780  178.2550  139.5800 C   0  0  0  0  0  0  0  0  0  0  0  0
  185.4930  178.4950  141.1190 C   0  0  0  0  0  0  0  0  0  0  0  0
  178.9310  180.1810  141.8190 S   0  0  0  0  0  0  0  0  0  0  0  0
  180.6070  178.1490  142.7240 C   0  0  0  0  0  2  0  0  0  0  0  0
  181.6960  179.0280  142.1210 C   0  0  2  0  0  3  0  0  0  0  0  0
  179.2360  178.4050  142.1000 C   0  0  0  0  0  2  0  0  0  0  0  0
  187.7410  178.2630  141.9870 C   0  0  0  0  0  3  0  0  0  0  0  0
  183.6830  180.0790  143.4300 O   0  0  0  0  0  0  0  0  0  0  0  0
  181.7810  178.9160  140.5890 C   0  0  2  0  0  3  0  0  0  0  0  0
  189.0810  178.8330  137.8750 C   0  0  0  0  0  1  0  0  0  0  0  0
  187.8780  178.1870  138.2730 O   0  0  0  0  0  0  0  0  0  0  0  0
  181.5350  180.5430  138.5820 C   0  0  1  0  0  3  0  0  0  0  0  0
  180.5690  180.1000  137.4880 C   0  0  0  0  0  2  0  0  0  0  0  0
  181.1460  178.9660  136.6570 C   0  0  2  0  0  3  0  0  0  0  0  0
  181.1090  179.3220  135.1810 C   0  0  0  0  0  1  0  0  0  0  0  0
  180.9850  176.8590  137.7690 O   0  0  0  0  0  1  0  0  0  0  0  0
  180.3160  177.7210  136.8980 C   0  0  0  0  0  2  0  0  0  0  0  0
  181.8100  182.0380  138.4800 C   0  0  0  0  0  2  0  0  0  0  0  0
  180.9050  182.6750  137.4350 C   0  0  2  0  0  3  0  0  0  0  0  0
  180.4040  184.6120  137.5660 C   0  0  2  0  0  3  0  0  0  0  0  0
  181.4630  183.8860  136.9900 O   0  0  0  0  0  0  0  0  0  0  0  0
  179.7370  183.3730  138.0820 C   0  0  0  0  0  2  0  0  0  0  0  0
  179.5680  185.2620  136.4750 C   0  0  0  0  0  1  0  0  0  0  0  0
  2  6  1  0  0  0  0
  3  2  2  0  0  0  0
  3  5  1  0  0  0  0
  4 18  2  1  0  0  0
  5 12  1  0  0  0  0
  6  8  2  0  0  0  0
  7 22  1  6  0  0  0
  7  9  1  0  0  0  0
  7 19  1  0  0  0  0
  8  4  1  0  0  0  0
  9 13  1  0  0  0  0
 10 17  2  0  0  0  0
 11  5  2  0  0  0  0
 11 10  1  0  0  0  0
 12  8  1  0  0  0  0
 12  1  2  0  0  0  0
 13 16  1  0  0  0  0
 15 14  1  1  0  0  0
 15  4  1  0  0  0  0
 16 14  1  0  0  0  0
 17  1  1  0  0  0  0
 19  6  1  1  0  0  0
 19 15  1  0  0  0  0
 20 21  1  0  0  0  0
 21 11  1  0  0  0  0
 22 23  1  6  0  0  0
 24 25  1  6  0  0  0
 24 27  1  0  0  0  0
 24 23  1  0  0  0  0
 27 26  1  0  0  0  0
 28 22  1  0  0  0  0
 29 32  1  0  0  0  0
 29 28  1  1  0  0  0
 30 33  1  6  0  0  0
 30 32  1  0  0  0  0
 31 29  1  0  0  0  0
 31 30  1  0  0  0  0
M  END
>  <MODEL>
8

>  <REMARK>
 VINA RESULT:      -6.0      5.282      8.834
  Name = 
  7 active torsions:
  status: ('A' for Active; 'I' for Inactive)
    1  A    between atoms: C_4  and  C_7
    2  A    between atoms: C_4  and  C_10
    3  A    between atoms: C_8  and  C_23
    4  A    between atoms: C_10  and  C_24
    5  A    between atoms: O_16  and  C_22
    6  A    between atoms: C_18  and  C_24
    7  A    between atoms: C_23  and  C_24
                            x       y       z     vdW  Elec       q    Type
                         _______ _______ _______ _____ _____    ______ ____

>  <TORSDO>
F 7

$$$$
=
 OpenBabel10222419463D

 33 37  0  0  1  0  0  0  0  0999 V2000
  183.7600  176.0590  137.0190 C   0  0  0  0  0  3  0  0  0  0  0  0
  184.9210  179.0360  139.7530 C   0  0  0  0  0  3  0  0  0  0  0  0
  185.8050  178.6310  138.7460 C   0  0  0  0  0  3  0  0  0  0  0  0
  181.6280  176.9240  139.1750 S   0  0  2  0  0  0  0  0  0  0  0  0
  185.4370  177.6250  137.8420 C   0  0  0  0  0  0  0  0  0  0  0  0
  183.6710  178.4190  139.8810 C   0  0  0  0  0  0  0  0  0  0  0  0
  183.0510  178.6400  142.3780 C   0  0  1  0  0  3  0  0  0  0  0  0
  183.2810  177.4630  138.9560 C   0  0  0  0  0  0  0  0  0  0  0  0
  182.1010  179.3570  143.3500 C   0  0  0  0  0  2  0  0  0  0  0  0
  185.9180  176.2060  135.9360 C   0  0  0  0  0  3  0  0  0  0  0  0
  186.3280  177.2000  136.8400 C   0  0  0  0  0  0  0  0  0  0  0  0
  184.1470  177.0440  137.9340 C   0  0  0  0  0  0  0  0  0  0  0  0
  180.4440  178.6000  143.4350 S   0  0  0  0  0  0  0  0  0  0  0  0
  180.0890  178.6550  140.6740 C   0  0  0  0  0  2  0  0  0  0  0  0
  181.4120  177.8980  140.6720 C   0  0  2  0  0  3  0  0  0  0  0  0
  179.8920  179.4870  141.9400 C   0  0  0  0  0  2  0  0  0  0  0  0
  184.6440  175.6440  136.0230 C   0  0  0  0  0  3  0  0  0  0  0  0
  181.7810  175.5080  139.7150 O   0  0  0  0  0  0  0  0  0  0  0  0
  182.6280  178.8120  140.9010 C   0  0  2  0  0  3  0  0  0  0  0  0
  188.7960  176.9830  136.8770 C   0  0  0  0  0  1  0  0  0  0  0  0
  187.6100  177.7600  136.7620 O   0  0  0  0  0  0  0  0  0  0  0  0
  184.5240  178.9880  142.6640 C   0  0  1  0  0  3  0  0  0  0  0  0
  184.7370  179.7400  143.9740 C   0  0  0  0  0  2  0  0  0  0  0  0
  185.0070  178.7880  145.1280 C   0  0  2  0  0  3  0  0  0  0  0  0
  183.7490  178.5940  145.9560 C   0  0  0  0  0  1  0  0  0  0  0  0
  185.6800  179.4320  147.3270 O   0  0  0  0  0  1  0  0  0  0  0  0
  186.0990  179.3810  145.9960 C   0  0  0  0  0  2  0  0  0  0  0  0
  185.3960  177.7390  142.6170 C   0  0  0  0  0  2  0  0  0  0  0  0
  186.8530  178.0960  142.8740 C   0  0  2  0  0  3  0  0  0  0  0  0
  188.3240  177.1220  141.9210 C   0  0  2  0  0  3  0  0  0  0  0  0
  187.5310  178.2530  141.6530 O   0  0  0  0  0  0  0  0  0  0  0  0
  187.6540  176.8750  143.2400 C   0  0  0  0  0  2  0  0  0  0  0  0
  189.7720  177.5400  142.1200 C   0  0  0  0  0  1  0  0  0  0  0  0
  1 12  1  0  0  0  0
  2  6  1  0  0  0  0
  3  2  2  0  0  0  0
  4 18  2  1  0  0  0
  4 15  1  0  0  0  0
  5 12  2  0  0  0  0
  5  3  1  0  0  0  0
  7 22  1  6  0  0  0
  7  9  1  0  0  0  0
  8  4  1  0  0  0  0
  8  6  2  0  0  0  0
  9 13  1  0  0  0  0
 10 17  1  0  0  0  0
 10 11  2  0  0  0  0
 11  5  1  0  0  0  0
 12  8  1  0  0  0  0
 14 16  1  0  0  0  0
 15 14  1  6  0  0  0
 15 19  1  0  0  0  0
 16 13  1  0  0  0  0
 17  1  2  0  0  0  0
 19  6  1  6  0  0  0
 19  7  1  0  0  0  0
 21 11  1  0  0  0  0
 21 20  1  0  0  0  0
 22 28  1  1  0  0  0
 22 23  1  0  0  0  0
 23 24  1  0  0  0  0
 24 25  1  1  0  0  0
 24 27  1  0  0  0  0
 27 26  1  0  0  0  0
 29 28  1  6  0  0  0
 29 32  1  0  0  0  0
 30 33  1  1  0  0  0
 30 32  1  0  0  0  0
 31 30  1  0  0  0  0
 31 29  1  0  0  0  0
M  END
>  <MODEL>
9

>  <REMARK>
 VINA RESULT:      -5.9      3.497      8.641
  Name = 
  7 active torsions:
  status: ('A' for Active; 'I' for Inactive)
    1  A    between atoms: C_4  and  C_7
    2  A    between atoms: C_4  and  C_10
    3  A    between atoms: C_8  and  C_23
    4  A    between atoms: C_10  and  C_24
    5  A    between atoms: O_16  and  C_22
    6  A    between atoms: C_18  and  C_24
    7  A    between atoms: C_23  and  C_24
                            x       y       z     vdW  Elec       q    Type
                         _______ _______ _______ _____ _____    ______ ____

>  <TORSDO>
F 7

$$$$
