=
 OpenBabel10222421163D

 37 40  0  0  1  0  0  0  0  0999 V2000
  185.9360  178.2920  147.2570 C   0  0  0  0  0  3  0  0  0  0  0  0
  189.5230  177.2960  147.5860 N   0  0  0  0  0  0  0  0  0  0  0  0
  187.6120  177.7640  145.5120 C   0  0  0  0  0  0  0  0  0  0  0  0
  187.9380  177.8870  149.1810 O   0  0  0  0  0  0  0  0  0  0  0  0
  184.6920  178.5130  143.7100 C   0  0  0  0  0  0  0  0  0  0  0  0
  186.7500  177.8100  143.0830 C   0  0  0  0  0  0  0  0  0  0  0  0
  185.3260  178.2730  144.8490 C   0  0  2  0  0  3  0  0  0  0  0  0
  189.9320  177.2160  146.3500 C   0  0  0  0  0  0  0  0  0  0  0  0
  184.8390  178.5280  146.2430 C   0  0  0  0  0  3  0  0  0  0  0  0
  188.2140  177.7320  147.9620 C   0  0  0  0  0  0  0  0  0  0  0  0
  187.1990  177.9580  146.9250 C   0  0  0  0  0  0  0  0  0  0  0  0
  189.0760  177.6620  145.1910 C   0  0  0  0  0  2  0  0  0  0  0  0
  185.5860  178.2090  142.5800 C   0  0  0  0  0  3  0  0  0  0  0  0
  186.6780  177.8470  144.5520 C   0  0  0  0  0  0  0  0  0  0  0  0
  191.2180  176.7520  146.0640 O   0  0  0  0  0  0  0  0  0  0  0  0
  191.9850  176.0120  147.0030 C   0  0  0  0  0  1  0  0  0  0  0  0
  183.3180  179.0200  143.6080 C   0  0  0  0  0  3  0  0  0  0  0  0
  182.5850  178.8360  142.5120 C   0  0  0  0  0  3  0  0  0  0  0  0
  181.2760  179.3110  142.3920 O   0  0  0  0  0  0  0  0  0  0  0  0
  180.1500  178.4490  142.2940 C   0  0  0  0  0  1  0  0  0  0  0  0
  187.7960  177.2890  142.2600 N   0  0  0  0  0  2  0  0  0  0  0  0
  188.6320  178.1140  141.4050 C   0  0  0  0  0  2  0  0  0  0  0  0
  189.9970  177.4690  141.2300 C   0  0  1  0  0  3  0  0  0  0  0  0
  190.0860  176.2160  142.0810 C   0  0  0  0  0  1  0  0  0  0  0  0
  190.2670  177.1510  139.7920 C   0  0  0  0  0  0  0  0  0  0  0  0
  189.5360  177.8820  138.7060 C   0  0  0  0  0  1  0  0  0  0  0  0
  191.1520  176.2460  139.5100 N   0  0  0  0  0  0  0  0  0  0  0  0
  192.6920  176.3230  137.5900 C   0  0  0  0  0  0  0  0  0  0  0  0
  193.5130  177.0210  138.2410 O   0  0  0  0  0  0  0  0  0  0  0  0
  191.4670  175.9020  138.1880 N   0  0  0  0  0  2  0  0  0  0  0  0
  192.9830  175.9650  136.1720 C   0  0  0  0  0  2  0  0  0  0  0  0
  196.4580  176.8930  134.9790 C   0  0  0  0  0  3  0  0  0  0  0  0
  195.2200  174.8850  136.4830 C   0  0  0  0  0  3  0  0  0  0  0  0
  196.6020  174.8500  136.2740 C   0  0  0  0  0  3  0  0  0  0  0  0
  194.4540  175.9210  135.9360 C   0  0  0  0  0  0  0  0  0  0  0  0
  195.0760  176.9270  135.1860 C   0  0  0  0  0  3  0  0  0  0  0  0
  197.2210  175.8540  135.5210 C   0  0  0  0  0  3  0  0  0  0  0  0
  2 10  1  0  0  0  0
  3 11  2  0  0  0  0
  5  7  1  0  0  0  0
  6 14  2  0  0  0  0
  7  9  1  1  0  0  0
  8  2  2  0  0  0  0
  9  1  2  0  0  0  0
 10  4  2  0  0  0  0
 11  1  1  0  0  0  0
 11 10  1  0  0  0  0
 12  3  1  0  0  0  0
 12  8  1  0  0  0  0
 13  6  1  0  0  0  0
 13  5  2  0  0  0  0
 14  7  1  0  0  0  0
 14  3  1  0  0  0  0
 15  8  1  0  0  0  0
 15 16  1  0  0  0  0
 17  5  1  0  0  0  0
 18 17  2  0  0  0  0
 19 18  1  0  0  0  0
 20 19  1  0  0  0  0
 21  6  1  0  0  0  0
 22 21  1  0  0  0  0
 23 22  1  0  0  0  0
 23 24  1  1  0  0  0
 25 23  1  0  0  0  0
 26 25  1  0  0  0  0
 27 25  2  0  0  0  0
 28 30  1  0  0  0  0
 28 29  2  0  0  0  0
 30 27  1  0  0  0  0
 31 28  1  0  0  0  0
 32 36  2  0  0  0  0
 32 37  1  0  0  0  0
 34 33  1  0  0  0  0
 35 31  1  0  0  0  0
 35 33  2  0  0  0  0
 36 35  1  0  0  0  0
 37 34  2  0  0  0  0
M  END
>  <MODEL>
1

>  <REMARK>
 VINA RESULT:      -9.9      0.000      0.000
  Name = 
  10 active torsions:
  status: ('A' for Active; 'I' for Inactive)
    1  A    between atoms: C_1  and  C_32
    2  A    between atoms: O_4  and  C_21
    3  A    between atoms: O_5  and  C_29
    4  A    between atoms: C_7  and  C_24
    5  A    between atoms: C_7  and  C_25
    6  A    between atoms: N_10  and  C_17
    7  A    between atoms: N_10  and  C_25
    8  A    between atoms: N_12  and  N_33
    9  A    between atoms: C_14  and  C_27
   10  A    between atoms: C_22  and  C_32
                            x       y       z     vdW  Elec       q    Type
                         _______ _______ _______ _____ _____    ______ ____

>  <TORSDO>
F 10

$$$$
=
 OpenBabel10222421163D

 37 40  0  0  1  0  0  0  0  0999 V2000
  185.9590  178.1100  147.0650 C   0  0  0  0  0  3  0  0  0  0  0  0
  189.5840  177.2420  147.3520 N   0  0  0  0  0  0  0  0  0  0  0  0
  187.6740  177.8160  145.3030 C   0  0  0  0  0  0  0  0  0  0  0  0
  187.9580  177.6160  148.9730 O   0  0  0  0  0  0  0  0  0  0  0  0
  184.7420  178.6010  143.5360 C   0  0  0  0  0  0  0  0  0  0  0  0
  186.8350  178.0480  142.8770 C   0  0  0  0  0  0  0  0  0  0  0  0
  185.3750  178.2850  144.6580 C   0  0  2  0  0  3  0  0  0  0  0  0
  190.0080  177.2930  146.1200 C   0  0  0  0  0  0  0  0  0  0  0  0
  184.8630  178.3910  146.0630 C   0  0  0  0  0  3  0  0  0  0  0  0
  188.2530  177.5860  147.7480 C   0  0  0  0  0  0  0  0  0  0  0  0
  187.2390  177.8620  146.7220 C   0  0  0  0  0  0  0  0  0  0  0  0
  189.1440  177.8060  144.9950 C   0  0  0  0  0  2  0  0  0  0  0  0
  185.6590  178.4400  142.3960 C   0  0  0  0  0  3  0  0  0  0  0  0
  186.7470  177.9470  144.3420 C   0  0  0  0  0  0  0  0  0  0  0  0
  191.3160  176.9130  145.8110 O   0  0  0  0  0  0  0  0  0  0  0  0
  192.0570  176.0120  146.6210 C   0  0  0  0  0  1  0  0  0  0  0  0
  183.3490  179.0560  143.4620 C   0  0  0  0  0  3  0  0  0  0  0  0
  182.5460  178.6900  142.4650 C   0  0  0  0  0  3  0  0  0  0  0  0
  181.2170  179.1120  142.3730 O   0  0  0  0  0  0  0  0  0  0  0  0
  180.1460  178.4270  143.0080 C   0  0  0  0  0  1  0  0  0  0  0  0
  187.9110  177.6490  142.0250 N   0  0  0  0  0  2  0  0  0  0  0  0
  188.7840  178.5880  141.3410 C   0  0  0  0  0  2  0  0  0  0  0  0
  189.2140  178.0180  139.9990 C   0  0  1  0  0  3  0  0  0  0  0  0
  190.0030  176.7390  140.2140 C   0  0  0  0  0  1  0  0  0  0  0  0
  188.0340  177.7660  139.1120 C   0  0  0  0  0  0  0  0  0  0  0  0
  188.0360  176.6040  138.1650 C   0  0  0  0  0  1  0  0  0  0  0  0
  187.0130  178.5610  139.1930 N   0  0  0  0  0  0  0  0  0  0  0  0
  184.6410  179.0310  138.7300 C   0  0  0  0  0  0  0  0  0  0  0  0
  184.5610  179.7750  139.7420 O   0  0  0  0  0  0  0  0  0  0  0  0
  185.8690  178.3820  138.4040 N   0  0  0  0  0  2  0  0  0  0  0  0
  183.4350  178.7970  137.8850 C   0  0  0  0  0  2  0  0  0  0  0  0
  181.9770  175.9090  139.8600 C   0  0  0  0  0  3  0  0  0  0  0  0
  181.1200  178.3090  138.7050 C   0  0  0  0  0  3  0  0  0  0  0  0
  180.2080  177.4960  139.3860 C   0  0  0  0  0  3  0  0  0  0  0  0
  182.4610  177.9220  138.5980 C   0  0  0  0  0  0  0  0  0  0  0  0
  182.8890  176.7220  139.1790 C   0  0  0  0  0  3  0  0  0  0  0  0
  180.6370  176.2950  139.9620 C   0  0  0  0  0  3  0  0  0  0  0  0
  2 10  1  0  0  0  0
  3 11  2  0  0  0  0
  5  7  1  0  0  0  0
  6 14  2  0  0  0  0
  7  9  1  1  0  0  0
  8  2  2  0  0  0  0
  9  1  2  0  0  0  0
 10  4  2  0  0  0  0
 11  1  1  0  0  0  0
 11 10  1  0  0  0  0
 12  3  1  0  0  0  0
 12  8  1  0  0  0  0
 13  6  1  0  0  0  0
 13  5  2  0  0  0  0
 14  7  1  0  0  0  0
 14  3  1  0  0  0  0
 15  8  1  0  0  0  0
 15 16  1  0  0  0  0
 17  5  1  0  0  0  0
 18 17  2  0  0  0  0
 19 18  1  0  0  0  0
 19 20  1  0  0  0  0
 21  6  1  0  0  0  0
 22 21  1  0  0  0  0
 23 24  1  1  0  0  0
 23 22  1  0  0  0  0
 25 27  2  0  0  0  0
 25 23  1  0  0  0  0
 26 25  1  0  0  0  0
 28 29  2  0  0  0  0
 30 28  1  0  0  0  0
 30 27  1  0  0  0  0
 31 35  1  0  0  0  0
 31 28  1  0  0  0  0
 32 37  1  0  0  0  0
 33 34  1  0  0  0  0
 34 37  2  0  0  0  0
 35 33  2  0  0  0  0
 35 36  1  0  0  0  0
 36 32  2  0  0  0  0
M  END
>  <MODEL>
2

>  <REMARK>
 VINA RESULT:      -9.9      3.675      6.766
  Name = 
  10 active torsions:
  status: ('A' for Active; 'I' for Inactive)
    1  A    between atoms: C_1  and  C_32
    2  A    between atoms: O_4  and  C_21
    3  A    between atoms: O_5  and  C_29
    4  A    between atoms: C_7  and  C_24
    5  A    between atoms: C_7  and  C_25
    6  A    between atoms: N_10  and  C_17
    7  A    between atoms: N_10  and  C_25
    8  A    between atoms: N_12  and  N_33
    9  A    between atoms: C_14  and  C_27
   10  A    between atoms: C_22  and  C_32
                            x       y       z     vdW  Elec       q    Type
                         _______ _______ _______ _____ _____    ______ ____

>  <TORSDO>
F 10

$$$$
=
 OpenBabel10222421163D

 37 40  0  0  1  0  0  0  0  0999 V2000
  186.1080  178.3940  147.4340 C   0  0  0  0  0  3  0  0  0  0  0  0
  189.6910  177.3340  147.5450 N   0  0  0  0  0  0  0  0  0  0  0  0
  187.6610  177.8220  145.5920 C   0  0  0  0  0  0  0  0  0  0  0  0
  188.2200  177.9670  149.2320 O   0  0  0  0  0  0  0  0  0  0  0  0
  184.6470  178.6110  143.9700 C   0  0  0  0  0  0  0  0  0  0  0  0
  186.6490  177.8660  143.2220 C   0  0  0  0  0  0  0  0  0  0  0  0
  185.3480  178.3680  145.0700 C   0  0  2  0  0  3  0  0  0  0  0  0
  190.0190  177.2370  146.2860 C   0  0  0  0  0  0  0  0  0  0  0  0
  184.9540  178.6430  146.4900 C   0  0  0  0  0  3  0  0  0  0  0  0
  188.4160  177.7970  147.9990 C   0  0  0  0  0  0  0  0  0  0  0  0
  187.3420  178.0350  147.0260 C   0  0  0  0  0  0  0  0  0  0  0  0
  189.0990  177.6900  145.1810 C   0  0  0  0  0  2  0  0  0  0  0  0
  185.4620  178.2820  142.7890 C   0  0  0  0  0  3  0  0  0  0  0  0
  186.6700  177.9150  144.6920 C   0  0  0  0  0  0  0  0  0  0  0  0
  191.2760  176.7470  145.9250 O   0  0  0  0  0  0  0  0  0  0  0  0
  192.0770  175.9800  146.8120 C   0  0  0  0  0  1  0  0  0  0  0  0
  183.2790  179.1430  143.9510 C   0  0  0  0  0  3  0  0  0  0  0  0
  182.4250  178.8360  142.9770 C   0  0  0  0  0  3  0  0  0  0  0  0
  181.1180  179.3320  142.9380 O   0  0  0  0  0  0  0  0  0  0  0  0
  180.0200  178.6580  143.5370 C   0  0  0  0  0  1  0  0  0  0  0  0
  187.6310  177.3180  142.3390 N   0  0  0  0  0  2  0  0  0  0  0  0
  188.3900  178.1150  141.3900 C   0  0  0  0  0  2  0  0  0  0  0  0
  189.8030  177.5700  141.2640 C   0  0  1  0  0  3  0  0  0  0  0  0
  189.9640  176.3500  142.1520 C   0  0  0  0  0  1  0  0  0  0  0  0
  190.1320  177.2350  139.8420 C   0  0  0  0  0  0  0  0  0  0  0  0
  189.5230  178.0220  138.7210 C   0  0  0  0  0  1  0  0  0  0  0  0
  190.9610  176.2660  139.6060 N   0  0  0  0  0  0  0  0  0  0  0  0
  192.6400  176.1570  137.8070 C   0  0  0  0  0  0  0  0  0  0  0  0
  193.4970  176.7220  138.5350 O   0  0  0  0  0  0  0  0  0  0  0  0
  191.3260  175.9030  138.3020 N   0  0  0  0  0  2  0  0  0  0  0  0
  192.9860  175.7840  136.4060 C   0  0  0  0  0  2  0  0  0  0  0  0
  192.3130  172.1760  135.4620 C   0  0  0  0  0  3  0  0  0  0  0  0
  194.2480  173.6640  136.8300 C   0  0  0  0  0  3  0  0  0  0  0  0
  194.3940  172.2790  136.6990 C   0  0  0  0  0  3  0  0  0  0  0  0
  193.1330  174.3060  136.2800 C   0  0  0  0  0  0  0  0  0  0  0  0
  192.1670  173.5610  135.5930 C   0  0  0  0  0  3  0  0  0  0  0  0
  193.4260  171.5350  136.0170 C   0  0  0  0  0  3  0  0  0  0  0  0
  2 10  1  0  0  0  0
  3 11  2  0  0  0  0
  5  7  1  0  0  0  0
  6 14  2  0  0  0  0
  7  9  1  1  0  0  0
  8  2  2  0  0  0  0
  9  1  2  0  0  0  0
 10  4  2  0  0  0  0
 11  1  1  0  0  0  0
 11 10  1  0  0  0  0
 12  3  1  0  0  0  0
 12  8  1  0  0  0  0
 13  6  1  0  0  0  0
 13  5  2  0  0  0  0
 14  7  1  0  0  0  0
 14  3  1  0  0  0  0
 15  8  1  0  0  0  0
 15 16  1  0  0  0  0
 17  5  1  0  0  0  0
 18 17  2  0  0  0  0
 19 18  1  0  0  0  0
 19 20  1  0  0  0  0
 21  6  1  0  0  0  0
 22 21  1  0  0  0  0
 23 22  1  0  0  0  0
 23 24  1  1  0  0  0
 25 23  1  0  0  0  0
 26 25  1  0  0  0  0
 27 25  2  0  0  0  0
 28 30  1  0  0  0  0
 28 29  2  0  0  0  0
 30 27  1  0  0  0  0
 31 28  1  0  0  0  0
 32 36  2  0  0  0  0
 32 37  1  0  0  0  0
 34 33  1  0  0  0  0
 35 31  1  0  0  0  0
 35 33  2  0  0  0  0
 36 35  1  0  0  0  0
 37 34  2  0  0  0  0
M  END
>  <MODEL>
3

>  <REMARK>
 VINA RESULT:      -9.8      1.205      1.765
  Name = 
  10 active torsions:
  status: ('A' for Active; 'I' for Inactive)
    1  A    between atoms: C_1  and  C_32
    2  A    between atoms: O_4  and  C_21
    3  A    between atoms: O_5  and  C_29
    4  A    between atoms: C_7  and  C_24
    5  A    between atoms: C_7  and  C_25
    6  A    between atoms: N_10  and  C_17
    7  A    between atoms: N_10  and  C_25
    8  A    between atoms: N_12  and  N_33
    9  A    between atoms: C_14  and  C_27
   10  A    between atoms: C_22  and  C_32
                            x       y       z     vdW  Elec       q    Type
                         _______ _______ _______ _____ _____    ______ ____

>  <TORSDO>
F 10

$$$$
=
 OpenBabel10222421163D

 37 40  0  0  1  0  0  0  0  0999 V2000
  186.9830  178.0680  147.2170 C   0  0  0  0  0  3  0  0  0  0  0  0
  184.6220  178.6090  144.3700 N   0  0  0  0  0  0  0  0  0  0  0  0
  187.3430  177.8330  144.7780 C   0  0  0  0  0  0  0  0  0  0  0  0
  184.3100  178.7280  146.6720 O   0  0  0  0  0  0  0  0  0  0  0  0
  190.4490  177.0100  146.1970 C   0  0  0  0  0  0  0  0  0  0  0  0
  189.7380  177.2090  144.0570 C   0  0  0  0  0  0  0  0  0  0  0  0
  189.2120  177.4770  146.2960 C   0  0  0  0  0  0  0  0  0  0  0  0
  185.3240  178.2720  143.3240 C   0  0  0  0  0  0  0  0  0  0  0  0
  188.4140  177.7050  147.5440 C   0  0  0  0  0  2  0  0  0  0  0  0
  185.0930  178.4850  145.7150 C   0  0  0  0  0  0  0  0  0  0  0  0
  186.4920  178.1130  145.9630 C   0  0  0  0  0  0  0  0  0  0  0  0
  186.6860  177.6340  143.4430 C   0  0  0  0  0  2  0  0  0  0  0  0
  190.7970  176.8490  144.7750 C   0  0  0  0  0  3  0  0  0  0  0  0
  188.6520  177.6080  144.9670 C   0  0  0  0  0  0  0  0  0  0  0  0
  184.8020  178.4500  142.0410 O   0  0  0  0  0  0  0  0  0  0  0  0
  185.5720  178.9870  140.9750 C   0  0  0  0  0  1  0  0  0  0  0  0
  191.3170  176.6910  147.3370 C   0  0  0  0  0  3  0  0  0  0  0  0
  192.2780  175.7730  147.2480 C   0  0  0  0  0  3  0  0  0  0  0  0
  193.1140  175.4530  148.3210 O   0  0  0  0  0  0  0  0  0  0  0  0
  193.4070  176.3670  149.3700 C   0  0  0  0  0  1  0  0  0  0  0  0
  189.7860  177.3220  142.6330 N   0  0  0  0  0  2  0  0  0  0  0  0
  190.8010  176.6830  141.8120 C   0  0  0  0  0  2  0  0  0  0  0  0
  191.0620  177.5140  140.5660 C   0  0  1  0  0  3  0  0  0  0  0  0
  192.4710  177.2580  140.0630 C   0  0  0  0  0  1  0  0  0  0  0  0
  190.0580  177.2170  139.4950 C   0  0  0  0  0  0  0  0  0  0  0  0
  188.9010  178.1420  139.2670 C   0  0  0  0  0  1  0  0  0  0  0  0
  190.2210  176.1570  138.7640 N   0  0  0  0  0  0  0  0  0  0  0  0
  189.3360  174.5180  137.1550 C   0  0  0  0  0  0  0  0  0  0  0  0
  190.1510  173.6450  137.5530 O   0  0  0  0  0  0  0  0  0  0  0  0
  189.3300  175.8210  137.7360 N   0  0  0  0  0  2  0  0  0  0  0  0
  188.3940  174.2010  136.0430 C   0  0  0  0  0  2  0  0  0  0  0  0
  185.2650  172.8770  137.7220 C   0  0  0  0  0  3  0  0  0  0  0  0
  186.1130  175.1770  136.3730 C   0  0  0  0  0  3  0  0  0  0  0  0
  184.8050  175.0960  136.8640 C   0  0  0  0  0  3  0  0  0  0  0  0
  186.9970  174.1070  136.5530 C   0  0  0  0  0  0  0  0  0  0  0  0
  186.5720  172.9580  137.2310 C   0  0  0  0  0  3  0  0  0  0  0  0
  184.3810  173.9450  137.5370 C   0  0  0  0  0  3  0  0  0  0  0  0
  1  9  1  0  0  0  0
  2 10  1  0  0  0  0
  3 14  2  0  0  0  0
  3 11  1  0  0  0  0
  5  7  2  0  0  0  0
  5 17  1  0  0  0  0
  6 13  2  0  0  0  0
  6 14  1  0  0  0  0
  7  9  1  0  0  0  0
  8 12  1  0  0  0  0
  8  2  2  0  0  0  0
 10 11  1  0  0  0  0
 10  4  2  0  0  0  0
 11  1  2  0  0  0  0
 12  3  1  0  0  0  0
 13  5  1  0  0  0  0
 14  7  1  0  0  0  0
 15  8  1  0  0  0  0
 16 15  1  0  0  0  0
 18 17  2  0  0  0  0
 18 19  1  0  0  0  0
 19 20  1  0  0  0  0
 21  6  1  0  0  0  0
 22 21  1  0  0  0  0
 23 24  1  6  0  0  0
 23 22  1  0  0  0  0
 25 23  1  0  0  0  0
 26 25  1  0  0  0  0
 27 25  2  0  0  0  0
 28 29  2  0  0  0  0
 28 30  1  0  0  0  0
 30 27  1  0  0  0  0
 31 35  1  0  0  0  0
 31 28  1  0  0  0  0
 33 35  2  0  0  0  0
 33 34  1  0  0  0  0
 34 37  2  0  0  0  0
 35 36  1  0  0  0  0
 36 32  2  0  0  0  0
 37 32  1  0  0  0  0
M  END
>  <MODEL>
4

>  <REMARK>
 VINA RESULT:      -9.7      3.210      6.979
  Name = 
  10 active torsions:
  status: ('A' for Active; 'I' for Inactive)
    1  A    between atoms: C_1  and  C_32
    2  A    between atoms: O_4  and  C_21
    3  A    between atoms: O_5  and  C_29
    4  A    between atoms: C_7  and  C_24
    5  A    between atoms: C_7  and  C_25
    6  A    between atoms: N_10  and  C_17
    7  A    between atoms: N_10  and  C_25
    8  A    between atoms: N_12  and  N_33
    9  A    between atoms: C_14  and  C_27
   10  A    between atoms: C_22  and  C_32
                            x       y       z     vdW  Elec       q    Type
                         _______ _______ _______ _____ _____    ______ ____

>  <TORSDO>
F 10

$$$$
=
 OpenBabel10222421163D

 37 40  0  0  1  0  0  0  0  0999 V2000
  185.9870  178.2740  147.3530 C   0  0  0  0  0  3  0  0  0  0  0  0
  189.5940  177.3560  147.6940 N   0  0  0  0  0  0  0  0  0  0  0  0
  187.6890  177.8150  145.6130 C   0  0  0  0  0  0  0  0  0  0  0  0
  187.9830  177.8830  149.2870 O   0  0  0  0  0  0  0  0  0  0  0  0
  184.7650  178.5260  143.8010 C   0  0  0  0  0  0  0  0  0  0  0  0
  186.8440  177.8830  143.1790 C   0  0  0  0  0  0  0  0  0  0  0  0
  185.3970  178.2820  144.9410 C   0  0  2  0  0  3  0  0  0  0  0  0
  190.0150  177.3070  146.4600 C   0  0  0  0  0  0  0  0  0  0  0  0
  184.8930  178.5020  146.3360 C   0  0  0  0  0  3  0  0  0  0  0  0
  188.2730  177.7560  148.0670 C   0  0  0  0  0  0  0  0  0  0  0  0
  187.2600  177.9760  147.0260 C   0  0  0  0  0  0  0  0  0  0  0  0
  189.1560  177.7520  145.3030 C   0  0  0  0  0  2  0  0  0  0  0  0
  185.6740  178.2620  142.6730 C   0  0  0  0  0  3  0  0  0  0  0  0
  186.7600  177.8930  144.6480 C   0  0  0  0  0  0  0  0  0  0  0  0
  191.3130  176.8780  146.1770 O   0  0  0  0  0  0  0  0  0  0  0  0
  192.0140  175.9710  147.0150 C   0  0  0  0  0  1  0  0  0  0  0  0
  183.3810  179.0030  143.6970 C   0  0  0  0  0  3  0  0  0  0  0  0
  182.6550  178.8060  142.5980 C   0  0  0  0  0  3  0  0  0  0  0  0
  181.3360  179.2520  142.4760 O   0  0  0  0  0  0  0  0  0  0  0  0
  180.6330  179.2500  141.2410 C   0  0  0  0  0  1  0  0  0  0  0  0
  187.9080  177.4000  142.3560 N   0  0  0  0  0  2  0  0  0  0  0  0
  188.9220  178.2600  141.7680 C   0  0  0  0  0  2  0  0  0  0  0  0
  190.0920  177.4250  141.2760 C   0  0  1  0  0  3  0  0  0  0  0  0
  190.1930  176.1500  142.0920 C   0  0  0  0  0  1  0  0  0  0  0  0
  189.9590  177.1080  139.8180 C   0  0  0  0  0  0  0  0  0  0  0  0
  191.0800  176.4330  139.0860 C   0  0  0  0  0  1  0  0  0  0  0  0
  188.8540  177.4140  139.2120 N   0  0  0  0  0  0  0  0  0  0  0  0
  188.5770  178.1890  136.8920 C   0  0  0  0  0  0  0  0  0  0  0  0
  188.6840  179.3910  137.2510 O   0  0  0  0  0  0  0  0  0  0  0  0
  188.6520  177.1380  137.8530 N   0  0  0  0  0  2  0  0  0  0  0  0
  188.3330  177.8630  135.4580 C   0  0  0  0  0  2  0  0  0  0  0  0
  184.8060  176.4760  135.4680 C   0  0  0  0  0  3  0  0  0  0  0  0
  187.4030  175.6080  134.8930 C   0  0  0  0  0  3  0  0  0  0  0  0
  186.3250  174.7280  134.7540 C   0  0  0  0  0  3  0  0  0  0  0  0
  187.1850  176.9220  135.3240 C   0  0  0  0  0  0  0  0  0  0  0  0
  185.8840  177.3550  135.6080 C   0  0  0  0  0  3  0  0  0  0  0  0
  185.0260  175.1620  135.0420 C   0  0  0  0  0  3  0  0  0  0  0  0
  2 10  1  0  0  0  0
  3 11  2  0  0  0  0
  5  7  1  0  0  0  0
  6 14  2  0  0  0  0
  7  9  1  1  0  0  0
  8  2  2  0  0  0  0
  9  1  2  0  0  0  0
 10  4  2  0  0  0  0
 11  1  1  0  0  0  0
 11 10  1  0  0  0  0
 12  3  1  0  0  0  0
 12  8  1  0  0  0  0
 13  6  1  0  0  0  0
 13  5  2  0  0  0  0
 14  7  1  0  0  0  0
 14  3  1  0  0  0  0
 15  8  1  0  0  0  0
 15 16  1  0  0  0  0
 17  5  1  0  0  0  0
 18 17  2  0  0  0  0
 19 18  1  0  0  0  0
 20 19  1  0  0  0  0
 21  6  1  0  0  0  0
 22 21  1  0  0  0  0
 23 22  1  0  0  0  0
 23 24  1  1  0  0  0
 25 23  1  0  0  0  0
 26 25  1  0  0  0  0
 27 25  2  0  0  0  0
 28 29  2  0  0  0  0
 28 30  1  0  0  0  0
 30 27  1  0  0  0  0
 31 28  1  0  0  0  0
 32 36  1  0  0  0  0
 33 35  1  0  0  0  0
 34 33  2  0  0  0  0
 34 37  1  0  0  0  0
 35 31  1  0  0  0  0
 35 36  2  0  0  0  0
 37 32  2  0  0  0  0
M  END
>  <MODEL>
5

>  <REMARK>
 VINA RESULT:      -9.5      2.776      4.340
  Name = 
  10 active torsions:
  status: ('A' for Active; 'I' for Inactive)
    1  A    between atoms: C_1  and  C_32
    2  A    between atoms: O_4  and  C_21
    3  A    between atoms: O_5  and  C_29
    4  A    between atoms: C_7  and  C_24
    5  A    between atoms: C_7  and  C_25
    6  A    between atoms: N_10  and  C_17
    7  A    between atoms: N_10  and  C_25
    8  A    between atoms: N_12  and  N_33
    9  A    between atoms: C_14  and  C_27
   10  A    between atoms: C_22  and  C_32
                            x       y       z     vdW  Elec       q    Type
                         _______ _______ _______ _____ _____    ______ ____

>  <TORSDO>
F 10

$$$$
=
 OpenBabel10222421163D

 37 40  0  0  1  0  0  0  0  0999 V2000
  186.3810  177.8270  146.1530 C   0  0  0  0  0  3  0  0  0  0  0  0
  189.7960  177.0290  147.4450 N   0  0  0  0  0  0  0  0  0  0  0  0
  188.5340  177.6150  144.9480 C   0  0  0  0  0  0  0  0  0  0  0  0
  187.7660  177.3270  148.5410 O   0  0  0  0  0  0  0  0  0  0  0  0
  186.2060  178.3830  142.4330 C   0  0  0  0  0  0  0  0  0  0  0  0
  188.4140  177.8910  142.3880 C   0  0  0  0  0  0  0  0  0  0  0  0
  186.5010  178.0520  143.6820 C   0  0  2  0  0  3  0  0  0  0  0  0
  190.5520  177.1210  146.3860 C   0  0  0  0  0  0  0  0  0  0  0  0
  185.6080  178.1100  144.8840 C   0  0  0  0  0  3  0  0  0  0  0  0
  188.3980  177.3340  147.4510 C   0  0  0  0  0  0  0  0  0  0  0  0
  187.7120  177.6160  146.1840 C   0  0  0  0  0  0  0  0  0  0  0  0
  190.0300  177.6440  145.0710 C   0  0  0  0  0  2  0  0  0  0  0  0
  187.4140  178.2710  141.5990 C   0  0  0  0  0  3  0  0  0  0  0  0
  187.9150  177.7510  143.7650 C   0  0  0  0  0  0  0  0  0  0  0  0
  191.9040  176.7760  146.4560 O   0  0  0  0  0  0  0  0  0  0  0  0
  192.3720  175.6910  147.2430 C   0  0  0  0  0  1  0  0  0  0  0  0
  184.8790  178.8100  141.9730 C   0  0  0  0  0  3  0  0  0  0  0  0
  184.5350  178.7580  140.6880 C   0  0  0  0  0  3  0  0  0  0  0  0
  183.2780  179.1600  140.2270 O   0  0  0  0  0  0  0  0  0  0  0  0
  183.0850  179.7920  138.9680 C   0  0  0  0  0  1  0  0  0  0  0  0
  189.6990  177.5370  141.8710 N   0  0  0  0  0  2  0  0  0  0  0  0
  189.8900  176.6610  140.7270 C   0  0  0  0  0  2  0  0  0  0  0  0
  190.3480  177.4680  139.5230 C   0  0  1  0  0  3  0  0  0  0  0  0
  191.5040  176.7610  138.8400 C   0  0  0  0  0  1  0  0  0  0  0  0
  189.2230  177.6920  138.5590 C   0  0  0  0  0  0  0  0  0  0  0  0
  189.1850  178.9330  137.7190 C   0  0  0  0  0  1  0  0  0  0  0  0
  188.3000  176.7870  138.4580 N   0  0  0  0  0  0  0  0  0  0  0  0
  186.5910  175.7760  137.0020 C   0  0  0  0  0  0  0  0  0  0  0  0
  186.9960  174.6170  137.2850 O   0  0  0  0  0  0  0  0  0  0  0  0
  187.2240  176.9210  137.5700 N   0  0  0  0  0  2  0  0  0  0  0  0
  185.4670  175.9540  136.0390 C   0  0  0  0  0  2  0  0  0  0  0  0
  182.5620  175.9450  138.4730 C   0  0  0  0  0  3  0  0  0  0  0  0
  183.3110  174.6840  136.0900 C   0  0  0  0  0  3  0  0  0  0  0  0
  182.0840  174.3780  136.6880 C   0  0  0  0  0  3  0  0  0  0  0  0
  184.1670  175.6180  136.6850 C   0  0  0  0  0  0  0  0  0  0  0  0
  183.7890  176.2500  137.8760 C   0  0  0  0  0  3  0  0  0  0  0  0
  181.7100  175.0080  137.8800 C   0  0  0  0  0  3  0  0  0  0  0  0
  1 11  1  0  0  0  0
  2 10  1  0  0  0  0
  3 12  1  0  0  0  0
  3 11  2  0  0  0  0
  5  7  1  0  0  0  0
  6 14  2  0  0  0  0
  7 14  1  0  0  0  0
  7  9  1  1  0  0  0
  8 15  1  0  0  0  0
  8  2  2  0  0  0  0
  9  1  2  0  0  0  0
 10  4  2  0  0  0  0
 11 10  1  0  0  0  0
 12  8  1  0  0  0  0
 13  6  1  0  0  0  0
 13  5  2  0  0  0  0
 14  3  1  0  0  0  0
 15 16  1  0  0  0  0
 17  5  1  0  0  0  0
 18 17  2  0  0  0  0
 19 18  1  0  0  0  0
 20 19  1  0  0  0  0
 21  6  1  0  0  0  0
 22 21  1  0  0  0  0
 23 24  1  6  0  0  0
 23 22  1  0  0  0  0
 25 23  1  0  0  0  0
 26 25  1  0  0  0  0
 27 25  2  0  0  0  0
 28 29  2  0  0  0  0
 28 30  1  0  0  0  0
 30 27  1  0  0  0  0
 31 35  1  0  0  0  0
 31 28  1  0  0  0  0
 33 35  2  0  0  0  0
 33 34  1  0  0  0  0
 34 37  2  0  0  0  0
 35 36  1  0  0  0  0
 36 32  2  0  0  0  0
 37 32  1  0  0  0  0
M  END
>  <MODEL>
6

>  <REMARK>
 VINA RESULT:      -9.2      3.306      5.969
  Name = 
  10 active torsions:
  status: ('A' for Active; 'I' for Inactive)
    1  A    between atoms: C_1  and  C_32
    2  A    between atoms: O_4  and  C_21
    3  A    between atoms: O_5  and  C_29
    4  A    between atoms: C_7  and  C_24
    5  A    between atoms: C_7  and  C_25
    6  A    between atoms: N_10  and  C_17
    7  A    between atoms: N_10  and  C_25
    8  A    between atoms: N_12  and  N_33
    9  A    between atoms: C_14  and  C_27
   10  A    between atoms: C_22  and  C_32
                            x       y       z     vdW  Elec       q    Type
                         _______ _______ _______ _____ _____    ______ ____

>  <TORSDO>
F 10

$$$$
=
 OpenBabel10222421163D

 37 40  0  0  1  0  0  0  0  0999 V2000
  186.0770  178.1320  147.0870 C   0  0  0  0  0  3  0  0  0  0  0  0
  189.7210  177.3030  147.0860 N   0  0  0  0  0  0  0  0  0  0  0  0
  187.6500  177.8540  145.1950 C   0  0  0  0  0  0  0  0  0  0  0  0
  188.2250  177.6620  148.8300 O   0  0  0  0  0  0  0  0  0  0  0  0
  184.5790  178.6070  143.6650 C   0  0  0  0  0  0  0  0  0  0  0  0
  186.6190  178.0750  142.8420 C   0  0  0  0  0  0  0  0  0  0  0  0
  185.3020  178.2990  144.7330 C   0  0  2  0  0  3  0  0  0  0  0  0
  190.0460  177.3570  145.8240 C   0  0  0  0  0  0  0  0  0  0  0  0
  184.9020  178.4000  146.1740 C   0  0  0  0  0  3  0  0  0  0  0  0
  188.4220  177.6330  147.5860 C   0  0  0  0  0  0  0  0  0  0  0  0
  187.3280  177.8980  146.6440 C   0  0  0  0  0  0  0  0  0  0  0  0
  189.0900  177.8600  144.7710 C   0  0  0  0  0  2  0  0  0  0  0  0
  185.4050  178.4540  142.4560 C   0  0  0  0  0  3  0  0  0  0  0  0
  186.6480  177.9750  144.3100 C   0  0  0  0  0  0  0  0  0  0  0  0
  191.3290  176.9900  145.4130 O   0  0  0  0  0  0  0  0  0  0  0  0
  191.5550  176.1120  144.3200 C   0  0  0  0  0  1  0  0  0  0  0  0
  183.1790  179.0470  143.7010 C   0  0  0  0  0  3  0  0  0  0  0  0
  182.3060  178.6760  142.7680 C   0  0  0  0  0  3  0  0  0  0  0  0
  180.9690  179.0840  142.7820 O   0  0  0  0  0  0  0  0  0  0  0  0
  180.0380  178.6420  143.7620 C   0  0  0  0  0  1  0  0  0  0  0  0
  187.6280  177.6860  141.9080 N   0  0  0  0  0  2  0  0  0  0  0  0
  188.3080  178.6210  141.0260 C   0  0  0  0  0  2  0  0  0  0  0  0
  189.5190  177.9550  140.3940 C   0  0  1  0  0  3  0  0  0  0  0  0
  189.9180  176.7370  141.2070 C   0  0  0  0  0  1  0  0  0  0  0  0
  189.2480  177.5730  138.9710 C   0  0  0  0  0  0  0  0  0  0  0  0
  189.0500  178.6330  137.9300 C   0  0  0  0  0  1  0  0  0  0  0  0
  189.2050  176.3150  138.6610 N   0  0  0  0  0  0  0  0  0  0  0  0
  189.5070  174.6490  136.8720 C   0  0  0  0  0  0  0  0  0  0  0  0
  190.2140  173.9290  137.6240 O   0  0  0  0  0  0  0  0  0  0  0  0
  188.9690  175.8820  137.3480 N   0  0  0  0  0  2  0  0  0  0  0  0
  189.2610  174.2310  135.4630 C   0  0  0  0  0  2  0  0  0  0  0  0
  187.6910  170.7990  135.1250 C   0  0  0  0  0  3  0  0  0  0  0  0
  186.8950  173.4320  135.6360 C   0  0  0  0  0  3  0  0  0  0  0  0
  185.9430  172.4080  135.6020 C   0  0  0  0  0  3  0  0  0  0  0  0
  188.2450  173.1420  135.4110 C   0  0  0  0  0  0  0  0  0  0  0  0
  188.6420  171.8220  135.1580 C   0  0  0  0  0  3  0  0  0  0  0  0
  186.3410  171.0910  135.3450 C   0  0  0  0  0  3  0  0  0  0  0  0
  2 10  1  0  0  0  0
  3 11  2  0  0  0  0
  5 17  1  0  0  0  0
  5  7  1  0  0  0  0
  6 14  2  0  0  0  0
  7  9  1  1  0  0  0
  8  2  2  0  0  0  0
  9  1  2  0  0  0  0
 10  4  2  0  0  0  0
 11  1  1  0  0  0  0
 11 10  1  0  0  0  0
 12  3  1  0  0  0  0
 12  8  1  0  0  0  0
 13  6  1  0  0  0  0
 13  5  2  0  0  0  0
 14  7  1  0  0  0  0
 14  3  1  0  0  0  0
 15  8  1  0  0  0  0
 16 15  1  0  0  0  0
 18 19  1  0  0  0  0
 18 17  2  0  0  0  0
 19 20  1  0  0  0  0
 21  6  1  0  0  0  0
 22 21  1  0  0  0  0
 23 22  1  0  0  0  0
 23 24  1  1  0  0  0
 25 23  1  0  0  0  0
 26 25  1  0  0  0  0
 27 25  2  0  0  0  0
 28 30  1  0  0  0  0
 28 29  2  0  0  0  0
 30 27  1  0  0  0  0
 31 28  1  0  0  0  0
 32 36  2  0  0  0  0
 32 37  1  0  0  0  0
 34 33  1  0  0  0  0
 35 31  1  0  0  0  0
 35 33  2  0  0  0  0
 36 35  1  0  0  0  0
 37 34  2  0  0  0  0
M  END
>  <MODEL>
7

>  <REMARK>
 VINA RESULT:      -9.0      3.118      4.170
  Name = 
  10 active torsions:
  status: ('A' for Active; 'I' for Inactive)
    1  A    between atoms: C_1  and  C_32
    2  A    between atoms: O_4  and  C_21
    3  A    between atoms: O_5  and  C_29
    4  A    between atoms: C_7  and  C_24
    5  A    between atoms: C_7  and  C_25
    6  A    between atoms: N_10  and  C_17
    7  A    between atoms: N_10  and  C_25
    8  A    between atoms: N_12  and  N_33
    9  A    between atoms: C_14  and  C_27
   10  A    between atoms: C_22  and  C_32
                            x       y       z     vdW  Elec       q    Type
                         _______ _______ _______ _____ _____    ______ ____

>  <TORSDO>
F 10

$$$$
=
 OpenBabel10222421163D

 37 40  0  0  1  0  0  0  0  0999 V2000
  191.6230  177.0530  144.0370 C   0  0  0  0  0  3  0  0  0  0  0  0
  189.4870  177.3960  147.0840 N   0  0  0  0  0  0  0  0  0  0  0  0
  189.2060  177.5480  144.2430 C   0  0  0  0  0  0  0  0  0  0  0  0
  191.7330  176.8450  146.8330 O   0  0  0  0  0  0  0  0  0  0  0  0
  189.7980  177.5500  140.7820 C   0  0  0  0  0  0  0  0  0  0  0  0
  187.9630  177.9930  142.0300 C   0  0  0  0  0  0  0  0  0  0  0  0
  190.2280  177.5180  142.0350 C   0  0  2  0  0  3  0  0  0  0  0  0
  188.2910  177.5870  146.5990 C   0  0  0  0  0  0  0  0  0  0  0  0
  191.5940  177.1460  142.5280 C   0  0  0  0  0  3  0  0  0  0  0  0
  190.6370  177.1280  146.2780 C   0  0  0  0  0  0  0  0  0  0  0  0
  190.5360  177.2210  144.8160 C   0  0  0  0  0  0  0  0  0  0  0  0
  187.9940  177.4570  145.1260 C   0  0  0  0  0  2  0  0  0  0  0  0
  188.3600  177.8660  140.7670 C   0  0  0  0  0  3  0  0  0  0  0  0
  189.1090  177.7570  142.9220 C   0  0  0  0  0  0  0  0  0  0  0  0
  187.2240  177.8730  147.4530 O   0  0  0  0  0  0  0  0  0  0  0  0
  185.9440  178.2550  146.9690 C   0  0  0  0  0  1  0  0  0  0  0  0
  190.6340  177.2930  139.6030 C   0  0  0  0  0  3  0  0  0  0  0  0
  190.6540  176.1020  139.0070 C   0  0  0  0  0  3  0  0  0  0  0  0
  191.4430  175.8340  137.8850 O   0  0  0  0  0  0  0  0  0  0  0  0
  192.8340  176.1230  137.8350 C   0  0  0  0  0  1  0  0  0  0  0  0
  186.6530  178.4520  142.3730 N   0  0  0  0  0  2  0  0  0  0  0  0
  185.7150  178.9980  141.4070 C   0  0  0  0  0  2  0  0  0  0  0  0
  184.3840  178.2700  141.5020 C   0  0  1  0  0  3  0  0  0  0  0  0
  183.6190  178.7580  142.7180 C   0  0  0  0  0  1  0  0  0  0  0  0
  183.5720  178.4570  140.2580 C   0  0  0  0  0  0  0  0  0  0  0  0
  182.9230  177.2790  139.5970 C   0  0  0  0  0  1  0  0  0  0  0  0
  183.4320  179.6540  139.7790 N   0  0  0  0  0  0  0  0  0  0  0  0
  181.3480  180.4210  138.7140 C   0  0  0  0  0  0  0  0  0  0  0  0
  180.8250  180.6480  139.8370 O   0  0  0  0  0  0  0  0  0  0  0  0
  182.6770  179.9080  138.6260 N   0  0  0  0  0  2  0  0  0  0  0  0
  180.5620  180.6530  137.4690 C   0  0  0  0  0  2  0  0  0  0  0  0
  181.5130  184.3190  137.3510 C   0  0  0  0  0  3  0  0  0  0  0  0
  180.4340  182.3730  135.6550 C   0  0  0  0  0  3  0  0  0  0  0  0
  180.6380  183.6740  135.1850 C   0  0  0  0  0  3  0  0  0  0  0  0
  180.7650  182.0440  136.9750 C   0  0  0  0  0  0  0  0  0  0  0  0
  181.3080  183.0180  137.8210 C   0  0  0  0  0  3  0  0  0  0  0  0
  181.1760  184.6480  136.0340 C   0  0  0  0  0  3  0  0  0  0  0  0
  1 11  1  0  0  0  0
  3 11  2  0  0  0  0
  3 12  1  0  0  0  0
  5  7  1  0  0  0  0
  6 21  1  0  0  0  0
  6 14  2  0  0  0  0
  7  9  1  1  0  0  0
  7 14  1  0  0  0  0
  8  2  2  0  0  0  0
  8 15  1  0  0  0  0
  9  1  2  0  0  0  0
 10  4  2  0  0  0  0
 10  2  1  0  0  0  0
 11 10  1  0  0  0  0
 12  8  1  0  0  0  0
 13  5  2  0  0  0  0
 13  6  1  0  0  0  0
 14  3  1  0  0  0  0
 16 15  1  0  0  0  0
 17  5  1  0  0  0  0
 18 17  2  0  0  0  0
 19 18  1  0  0  0  0
 20 19  1  0  0  0  0
 22 23  1  0  0  0  0
 22 21  1  0  0  0  0
 23 24  1  1  0  0  0
 25 23  1  0  0  0  0
 26 25  1  0  0  0  0
 27 25  2  0  0  0  0
 28 29  2  0  0  0  0
 30 28  1  0  0  0  0
 30 27  1  0  0  0  0
 31 28  1  0  0  0  0
 32 36  1  0  0  0  0
 33 35  1  0  0  0  0
 34 33  2  0  0  0  0
 34 37  1  0  0  0  0
 35 31  1  0  0  0  0
 35 36  2  0  0  0  0
 37 32  2  0  0  0  0
M  END
>  <MODEL>
8

>  <REMARK>
 VINA RESULT:      -9.0      3.845      9.486
  Name = 
  10 active torsions:
  status: ('A' for Active; 'I' for Inactive)
    1  A    between atoms: C_1  and  C_32
    2  A    between atoms: O_4  and  C_21
    3  A    between atoms: O_5  and  C_29
    4  A    between atoms: C_7  and  C_24
    5  A    between atoms: C_7  and  C_25
    6  A    between atoms: N_10  and  C_17
    7  A    between atoms: N_10  and  C_25
    8  A    between atoms: N_12  and  N_33
    9  A    between atoms: C_14  and  C_27
   10  A    between atoms: C_22  and  C_32
                            x       y       z     vdW  Elec       q    Type
                         _______ _______ _______ _____ _____    ______ ____

>  <TORSDO>
F 10

$$$$
=
 OpenBabel10222421163D

 37 40  0  0  1  0  0  0  0  0999 V2000
  191.6660  176.9310  144.3860 C   0  0  0  0  0  3  0  0  0  0  0  0
  189.5390  177.4140  147.4210 N   0  0  0  0  0  0  0  0  0  0  0  0
  189.2690  177.5220  144.5780 C   0  0  0  0  0  0  0  0  0  0  0  0
  191.7630  176.7740  147.1860 O   0  0  0  0  0  0  0  0  0  0  0  0
  189.8660  177.4350  141.1180 C   0  0  0  0  0  0  0  0  0  0  0  0
  188.0470  177.9710  142.3530 C   0  0  0  0  0  0  0  0  0  0  0  0
  190.2930  177.4100  142.3730 C   0  0  2  0  0  3  0  0  0  0  0  0
  188.3520  177.6400  146.9300 C   0  0  0  0  0  0  0  0  0  0  0  0
  191.6430  176.9970  142.8760 C   0  0  0  0  0  3  0  0  0  0  0  0
  190.6800  177.0870  146.6230 C   0  0  0  0  0  0  0  0  0  0  0  0
  190.5850  177.1560  145.1590 C   0  0  0  0  0  0  0  0  0  0  0  0
  188.0530  177.4940  145.4590 C   0  0  0  0  0  2  0  0  0  0  0  0
  188.4410  177.8040  141.0940 C   0  0  0  0  0  3  0  0  0  0  0  0
  189.1820  177.7080  143.2520 C   0  0  0  0  0  0  0  0  0  0  0  0
  187.2950  177.9820  147.7750 O   0  0  0  0  0  0  0  0  0  0  0  0
  186.1380  178.6610  147.3090 C   0  0  0  0  0  1  0  0  0  0  0  0
  190.6940  177.1230  139.9460 C   0  0  0  0  0  3  0  0  0  0  0  0
  190.1970  177.1530  138.7120 C   0  0  0  0  0  3  0  0  0  0  0  0
  190.9660  176.8580  137.5820 O   0  0  0  0  0  0  0  0  0  0  0  0
  192.2960  176.3620  137.6640 C   0  0  0  0  0  1  0  0  0  0  0  0
  186.7550  178.4850  142.6840 N   0  0  0  0  0  2  0  0  0  0  0  0
  185.7570  178.8480  141.6920 C   0  0  0  0  0  2  0  0  0  0  0  0
  184.4130  178.2390  142.0570 C   0  0  1  0  0  3  0  0  0  0  0  0
  184.0320  178.6470  143.4680 C   0  0  0  0  0  1  0  0  0  0  0  0
  183.3500  178.6460  141.0850 C   0  0  0  0  0  0  0  0  0  0  0  0
  183.7190  179.0640  139.6930 C   0  0  0  0  0  1  0  0  0  0  0  0
  182.1110  178.6140  141.4670 N   0  0  0  0  0  0  0  0  0  0  0  0
  180.0900  179.9400  140.9970 C   0  0  0  0  0  0  0  0  0  0  0  0
  180.1570  180.4930  142.1260 O   0  0  0  0  0  0  0  0  0  0  0  0
  181.0610  178.9690  140.6090 N   0  0  0  0  0  2  0  0  0  0  0  0
  178.9700  180.2750  140.0720 C   0  0  0  0  0  2  0  0  0  0  0  0
  180.7120  182.4800  137.5300 C   0  0  0  0  0  3  0  0  0  0  0  0
  179.3040  180.0630  137.6000 C   0  0  0  0  0  3  0  0  0  0  0  0
  179.8110  180.5420  136.3880 C   0  0  0  0  0  3  0  0  0  0  0  0
  179.4970  180.7940  138.7780 C   0  0  0  0  0  0  0  0  0  0  0  0
  180.2050  182.0020  138.7420 C   0  0  0  0  0  3  0  0  0  0  0  0
  180.5140  181.7520  136.3530 C   0  0  0  0  0  3  0  0  0  0  0  0
  1 11  1  0  0  0  0
  3 11  2  0  0  0  0
  3 12  1  0  0  0  0
  5  7  1  0  0  0  0
  6 21  1  0  0  0  0
  6 14  2  0  0  0  0
  7  9  1  1  0  0  0
  7 14  1  0  0  0  0
  8  2  2  0  0  0  0
  8 15  1  0  0  0  0
  9  1  2  0  0  0  0
 10  4  2  0  0  0  0
 10  2  1  0  0  0  0
 11 10  1  0  0  0  0
 12  8  1  0  0  0  0
 13  5  2  0  0  0  0
 13  6  1  0  0  0  0
 14  3  1  0  0  0  0
 16 15  1  0  0  0  0
 17  5  1  0  0  0  0
 18 17  2  0  0  0  0
 19 20  1  0  0  0  0
 19 18  1  0  0  0  0
 22 23  1  0  0  0  0
 22 21  1  0  0  0  0
 23 24  1  1  0  0  0
 25 27  2  0  0  0  0
 25 23  1  0  0  0  0
 26 25  1  0  0  0  0
 28 29  2  0  0  0  0
 30 28  1  0  0  0  0
 30 27  1  0  0  0  0
 31 28  1  0  0  0  0
 32 36  1  0  0  0  0
 33 35  1  0  0  0  0
 34 33  2  0  0  0  0
 35 31  1  0  0  0  0
 36 35  2  0  0  0  0
 37 34  1  0  0  0  0
 37 32  2  0  0  0  0
M  END
>  <MODEL>
9

>  <REMARK>
 VINA RESULT:      -8.7      3.066      9.680
  Name = 
  10 active torsions:
  status: ('A' for Active; 'I' for Inactive)
    1  A    between atoms: C_1  and  C_32
    2  A    between atoms: O_4  and  C_21
    3  A    between atoms: O_5  and  C_29
    4  A    between atoms: C_7  and  C_24
    5  A    between atoms: C_7  and  C_25
    6  A    between atoms: N_10  and  C_17
    7  A    between atoms: N_10  and  C_25
    8  A    between atoms: N_12  and  N_33
    9  A    between atoms: C_14  and  C_27
   10  A    between atoms: C_22  and  C_32
                            x       y       z     vdW  Elec       q    Type
                         _______ _______ _______ _____ _____    ______ ____

>  <TORSDO>
F 10

$$$$
