=
 OpenBabel10222418463D

 29 32  0  0  1  0  0  0  0  0999 V2000
  188.1520  177.6550  145.0520 C   0  0  0  0  0  3  0  0  0  0  0  0
  186.7940  177.9280  145.2120 C   0  0  0  0  0  0  0  0  0  0  0  0
  184.5760  178.2850  146.0010 C   0  0  0  0  0  2  0  0  0  0  0  0
  187.8360  177.8260  142.6440 C   0  0  0  0  0  3  0  0  0  0  0  0
  184.6420  178.3610  144.5430 N   0  0  0  0  0  0  0  0  0  0  0  0
  186.4700  178.0880  142.8310 C   0  0  0  0  0  3  0  0  0  0  0  0
  185.9800  178.1360  144.1360 C   0  0  0  0  0  0  0  0  0  0  0  0
  186.5010  179.1650  147.3270 C   0  0  0  0  0  1  0  0  0  0  0  0
  188.7000  177.6250  143.7490 C   0  0  0  0  0  0  0  0  0  0  0  0
  186.0170  178.0020  146.4820 C   0  0  2  0  0  3  0  0  0  0  0  0
  183.5770  178.5930  142.3570 N   0  0  0  0  0  0  0  0  0  0  0  0
  182.2800  178.8980  144.1560 N   0  0  0  0  0  0  0  0  0  0  0  0
  182.3570  178.8690  141.9280 N   0  0  0  0  0  2  0  0  0  0  0  0
  183.5130  178.6150  143.6970 C   0  0  0  0  0  0  0  0  0  0  0  0
  181.5790  179.0520  143.0140 C   0  0  0  0  0  3  0  0  0  0  0  0
  190.1710  177.2790  143.5510 C   0  0  2  0  0  0  0  0  0  0  0  0
  191.9360  175.9260  147.2830 C   0  0  0  0  0  0  0  0  0  0  0  0
  192.5130  175.5010  148.4710 O   0  0  0  0  0  1  0  0  0  0  0  0
  191.7410  175.7760  144.8760 C   0  0  0  0  0  3  0  0  0  0  0  0
  190.7460  176.7720  144.8760 C   0  0  0  0  0  0  0  0  0  0  0  0
  192.3240  175.3510  146.0720 C   0  0  0  0  0  3  0  0  0  0  0  0
  190.3850  177.3590  146.1020 C   0  0  0  0  0  3  0  0  0  0  0  0
  190.9690  176.9340  147.2980 C   0  0  0  0  0  3  0  0  0  0  0  0
  190.8630  179.5780  144.0000 O   0  0  0  0  0  1  0  0  0  0  0  0
  190.9510  178.5290  143.0810 C   0  0  0  0  0  2  0  0  0  0  0  0
  190.2240  176.2160  142.4360 C   0  0  0  0  0  2  0  0  0  0  0  0
  190.8940  176.7040  141.2350 N   0  0  0  0  0  2  0  0  0  0  0  0
  190.2730  176.7230  139.9480 C   0  0  0  0  0  3  0  0  0  0  0  0
  189.7200  177.8230  139.4510 C   0  0  0  0  0  2  0  0  0  0  0  0
  1  2  1  0  0  0  0
  2 10  1  0  0  0  0
  3 10  1  0  0  0  0
  4  6  2  0  0  0  0
  4  9  1  0  0  0  0
  5  3  1  0  0  0  0
  6  7  1  0  0  0  0
  7  5  1  0  0  0  0
  7  2  2  0  0  0  0
  9  1  2  0  0  0  0
 10  8  1  1  0  0  0
 11 14  2  0  0  0  0
 13 11  1  0  0  0  0
 13 15  1  0  0  0  0
 14 12  1  0  0  0  0
 14  5  1  0  0  0  0
 15 12  2  0  0  0  0
 16 26  1  6  0  0  0
 16  9  1  0  0  0  0
 16 20  1  0  0  0  0
 17 23  1  0  0  0  0
 17 18  1  0  0  0  0
 19 21  1  0  0  0  0
 20 19  2  0  0  0  0
 20 22  1  0  0  0  0
 21 17  2  0  0  0  0
 22 23  2  0  0  0  0
 25 16  1  0  0  0  0
 25 24  1  0  0  0  0
 27 26  1  0  0  0  0
 28 27  1  0  0  0  0
 29 28  2  0  0  0  0
M  END
>  <MODEL>
1

>  <REMARK>
 VINA RESULT:      -8.8      0.000      0.000
  Name = 
  7 active torsions:
  status: ('A' for Active; 'I' for Inactive)
    1  A    between atoms: C_1  and  N_14
    2  A    between atoms: N_11  and  C_24
    3  A    between atoms: N_14  and  C_22
    4  A    between atoms: C_15  and  C_19
    5  A    between atoms: C_17  and  C_19
    6  A    between atoms: C_19  and  C_22
    7  A    between atoms: C_19  and  C_26
                            x       y       z     vdW  Elec       q    Type
                         _______ _______ _______ _____ _____    ______ ____

>  <TORSDO>
F 7

$$$$
=
 OpenBabel10222418463D

 29 32  0  0  1  0  0  0  0  0999 V2000
  187.1960  177.7520  143.2590 C   0  0  0  0  0  3  0  0  0  0  0  0
  185.9050  178.1570  142.9220 C   0  0  0  0  0  0  0  0  0  0  0  0
  183.5830  178.6810  142.8410 C   0  0  0  0  0  2  0  0  0  0  0  0
  187.8640  178.1900  140.9600 C   0  0  0  0  0  3  0  0  0  0  0  0
  184.2230  178.8910  141.5430 N   0  0  0  0  0  0  0  0  0  0  0  0
  186.5550  178.5840  140.6430 C   0  0  0  0  0  3  0  0  0  0  0  0
  185.5960  178.5590  141.6540 C   0  0  0  0  0  0  0  0  0  0  0  0
  184.8840  179.2070  144.9080 C   0  0  0  0  0  1  0  0  0  0  0  0
  188.2090  177.7870  142.2740 C   0  0  0  0  0  0  0  0  0  0  0  0
  184.6970  178.1930  143.7950 C   0  0  2  0  0  3  0  0  0  0  0  0
  184.1230  180.0910  139.4180 N   0  0  0  0  0  0  0  0  0  0  0  0
  182.2440  179.0880  140.1070 N   0  0  0  0  0  0  0  0  0  0  0  0
  183.1910  180.3180  138.5080 N   0  0  0  0  0  2  0  0  0  0  0  0
  183.5370  179.3510  140.3720 C   0  0  0  0  0  0  0  0  0  0  0  0
  182.0620  179.7130  138.9260 C   0  0  0  0  0  3  0  0  0  0  0  0
  189.6140  177.3010  142.6110 C   0  0  2  0  0  0  0  0  0  0  0  0
  191.9890  176.8460  139.0020 C   0  0  0  0  0  0  0  0  0  0  0  0
  192.7570  176.6900  137.8570 O   0  0  0  0  0  1  0  0  0  0  0  0
  191.7680  177.6040  141.2890 C   0  0  0  0  0  3  0  0  0  0  0  0
  190.4240  177.1860  141.3170 C   0  0  0  0  0  0  0  0  0  0  0  0
  192.5410  177.4430  140.1370 C   0  0  0  0  0  3  0  0  0  0  0  0
  189.8910  176.5630  140.1730 C   0  0  0  0  0  3  0  0  0  0  0  0
  190.6660  176.4020  139.0210 C   0  0  0  0  0  3  0  0  0  0  0  0
  190.5940  175.0870  142.9320 O   0  0  0  0  0  1  0  0  0  0  0  0
  189.5440  175.9260  143.3140 C   0  0  0  0  0  2  0  0  0  0  0  0
  190.2080  178.3290  143.5930 C   0  0  0  0  0  2  0  0  0  0  0  0
  190.4420  177.7610  144.9170 N   0  0  0  0  0  2  0  0  0  0  0  0
  189.5520  177.9550  146.0180 C   0  0  0  0  0  3  0  0  0  0  0  0
  189.3430  177.0110  146.9280 C   0  0  0  0  0  2  0  0  0  0  0  0
  2  1  1  0  0  0  0
  2 10  1  0  0  0  0
  3 10  1  0  0  0  0
  4  9  1  0  0  0  0
  5  7  1  0  0  0  0
  5  3  1  0  0  0  0
  6  4  2  0  0  0  0
  6  7  1  0  0  0  0
  7  2  2  0  0  0  0
  9 16  1  0  0  0  0
  9  1  2  0  0  0  0
 10  8  1  1  0  0  0
 11 14  2  0  0  0  0
 12 14  1  0  0  0  0
 13 15  1  0  0  0  0
 13 11  1  0  0  0  0
 14  5  1  0  0  0  0
 15 12  2  0  0  0  0
 16 25  1  1  0  0  0
 16 26  1  0  0  0  0
 17 23  2  0  0  0  0
 17 21  1  0  0  0  0
 18 17  1  0  0  0  0
 19 20  1  0  0  0  0
 20 16  1  0  0  0  0
 21 19  2  0  0  0  0
 22 20  2  0  0  0  0
 23 22  1  0  0  0  0
 24 25  1  0  0  0  0
 26 27  1  0  0  0  0
 27 28  1  0  0  0  0
 28 29  2  0  0  0  0
M  END
>  <MODEL>
2

>  <REMARK>
 VINA RESULT:      -7.7      2.522      4.702
  Name = 
  7 active torsions:
  status: ('A' for Active; 'I' for Inactive)
    1  A    between atoms: C_1  and  N_14
    2  A    between atoms: N_11  and  C_24
    3  A    between atoms: N_14  and  C_22
    4  A    between atoms: C_15  and  C_19
    5  A    between atoms: C_17  and  C_19
    6  A    between atoms: C_19  and  C_22
    7  A    between atoms: C_19  and  C_26
                            x       y       z     vdW  Elec       q    Type
                         _______ _______ _______ _____ _____    ______ ____

>  <TORSDO>
F 7

$$$$
=
 OpenBabel10222418463D

 29 32  0  0  1  0  0  0  0  0999 V2000
  191.0290  176.9840  141.1480 C   0  0  0  0  0  3  0  0  0  0  0  0
  190.7140  177.1000  139.7950 C   0  0  0  0  0  0  0  0  0  0  0  0
  190.6930  177.1700  137.4150 C   0  0  0  0  0  2  0  0  0  0  0  0
  188.8080  177.8320  141.6710 C   0  0  0  0  0  3  0  0  0  0  0  0
  189.4220  177.6290  137.9730 N   0  0  0  0  0  0  0  0  0  0  0  0
  188.5190  177.9500  140.3030 C   0  0  0  0  0  3  0  0  0  0  0  0
  189.4980  177.5700  139.3870 C   0  0  0  0  0  0  0  0  0  0  0  0
  191.9010  175.3150  138.5730 C   0  0  0  0  0  1  0  0  0  0  0  0
  190.0570  177.3310  142.1140 C   0  0  0  0  0  0  0  0  0  0  0  0
  191.5830  176.7980  138.6220 C   0  0  2  0  0  3  0  0  0  0  0  0
  187.9110  179.3480  137.1200 N   0  0  0  0  0  0  0  0  0  0  0  0
  187.5490  177.2480  136.4350 N   0  0  0  0  0  0  0  0  0  0  0  0
  186.8680  179.3660  136.3080 N   0  0  0  0  0  2  0  0  0  0  0  0
  188.3070  178.0680  137.1870 C   0  0  0  0  0  0  0  0  0  0  0  0
  186.6530  178.1000  135.8980 C   0  0  0  0  0  3  0  0  0  0  0  0
  190.4000  177.2580  143.5980 C   0  0  2  0  0  0  0  0  0  0  0  0
  186.7680  177.6880  145.9430 C   0  0  0  0  0  0  0  0  0  0  0  0
  185.6060  177.8090  146.6920 O   0  0  0  0  0  1  0  0  0  0  0  0
  187.8710  177.1340  143.8620 C   0  0  0  0  0  3  0  0  0  0  0  0
  189.1220  177.4660  144.4150 C   0  0  0  0  0  0  0  0  0  0  0  0
  186.7030  177.2520  144.6180 C   0  0  0  0  0  3  0  0  0  0  0  0
  189.1730  177.8780  145.7600 C   0  0  0  0  0  3  0  0  0  0  0  0
  188.0030  177.9960  146.5150 C   0  0  0  0  0  3  0  0  0  0  0  0
  190.9420  179.6350  143.7440 O   0  0  0  0  0  1  0  0  0  0  0  0
  191.4380  178.3460  143.9560 C   0  0  0  0  0  2  0  0  0  0  0  0
  191.0340  175.8730  143.8320 C   0  0  0  0  0  2  0  0  0  0  0  0
  192.0990  175.9110  144.8290 N   0  0  0  0  0  2  0  0  0  0  0  0
  191.9830  175.3060  146.1180 C   0  0  0  0  0  3  0  0  0  0  0  0
  191.9370  176.0270  147.2330 C   0  0  0  0  0  2  0  0  0  0  0  0
  1  9  1  0  0  0  0
  2  1  2  0  0  0  0
  3  5  1  0  0  0  0
  3 10  1  0  0  0  0
  4  9  2  0  0  0  0
  5  7  1  0  0  0  0
  6  4  1  0  0  0  0
  7  2  1  0  0  0  0
  7  6  2  0  0  0  0
  9 16  1  0  0  0  0
 10  8  1  6  0  0  0
 10  2  1  0  0  0  0
 11 14  2  0  0  0  0
 12 14  1  0  0  0  0
 13 11  1  0  0  0  0
 14  5  1  0  0  0  0
 15 13  1  0  0  0  0
 15 12  2  0  0  0  0
 16 26  1  1  0  0  0
 16 25  1  0  0  0  0
 16 20  1  0  0  0  0
 17 23  1  0  0  0  0
 17 18  1  0  0  0  0
 19 20  2  0  0  0  0
 19 21  1  0  0  0  0
 20 22  1  0  0  0  0
 21 17  2  0  0  0  0
 22 23  2  0  0  0  0
 24 25  1  0  0  0  0
 26 27  1  0  0  0  0
 27 28  1  0  0  0  0
 28 29  2  0  0  0  0
M  END
>  <MODEL>
3

>  <REMARK>
 VINA RESULT:      -7.6      3.587      6.261
  Name = 
  7 active torsions:
  status: ('A' for Active; 'I' for Inactive)
    1  A    between atoms: C_1  and  N_14
    2  A    between atoms: N_11  and  C_24
    3  A    between atoms: N_14  and  C_22
    4  A    between atoms: C_15  and  C_19
    5  A    between atoms: C_17  and  C_19
    6  A    between atoms: C_19  and  C_22
    7  A    between atoms: C_19  and  C_26
                            x       y       z     vdW  Elec       q    Type
                         _______ _______ _______ _____ _____    ______ ____

>  <TORSDO>
F 7

$$$$
=
 OpenBabel10222418463D

 29 32  0  0  1  0  0  0  0  0999 V2000
  189.7430  177.5200  141.3860 C   0  0  0  0  0  3  0  0  0  0  0  0
  188.8740  177.7660  140.3240 C   0  0  0  0  0  0  0  0  0  0  0  0
  187.8360  178.1530  138.2160 C   0  0  0  0  0  2  0  0  0  0  0  0
  187.8910  177.9250  142.9120 C   0  0  0  0  0  3  0  0  0  0  0  0
  186.8880  178.3240  139.3170 N   0  0  0  0  0  0  0  0  0  0  0  0
  187.0380  178.1790  141.8270 C   0  0  0  0  0  3  0  0  0  0  0  0
  187.5640  178.0870  140.5390 C   0  0  0  0  0  0  0  0  0  0  0  0
  189.5790  176.3750  138.4120 C   0  0  0  0  0  1  0  0  0  0  0  0
  189.2490  177.5740  142.7090 C   0  0  0  0  0  0  0  0  0  0  0  0
  189.1840  177.7680  138.8660 C   0  0  2  0  0  3  0  0  0  0  0  0
  184.9560  179.7650  139.7120 N   0  0  0  0  0  0  0  0  0  0  0  0
  184.6380  177.9750  138.4050 N   0  0  0  0  0  2  0  0  0  0  0  0
  183.6890  179.7660  139.3330 N   0  0  0  0  0  0  0  0  0  0  0  0
  185.5110  178.6810  139.1470 C   0  0  0  0  0  0  0  0  0  0  0  0
  183.5010  178.6880  138.5470 C   0  0  0  0  0  3  0  0  0  0  0  0
  190.1950  177.3570  143.8840 C   0  0  2  0  0  0  0  0  0  0  0  0
  187.9910  177.7030  147.6110 C   0  0  0  0  0  0  0  0  0  0  0  0
  187.2850  177.7980  148.8020 O   0  0  0  0  0  1  0  0  0  0  0  0
  188.0460  177.2190  145.2410 C   0  0  0  0  0  3  0  0  0  0  0  0
  189.4170  177.5350  145.1900 C   0  0  0  0  0  0  0  0  0  0  0  0
  187.3380  177.3110  146.4420 C   0  0  0  0  0  3  0  0  0  0  0  0
  190.0660  177.9030  146.3830 C   0  0  0  0  0  3  0  0  0  0  0  0
  189.3560  177.9950  147.5830 C   0  0  0  0  0  3  0  0  0  0  0  0
  190.9130  179.6910  143.9220 O   0  0  0  0  0  1  0  0  0  0  0  0
  191.3600  178.3710  143.8200 C   0  0  0  0  0  2  0  0  0  0  0  0
  190.7680  175.9340  143.7250 C   0  0  0  0  0  2  0  0  0  0  0  0
  192.0060  175.7480  144.4770 N   0  0  0  0  0  2  0  0  0  0  0  0
  192.0800  174.9790  145.6800 C   0  0  0  0  0  3  0  0  0  0  0  0
  192.3350  175.5390  146.8570 C   0  0  0  0  0  2  0  0  0  0  0  0
  1  9  1  0  0  0  0
  2  7  1  0  0  0  0
  2  1  2  0  0  0  0
  3 10  1  0  0  0  0
  3  5  1  0  0  0  0
  5  7  1  0  0  0  0
  6  4  1  0  0  0  0
  7  6  2  0  0  0  0
  9  4  2  0  0  0  0
  9 16  1  0  0  0  0
 10  8  1  6  0  0  0
 10  2  1  0  0  0  0
 12 15  1  0  0  0  0
 12 14  1  0  0  0  0
 13 11  1  0  0  0  0
 14  5  1  0  0  0  0
 14 11  2  0  0  0  0
 15 13  2  0  0  0  0
 16 26  1  6  0  0  0
 16 20  1  0  0  0  0
 17 18  1  0  0  0  0
 19 21  1  0  0  0  0
 20 19  2  0  0  0  0
 20 22  1  0  0  0  0
 21 17  2  0  0  0  0
 22 23  2  0  0  0  0
 23 17  1  0  0  0  0
 25 16  1  0  0  0  0
 25 24  1  0  0  0  0
 26 27  1  0  0  0  0
 27 28  1  0  0  0  0
 28 29  2  0  0  0  0
M  END
>  <MODEL>
4

>  <REMARK>
 VINA RESULT:      -7.6      2.596      4.782
  Name = 
  7 active torsions:
  status: ('A' for Active; 'I' for Inactive)
    1  A    between atoms: C_1  and  N_14
    2  A    between atoms: N_11  and  C_24
    3  A    between atoms: N_14  and  C_22
    4  A    between atoms: C_15  and  C_19
    5  A    between atoms: C_17  and  C_19
    6  A    between atoms: C_19  and  C_22
    7  A    between atoms: C_19  and  C_26
                            x       y       z     vdW  Elec       q    Type
                         _______ _______ _______ _____ _____    ______ ____

>  <TORSDO>
F 7

$$$$
=
 OpenBabel10222418463D

 29 32  0  0  1  0  0  0  0  0999 V2000
  189.3840  177.0170  141.2430 C   0  0  0  0  0  3  0  0  0  0  0  0
  188.9410  177.0920  142.5630 C   0  0  0  0  0  0  0  0  0  0  0  0
  188.5940  176.8870  144.9100 C   0  0  0  0  0  2  0  0  0  0  0  0
  187.4180  178.2870  140.5780 C   0  0  0  0  0  3  0  0  0  0  0  0
  187.5190  177.6500  144.2760 N   0  0  0  0  0  0  0  0  0  0  0  0
  186.9870  178.3400  141.9130 C   0  0  0  0  0  3  0  0  0  0  0  0
  187.7790  177.7320  142.8860 C   0  0  0  0  0  0  0  0  0  0  0  0
  190.9190  177.1570  144.0380 C   0  0  0  0  0  1  0  0  0  0  0  0
  188.6290  177.6430  140.2260 C   0  0  0  0  0  0  0  0  0  0  0  0
  189.5740  176.5040  143.7790 C   0  0  2  0  0  3  0  0  0  0  0  0
  186.4710  178.6580  146.2390 N   0  0  0  0  0  0  0  0  0  0  0  0
  185.1660  178.3180  144.4530 N   0  0  0  0  0  2  0  0  0  0  0  0
  185.2580  179.0830  146.5450 N   0  0  0  0  0  0  0  0  0  0  0  0
  186.3990  178.2000  144.9800 C   0  0  0  0  0  0  0  0  0  0  0  0
  184.4740  178.8770  145.4670 C   0  0  0  0  0  3  0  0  0  0  0  0
  189.0720  177.5290  138.7710 C   0  0  2  0  0  0  0  0  0  0  0  0
  193.1400  176.0300  138.5030 C   0  0  0  0  0  0  0  0  0  0  0  0
  194.4400  175.5570  138.4010 O   0  0  0  0  0  1  0  0  0  0  0  0
  190.8040  175.8870  137.8880 C   0  0  0  0  0  3  0  0  0  0  0  0
  190.4980  176.9750  138.7270 C   0  0  0  0  0  0  0  0  0  0  0  0
  192.1150  175.4140  137.7840 C   0  0  0  0  0  3  0  0  0  0  0  0
  191.5480  177.6010  139.4240 C   0  0  0  0  0  3  0  0  0  0  0  0
  192.8580  177.1270  139.3190 C   0  0  0  0  0  3  0  0  0  0  0  0
  189.4730  178.8700  136.7710 O   0  0  0  0  0  1  0  0  0  0  0  0
  189.0220  178.9170  138.0920 C   0  0  0  0  0  2  0  0  0  0  0  0
  188.0540  176.6020  138.0770 C   0  0  0  0  0  2  0  0  0  0  0  0
  187.0820  177.3440  137.2800 N   0  0  0  0  0  2  0  0  0  0  0  0
  185.6710  177.1400  137.3820 C   0  0  0  0  0  3  0  0  0  0  0  0
  184.8740  178.0250  137.9690 C   0  0  0  0  0  2  0  0  0  0  0  0
  1  2  1  0  0  0  0
  2  7  2  0  0  0  0
  2 10  1  0  0  0  0
  4  6  2  0  0  0  0
  5  3  1  0  0  0  0
  5 14  1  0  0  0  0
  6  7  1  0  0  0  0
  7  5  1  0  0  0  0
  9  4  1  0  0  0  0
  9  1  2  0  0  0  0
 10  8  1  1  0  0  0
 10  3  1  0  0  0  0
 11 13  1  0  0  0  0
 12 14  1  0  0  0  0
 12 15  1  0  0  0  0
 14 11  2  0  0  0  0
 15 13  2  0  0  0  0
 16 26  1  6  0  0  0
 16  9  1  0  0  0  0
 17 23  1  0  0  0  0
 18 17  1  0  0  0  0
 19 20  2  0  0  0  0
 20 16  1  0  0  0  0
 20 22  1  0  0  0  0
 21 19  1  0  0  0  0
 21 17  2  0  0  0  0
 23 22  2  0  0  0  0
 24 25  1  0  0  0  0
 25 16  1  0  0  0  0
 27 28  1  0  0  0  0
 27 26  1  0  0  0  0
 28 29  2  0  0  0  0
M  END
>  <MODEL>
5

>  <REMARK>
 VINA RESULT:      -7.5      3.191      5.547
  Name = 
  7 active torsions:
  status: ('A' for Active; 'I' for Inactive)
    1  A    between atoms: C_1  and  N_14
    2  A    between atoms: N_11  and  C_24
    3  A    between atoms: N_14  and  C_22
    4  A    between atoms: C_15  and  C_19
    5  A    between atoms: C_17  and  C_19
    6  A    between atoms: C_19  and  C_22
    7  A    between atoms: C_19  and  C_26
                            x       y       z     vdW  Elec       q    Type
                         _______ _______ _______ _____ _____    ______ ____

>  <TORSDO>
F 7

$$$$
=
 OpenBabel10222418463D

 29 32  0  0  1  0  0  0  0  0999 V2000
  187.2770  177.8640  144.3020 C   0  0  0  0  0  3  0  0  0  0  0  0
  185.9410  178.1790  144.5510 C   0  0  0  0  0  0  0  0  0  0  0  0
  183.7890  178.5940  145.4800 C   0  0  0  0  0  2  0  0  0  0  0  0
  186.8220  178.0940  141.9220 C   0  0  0  0  0  3  0  0  0  0  0  0
  183.7690  178.6970  144.0220 N   0  0  0  0  0  0  0  0  0  0  0  0
  185.4790  178.3980  142.1970 C   0  0  0  0  0  3  0  0  0  0  0  0
  185.0710  178.4360  143.5300 C   0  0  0  0  0  0  0  0  0  0  0  0
  185.8200  179.3820  146.7010 C   0  0  0  0  0  1  0  0  0  0  0  0
  187.7430  177.8420  142.9680 C   0  0  0  0  0  0  0  0  0  0  0  0
  185.2450  178.2530  145.8670 C   0  0  2  0  0  3  0  0  0  0  0  0
  181.5860  179.7510  143.7180 N   0  0  0  0  0  0  0  0  0  0  0  0
  182.4000  178.5840  141.9890 N   0  0  0  0  0  2  0  0  0  0  0  0
  180.7020  179.8180  142.7370 N   0  0  0  0  0  0  0  0  0  0  0  0
  182.6000  179.0050  143.2520 C   0  0  0  0  0  0  0  0  0  0  0  0
  181.1950  179.1150  141.6990 C   0  0  0  0  0  3  0  0  0  0  0  0
  189.1870  177.4510  142.6740 C   0  0  2  0  0  0  0  0  0  0  0  0
  189.8250  177.7390  138.3870 C   0  0  0  0  0  0  0  0  0  0  0  0
  190.0200  177.8170  137.0150 O   0  0  0  0  0  1  0  0  0  0  0  0
  190.3010  176.6920  140.5150 C   0  0  0  0  0  3  0  0  0  0  0  0
  189.4470  177.5970  141.1720 C   0  0  0  0  0  0  0  0  0  0  0  0
  190.4950  176.7690  139.1340 C   0  0  0  0  0  3  0  0  0  0  0  0
  188.7590  178.5520  140.4010 C   0  0  0  0  0  3  0  0  0  0  0  0
  188.9530  178.6280  139.0190 C   0  0  0  0  0  3  0  0  0  0  0  0
  188.2550  175.2600  143.2190 O   0  0  0  0  0  1  0  0  0  0  0  0
  189.4420  175.9910  143.1160 C   0  0  0  0  0  2  0  0  0  0  0  0
  190.0730  178.3850  143.5220 C   0  0  0  0  0  2  0  0  0  0  0  0
  191.1820  177.6770  144.1530 N   0  0  0  0  0  2  0  0  0  0  0  0
  191.3060  177.5240  145.5690 C   0  0  0  0  0  3  0  0  0  0  0  0
  190.2880  177.1280  146.3250 C   0  0  0  0  0  2  0  0  0  0  0  0
  1  2  1  0  0  0  0
  2 10  1  0  0  0  0
  3 10  1  0  0  0  0
  4  6  2  0  0  0  0
  4  9  1  0  0  0  0
  5  3  1  0  0  0  0
  6  7  1  0  0  0  0
  7  5  1  0  0  0  0
  7  2  2  0  0  0  0
  9  1  2  0  0  0  0
 10  8  1  1  0  0  0
 12 14  1  0  0  0  0
 13 11  1  0  0  0  0
 14 11  2  0  0  0  0
 14  5  1  0  0  0  0
 15 12  1  0  0  0  0
 15 13  2  0  0  0  0
 16  9  1  0  0  0  0
 16 25  1  1  0  0  0
 16 26  1  0  0  0  0
 17 23  2  0  0  0  0
 17 21  1  0  0  0  0
 18 17  1  0  0  0  0
 19 20  1  0  0  0  0
 20 16  1  0  0  0  0
 21 19  2  0  0  0  0
 22 20  2  0  0  0  0
 23 22  1  0  0  0  0
 25 24  1  0  0  0  0
 26 27  1  0  0  0  0
 27 28  1  0  0  0  0
 28 29  2  0  0  0  0
M  END
>  <MODEL>
6

>  <REMARK>
 VINA RESULT:      -7.5      2.028      4.543
  Name = 
  7 active torsions:
  status: ('A' for Active; 'I' for Inactive)
    1  A    between atoms: C_1  and  N_14
    2  A    between atoms: N_11  and  C_24
    3  A    between atoms: N_14  and  C_22
    4  A    between atoms: C_15  and  C_19
    5  A    between atoms: C_17  and  C_19
    6  A    between atoms: C_19  and  C_22
    7  A    between atoms: C_19  and  C_26
                            x       y       z     vdW  Elec       q    Type
                         _______ _______ _______ _____ _____    ______ ____

>  <TORSDO>
F 7

$$$$
=
 OpenBabel10222418463D

 29 32  0  0  1  0  0  0  0  0999 V2000
  186.5130  178.3330  141.7900 C   0  0  0  0  0  3  0  0  0  0  0  0
  185.2480  178.6520  141.2960 C   0  0  0  0  0  0  0  0  0  0  0  0
  183.3640  179.3470  140.0180 C   0  0  0  0  0  2  0  0  0  0  0  0
  185.4840  177.8760  143.9480 C   0  0  0  0  0  3  0  0  0  0  0  0
  182.9810  178.9930  141.3840 N   0  0  0  0  0  0  0  0  0  0  0  0
  184.2240  178.2130  143.4310 C   0  0  0  0  0  3  0  0  0  0  0  0
  184.1410  178.5950  142.0930 C   0  0  0  0  0  0  0  0  0  0  0  0
  185.1730  178.0290  138.9100 C   0  0  0  0  0  1  0  0  0  0  0  0
  186.6430  177.9120  143.1330 C   0  0  0  0  0  0  0  0  0  0  0  0
  184.8890  179.1190  139.9270 C   0  0  2  0  0  3  0  0  0  0  0  0
  181.2660  179.8880  142.8760 N   0  0  0  0  0  0  0  0  0  0  0  0
  180.6260  178.3070  141.4260 N   0  0  0  0  0  2  0  0  0  0  0  0
  179.9760  179.6700  143.0650 N   0  0  0  0  0  0  0  0  0  0  0  0
  181.6410  179.0600  141.8890 C   0  0  0  0  0  0  0  0  0  0  0  0
  179.5940  178.7180  142.1910 C   0  0  0  0  0  3  0  0  0  0  0  0
  188.0230  177.6070  143.7040 C   0  0  2  0  0  0  0  0  0  0  0  0
  187.9430  177.9230  148.0360 C   0  0  0  0  0  0  0  0  0  0  0  0
  187.9300  178.0340  149.4190 O   0  0  0  0  0  1  0  0  0  0  0  0
  188.9940  177.1270  146.0080 C   0  0  0  0  0  3  0  0  0  0  0  0
  187.9560  177.6770  145.2320 C   0  0  0  0  0  0  0  0  0  0  0  0
  188.9820  177.2430  147.4000 C   0  0  0  0  0  3  0  0  0  0  0  0
  186.9300  178.3820  145.8880 C   0  0  0  0  0  3  0  0  0  0  0  0
  186.9190  178.4970  147.2800 C   0  0  0  0  0  3  0  0  0  0  0  0
  189.9820  178.9950  144.1520 O   0  0  0  0  0  1  0  0  0  0  0  0
  189.0540  178.6290  143.1730 C   0  0  0  0  0  2  0  0  0  0  0  0
  188.4070  176.2050  143.1910 C   0  0  0  0  0  2  0  0  0  0  0  0
  189.7530  176.1700  142.6290 N   0  0  0  0  0  2  0  0  0  0  0  0
  190.8270  175.4330  143.2180 C   0  0  0  0  0  3  0  0  0  0  0  0
  191.6800  175.9930  144.0680 C   0  0  0  0  0  2  0  0  0  0  0  0
  1  9  1  0  0  0  0
  2  1  2  0  0  0  0
  2  7  1  0  0  0  0
  3  5  1  0  0  0  0
  5 14  1  0  0  0  0
  5  7  1  0  0  0  0
  6  4  1  0  0  0  0
  7  6  2  0  0  0  0
  9 16  1  0  0  0  0
  9  4  2  0  0  0  0
 10  8  1  6  0  0  0
 10  3  1  0  0  0  0
 10  2  1  0  0  0  0
 11 13  1  0  0  0  0
 12 14  1  0  0  0  0
 12 15  1  0  0  0  0
 14 11  2  0  0  0  0
 15 13  2  0  0  0  0
 16 25  1  6  0  0  0
 16 20  1  0  0  0  0
 17 18  1  0  0  0  0
 19 21  2  0  0  0  0
 20 22  2  0  0  0  0
 20 19  1  0  0  0  0
 21 17  1  0  0  0  0
 22 23  1  0  0  0  0
 23 17  2  0  0  0  0
 25 24  1  0  0  0  0
 26 16  1  0  0  0  0
 27 26  1  0  0  0  0
 27 28  1  0  0  0  0
 28 29  2  0  0  0  0
M  END
>  <MODEL>
7

>  <REMARK>
 VINA RESULT:      -7.4      2.069      3.895
  Name = 
  7 active torsions:
  status: ('A' for Active; 'I' for Inactive)
    1  A    between atoms: C_1  and  N_14
    2  A    between atoms: N_11  and  C_24
    3  A    between atoms: N_14  and  C_22
    4  A    between atoms: C_15  and  C_19
    5  A    between atoms: C_17  and  C_19
    6  A    between atoms: C_19  and  C_22
    7  A    between atoms: C_19  and  C_26
                            x       y       z     vdW  Elec       q    Type
                         _______ _______ _______ _____ _____    ______ ____

>  <TORSDO>
F 7

$$$$
=
 OpenBabel10222418463D

 29 32  0  0  1  0  0  0  0  0999 V2000
  186.2000  177.9580  143.6990 C   0  0  0  0  0  3  0  0  0  0  0  0
  184.9860  178.2540  143.0800 C   0  0  0  0  0  0  0  0  0  0  0  0
  182.7070  178.6200  142.4970 C   0  0  0  0  0  2  0  0  0  0  0  0
  187.2990  178.2720  141.5510 C   0  0  0  0  0  3  0  0  0  0  0  0
  183.5860  178.7770  141.3390 N   0  0  0  0  0  0  0  0  0  0  0  0
  186.0640  178.5560  140.9480 C   0  0  0  0  0  3  0  0  0  0  0  0
  184.9220  178.5420  141.7470 C   0  0  0  0  0  0  0  0  0  0  0  0
  183.5340  179.3770  144.7290 C   0  0  0  0  0  1  0  0  0  0  0  0
  187.3890  177.9880  142.9360 C   0  0  0  0  0  0  0  0  0  0  0  0
  183.6260  178.2750  143.6900 C   0  0  2  0  0  3  0  0  0  0  0  0
  182.4410  178.2540  139.2450 N   0  0  0  0  0  0  0  0  0  0  0  0
  183.3430  180.2950  139.4270 N   0  0  0  0  0  0  0  0  0  0  0  0
  182.1980  178.9000  138.1180 N   0  0  0  0  0  2  0  0  0  0  0  0
  183.1300  179.1050  140.0200 C   0  0  0  0  0  0  0  0  0  0  0  0
  182.7420  180.1280  138.2310 C   0  0  0  0  0  3  0  0  0  0  0  0
  188.7180  177.6180  143.5840 C   0  0  2  0  0  0  0  0  0  0  0  0
  188.1310  177.5380  147.8870 C   0  0  0  0  0  0  0  0  0  0  0  0
  187.9300  177.5030  149.2600 O   0  0  0  0  0  1  0  0  0  0  0  0
  187.4300  178.2530  145.6850 C   0  0  0  0  0  3  0  0  0  0  0  0
  188.5510  177.6300  145.1050 C   0  0  0  0  0  0  0  0  0  0  0  0
  187.2270  178.2140  147.0660 C   0  0  0  0  0  3  0  0  0  0  0  0
  189.4390  176.9310  145.9440 C   0  0  0  0  0  3  0  0  0  0  0  0
  189.2340  176.8920  147.3260 C   0  0  0  0  0  3  0  0  0  0  0  0
  190.6190  179.0030  144.2400 O   0  0  0  0  0  1  0  0  0  0  0  0
  189.8110  178.6280  143.1640 C   0  0  0  0  0  2  0  0  0  0  0  0
  189.0970  176.2260  143.0410 C   0  0  0  0  0  2  0  0  0  0  0  0
  190.2680  176.2690  142.1710 N   0  0  0  0  0  2  0  0  0  0  0  0
  190.1810  176.3850  140.7490 C   0  0  0  0  0  3  0  0  0  0  0  0
  191.0290  177.1310  140.0510 C   0  0  0  0  0  2  0  0  0  0  0  0
  2 10  1  0  0  0  0
  2  1  1  0  0  0  0
  3 10  1  0  0  0  0
  4  9  1  0  0  0  0
  5  7  1  0  0  0  0
  5  3  1  0  0  0  0
  6  4  2  0  0  0  0
  6  7  1  0  0  0  0
  7  2  2  0  0  0  0
  9 16  1  0  0  0  0
  9  1  2  0  0  0  0
 10  8  1  1  0  0  0
 11 14  2  0  0  0  0
 12 14  1  0  0  0  0
 13 15  1  0  0  0  0
 13 11  1  0  0  0  0
 14  5  1  0  0  0  0
 15 12  2  0  0  0  0
 16 26  1  6  0  0  0
 16 20  1  0  0  0  0
 17 18  1  0  0  0  0
 19 21  1  0  0  0  0
 20 19  2  0  0  0  0
 20 22  1  0  0  0  0
 21 17  2  0  0  0  0
 22 23  2  0  0  0  0
 23 17  1  0  0  0  0
 25 16  1  0  0  0  0
 25 24  1  0  0  0  0
 27 26  1  0  0  0  0
 28 27  1  0  0  0  0
 29 28  2  0  0  0  0
M  END
>  <MODEL>
8

>  <REMARK>
 VINA RESULT:      -7.3      2.109      3.214
  Name = 
  7 active torsions:
  status: ('A' for Active; 'I' for Inactive)
    1  A    between atoms: C_1  and  N_14
    2  A    between atoms: N_11  and  C_24
    3  A    between atoms: N_14  and  C_22
    4  A    between atoms: C_15  and  C_19
    5  A    between atoms: C_17  and  C_19
    6  A    between atoms: C_19  and  C_22
    7  A    between atoms: C_19  and  C_26
                            x       y       z     vdW  Elec       q    Type
                         _______ _______ _______ _____ _____    ______ ____

>  <TORSDO>
F 7

$$$$
=
 OpenBabel10222418463D

 29 32  0  0  1  0  0  0  0  0999 V2000
  187.9660  177.9020  141.1170 C   0  0  0  0  0  3  0  0  0  0  0  0
  188.0680  177.8730  142.5070 C   0  0  0  0  0  0  0  0  0  0  0  0
  187.7770  178.0880  144.8600 C   0  0  0  0  0  2  0  0  0  0  0  0
  190.2040  176.9540  140.9970 C   0  0  0  0  0  3  0  0  0  0  0  0
  189.0790  177.5070  144.5350 N   0  0  0  0  0  0  0  0  0  0  0  0
  190.2880  176.9440  142.3980 C   0  0  0  0  0  3  0  0  0  0  0  0
  189.1940  177.4100  143.1260 C   0  0  0  0  0  0  0  0  0  0  0  0
  185.8160  177.4860  143.4370 C   0  0  0  0  0  1  0  0  0  0  0  0
  189.0390  177.4140  140.3360 C   0  0  0  0  0  0  0  0  0  0  0  0
  187.0690  178.3380  143.5110 C   0  0  2  0  0  3  0  0  0  0  0  0
  191.3730  177.0820  145.2580 N   0  0  0  0  0  0  0  0  0  0  0  0
  189.7550  176.7600  146.7710 N   0  0  0  0  0  0  0  0  0  0  0  0
  191.9480  176.6860  146.3800 N   0  0  0  0  0  2  0  0  0  0  0  0
  190.0550  177.1200  145.5100 C   0  0  0  0  0  0  0  0  0  0  0  0
  190.9720  176.4930  147.2890 C   0  0  0  0  0  3  0  0  0  0  0  0
  188.9660  177.4840  138.8150 C   0  0  2  0  0  0  0  0  0  0  0  0
  191.8430  174.6150  137.2810 C   0  0  0  0  0  0  0  0  0  0  0  0
  192.7670  173.6940  136.8060 O   0  0  0  0  0  1  0  0  0  0  0  0
  191.3500  176.7390  138.3280 C   0  0  0  0  0  3  0  0  0  0  0  0
  189.9690  176.4920  138.2220 C   0  0  0  0  0  0  0  0  0  0  0  0
  192.2800  175.8110  137.8530 C   0  0  0  0  0  3  0  0  0  0  0  0
  189.5470  175.2700  137.6660 C   0  0  0  0  0  3  0  0  0  0  0  0
  190.4770  174.3410  137.1920 C   0  0  0  0  0  3  0  0  0  0  0  0
  189.2690  179.0210  136.9410 O   0  0  0  0  0  1  0  0  0  0  0  0
  189.2920  178.9170  138.3350 C   0  0  0  0  0  2  0  0  0  0  0  0
  187.5090  177.1550  138.4320 C   0  0  0  0  0  2  0  0  0  0  0  0
  186.6770  178.3500  138.3350 N   0  0  0  0  0  2  0  0  0  0  0  0
  185.2520  178.3190  138.4430 C   0  0  0  0  0  3  0  0  0  0  0  0
  184.5990  179.0560  139.3350 C   0  0  0  0  0  2  0  0  0  0  0  0
  1  2  1  0  0  0  0
  2  7  2  0  0  0  0
  2 10  1  0  0  0  0
  4  6  2  0  0  0  0
  5  3  1  0  0  0  0
  5 14  1  0  0  0  0
  6  7  1  0  0  0  0
  7  5  1  0  0  0  0
  9  4  1  0  0  0  0
  9  1  2  0  0  0  0
 10  8  1  1  0  0  0
 10  3  1  0  0  0  0
 11 14  2  0  0  0  0
 11 13  1  0  0  0  0
 12 15  2  0  0  0  0
 13 15  1  0  0  0  0
 14 12  1  0  0  0  0
 16 25  1  6  0  0  0
 16  9  1  0  0  0  0
 17 21  1  0  0  0  0
 18 17  1  0  0  0  0
 20 19  1  0  0  0  0
 20 16  1  0  0  0  0
 21 19  2  0  0  0  0
 22 20  2  0  0  0  0
 23 17  2  0  0  0  0
 23 22  1  0  0  0  0
 24 25  1  0  0  0  0
 26 16  1  0  0  0  0
 27 26  1  0  0  0  0
 27 28  1  0  0  0  0
 28 29  2  0  0  0  0
M  END
>  <MODEL>
9

>  <REMARK>
 VINA RESULT:      -7.2      3.750      6.815
  Name = 
  7 active torsions:
  status: ('A' for Active; 'I' for Inactive)
    1  A    between atoms: C_1  and  N_14
    2  A    between atoms: N_11  and  C_24
    3  A    between atoms: N_14  and  C_22
    4  A    between atoms: C_15  and  C_19
    5  A    between atoms: C_17  and  C_19
    6  A    between atoms: C_19  and  C_22
    7  A    between atoms: C_19  and  C_26
                            x       y       z     vdW  Elec       q    Type
                         _______ _______ _______ _____ _____    ______ ____

>  <TORSDO>
F 7

$$$$
