=
 OpenBabel10222415303D

 31 34  0  0  0  0  0  0  0  0999 V2000
  188.4830  177.4910  147.5190 C   0  0  0  0  0  0  0  0  0  0  0  0
  187.3900  178.0310  143.9480 C   0  0  0  0  0  0  0  0  0  0  0  0
  186.0120  178.4500  144.0030 C   0  0  0  0  0  0  0  0  0  0  0  0
  183.9100  178.1900  145.4040 C   0  0  0  0  0  2  0  0  0  0  0  0
  188.1860  177.7310  145.1020 C   0  0  0  0  0  0  0  0  0  0  0  0
  189.8070  177.1000  147.3350 C   0  0  0  0  0  3  0  0  0  0  0  0
  185.3310  178.7310  145.3260 C   0  0  0  0  0  2  0  0  0  0  0  0
  189.3520  177.4850  142.5330 C   0  0  0  0  0  0  0  0  0  0  0  0
  187.9420  177.5680  148.8310 N   0  0  0  0  0  1  0  0  0  0  0  0
  185.9570  178.5480  141.5630 C   0  0  0  0  0  3  0  0  0  0  0  0
  182.9120  179.2280  144.8820 C   0  0  0  0  0  2  0  0  0  0  0  0
  190.0960  177.2050  143.6750 C   0  0  0  0  0  3  0  0  0  0  0  0
  188.0080  177.8920  142.6630 C   0  0  0  0  0  0  0  0  0  0  0  0
  187.6870  177.8020  146.4160 C   0  0  0  0  0  3  0  0  0  0  0  0
  183.4350  179.9730  143.7360 N   0  0  0  0  0  2  0  0  0  0  0  0
  189.5370  177.3220  144.9380 C   0  0  0  0  0  0  0  0  0  0  0  0
  190.3320  177.0170  146.0480 C   0  0  0  0  0  3  0  0  0  0  0  0
  187.2810  178.1560  141.5030 C   0  0  0  0  0  3  0  0  0  0  0  0
  185.3130  178.7090  142.7860 C   0  0  0  0  0  0  0  0  0  0  0  0
  183.8410  179.0240  142.7060 C   0  0  0  0  0  2  0  0  0  0  0  0
  192.7260  175.0070  137.3430 C   0  0  0  0  0  0  0  0  0  0  0  0
  190.6950  176.8610  138.5930 O   0  0  0  0  0  1  0  0  0  0  0  0
  193.9420  177.4810  139.7180 O   0  0  0  0  0  0  0  0  0  0  0  0
  192.2060  177.4030  141.7560 O   0  0  0  0  0  0  0  0  0  0  0  0
  193.1800  174.4610  136.0360 C   0  0  0  0  0  1  0  0  0  0  0  0
  191.3150  177.2330  140.8780 C   0  0  0  0  0  0  0  0  0  0  0  0
  191.7530  174.4680  137.9320 O   0  0  0  0  0  0  0  0  0  0  0  0
  193.0530  176.8450  139.0940 C   0  0  0  0  0  0  0  0  0  0  0  0
  191.6800  176.9220  139.5210 N   0  0  0  0  0  0  0  0  0  0  0  0
  189.9260  177.3280  141.2210 N   0  0  0  0  0  2  0  0  0  0  0  0
  193.4390  176.1020  137.9290 N   0  0  0  0  0  2  0  0  0  0  0  0
  1  9  1  0  0  0  0
  2  3  1  0  0  0  0
  2  5  1  0  0  0  0
  3  7  1  0  0  0  0
  5 14  1  0  0  0  0
  6  1  1  0  0  0  0
  7  4  1  0  0  0  0
  8 13  1  0  0  0  0
  8 12  2  0  0  0  0
 10 19  1  0  0  0  0
 11  4  1  0  0  0  0
 12 16  1  0  0  0  0
 13  2  2  0  0  0  0
 14  1  2  0  0  0  0
 15 11  1  0  0  0  0
 16  5  2  0  0  0  0
 16 17  1  0  0  0  0
 17  6  2  0  0  0  0
 18 10  2  0  0  0  0
 18 13  1  0  0  0  0
 19  3  2  0  0  0  0
 20 19  1  0  0  0  0
 20 15  1  0  0  0  0
 21 31  1  0  0  0  0
 21 27  2  0  0  0  0
 22 29  1  0  0  0  0
 25 21  1  0  0  0  0
 26 30  1  0  0  0  0
 26 24  2  0  0  0  0
 28 29  1  0  0  0  0
 28 23  2  0  0  0  0
 29 26  1  0  0  0  0
 30  8  1  0  0  0  0
 31 28  1  0  0  0  0
M  END
>  <MODEL>
1

>  <REMARK>
 VINA RESULT:     -11.5      0.000      0.000
  Name = 
  1 active torsions:
  status: ('A' for Active; 'I' for Inactive)
    1  A    between atoms: C_15  and  N_23
                            x       y       z     vdW  Elec       q    Type
                         _______ _______ _______ _____ _____    ______ ____

>  <TORSDO>
F 1

$$$$
=
 OpenBabel10222415303D

 31 34  0  0  0  0  0  0  0  0999 V2000
  186.5790  177.9630  147.0190 C   0  0  0  0  0  0  0  0  0  0  0  0
  187.3450  177.9970  143.3240 C   0  0  0  0  0  0  0  0  0  0  0  0
  188.6680  177.4440  143.1780 C   0  0  0  0  0  0  0  0  0  0  0  0
  190.8810  177.2340  144.4060 C   0  0  0  0  0  2  0  0  0  0  0  0
  186.6720  178.1520  144.5810 C   0  0  0  0  0  0  0  0  0  0  0  0
  185.2970  178.5070  147.0280 C   0  0  0  0  0  3  0  0  0  0  0  0
  189.4060  176.8570  144.3620 C   0  0  0  0  0  2  0  0  0  0  0  0
  185.3600  178.9850  142.2140 C   0  0  0  0  0  0  0  0  0  0  0  0
  187.2000  177.5900  148.2410 N   0  0  0  0  0  1  0  0  0  0  0  0
  188.5360  177.7990  140.7650 C   0  0  0  0  0  3  0  0  0  0  0  0
  191.7170  176.2210  143.6180 C   0  0  0  0  0  2  0  0  0  0  0  0
  184.7350  179.1170  143.4500 C   0  0  0  0  0  3  0  0  0  0  0  0
  186.6560  178.4330  142.1470 C   0  0  0  0  0  0  0  0  0  0  0  0
  187.2530  177.7880  145.8100 C   0  0  0  0  0  3  0  0  0  0  0  0
  191.0330  175.7570  142.4100 N   0  0  0  0  0  2  0  0  0  0  0  0
  185.3670  178.7130  144.6160 C   0  0  0  0  0  0  0  0  0  0  0  0
  184.6930  178.8800  145.8310 C   0  0  0  0  0  3  0  0  0  0  0  0
  187.2640  178.3210  140.8960 C   0  0  0  0  0  3  0  0  0  0  0  0
  189.2450  177.3520  141.8760 C   0  0  0  0  0  0  0  0  0  0  0  0
  190.6620  176.9160  141.6070 C   0  0  0  0  0  2  0  0  0  0  0  0
  180.6950  180.9540  137.8760 C   0  0  0  0  0  0  0  0  0  0  0  0
  183.5540  180.6750  138.8090 O   0  0  0  0  0  1  0  0  0  0  0  0
  182.0330  177.5880  138.2160 O   0  0  0  0  0  0  0  0  0  0  0  0
  183.3460  177.5930  140.5510 O   0  0  0  0  0  0  0  0  0  0  0  0
  179.8360  181.6740  136.8970 C   0  0  0  0  0  1  0  0  0  0  0  0
  183.6960  178.7680  140.2530 C   0  0  0  0  0  0  0  0  0  0  0  0
  180.9950  181.5160  138.9620 O   0  0  0  0  0  0  0  0  0  0  0  0
  182.0630  178.8410  138.3340 C   0  0  0  0  0  0  0  0  0  0  0  0
  183.0670  179.4610  139.1610 N   0  0  0  0  0  0  0  0  0  0  0  0
  184.7140  179.4390  141.0090 N   0  0  0  0  0  2  0  0  0  0  0  0
  181.1180  179.6180  137.5850 N   0  0  0  0  0  2  0  0  0  0  0  0
  1  6  1  0  0  0  0
  1  9  1  0  0  0  0
  2  5  1  0  0  0  0
  3  2  1  0  0  0  0
  3  7  1  0  0  0  0
  5 16  2  0  0  0  0
  5 14  1  0  0  0  0
  7  4  1  0  0  0  0
  8 12  2  0  0  0  0
 10 18  2  0  0  0  0
 10 19  1  0  0  0  0
 11  4  1  0  0  0  0
 12 16  1  0  0  0  0
 13  8  1  0  0  0  0
 13  2  2  0  0  0  0
 14  1  2  0  0  0  0
 15 11  1  0  0  0  0
 16 17  1  0  0  0  0
 17  6  2  0  0  0  0
 18 13  1  0  0  0  0
 19  3  2  0  0  0  0
 20 19  1  0  0  0  0
 20 15  1  0  0  0  0
 21 27  2  0  0  0  0
 22 29  1  0  0  0  0
 23 28  2  0  0  0  0
 25 21  1  0  0  0  0
 26 24  2  0  0  0  0
 26 30  1  0  0  0  0
 28 29  1  0  0  0  0
 29 26  1  0  0  0  0
 30  8  1  0  0  0  0
 31 21  1  0  0  0  0
 31 28  1  0  0  0  0
M  END
>  <MODEL>
2

>  <REMARK>
 VINA RESULT:     -11.3      4.165      7.606
  Name = 
  1 active torsions:
  status: ('A' for Active; 'I' for Inactive)
    1  A    between atoms: C_15  and  N_23
                            x       y       z     vdW  Elec       q    Type
                         _______ _______ _______ _____ _____    ______ ____

>  <TORSDO>
F 1

$$$$
=
 OpenBabel10222415303D

 31 34  0  0  0  0  0  0  0  0999 V2000
  190.8520  177.4050  142.0900 C   0  0  0  0  0  0  0  0  0  0  0  0
  187.5120  177.9820  143.7460 C   0  0  0  0  0  0  0  0  0  0  0  0
  187.7520  177.9570  145.1670 C   0  0  0  0  0  0  0  0  0  0  0  0
  189.2870  176.9210  146.9050 C   0  0  0  0  0  2  0  0  0  0  0  0
  188.5320  177.8100  142.7540 C   0  0  0  0  0  0  0  0  0  0  0  0
  190.4940  177.4550  140.7450 C   0  0  0  0  0  3  0  0  0  0  0  0
  189.1580  177.8710  145.7220 C   0  0  0  0  0  2  0  0  0  0  0  0
  185.8590  178.2130  141.9110 C   0  0  0  0  0  0  0  0  0  0  0  0
  192.2060  177.1700  142.4540 N   0  0  0  0  0  1  0  0  0  0  0  0
  185.3670  178.3030  145.5640 C   0  0  0  0  0  3  0  0  0  0  0  0
  189.0130  177.6610  148.2180 C   0  0  0  0  0  2  0  0  0  0  0  0
  186.8760  178.0460  140.9760 C   0  0  0  0  0  3  0  0  0  0  0  0
  186.1690  178.1790  143.2860 C   0  0  0  0  0  0  0  0  0  0  0  0
  189.8830  177.5820  143.0770 C   0  0  0  0  0  3  0  0  0  0  0  0
  187.9440  178.6510  148.0850 N   0  0  0  0  0  2  0  0  0  0  0  0
  188.1890  177.8480  141.3760 C   0  0  0  0  0  0  0  0  0  0  0  0
  189.1660  177.6770  140.3900 C   0  0  0  0  0  3  0  0  0  0  0  0
  185.1300  178.3380  144.2030 C   0  0  0  0  0  3  0  0  0  0  0  0
  186.6540  178.1250  146.0620 C   0  0  0  0  0  0  0  0  0  0  0  0
  186.7550  177.9890  147.5600 C   0  0  0  0  0  2  0  0  0  0  0  0
  180.2960  178.1190  138.2380 C   0  0  0  0  0  0  0  0  0  0  0  0
  181.7890  178.3660  140.8510 O   0  0  0  0  0  1  0  0  0  0  0  0
  182.5800  180.9260  138.6120 O   0  0  0  0  0  0  0  0  0  0  0  0
  184.7870  179.8860  139.7180 O   0  0  0  0  0  0  0  0  0  0  0  0
  178.9380  177.9090  137.6680 C   0  0  0  0  0  1  0  0  0  0  0  0
  184.0030  179.1550  140.3860 C   0  0  0  0  0  0  0  0  0  0  0  0
  180.9720  177.1210  138.6010 O   0  0  0  0  0  0  0  0  0  0  0  0
  182.0390  179.8450  138.9650 C   0  0  0  0  0  0  0  0  0  0  0  0
  182.6100  179.0720  140.0380 N   0  0  0  0  0  0  0  0  0  0  0  0
  184.4920  178.3830  141.4910 N   0  0  0  0  0  2  0  0  0  0  0  0
  180.8260  179.4460  138.3110 N   0  0  0  0  0  2  0  0  0  0  0  0
  1  9  1  0  0  0  0
  1 14  1  0  0  0  0
  2  3  1  0  0  0  0
  3  7  1  0  0  0  0
  3 19  2  0  0  0  0
  4 11  1  0  0  0  0
  5 14  2  0  0  0  0
  5  2  1  0  0  0  0
  6  1  2  0  0  0  0
  7  4  1  0  0  0  0
  8 13  1  0  0  0  0
 10 19  1  0  0  0  0
 12 16  1  0  0  0  0
 12  8  2  0  0  0  0
 13  2  2  0  0  0  0
 13 18  1  0  0  0  0
 15 11  1  0  0  0  0
 16  5  1  0  0  0  0
 17  6  1  0  0  0  0
 17 16  2  0  0  0  0
 18 10  2  0  0  0  0
 19 20  1  0  0  0  0
 20 15  1  0  0  0  0
 21 31  1  0  0  0  0
 21 27  2  0  0  0  0
 23 28  2  0  0  0  0
 24 26  2  0  0  0  0
 25 21  1  0  0  0  0
 26 30  1  0  0  0  0
 28 29  1  0  0  0  0
 29 26  1  0  0  0  0
 29 22  1  0  0  0  0
 30  8  1  0  0  0  0
 31 28  1  0  0  0  0
M  END
>  <MODEL>
3

>  <REMARK>
 VINA RESULT:     -10.6      4.027      7.490
  Name = 
  1 active torsions:
  status: ('A' for Active; 'I' for Inactive)
    1  A    between atoms: C_15  and  N_23
                            x       y       z     vdW  Elec       q    Type
                         _______ _______ _______ _____ _____    ______ ____

>  <TORSDO>
F 1

$$$$
=
 OpenBabel10222415303D

 31 34  0  0  0  0  0  0  0  0999 V2000
  189.9620  177.0730  146.7550 C   0  0  0  0  0  0  0  0  0  0  0  0
  188.2130  177.6590  143.4630 C   0  0  0  0  0  0  0  0  0  0  0  0
  186.8930  178.1420  143.7830 C   0  0  0  0  0  0  0  0  0  0  0  0
  185.0990  177.9820  145.5740 C   0  0  0  0  0  2  0  0  0  0  0  0
  189.2070  177.3230  144.4410 C   0  0  0  0  0  0  0  0  0  0  0  0
  191.2050  176.6210  146.3180 C   0  0  0  0  0  3  0  0  0  0  0  0
  186.5000  178.4560  145.2110 C   0  0  0  0  0  2  0  0  0  0  0  0
  189.8300  177.0190  141.6950 C   0  0  0  0  0  0  0  0  0  0  0  0
  189.6950  177.1780  148.1470 N   0  0  0  0  0  1  0  0  0  0  0  0
  186.3630  178.2390  141.4010 C   0  0  0  0  0  3  0  0  0  0  0  0
  184.0660  179.0650  145.2460 C   0  0  0  0  0  2  0  0  0  0  0  0
  190.7720  176.7060  142.6710 C   0  0  0  0  0  3  0  0  0  0  0  0
  188.5590  177.4890  142.0830 C   0  0  0  0  0  0  0  0  0  0  0  0
  188.9800  177.4200  145.8260 C   0  0  0  0  0  3  0  0  0  0  0  0
  184.3860  179.7830  144.0130 N   0  0  0  0  0  2  0  0  0  0  0  0
  190.4790  176.8510  144.0190 C   0  0  0  0  0  0  0  0  0  0  0  0
  191.4620  176.5110  144.9540 C   0  0  0  0  0  3  0  0  0  0  0  0
  187.6300  177.7850  141.0860 C   0  0  0  0  0  3  0  0  0  0  0  0
  185.9810  178.4310  142.7250 C   0  0  0  0  0  0  0  0  0  0  0  0
  184.5380  178.8150  142.9330 C   0  0  0  0  0  2  0  0  0  0  0  0
  192.2400  174.5220  136.0020 C   0  0  0  0  0  0  0  0  0  0  0  0
  190.3640  176.2800  137.5870 O   0  0  0  0  0  1  0  0  0  0  0  0
  193.7080  177.2120  137.9630 O   0  0  0  0  0  0  0  0  0  0  0  0
  192.4540  177.1150  140.3280 O   0  0  0  0  0  0  0  0  0  0  0  0
  192.4550  173.9390  134.6510 C   0  0  0  0  0  1  0  0  0  0  0  0
  191.4160  176.8270  139.6690 C   0  0  0  0  0  0  0  0  0  0  0  0
  191.4640  173.9430  136.8070 O   0  0  0  0  0  0  0  0  0  0  0  0
  192.7660  176.4750  137.5700 C   0  0  0  0  0  0  0  0  0  0  0  0
  191.5130  176.4700  138.2790 N   0  0  0  0  0  0  0  0  0  0  0  0
  190.1280  176.8330  140.2980 N   0  0  0  0  0  2  0  0  0  0  0  0
  192.9620  175.6990  136.3790 N   0  0  0  0  0  2  0  0  0  0  0  0
  1  9  1  0  0  0  0
  2  3  1  0  0  0  0
  2  5  1  0  0  0  0
  3  7  1  0  0  0  0
  5 14  1  0  0  0  0
  6  1  1  0  0  0  0
  7  4  1  0  0  0  0
  8 13  1  0  0  0  0
  8 12  2  0  0  0  0
 10 19  1  0  0  0  0
 11  4  1  0  0  0  0
 12 16  1  0  0  0  0
 13  2  2  0  0  0  0
 14  1  2  0  0  0  0
 15 11  1  0  0  0  0
 16  5  2  0  0  0  0
 16 17  1  0  0  0  0
 17  6  2  0  0  0  0
 18 10  2  0  0  0  0
 18 13  1  0  0  0  0
 19 20  1  0  0  0  0
 19  3  2  0  0  0  0
 20 15  1  0  0  0  0
 21 31  1  0  0  0  0
 21 27  2  0  0  0  0
 22 29  1  0  0  0  0
 25 21  1  0  0  0  0
 26 30  1  0  0  0  0
 26 24  2  0  0  0  0
 28 23  2  0  0  0  0
 28 29  1  0  0  0  0
 29 26  1  0  0  0  0
 30  8  1  0  0  0  0
 31 28  1  0  0  0  0
M  END
>  <MODEL>
4

>  <REMARK>
 VINA RESULT:     -10.3      1.160      1.327
  Name = 
  1 active torsions:
  status: ('A' for Active; 'I' for Inactive)
    1  A    between atoms: C_15  and  N_23
                            x       y       z     vdW  Elec       q    Type
                         _______ _______ _______ _____ _____    ______ ____

>  <TORSDO>
F 1

$$$$
=
 OpenBabel10222415303D

 31 34  0  0  0  0  0  0  0  0999 V2000
  185.8680  178.6950  146.6320 C   0  0  0  0  0  0  0  0  0  0  0  0
  188.5150  177.2390  144.3710 C   0  0  0  0  0  0  0  0  0  0  0  0
  189.6190  176.8700  145.2210 C   0  0  0  0  0  0  0  0  0  0  0  0
  190.7590  177.5240  147.3940 C   0  0  0  0  0  2  0  0  0  0  0  0
  187.2950  177.8250  144.8440 C   0  0  0  0  0  0  0  0  0  0  0  0
  184.8720  179.0030  145.7090 C   0  0  0  0  0  3  0  0  0  0  0  0
  189.5100  176.9610  146.7290 C   0  0  0  0  0  2  0  0  0  0  0  0
  187.6030  177.3610  142.0680 C   0  0  0  0  0  0  0  0  0  0  0  0
  185.6700  178.9770  148.0110 N   0  0  0  0  0  1  0  0  0  0  0  0
  190.8670  176.1270  143.2580 C   0  0  0  0  0  3  0  0  0  0  0  0
  191.7460  176.3980  147.7190 C   0  0  0  0  0  2  0  0  0  0  0  0
  186.4300  177.9250  142.5630 C   0  0  0  0  0  3  0  0  0  0  0  0
  188.6410  177.0230  142.9600 C   0  0  0  0  0  0  0  0  0  0  0  0
  187.0610  178.1130  146.2020 C   0  0  0  0  0  3  0  0  0  0  0  0
  191.7740  175.3680  146.6800 N   0  0  0  0  0  2  0  0  0  0  0  0
  186.2670  178.1560  143.9210 C   0  0  0  0  0  0  0  0  0  0  0  0
  185.0710  178.7340  144.3580 C   0  0  0  0  0  3  0  0  0  0  0  0
  189.8090  176.4700  142.4370 C   0  0  0  0  0  3  0  0  0  0  0  0
  190.7920  176.3070  144.6350 C   0  0  0  0  0  0  0  0  0  0  0  0
  192.0560  176.0030  145.3980 C   0  0  0  0  0  2  0  0  0  0  0  0
  190.4260  176.6530  136.0690 C   0  0  0  0  0  0  0  0  0  0  0  0
  188.1280  176.3780  138.0100 O   0  0  0  0  0  1  0  0  0  0  0  0
  188.9940  179.7100  137.4260 O   0  0  0  0  0  0  0  0  0  0  0  0
  188.6810  179.2310  140.0430 O   0  0  0  0  0  0  0  0  0  0  0  0
  190.9120  176.1940  134.7410 C   0  0  0  0  0  1  0  0  0  0  0  0
  188.3610  178.0580  139.7020 C   0  0  0  0  0  0  0  0  0  0  0  0
  190.6210  175.9290  137.0810 O   0  0  0  0  0  0  0  0  0  0  0  0
  189.1350  178.4620  137.3380 C   0  0  0  0  0  0  0  0  0  0  0  0
  188.5900  177.6030  138.3570 N   0  0  0  0  0  0  0  0  0  0  0  0
  187.7810  177.1560  140.6540 N   0  0  0  0  0  2  0  0  0  0  0  0
  189.7940  177.9330  136.1790 N   0  0  0  0  0  2  0  0  0  0  0  0
  1  9  1  0  0  0  0
  2  5  1  0  0  0  0
  2  3  1  0  0  0  0
  3  7  1  0  0  0  0
  4 11  1  0  0  0  0
  5 14  2  0  0  0  0
  6  1  2  0  0  0  0
  7  4  1  0  0  0  0
  8 12  2  0  0  0  0
  8 13  1  0  0  0  0
 10 19  1  0  0  0  0
 12 16  1  0  0  0  0
 13  2  2  0  0  0  0
 14  1  1  0  0  0  0
 15 11  1  0  0  0  0
 16 17  2  0  0  0  0
 16  5  1  0  0  0  0
 17  6  1  0  0  0  0
 18 13  1  0  0  0  0
 18 10  2  0  0  0  0
 19  3  2  0  0  0  0
 19 20  1  0  0  0  0
 20 15  1  0  0  0  0
 21 31  1  0  0  0  0
 21 27  2  0  0  0  0
 22 29  1  0  0  0  0
 25 21  1  0  0  0  0
 26 24  2  0  0  0  0
 26 30  1  0  0  0  0
 28 23  2  0  0  0  0
 28 29  1  0  0  0  0
 29 26  1  0  0  0  0
 30  8  1  0  0  0  0
 31 28  1  0  0  0  0
M  END
>  <MODEL>
5

>  <REMARK>
 VINA RESULT:     -10.1      2.415      4.816
  Name = 
  1 active torsions:
  status: ('A' for Active; 'I' for Inactive)
    1  A    between atoms: C_15  and  N_23
                            x       y       z     vdW  Elec       q    Type
                         _______ _______ _______ _____ _____    ______ ____

>  <TORSDO>
F 1

$$$$
=
 OpenBabel10222415303D

 31 34  0  0  0  0  0  0  0  0999 V2000
  188.2330  177.9330  147.2280 C   0  0  0  0  0  0  0  0  0  0  0  0
  187.4060  177.9400  143.5470 C   0  0  0  0  0  0  0  0  0  0  0  0
  188.6550  177.7690  142.8480 C   0  0  0  0  0  0  0  0  0  0  0  0
  191.1370  178.2620  143.0650 C   0  0  0  0  0  2  0  0  0  0  0  0
  187.2810  177.9830  144.9740 C   0  0  0  0  0  0  0  0  0  0  0  0
  186.9670  178.0990  147.7840 C   0  0  0  0  0  3  0  0  0  0  0  0
  189.9390  177.4880  143.5990 C   0  0  0  0  0  2  0  0  0  0  0  0
  184.9520  178.2630  143.3880 C   0  0  0  0  0  0  0  0  0  0  0  0
  189.3710  177.8270  148.0730 N   0  0  0  0  0  1  0  0  0  0  0  0
  187.4700  177.9170  140.7170 C   0  0  0  0  0  3  0  0  0  0  0  0
  191.8320  177.4720  141.9510 C   0  0  0  0  0  2  0  0  0  0  0  0
  184.8680  178.2960  144.7770 C   0  0  0  0  0  3  0  0  0  0  0  0
  186.2090  178.0900  142.7730 C   0  0  0  0  0  0  0  0  0  0  0  0
  188.3840  177.8750  145.8420 C   0  0  0  0  0  3  0  0  0  0  0  0
  190.8800  176.7600  141.0990 N   0  0  0  0  0  2  0  0  0  0  0  0
  186.0010  178.1600  145.5650 C   0  0  0  0  0  0  0  0  0  0  0  0
  185.8550  178.2110  146.9550 C   0  0  0  0  0  3  0  0  0  0  0  0
  186.2670  178.0720  141.3800 C   0  0  0  0  0  3  0  0  0  0  0  0
  188.6600  177.7560  141.4210 C   0  0  0  0  0  0  0  0  0  0  0  0
  189.9090  177.7160  140.5800 C   0  0  0  0  0  2  0  0  0  0  0  0
  179.9140  181.0860  140.0560 C   0  0  0  0  0  0  0  0  0  0  0  0
  181.7550  178.7810  140.7000 O   0  0  0  0  0  1  0  0  0  0  0  0
  179.7620  179.7000  143.4160 O   0  0  0  0  0  0  0  0  0  0  0  0
  182.3170  179.3740  144.1520 O   0  0  0  0  0  0  0  0  0  0  0  0
  178.9310  181.5680  139.0490 C   0  0  0  0  0  1  0  0  0  0  0  0
  182.5290  179.0360  142.9540 C   0  0  0  0  0  0  0  0  0  0  0  0
  181.1430  181.2680  139.8540 O   0  0  0  0  0  0  0  0  0  0  0  0
  180.2370  179.8210  142.2570 C   0  0  0  0  0  0  0  0  0  0  0  0
  181.5270  179.2610  141.9460 N   0  0  0  0  0  0  0  0  0  0  0  0
  183.7770  178.4410  142.5750 N   0  0  0  0  0  2  0  0  0  0  0  0
  179.4390  180.4740  141.2600 N   0  0  0  0  0  2  0  0  0  0  0  0
  1  6  1  0  0  0  0
  1  9  1  0  0  0  0
  2  5  1  0  0  0  0
  3  2  1  0  0  0  0
  3  7  1  0  0  0  0
  4  7  1  0  0  0  0
  5 16  2  0  0  0  0
  5 14  1  0  0  0  0
  8 12  2  0  0  0  0
 10 18  2  0  0  0  0
 10 19  1  0  0  0  0
 11  4  1  0  0  0  0
 12 16  1  0  0  0  0
 13  8  1  0  0  0  0
 13  2  2  0  0  0  0
 14  1  2  0  0  0  0
 15 11  1  0  0  0  0
 16 17  1  0  0  0  0
 17  6  2  0  0  0  0
 18 13  1  0  0  0  0
 19  3  2  0  0  0  0
 20 15  1  0  0  0  0
 20 19  1  0  0  0  0
 21 31  1  0  0  0  0
 22 29  1  0  0  0  0
 25 21  1  0  0  0  0
 26 24  2  0  0  0  0
 27 21  2  0  0  0  0
 28 23  2  0  0  0  0
 29 28  1  0  0  0  0
 29 26  1  0  0  0  0
 30 26  1  0  0  0  0
 30  8  1  0  0  0  0
 31 28  1  0  0  0  0
M  END
>  <MODEL>
6

>  <REMARK>
 VINA RESULT:      -9.9      4.414      8.269
  Name = 
  1 active torsions:
  status: ('A' for Active; 'I' for Inactive)
    1  A    between atoms: C_15  and  N_23
                            x       y       z     vdW  Elec       q    Type
                         _______ _______ _______ _____ _____    ______ ____

>  <TORSDO>
F 1

$$$$
=
 OpenBabel10222415303D

 31 34  0  0  0  0  0  0  0  0999 V2000
  185.3000  178.2400  146.2710 C   0  0  0  0  0  0  0  0  0  0  0  0
  184.6490  178.7080  142.5840 C   0  0  0  0  0  0  0  0  0  0  0  0
  183.2310  178.9290  142.4450 C   0  0  0  0  0  0  0  0  0  0  0  0
  181.0130  178.3430  143.5350 C   0  0  0  0  0  2  0  0  0  0  0  0
  185.3120  178.4950  143.8370 C   0  0  0  0  0  0  0  0  0  0  0  0
  186.6780  178.0430  146.2740 C   0  0  0  0  0  3  0  0  0  0  0  0
  182.3400  179.0800  143.6600 C   0  0  0  0  0  2  0  0  0  0  0  0
  186.8460  178.4760  141.4580 C   0  0  0  0  0  0  0  0  0  0  0  0
  184.5770  178.2090  147.4940 N   0  0  0  0  0  1  0  0  0  0  0  0
  183.5030  179.0770  140.0230 C   0  0  0  0  0  3  0  0  0  0  0  0
  179.9610  179.2430  142.8810 C   0  0  0  0  0  2  0  0  0  0  0  0
  187.4570  178.2760  142.6920 C   0  0  0  0  0  3  0  0  0  0  0  0
  185.4530  178.6880  141.3990 C   0  0  0  0  0  0  0  0  0  0  0  0
  184.6290  178.4640  145.0680 C   0  0  0  0  0  3  0  0  0  0  0  0
  180.5270  180.0820  141.8240 N   0  0  0  0  0  2  0  0  0  0  0  0
  186.7160  178.2830  143.8640 C   0  0  0  0  0  0  0  0  0  0  0  0
  187.3840  178.0650  145.0740 C   0  0  0  0  0  3  0  0  0  0  0  0
  184.8650  178.8760  140.1480 C   0  0  0  0  0  3  0  0  0  0  0  0
  182.6790  179.1160  141.1430 C   0  0  0  0  0  0  0  0  0  0  0  0
  181.2030  179.2240  140.8580 C   0  0  0  0  0  2  0  0  0  0  0  0
  189.9220  176.2520  135.9760 C   0  0  0  0  0  0  0  0  0  0  0  0
  188.7610  178.4360  137.7100 O   0  0  0  0  0  1  0  0  0  0  0  0
  191.4570  176.8140  139.2260 O   0  0  0  0  0  0  0  0  0  0  0  0
  189.4060  177.0890  140.9270 O   0  0  0  0  0  0  0  0  0  0  0  0
  190.4020  175.9680  134.5970 C   0  0  0  0  0  1  0  0  0  0  0  0
  188.8240  177.7040  139.9910 C   0  0  0  0  0  0  0  0  0  0  0  0
  188.6900  176.1840  136.2250 O   0  0  0  0  0  0  0  0  0  0  0  0
  190.5840  176.9880  138.3350 C   0  0  0  0  0  0  0  0  0  0  0  0
  189.3560  177.6690  138.6550 N   0  0  0  0  0  0  0  0  0  0  0  0
  187.6140  178.4330  140.2400 N   0  0  0  0  0  2  0  0  0  0  0  0
  190.8750  176.5450  137.0020 N   0  0  0  0  0  2  0  0  0  0  0  0
  1  6  1  0  0  0  0
  1  9  1  0  0  0  0
  2  5  1  0  0  0  0
  3  2  1  0  0  0  0
  3  7  1  0  0  0  0
  4  7  1  0  0  0  0
  5 16  2  0  0  0  0
  5 14  1  0  0  0  0
  8 12  2  0  0  0  0
 10 18  2  0  0  0  0
 10 19  1  0  0  0  0
 11  4  1  0  0  0  0
 12 16  1  0  0  0  0
 13  8  1  0  0  0  0
 13  2  2  0  0  0  0
 14  1  2  0  0  0  0
 15 11  1  0  0  0  0
 16 17  1  0  0  0  0
 17  6  2  0  0  0  0
 18 13  1  0  0  0  0
 19  3  2  0  0  0  0
 20 19  1  0  0  0  0
 20 15  1  0  0  0  0
 21 27  2  0  0  0  0
 21 31  1  0  0  0  0
 22 29  1  0  0  0  0
 25 21  1  0  0  0  0
 26 30  1  0  0  0  0
 26 24  2  0  0  0  0
 28 29  1  0  0  0  0
 28 23  2  0  0  0  0
 29 26  1  0  0  0  0
 30  8  1  0  0  0  0
 31 28  1  0  0  0  0
M  END
>  <MODEL>
7

>  <REMARK>
 VINA RESULT:      -9.8      2.268      3.159
  Name = 
  1 active torsions:
  status: ('A' for Active; 'I' for Inactive)
    1  A    between atoms: C_15  and  N_23
                            x       y       z     vdW  Elec       q    Type
                         _______ _______ _______ _____ _____    ______ ____

>  <TORSDO>
F 1

$$$$
=
 OpenBabel10222415303D

 31 34  0  0  0  0  0  0  0  0999 V2000
  189.4360  177.6290  147.5370 C   0  0  0  0  0  0  0  0  0  0  0  0
  187.8710  177.6080  144.1030 C   0  0  0  0  0  0  0  0  0  0  0  0
  186.5330  178.1200  144.2620 C   0  0  0  0  0  0  0  0  0  0  0  0
  184.6420  178.2490  145.9520 C   0  0  0  0  0  2  0  0  0  0  0  0
  188.8100  177.4610  145.1770 C   0  0  0  0  0  0  0  0  0  0  0  0
  190.7030  177.1250  147.2540 C   0  0  0  0  0  3  0  0  0  0  0  0
  186.0590  178.6730  145.5900 C   0  0  0  0  0  2  0  0  0  0  0  0
  189.5880  176.6930  142.5650 C   0  0  0  0  0  0  0  0  0  0  0  0
  189.0910  177.9710  148.8720 N   0  0  0  0  0  1  0  0  0  0  0  0
  186.1370  177.7930  141.8740 C   0  0  0  0  0  3  0  0  0  0  0  0
  183.6250  179.2440  145.3860 C   0  0  0  0  0  2  0  0  0  0  0  0
  190.4740  176.5680  143.6300 C   0  0  0  0  0  3  0  0  0  0  0  0
  188.2940  177.2050  142.7950 C   0  0  0  0  0  0  0  0  0  0  0  0
  188.5050  177.7950  146.5100 C   0  0  0  0  0  3  0  0  0  0  0  0
  184.0100  179.7410  144.0650 N   0  0  0  0  0  2  0  0  0  0  0  0
  190.1050  176.9410  144.9140 C   0  0  0  0  0  0  0  0  0  0  0  0
  191.0360  176.7830  145.9460 C   0  0  0  0  0  3  0  0  0  0  0  0
  187.4210  177.3100  141.7120 C   0  0  0  0  0  3  0  0  0  0  0  0
  185.6800  178.2080  143.1220 C   0  0  0  0  0  0  0  0  0  0  0  0
  184.2260  178.6010  143.1810 C   0  0  0  0  0  2  0  0  0  0  0  0
  192.7860  176.1990  136.7360 C   0  0  0  0  0  0  0  0  0  0  0  0
  190.8990  175.1810  138.8630 O   0  0  0  0  0  1  0  0  0  0  0  0
  189.7750  178.1360  137.3800 O   0  0  0  0  0  0  0  0  0  0  0  0
  189.5790  178.2520  140.0490 O   0  0  0  0  0  0  0  0  0  0  0  0
  193.5510  175.7730  135.5330 C   0  0  0  0  0  1  0  0  0  0  0  0
  190.0060  177.0640  140.0460 C   0  0  0  0  0  0  0  0  0  0  0  0
  193.2750  175.9990  137.8790 O   0  0  0  0  0  0  0  0  0  0  0  0
  190.6030  177.2140  137.6020 C   0  0  0  0  0  0  0  0  0  0  0  0
  190.5590  176.4920  138.8470 N   0  0  0  0  0  0  0  0  0  0  0  0
  189.9640  176.2710  141.2400 N   0  0  0  0  0  2  0  0  0  0  0  0
  191.5360  176.8740  136.5660 N   0  0  0  0  0  2  0  0  0  0  0  0
  1  9  1  0  0  0  0
  2  3  1  0  0  0  0
  2  5  1  0  0  0  0
  3  7  1  0  0  0  0
  5 14  1  0  0  0  0
  6  1  1  0  0  0  0
  7  4  1  0  0  0  0
  8 13  1  0  0  0  0
  8 12  2  0  0  0  0
 10 19  1  0  0  0  0
 11  4  1  0  0  0  0
 12 16  1  0  0  0  0
 13  2  2  0  0  0  0
 14  1  2  0  0  0  0
 15 11  1  0  0  0  0
 16  5  2  0  0  0  0
 16 17  1  0  0  0  0
 17  6  2  0  0  0  0
 18 10  2  0  0  0  0
 18 13  1  0  0  0  0
 19 20  1  0  0  0  0
 19  3  2  0  0  0  0
 20 15  1  0  0  0  0
 21 27  2  0  0  0  0
 23 28  2  0  0  0  0
 25 21  1  0  0  0  0
 26 24  2  0  0  0  0
 26 30  1  0  0  0  0
 28 29  1  0  0  0  0
 29 22  1  0  0  0  0
 29 26  1  0  0  0  0
 30  8  1  0  0  0  0
 31 21  1  0  0  0  0
 31 28  1  0  0  0  0
M  END
>  <MODEL>
8

>  <REMARK>
 VINA RESULT:      -9.7      1.345      1.591
  Name = 
  1 active torsions:
  status: ('A' for Active; 'I' for Inactive)
    1  A    between atoms: C_15  and  N_23
                            x       y       z     vdW  Elec       q    Type
                         _______ _______ _______ _____ _____    ______ ____

>  <TORSDO>
F 1

$$$$
=
 OpenBabel10222415303D

 31 34  0  0  0  0  0  0  0  0999 V2000
  183.9780  178.6500  138.7290 C   0  0  0  0  0  0  0  0  0  0  0  0
  187.6180  177.8930  139.3750 C   0  0  0  0  0  0  0  0  0  0  0  0
  188.1810  177.4900  138.1100 C   0  0  0  0  0  0  0  0  0  0  0  0
  187.5510  176.3630  135.9240 C   0  0  0  0  0  2  0  0  0  0  0  0
  186.2490  178.2770  139.5610 C   0  0  0  0  0  0  0  0  0  0  0  0
  183.5550  179.0240  140.0030 C   0  0  0  0  0  3  0  0  0  0  0  0
  187.3720  177.5710  136.8330 C   0  0  0  0  0  2  0  0  0  0  0  0
  187.9870  178.2800  141.7960 C   0  0  0  0  0  0  0  0  0  0  0  0
  183.0540  178.6390  137.6500 N   0  0  0  0  0  1  0  0  0  0  0  0
  190.3370  177.1300  139.1990 C   0  0  0  0  0  3  0  0  0  0  0  0
  188.7320  176.5790  134.9720 C   0  0  0  0  0  2  0  0  0  0  0  0
  186.6530  178.6510  141.9400 C   0  0  0  0  0  3  0  0  0  0  0  0
  188.4690  177.9010  140.5270 C   0  0  0  0  0  0  0  0  0  0  0  0
  185.3070  178.2840  138.5150 C   0  0  0  0  0  3  0  0  0  0  0  0
  189.8420  177.2830  135.6150 N   0  0  0  0  0  2  0  0  0  0  0  0
  185.7920  178.6540  140.8530 C   0  0  0  0  0  0  0  0  0  0  0  0
  184.4600  179.0260  141.0600 C   0  0  0  0  0  3  0  0  0  0  0  0
  189.8070  177.5230  140.4130 C   0  0  0  0  0  3  0  0  0  0  0  0
  189.5560  177.1150  138.0480 C   0  0  0  0  0  0  0  0  0  0  0  0
  190.2240  176.5540  136.8190 C   0  0  0  0  0  2  0  0  0  0  0  0
  191.7280  176.0710  146.8540 C   0  0  0  0  0  0  0  0  0  0  0  0
  190.8590  178.1770  144.8710 O   0  0  0  0  0  1  0  0  0  0  0  0
  188.3050  177.2830  147.0790 O   0  0  0  0  0  0  0  0  0  0  0  0
  187.4240  177.3550  144.5510 O   0  0  0  0  0  0  0  0  0  0  0  0
  192.8100  175.7280  147.8150 C   0  0  0  0  0  1  0  0  0  0  0  0
  188.5880  177.7370  144.2460 C   0  0  0  0  0  0  0  0  0  0  0  0
  191.8780  175.7980  145.6340 O   0  0  0  0  0  0  0  0  0  0  0  0
  189.4440  177.1850  146.5520 C   0  0  0  0  0  0  0  0  0  0  0  0
  189.6560  177.6510  145.2060 N   0  0  0  0  0  0  0  0  0  0  0  0
  188.8680  178.2450  142.9350 N   0  0  0  0  0  2  0  0  0  0  0  0
  190.5170  176.6550  147.3440 N   0  0  0  0  0  2  0  0  0  0  0  0
  1  6  1  0  0  0  0
  2  5  2  0  0  0  0
  2 13  1  0  0  0  0
  3  2  1  0  0  0  0
  4  7  1  0  0  0  0
  5 16  1  0  0  0  0
  6 17  2  0  0  0  0
  7  3  1  0  0  0  0
  8 12  1  0  0  0  0
  8 30  1  0  0  0  0
  9  1  1  0  0  0  0
 10 18  2  0  0  0  0
 11 15  1  0  0  0  0
 11  4  1  0  0  0  0
 13  8  2  0  0  0  0
 14  1  2  0  0  0  0
 14  5  1  0  0  0  0
 15 20  1  0  0  0  0
 16 17  1  0  0  0  0
 16 12  2  0  0  0  0
 18 13  1  0  0  0  0
 19  3  2  0  0  0  0
 19 10  1  0  0  0  0
 20 19  1  0  0  0  0
 21 31  1  0  0  0  0
 21 25  1  0  0  0  0
 22 29  1  0  0  0  0
 26 24  2  0  0  0  0
 26 29  1  0  0  0  0
 27 21  2  0  0  0  0
 28 23  2  0  0  0  0
 28 31  1  0  0  0  0
 29 28  1  0  0  0  0
 30 26  1  0  0  0  0
M  END
>  <MODEL>
9

>  <REMARK>
 VINA RESULT:      -9.6      3.452      7.842
  Name = 
  1 active torsions:
  status: ('A' for Active; 'I' for Inactive)
    1  A    between atoms: C_15  and  N_23
                            x       y       z     vdW  Elec       q    Type
                         _______ _______ _______ _____ _____    ______ ____

>  <TORSDO>
F 1

$$$$
