=
 OpenBabel10222416423D

 30 33  0  0  1  0  0  0  0  0999 V2000
  188.2450  177.8050  141.5030 C   0  0  2  0  0  3  0  0  0  0  0  0
  184.9800  178.1670  141.6620 N   0  0  0  0  0  0  0  0  0  0  0  0
  186.6400  179.2480  140.7010 O   0  0  0  0  0  0  0  0  0  0  0  0
  187.2460  178.8160  141.8590 N   0  0  0  0  0  0  0  0  0  0  0  0
  185.3330  178.8360  140.6290 C   0  0  0  0  0  0  0  0  0  0  0  0
  186.1440  178.1080  142.5430 C   0  0  0  0  0  2  0  0  0  0  0  0
  184.3030  180.3100  139.1010 O   0  0  0  0  0  0  0  0  0  0  0  0
  184.4500  179.1210  139.4930 C   0  0  0  0  0  0  0  0  0  0  0  0
  183.7240  178.0220  138.7920 C   0  0  0  0  0  1  0  0  0  0  0  0
  188.1530  177.3550  140.1570 O   0  0  0  0  0  0  0  0  0  0  0  0
  189.2010  177.8360  139.3260 C   0  0  1  0  0  3  0  0  0  0  0  0
  191.4370  177.8240  140.1510 F   0  0  0  0  0  0  0  0  0  0  0  0
  190.5530  177.1140  139.3590 C   0  0  0  0  0  3  0  0  0  0  0  0
  191.0830  177.0360  138.0820 F   0  0  0  0  0  0  0  0  0  0  0  0
  189.1320  179.6680  137.8540 O   0  0  0  0  0  0  0  0  0  0  0  0
  188.7590  178.5230  138.0560 C   0  0  0  0  0  0  0  0  0  0  0  0
  188.5750  177.3640  135.9000 C   0  0  0  0  0  2  0  0  0  0  0  0
  187.8250  177.8730  137.0700 C   0  0  1  0  0  3  0  0  0  0  0  0
  188.1390  176.5080  136.9240 O   0  0  0  0  0  0  0  0  0  0  0  0
  188.3490  176.6610  142.5130 C   0  0  0  0  0  2  0  0  0  0  0  0
  189.4510  176.9450  143.5190 C   0  0  1  0  0  0  0  0  0  0  0  0
  190.8240  176.5080  143.1860 C   0  0  0  0  0  2  0  0  0  0  0  0
  190.4030  177.8440  143.0090 O   0  0  0  0  0  0  0  0  0  0  0  0
  187.8110  177.4880  145.3430 C   0  0  0  0  0  3  0  0  0  0  0  0
  188.5560  177.7650  147.6170 C   0  0  0  0  0  0  0  0  0  0  0  0
  189.8340  177.5170  147.2210 N   0  0  0  0  0  0  0  0  0  0  0  0
  188.2630  178.0590  149.0450 C   0  0  0  0  0  1  0  0  0  0  0  0
  189.1270  177.2160  144.9560 C   0  0  0  0  0  0  0  0  0  0  0  0
  190.1400  177.2480  145.9210 C   0  0  0  0  0  3  0  0  0  0  0  0
  187.5190  177.7600  146.6810 C   0  0  0  0  0  3  0  0  0  0  0  0
  1  4  1  0  0  0  0
  1 20  1  1  0  0  0
  2  6  1  0  0  0  0
  3  4  1  0  0  0  0
  4  6  1  0  0  0  0
  5  3  1  0  0  0  0
  5  2  2  0  0  0  0
  7  8  2  0  0  0  0
  8  5  1  0  0  0  0
  9  8  1  0  0  0  0
 10  1  1  0  0  0  0
 11 16  1  6  0  0  0
 11 13  1  0  0  0  0
 11 10  1  0  0  0  0
 13 12  1  0  0  0  0
 14 13  1  0  0  0  0
 15 16  2  0  0  0  0
 17 19  1  0  0  0  0
 17 18  1  0  0  0  0
 18 16  1  1  0  0  0
 19 18  1  0  0  0  0
 21 20  1  6  0  0  0
 21 28  1  0  0  0  0
 22 21  1  0  0  0  0
 23 22  1  0  0  0  0
 23 21  1  0  0  0  0
 24 30  1  0  0  0  0
 25 27  1  0  0  0  0
 26 25  1  0  0  0  0
 28 24  2  0  0  0  0
 28 29  1  0  0  0  0
 29 26  2  0  0  0  0
 30 25  2  0  0  0  0
M  END
>  <MODEL>
1

>  <REMARK>
 VINA RESULT:      -7.5      0.000      0.000
  Name = 
  10 active torsions:
  status: ('A' for Active; 'I' for Inactive)
    1  A    between atoms: O_3  and  C_23
    2  A    between atoms: O_3  and  C_26
    3  A    between atoms: C_8  and  C_23
    4  A    between atoms: C_10  and  C_19
    5  A    between atoms: C_10  and  C_22
    6  A    between atoms: N_13  and  C_26
    7  A    between atoms: C_14  and  C_15
    8  A    between atoms: C_16  and  C_29
    9  A    between atoms: C_19  and  C_26
   10  A    between atoms: C_23  and  C_29
                            x       y       z     vdW  Elec       q    Type
                         _______ _______ _______ _____ _____    ______ ____

>  <TORSDO>
F 10

$$$$
=
 OpenBabel10222416423D

 30 33  0  0  1  0  0  0  0  0999 V2000
  188.5640  177.6330  143.1610 C   0  0  2  0  0  3  0  0  0  0  0  0
  185.4680  178.7110  143.4190 N   0  0  0  0  0  0  0  0  0  0  0  0
  186.7350  177.2830  144.5160 O   0  0  0  0  0  0  0  0  0  0  0  0
  187.1970  177.1080  143.2300 N   0  0  0  0  0  0  0  0  0  0  0  0
  185.7430  178.2290  144.5730 C   0  0  0  0  0  0  0  0  0  0  0  0
  186.3430  178.0370  142.4620 C   0  0  0  0  0  2  0  0  0  0  0  0
  183.8740  178.9920  145.7940 O   0  0  0  0  0  0  0  0  0  0  0  0
  185.0860  178.6460  145.8160 C   0  0  0  0  0  0  0  0  0  0  0  0
  185.8310  178.6640  147.1080 C   0  0  0  0  0  1  0  0  0  0  0  0
  188.9970  178.2690  144.3570 O   0  0  0  0  0  0  0  0  0  0  0  0
  190.2360  177.7730  144.8470 C   0  0  1  0  0  3  0  0  0  0  0  0
  191.2220  179.6470  143.7520 F   0  0  0  0  0  0  0  0  0  0  0  0
  191.5300  178.4650  144.4020 C   0  0  0  0  0  3  0  0  0  0  0  0
  192.2260  177.6550  143.5220 F   0  0  0  0  0  0  0  0  0  0  0  0
  189.0870  176.8140  146.6600 O   0  0  0  0  0  0  0  0  0  0  0  0
  190.1800  177.1070  146.2010 C   0  0  0  0  0  0  0  0  0  0  0  0
  191.4640  175.4480  147.4740 C   0  0  0  0  0  2  0  0  0  0  0  0
  191.4120  176.8580  147.0290 C   0  0  1  0  0  3  0  0  0  0  0  0
  192.2420  175.9090  146.4000 O   0  0  0  0  0  0  0  0  0  0  0  0
  188.8420  178.4600  141.9050 C   0  0  0  0  0  2  0  0  0  0  0  0
  189.4990  177.5980  140.8400 C   0  0  1  0  0  0  0  0  0  0  0  0
  190.9590  177.3850  140.9240 C   0  0  0  0  0  2  0  0  0  0  0  0
  190.0370  176.4190  141.3840 O   0  0  0  0  0  0  0  0  0  0  0  0
  187.7330  178.1430  139.1380 C   0  0  0  0  0  3  0  0  0  0  0  0
  187.5630  176.8700  137.1000 C   0  0  0  0  0  0  0  0  0  0  0  0
  188.6150  176.1050  137.4980 N   0  0  0  0  0  0  0  0  0  0  0  0
  186.8940  176.5960  135.8010 C   0  0  0  0  0  1  0  0  0  0  0  0
  188.8260  177.3600  139.5240 C   0  0  0  0  0  0  0  0  0  0  0  0
  189.2490  176.3240  138.6840 C   0  0  0  0  0  3  0  0  0  0  0  0
  187.0980  177.9030  137.9190 C   0  0  0  0  0  3  0  0  0  0  0  0
  1 20  1  6  0  0  0
  1  4  1  0  0  0  0
  1 10  1  0  0  0  0
  2  5  2  0  0  0  0
  3  5  1  0  0  0  0
  4  3  1  0  0  0  0
  5  8  1  0  0  0  0
  6  4  1  0  0  0  0
  6  2  1  0  0  0  0
  7  8  2  0  0  0  0
  8  9  1  0  0  0  0
 11 10  1  1  0  0  0
 11 16  1  0  0  0  0
 12 13  1  0  0  0  0
 13 11  1  0  0  0  0
 14 13  1  0  0  0  0
 16 15  2  0  0  0  0
 18 16  1  6  0  0  0
 18 17  1  0  0  0  0
 19 18  1  0  0  0  0
 19 17  1  0  0  0  0
 21 22  1  0  0  0  0
 21 23  1  0  0  0  0
 21 20  1  1  0  0  0
 22 23  1  0  0  0  0
 24 28  1  0  0  0  0
 25 26  2  0  0  0  0
 25 30  1  0  0  0  0
 26 29  1  0  0  0  0
 27 25  1  0  0  0  0
 28 21  1  0  0  0  0
 29 28  2  0  0  0  0
 30 24  2  0  0  0  0
M  END
>  <MODEL>
2

>  <REMARK>
 VINA RESULT:      -7.3      2.982      6.994
  Name = 
  10 active torsions:
  status: ('A' for Active; 'I' for Inactive)
    1  A    between atoms: O_3  and  C_23
    2  A    between atoms: O_3  and  C_26
    3  A    between atoms: C_8  and  C_23
    4  A    between atoms: C_10  and  C_19
    5  A    between atoms: C_10  and  C_22
    6  A    between atoms: N_13  and  C_26
    7  A    between atoms: C_14  and  C_15
    8  A    between atoms: C_16  and  C_29
    9  A    between atoms: C_19  and  C_26
   10  A    between atoms: C_23  and  C_29
                            x       y       z     vdW  Elec       q    Type
                         _______ _______ _______ _____ _____    ______ ____

>  <TORSDO>
F 10

$$$$
=
 OpenBabel10222416423D

 30 33  0  0  1  0  0  0  0  0999 V2000
  188.7860  177.4730  143.4580 C   0  0  2  0  0  3  0  0  0  0  0  0
  185.7640  178.6340  142.8810 N   0  0  0  0  0  0  0  0  0  0  0  0
  186.6890  177.3360  144.4000 O   0  0  0  0  0  0  0  0  0  0  0  0
  187.4140  176.9880  143.2820 N   0  0  0  0  0  0  0  0  0  0  0  0
  185.7550  178.3010  144.1180 C   0  0  0  0  0  0  0  0  0  0  0  0
  186.7950  177.8260  142.2340 C   0  0  0  0  0  2  0  0  0  0  0  0
  185.3440  179.3690  146.1800 O   0  0  0  0  0  0  0  0  0  0  0  0
  184.8610  178.8880  145.1210 C   0  0  0  0  0  0  0  0  0  0  0  0
  183.3850  178.9280  144.9030 C   0  0  0  0  0  1  0  0  0  0  0  0
  189.0410  178.0240  144.7430 O   0  0  0  0  0  0  0  0  0  0  0  0
  189.9120  177.2320  145.5380 C   0  0  1  0  0  3  0  0  0  0  0  0
  192.1350  176.6910  146.2080 F   0  0  0  0  0  0  0  0  0  0  0  0
  191.3870  177.1300  145.1300 C   0  0  0  0  0  3  0  0  0  0  0  0
  191.8630  178.3730  144.7500 F   0  0  0  0  0  0  0  0  0  0  0  0
  189.6630  176.0340  147.5460 O   0  0  0  0  0  0  0  0  0  0  0  0
  189.5380  177.1170  146.9970 C   0  0  0  0  0  0  0  0  0  0  0  0
  187.5140  178.0500  148.0240 C   0  0  0  0  0  2  0  0  0  0  0  0
  188.9560  178.2680  147.7730 C   0  0  1  0  0  3  0  0  0  0  0  0
  188.4760  177.8250  149.0210 O   0  0  0  0  0  0  0  0  0  0  0  0
  189.2750  178.3620  142.3140 C   0  0  0  0  0  2  0  0  0  0  0  0
  190.0800  177.5460  141.3170 C   0  0  1  0  0  0  0  0  0  0  0  0
  191.4350  177.1070  141.7140 C   0  0  0  0  0  2  0  0  0  0  0  0
  190.3200  176.2430  141.7860 O   0  0  0  0  0  0  0  0  0  0  0  0
  190.2050  176.5570  139.0110 C   0  0  0  0  0  3  0  0  0  0  0  0
  189.1540  177.6630  137.1460 C   0  0  0  0  0  0  0  0  0  0  0  0
  188.7310  178.6510  137.9800 N   0  0  0  0  0  0  0  0  0  0  0  0
  188.8330  177.7240  135.6960 C   0  0  0  0  0  1  0  0  0  0  0  0
  189.7460  177.5710  139.8580 C   0  0  0  0  0  0  0  0  0  0  0  0
  189.0100  178.6300  139.3130 C   0  0  0  0  0  3  0  0  0  0  0  0
  189.9060  176.5970  137.6480 C   0  0  0  0  0  3  0  0  0  0  0  0
  1 20  1  6  0  0  0
  1 10  1  0  0  0  0
  2  5  2  0  0  0  0
  4  1  1  0  0  0  0
  4  3  1  0  0  0  0
  5  3  1  0  0  0  0
  5  8  1  0  0  0  0
  6  2  1  0  0  0  0
  6  4  1  0  0  0  0
  8  7  2  0  0  0  0
  9  8  1  0  0  0  0
 11 10  1  1  0  0  0
 11 16  1  0  0  0  0
 13 11  1  0  0  0  0
 13 12  1  0  0  0  0
 14 13  1  0  0  0  0
 16 15  2  0  0  0  0
 17 19  1  0  0  0  0
 18 16  1  6  0  0  0
 18 17  1  0  0  0  0
 18 19  1  0  0  0  0
 21 22  1  0  0  0  0
 21 23  1  0  0  0  0
 21 20  1  1  0  0  0
 22 23  1  0  0  0  0
 24 28  1  0  0  0  0
 25 30  1  0  0  0  0
 25 26  2  0  0  0  0
 26 29  1  0  0  0  0
 27 25  1  0  0  0  0
 28 21  1  0  0  0  0
 29 28  2  0  0  0  0
 30 24  2  0  0  0  0
M  END
>  <MODEL>
3

>  <REMARK>
 VINA RESULT:      -7.3      3.107      7.188
  Name = 
  10 active torsions:
  status: ('A' for Active; 'I' for Inactive)
    1  A    between atoms: O_3  and  C_23
    2  A    between atoms: O_3  and  C_26
    3  A    between atoms: C_8  and  C_23
    4  A    between atoms: C_10  and  C_19
    5  A    between atoms: C_10  and  C_22
    6  A    between atoms: N_13  and  C_26
    7  A    between atoms: C_14  and  C_15
    8  A    between atoms: C_16  and  C_29
    9  A    between atoms: C_19  and  C_26
   10  A    between atoms: C_23  and  C_29
                            x       y       z     vdW  Elec       q    Type
                         _______ _______ _______ _____ _____    ______ ____

>  <TORSDO>
F 10

$$$$
=
 OpenBabel10222416423D

 30 33  0  0  1  0  0  0  0  0999 V2000
  188.2310  177.8960  141.4490 C   0  0  2  0  0  3  0  0  0  0  0  0
  189.1070  178.5930  138.3570 N   0  0  0  0  0  0  0  0  0  0  0  0
  187.6590  177.2400  139.3160 O   0  0  0  0  0  0  0  0  0  0  0  0
  188.6870  177.2160  140.2330 N   0  0  0  0  0  0  0  0  0  0  0  0
  187.9460  178.0610  138.2550 C   0  0  0  0  0  0  0  0  0  0  0  0
  189.6910  178.0960  139.6010 C   0  0  0  0  0  2  0  0  0  0  0  0
  187.3460  179.1190  136.2340 O   0  0  0  0  0  0  0  0  0  0  0  0
  187.0240  178.3060  137.1420 C   0  0  0  0  0  0  0  0  0  0  0  0
  185.7100  177.6040  137.0660 C   0  0  0  0  0  1  0  0  0  0  0  0
  187.3000  178.9440  141.2070 O   0  0  0  0  0  0  0  0  0  0  0  0
  185.9860  178.6520  141.6620 C   0  0  1  0  0  3  0  0  0  0  0  0
  184.9130  177.8020  143.6140 F   0  0  0  0  0  0  0  0  0  0  0  0
  185.6580  178.8690  143.1450 C   0  0  0  0  0  3  0  0  0  0  0  0
  184.9110  180.0230  143.3030 F   0  0  0  0  0  0  0  0  0  0  0  0
  184.9740  179.7210  139.8290 O   0  0  0  0  0  0  0  0  0  0  0  0
  184.8930  178.8050  140.6320 C   0  0  0  0  0  0  0  0  0  0  0  0
  182.5340  178.5770  141.2730 C   0  0  0  0  0  2  0  0  0  0  0  0
  183.6780  177.9160  140.6060 C   0  0  1  0  0  3  0  0  0  0  0  0
  182.6400  178.5250  139.8740 O   0  0  0  0  0  0  0  0  0  0  0  0
  189.3670  178.3050  142.3870 C   0  0  0  0  0  2  0  0  0  0  0  0
  189.6450  177.2000  143.3920 C   0  0  1  0  0  0  0  0  0  0  0  0
  189.9240  175.8440  142.8730 C   0  0  0  0  0  2  0  0  0  0  0  0
  190.9600  176.7150  143.2800 O   0  0  0  0  0  0  0  0  0  0  0  0
  187.8570  177.5120  145.1290 C   0  0  0  0  0  3  0  0  0  0  0  0
  188.4270  177.6240  147.4670 C   0  0  0  0  0  0  0  0  0  0  0  0
  189.7400  177.4680  147.1470 N   0  0  0  0  0  0  0  0  0  0  0  0
  188.0210  177.7810  148.8880 C   0  0  0  0  0  1  0  0  0  0  0  0
  189.2090  177.3330  144.8190 C   0  0  0  0  0  0  0  0  0  0  0  0
  190.1490  177.3260  145.8550 C   0  0  0  0  0  3  0  0  0  0  0  0
  187.4590  177.6540  146.4600 C   0  0  0  0  0  3  0  0  0  0  0  0
  1 20  1  6  0  0  0
  2  6  1  0  0  0  0
  3  4  1  0  0  0  0
  4  1  1  0  0  0  0
  5  2  2  0  0  0  0
  5  3  1  0  0  0  0
  6  4  1  0  0  0  0
  7  8  2  0  0  0  0
  8  5  1  0  0  0  0
  9  8  1  0  0  0  0
 10  1  1  0  0  0  0
 10 11  1  0  0  0  0
 11 16  1  6  0  0  0
 11 13  1  0  0  0  0
 13 14  1  0  0  0  0
 13 12  1  0  0  0  0
 15 16  2  0  0  0  0
 18 16  1  1  0  0  0
 18 17  1  0  0  0  0
 19 18  1  0  0  0  0
 19 17  1  0  0  0  0
 21 20  1  6  0  0  0
 21 28  1  0  0  0  0
 22 23  1  0  0  0  0
 22 21  1  0  0  0  0
 23 21  1  0  0  0  0
 24 30  1  0  0  0  0
 25 27  1  0  0  0  0
 26 25  1  0  0  0  0
 28 24  2  0  0  0  0
 28 29  1  0  0  0  0
 29 26  2  0  0  0  0
 30 25  2  0  0  0  0
M  END
>  <MODEL>
4

>  <REMARK>
 VINA RESULT:      -7.2      2.481      4.067
  Name = 
  10 active torsions:
  status: ('A' for Active; 'I' for Inactive)
    1  A    between atoms: O_3  and  C_23
    2  A    between atoms: O_3  and  C_26
    3  A    between atoms: C_8  and  C_23
    4  A    between atoms: C_10  and  C_19
    5  A    between atoms: C_10  and  C_22
    6  A    between atoms: N_13  and  C_26
    7  A    between atoms: C_14  and  C_15
    8  A    between atoms: C_16  and  C_29
    9  A    between atoms: C_19  and  C_26
   10  A    between atoms: C_23  and  C_29
                            x       y       z     vdW  Elec       q    Type
                         _______ _______ _______ _____ _____    ______ ____

>  <TORSDO>
F 10

$$$$
=
 OpenBabel10222416423D

 30 33  0  0  1  0  0  0  0  0999 V2000
  188.0450  178.6220  141.1290 C   0  0  2  0  0  3  0  0  0  0  0  0
  188.5840  176.6860  138.5260 N   0  0  0  0  0  0  0  0  0  0  0  0
  189.7550  178.1710  139.6530 O   0  0  0  0  0  0  0  0  0  0  0  0
  188.4930  178.7160  139.7360 N   0  0  0  0  0  0  0  0  0  0  0  0
  189.7520  176.9910  138.9530 C   0  0  0  0  0  0  0  0  0  0  0  0
  187.6850  177.7520  138.9610 C   0  0  0  0  0  2  0  0  0  0  0  0
  190.8220  174.9590  138.4130 O   0  0  0  0  0  0  0  0  0  0  0  0
  190.9480  176.1710  138.7320 C   0  0  0  0  0  0  0  0  0  0  0  0
  192.3140  176.7540  138.8770 C   0  0  0  0  0  1  0  0  0  0  0  0
  187.0030  179.5300  141.4600 O   0  0  0  0  0  0  0  0  0  0  0  0
  185.7750  178.8910  141.7820 C   0  0  1  0  0  3  0  0  0  0  0  0
  184.4570  177.8210  143.4560 F   0  0  0  0  0  0  0  0  0  0  0  0
  185.3100  178.8890  143.2440 C   0  0  0  0  0  3  0  0  0  0  0  0
  184.6210  180.0570  143.5260 F   0  0  0  0  0  0  0  0  0  0  0  0
  184.7970  179.7310  139.8160 O   0  0  0  0  0  0  0  0  0  0  0  0
  184.7450  178.8680  140.6780 C   0  0  0  0  0  0  0  0  0  0  0  0
  182.3360  178.5150  140.9890 C   0  0  0  0  0  2  0  0  0  0  0  0
  183.6210  177.8670  140.6440 C   0  0  1  0  0  3  0  0  0  0  0  0
  182.6780  178.2220  139.6590 O   0  0  0  0  0  0  0  0  0  0  0  0
  189.1890  178.6240  142.1440 C   0  0  0  0  0  2  0  0  0  0  0  0
  189.1240  177.3810  143.0150 C   0  0  1  0  0  0  0  0  0  0  0  0
  188.8800  176.0810  142.3520 C   0  0  0  0  0  2  0  0  0  0  0  0
  190.1770  176.4920  142.7320 O   0  0  0  0  0  0  0  0  0  0  0  0
  187.5330  177.4950  144.9550 C   0  0  0  0  0  3  0  0  0  0  0  0
  188.3610  177.7300  147.2050 C   0  0  0  0  0  0  0  0  0  0  0  0
  189.6350  177.7380  146.7280 N   0  0  0  0  0  0  0  0  0  0  0  0
  188.1120  177.8630  148.6650 C   0  0  0  0  0  1  0  0  0  0  0  0
  188.8490  177.4860  144.4830 C   0  0  0  0  0  0  0  0  0  0  0  0
  189.9000  177.6220  145.3970 C   0  0  0  0  0  3  0  0  0  0  0  0
  187.2830  177.6130  146.3230 C   0  0  0  0  0  3  0  0  0  0  0  0
  1 10  1  0  0  0  0
  1 20  1  1  0  0  0
  2  5  2  0  0  0  0
  2  6  1  0  0  0  0
  3  4  1  0  0  0  0
  4  1  1  0  0  0  0
  5  3  1  0  0  0  0
  6  4  1  0  0  0  0
  7  8  2  0  0  0  0
  8  9  1  0  0  0  0
  8  5  1  0  0  0  0
 10 11  1  0  0  0  0
 11 16  1  6  0  0  0
 11 13  1  0  0  0  0
 13 12  1  0  0  0  0
 13 14  1  0  0  0  0
 15 16  2  0  0  0  0
 18 16  1  6  0  0  0
 18 17  1  0  0  0  0
 19 18  1  0  0  0  0
 19 17  1  0  0  0  0
 21 20  1  6  0  0  0
 21 28  1  0  0  0  0
 22 23  1  0  0  0  0
 22 21  1  0  0  0  0
 23 21  1  0  0  0  0
 24 30  1  0  0  0  0
 25 27  1  0  0  0  0
 26 25  1  0  0  0  0
 28 24  2  0  0  0  0
 28 29  1  0  0  0  0
 29 26  2  0  0  0  0
 30 25  2  0  0  0  0
M  END
>  <MODEL>
5

>  <REMARK>
 VINA RESULT:      -7.2      2.667      4.804
  Name = 
  10 active torsions:
  status: ('A' for Active; 'I' for Inactive)
    1  A    between atoms: O_3  and  C_23
    2  A    between atoms: O_3  and  C_26
    3  A    between atoms: C_8  and  C_23
    4  A    between atoms: C_10  and  C_19
    5  A    between atoms: C_10  and  C_22
    6  A    between atoms: N_13  and  C_26
    7  A    between atoms: C_14  and  C_15
    8  A    between atoms: C_16  and  C_29
    9  A    between atoms: C_19  and  C_26
   10  A    between atoms: C_23  and  C_29
                            x       y       z     vdW  Elec       q    Type
                         _______ _______ _______ _____ _____    ______ ____

>  <TORSDO>
F 10

$$$$
=
 OpenBabel10222416423D

 30 33  0  0  1  0  0  0  0  0999 V2000
  189.2530  177.4790  141.4050 C   0  0  2  0  0  3  0  0  0  0  0  0
  192.1920  177.4630  139.9300 N   0  0  0  0  0  0  0  0  0  0  0  0
  190.3790  176.2180  139.8420 O   0  0  0  0  0  0  0  0  0  0  0  0
  190.3840  176.5770  141.1710 N   0  0  0  0  0  0  0  0  0  0  0  0
  191.4390  176.7660  139.1640 C   0  0  0  0  0  0  0  0  0  0  0  0
  191.6110  177.3940  141.2690 C   0  0  0  0  0  2  0  0  0  0  0  0
  192.8410  176.3670  137.3100 O   0  0  0  0  0  0  0  0  0  0  0  0
  191.6720  176.5820  137.7290 C   0  0  0  0  0  0  0  0  0  0  0  0
  190.5430  176.6410  136.7550 C   0  0  0  0  0  1  0  0  0  0  0  0
  188.9300  178.2980  140.2890 O   0  0  0  0  0  0  0  0  0  0  0  0
  187.6280  178.0620  139.7690 C   0  0  1  0  0  3  0  0  0  0  0  0
  185.4270  178.9780  139.7730 F   0  0  0  0  0  0  0  0  0  0  0  0
  186.4160  178.4900  140.6070 C   0  0  0  0  0  3  0  0  0  0  0  0
  186.7760  179.4960  141.4870 F   0  0  0  0  0  0  0  0  0  0  0  0
  187.8750  179.0480  137.6490 O   0  0  0  0  0  0  0  0  0  0  0  0
  187.5210  178.0540  138.2640 C   0  0  0  0  0  0  0  0  0  0  0  0
  185.5320  177.1860  137.1160 C   0  0  0  0  0  2  0  0  0  0  0  0
  186.9300  176.8960  137.5030 C   0  0  1  0  0  3  0  0  0  0  0  0
  186.5860  177.2920  136.1960 O   0  0  0  0  0  0  0  0  0  0  0  0
  189.3500  178.2600  142.7160 C   0  0  0  0  0  2  0  0  0  0  0  0
  188.8580  177.4110  143.8750 C   0  0  1  0  0  0  0  0  0  0  0  0
  187.4050  177.3810  144.1450 C   0  0  0  0  0  2  0  0  0  0  0  0
  188.0520  176.3470  143.4340 O   0  0  0  0  0  0  0  0  0  0  0  0
  189.4070  177.1500  146.3130 C   0  0  0  0  0  3  0  0  0  0  0  0
  191.5460  176.2780  146.9990 C   0  0  0  0  0  0  0  0  0  0  0  0
  191.9070  176.1570  145.6930 N   0  0  0  0  0  0  0  0  0  0  0  0
  192.4970  175.8900  148.0740 C   0  0  0  0  0  1  0  0  0  0  0  0
  189.7880  177.0010  144.9750 C   0  0  0  0  0  0  0  0  0  0  0  0
  191.0640  176.5070  144.6830 C   0  0  0  0  0  3  0  0  0  0  0  0
  190.2860  176.7840  147.3330 C   0  0  0  0  0  3  0  0  0  0  0  0
  1 20  1  1  0  0  0
  2  6  1  0  0  0  0
  3  4  1  0  0  0  0
  4  6  1  0  0  0  0
  4  1  1  0  0  0  0
  5  3  1  0  0  0  0
  5  2  2  0  0  0  0
  7  8  2  0  0  0  0
  8  5  1  0  0  0  0
  9  8  1  0  0  0  0
 10  1  1  0  0  0  0
 11 16  1  6  0  0  0
 11 10  1  0  0  0  0
 11 13  1  0  0  0  0
 12 13  1  0  0  0  0
 13 14  1  0  0  0  0
 15 16  2  0  0  0  0
 17 18  1  0  0  0  0
 18 16  1  1  0  0  0
 19 17  1  0  0  0  0
 19 18  1  0  0  0  0
 21 20  1  6  0  0  0
 21 22  1  0  0  0  0
 21 28  1  0  0  0  0
 23 21  1  0  0  0  0
 23 22  1  0  0  0  0
 24 30  1  0  0  0  0
 25 30  2  0  0  0  0
 25 27  1  0  0  0  0
 26 25  1  0  0  0  0
 28 24  2  0  0  0  0
 29 28  1  0  0  0  0
 29 26  2  0  0  0  0
M  END
>  <MODEL>
6

>  <REMARK>
 VINA RESULT:      -7.1      2.692      4.402
  Name = 
  10 active torsions:
  status: ('A' for Active; 'I' for Inactive)
    1  A    between atoms: O_3  and  C_23
    2  A    between atoms: O_3  and  C_26
    3  A    between atoms: C_8  and  C_23
    4  A    between atoms: C_10  and  C_19
    5  A    between atoms: C_10  and  C_22
    6  A    between atoms: N_13  and  C_26
    7  A    between atoms: C_14  and  C_15
    8  A    between atoms: C_16  and  C_29
    9  A    between atoms: C_19  and  C_26
   10  A    between atoms: C_23  and  C_29
                            x       y       z     vdW  Elec       q    Type
                         _______ _______ _______ _____ _____    ______ ____

>  <TORSDO>
F 10

$$$$
=
 OpenBabel10222416423D

 30 33  0  0  1  0  0  0  0  0999 V2000
  187.8390  177.6820  141.8670 C   0  0  2  0  0  3  0  0  0  0  0  0
  184.6140  178.1630  141.4440 N   0  0  0  0  0  0  0  0  0  0  0  0
  186.4540  179.2280  140.8710 O   0  0  0  0  0  0  0  0  0  0  0  0
  186.8210  178.7110  142.0940 N   0  0  0  0  0  0  0  0  0  0  0  0
  185.1710  178.8730  140.5350 C   0  0  0  0  0  0  0  0  0  0  0  0
  185.5910  178.0110  142.5190 C   0  0  0  0  0  2  0  0  0  0  0  0
  184.1750  180.4500  139.0910 O   0  0  0  0  0  0  0  0  0  0  0  0
  184.5240  179.2530  139.2760 C   0  0  0  0  0  0  0  0  0  0  0  0
  184.2740  178.2420  138.2070 C   0  0  0  0  0  1  0  0  0  0  0  0
  187.8720  176.6750  142.8710 O   0  0  0  0  0  0  0  0  0  0  0  0
  188.6280  177.0420  144.0170 C   0  0  1  0  0  3  0  0  0  0  0  0
  187.4600  178.4640  145.5340 F   0  0  0  0  0  0  0  0  0  0  0  0
  187.9050  177.1650  145.3640 C   0  0  0  0  0  3  0  0  0  0  0  0
  188.7730  176.8650  146.4000 F   0  0  0  0  0  0  0  0  0  0  0  0
  190.3840  175.5760  143.4730 O   0  0  0  0  0  0  0  0  0  0  0  0
  190.0830  176.6390  143.9930 C   0  0  0  0  0  0  0  0  0  0  0  0
  191.6470  178.5110  143.7180 C   0  0  0  0  0  2  0  0  0  0  0  0
  191.1600  177.4650  144.6450 C   0  0  1  0  0  3  0  0  0  0  0  0
  190.7490  178.8080  144.7560 O   0  0  0  0  0  0  0  0  0  0  0  0
  189.2210  178.2460  141.5350 C   0  0  0  0  0  2  0  0  0  0  0  0
  189.7530  177.6220  140.2560 C   0  0  1  0  0  0  0  0  0  0  0  0
  191.1850  177.2590  140.2050 C   0  0  0  0  0  2  0  0  0  0  0  0
  190.1820  176.2990  140.4620 O   0  0  0  0  0  0  0  0  0  0  0  0
  188.3900  176.6900  138.3630 C   0  0  0  0  0  3  0  0  0  0  0  0
  187.7080  178.1010  136.5340 C   0  0  0  0  0  0  0  0  0  0  0  0
  188.3420  179.1530  137.1190 N   0  0  0  0  0  0  0  0  0  0  0  0
  187.0110  178.2820  135.2340 C   0  0  0  0  0  1  0  0  0  0  0  0
  189.0210  177.7860  138.9600 C   0  0  0  0  0  0  0  0  0  0  0  0
  188.9950  179.0230  138.3070 C   0  0  0  0  0  3  0  0  0  0  0  0
  187.7250  176.8450  137.1460 C   0  0  0  0  0  3  0  0  0  0  0  0
  1 20  1  1  0  0  0
  1  4  1  0  0  0  0
  1 10  1  0  0  0  0
  2  6  1  0  0  0  0
  3  4  1  0  0  0  0
  4  6  1  0  0  0  0
  5  3  1  0  0  0  0
  5  2  2  0  0  0  0
  7  8  2  0  0  0  0
  8  5  1  0  0  0  0
  9  8  1  0  0  0  0
 11 10  1  6  0  0  0
 11 13  1  0  0  0  0
 13 12  1  0  0  0  0
 13 14  1  0  0  0  0
 15 16  2  0  0  0  0
 16 11  1  0  0  0  0
 17 18  1  0  0  0  0
 17 19  1  0  0  0  0
 18 16  1  6  0  0  0
 18 19  1  0  0  0  0
 21 23  1  0  0  0  0
 21 20  1  1  0  0  0
 22 21  1  0  0  0  0
 22 23  1  0  0  0  0
 24 28  1  0  0  0  0
 25 26  2  0  0  0  0
 25 30  1  0  0  0  0
 26 29  1  0  0  0  0
 27 25  1  0  0  0  0
 28 21  1  0  0  0  0
 29 28  2  0  0  0  0
 30 24  2  0  0  0  0
M  END
>  <MODEL>
7

>  <REMARK>
 VINA RESULT:      -7.1      2.776      6.317
  Name = 
  10 active torsions:
  status: ('A' for Active; 'I' for Inactive)
    1  A    between atoms: O_3  and  C_23
    2  A    between atoms: O_3  and  C_26
    3  A    between atoms: C_8  and  C_23
    4  A    between atoms: C_10  and  C_19
    5  A    between atoms: C_10  and  C_22
    6  A    between atoms: N_13  and  C_26
    7  A    between atoms: C_14  and  C_15
    8  A    between atoms: C_16  and  C_29
    9  A    between atoms: C_19  and  C_26
   10  A    between atoms: C_23  and  C_29
                            x       y       z     vdW  Elec       q    Type
                         _______ _______ _______ _____ _____    ______ ____

>  <TORSDO>
F 10

$$$$
=
 OpenBabel10222416423D

 30 33  0  0  1  0  0  0  0  0999 V2000
  190.0230  177.9700  142.0690 C   0  0  2  0  0  3  0  0  0  0  0  0
  191.6190  175.9940  144.1570 N   0  0  0  0  0  0  0  0  0  0  0  0
  191.0860  178.1290  144.1060 O   0  0  0  0  0  0  0  0  0  0  0  0
  191.3080  177.8830  142.7690 N   0  0  0  0  0  0  0  0  0  0  0  0
  191.2680  177.0010  144.8660 C   0  0  0  0  0  0  0  0  0  0  0  0
  191.6970  176.4580  142.7740 C   0  0  0  0  0  2  0  0  0  0  0  0
  192.0560  176.7530  147.0750 O   0  0  0  0  0  0  0  0  0  0  0  0
  191.0690  176.9560  146.3180 C   0  0  0  0  0  0  0  0  0  0  0  0
  189.7150  177.1510  146.9120 C   0  0  0  0  0  1  0  0  0  0  0  0
  188.9380  178.3520  142.9040 O   0  0  0  0  0  0  0  0  0  0  0  0
  187.7580  177.5900  142.6860 C   0  0  1  0  0  3  0  0  0  0  0  0
  187.2780  176.8210  144.8910 F   0  0  0  0  0  0  0  0  0  0  0  0
  187.4850  176.3850  143.5940 C   0  0  0  0  0  3  0  0  0  0  0  0
  188.5750  175.5310  143.5940 F   0  0  0  0  0  0  0  0  0  0  0  0
  186.8140  179.1310  141.1820 O   0  0  0  0  0  0  0  0  0  0  0  0
  186.5950  178.3490  142.0940 C   0  0  0  0  0  0  0  0  0  0  0  0
  184.9270  179.2820  143.6330 C   0  0  0  0  0  2  0  0  0  0  0  0
  185.1940  178.2260  142.6320 C   0  0  1  0  0  3  0  0  0  0  0  0
  184.4460  179.3780  142.3170 O   0  0  0  0  0  0  0  0  0  0  0  0
  189.7130  176.7510  141.2000 C   0  0  0  0  0  2  0  0  0  0  0  0
  189.9110  177.0850  139.7310 C   0  0  1  0  0  0  0  0  0  0  0  0
  188.7250  177.4890  138.9460 C   0  0  0  0  0  2  0  0  0  0  0  0
  189.6340  178.4370  139.4640 O   0  0  0  0  0  0  0  0  0  0  0  0
  190.9960  175.5560  138.0590 C   0  0  0  0  0  3  0  0  0  0  0  0
  193.3690  175.6690  137.6560 C   0  0  0  0  0  0  0  0  0  0  0  0
  193.4700  176.6660  138.5760 N   0  0  0  0  0  0  0  0  0  0  0  0
  194.5830  175.1810  136.9510 C   0  0  0  0  0  1  0  0  0  0  0  0
  191.1150  176.5950  138.9880 C   0  0  0  0  0  0  0  0  0  0  0  0
  192.3800  177.1360  139.2450 C   0  0  0  0  0  3  0  0  0  0  0  0
  192.1260  175.0910  137.3840 C   0  0  0  0  0  3  0  0  0  0  0  0
  1 20  1  1  0  0  0
  1  4  1  0  0  0  0
  1 10  1  0  0  0  0
  2  5  2  0  0  0  0
  3  5  1  0  0  0  0
  4  6  1  0  0  0  0
  4  3  1  0  0  0  0
  5  8  1  0  0  0  0
  6  2  1  0  0  0  0
  8  9  1  0  0  0  0
  8  7  2  0  0  0  0
 11 16  1  1  0  0  0
 11 10  1  0  0  0  0
 11 13  1  0  0  0  0
 13 12  1  0  0  0  0
 14 13  1  0  0  0  0
 15 16  2  0  0  0  0
 18 16  1  6  0  0  0
 18 17  1  0  0  0  0
 19 18  1  0  0  0  0
 19 17  1  0  0  0  0
 21 20  1  1  0  0  0
 22 23  1  0  0  0  0
 22 21  1  0  0  0  0
 23 21  1  0  0  0  0
 24 28  1  0  0  0  0
 25 26  2  0  0  0  0
 26 29  1  0  0  0  0
 27 25  1  0  0  0  0
 28 29  2  0  0  0  0
 28 21  1  0  0  0  0
 30 25  1  0  0  0  0
 30 24  2  0  0  0  0
M  END
>  <MODEL>
8

>  <REMARK>
 VINA RESULT:      -7.0      2.996      7.311
  Name = 
  10 active torsions:
  status: ('A' for Active; 'I' for Inactive)
    1  A    between atoms: O_3  and  C_23
    2  A    between atoms: O_3  and  C_26
    3  A    between atoms: C_8  and  C_23
    4  A    between atoms: C_10  and  C_19
    5  A    between atoms: C_10  and  C_22
    6  A    between atoms: N_13  and  C_26
    7  A    between atoms: C_14  and  C_15
    8  A    between atoms: C_16  and  C_29
    9  A    between atoms: C_19  and  C_26
   10  A    between atoms: C_23  and  C_29
                            x       y       z     vdW  Elec       q    Type
                         _______ _______ _______ _____ _____    ______ ____

>  <TORSDO>
F 10

$$$$
=
 OpenBabel10222416423D

 30 33  0  0  1  0  0  0  0  0999 V2000
  189.0380  177.6650  142.7790 C   0  0  2  0  0  3  0  0  0  0  0  0
  191.5230  176.8710  144.7800 N   0  0  0  0  0  0  0  0  0  0  0  0
  189.8020  178.2400  144.8740 O   0  0  0  0  0  0  0  0  0  0  0  0
  190.1160  178.3080  143.5350 N   0  0  0  0  0  0  0  0  0  0  0  0
  190.6380  177.3860  145.5490 C   0  0  0  0  0  0  0  0  0  0  0  0
  191.2920  177.4170  143.4450 C   0  0  0  0  0  2  0  0  0  0  0  0
  191.5450  176.7620  147.6350 O   0  0  0  0  0  0  0  0  0  0  0  0
  190.5200  177.0920  146.9800 C   0  0  0  0  0  0  0  0  0  0  0  0
  189.2020  177.1820  147.6750 C   0  0  0  0  0  1  0  0  0  0  0  0
  187.9800  177.1730  143.5920 O   0  0  0  0  0  0  0  0  0  0  0  0
  186.8480  178.0310  143.6320 C   0  0  1  0  0  3  0  0  0  0  0  0
  185.9480  179.6130  142.0930 F   0  0  0  0  0  0  0  0  0  0  0  0
  186.0530  178.2560  142.3400 C   0  0  0  0  0  3  0  0  0  0  0  0
  184.7750  177.7400  142.4710 F   0  0  0  0  0  0  0  0  0  0  0  0
  186.1820  177.1370  145.7020 O   0  0  0  0  0  0  0  0  0  0  0  0
  186.1370  178.1070  144.9620 C   0  0  0  0  0  0  0  0  0  0  0  0
  183.8730  179.0010  145.2850 C   0  0  0  0  0  2  0  0  0  0  0  0
  185.3200  179.3030  145.3720 C   0  0  1  0  0  3  0  0  0  0  0  0
  184.5520  179.0030  146.5150 O   0  0  0  0  0  0  0  0  0  0  0  0
  189.5300  176.6470  141.7500 C   0  0  0  0  0  2  0  0  0  0  0  0
  189.5490  177.2640  140.3630 C   0  0  1  0  0  0  0  0  0  0  0  0
  188.2710  177.7500  139.8020 C   0  0  0  0  0  2  0  0  0  0  0  0
  189.2050  178.6270  140.3960 O   0  0  0  0  0  0  0  0  0  0  0  0
  190.4090  176.5370  138.1170 C   0  0  0  0  0  3  0  0  0  0  0  0
  192.7780  176.4310  137.6890 C   0  0  0  0  0  0  0  0  0  0  0  0
  193.0190  176.8510  138.9600 N   0  0  0  0  0  0  0  0  0  0  0  0
  193.9120  176.1350  136.7750 C   0  0  0  0  0  1  0  0  0  0  0  0
  190.6750  176.9860  139.4150 C   0  0  0  0  0  0  0  0  0  0  0  0
  192.0040  177.1270  139.8260 C   0  0  0  0  0  3  0  0  0  0  0  0
  191.4630  176.2610  137.2450 C   0  0  0  0  0  3  0  0  0  0  0  0
  1 20  1  1  0  0  0
  1  4  1  0  0  0  0
  1 10  1  0  0  0  0
  2  5  2  0  0  0  0
  3  5  1  0  0  0  0
  4  3  1  0  0  0  0
  5  8  1  0  0  0  0
  6  4  1  0  0  0  0
  6  2  1  0  0  0  0
  8  7  2  0  0  0  0
  8  9  1  0  0  0  0
 10 11  1  0  0  0  0
 11 13  1  6  0  0  0
 11 16  1  0  0  0  0
 12 13  1  0  0  0  0
 13 14  1  0  0  0  0
 16 15  2  0  0  0  0
 17 18  1  0  0  0  0
 17 19  1  0  0  0  0
 18 16  1  6  0  0  0
 18 19  1  0  0  0  0
 21 23  1  0  0  0  0
 21 20  1  1  0  0  0
 22 21  1  0  0  0  0
 22 23  1  0  0  0  0
 24 28  1  0  0  0  0
 25 26  2  0  0  0  0
 26 29  1  0  0  0  0
 27 25  1  0  0  0  0
 28 29  2  0  0  0  0
 28 21  1  0  0  0  0
 30 25  1  0  0  0  0
 30 24  2  0  0  0  0
M  END
>  <MODEL>
9

>  <REMARK>
 VINA RESULT:      -6.9      3.309      7.709
  Name = 
  10 active torsions:
  status: ('A' for Active; 'I' for Inactive)
    1  A    between atoms: O_3  and  C_23
    2  A    between atoms: O_3  and  C_26
    3  A    between atoms: C_8  and  C_23
    4  A    between atoms: C_10  and  C_19
    5  A    between atoms: C_10  and  C_22
    6  A    between atoms: N_13  and  C_26
    7  A    between atoms: C_14  and  C_15
    8  A    between atoms: C_16  and  C_29
    9  A    between atoms: C_19  and  C_26
   10  A    between atoms: C_23  and  C_29
                            x       y       z     vdW  Elec       q    Type
                         _______ _______ _______ _____ _____    ______ ____

>  <TORSDO>
F 10

$$$$
