=
 OpenBabel10222419543D

 37 40  0  0  1  0  0  0  0  0999 V2000
  190.2730  176.7630  140.9630 C   0  0  0  0  0  2  0  0  0  0  0  0
  190.9550  178.2340  142.7230 O   0  0  0  0  0  1  0  0  0  0  0  0
  189.0720  178.7880  141.3680 C   0  0  0  0  0  2  0  0  0  0  0  0
  189.8430  177.6920  142.0740 C   0  0  1  0  0  0  0  0  0  0  0  0
  189.2310  176.9540  139.8880 C   0  0  0  0  0  2  0  0  0  0  0  0
  188.6690  178.2910  140.0510 N   0  0  0  0  0  0  0  0  0  0  0  0
  187.2050  178.2440  139.9340 C   0  0  0  0  0  2  0  0  0  0  0  0
  186.4780  178.8640  141.1020 C   0  0  0  0  0  3  0  0  0  0  0  0
  185.2460  179.2820  141.0690 N   0  0  0  0  0  0  0  0  0  0  0  0
  184.3560  179.2910  139.9410 C   0  0  0  0  0  0  0  0  0  0  0  0
  184.3150  180.2770  139.1550 O   0  0  0  0  0  0  0  0  0  0  0  0
  180.1620  180.7390  139.9560 O   0  0  0  0  0  0  0  0  0  0  0  0
  183.0190  177.9260  138.2390 C   0  0  0  0  0  2  0  0  0  0  0  0
  180.7380  178.9660  138.4350 C   0  0  1  0  0  3  0  0  0  0  0  0
  182.0970  179.0430  137.7560 C   0  0  0  0  0  2  0  0  0  0  0  0
  182.3320  177.9520  140.6940 C   0  0  0  0  0  2  0  0  0  0  0  0
  180.7980  179.6660  139.7670 C   0  0  0  0  0  0  0  0  0  0  0  0
  181.5800  179.1570  140.8060 O   0  0  0  0  0  0  0  0  0  0  0  0
  183.4850  178.0860  139.6920 C   0  0  2  0  0  3  0  0  0  0  0  0
  179.1200  178.5480  136.7230 O   0  0  0  0  0  1  0  0  0  0  0  0
  179.6620  179.5490  137.5270 C   0  0  0  0  0  2  0  0  0  0  0  0
  188.9570  177.0240  143.0340 N   0  0  0  0  0  2  0  0  0  0  0  0
  188.3740  177.9810  143.9680 C   0  0  0  0  0  2  0  0  0  0  0  0
  187.3910  177.2650  144.8780 C   0  0  0  0  0  2  0  0  0  0  0  0
  187.6610  177.6070  146.3050 C   0  0  0  0  0  0  0  0  0  0  0  0
  188.7030  177.1900  147.0040 C   0  0  0  0  0  0  0  0  0  0  0  0
  188.7080  177.6970  148.2990 O   0  0  0  0  0  0  0  0  0  0  0  0
  185.7540  179.0740  146.9600 N   0  0  0  0  0  2  0  0  0  0  0  0
  187.5820  178.5410  148.5100 C   0  0  0  0  0  3  0  0  0  0  0  0
  186.8830  178.4730  147.1940 C   0  0  0  0  0  0  0  0  0  0  0  0
  184.0460  178.4640  144.9740 C   0  0  0  0  0  2  0  0  0  0  0  0
  185.0140  179.0340  145.7380 C   0  0  0  0  0  0  0  0  0  0  0  0
  184.7220  179.5220  144.4470 N   0  0  0  0  0  0  0  0  0  0  0  0
  189.7150  176.3240  146.4890 N   0  0  0  0  0  2  0  0  0  0  0  0
  191.0840  176.7810  146.3270 C   0  0  0  0  0  2  0  0  0  0  0  0
  192.3700  176.9460  148.3320 O   0  0  0  0  0  1  0  0  0  0  0  0
  191.9870  176.0690  147.3170 C   0  0  0  0  0  2  0  0  0  0  0  0
  1  4  1  0  0  0  0
  3  4  1  0  0  0  0
  4  2  1  1  0  0  0
  4 22  1  0  0  0  0
  5  6  1  0  0  0  0
  5  1  1  0  0  0  0
  6  3  1  0  0  0  0
  7  6  1  0  0  0  0
  7  8  1  0  0  0  0
  9  8  2  0  0  0  0
 10  9  1  0  0  0  0
 11 10  2  0  0  0  0
 13 19  1  0  0  0  0
 14 21  1  6  0  0  0
 14 17  1  0  0  0  0
 15 13  1  0  0  0  0
 15 14  1  0  0  0  0
 16 18  1  0  0  0  0
 17 12  2  0  0  0  0
 17 18  1  0  0  0  0
 19 10  1  6  0  0  0
 19 16  1  0  0  0  0
 20 21  1  0  0  0  0
 22 23  1  0  0  0  0
 23 24  1  0  0  0  0
 24 25  1  0  0  0  0
 25 26  2  0  0  0  0
 25 30  1  0  0  0  0
 26 27  1  0  0  0  0
 27 29  1  0  0  0  0
 28 30  1  0  0  0  0
 30 29  2  0  0  0  0
 31 32  1  0  0  0  0
 32 28  1  0  0  0  0
 33 31  1  0  0  0  0
 33 32  2  0  0  0  0
 34 26  1  0  0  0  0
 35 34  1  0  0  0  0
 35 37  1  0  0  0  0
 37 36  1  0  0  0  0
M  END
>  <MODEL>
1

>  <REMARK>
 VINA RESULT:      -7.1      0.000      0.000
  Name = 
  13 active torsions:
  status: ('A' for Active; 'I' for Inactive)
    1  A    between atoms: C_1  and  C_13
    2  A    between atoms: C_1  and  C_17
    3  A    between atoms: C_7  and  C_33
    4  A    between atoms: C_11  and  C_18
    5  A    between atoms: C_12  and  C_22
    6  A    between atoms: C_15  and  N_26
    7  A    between atoms: C_17  and  N_26
    8  A    between atoms: C_18  and  N_19
    9  A    between atoms: N_19  and  C_20
   10  A    between atoms: C_22  and  N_30
   11  A    between atoms: C_24  and  C_28
   12  A    between atoms: C_24  and  N_35
   13  A    between atoms: C_25  and  N_29
                            x       y       z     vdW  Elec       q    Type
                         _______ _______ _______ _____ _____    ______ ____

>  <TORSDO>
F 13

$$$$
=
 OpenBabel10222419543D

 37 40  0  0  1  0  0  0  0  0999 V2000
  187.5590  178.9550  136.7460 C   0  0  0  0  0  2  0  0  0  0  0  0
  185.7650  177.4210  136.3490 O   0  0  0  0  0  1  0  0  0  0  0  0
  187.6450  176.7450  137.6520 C   0  0  0  0  0  2  0  0  0  0  0  0
  186.6800  177.8610  137.3090 C   0  0  1  0  0  0  0  0  0  0  0  0
  188.9020  178.7280  137.3960 C   0  0  0  0  0  2  0  0  0  0  0  0
  188.9910  177.3140  137.7460 N   0  0  0  0  0  0  0  0  0  0  0  0
  189.5310  177.1600  139.1050 C   0  0  0  0  0  2  0  0  0  0  0  0
  188.9710  178.1460  140.1000 C   0  0  0  0  0  3  0  0  0  0  0  0
  189.3390  178.2290  141.3460 N   0  0  0  0  0  0  0  0  0  0  0  0
  190.2890  177.3990  142.0340 C   0  0  0  0  0  0  0  0  0  0  0  0
  191.5080  177.7180  142.0900 O   0  0  0  0  0  0  0  0  0  0  0  0
  191.8520  177.5350  146.1840 O   0  0  0  0  0  0  0  0  0  0  0  0
  188.5540  176.3420  143.5920 C   0  0  0  0  0  2  0  0  0  0  0  0
  189.6710  176.5840  145.8310 C   0  0  1  0  0  3  0  0  0  0  0  0
  188.7780  177.2520  144.7970 C   0  0  0  0  0  2  0  0  0  0  0  0
  190.9110  175.3810  143.4460 C   0  0  0  0  0  2  0  0  0  0  0  0
  191.1160  176.8030  145.4680 C   0  0  0  0  0  0  0  0  0  0  0  0
  191.6580  176.2250  144.3180 O   0  0  0  0  0  0  0  0  0  0  0  0
  189.8010  176.1470  142.7180 C   0  0  2  0  0  3  0  0  0  0  0  0
  188.5960  178.2790  147.1330 O   0  0  0  0  0  1  0  0  0  0  0  0
  189.3430  177.1050  147.2250 C   0  0  0  0  0  2  0  0  0  0  0  0
  185.9860  178.2900  138.5280 N   0  0  0  0  0  2  0  0  0  0  0  0
  184.5410  178.3190  138.3300 C   0  0  0  0  0  2  0  0  0  0  0  0
  183.9580  179.5290  139.0400 C   0  0  0  0  0  2  0  0  0  0  0  0
  182.6020  179.2140  139.5740 C   0  0  0  0  0  0  0  0  0  0  0  0
  181.4780  179.2760  138.8810 C   0  0  0  0  0  0  0  0  0  0  0  0
  180.3710  178.8930  139.6310 O   0  0  0  0  0  0  0  0  0  0  0  0
  183.0050  178.5810  141.9520 N   0  0  0  0  0  2  0  0  0  0  0  0
  180.7640  178.5280  140.9490 C   0  0  0  0  0  3  0  0  0  0  0  0
  182.2380  178.7510  140.9150 C   0  0  0  0  0  0  0  0  0  0  0  0
  185.6710  178.3080  142.1700 C   0  0  0  0  0  2  0  0  0  0  0  0
  184.4160  178.7990  142.0030 C   0  0  0  0  0  0  0  0  0  0  0  0
  185.5450  179.6420  141.9260 N   0  0  0  0  0  0  0  0  0  0  0  0
  181.4040  179.6810  137.5130 N   0  0  0  0  0  2  0  0  0  0  0  0
  180.4620  180.6980  137.0800 C   0  0  0  0  0  2  0  0  0  0  0  0
  180.0870  182.5190  138.5770 O   0  0  0  0  0  1  0  0  0  0  0  0
  180.9210  182.0630  137.5560 C   0  0  0  0  0  2  0  0  0  0  0  0
  1  4  1  0  0  0  0
  1  5  1  0  0  0  0
  3  6  1  0  0  0  0
  4  2  1  6  0  0  0
  4  3  1  0  0  0  0
  4 22  1  0  0  0  0
  5  6  1  0  0  0  0
  6  7  1  0  0  0  0
  7  8  1  0  0  0  0
  8  9  2  0  0  0  0
  9 10  1  0  0  0  0
 10 11  2  0  0  0  0
 13 15  1  0  0  0  0
 14 21  1  1  0  0  0
 15 14  1  0  0  0  0
 16 18  1  0  0  0  0
 17 14  1  0  0  0  0
 17 12  2  0  0  0  0
 18 17  1  0  0  0  0
 19 10  1  1  0  0  0
 19 16  1  0  0  0  0
 19 13  1  0  0  0  0
 20 21  1  0  0  0  0
 23 22  1  0  0  0  0
 23 24  1  0  0  0  0
 24 25  1  0  0  0  0
 25 30  1  0  0  0  0
 26 25  2  0  0  0  0
 26 27  1  0  0  0  0
 27 29  1  0  0  0  0
 28 32  1  0  0  0  0
 30 29  2  0  0  0  0
 30 28  1  0  0  0  0
 32 31  1  0  0  0  0
 33 32  2  0  0  0  0
 33 31  1  0  0  0  0
 34 26  1  0  0  0  0
 35 34  1  0  0  0  0
 35 37  1  0  0  0  0
 37 36  1  0  0  0  0
M  END
>  <MODEL>
2

>  <REMARK>
 VINA RESULT:      -6.9      2.238      9.303
  Name = 
  13 active torsions:
  status: ('A' for Active; 'I' for Inactive)
    1  A    between atoms: C_1  and  C_13
    2  A    between atoms: C_1  and  C_17
    3  A    between atoms: C_7  and  C_33
    4  A    between atoms: C_11  and  C_18
    5  A    between atoms: C_12  and  C_22
    6  A    between atoms: C_15  and  N_26
    7  A    between atoms: C_17  and  N_26
    8  A    between atoms: C_18  and  N_19
    9  A    between atoms: N_19  and  C_20
   10  A    between atoms: C_22  and  N_30
   11  A    between atoms: C_24  and  C_28
   12  A    between atoms: C_24  and  N_35
   13  A    between atoms: C_25  and  N_29
                            x       y       z     vdW  Elec       q    Type
                         _______ _______ _______ _____ _____    ______ ____

>  <TORSDO>
F 13

$$$$
=
 OpenBabel10222419543D

 37 40  0  0  1  0  0  0  0  0999 V2000
  187.2020  178.8830  136.4960 C   0  0  0  0  0  2  0  0  0  0  0  0
  185.2240  177.5360  136.5140 O   0  0  0  0  0  1  0  0  0  0  0  0
  187.2080  176.7560  137.5840 C   0  0  0  0  0  2  0  0  0  0  0  0
  186.3170  177.9430  137.2830 C   0  0  1  0  0  0  0  0  0  0  0  0
  188.6010  178.5580  136.9580 C   0  0  0  0  0  2  0  0  0  0  0  0
  188.6020  177.1750  137.4240 N   0  0  0  0  0  0  0  0  0  0  0  0
  189.3310  177.0680  138.6970 C   0  0  0  0  0  2  0  0  0  0  0  0
  188.9600  178.1290  139.7040 C   0  0  0  0  0  3  0  0  0  0  0  0
  189.3700  178.1510  140.9390 N   0  0  0  0  0  0  0  0  0  0  0  0
  190.1950  177.1810  141.6040 C   0  0  0  0  0  0  0  0  0  0  0  0
  191.4530  177.2290  141.5140 O   0  0  0  0  0  0  0  0  0  0  0  0
  191.6970  177.7110  145.7450 O   0  0  0  0  0  0  0  0  0  0  0  0
  188.3110  176.5910  143.2340 C   0  0  0  0  0  2  0  0  0  0  0  0
  189.4150  177.0070  145.4550 C   0  0  1  0  0  3  0  0  0  0  0  0
  188.6340  177.6290  144.3070 C   0  0  0  0  0  2  0  0  0  0  0  0
  190.5220  175.3240  143.3070 C   0  0  0  0  0  2  0  0  0  0  0  0
  190.8820  176.9840  145.1140 C   0  0  0  0  0  0  0  0  0  0  0  0
  191.3600  176.1810  144.0760 O   0  0  0  0  0  0  0  0  0  0  0  0
  189.5350  176.1140  142.4400 C   0  0  2  0  0  3  0  0  0  0  0  0
  188.8670  176.8630  147.7790 O   0  0  0  0  0  1  0  0  0  0  0  0
  189.1370  177.7620  146.7490 C   0  0  0  0  0  2  0  0  0  0  0  0
  185.8700  178.5420  138.5450 N   0  0  0  0  0  2  0  0  0  0  0  0
  184.4150  178.5120  138.6550 C   0  0  0  0  0  2  0  0  0  0  0  0
  184.0070  177.4410  139.6530 C   0  0  0  0  0  2  0  0  0  0  0  0
  182.8960  177.9350  140.5180 C   0  0  0  0  0  0  0  0  0  0  0  0
  183.0500  178.6030  141.6470 C   0  0  0  0  0  0  0  0  0  0  0  0
  181.8350  178.9630  142.2200 O   0  0  0  0  0  0  0  0  0  0  0  0
  180.8240  177.2110  139.3350 N   0  0  0  0  0  2  0  0  0  0  0  0
  180.7510  178.5120  141.4150 C   0  0  0  0  0  3  0  0  0  0  0  0
  181.4530  177.8230  140.2950 C   0  0  0  0  0  0  0  0  0  0  0  0
  181.7580  176.4510  136.9300 C   0  0  0  0  0  2  0  0  0  0  0  0
  181.4240  176.5070  138.2460 C   0  0  0  0  0  0  0  0  0  0  0  0
  182.0990  175.3900  137.7120 N   0  0  0  0  0  0  0  0  0  0  0  0
  184.3200  178.9300  142.2150 N   0  0  0  0  0  2  0  0  0  0  0  0
  184.8100  178.2500  143.4010 C   0  0  0  0  0  2  0  0  0  0  0  0
  183.7630  179.1900  145.3300 O   0  0  0  0  0  1  0  0  0  0  0  0
  184.9200  179.2330  144.5520 C   0  0  0  0  0  2  0  0  0  0  0  0
  1  5  1  0  0  0  0
  1  4  1  0  0  0  0
  4  2  1  6  0  0  0
  4  3  1  0  0  0  0
  4 22  1  0  0  0  0
  5  6  1  0  0  0  0
  6  3  1  0  0  0  0
  6  7  1  0  0  0  0
  7  8  1  0  0  0  0
  8  9  2  0  0  0  0
  9 10  1  0  0  0  0
 11 10  2  0  0  0  0
 13 15  1  0  0  0  0
 14 21  1  1  0  0  0
 15 14  1  0  0  0  0
 16 18  1  0  0  0  0
 17 14  1  0  0  0  0
 17 12  2  0  0  0  0
 18 17  1  0  0  0  0
 19 10  1  1  0  0  0
 19 13  1  0  0  0  0
 19 16  1  0  0  0  0
 21 20  1  0  0  0  0
 22 23  1  0  0  0  0
 23 24  1  0  0  0  0
 24 25  1  0  0  0  0
 25 26  2  0  0  0  0
 26 34  1  0  0  0  0
 26 27  1  0  0  0  0
 28 30  1  0  0  0  0
 29 27  1  0  0  0  0
 30 25  1  0  0  0  0
 30 29  2  0  0  0  0
 31 33  1  0  0  0  0
 31 32  1  0  0  0  0
 32 28  1  0  0  0  0
 33 32  2  0  0  0  0
 34 35  1  0  0  0  0
 35 37  1  0  0  0  0
 37 36  1  0  0  0  0
M  END
>  <MODEL>
3

>  <REMARK>
 VINA RESULT:      -6.9      2.504      8.398
  Name = 
  13 active torsions:
  status: ('A' for Active; 'I' for Inactive)
    1  A    between atoms: C_1  and  C_13
    2  A    between atoms: C_1  and  C_17
    3  A    between atoms: C_7  and  C_33
    4  A    between atoms: C_11  and  C_18
    5  A    between atoms: C_12  and  C_22
    6  A    between atoms: C_15  and  N_26
    7  A    between atoms: C_17  and  N_26
    8  A    between atoms: C_18  and  N_19
    9  A    between atoms: N_19  and  C_20
   10  A    between atoms: C_22  and  N_30
   11  A    between atoms: C_24  and  C_28
   12  A    between atoms: C_24  and  N_35
   13  A    between atoms: C_25  and  N_29
                            x       y       z     vdW  Elec       q    Type
                         _______ _______ _______ _____ _____    ______ ____

>  <TORSDO>
F 13

$$$$
=
 OpenBabel10222419543D

 37 40  0  0  1  0  0  0  0  0999 V2000
  189.0640  178.8410  138.1640 C   0  0  0  0  0  2  0  0  0  0  0  0
  187.1320  178.4580  139.5240 O   0  0  0  0  0  1  0  0  0  0  0  0
  188.2830  176.6140  138.5410 C   0  0  0  0  0  2  0  0  0  0  0  0
  188.4020  177.9690  139.2070 C   0  0  1  0  0  0  0  0  0  0  0  0
  189.8630  177.8770  137.3210 C   0  0  0  0  0  2  0  0  0  0  0  0
  189.2230  176.5690  137.4190 N   0  0  0  0  0  0  0  0  0  0  0  0
  190.2350  175.5230  137.6250 C   0  0  0  0  0  2  0  0  0  0  0  0
  191.4800  176.0070  138.3280 C   0  0  0  0  0  3  0  0  0  0  0  0
  192.6800  175.9490  137.8290 N   0  0  0  0  0  0  0  0  0  0  0  0
  193.0760  175.3890  136.5660 C   0  0  0  0  0  0  0  0  0  0  0  0
  192.8970  176.0240  135.4900 O   0  0  0  0  0  0  0  0  0  0  0  0
  197.4300  176.1250  136.1310 O   0  0  0  0  0  0  0  0  0  0  0  0
  194.3390  173.5990  137.8890 C   0  0  0  0  0  2  0  0  0  0  0  0
  196.7300  174.2720  137.4970 C   0  0  1  0  0  3  0  0  0  0  0  0
  195.4970  174.4730  138.3660 C   0  0  0  0  0  2  0  0  0  0  0  0
  194.7230  173.8590  135.3830 C   0  0  0  0  0  2  0  0  0  0  0  0
  196.6390  175.1530  136.2800 C   0  0  0  0  0  0  0  0  0  0  0  0
  195.6600  174.9300  135.3090 O   0  0  0  0  0  0  0  0  0  0  0  0
  193.7410  174.0360  136.5460 C   0  0  2  0  0  3  0  0  0  0  0  0
  199.0360  173.7370  137.8480 O   0  0  0  0  0  1  0  0  0  0  0  0
  197.9920  174.5400  138.3080 C   0  0  0  0  0  2  0  0  0  0  0  0
  189.2250  177.8410  140.4140 N   0  0  0  0  0  2  0  0  0  0  0  0
  188.4690  178.2050  141.6080 C   0  0  0  0  0  2  0  0  0  0  0  0
  188.3040  176.9820  142.4940 C   0  0  0  0  0  2  0  0  0  0  0  0
  187.8130  177.3810  143.8440 C   0  0  0  0  0  0  0  0  0  0  0  0
  186.5760  177.7500  144.1260 C   0  0  0  0  0  0  0  0  0  0  0  0
  186.4010  178.0340  145.4760 O   0  0  0  0  0  0  0  0  0  0  0  0
  189.8150  177.1740  145.3170 N   0  0  0  0  0  2  0  0  0  0  0  0
  187.6180  177.8370  146.1880 C   0  0  0  0  0  3  0  0  0  0  0  0
  188.5550  177.4150  145.1070 C   0  0  0  0  0  0  0  0  0  0  0  0
  191.6490  177.1440  143.3500 C   0  0  0  0  0  2  0  0  0  0  0  0
  190.7770  176.7940  144.3310 C   0  0  0  0  0  0  0  0  0  0  0  0
  191.5310  175.8190  143.6430 N   0  0  0  0  0  0  0  0  0  0  0  0
  185.5290  177.8400  143.1580 N   0  0  0  0  0  2  0  0  0  0  0  0
  184.8270  179.0900  142.9230 C   0  0  0  0  0  2  0  0  0  0  0  0
  183.0080  178.6720  144.4130 O   0  0  0  0  0  1  0  0  0  0  0  0
  183.3320  178.8770  143.0710 C   0  0  0  0  0  2  0  0  0  0  0  0
  1  4  1  0  0  0  0
  3  4  1  0  0  0  0
  4  2  1  1  0  0  0
  4 22  1  0  0  0  0
  5  6  1  0  0  0  0
  5  1  1  0  0  0  0
  6  7  1  0  0  0  0
  6  3  1  0  0  0  0
  7  8  1  0  0  0  0
  9  8  2  0  0  0  0
 10  9  1  0  0  0  0
 11 10  2  0  0  0  0
 12 17  2  0  0  0  0
 13 15  1  0  0  0  0
 14 21  1  1  0  0  0
 14 15  1  0  0  0  0
 16 19  1  0  0  0  0
 17 14  1  0  0  0  0
 18 16  1  0  0  0  0
 18 17  1  0  0  0  0
 19 10  1  1  0  0  0
 19 13  1  0  0  0  0
 20 21  1  0  0  0  0
 22 23  1  0  0  0  0
 23 24  1  0  0  0  0
 24 25  1  0  0  0  0
 25 26  2  0  0  0  0
 25 30  1  0  0  0  0
 26 27  1  0  0  0  0
 27 29  1  0  0  0  0
 30 28  1  0  0  0  0
 30 29  2  0  0  0  0
 31 33  1  0  0  0  0
 31 32  1  0  0  0  0
 32 28  1  0  0  0  0
 33 32  2  0  0  0  0
 34 26  1  0  0  0  0
 35 37  1  0  0  0  0
 35 34  1  0  0  0  0
 37 36  1  0  0  0  0
M  END
>  <MODEL>
4

>  <REMARK>
 VINA RESULT:      -6.9      4.937      9.833
  Name = 
  13 active torsions:
  status: ('A' for Active; 'I' for Inactive)
    1  A    between atoms: C_1  and  C_13
    2  A    between atoms: C_1  and  C_17
    3  A    between atoms: C_7  and  C_33
    4  A    between atoms: C_11  and  C_18
    5  A    between atoms: C_12  and  C_22
    6  A    between atoms: C_15  and  N_26
    7  A    between atoms: C_17  and  N_26
    8  A    between atoms: C_18  and  N_19
    9  A    between atoms: N_19  and  C_20
   10  A    between atoms: C_22  and  N_30
   11  A    between atoms: C_24  and  C_28
   12  A    between atoms: C_24  and  N_35
   13  A    between atoms: C_25  and  N_29
                            x       y       z     vdW  Elec       q    Type
                         _______ _______ _______ _____ _____    ______ ____

>  <TORSDO>
F 13

$$$$
=
 OpenBabel10222419543D

 37 40  0  0  1  0  0  0  0  0999 V2000
  188.0830  178.7490  136.8560 C   0  0  0  0  0  2  0  0  0  0  0  0
  187.1110  177.3810  135.1490 O   0  0  0  0  0  1  0  0  0  0  0  0
  188.7800  176.4790  136.5950 C   0  0  0  0  0  2  0  0  0  0  0  0
  187.5700  177.3810  136.4690 C   0  0  1  0  0  0  0  0  0  0  0  0
  189.2410  178.4680  137.7810 C   0  0  0  0  0  2  0  0  0  0  0  0
  189.7670  177.1500  137.4430 N   0  0  0  0  0  0  0  0  0  0  0  0
  190.0200  176.3750  138.6660 C   0  0  0  0  0  2  0  0  0  0  0  0
  191.0560  176.9890  139.5750 C   0  0  0  0  0  3  0  0  0  0  0  0
  190.8180  177.4260  140.7780 N   0  0  0  0  0  0  0  0  0  0  0  0
  189.5540  177.4650  141.4600 C   0  0  0  0  0  0  0  0  0  0  0  0
  188.7720  178.4450  141.3220 O   0  0  0  0  0  0  0  0  0  0  0  0
  191.7070  177.9650  145.3070 O   0  0  0  0  0  0  0  0  0  0  0  0
  188.0560  176.6040  143.3490 C   0  0  0  0  0  2  0  0  0  0  0  0
  189.4900  177.0350  145.3690 C   0  0  1  0  0  3  0  0  0  0  0  0
  188.4610  177.6200  144.4140 C   0  0  0  0  0  2  0  0  0  0  0  0
  190.3570  175.5790  142.9610 C   0  0  0  0  0  2  0  0  0  0  0  0
  190.8680  177.1840  144.7810 C   0  0  0  0  0  0  0  0  0  0  0  0
  191.2310  176.4850  143.6280 O   0  0  0  0  0  0  0  0  0  0  0  0
  189.1600  176.2970  142.3280 C   0  0  2  0  0  3  0  0  0  0  0  0
  190.1030  176.9750  147.6810 O   0  0  0  0  0  1  0  0  0  0  0  0
  189.3730  177.6960  146.7370 C   0  0  0  0  0  2  0  0  0  0  0  0
  186.5220  176.9110  137.3820 N   0  0  0  0  0  2  0  0  0  0  0  0
  185.1940  177.1780  136.8410 C   0  0  0  0  0  2  0  0  0  0  0  0
  184.1590  177.0150  137.9410 C   0  0  0  0  0  2  0  0  0  0  0  0
  183.5550  178.3350  138.2860 C   0  0  0  0  0  0  0  0  0  0  0  0
  184.0960  179.2310  139.0930 C   0  0  0  0  0  0  0  0  0  0  0  0
  183.3230  180.3820  139.2010 O   0  0  0  0  0  0  0  0  0  0  0  0
  181.4110  178.3860  137.0150 N   0  0  0  0  0  2  0  0  0  0  0  0
  182.1550  180.2750  138.3950 C   0  0  0  0  0  3  0  0  0  0  0  0
  182.3030  178.9170  137.7980 C   0  0  0  0  0  0  0  0  0  0  0  0
  181.6830  176.2980  135.3410 C   0  0  0  0  0  2  0  0  0  0  0  0
  181.4690  177.0840  136.4290 C   0  0  0  0  0  0  0  0  0  0  0  0
  181.3590  175.6800  136.5110 N   0  0  0  0  0  0  0  0  0  0  0  0
  185.3380  179.0470  139.7730 N   0  0  0  0  0  2  0  0  0  0  0  0
  185.4080  179.0410  141.2240 C   0  0  0  0  0  2  0  0  0  0  0  0
  183.7680  178.7370  142.9330 O   0  0  0  0  0  1  0  0  0  0  0  0
  184.3140  178.1530  141.7890 C   0  0  0  0  0  2  0  0  0  0  0  0
  1  5  1  0  0  0  0
  3  6  1  0  0  0  0
  4  2  1  6  0  0  0
  4  3  1  0  0  0  0
  4  1  1  0  0  0  0
  4 22  1  0  0  0  0
  6  5  1  0  0  0  0
  6  7  1  0  0  0  0
  7  8  1  0  0  0  0
  8  9  2  0  0  0  0
  9 10  1  0  0  0  0
 11 10  2  0  0  0  0
 13 15  1  0  0  0  0
 14 21  1  1  0  0  0
 15 14  1  0  0  0  0
 16 18  1  0  0  0  0
 17 12  2  0  0  0  0
 17 14  1  0  0  0  0
 18 17  1  0  0  0  0
 19 10  1  1  0  0  0
 19 16  1  0  0  0  0
 19 13  1  0  0  0  0
 21 20  1  0  0  0  0
 23 22  1  0  0  0  0
 23 24  1  0  0  0  0
 24 25  1  0  0  0  0
 25 26  2  0  0  0  0
 26 27  1  0  0  0  0
 26 34  1  0  0  0  0
 28 30  1  0  0  0  0
 29 27  1  0  0  0  0
 30 25  1  0  0  0  0
 30 29  2  0  0  0  0
 31 32  1  0  0  0  0
 31 33  1  0  0  0  0
 32 33  2  0  0  0  0
 32 28  1  0  0  0  0
 34 35  1  0  0  0  0
 35 37  1  0  0  0  0
 37 36  1  0  0  0  0
M  END
>  <MODEL>
5

>  <REMARK>
 VINA RESULT:      -6.9      2.737      8.969
  Name = 
  13 active torsions:
  status: ('A' for Active; 'I' for Inactive)
    1  A    between atoms: C_1  and  C_13
    2  A    between atoms: C_1  and  C_17
    3  A    between atoms: C_7  and  C_33
    4  A    between atoms: C_11  and  C_18
    5  A    between atoms: C_12  and  C_22
    6  A    between atoms: C_15  and  N_26
    7  A    between atoms: C_17  and  N_26
    8  A    between atoms: C_18  and  N_19
    9  A    between atoms: N_19  and  C_20
   10  A    between atoms: C_22  and  N_30
   11  A    between atoms: C_24  and  C_28
   12  A    between atoms: C_24  and  N_35
   13  A    between atoms: C_25  and  N_29
                            x       y       z     vdW  Elec       q    Type
                         _______ _______ _______ _____ _____    ______ ____

>  <TORSDO>
F 13

$$$$
=
 OpenBabel10222419543D

 37 40  0  0  1  0  0  0  0  0999 V2000
  189.0750  179.0050  138.3370 C   0  0  0  0  0  2  0  0  0  0  0  0
  187.0840  178.4600  139.5480 O   0  0  0  0  0  1  0  0  0  0  0  0
  188.3460  176.7350  138.4900 C   0  0  0  0  0  2  0  0  0  0  0  0
  188.3850  178.0340  139.2670 C   0  0  1  0  0  0  0  0  0  0  0  0
  189.9500  178.1350  137.4680 C   0  0  0  0  0  2  0  0  0  0  0  0
  189.3480  176.8070  137.4250 N   0  0  0  0  0  0  0  0  0  0  0  0
  190.3800  175.7750  137.6060 C   0  0  0  0  0  2  0  0  0  0  0  0
  191.5850  176.2460  138.3820 C   0  0  0  0  0  3  0  0  0  0  0  0
  192.8170  176.1330  137.9760 N   0  0  0  0  0  0  0  0  0  0  0  0
  193.2860  175.5140  136.7670 C   0  0  0  0  0  0  0  0  0  0  0  0
  193.2190  176.1190  135.6610 O   0  0  0  0  0  0  0  0  0  0  0  0
  197.6410  175.9990  136.0750 O   0  0  0  0  0  0  0  0  0  0  0  0
  194.5320  173.7910  138.1920 C   0  0  0  0  0  2  0  0  0  0  0  0
  196.9280  174.3120  137.6340 C   0  0  1  0  0  3  0  0  0  0  0  0
  195.7490  174.6480  138.5340 C   0  0  0  0  0  2  0  0  0  0  0  0
  194.8050  173.8070  135.6570 C   0  0  0  0  0  2  0  0  0  0  0  0
  196.8170  175.0840  136.3460 C   0  0  0  0  0  0  0  0  0  0  0  0
  195.7830  174.8210  135.4440 O   0  0  0  0  0  0  0  0  0  0  0  0
  193.8890  174.1340  136.8420 C   0  0  2  0  0  3  0  0  0  0  0  0
  198.0630  175.6150  139.2890 O   0  0  0  0  0  1  0  0  0  0  0  0
  198.2390  174.5910  138.3600 C   0  0  0  0  0  2  0  0  0  0  0  0
  189.1430  177.8310  140.5060 N   0  0  0  0  0  2  0  0  0  0  0  0
  188.3930  178.3020  141.6660 C   0  0  0  0  0  2  0  0  0  0  0  0
  187.7920  177.1120  142.3960 C   0  0  0  0  0  2  0  0  0  0  0  0
  188.0710  177.2060  143.8580 C   0  0  0  0  0  0  0  0  0  0  0  0
  189.1670  176.7700  144.4540 C   0  0  0  0  0  0  0  0  0  0  0  0
  189.1640  177.0230  145.8210 O   0  0  0  0  0  0  0  0  0  0  0  0
  186.0550  178.3320  144.8000 N   0  0  0  0  0  2  0  0  0  0  0  0
  187.9700  177.6990  146.2000 C   0  0  0  0  0  3  0  0  0  0  0  0
  187.2420  177.8100  144.9040 C   0  0  0  0  0  0  0  0  0  0  0  0
  184.7960  179.2180  142.5950 C   0  0  0  0  0  2  0  0  0  0  0  0
  185.2860  178.4490  143.6020 C   0  0  0  0  0  0  0  0  0  0  0  0
  184.4800  177.8940  142.5850 N   0  0  0  0  0  0  0  0  0  0  0  0
  190.2410  176.1190  143.7730 N   0  0  0  0  0  2  0  0  0  0  0  0
  191.6020  176.6180  143.8640 C   0  0  0  0  0  2  0  0  0  0  0  0
  191.4090  178.9900  143.6720 O   0  0  0  0  0  1  0  0  0  0  0  0
  191.7650  177.8360  142.9740 C   0  0  0  0  0  2  0  0  0  0  0  0
  1  4  1  0  0  0  0
  3  4  1  0  0  0  0
  4  2  1  1  0  0  0
  4 22  1  0  0  0  0
  5  1  1  0  0  0  0
  6  5  1  0  0  0  0
  6  7  1  0  0  0  0
  6  3  1  0  0  0  0
  7  8  1  0  0  0  0
  9  8  2  0  0  0  0
 10  9  1  0  0  0  0
 11 10  2  0  0  0  0
 12 17  2  0  0  0  0
 13 15  1  0  0  0  0
 14 21  1  1  0  0  0
 14 15  1  0  0  0  0
 16 19  1  0  0  0  0
 17 14  1  0  0  0  0
 18 16  1  0  0  0  0
 18 17  1  0  0  0  0
 19 10  1  1  0  0  0
 19 13  1  0  0  0  0
 21 20  1  0  0  0  0
 22 23  1  0  0  0  0
 23 24  1  0  0  0  0
 24 25  1  0  0  0  0
 25 26  2  0  0  0  0
 25 30  1  0  0  0  0
 26 27  1  0  0  0  0
 27 29  1  0  0  0  0
 28 30  1  0  0  0  0
 30 29  2  0  0  0  0
 31 32  1  0  0  0  0
 32 28  1  0  0  0  0
 33 31  1  0  0  0  0
 33 32  2  0  0  0  0
 34 35  1  0  0  0  0
 34 26  1  0  0  0  0
 37 36  1  0  0  0  0
 37 35  1  0  0  0  0
M  END
>  <MODEL>
6

>  <REMARK>
 VINA RESULT:      -6.8      4.768      9.247
  Name = 
  13 active torsions:
  status: ('A' for Active; 'I' for Inactive)
    1  A    between atoms: C_1  and  C_13
    2  A    between atoms: C_1  and  C_17
    3  A    between atoms: C_7  and  C_33
    4  A    between atoms: C_11  and  C_18
    5  A    between atoms: C_12  and  C_22
    6  A    between atoms: C_15  and  N_26
    7  A    between atoms: C_17  and  N_26
    8  A    between atoms: C_18  and  N_19
    9  A    between atoms: N_19  and  C_20
   10  A    between atoms: C_22  and  N_30
   11  A    between atoms: C_24  and  C_28
   12  A    between atoms: C_24  and  N_35
   13  A    between atoms: C_25  and  N_29
                            x       y       z     vdW  Elec       q    Type
                         _______ _______ _______ _____ _____    ______ ____

>  <TORSDO>
F 13

$$$$
=
 OpenBabel10222419543D

 37 40  0  0  1  0  0  0  0  0999 V2000
  185.3990  179.9870  144.9110 C   0  0  0  0  0  2  0  0  0  0  0  0
  184.9890  178.8120  146.9550 O   0  0  0  0  0  1  0  0  0  0  0  0
  183.4810  178.5770  145.1220 C   0  0  0  0  0  2  0  0  0  0  0  0
  184.9240  178.7090  145.5630 C   0  0  1  0  0  0  0  0  0  0  0  0
  184.5340  180.1250  143.6820 C   0  0  0  0  0  2  0  0  0  0  0  0
  183.2830  179.4180  143.9400 N   0  0  0  0  0  0  0  0  0  0  0  0
  182.9100  178.6040  142.7740 C   0  0  0  0  0  2  0  0  0  0  0  0
  181.5520  178.9370  142.2060 C   0  0  0  0  0  3  0  0  0  0  0  0
  181.1560  178.6250  141.0070 N   0  0  0  0  0  0  0  0  0  0  0  0
  181.9130  177.9620  139.9800 C   0  0  0  0  0  0  0  0  0  0  0  0
  182.2210  176.7440  140.0870 O   0  0  0  0  0  0  0  0  0  0  0  0
  186.2470  178.8200  140.3810 O   0  0  0  0  0  0  0  0  0  0  0  0
  182.9720  177.9020  137.6510 C   0  0  0  0  0  2  0  0  0  0  0  0
  185.3840  178.3780  138.1790 C   0  0  1  0  0  3  0  0  0  0  0  0
  184.3180  177.3010  138.0510 C   0  0  0  0  0  2  0  0  0  0  0  0
  183.1040  180.0140  139.0720 C   0  0  0  0  0  2  0  0  0  0  0  0
  185.3150  178.9980  139.5500 C   0  0  0  0  0  0  0  0  0  0  0  0
  184.2060  179.7530  139.9360 O   0  0  0  0  0  0  0  0  0  0  0  0
  182.3120  178.7410  138.7520 C   0  0  2  0  0  3  0  0  0  0  0  0
  187.6560  178.8160  137.5700 O   0  0  0  0  0  1  0  0  0  0  0  0
  186.7590  177.7940  137.8800 C   0  0  0  0  0  2  0  0  0  0  0  0
  185.6780  177.5420  145.0930 N   0  0  0  0  0  2  0  0  0  0  0  0
  186.9270  177.9440  144.4550 C   0  0  0  0  0  2  0  0  0  0  0  0
  187.8820  176.7630  144.4250 C   0  0  0  0  0  2  0  0  0  0  0  0
  189.2640  177.2210  144.1010 C   0  0  0  0  0  0  0  0  0  0  0  0
  189.7770  177.2900  142.8840 C   0  0  0  0  0  0  0  0  0  0  0  0
  191.0770  177.7850  142.8850 O   0  0  0  0  0  0  0  0  0  0  0  0
  190.2650  177.7820  146.3140 N   0  0  0  0  0  2  0  0  0  0  0  0
  191.4930  178.0920  144.2110 C   0  0  0  0  0  3  0  0  0  0  0  0
  190.2990  177.7080  145.0170 C   0  0  0  0  0  0  0  0  0  0  0  0
  188.1780  177.7640  148.0100 C   0  0  0  0  0  2  0  0  0  0  0  0
  189.1710  177.4090  147.1540 C   0  0  0  0  0  0  0  0  0  0  0  0
  188.3140  176.4410  147.7190 N   0  0  0  0  0  0  0  0  0  0  0  0
  189.0770  176.9090  141.6990 N   0  0  0  0  0  2  0  0  0  0  0  0
  189.3930  177.5080  140.4140 C   0  0  0  0  0  2  0  0  0  0  0  0
  190.6160  177.1580  138.3930 O   0  0  0  0  0  1  0  0  0  0  0  0
  190.3560  176.6160  139.6530 C   0  0  0  0  0  2  0  0  0  0  0  0
  1  4  1  0  0  0  0
  3  4  1  0  0  0  0
  4  2  1  1  0  0  0
  5  6  1  0  0  0  0
  5  1  1  0  0  0  0
  6  3  1  0  0  0  0
  7  6  1  0  0  0  0
  8  7  1  0  0  0  0
  9  8  2  0  0  0  0
 10 11  2  0  0  0  0
 10  9  1  0  0  0  0
 13 15  1  0  0  0  0
 13 19  1  0  0  0  0
 14 21  1  1  0  0  0
 14 17  1  0  0  0  0
 15 14  1  0  0  0  0
 16 18  1  0  0  0  0
 17 18  1  0  0  0  0
 17 12  2  0  0  0  0
 19 16  1  0  0  0  0
 19 10  1  1  0  0  0
 20 21  1  0  0  0  0
 22  4  1  0  0  0  0
 23 22  1  0  0  0  0
 24 23  1  0  0  0  0
 25 24  1  0  0  0  0
 25 30  1  0  0  0  0
 26 27  1  0  0  0  0
 26 25  2  0  0  0  0
 27 29  1  0  0  0  0
 28 32  1  0  0  0  0
 29 30  2  0  0  0  0
 30 28  1  0  0  0  0
 32 33  2  0  0  0  0
 32 31  1  0  0  0  0
 33 31  1  0  0  0  0
 34 26  1  0  0  0  0
 35 34  1  0  0  0  0
 36 37  1  0  0  0  0
 37 35  1  0  0  0  0
M  END
>  <MODEL>
7

>  <REMARK>
 VINA RESULT:      -6.8      2.244      5.379
  Name = 
  13 active torsions:
  status: ('A' for Active; 'I' for Inactive)
    1  A    between atoms: C_1  and  C_13
    2  A    between atoms: C_1  and  C_17
    3  A    between atoms: C_7  and  C_33
    4  A    between atoms: C_11  and  C_18
    5  A    between atoms: C_12  and  C_22
    6  A    between atoms: C_15  and  N_26
    7  A    between atoms: C_17  and  N_26
    8  A    between atoms: C_18  and  N_19
    9  A    between atoms: N_19  and  C_20
   10  A    between atoms: C_22  and  N_30
   11  A    between atoms: C_24  and  C_28
   12  A    between atoms: C_24  and  N_35
   13  A    between atoms: C_25  and  N_29
                            x       y       z     vdW  Elec       q    Type
                         _______ _______ _______ _____ _____    ______ ____

>  <TORSDO>
F 13

$$$$
=
 OpenBabel10222419543D

 37 40  0  0  1  0  0  0  0  0999 V2000
  189.2360  176.3570  139.0890 C   0  0  0  0  0  2  0  0  0  0  0  0
  190.4630  178.0290  140.2810 O   0  0  0  0  0  1  0  0  0  0  0  0
  188.9540  178.6670  138.5480 C   0  0  0  0  0  2  0  0  0  0  0  0
  189.2230  177.7340  139.7110 C   0  0  1  0  0  0  0  0  0  0  0  0
  188.3520  176.4850  137.8720 C   0  0  0  0  0  2  0  0  0  0  0  0
  188.3770  177.8830  137.4540 N   0  0  0  0  0  0  0  0  0  0  0  0
  187.0160  178.3440  137.1410 C   0  0  0  0  0  2  0  0  0  0  0  0
  185.9620  177.2730  137.2790 C   0  0  0  0  0  3  0  0  0  0  0  0
  184.8480  177.4130  137.9370 N   0  0  0  0  0  0  0  0  0  0  0  0
  184.4150  178.5570  138.6900 C   0  0  0  0  0  0  0  0  0  0  0  0
  185.1350  179.0410  139.6060 O   0  0  0  0  0  0  0  0  0  0  0  0
  181.2740  175.6470  139.8510 O   0  0  0  0  0  0  0  0  0  0  0  0
  182.3760  179.8550  139.5360 C   0  0  0  0  0  2  0  0  0  0  0  0
  180.8040  177.9880  140.1420 C   0  0  1  0  0  3  0  0  0  0  0  0
  181.9440  178.8730  140.6230 C   0  0  0  0  0  2  0  0  0  0  0  0
  182.1640  178.2760  137.5460 C   0  0  0  0  0  2  0  0  0  0  0  0
  181.3630  176.8140  139.3820 C   0  0  0  0  0  0  0  0  0  0  0  0
  182.0140  176.9990  138.1610 O   0  0  0  0  0  0  0  0  0  0  0  0
  183.0910  179.1950  138.3500 C   0  0  2  0  0  3  0  0  0  0  0  0
  180.3180  178.2480  142.4700 O   0  0  0  0  0  1  0  0  0  0  0  0
  179.9430  177.5520  141.3210 C   0  0  0  0  0  2  0  0  0  0  0  0
  188.1490  177.8770  140.7000 N   0  0  0  0  0  2  0  0  0  0  0  0
  188.6910  178.0550  142.0430 C   0  0  0  0  0  2  0  0  0  0  0  0
  188.2960  176.8710  142.9090 C   0  0  0  0  0  2  0  0  0  0  0  0
  187.9340  177.3290  144.2810 C   0  0  0  0  0  0  0  0  0  0  0  0
  186.7390  177.7560  144.6500 C   0  0  0  0  0  0  0  0  0  0  0  0
  186.6880  178.0860  146.0000 O   0  0  0  0  0  0  0  0  0  0  0  0
  190.0410  177.0830  145.5920 N   0  0  0  0  0  2  0  0  0  0  0  0
  187.9510  177.8590  146.6180 C   0  0  0  0  0  3  0  0  0  0  0  0
  188.7780  177.3690  145.4780 C   0  0  0  0  0  0  0  0  0  0  0  0
  191.6830  176.9180  143.4670 C   0  0  0  0  0  2  0  0  0  0  0  0
  190.9030  176.6350  144.5430 C   0  0  0  0  0  0  0  0  0  0  0  0
  191.5810  175.6140  143.8450 N   0  0  0  0  0  0  0  0  0  0  0  0
  185.6210  177.8610  143.7680 N   0  0  0  0  0  2  0  0  0  0  0  0
  184.8080  179.0640  143.7240 C   0  0  0  0  0  2  0  0  0  0  0  0
  183.2130  179.1320  145.4990 O   0  0  0  0  0  1  0  0  0  0  0  0
  183.3930  178.7470  144.1700 C   0  0  0  0  0  2  0  0  0  0  0  0
  1  4  1  0  0  0  0
  3  4  1  0  0  0  0
  4  2  1  1  0  0  0
  4 22  1  0  0  0  0
  5  1  1  0  0  0  0
  6  5  1  0  0  0  0
  6  3  1  0  0  0  0
  7  8  1  0  0  0  0
  7  6  1  0  0  0  0
  8  9  2  0  0  0  0
  9 10  1  0  0  0  0
 10 11  2  0  0  0  0
 13 15  1  0  0  0  0
 14 15  1  0  0  0  0
 14 21  1  1  0  0  0
 16 18  1  0  0  0  0
 16 19  1  0  0  0  0
 17 12  2  0  0  0  0
 17 14  1  0  0  0  0
 18 17  1  0  0  0  0
 19 10  1  1  0  0  0
 19 13  1  0  0  0  0
 21 20  1  0  0  0  0
 22 23  1  0  0  0  0
 23 24  1  0  0  0  0
 24 25  1  0  0  0  0
 25 26  2  0  0  0  0
 25 30  1  0  0  0  0
 26 27  1  0  0  0  0
 27 29  1  0  0  0  0
 30 28  1  0  0  0  0
 30 29  2  0  0  0  0
 31 33  1  0  0  0  0
 31 32  1  0  0  0  0
 32 28  1  0  0  0  0
 33 32  2  0  0  0  0
 34 26  1  0  0  0  0
 35 34  1  0  0  0  0
 35 37  1  0  0  0  0
 37 36  1  0  0  0  0
M  END
>  <MODEL>
8

>  <REMARK>
 VINA RESULT:      -6.8      2.249      4.412
  Name = 
  13 active torsions:
  status: ('A' for Active; 'I' for Inactive)
    1  A    between atoms: C_1  and  C_13
    2  A    between atoms: C_1  and  C_17
    3  A    between atoms: C_7  and  C_33
    4  A    between atoms: C_11  and  C_18
    5  A    between atoms: C_12  and  C_22
    6  A    between atoms: C_15  and  N_26
    7  A    between atoms: C_17  and  N_26
    8  A    between atoms: C_18  and  N_19
    9  A    between atoms: N_19  and  C_20
   10  A    between atoms: C_22  and  N_30
   11  A    between atoms: C_24  and  C_28
   12  A    between atoms: C_24  and  N_35
   13  A    between atoms: C_25  and  N_29
                            x       y       z     vdW  Elec       q    Type
                         _______ _______ _______ _____ _____    ______ ____

>  <TORSDO>
F 13

$$$$
=
 OpenBabel10222419543D

 37 40  0  0  1  0  0  0  0  0999 V2000
  190.7820  176.3000  143.9260 C   0  0  0  0  0  2  0  0  0  0  0  0
  191.7130  178.4230  144.5210 O   0  0  0  0  0  1  0  0  0  0  0  0
  191.2910  177.9050  142.2310 C   0  0  0  0  0  2  0  0  0  0  0  0
  190.8110  177.7880  143.6630 C   0  0  1  0  0  0  0  0  0  0  0  0
  190.5680  175.6820  142.5660 C   0  0  0  0  0  2  0  0  0  0  0  0
  191.0850  176.6150  141.5710 N   0  0  0  0  0  0  0  0  0  0  0  0
  190.1380  176.7430  140.4540 C   0  0  0  0  0  2  0  0  0  0  0  0
  190.7670  176.5570  139.0940 C   0  0  0  0  0  3  0  0  0  0  0  0
  190.4200  177.2100  138.0240 N   0  0  0  0  0  0  0  0  0  0  0  0
  189.3690  178.1810  137.8930 C   0  0  0  0  0  0  0  0  0  0  0  0
  189.0570  178.9320  138.8580 O   0  0  0  0  0  0  0  0  0  0  0  0
  187.2400  174.3460  137.2230 O   0  0  0  0  0  0  0  0  0  0  0  0
  187.1700  178.6730  136.6790 C   0  0  0  0  0  2  0  0  0  0  0  0
  186.1820  176.3700  136.4670 C   0  0  1  0  0  3  0  0  0  0  0  0
  186.3170  177.6000  137.3520 C   0  0  0  0  0  2  0  0  0  0  0  0
  188.9030  177.1250  135.6300 C   0  0  0  0  0  2  0  0  0  0  0  0
  187.3730  175.4710  136.6670 C   0  0  0  0  0  0  0  0  0  0  0  0
  188.6490  175.8760  136.2690 O   0  0  0  0  0  0  0  0  0  0  0  0
  188.6570  178.3100  136.5710 C   0  0  2  0  0  3  0  0  0  0  0  0
  184.1040  176.4040  137.6530 O   0  0  0  0  0  1  0  0  0  0  0  0
  184.8680  175.6570  136.7570 C   0  0  0  0  0  2  0  0  0  0  0  0
  189.4780  178.3890  143.7740 N   0  0  0  0  0  2  0  0  0  0  0  0
  188.9530  178.2610  145.1290 C   0  0  0  0  0  2  0  0  0  0  0  0
  187.8250  177.2440  145.1400 C   0  0  0  0  0  2  0  0  0  0  0  0
  186.5040  177.9340  145.0800 C   0  0  0  0  0  0  0  0  0  0  0  0
  185.7940  178.1240  143.9820 C   0  0  0  0  0  0  0  0  0  0  0  0
  184.5870  178.7680  144.2360 O   0  0  0  0  0  0  0  0  0  0  0  0
  186.0340  178.5770  147.4430 N   0  0  0  0  0  2  0  0  0  0  0  0
  184.4480  179.0360  145.6270 C   0  0  0  0  0  3  0  0  0  0  0  0
  185.7200  178.4950  146.1840 C   0  0  0  0  0  0  0  0  0  0  0  0
  187.9260  177.1240  148.6850 C   0  0  0  0  0  2  0  0  0  0  0  0
  187.2430  178.1080  148.0450 C   0  0  0  0  0  0  0  0  0  0  0  0
  188.5900  178.2840  148.4240 N   0  0  0  0  0  0  0  0  0  0  0  0
  186.2100  177.7110  142.6800 N   0  0  0  0  0  2  0  0  0  0  0  0
  186.3360  178.6650  141.5920 C   0  0  0  0  0  2  0  0  0  0  0  0
  184.9270  179.7570  140.0040 O   0  0  0  0  0  1  0  0  0  0  0  0
  185.1450  178.5450  140.6590 C   0  0  0  0  0  2  0  0  0  0  0  0
  3  4  1  0  0  0  0
  4 22  1  0  0  0  0
  4  1  1  0  0  0  0
  4  2  1  1  0  0  0
  5  1  1  0  0  0  0
  6  3  1  0  0  0  0
  6  5  1  0  0  0  0
  7  6  1  0  0  0  0
  8  7  1  0  0  0  0
  9  8  2  0  0  0  0
 10  9  1  0  0  0  0
 10 11  2  0  0  0  0
 13 15  1  0  0  0  0
 14 17  1  0  0  0  0
 14 21  1  1  0  0  0
 14 15  1  0  0  0  0
 16 18  1  0  0  0  0
 16 19  1  0  0  0  0
 17 12  2  0  0  0  0
 18 17  1  0  0  0  0
 19 13  1  0  0  0  0
 19 10  1  1  0  0  0
 21 20  1  0  0  0  0
 22 23  1  0  0  0  0
 23 24  1  0  0  0  0
 25 24  1  0  0  0  0
 25 30  1  0  0  0  0
 26 27  1  0  0  0  0
 26 25  2  0  0  0  0
 27 29  1  0  0  0  0
 28 32  1  0  0  0  0
 29 30  2  0  0  0  0
 30 28  1  0  0  0  0
 32 33  2  0  0  0  0
 32 31  1  0  0  0  0
 33 31  1  0  0  0  0
 34 26  1  0  0  0  0
 35 34  1  0  0  0  0
 36 37  1  0  0  0  0
 37 35  1  0  0  0  0
M  END
>  <MODEL>
9

>  <REMARK>
 VINA RESULT:      -6.7      2.941      5.580
  Name = 
  13 active torsions:
  status: ('A' for Active; 'I' for Inactive)
    1  A    between atoms: C_1  and  C_13
    2  A    between atoms: C_1  and  C_17
    3  A    between atoms: C_7  and  C_33
    4  A    between atoms: C_11  and  C_18
    5  A    between atoms: C_12  and  C_22
    6  A    between atoms: C_15  and  N_26
    7  A    between atoms: C_17  and  N_26
    8  A    between atoms: C_18  and  N_19
    9  A    between atoms: N_19  and  C_20
   10  A    between atoms: C_22  and  N_30
   11  A    between atoms: C_24  and  C_28
   12  A    between atoms: C_24  and  N_35
   13  A    between atoms: C_25  and  N_29
                            x       y       z     vdW  Elec       q    Type
                         _______ _______ _______ _____ _____    ______ ____

>  <TORSDO>
F 13

$$$$
