=
 OpenBabel10222416583D

 40 45  0  0  1  0  0  0  0  0999 V2000
  184.4550  178.9470  139.1380 C   0  0  0  0  0  0  0  0  0  0  0  0
  183.3420  179.2280  138.4470 C   0  0  0  0  0  3  0  0  0  0  0  0
  185.5160  178.2440  138.4770 N   0  0  0  0  0  0  0  0  0  0  0  0
  188.6370  178.3160  140.3130 C   0  0  0  0  0  3  0  0  0  0  0  0
  186.7880  178.1180  138.8820 C   0  0  0  0  0  0  0  0  0  0  0  0
  189.4400  177.6220  139.3790 C   0  0  0  0  0  3  0  0  0  0  0  0
  187.5240  177.4410  137.9570 C   0  0  0  0  0  0  0  0  0  0  0  0
  187.3160  178.5540  140.0540 N   0  0  0  0  0  0  0  0  0  0  0  0
  186.6930  177.1240  136.8990 C   0  0  0  0  0  3  0  0  0  0  0  0
  188.8720  177.1730  138.1750 C   0  0  0  0  0  0  0  0  0  0  0  0
  185.4470  177.6520  137.2620 C   0  0  0  0  0  3  0  0  0  0  0  0
  189.6360  176.4870  137.2400 O   0  0  0  0  0  1  0  0  0  0  0  0
  182.1280  179.9130  138.9300 C   0  0  0  0  0  0  0  0  0  0  0  0
  180.2200  180.1340  140.4240 C   0  0  0  0  0  3  0  0  0  0  0  0
  180.5430  181.7330  138.6360 C   0  0  0  0  0  0  0  0  0  0  0  0
  179.8030  181.2720  139.7300 C   0  0  0  0  0  3  0  0  0  0  0  0
  181.7040  181.0560  138.2430 C   0  0  0  0  0  3  0  0  0  0  0  0
  181.3750  179.4550  140.0250 C   0  0  0  0  0  3  0  0  0  0  0  0
  180.1000  182.9440  137.8900 C   0  0  0  0  0  2  0  0  0  0  0  0
  182.1370  184.5250  137.4230 N   0  0  0  0  0  0  0  0  0  0  0  0
  181.2390  183.8270  137.6270 C   0  0  0  0  0  0  0  0  0  0  0  0
  184.5880  179.3310  140.5120 N   0  0  0  0  0  2  0  0  0  0  0  0
  184.1200  178.5180  141.6280 C   0  0  0  0  0  2  0  0  0  0  0  0
  183.5110  179.3530  144.0520 C   0  0  1  0  0  3  0  0  0  0  0  0
  185.7630  180.0370  143.0420 C   0  0  0  0  0  1  0  0  0  0  0  0
  182.1000  178.9600  143.6360 C   0  0  0  0  0  1  0  0  0  0  0  0
  184.3700  178.0930  144.1300 C   0  0  1  0  0  3  0  0  0  0  0  0
  184.5660  179.0880  142.9800 C   0  0  2  0  0  0  0  0  0  0  0  0
  187.6490  177.6620  145.9950 C   0  0  0  0  0  0  0  0  0  0  0  0
  188.9170  177.1230  145.7680 C   0  0  0  0  0  3  0  0  0  0  0  0
  189.8900  177.1570  146.7780 C   0  0  0  0  0  0  0  0  0  0  0  0
  189.5850  177.7350  148.0150 C   0  0  0  0  0  3  0  0  0  0  0  0
  185.1090  178.7350  146.4690 C   0  0  0  0  0  3  0  0  0  0  0  0
  188.3170  178.2750  148.2510 C   0  0  0  0  0  3  0  0  0  0  0  0
  187.3460  178.2410  147.2480 C   0  0  0  0  0  0  0  0  0  0  0  0
  186.0740  178.7710  147.4800 C   0  0  0  0  0  3  0  0  0  0  0  0
  185.4120  178.1820  145.2150 C   0  0  0  0  0  0  0  0  0  0  0  0
  186.6790  177.6320  144.9900 C   0  0  0  0  0  3  0  0  0  0  0  0
  191.2310  176.6020  146.5680 C   0  0  0  0  0  3  0  0  0  0  0  0
  192.0800  176.4990  147.5350 N   0  0  0  0  0  2  0  0  0  0  0  0
  1 22  1  0  0  0  0
  2 13  1  0  0  0  0
  2  1  2  0  0  0  0
  3  5  1  0  0  0  0
  3  1  1  0  0  0  0
  5  8  2  0  0  0  0
  6  4  2  0  0  0  0
  7 10  2  0  0  0  0
  7  5  1  0  0  0  0
  8  4  1  0  0  0  0
  9 11  2  0  0  0  0
  9  7  1  0  0  0  0
 10  6  1  0  0  0  0
 11  3  1  0  0  0  0
 12 10  1  0  0  0  0
 13 18  1  0  0  0  0
 15 16  2  0  0  0  0
 16 14  1  0  0  0  0
 17 15  1  0  0  0  0
 17 13  2  0  0  0  0
 18 14  2  0  0  0  0
 19 15  1  0  0  0  0
 20 21  3  0  0  0  0
 21 19  1  0  0  0  0
 22 23  1  0  0  0  0
 23 28  1  0  0  0  0
 24 26  1  6  0  0  0
 24 27  1  0  0  0  0
 27 37  1  1  0  0  0
 28 25  1  1  0  0  0
 28 24  1  0  0  0  0
 28 27  1  0  0  0  0
 29 35  1  0  0  0  0
 30 29  2  0  0  0  0
 30 31  1  0  0  0  0
 31 32  2  0  0  0  0
 32 34  1  0  0  0  0
 33 36  2  0  0  0  0
 35 36  1  0  0  0  0
 35 34  2  0  0  0  0
 37 33  1  0  0  0  0
 38 37  2  0  0  0  0
 38 29  1  0  0  0  0
 39 31  1  0  0  0  0
 39 40  2  0  0  0  0
M  END
>  <MODEL>
1

>  <REMARK>
 VINA RESULT:     -10.6      0.000      0.000
  Name = 
  9 active torsions:
  status: ('A' for Active; 'I' for Inactive)
    1  A    between atoms: C_3  and  N_7
    2  A    between atoms: C_3  and  N_8
    3  A    between atoms: C_4  and  C_16
    4  A    between atoms: C_6  and  C_31
    5  A    between atoms: N_8  and  C_18
    6  A    between atoms: C_18  and  C_30
    7  A    between atoms: C_20  and  C_26
    8  A    between atoms: C_23  and  C_38
    9  A    between atoms: C_26  and  C_33
                            x       y       z     vdW  Elec       q    Type
                         _______ _______ _______ _____ _____    ______ ____

>  <TORSDO>
F 9

$$$$
=
 OpenBabel10222416583D

 40 45  0  0  1  0  0  0  0  0999 V2000
  185.3490  178.7920  139.5310 C   0  0  0  0  0  0  0  0  0  0  0  0
  184.3610  178.6840  138.6340 C   0  0  0  0  0  3  0  0  0  0  0  0
  186.6450  178.2780  139.1930 N   0  0  0  0  0  0  0  0  0  0  0  0
  188.8890  178.0840  142.0290 C   0  0  0  0  0  3  0  0  0  0  0  0
  187.6970  178.1170  140.0070 C   0  0  0  0  0  0  0  0  0  0  0  0
  190.0400  177.6250  141.3480 C   0  0  0  0  0  3  0  0  0  0  0  0
  188.7810  177.6700  139.3130 C   0  0  0  0  0  0  0  0  0  0  0  0
  187.7270  178.3230  141.3490 N   0  0  0  0  0  0  0  0  0  0  0  0
  188.4170  177.5470  137.9850 C   0  0  0  0  0  3  0  0  0  0  0  0
  189.9850  177.4110  139.9610 C   0  0  0  0  0  0  0  0  0  0  0  0
  187.0740  177.9450  137.9530 C   0  0  0  0  0  3  0  0  0  0  0  0
  191.1000  176.9590  139.2660 O   0  0  0  0  0  1  0  0  0  0  0  0
  182.9570  179.1170  138.7790 C   0  0  0  0  0  0  0  0  0  0  0  0
  181.2070  180.8070  138.7910 C   0  0  0  0  0  3  0  0  0  0  0  0
  180.6620  178.5030  139.2920 C   0  0  0  0  0  0  0  0  0  0  0  0
  180.2640  179.8340  139.1280 C   0  0  0  0  0  3  0  0  0  0  0  0
  182.0040  178.1480  139.1130 C   0  0  0  0  0  3  0  0  0  0  0  0
  182.5480  180.4520  138.6200 C   0  0  0  0  0  3  0  0  0  0  0  0
  179.6600  177.4620  139.6570 C   0  0  0  0  0  2  0  0  0  0  0  0
  179.2400  177.4630  142.2440 N   0  0  0  0  0  0  0  0  0  0  0  0
  179.4250  177.4650  141.1030 C   0  0  0  0  0  0  0  0  0  0  0  0
  185.1240  179.4020  140.8070 N   0  0  0  0  0  2  0  0  0  0  0  0
  184.2050  178.8700  141.8070 C   0  0  0  0  0  2  0  0  0  0  0  0
  183.5710  179.1990  144.3430 C   0  0  1  0  0  3  0  0  0  0  0  0
  185.6740  180.3480  143.4400 C   0  0  0  0  0  1  0  0  0  0  0  0
  182.2140  178.6880  143.8830 C   0  0  0  0  0  1  0  0  0  0  0  0
  184.5960  178.0760  144.1990 C   0  0  1  0  0  3  0  0  0  0  0  0
  184.6160  179.2650  143.2310 C   0  0  2  0  0  0  0  0  0  0  0  0
  187.9100  177.6120  145.9910 C   0  0  0  0  0  0  0  0  0  0  0  0
  189.1840  177.1100  145.7170 C   0  0  0  0  0  3  0  0  0  0  0  0
  190.1730  177.1110  146.7140 C   0  0  0  0  0  0  0  0  0  0  0  0
  189.8750  177.6160  147.9840 C   0  0  0  0  0  3  0  0  0  0  0  0
  185.3580  178.6080  146.5570 C   0  0  0  0  0  3  0  0  0  0  0  0
  188.6010  178.1180  148.2670 C   0  0  0  0  0  3  0  0  0  0  0  0
  187.6160  178.1180  147.2770 C   0  0  0  0  0  0  0  0  0  0  0  0
  186.3380  178.6090  147.5550 C   0  0  0  0  0  3  0  0  0  0  0  0
  185.6520  178.1280  145.2710 C   0  0  0  0  0  0  0  0  0  0  0  0
  186.9260  177.6160  144.9990 C   0  0  0  0  0  3  0  0  0  0  0  0
  191.5200  176.5940  146.4550 C   0  0  0  0  0  3  0  0  0  0  0  0
  192.0350  175.6550  147.1770 N   0  0  0  0  0  2  0  0  0  0  0  0
  1 22  1  0  0  0  0
  2 13  1  0  0  0  0
  2  1  2  0  0  0  0
  3  1  1  0  0  0  0
  3  5  1  0  0  0  0
  5  8  2  0  0  0  0
  6  4  2  0  0  0  0
  7 10  2  0  0  0  0
  7  5  1  0  0  0  0
  8  4  1  0  0  0  0
  9  7  1  0  0  0  0
 10  6  1  0  0  0  0
 11  9  2  0  0  0  0
 11  3  1  0  0  0  0
 12 10  1  0  0  0  0
 13 17  1  0  0  0  0
 14 16  2  0  0  0  0
 15 19  1  0  0  0  0
 16 15  1  0  0  0  0
 17 15  2  0  0  0  0
 18 13  2  0  0  0  0
 18 14  1  0  0  0  0
 19 21  1  0  0  0  0
 21 20  3  0  0  0  0
 22 23  1  0  0  0  0
 23 28  1  0  0  0  0
 24 26  1  6  0  0  0
 27 24  1  0  0  0  0
 27 37  1  1  0  0  0
 28 25  1  1  0  0  0
 28 27  1  0  0  0  0
 28 24  1  0  0  0  0
 29 35  1  0  0  0  0
 30 29  2  0  0  0  0
 30 31  1  0  0  0  0
 31 32  2  0  0  0  0
 32 34  1  0  0  0  0
 33 36  2  0  0  0  0
 35 36  1  0  0  0  0
 35 34  2  0  0  0  0
 37 33  1  0  0  0  0
 38 37  2  0  0  0  0
 38 29  1  0  0  0  0
 39 31  1  0  0  0  0
 39 40  2  0  0  0  0
M  END
>  <MODEL>
2

>  <REMARK>
 VINA RESULT:     -10.4      1.534      2.468
  Name = 
  9 active torsions:
  status: ('A' for Active; 'I' for Inactive)
    1  A    between atoms: C_3  and  N_7
    2  A    between atoms: C_3  and  N_8
    3  A    between atoms: C_4  and  C_16
    4  A    between atoms: C_6  and  C_31
    5  A    between atoms: N_8  and  C_18
    6  A    between atoms: C_18  and  C_30
    7  A    between atoms: C_20  and  C_26
    8  A    between atoms: C_23  and  C_38
    9  A    between atoms: C_26  and  C_33
                            x       y       z     vdW  Elec       q    Type
                         _______ _______ _______ _____ _____    ______ ____

>  <TORSDO>
F 9

$$$$
=
 OpenBabel10222416583D

 40 45  0  0  1  0  0  0  0  0999 V2000
  184.6220  178.6060  139.0600 C   0  0  0  0  0  0  0  0  0  0  0  0
  185.6600  178.2210  138.3050 C   0  0  0  0  0  3  0  0  0  0  0  0
  183.3120  178.6120  138.4780 N   0  0  0  0  0  0  0  0  0  0  0  0
  181.7580  181.8830  138.4900 C   0  0  0  0  0  3  0  0  0  0  0  0
  182.4730  179.6510  138.3650 C   0  0  0  0  0  0  0  0  0  0  0  0
  180.5110  181.5190  137.9330 C   0  0  0  0  0  3  0  0  0  0  0  0
  181.2870  179.2590  137.8210 C   0  0  0  0  0  0  0  0  0  0  0  0
  182.7290  180.9430  138.6970 N   0  0  0  0  0  0  0  0  0  0  0  0
  181.3570  177.8990  137.5820 C   0  0  0  0  0  3  0  0  0  0  0  0
  180.2700  180.1790  137.5900 C   0  0  0  0  0  0  0  0  0  0  0  0
  182.6380  177.5330  138.0150 C   0  0  0  0  0  3  0  0  0  0  0  0
  179.0530  179.7930  137.0400 O   0  0  0  0  0  1  0  0  0  0  0  0
  187.0840  178.1630  138.6890 C   0  0  0  0  0  0  0  0  0  0  0  0
  189.4580  178.0500  138.1700 C   0  0  0  0  0  3  0  0  0  0  0  0
  188.7250  178.0340  140.4770 C   0  0  0  0  0  0  0  0  0  0  0  0
  189.7580  178.0020  139.5340 C   0  0  0  0  0  3  0  0  0  0  0  0
  187.3940  178.1180  140.0520 C   0  0  0  0  0  3  0  0  0  0  0  0
  188.1280  178.1260  137.7490 C   0  0  0  0  0  3  0  0  0  0  0  0
  189.0390  177.9780  141.9320 C   0  0  0  0  0  2  0  0  0  0  0  0
  190.2530  175.7290  142.5150 N   0  0  0  0  0  0  0  0  0  0  0  0
  189.7170  176.7220  142.2600 C   0  0  0  0  0  0  0  0  0  0  0  0
  184.8100  179.0110  140.4210 N   0  0  0  0  0  2  0  0  0  0  0  0
  184.0710  178.4450  141.5430 C   0  0  0  0  0  2  0  0  0  0  0  0
  183.4460  179.3770  143.9270 C   0  0  1  0  0  3  0  0  0  0  0  0
  185.7310  179.9670  142.9340 C   0  0  0  0  0  1  0  0  0  0  0  0
  182.0320  179.0080  143.5020 C   0  0  0  0  0  1  0  0  0  0  0  0
  184.2690  178.0980  144.0620 C   0  0  1  0  0  3  0  0  0  0  0  0
  184.5100  179.0490  142.8830 C   0  0  2  0  0  0  0  0  0  0  0  0
  187.5130  177.6610  145.9870 C   0  0  0  0  0  0  0  0  0  0  0  0
  188.7760  177.1000  145.7900 C   0  0  0  0  0  3  0  0  0  0  0  0
  189.7350  177.1430  146.8150 C   0  0  0  0  0  0  0  0  0  0  0  0
  189.4190  177.7510  148.0350 C   0  0  0  0  0  3  0  0  0  0  0  0
  184.9810  178.7800  146.3980 C   0  0  0  0  0  3  0  0  0  0  0  0
  188.1550  178.3130  148.2400 C   0  0  0  0  0  3  0  0  0  0  0  0
  187.1990  178.2710  147.2220 C   0  0  0  0  0  0  0  0  0  0  0  0
  185.9320  178.8240  147.4230 C   0  0  0  0  0  3  0  0  0  0  0  0
  185.2950  178.1960  145.1610 C   0  0  0  0  0  0  0  0  0  0  0  0
  186.5580  177.6230  144.9670 C   0  0  0  0  0  3  0  0  0  0  0  0
  191.0700  176.5640  146.6370 C   0  0  0  0  0  3  0  0  0  0  0  0
  191.7570  176.7660  145.5620 N   0  0  0  0  0  2  0  0  0  0  0  0
  1 22  1  0  0  0  0
  2 13  1  0  0  0  0
  2  1  2  0  0  0  0
  3  1  1  0  0  0  0
  4  8  1  0  0  0  0
  5  3  1  0  0  0  0
  5  8  2  0  0  0  0
  6  4  2  0  0  0  0
  7  5  1  0  0  0  0
  9  7  1  0  0  0  0
  9 11  2  0  0  0  0
 10  7  2  0  0  0  0
 10  6  1  0  0  0  0
 11  3  1  0  0  0  0
 12 10  1  0  0  0  0
 13 17  1  0  0  0  0
 14 16  2  0  0  0  0
 15 19  1  0  0  0  0
 16 15  1  0  0  0  0
 17 15  2  0  0  0  0
 18 14  1  0  0  0  0
 18 13  2  0  0  0  0
 19 21  1  0  0  0  0
 21 20  3  0  0  0  0
 22 23  1  0  0  0  0
 23 28  1  0  0  0  0
 24 26  1  6  0  0  0
 24 27  1  0  0  0  0
 27 37  1  1  0  0  0
 28 25  1  1  0  0  0
 28 24  1  0  0  0  0
 28 27  1  0  0  0  0
 29 35  1  0  0  0  0
 30 29  2  0  0  0  0
 30 31  1  0  0  0  0
 31 32  2  0  0  0  0
 32 34  1  0  0  0  0
 33 36  2  0  0  0  0
 35 36  1  0  0  0  0
 35 34  2  0  0  0  0
 37 33  1  0  0  0  0
 38 37  2  0  0  0  0
 38 29  1  0  0  0  0
 39 31  1  0  0  0  0
 40 39  2  0  0  0  0
M  END
>  <MODEL>
3

>  <REMARK>
 VINA RESULT:     -10.3      2.226      5.831
  Name = 
  9 active torsions:
  status: ('A' for Active; 'I' for Inactive)
    1  A    between atoms: C_3  and  N_7
    2  A    between atoms: C_3  and  N_8
    3  A    between atoms: C_4  and  C_16
    4  A    between atoms: C_6  and  C_31
    5  A    between atoms: N_8  and  C_18
    6  A    between atoms: C_18  and  C_30
    7  A    between atoms: C_20  and  C_26
    8  A    between atoms: C_23  and  C_38
    9  A    between atoms: C_26  and  C_33
                            x       y       z     vdW  Elec       q    Type
                         _______ _______ _______ _____ _____    ______ ____

>  <TORSDO>
F 9

$$$$
=
 OpenBabel10222416583D

 40 45  0  0  1  0  0  0  0  0999 V2000
  184.6040  178.8830  139.2850 C   0  0  0  0  0  0  0  0  0  0  0  0
  185.5970  178.4700  138.4870 C   0  0  0  0  0  3  0  0  0  0  0  0
  183.2880  179.0220  138.7310 N   0  0  0  0  0  0  0  0  0  0  0  0
  181.8100  175.8630  137.7530 C   0  0  0  0  0  3  0  0  0  0  0  0
  182.4990  178.0510  138.2490 C   0  0  0  0  0  0  0  0  0  0  0  0
  180.6040  176.3620  137.2080 C   0  0  0  0  0  3  0  0  0  0  0  0
  181.3480  178.5730  137.7390 C   0  0  0  0  0  0  0  0  0  0  0  0
  182.7440  176.7160  138.2710 N   0  0  0  0  0  0  0  0  0  0  0  0
  181.4000  179.9470  137.8860 C   0  0  0  0  0  3  0  0  0  0  0  0
  180.3670  177.7460  137.2020 C   0  0  0  0  0  0  0  0  0  0  0  0
  182.6350  180.1850  138.5040 C   0  0  0  0  0  3  0  0  0  0  0  0
  179.1900  178.2640  136.6740 O   0  0  0  0  0  1  0  0  0  0  0  0
  187.0190  178.2840  138.8360 C   0  0  0  0  0  0  0  0  0  0  0  0
  189.3590  177.9480  138.2630 C   0  0  0  0  0  3  0  0  0  0  0  0
  188.6850  178.0160  140.5860 C   0  0  0  0  0  0  0  0  0  0  0  0
  189.6870  177.8820  139.6190 C   0  0  0  0  0  3  0  0  0  0  0  0
  187.3570  178.2200  140.1930 C   0  0  0  0  0  3  0  0  0  0  0  0
  188.0320  178.1440  137.8720 C   0  0  0  0  0  3  0  0  0  0  0  0
  189.0280  177.9420  142.0340 C   0  0  0  0  0  2  0  0  0  0  0  0
  190.3100  175.7150  142.5510 N   0  0  0  0  0  0  0  0  0  0  0  0
  189.7440  176.6980  142.3250 C   0  0  0  0  0  0  0  0  0  0  0  0
  184.8430  179.1880  140.6640 N   0  0  0  0  0  2  0  0  0  0  0  0
  184.0770  178.6150  141.7640 C   0  0  0  0  0  2  0  0  0  0  0  0
  183.5080  179.3410  144.2320 C   0  0  1  0  0  3  0  0  0  0  0  0
  185.7150  180.1230  143.1950 C   0  0  0  0  0  1  0  0  0  0  0  0
  182.0980  178.9250  143.8370 C   0  0  0  0  0  1  0  0  0  0  0  0
  184.4020  178.1030  144.2410 C   0  0  1  0  0  3  0  0  0  0  0  0
  184.5420  179.1450  143.1260 C   0  0  2  0  0  0  0  0  0  0  0  0
  187.7230  177.6480  146.0250 C   0  0  0  0  0  0  0  0  0  0  0  0
  188.9840  177.1100  145.7620 C   0  0  0  0  0  3  0  0  0  0  0  0
  189.9810  177.1330  146.7500 C   0  0  0  0  0  0  0  0  0  0  0  0
  189.7050  177.6970  148.0000 C   0  0  0  0  0  3  0  0  0  0  0  0
  185.1960  178.7180  146.5690 C   0  0  0  0  0  3  0  0  0  0  0  0
  188.4440  178.2360  148.2720 C   0  0  0  0  0  3  0  0  0  0  0  0
  187.4500  178.2140  147.2900 C   0  0  0  0  0  0  0  0  0  0  0  0
  186.1840  178.7420  147.5580 C   0  0  0  0  0  3  0  0  0  0  0  0
  185.4690  178.1790  145.3020 C   0  0  0  0  0  0  0  0  0  0  0  0
  186.7300  177.6300  145.0420 C   0  0  0  0  0  3  0  0  0  0  0  0
  191.3160  176.5790  146.5020 C   0  0  0  0  0  3  0  0  0  0  0  0
  192.1500  176.3680  147.4650 N   0  0  0  0  0  2  0  0  0  0  0  0
  1 22  1  0  0  0  0
  2 13  1  0  0  0  0
  2  1  2  0  0  0  0
  3  1  1  0  0  0  0
  4  8  1  0  0  0  0
  5  8  2  0  0  0  0
  5  3  1  0  0  0  0
  6  4  2  0  0  0  0
  7  9  1  0  0  0  0
  7  5  1  0  0  0  0
  9 11  2  0  0  0  0
 10  6  1  0  0  0  0
 10  7  2  0  0  0  0
 11  3  1  0  0  0  0
 12 10  1  0  0  0  0
 13 17  1  0  0  0  0
 14 16  2  0  0  0  0
 15 19  1  0  0  0  0
 16 15  1  0  0  0  0
 17 15  2  0  0  0  0
 18 14  1  0  0  0  0
 18 13  2  0  0  0  0
 19 21  1  0  0  0  0
 21 20  3  0  0  0  0
 22 23  1  0  0  0  0
 23 28  1  0  0  0  0
 24 26  1  6  0  0  0
 24 27  1  0  0  0  0
 27 37  1  1  0  0  0
 28 25  1  1  0  0  0
 28 24  1  0  0  0  0
 28 27  1  0  0  0  0
 29 35  1  0  0  0  0
 30 29  2  0  0  0  0
 30 31  1  0  0  0  0
 31 32  2  0  0  0  0
 32 34  1  0  0  0  0
 33 36  2  0  0  0  0
 35 36  1  0  0  0  0
 35 34  2  0  0  0  0
 37 33  1  0  0  0  0
 38 37  2  0  0  0  0
 38 29  1  0  0  0  0
 39 31  1  0  0  0  0
 39 40  2  0  0  0  0
M  END
>  <MODEL>
4

>  <REMARK>
 VINA RESULT:     -10.3      2.349      5.756
  Name = 
  9 active torsions:
  status: ('A' for Active; 'I' for Inactive)
    1  A    between atoms: C_3  and  N_7
    2  A    between atoms: C_3  and  N_8
    3  A    between atoms: C_4  and  C_16
    4  A    between atoms: C_6  and  C_31
    5  A    between atoms: N_8  and  C_18
    6  A    between atoms: C_18  and  C_30
    7  A    between atoms: C_20  and  C_26
    8  A    between atoms: C_23  and  C_38
    9  A    between atoms: C_26  and  C_33
                            x       y       z     vdW  Elec       q    Type
                         _______ _______ _______ _____ _____    ______ ____

>  <TORSDO>
F 9

$$$$
=
 OpenBabel10222416583D

 40 45  0  0  1  0  0  0  0  0999 V2000
  185.5780  178.6590  139.6410 C   0  0  0  0  0  0  0  0  0  0  0  0
  184.5740  178.3910  138.7950 C   0  0  0  0  0  3  0  0  0  0  0  0
  186.9060  178.2530  139.2820 N   0  0  0  0  0  0  0  0  0  0  0  0
  189.0670  177.7490  142.1440 C   0  0  0  0  0  3  0  0  0  0  0  0
  187.9390  178.0220  140.1040 C   0  0  0  0  0  0  0  0  0  0  0  0
  190.2590  177.4410  141.4480 C   0  0  0  0  0  3  0  0  0  0  0  0
  189.0640  177.7250  139.3950 C   0  0  0  0  0  0  0  0  0  0  0  0
  187.9170  178.0340  141.4610 N   0  0  0  0  0  0  0  0  0  0  0  0
  188.7470  177.7790  138.0500 C   0  0  0  0  0  3  0  0  0  0  0  0
  190.2580  177.4270  140.0440 C   0  0  0  0  0  0  0  0  0  0  0  0
  187.3880  178.1200  138.0250 C   0  0  0  0  0  3  0  0  0  0  0  0
  191.4140  177.1270  139.3340 O   0  0  0  0  0  1  0  0  0  0  0  0
  183.1390  178.6920  138.9720 C   0  0  0  0  0  0  0  0  0  0  0  0
  180.8580  178.0780  139.5500 C   0  0  0  0  0  3  0  0  0  0  0  0
  181.3420  180.3160  138.7660 C   0  0  0  0  0  0  0  0  0  0  0  0
  180.4230  179.3640  139.2210 C   0  0  0  0  0  3  0  0  0  0  0  0
  182.6950  179.9790  138.6470 C   0  0  0  0  0  3  0  0  0  0  0  0
  182.2080  177.7420  139.4240 C   0  0  0  0  0  3  0  0  0  0  0  0
  180.8830  181.6870  138.4080 C   0  0  0  0  0  2  0  0  0  0  0  0
  180.6420  181.9220  135.8090 N   0  0  0  0  0  0  0  0  0  0  0  0
  180.7470  181.8170  136.9550 C   0  0  0  0  0  0  0  0  0  0  0  0
  185.3380  179.3290  140.8830 N   0  0  0  0  0  2  0  0  0  0  0  0
  184.2990  178.9360  141.8280 C   0  0  0  0  0  2  0  0  0  0  0  0
  183.5920  179.1860  144.3530 C   0  0  1  0  0  3  0  0  0  0  0  0
  185.6650  180.4400  143.5240 C   0  0  0  0  0  1  0  0  0  0  0  0
  182.2680  178.6280  143.8500 C   0  0  0  0  0  1  0  0  0  0  0  0
  184.6660  178.1100  144.2130 C   0  0  1  0  0  3  0  0  0  0  0  0
  184.6580  179.3190  143.2690 C   0  0  2  0  0  0  0  0  0  0  0  0
  187.9410  177.7100  146.0910 C   0  0  0  0  0  0  0  0  0  0  0  0
  189.2300  177.2300  145.8520 C   0  0  0  0  0  3  0  0  0  0  0  0
  190.1920  177.2510  146.8740 C   0  0  0  0  0  0  0  0  0  0  0  0
  189.8540  177.7570  148.1340 C   0  0  0  0  0  3  0  0  0  0  0  0
  185.3580  178.6650  146.5880 C   0  0  0  0  0  3  0  0  0  0  0  0
  188.5650  178.2380  148.3820 C   0  0  0  0  0  3  0  0  0  0  0  0
  187.6050  178.2170  147.3670 C   0  0  0  0  0  0  0  0  0  0  0  0
  186.3120  178.6880  147.6100 C   0  0  0  0  0  3  0  0  0  0  0  0
  185.6930  178.1850  145.3120 C   0  0  0  0  0  0  0  0  0  0  0  0
  186.9830  177.6930  145.0750 C   0  0  0  0  0  3  0  0  0  0  0  0
  191.5550  176.7570  146.6520 C   0  0  0  0  0  3  0  0  0  0  0  0
  192.1670  176.0430  147.5370 N   0  0  0  0  0  2  0  0  0  0  0  0
  1 22  1  0  0  0  0
  2 13  1  0  0  0  0
  2  1  2  0  0  0  0
  3  1  1  0  0  0  0
  3  5  1  0  0  0  0
  5  8  2  0  0  0  0
  6  4  2  0  0  0  0
  7 10  2  0  0  0  0
  7  5  1  0  0  0  0
  8  4  1  0  0  0  0
  9  7  1  0  0  0  0
 10  6  1  0  0  0  0
 11  9  2  0  0  0  0
 11  3  1  0  0  0  0
 12 10  1  0  0  0  0
 13 18  1  0  0  0  0
 15 16  2  0  0  0  0
 16 14  1  0  0  0  0
 17 15  1  0  0  0  0
 17 13  2  0  0  0  0
 18 14  2  0  0  0  0
 19 15  1  0  0  0  0
 20 21  3  0  0  0  0
 21 19  1  0  0  0  0
 22 23  1  0  0  0  0
 23 28  1  0  0  0  0
 24 26  1  6  0  0  0
 27 24  1  0  0  0  0
 27 37  1  1  0  0  0
 28 25  1  1  0  0  0
 28 27  1  0  0  0  0
 28 24  1  0  0  0  0
 29 35  1  0  0  0  0
 30 29  2  0  0  0  0
 30 31  1  0  0  0  0
 31 32  2  0  0  0  0
 32 34  1  0  0  0  0
 33 36  2  0  0  0  0
 35 36  1  0  0  0  0
 35 34  2  0  0  0  0
 37 33  1  0  0  0  0
 38 37  2  0  0  0  0
 38 29  1  0  0  0  0
 39 31  1  0  0  0  0
 39 40  2  0  0  0  0
M  END
>  <MODEL>
5

>  <REMARK>
 VINA RESULT:     -10.1      1.141      1.520
  Name = 
  9 active torsions:
  status: ('A' for Active; 'I' for Inactive)
    1  A    between atoms: C_3  and  N_7
    2  A    between atoms: C_3  and  N_8
    3  A    between atoms: C_4  and  C_16
    4  A    between atoms: C_6  and  C_31
    5  A    between atoms: N_8  and  C_18
    6  A    between atoms: C_18  and  C_30
    7  A    between atoms: C_20  and  C_26
    8  A    between atoms: C_23  and  C_38
    9  A    between atoms: C_26  and  C_33
                            x       y       z     vdW  Elec       q    Type
                         _______ _______ _______ _____ _____    ______ ____

>  <TORSDO>
F 9

$$$$
=
 OpenBabel10222416583D

 40 45  0  0  1  0  0  0  0  0999 V2000
  183.9100  178.7710  138.8110 C   0  0  0  0  0  0  0  0  0  0  0  0
  182.8150  179.1860  138.1600 C   0  0  0  0  0  3  0  0  0  0  0  0
  184.8390  177.9220  138.1230 N   0  0  0  0  0  0  0  0  0  0  0  0
  183.5860  174.5660  137.5930 C   0  0  0  0  0  3  0  0  0  0  0  0
  184.6850  176.6280  137.8090 C   0  0  0  0  0  0  0  0  0  0  0  0
  184.7350  174.0130  136.9820 C   0  0  0  0  0  3  0  0  0  0  0  0
  185.8120  176.1360  137.2210 C   0  0  0  0  0  0  0  0  0  0  0  0
  183.5740  175.8720  137.9980 N   0  0  0  0  0  0  0  0  0  0  0  0
  186.7420  177.1570  137.1600 C   0  0  0  0  0  3  0  0  0  0  0  0
  185.8720  174.8150  136.7900 C   0  0  0  0  0  0  0  0  0  0  0  0
  186.0950  178.2550  137.7430 C   0  0  0  0  0  3  0  0  0  0  0  0
  187.0150  174.2980  136.1920 O   0  0  0  0  0  1  0  0  0  0  0  0
  181.7240  180.0340  138.6780 C   0  0  0  0  0  0  0  0  0  0  0  0
  179.9790  180.5690  140.2870 C   0  0  0  0  0  3  0  0  0  0  0  0
  180.3230  181.9960  138.3620 C   0  0  0  0  0  0  0  0  0  0  0  0
  179.6300  181.6960  139.5400 C   0  0  0  0  0  3  0  0  0  0  0  0
  181.3690  181.1680  137.9380 C   0  0  0  0  0  3  0  0  0  0  0  0
  181.0180  179.7390  139.8570 C   0  0  0  0  0  3  0  0  0  0  0  0
  179.9510  183.1950  137.5600 C   0  0  0  0  0  2  0  0  0  0  0  0
  181.9310  184.9120  137.5200 N   0  0  0  0  0  0  0  0  0  0  0  0
  181.0560  184.1560  137.5370 C   0  0  0  0  0  0  0  0  0  0  0  0
  184.1520  179.1570  140.1680 N   0  0  0  0  0  2  0  0  0  0  0  0
  184.0980  178.2320  141.2950 C   0  0  0  0  0  2  0  0  0  0  0  0
  183.5010  179.3290  143.6150 C   0  0  1  0  0  3  0  0  0  0  0  0
  185.8190  179.7530  142.6110 C   0  0  0  0  0  1  0  0  0  0  0  0
  182.0740  179.0020  143.1970 C   0  0  0  0  0  1  0  0  0  0  0  0
  184.2620  178.0230  143.8310 C   0  0  1  0  0  3  0  0  0  0  0  0
  184.5560  178.8910  142.6020 C   0  0  2  0  0  0  0  0  0  0  0  0
  187.5280  177.6890  145.7390 C   0  0  0  0  0  0  0  0  0  0  0  0
  188.8170  177.1990  145.5240 C   0  0  0  0  0  3  0  0  0  0  0  0
  189.7750  177.2560  146.5490 C   0  0  0  0  0  0  0  0  0  0  0  0
  189.4310  177.8070  147.7880 C   0  0  0  0  0  3  0  0  0  0  0  0
  184.9440  178.6630  146.1880 C   0  0  0  0  0  3  0  0  0  0  0  0
  188.1400  178.2980  148.0120 C   0  0  0  0  0  3  0  0  0  0  0  0
  187.1860  178.2410  146.9940 C   0  0  0  0  0  0  0  0  0  0  0  0
  185.8920  178.7210  147.2130 C   0  0  0  0  0  3  0  0  0  0  0  0
  185.2840  178.1370  144.9320 C   0  0  0  0  0  0  0  0  0  0  0  0
  186.5740  177.6360  144.7190 C   0  0  0  0  0  3  0  0  0  0  0  0
  191.1380  176.7530  146.3520 C   0  0  0  0  0  3  0  0  0  0  0  0
  191.9590  176.6200  147.3390 N   0  0  0  0  0  2  0  0  0  0  0  0
  1 22  1  0  0  0  0
  2 13  1  0  0  0  0
  2  1  2  0  0  0  0
  3  1  1  0  0  0  0
  4  8  1  0  0  0  0
  5  8  2  0  0  0  0
  5  3  1  0  0  0  0
  6  4  2  0  0  0  0
  7  5  1  0  0  0  0
  9  7  1  0  0  0  0
  9 11  2  0  0  0  0
 10  6  1  0  0  0  0
 10  7  2  0  0  0  0
 11  3  1  0  0  0  0
 12 10  1  0  0  0  0
 13 18  1  0  0  0  0
 15 16  2  0  0  0  0
 16 14  1  0  0  0  0
 17 15  1  0  0  0  0
 17 13  2  0  0  0  0
 18 14  2  0  0  0  0
 19 15  1  0  0  0  0
 20 21  3  0  0  0  0
 21 19  1  0  0  0  0
 22 23  1  0  0  0  0
 23 28  1  0  0  0  0
 24 26  1  6  0  0  0
 24 27  1  0  0  0  0
 27 37  1  1  0  0  0
 28 25  1  6  0  0  0
 28 24  1  0  0  0  0
 28 27  1  0  0  0  0
 29 35  1  0  0  0  0
 30 29  2  0  0  0  0
 30 31  1  0  0  0  0
 31 32  2  0  0  0  0
 32 34  1  0  0  0  0
 33 36  2  0  0  0  0
 35 36  1  0  0  0  0
 35 34  2  0  0  0  0
 37 33  1  0  0  0  0
 38 37  2  0  0  0  0
 38 29  1  0  0  0  0
 39 31  1  0  0  0  0
 39 40  2  0  0  0  0
M  END
>  <MODEL>
6

>  <REMARK>
 VINA RESULT:      -9.7      1.283      2.016
  Name = 
  9 active torsions:
  status: ('A' for Active; 'I' for Inactive)
    1  A    between atoms: C_3  and  N_7
    2  A    between atoms: C_3  and  N_8
    3  A    between atoms: C_4  and  C_16
    4  A    between atoms: C_6  and  C_31
    5  A    between atoms: N_8  and  C_18
    6  A    between atoms: C_18  and  C_30
    7  A    between atoms: C_20  and  C_26
    8  A    between atoms: C_23  and  C_38
    9  A    between atoms: C_26  and  C_33
                            x       y       z     vdW  Elec       q    Type
                         _______ _______ _______ _____ _____    ______ ____

>  <TORSDO>
F 9

$$$$
=
 OpenBabel10222416583D

 40 45  0  0  1  0  0  0  0  0999 V2000
  184.7480  178.6150  139.5200 C   0  0  0  0  0  0  0  0  0  0  0  0
  185.7700  178.4490  138.6700 C   0  0  0  0  0  3  0  0  0  0  0  0
  183.4680  178.9900  138.9910 N   0  0  0  0  0  0  0  0  0  0  0  0
  181.3610  176.1510  138.2070 C   0  0  0  0  0  3  0  0  0  0  0  0
  182.4860  178.1770  138.5770 C   0  0  0  0  0  0  0  0  0  0  0  0
  180.2600  176.8560  137.6670 C   0  0  0  0  0  3  0  0  0  0  0  0
  181.4460  178.8960  138.0700 C   0  0  0  0  0  0  0  0  0  0  0  0
  182.4630  176.8220  138.6590 N   0  0  0  0  0  0  0  0  0  0  0  0
  181.7740  180.2360  138.1480 C   0  0  0  0  0  3  0  0  0  0  0  0
  180.3020  178.2590  137.5990 C   0  0  0  0  0  0  0  0  0  0  0  0
  183.0520  180.2490  138.7240 C   0  0  0  0  0  3  0  0  0  0  0  0
  179.2350  178.9780  137.0750 O   0  0  0  0  0  1  0  0  0  0  0  0
  187.1660  178.0930  138.9940 C   0  0  0  0  0  0  0  0  0  0  0  0
  189.0550  177.9250  140.5180 C   0  0  0  0  0  3  0  0  0  0  0  0
  189.3090  177.2640  138.2030 C   0  0  0  0  0  0  0  0  0  0  0  0
  189.8510  177.4280  139.4820 C   0  0  0  0  0  3  0  0  0  0  0  0
  187.9700  177.5920  137.9640 C   0  0  0  0  0  3  0  0  0  0  0  0
  187.7200  178.2590  140.2750 C   0  0  0  0  0  3  0  0  0  0  0  0
  190.1550  176.7390  137.0950 C   0  0  0  0  0  2  0  0  0  0  0  0
  191.7130  174.8200  137.9680 N   0  0  0  0  0  0  0  0  0  0  0  0
  191.0250  175.6650  137.5820 C   0  0  0  0  0  0  0  0  0  0  0  0
  184.9220  178.4310  140.9290 N   0  0  0  0  0  2  0  0  0  0  0  0
  183.8690  178.6570  141.9110 C   0  0  0  0  0  2  0  0  0  0  0  0
  183.4670  179.3680  144.4160 C   0  0  1  0  0  3  0  0  0  0  0  0
  185.6200  180.1190  143.2520 C   0  0  0  0  0  1  0  0  0  0  0  0
  182.0270  178.9830  144.1050 C   0  0  0  0  0  1  0  0  0  0  0  0
  184.3350  178.1130  144.3590 C   0  0  1  0  0  3  0  0  0  0  0  0
  184.4270  179.1640  143.2470 C   0  0  2  0  0  0  0  0  0  0  0  0
  187.7700  177.6340  145.9050 C   0  0  0  0  0  0  0  0  0  0  0  0
  189.0190  177.1320  145.5380 C   0  0  0  0  0  3  0  0  0  0  0  0
  190.0770  177.1250  146.4610 C   0  0  0  0  0  0  0  0  0  0  0  0
  189.8730  177.6260  147.7520 C   0  0  0  0  0  3  0  0  0  0  0  0
  185.2670  178.6330  146.6590 C   0  0  0  0  0  3  0  0  0  0  0  0
  188.6240  178.1290  148.1280 C   0  0  0  0  0  3  0  0  0  0  0  0
  187.5700  178.1350  147.2110 C   0  0  0  0  0  0  0  0  0  0  0  0
  186.3160  178.6280  147.5830 C   0  0  0  0  0  3  0  0  0  0  0  0
  185.4660  178.1590  145.3530 C   0  0  0  0  0  0  0  0  0  0  0  0
  186.7170  177.6450  144.9880 C   0  0  0  0  0  3  0  0  0  0  0  0
  191.4010  176.6070  146.1040 C   0  0  0  0  0  3  0  0  0  0  0  0
  192.0720  175.8520  146.9080 N   0  0  0  0  0  2  0  0  0  0  0  0
  1 22  1  0  0  0  0
  2 13  1  0  0  0  0
  2  1  2  0  0  0  0
  3  1  1  0  0  0  0
  4  8  1  0  0  0  0
  5  8  2  0  0  0  0
  5  3  1  0  0  0  0
  6  4  2  0  0  0  0
  7  9  1  0  0  0  0
  7  5  1  0  0  0  0
  9 11  2  0  0  0  0
 10  6  1  0  0  0  0
 10  7  2  0  0  0  0
 11  3  1  0  0  0  0
 12 10  1  0  0  0  0
 13 18  1  0  0  0  0
 15 16  2  0  0  0  0
 16 14  1  0  0  0  0
 17 15  1  0  0  0  0
 17 13  2  0  0  0  0
 18 14  2  0  0  0  0
 19 21  1  0  0  0  0
 19 15  1  0  0  0  0
 21 20  3  0  0  0  0
 22 23  1  0  0  0  0
 23 28  1  0  0  0  0
 24 26  1  6  0  0  0
 27 24  1  0  0  0  0
 27 37  1  1  0  0  0
 28 25  1  6  0  0  0
 28 27  1  0  0  0  0
 28 24  1  0  0  0  0
 29 35  1  0  0  0  0
 30 29  2  0  0  0  0
 30 31  1  0  0  0  0
 31 32  2  0  0  0  0
 32 34  1  0  0  0  0
 33 36  2  0  0  0  0
 35 36  1  0  0  0  0
 35 34  2  0  0  0  0
 37 33  1  0  0  0  0
 38 37  2  0  0  0  0
 38 29  1  0  0  0  0
 39 31  1  0  0  0  0
 39 40  2  0  0  0  0
M  END
>  <MODEL>
7

>  <REMARK>
 VINA RESULT:      -9.3      2.373      5.911
  Name = 
  9 active torsions:
  status: ('A' for Active; 'I' for Inactive)
    1  A    between atoms: C_3  and  N_7
    2  A    between atoms: C_3  and  N_8
    3  A    between atoms: C_4  and  C_16
    4  A    between atoms: C_6  and  C_31
    5  A    between atoms: N_8  and  C_18
    6  A    between atoms: C_18  and  C_30
    7  A    between atoms: C_20  and  C_26
    8  A    between atoms: C_23  and  C_38
    9  A    between atoms: C_26  and  C_33
                            x       y       z     vdW  Elec       q    Type
                         _______ _______ _______ _____ _____    ______ ____

>  <TORSDO>
F 9

$$$$
=
 OpenBabel10222416583D

 40 45  0  0  1  0  0  0  0  0999 V2000
  184.9990  178.6020  138.8180 C   0  0  0  0  0  0  0  0  0  0  0  0
  183.8780  178.7100  138.0920 C   0  0  0  0  0  3  0  0  0  0  0  0
  186.1550  178.0050  138.2140 N   0  0  0  0  0  0  0  0  0  0  0  0
  185.3380  175.6200  135.6140 C   0  0  0  0  0  3  0  0  0  0  0  0
  186.1840  177.0690  137.2550 C   0  0  0  0  0  0  0  0  0  0  0  0
  186.6500  175.1960  135.3050 C   0  0  0  0  0  3  0  0  0  0  0  0
  187.4650  176.6930  136.9850 C   0  0  0  0  0  0  0  0  0  0  0  0
  185.1190  176.5570  136.5860 N   0  0  0  0  0  0  0  0  0  0  0  0
  188.3050  177.4090  137.8170 C   0  0  0  0  0  3  0  0  0  0  0  0
  187.7380  175.7450  136.0040 C   0  0  0  0  0  0  0  0  0  0  0  0
  187.4430  178.2130  138.5750 C   0  0  0  0  0  3  0  0  0  0  0  0
  189.0390  175.3480  135.7210 O   0  0  0  0  0  1  0  0  0  0  0  0
  182.5770  179.2620  138.5160 C   0  0  0  0  0  0  0  0  0  0  0  0
  181.0600  181.1070  138.9800 C   0  0  0  0  0  3  0  0  0  0  0  0
  180.3410  178.8280  139.3650 C   0  0  0  0  0  0  0  0  0  0  0  0
  180.0780  180.2010  139.3900 C   0  0  0  0  0  3  0  0  0  0  0  0
  181.5860  178.3630  138.9250 C   0  0  0  0  0  3  0  0  0  0  0  0
  182.3050  180.6400  138.5480 C   0  0  0  0  0  3  0  0  0  0  0  0
  179.2990  177.8590  139.8060 C   0  0  0  0  0  2  0  0  0  0  0  0
  179.2160  177.7410  142.4230 N   0  0  0  0  0  0  0  0  0  0  0  0
  179.2520  177.7910  141.2690 C   0  0  0  0  0  0  0  0  0  0  0  0
  185.0490  179.0650  140.1720 N   0  0  0  0  0  2  0  0  0  0  0  0
  184.5190  178.3150  141.3040 C   0  0  0  0  0  2  0  0  0  0  0  0
  183.8080  179.3350  143.6270 C   0  0  1  0  0  3  0  0  0  0  0  0
  186.1550  179.8290  142.7300 C   0  0  0  0  0  1  0  0  0  0  0  0
  182.4050  178.9940  143.1430 C   0  0  0  0  0  1  0  0  0  0  0  0
  184.5850  178.0380  143.8380 C   0  0  1  0  0  3  0  0  0  0  0  0
  184.9110  178.9450  142.6460 C   0  0  2  0  0  0  0  0  0  0  0  0
  187.7560  177.6520  145.8910 C   0  0  0  0  0  0  0  0  0  0  0  0
  189.0430  177.1330  145.7370 C   0  0  0  0  0  3  0  0  0  0  0  0
  189.9550  177.1800  146.8030 C   0  0  0  0  0  0  0  0  0  0  0  0
  189.5680  177.7480  148.0220 C   0  0  0  0  0  3  0  0  0  0  0  0
  185.1750  178.6830  146.2180 C   0  0  0  0  0  3  0  0  0  0  0  0
  188.2800  178.2660  148.1840 C   0  0  0  0  0  3  0  0  0  0  0  0
  187.3710  178.2210  147.1250 C   0  0  0  0  0  0  0  0  0  0  0  0
  186.0790  178.7300  147.2840 C   0  0  0  0  0  3  0  0  0  0  0  0
  185.5600  178.1400  144.9820 C   0  0  0  0  0  0  0  0  0  0  0  0
  186.8470  177.6100  144.8310 C   0  0  0  0  0  3  0  0  0  0  0  0
  191.3140  176.6460  146.6700 C   0  0  0  0  0  3  0  0  0  0  0  0
  192.0320  176.3580  147.7040 N   0  0  0  0  0  2  0  0  0  0  0  0
  1 22  1  0  0  0  0
  2 13  1  0  0  0  0
  2  1  2  0  0  0  0
  3 11  1  0  0  0  0
  3  1  1  0  0  0  0
  4  8  1  0  0  0  0
  5  3  1  0  0  0  0
  6  4  2  0  0  0  0
  6 10  1  0  0  0  0
  7  5  1  0  0  0  0
  7  9  1  0  0  0  0
  8  5  2  0  0  0  0
  9 11  2  0  0  0  0
 10  7  2  0  0  0  0
 12 10  1  0  0  0  0
 13 18  2  0  0  0  0
 13 17  1  0  0  0  0
 14 16  2  0  0  0  0
 15 16  1  0  0  0  0
 15 19  1  0  0  0  0
 17 15  2  0  0  0  0
 18 14  1  0  0  0  0
 19 21  1  0  0  0  0
 21 20  3  0  0  0  0
 22 23  1  0  0  0  0
 23 28  1  0  0  0  0
 24 26  1  6  0  0  0
 24 27  1  0  0  0  0
 27 37  1  1  0  0  0
 28 25  1  1  0  0  0
 28 24  1  0  0  0  0
 28 27  1  0  0  0  0
 29 35  1  0  0  0  0
 30 29  2  0  0  0  0
 30 31  1  0  0  0  0
 31 32  2  0  0  0  0
 32 34  1  0  0  0  0
 33 36  2  0  0  0  0
 35 36  1  0  0  0  0
 35 34  2  0  0  0  0
 37 33  1  0  0  0  0
 38 37  2  0  0  0  0
 38 29  1  0  0  0  0
 39 31  1  0  0  0  0
 39 40  2  0  0  0  0
M  END
>  <MODEL>
8

>  <REMARK>
 VINA RESULT:      -9.3      1.510      2.798
  Name = 
  9 active torsions:
  status: ('A' for Active; 'I' for Inactive)
    1  A    between atoms: C_3  and  N_7
    2  A    between atoms: C_3  and  N_8
    3  A    between atoms: C_4  and  C_16
    4  A    between atoms: C_6  and  C_31
    5  A    between atoms: N_8  and  C_18
    6  A    between atoms: C_18  and  C_30
    7  A    between atoms: C_20  and  C_26
    8  A    between atoms: C_23  and  C_38
    9  A    between atoms: C_26  and  C_33
                            x       y       z     vdW  Elec       q    Type
                         _______ _______ _______ _____ _____    ______ ____

>  <TORSDO>
F 9

$$$$
=
 OpenBabel10222416583D

 40 45  0  0  1  0  0  0  0  0999 V2000
  186.7790  177.8710  138.7500 C   0  0  0  0  0  0  0  0  0  0  0  0
  187.9820  177.2840  138.8050 C   0  0  0  0  0  3  0  0  0  0  0  0
  185.9720  177.6790  137.5810 N   0  0  0  0  0  0  0  0  0  0  0  0
  182.6350  176.4860  138.3290 C   0  0  0  0  0  3  0  0  0  0  0  0
  184.7140  177.2180  137.5240 C   0  0  0  0  0  0  0  0  0  0  0  0
  182.1650  176.3460  137.0030 C   0  0  0  0  0  3  0  0  0  0  0  0
  184.3000  177.1020  136.2310 C   0  0  0  0  0  0  0  0  0  0  0  0
  183.9070  176.9250  138.5750 N   0  0  0  0  0  0  0  0  0  0  0  0
  185.3420  177.4950  135.4120 C   0  0  0  0  0  3  0  0  0  0  0  0
  183.0150  176.6620  135.9300 C   0  0  0  0  0  0  0  0  0  0  0  0
  186.3720  177.8400  136.2980 C   0  0  0  0  0  3  0  0  0  0  0  0
  182.5800  176.5350  134.6170 O   0  0  0  0  0  1  0  0  0  0  0  0
  188.9790  177.3670  139.8900 C   0  0  0  0  0  0  0  0  0  0  0  0
  189.6170  177.5910  142.2270 C   0  0  0  0  0  3  0  0  0  0  0  0
  191.3260  177.4410  140.5190 C   0  0  0  0  0  0  0  0  0  0  0  0
  190.9660  177.5660  141.8650 C   0  0  0  0  0  3  0  0  0  0  0  0
  190.3330  177.3380  139.5380 C   0  0  0  0  0  3  0  0  0  0  0  0
  188.6280  177.4960  141.2440 C   0  0  0  0  0  3  0  0  0  0  0  0
  192.7630  177.4180  140.1280 C   0  0  0  0  0  2  0  0  0  0  0  0
  193.0780  176.1240  137.8710 N   0  0  0  0  0  0  0  0  0  0  0  0
  192.9370  176.6940  138.8660 C   0  0  0  0  0  0  0  0  0  0  0  0
  186.3040  178.6820  139.8310 N   0  0  0  0  0  2  0  0  0  0  0  0
  185.1250  178.3620  140.6260 C   0  0  0  0  0  2  0  0  0  0  0  0
  183.9350  179.0950  142.8600 C   0  0  1  0  0  3  0  0  0  0  0  0
  186.2980  179.9600  142.3800 C   0  0  0  0  0  1  0  0  0  0  0  0
  182.6840  178.6130  142.1390 C   0  0  0  0  0  1  0  0  0  0  0  0
  184.8470  177.8980  143.1180 C   0  0  1  0  0  3  0  0  0  0  0  0
  185.2180  178.9310  142.0470 C   0  0  2  0  0  0  0  0  0  0  0  0
  187.6490  177.6370  145.6670 C   0  0  0  0  0  0  0  0  0  0  0  0
  188.9650  177.1750  145.7290 C   0  0  0  0  0  3  0  0  0  0  0  0
  189.6860  177.2540  146.9310 C   0  0  0  0  0  0  0  0  0  0  0  0
  189.0790  177.8000  148.0680 C   0  0  0  0  0  3  0  0  0  0  0  0
  185.0080  178.5560  145.5610 C   0  0  0  0  0  3  0  0  0  0  0  0
  187.7610  178.2630  148.0140 C   0  0  0  0  0  3  0  0  0  0  0  0
  187.0410  178.1840  146.8200 C   0  0  0  0  0  0  0  0  0  0  0  0
  185.7210  178.6370  146.7620 C   0  0  0  0  0  3  0  0  0  0  0  0
  185.6140  178.0360  144.4070 C   0  0  0  0  0  0  0  0  0  0  0  0
  186.9310  177.5620  144.4720 C   0  0  0  0  0  3  0  0  0  0  0  0
  191.0700  176.7800  147.0260 C   0  0  0  0  0  3  0  0  0  0  0  0
  191.6670  176.2330  146.0200 N   0  0  0  0  0  2  0  0  0  0  0  0
  1  2  2  0  0  0  0
  1 22  1  0  0  0  0
  2 13  1  0  0  0  0
  3  1  1  0  0  0  0
  4  8  1  0  0  0  0
  5  3  1  0  0  0  0
  5  8  2  0  0  0  0
  6  4  2  0  0  0  0
  7  5  1  0  0  0  0
  9  7  1  0  0  0  0
  9 11  2  0  0  0  0
 10  7  2  0  0  0  0
 10  6  1  0  0  0  0
 11  3  1  0  0  0  0
 12 10  1  0  0  0  0
 13 18  1  0  0  0  0
 15 16  2  0  0  0  0
 16 14  1  0  0  0  0
 17 13  2  0  0  0  0
 17 15  1  0  0  0  0
 18 14  2  0  0  0  0
 19 15  1  0  0  0  0
 20 21  3  0  0  0  0
 21 19  1  0  0  0  0
 22 23  1  0  0  0  0
 23 28  1  0  0  0  0
 24 26  1  6  0  0  0
 24 27  1  0  0  0  0
 27 37  1  1  0  0  0
 28 25  1  1  0  0  0
 28 24  1  0  0  0  0
 28 27  1  0  0  0  0
 29 30  2  0  0  0  0
 29 35  1  0  0  0  0
 30 31  1  0  0  0  0
 31 39  1  0  0  0  0
 31 32  2  0  0  0  0
 33 36  2  0  0  0  0
 34 32  1  0  0  0  0
 35 34  2  0  0  0  0
 36 35  1  0  0  0  0
 37 38  2  0  0  0  0
 37 33  1  0  0  0  0
 38 29  1  0  0  0  0
 40 39  2  0  0  0  0
M  END
>  <MODEL>
9

>  <REMARK>
 VINA RESULT:      -9.0      2.929      6.028
  Name = 
  9 active torsions:
  status: ('A' for Active; 'I' for Inactive)
    1  A    between atoms: C_3  and  N_7
    2  A    between atoms: C_3  and  N_8
    3  A    between atoms: C_4  and  C_16
    4  A    between atoms: C_6  and  C_31
    5  A    between atoms: N_8  and  C_18
    6  A    between atoms: C_18  and  C_30
    7  A    between atoms: C_20  and  C_26
    8  A    between atoms: C_23  and  C_38
    9  A    between atoms: C_26  and  C_33
                            x       y       z     vdW  Elec       q    Type
                         _______ _______ _______ _____ _____    ______ ____

>  <TORSDO>
F 9

$$$$
