=
 OpenBabel10222418253D

 26 29  0  0  1  0  0  0  0  0999 V2000
  189.9400  178.0360  143.7800 C   0  0  0  0  0  2  0  0  0  0  0  0
  188.8980  177.1720  143.1050 C   0  0  1  0  0  3  0  0  0  0  0  0
  187.5310  177.5080  143.6550 C   0  0  0  0  0  0  0  0  0  0  0  0
  188.0910  177.1390  146.1110 C   0  0  0  0  0  3  0  0  0  0  0  0
  191.7370  177.7680  145.2960 O   0  0  0  0  0  1  0  0  0  0  0  0
  189.6740  178.0990  139.0010 C   0  0  0  0  0  2  0  0  0  0  0  0
  186.9080  178.4390  141.4710 C   0  0  0  0  0  3  0  0  0  0  0  0
  188.0510  178.0750  140.9030 C   0  0  0  0  0  0  0  0  0  0  0  0
  189.0000  177.2850  141.6460 N   0  0  0  0  0  0  0  0  0  0  0  0
  186.5950  178.1010  142.8720 C   0  0  0  0  0  0  0  0  0  0  0  0
  190.0760  177.4270  147.3070 O   0  0  0  0  0  0  0  0  0  0  0  0
  189.5580  177.3210  146.1630 C   0  0  0  0  0  0  0  0  0  0  0  0
  187.2440  177.2230  145.0780 C   0  0  0  0  0  3  0  0  0  0  0  0
  188.2390  178.3510  139.4410 C   0  0  0  0  0  2  0  0  0  0  0  0
  190.2260  176.7770  141.0200 C   0  0  0  0  0  2  0  0  0  0  0  0
  190.1250  176.7380  139.4970 C   0  0  2  0  0  3  0  0  0  0  0  0
  190.4740  177.2700  144.9680 C   0  0  1  0  0  3  0  0  0  0  0  0
  185.2370  178.4610  143.3560 C   0  0  0  0  0  0  0  0  0  0  0  0
  181.7830  178.8080  142.0130 N   0  0  0  0  0  1  0  0  0  0  0  0
  183.6940  179.0230  145.1350 C   0  0  0  0  0  3  0  0  0  0  0  0
  184.1590  178.4780  142.4590 C   0  0  0  0  0  3  0  0  0  0  0  0
  182.6720  179.0460  144.2390 N   0  0  0  0  0  0  0  0  0  0  0  0
  182.8770  178.7800  142.9220 C   0  0  0  0  0  0  0  0  0  0  0  0
  184.9910  178.7250  144.7110 C   0  0  0  0  0  3  0  0  0  0  0  0
  191.4780  176.4040  138.8970 C   0  0  0  0  0  2  0  0  0  0  0  0
  191.4030  175.1500  138.1660 N   0  0  0  0  0  1  0  0  0  0  0  0
  1 17  1  0  0  0  0
  2  3  1  0  0  0  0
  2  1  1  1  0  0  0
  3 13  1  0  0  0  0
  4 12  1  0  0  0  0
  6 14  1  0  0  0  0
  6 16  1  0  0  0  0
  7 10  1  0  0  0  0
  8  7  2  0  0  0  0
  8  9  1  0  0  0  0
  9  2  1  0  0  0  0
 10 18  1  0  0  0  0
 10  3  2  0  0  0  0
 12 11  2  0  0  0  0
 13  4  2  0  0  0  0
 14  8  1  0  0  0  0
 15  9  1  0  0  0  0
 16 25  1  6  0  0  0
 16 15  1  0  0  0  0
 17  5  1  1  0  0  0
 17 12  1  0  0  0  0
 18 24  1  0  0  0  0
 19 23  1  0  0  0  0
 21 23  1  0  0  0  0
 21 18  2  0  0  0  0
 22 20  1  0  0  0  0
 23 22  2  0  0  0  0
 24 20  2  0  0  0  0
 26 25  1  0  0  0  0
M  END
>  <MODEL>
1

>  <REMARK>
 VINA RESULT:     -10.2      0.000      0.000
  Name = 
  2 active torsions:
  status: ('A' for Active; 'I' for Inactive)
    1  A    between atoms: C_1  and  C_18
    2  A    between atoms: C_16  and  C_25
                            x       y       z     vdW  Elec       q    Type
                         _______ _______ _______ _____ _____    ______ ____

>  <TORSDO>
F 2

$$$$
=
 OpenBabel10222418253D

 26 29  0  0  1  0  0  0  0  0999 V2000
  187.1900  178.7470  141.4720 C   0  0  0  0  0  2  0  0  0  0  0  0
  186.6350  177.7100  142.4230 C   0  0  1  0  0  3  0  0  0  0  0  0
  187.6290  177.4580  143.5310 C   0  0  0  0  0  0  0  0  0  0  0  0
  189.6110  176.8830  142.0390 C   0  0  0  0  0  3  0  0  0  0  0  0
  187.9780  178.8510  139.2440 O   0  0  0  0  0  1  0  0  0  0  0  0
  182.9120  179.5440  143.4680 C   0  0  0  0  0  2  0  0  0  0  0  0
  186.0730  178.4840  145.1280 C   0  0  0  0  0  3  0  0  0  0  0  0
  185.1190  178.6370  144.2190 C   0  0  0  0  0  0  0  0  0  0  0  0
  185.3010  178.1030  142.8930 N   0  0  0  0  0  0  0  0  0  0  0  0
  187.3520  177.8220  144.8090 C   0  0  0  0  0  0  0  0  0  0  0  0
  190.2070  177.6190  139.9050 O   0  0  0  0  0  0  0  0  0  0  0  0
  189.2810  177.5430  140.7570 C   0  0  0  0  0  0  0  0  0  0  0  0
  188.9360  176.8500  143.1950 C   0  0  0  0  0  3  0  0  0  0  0  0
  183.8040  179.2090  144.6560 C   0  0  0  0  0  2  0  0  0  0  0  0
  184.2300  178.1610  141.8920 C   0  0  0  0  0  2  0  0  0  0  0  0
  182.8550  178.3540  142.5270 C   0  0  2  0  0  3  0  0  0  0  0  0
  187.9070  178.0170  140.3610 C   0  0  1  0  0  3  0  0  0  0  0  0
  188.2900  177.6070  145.9410 C   0  0  0  0  0  0  0  0  0  0  0  0
  191.8530  176.6820  146.4910 N   0  0  0  0  0  1  0  0  0  0  0  0
  188.8170  177.6550  148.3030 C   0  0  0  0  0  3  0  0  0  0  0  0
  189.6180  177.2350  145.6850 C   0  0  0  0  0  3  0  0  0  0  0  0
  190.0930  177.2790  148.0250 N   0  0  0  0  0  0  0  0  0  0  0  0
  190.5080  177.0690  146.7470 C   0  0  0  0  0  0  0  0  0  0  0  0
  187.8960  177.8310  147.2680 C   0  0  0  0  0  3  0  0  0  0  0  0
  181.8180  178.6130  141.4500 C   0  0  0  0  0  2  0  0  0  0  0  0
  180.7120  179.3810  141.9970 N   0  0  0  0  0  1  0  0  0  0  0  0
  2  1  1  6  0  0  0
  2  9  1  0  0  0  0
  2  3  1  0  0  0  0
  3 10  2  0  0  0  0
  4 13  2  0  0  0  0
  6 14  1  0  0  0  0
  8 14  1  0  0  0  0
  8  7  2  0  0  0  0
  9  8  1  0  0  0  0
 10  7  1  0  0  0  0
 10 18  1  0  0  0  0
 11 12  2  0  0  0  0
 12  4  1  0  0  0  0
 13  3  1  0  0  0  0
 15 16  1  0  0  0  0
 15  9  1  0  0  0  0
 16 25  1  6  0  0  0
 16  6  1  0  0  0  0
 17  5  1  6  0  0  0
 17 12  1  0  0  0  0
 17  1  1  0  0  0  0
 18 24  1  0  0  0  0
 19 23  1  0  0  0  0
 21 18  2  0  0  0  0
 21 23  1  0  0  0  0
 22 20  1  0  0  0  0
 23 22  2  0  0  0  0
 24 20  2  0  0  0  0
 25 26  1  0  0  0  0
M  END
>  <MODEL>
2

>  <REMARK>
 VINA RESULT:     -10.0      2.825      6.565
  Name = 
  2 active torsions:
  status: ('A' for Active; 'I' for Inactive)
    1  A    between atoms: C_1  and  C_18
    2  A    between atoms: C_16  and  C_25
                            x       y       z     vdW  Elec       q    Type
                         _______ _______ _______ _____ _____    ______ ____

>  <TORSDO>
F 2

$$$$
=
 OpenBabel10222418253D

 26 29  0  0  1  0  0  0  0  0999 V2000
  188.8810  176.6360  142.7770 C   0  0  0  0  0  2  0  0  0  0  0  0
  188.3660  177.8810  143.4640 C   0  0  1  0  0  3  0  0  0  0  0  0
  186.9980  178.2260  142.9230 C   0  0  0  0  0  0  0  0  0  0  0  0
  187.6550  178.3100  140.4640 C   0  0  0  0  0  3  0  0  0  0  0  0
  190.5880  176.0450  141.2500 O   0  0  0  0  0  1  0  0  0  0  0  0
  188.6380  176.6670  147.5580 C   0  0  0  0  0  2  0  0  0  0  0  0
  186.0220  177.6770  145.1070 C   0  0  0  0  0  3  0  0  0  0  0  0
  187.2050  177.4600  145.6680 C   0  0  0  0  0  0  0  0  0  0  0  0
  188.4100  177.7220  144.9220 N   0  0  0  0  0  0  0  0  0  0  0  0
  185.8960  178.1330  143.7100 C   0  0  0  0  0  0  0  0  0  0  0  0
  189.2700  177.1380  139.2530 O   0  0  0  0  0  0  0  0  0  0  0  0
  188.8660  177.4650  140.4010 C   0  0  0  0  0  0  0  0  0  0  0  0
  186.8710  178.6240  141.5030 C   0  0  0  0  0  3  0  0  0  0  0  0
  187.2490  177.1170  147.1270 C   0  0  0  0  0  2  0  0  0  0  0  0
  189.7340  177.5940  145.5410 C   0  0  0  0  0  2  0  0  0  0  0  0
  189.6700  177.6630  147.0650 C   0  0  2  0  0  3  0  0  0  0  0  0
  189.7050  177.0720  141.5890 C   0  0  1  0  0  3  0  0  0  0  0  0
  184.5250  178.4520  143.2350 C   0  0  0  0  0  0  0  0  0  0  0  0
  182.5180  178.2300  140.1090 N   0  0  0  0  0  1  0  0  0  0  0  0
  182.2560  179.1920  143.6380 C   0  0  0  0  0  3  0  0  0  0  0  0
  184.1740  178.2050  141.9000 C   0  0  0  0  0  3  0  0  0  0  0  0
  181.9490  178.9560  142.3350 N   0  0  0  0  0  0  0  0  0  0  0  0
  182.8750  178.4700  141.4650 C   0  0  0  0  0  0  0  0  0  0  0  0
  183.5450  178.9390  144.1120 C   0  0  0  0  0  3  0  0  0  0  0  0
  191.0250  177.3220  147.6570 C   0  0  0  0  0  2  0  0  0  0  0  0
  191.8730  176.7170  146.6430 N   0  0  0  0  0  1  0  0  0  0  0  0
  2  1  1  6  0  0  0
  2  9  1  0  0  0  0
  3  2  1  0  0  0  0
  3 10  2  0  0  0  0
  4 13  2  0  0  0  0
  7  8  2  0  0  0  0
  8 14  1  0  0  0  0
  9 15  1  0  0  0  0
  9  8  1  0  0  0  0
 10  7  1  0  0  0  0
 11 12  2  0  0  0  0
 12  4  1  0  0  0  0
 12 17  1  0  0  0  0
 13  3  1  0  0  0  0
 14  6  1  0  0  0  0
 15 16  1  0  0  0  0
 16  6  1  0  0  0  0
 16 25  1  1  0  0  0
 17  5  1  6  0  0  0
 17  1  1  0  0  0  0
 18 10  1  0  0  0  0
 18 24  1  0  0  0  0
 19 23  1  0  0  0  0
 20 24  2  0  0  0  0
 21 18  2  0  0  0  0
 22 20  1  0  0  0  0
 23 21  1  0  0  0  0
 23 22  2  0  0  0  0
 26 25  1  0  0  0  0
M  END
>  <MODEL>
3

>  <REMARK>
 VINA RESULT:      -9.8      2.536      4.907
  Name = 
  2 active torsions:
  status: ('A' for Active; 'I' for Inactive)
    1  A    between atoms: C_1  and  C_18
    2  A    between atoms: C_16  and  C_25
                            x       y       z     vdW  Elec       q    Type
                         _______ _______ _______ _____ _____    ______ ____

>  <TORSDO>
F 2

$$$$
=
 OpenBabel10222418253D

 26 29  0  0  1  0  0  0  0  0999 V2000
  190.0610  178.0420  143.3070 C   0  0  0  0  0  2  0  0  0  0  0  0
  189.0760  177.1340  142.6050 C   0  0  1  0  0  3  0  0  0  0  0  0
  187.6800  177.4230  143.1040 C   0  0  0  0  0  0  0  0  0  0  0  0
  188.1680  177.0940  145.5820 C   0  0  0  0  0  3  0  0  0  0  0  0
  191.8140  177.8540  144.8860 O   0  0  0  0  0  1  0  0  0  0  0  0
  189.9590  178.0590  138.5210 C   0  0  0  0  0  2  0  0  0  0  0  0
  187.0980  178.3130  140.8930 C   0  0  0  0  0  3  0  0  0  0  0  0
  188.2730  177.9890  140.3680 C   0  0  0  0  0  0  0  0  0  0  0  0
  189.2250  177.2400  141.1490 N   0  0  0  0  0  0  0  0  0  0  0  0
  186.7490  177.9750  142.2850 C   0  0  0  0  0  0  0  0  0  0  0  0
  190.0980  177.4650  146.8420 O   0  0  0  0  0  0  0  0  0  0  0  0
  189.6240  177.3310  145.6820 C   0  0  0  0  0  0  0  0  0  0  0  0
  187.3540  177.1380  144.5200 C   0  0  0  0  0  3  0  0  0  0  0  0
  188.5010  178.2600  138.9100 C   0  0  0  0  0  2  0  0  0  0  0  0
  190.4900  176.7740  140.5700 C   0  0  0  0  0  2  0  0  0  0  0  0
  190.4430  176.7200  139.0450 C   0  0  2  0  0  3  0  0  0  0  0  0
  190.5820  177.3060  144.5190 C   0  0  1  0  0  3  0  0  0  0  0  0
  185.3630  178.2870  142.7180 C   0  0  0  0  0  0  0  0  0  0  0  0
  183.5150  179.0730  145.8520 N   0  0  0  0  0  1  0  0  0  0  0  0
  183.0380  178.7530  142.2300 C   0  0  0  0  0  3  0  0  0  0  0  0
  185.0920  178.5180  144.0750 C   0  0  0  0  0  3  0  0  0  0  0  0
  182.8030  178.9560  143.5530 N   0  0  0  0  0  0  0  0  0  0  0  0
  183.7960  178.8480  144.4760 C   0  0  0  0  0  0  0  0  0  0  0  0
  184.3220  178.4220  141.7890 C   0  0  0  0  0  3  0  0  0  0  0  0
  191.8280  176.4330  138.4940 C   0  0  0  0  0  2  0  0  0  0  0  0
  191.9110  175.0520  138.0510 N   0  0  0  0  0  1  0  0  0  0  0  0
  1 17  1  0  0  0  0
  2  3  1  0  0  0  0
  2  1  1  1  0  0  0
  3 13  1  0  0  0  0
  4 12  1  0  0  0  0
  6 14  1  0  0  0  0
  6 16  1  0  0  0  0
  7 10  1  0  0  0  0
  8  7  2  0  0  0  0
  8  9  1  0  0  0  0
  9  2  1  0  0  0  0
 10 18  1  0  0  0  0
 10  3  2  0  0  0  0
 12 11  2  0  0  0  0
 13  4  2  0  0  0  0
 14  8  1  0  0  0  0
 15  9  1  0  0  0  0
 16 25  1  6  0  0  0
 16 15  1  0  0  0  0
 17  5  1  1  0  0  0
 17 12  1  0  0  0  0
 18 21  1  0  0  0  0
 20 22  2  0  0  0  0
 21 23  2  0  0  0  0
 22 23  1  0  0  0  0
 23 19  1  0  0  0  0
 24 20  1  0  0  0  0
 24 18  2  0  0  0  0
 26 25  1  0  0  0  0
M  END
>  <MODEL>
4

>  <REMARK>
 VINA RESULT:      -9.6      0.675      1.374
  Name = 
  2 active torsions:
  status: ('A' for Active; 'I' for Inactive)
    1  A    between atoms: C_1  and  C_18
    2  A    between atoms: C_16  and  C_25
                            x       y       z     vdW  Elec       q    Type
                         _______ _______ _______ _____ _____    ______ ____

>  <TORSDO>
F 2

$$$$
=
 OpenBabel10222418253D

 26 29  0  0  1  0  0  0  0  0999 V2000
  186.8220  178.9070  145.3480 C   0  0  0  0  0  2  0  0  0  0  0  0
  187.2580  177.7230  144.5130 C   0  0  1  0  0  3  0  0  0  0  0  0
  186.7910  177.9110  143.0890 C   0  0  0  0  0  0  0  0  0  0  0  0
  184.3240  178.2530  143.6190 C   0  0  0  0  0  3  0  0  0  0  0  0
  185.3050  179.3580  147.1070 O   0  0  0  0  0  1  0  0  0  0  0  0
  191.4730  177.7780  145.2490 C   0  0  0  0  0  2  0  0  0  0  0  0
  189.1280  178.1570  142.3800 C   0  0  0  0  0  3  0  0  0  0  0  0
  189.6030  177.8960  143.5910 C   0  0  0  0  0  0  0  0  0  0  0  0
  188.7020  177.5030  144.6450 N   0  0  0  0  0  0  0  0  0  0  0  0
  187.6830  178.1090  142.0860 C   0  0  0  0  0  0  0  0  0  0  0  0
  183.2540  179.1930  145.4690 O   0  0  0  0  0  0  0  0  0  0  0  0
  184.3330  178.7200  145.0220 C   0  0  0  0  0  0  0  0  0  0  0  0
  185.3380  177.9230  142.8090 C   0  0  0  0  0  3  0  0  0  0  0  0
  191.0910  177.8460  143.7770 C   0  0  0  0  0  2  0  0  0  0  0  0
  189.2000  177.1060  145.9670 C   0  0  0  0  0  2  0  0  0  0  0  0
  190.6680  176.6870  145.9310 C   0  0  2  0  0  3  0  0  0  0  0  0
  185.4910  178.5640  145.9740 C   0  0  1  0  0  3  0  0  0  0  0  0
  187.2870  178.3060  140.6680 C   0  0  0  0  0  0  0  0  0  0  0  0
  188.7950  178.0580  137.2740 N   0  0  0  0  0  1  0  0  0  0  0  0
  185.6220  178.7680  138.9720 C   0  0  0  0  0  3  0  0  0  0  0  0
  188.2260  178.1040  139.6460 C   0  0  0  0  0  3  0  0  0  0  0  0
  186.5590  178.5800  138.0040 N   0  0  0  0  0  0  0  0  0  0  0  0
  187.8420  178.2530  138.3120 C   0  0  0  0  0  0  0  0  0  0  0  0
  185.9670  178.6280  140.3180 C   0  0  0  0  0  3  0  0  0  0  0  0
  191.1850  176.4870  147.3430 C   0  0  0  0  0  2  0  0  0  0  0  0
  192.4300  175.7380  147.3170 N   0  0  0  0  0  1  0  0  0  0  0  0
  1 17  1  0  0  0  0
  2  9  1  0  0  0  0
  2  1  1  1  0  0  0
  3  2  1  0  0  0  0
  4 12  1  0  0  0  0
  6 16  1  0  0  0  0
  7  8  2  0  0  0  0
  8 14  1  0  0  0  0
  8  9  1  0  0  0  0
  9 15  1  0  0  0  0
 10  7  1  0  0  0  0
 10  3  2  0  0  0  0
 12 11  2  0  0  0  0
 12 17  1  0  0  0  0
 13  3  1  0  0  0  0
 13  4  2  0  0  0  0
 14  6  1  0  0  0  0
 16 15  1  0  0  0  0
 16 25  1  1  0  0  0
 17  5  1  1  0  0  0
 18 10  1  0  0  0  0
 19 23  1  0  0  0  0
 20 24  2  0  0  0  0
 21 18  2  0  0  0  0
 22 23  2  0  0  0  0
 22 20  1  0  0  0  0
 23 21  1  0  0  0  0
 24 18  1  0  0  0  0
 26 25  1  0  0  0  0
M  END
>  <MODEL>
5

>  <REMARK>
 VINA RESULT:      -9.2      2.889      5.542
  Name = 
  2 active torsions:
  status: ('A' for Active; 'I' for Inactive)
    1  A    between atoms: C_1  and  C_18
    2  A    between atoms: C_16  and  C_25
                            x       y       z     vdW  Elec       q    Type
                         _______ _______ _______ _____ _____    ______ ____

>  <TORSDO>
F 2

$$$$
=
 OpenBabel10222418253D

 26 29  0  0  1  0  0  0  0  0999 V2000
  184.9890  177.7540  142.0820 C   0  0  0  0  0  2  0  0  0  0  0  0
  186.2130  178.5820  142.4040 C   0  0  1  0  0  3  0  0  0  0  0  0
  186.5380  178.4510  143.8740 C   0  0  0  0  0  0  0  0  0  0  0  0
  184.2560  179.1590  144.7540 C   0  0  0  0  0  3  0  0  0  0  0  0
  182.7390  178.1120  141.4450 O   0  0  0  0  0  1  0  0  0  0  0  0
  189.0030  176.9530  139.5980 C   0  0  0  0  0  2  0  0  0  0  0  0
  188.5900  177.2390  143.2890 C   0  0  0  0  0  3  0  0  0  0  0  0
  188.4120  177.4120  141.9850 C   0  0  0  0  0  0  0  0  0  0  0  0
  187.3240  178.2300  141.5120 N   0  0  0  0  0  0  0  0  0  0  0  0
  187.6670  177.8190  144.2820 C   0  0  0  0  0  0  0  0  0  0  0  0
  182.1090  178.9040  143.8730 O   0  0  0  0  0  0  0  0  0  0  0  0
  183.3440  178.8680  143.6270 C   0  0  0  0  0  0  0  0  0  0  0  0
  185.5780  178.9820  144.8680 C   0  0  0  0  0  3  0  0  0  0  0  0
  189.4620  176.8930  141.0480 C   0  0  0  0  0  2  0  0  0  0  0  0
  187.1570  178.5300  140.0860 C   0  0  0  0  0  2  0  0  0  0  0  0
  188.4500  178.3340  139.2980 C   0  0  2  0  0  3  0  0  0  0  0  0
  183.7810  178.6530  142.2010 C   0  0  1  0  0  3  0  0  0  0  0  0
  188.0380  177.6530  145.7110 C   0  0  0  0  0  0  0  0  0  0  0  0
  191.0550  176.8960  147.7550 N   0  0  0  0  0  1  0  0  0  0  0  0
  187.5000  177.7380  148.0700 C   0  0  0  0  0  3  0  0  0  0  0  0
  189.3610  177.3410  146.0560 C   0  0  0  0  0  3  0  0  0  0  0  0
  188.7860  177.4200  148.3730 N   0  0  0  0  0  0  0  0  0  0  0  0
  189.7160  177.2220  147.4010 C   0  0  0  0  0  0  0  0  0  0  0  0
  187.1050  177.8660  146.7360 C   0  0  0  0  0  3  0  0  0  0  0  0
  188.1750  178.4560  137.8110 C   0  0  0  0  0  2  0  0  0  0  0  0
  188.9290  179.5660  137.2540 N   0  0  0  0  0  1  0  0  0  0  0  0
  1 17  1  0  0  0  0
  2  1  1  6  0  0  0
  2  3  1  0  0  0  0
  3 10  2  0  0  0  0
  3 13  1  0  0  0  0
  4 13  2  0  0  0  0
  6 14  1  0  0  0  0
  7 10  1  0  0  0  0
  8  7  2  0  0  0  0
  9  8  1  0  0  0  0
  9  2  1  0  0  0  0
 10 18  1  0  0  0  0
 12 11  2  0  0  0  0
 12  4  1  0  0  0  0
 14  8  1  0  0  0  0
 15  9  1  0  0  0  0
 16 25  1  6  0  0  0
 16  6  1  0  0  0  0
 16 15  1  0  0  0  0
 17  5  1  6  0  0  0
 17 12  1  0  0  0  0
 18 21  2  0  0  0  0
 18 24  1  0  0  0  0
 20 22  1  0  0  0  0
 21 23  1  0  0  0  0
 23 19  1  0  0  0  0
 23 22  2  0  0  0  0
 24 20  2  0  0  0  0
 26 25  1  0  0  0  0
M  END
>  <MODEL>
6

>  <REMARK>
 VINA RESULT:      -9.1      3.415      5.425
  Name = 
  2 active torsions:
  status: ('A' for Active; 'I' for Inactive)
    1  A    between atoms: C_1  and  C_18
    2  A    between atoms: C_16  and  C_25
                            x       y       z     vdW  Elec       q    Type
                         _______ _______ _______ _____ _____    ______ ____

>  <TORSDO>
F 2

$$$$
=
 OpenBabel10222418253D

 26 29  0  0  1  0  0  0  0  0999 V2000
  188.6300  176.4440  143.2340 C   0  0  0  0  0  2  0  0  0  0  0  0
  188.0900  177.8440  143.4220 C   0  0  1  0  0  3  0  0  0  0  0  0
  187.1040  178.1560  142.3210 C   0  0  0  0  0  0  0  0  0  0  0  0
  188.6550  177.6430  140.3680 C   0  0  0  0  0  3  0  0  0  0  0  0
  190.6780  175.4080  142.6610 O   0  0  0  0  0  1  0  0  0  0  0  0
  186.5850  177.5560  147.4180 C   0  0  0  0  0  2  0  0  0  0  0  0
  185.2950  178.1780  143.9800 C   0  0  0  0  0  3  0  0  0  0  0  0
  186.1250  178.0080  145.0010 C   0  0  0  0  0  0  0  0  0  0  0  0
  187.5480  178.0110  144.7760 N   0  0  0  0  0  0  0  0  0  0  0  0
  185.7840  178.3190  142.5960 C   0  0  0  0  0  0  0  0  0  0  0  0
  190.4090  176.1190  140.1430 O   0  0  0  0  0  0  0  0  0  0  0  0
  189.6530  176.7210  140.9520 C   0  0  0  0  0  0  0  0  0  0  0  0
  187.5920  178.2360  140.9260 C   0  0  0  0  0  3  0  0  0  0  0  0
  185.5540  177.9970  146.3880 C   0  0  0  0  0  2  0  0  0  0  0  0
  188.4980  177.9300  145.8910 C   0  0  0  0  0  2  0  0  0  0  0  0
  187.8680  178.3420  147.2190 C   0  0  2  0  0  3  0  0  0  0  0  0
  189.9020  176.5450  142.4270 C   0  0  1  0  0  3  0  0  0  0  0  0
  184.7660  178.6210  141.5570 C   0  0  0  0  0  0  0  0  0  0  0  0
  181.0670  178.5480  141.1520 N   0  0  0  0  0  1  0  0  0  0  0  0
  184.1420  179.4650  139.3760 C   0  0  0  0  0  3  0  0  0  0  0  0
  183.4060  178.4300  141.8380 C   0  0  0  0  0  3  0  0  0  0  0  0
  182.8320  179.2550  139.6720 N   0  0  0  0  0  0  0  0  0  0  0  0
  182.4470  178.7490  140.8740 C   0  0  0  0  0  0  0  0  0  0  0  0
  185.1300  179.1580  140.3140 C   0  0  0  0  0  3  0  0  0  0  0  0
  188.8230  178.0460  148.3600 C   0  0  0  0  0  2  0  0  0  0  0  0
  190.0490  177.4600  147.8440 N   0  0  0  0  0  1  0  0  0  0  0  0
  2  1  1  6  0  0  0
  2  9  1  0  0  0  0
  3 10  2  0  0  0  0
  3  2  1  0  0  0  0
  4 13  2  0  0  0  0
  4 12  1  0  0  0  0
  7  8  2  0  0  0  0
  8 14  1  0  0  0  0
  9  8  1  0  0  0  0
  9 15  1  0  0  0  0
 10  7  1  0  0  0  0
 11 12  2  0  0  0  0
 12 17  1  0  0  0  0
 13  3  1  0  0  0  0
 14  6  1  0  0  0  0
 15 16  1  0  0  0  0
 16  6  1  0  0  0  0
 16 25  1  1  0  0  0
 17  5  1  6  0  0  0
 17  1  1  0  0  0  0
 18 21  1  0  0  0  0
 18 10  1  0  0  0  0
 20 22  2  0  0  0  0
 20 24  1  0  0  0  0
 22 23  1  0  0  0  0
 23 19  1  0  0  0  0
 23 21  2  0  0  0  0
 24 18  2  0  0  0  0
 26 25  1  0  0  0  0
M  END
>  <MODEL>
7

>  <REMARK>
 VINA RESULT:      -9.0      2.570      5.263
  Name = 
  2 active torsions:
  status: ('A' for Active; 'I' for Inactive)
    1  A    between atoms: C_1  and  C_18
    2  A    between atoms: C_16  and  C_25
                            x       y       z     vdW  Elec       q    Type
                         _______ _______ _______ _____ _____    ______ ____

>  <TORSDO>
F 2

$$$$
=
 OpenBabel10222418253D

 26 29  0  0  1  0  0  0  0  0999 V2000
  188.1870  178.5980  141.6900 C   0  0  0  0  0  2  0  0  0  0  0  0
  187.8040  177.4640  142.6150 C   0  0  1  0  0  3  0  0  0  0  0  0
  189.0300  176.9770  143.3510 C   0  0  0  0  0  0  0  0  0  0  0  0
  190.4560  176.5130  141.2930 C   0  0  0  0  0  3  0  0  0  0  0  0
  188.3450  178.9960  139.3630 O   0  0  0  0  0  1  0  0  0  0  0  0
  184.7250  179.3520  144.9090 C   0  0  0  0  0  2  0  0  0  0  0  0
  188.0870  177.8410  145.4450 C   0  0  0  0  0  3  0  0  0  0  0  0
  186.9430  178.1970  144.8740 C   0  0  0  0  0  0  0  0  0  0  0  0
  186.6990  177.8650  143.4930 N   0  0  0  0  0  0  0  0  0  0  0  0
  189.1520  177.1540  144.6910 C   0  0  0  0  0  0  0  0  0  0  0  0
  190.5240  177.5330  139.1940 O   0  0  0  0  0  0  0  0  0  0  0  0
  189.8630  177.3850  140.2570 C   0  0  0  0  0  0  0  0  0  0  0  0
  190.1220  176.3440  142.5790 C   0  0  0  0  0  3  0  0  0  0  0  0
  185.8650  178.7790  145.7390 C   0  0  0  0  0  2  0  0  0  0  0  0
  185.4080  178.1490  142.8560 C   0  0  0  0  0  2  0  0  0  0  0  0
  184.2860  178.3310  143.8760 C   0  0  2  0  0  3  0  0  0  0  0  0
  188.4920  178.0040  140.3350 C   0  0  1  0  0  3  0  0  0  0  0  0
  190.3340  176.7040  145.4690 C   0  0  0  0  0  0  0  0  0  0  0  0
  191.9380  177.3590  148.7630 N   0  0  0  0  0  1  0  0  0  0  0  0
  192.2580  175.2650  145.7690 C   0  0  0  0  0  3  0  0  0  0  0  0
  190.5850  177.2510  146.7360 C   0  0  0  0  0  3  0  0  0  0  0  0
  192.4840  175.8250  146.9870 N   0  0  0  0  0  0  0  0  0  0  0  0
  191.6750  176.8000  147.4820 C   0  0  0  0  0  0  0  0  0  0  0  0
  191.1770  175.6900  144.9930 C   0  0  0  0  0  3  0  0  0  0  0  0
  183.0290  178.8220  143.1830 C   0  0  0  0  0  2  0  0  0  0  0  0
  183.1230  178.5820  141.7530 N   0  0  0  0  0  1  0  0  0  0  0  0
  2  1  1  1  0  0  0
  2  3  1  0  0  0  0
  2  9  1  0  0  0  0
  3 10  2  0  0  0  0
  4 13  2  0  0  0  0
  6 14  1  0  0  0  0
  8  7  2  0  0  0  0
  8 14  1  0  0  0  0
  9  8  1  0  0  0  0
 10  7  1  0  0  0  0
 10 18  1  0  0  0  0
 11 12  2  0  0  0  0
 12 17  1  0  0  0  0
 12  4  1  0  0  0  0
 13  3  1  0  0  0  0
 15  9  1  0  0  0  0
 15 16  1  0  0  0  0
 16 25  1  6  0  0  0
 16  6  1  0  0  0  0
 17  5  1  6  0  0  0
 17  1  1  0  0  0  0
 18 21  1  0  0  0  0
 20 22  2  0  0  0  0
 21 23  2  0  0  0  0
 22 23  1  0  0  0  0
 23 19  1  0  0  0  0
 24 18  2  0  0  0  0
 24 20  1  0  0  0  0
 26 25  1  0  0  0  0
M  END
>  <MODEL>
8

>  <REMARK>
 VINA RESULT:      -8.9      2.997      6.969
  Name = 
  2 active torsions:
  status: ('A' for Active; 'I' for Inactive)
    1  A    between atoms: C_1  and  C_18
    2  A    between atoms: C_16  and  C_25
                            x       y       z     vdW  Elec       q    Type
                         _______ _______ _______ _____ _____    ______ ____

>  <TORSDO>
F 2

$$$$
=
 OpenBabel10222418253D

 26 29  0  0  1  0  0  0  0  0999 V2000
  188.3480  177.0720  140.8440 C   0  0  0  0  0  2  0  0  0  0  0  0
  187.9190  178.2680  141.6640 C   0  0  1  0  0  3  0  0  0  0  0  0
  186.4330  178.4870  141.4980 C   0  0  0  0  0  0  0  0  0  0  0  0
  186.4270  178.6210  138.9560 C   0  0  0  0  0  3  0  0  0  0  0  0
  189.6510  176.6330  138.9190 O   0  0  0  0  0  1  0  0  0  0  0  0
  189.3380  177.0970  145.5280 C   0  0  0  0  0  2  0  0  0  0  0  0
  186.1020  177.8590  143.8480 C   0  0  0  0  0  3  0  0  0  0  0  0
  187.4030  177.7510  144.0830 C   0  0  0  0  0  0  0  0  0  0  0  0
  188.3490  178.1180  143.0590 N   0  0  0  0  0  0  0  0  0  0  0  0
  185.5820  178.2960  142.5390 C   0  0  0  0  0  0  0  0  0  0  0  0
  187.7740  177.5960  137.3480 O   0  0  0  0  0  0  0  0  0  0  0  0
  187.6510  177.8890  138.5680 C   0  0  0  0  0  0  0  0  0  0  0  0
  185.9110  178.8660  140.1670 C   0  0  0  0  0  3  0  0  0  0  0  0
  187.8510  177.4190  145.4750 C   0  0  0  0  0  2  0  0  0  0  0  0
  189.7940  178.1120  143.3160 C   0  0  0  0  0  2  0  0  0  0  0  0
  190.1170  178.1810  144.8070 C   0  0  2  0  0  3  0  0  0  0  0  0
  188.7980  177.5780  139.4940 C   0  0  1  0  0  3  0  0  0  0  0  0
  184.1130  178.4890  142.4370 C   0  0  0  0  0  0  0  0  0  0  0  0
  181.3790  177.9510  139.9700 N   0  0  0  0  0  1  0  0  0  0  0  0
  181.9760  179.0840  143.4060 C   0  0  0  0  0  3  0  0  0  0  0  0
  183.4450  178.1440  141.2540 C   0  0  0  0  0  3  0  0  0  0  0  0
  181.3580  178.7560  142.2410 N   0  0  0  0  0  0  0  0  0  0  0  0
  182.0590  178.2910  141.1720 C   0  0  0  0  0  0  0  0  0  0  0  0
  183.3610  178.9510  143.5270 C   0  0  0  0  0  3  0  0  0  0  0  0
  191.6030  177.9650  145.0260 C   0  0  0  0  0  2  0  0  0  0  0  0
  191.8140  176.9810  146.0740 N   0  0  0  0  0  1  0  0  0  0  0  0
  2  1  1  6  0  0  0
  2  9  1  0  0  0  0
  3  2  1  0  0  0  0
  3 10  2  0  0  0  0
  4 13  2  0  0  0  0
  7  8  2  0  0  0  0
  8 14  1  0  0  0  0
  9 15  1  0  0  0  0
  9  8  1  0  0  0  0
 10  7  1  0  0  0  0
 11 12  2  0  0  0  0
 12  4  1  0  0  0  0
 12 17  1  0  0  0  0
 13  3  1  0  0  0  0
 14  6  1  0  0  0  0
 15 16  1  0  0  0  0
 16 25  1  6  0  0  0
 16  6  1  0  0  0  0
 17  5  1  6  0  0  0
 17  1  1  0  0  0  0
 18 10  1  0  0  0  0
 18 24  1  0  0  0  0
 19 23  1  0  0  0  0
 20 24  2  0  0  0  0
 21 18  2  0  0  0  0
 22 20  1  0  0  0  0
 23 21  1  0  0  0  0
 23 22  2  0  0  0  0
 25 26  1  0  0  0  0
M  END
>  <MODEL>
9

>  <REMARK>
 VINA RESULT:      -8.4      2.771      4.917
  Name = 
  2 active torsions:
  status: ('A' for Active; 'I' for Inactive)
    1  A    between atoms: C_1  and  C_18
    2  A    between atoms: C_16  and  C_25
                            x       y       z     vdW  Elec       q    Type
                         _______ _______ _______ _____ _____    ______ ____

>  <TORSDO>
F 2

$$$$
