=
 OpenBabel10222420193D

 27 28  0  0  1  0  0  0  0  0999 V2000
  191.7630  176.4320  146.2190 O   0  0  0  0  0  0  0  0  0  0  0  0
  190.5230  178.4720  142.5730 C   0  0  2  0  0  3  0  0  0  0  0  0
  191.4750  177.4100  142.0910 C   0  0  0  0  0  0  0  0  0  0  0  0
  192.1040  176.8070  138.5190 O   0  0  0  0  0  1  0  0  0  0  0  0
  191.2450  178.3780  145.0040 C   0  0  0  0  0  3  0  0  0  0  0  0
  192.1040  177.5970  140.7510 C   0  0  0  0  0  2  0  0  0  0  0  0
  191.3460  176.9120  145.1330 C   0  0  0  0  0  0  0  0  0  0  0  0
  190.9010  179.0580  143.9050 C   0  0  0  0  0  3  0  0  0  0  0  0
  189.2090  177.9870  142.5820 O   0  0  0  0  0  0  0  0  0  0  0  0
  188.6620  178.3760  141.3510 C   0  0  1  0  0  3  0  0  0  0  0  0
  191.6610  176.2630  142.7590 C   0  0  0  0  0  3  0  0  0  0  0  0
  189.9930  177.6660  139.3440 C   0  0  1  0  0  3  0  0  0  0  0  0
  188.8750  177.2790  140.3150 C   0  0  0  0  0  2  0  0  0  0  0  0
  191.2960  176.9010  139.6550 C   0  0  1  0  0  3  0  0  0  0  0  0
  190.9480  175.9660  144.0430 C   0  0  0  0  0  2  0  0  0  0  0  0
  189.5290  177.4790  137.8910 C   0  0  1  0  0  3  0  0  0  0  0  0
  188.6850  176.3720  137.7750 O   0  0  0  0  0  1  0  0  0  0  0  0
  188.8290  178.7220  137.3550 C   0  0  0  0  0  2  0  0  0  0  0  0
  186.5250  178.8470  137.9800 O   0  0  0  0  0  1  0  0  0  0  0  0
  187.3890  178.4180  136.9710 C   0  0  0  0  0  2  0  0  0  0  0  0
  187.1700  178.6260  141.5030 C   0  0  0  0  0  2  0  0  0  0  0  0
  186.6320  177.9570  142.7570 C   0  0  0  0  0  2  0  0  0  0  0  0
  185.4530  178.5820  143.1650 O   0  0  0  0  0  0  0  0  0  0  0  0
  185.3720  178.3250  144.5320 C   0  0  0  0  0  2  0  0  0  0  0  0
  186.6520  177.6630  144.9960 C   0  0  0  0  0  2  0  0  0  0  0  0
  186.8030  177.8410  146.4910 C   0  0  0  0  0  2  0  0  0  0  0  0
  188.2010  177.4300  146.9060 C   0  0  0  0  0  1  0  0  0  0  0  0
  2  9  1  0  0  0  0
  2  8  1  1  0  0  0
  3  2  1  0  0  0  0
  3 11  2  0  0  0  0
  5  7  1  0  0  0  0
  6  3  1  0  0  0  0
  7  1  2  0  0  0  0
  8  5  2  0  0  0  0
 10 21  1  1  0  0  0
 10  9  1  0  0  0  0
 11 15  1  0  0  0  0
 12 16  1  6  0  0  0
 12 14  1  0  0  0  0
 12 13  1  0  0  0  0
 13 10  1  0  0  0  0
 14  4  1  6  0  0  0
 14  6  1  0  0  0  0
 15  7  1  0  0  0  0
 16 17  1  1  0  0  0
 18 16  1  0  0  0  0
 20 18  1  0  0  0  0
 20 19  1  0  0  0  0
 21 22  1  0  0  0  0
 22 23  1  0  0  0  0
 23 24  1  0  0  0  0
 24 25  1  0  0  0  0
 25 26  1  0  0  0  0
 26 27  1  0  0  0  0
M  END
>  <MODEL>
1

>  <REMARK>
 VINA RESULT:      -7.0      0.000      0.000
  Name = 
  9 active torsions:
  status: ('A' for Active; 'I' for Inactive)
    1  A    between atoms: C_3  and  C_27
    2  A    between atoms: O_4  and  C_7
    3  A    between atoms: O_4  and  C_21
    4  A    between atoms: C_7  and  C_27
    5  A    between atoms: C_15  and  C_22
    6  A    between atoms: C_15  and  C_24
    7  A    between atoms: C_16  and  C_17
    8  A    between atoms: C_16  and  C_21
    9  A    between atoms: C_20  and  C_24
                            x       y       z     vdW  Elec       q    Type
                         _______ _______ _______ _____ _____    ______ ____

>  <TORSDO>
F 9

$$$$
=
 OpenBabel10222420193D

 27 28  0  0  1  0  0  0  0  0999 V2000
  191.8570  177.1970  144.4570 O   0  0  0  0  0  0  0  0  0  0  0  0
  187.5930  176.9320  143.5930 C   0  0  2  0  0  3  0  0  0  0  0  0
  187.6480  177.4140  145.0190 C   0  0  0  0  0  0  0  0  0  0  0  0
  184.6260  178.3400  146.8990 O   0  0  0  0  0  1  0  0  0  0  0  0
  189.9950  176.1180  143.5080 C   0  0  0  0  0  3  0  0  0  0  0  0
  186.4360  177.2150  145.8660 C   0  0  0  0  0  2  0  0  0  0  0  0
  190.6220  177.2480  144.2190 C   0  0  0  0  0  0  0  0  0  0  0  0
  188.6920  175.9680  143.2430 C   0  0  0  0  0  3  0  0  0  0  0  0
  187.5630  178.0170  142.7090 O   0  0  0  0  0  0  0  0  0  0  0  0
  186.2040  178.2430  142.4450 C   0  0  1  0  0  3  0  0  0  0  0  0
  188.6820  178.1220  145.4930 C   0  0  0  0  0  3  0  0  0  0  0  0
  184.7810  178.5590  144.4890 C   0  0  1  0  0  3  0  0  0  0  0  0
  185.6430  179.2570  143.4340 C   0  0  0  0  0  2  0  0  0  0  0  0
  185.5270  178.4430  145.8350 C   0  0  1  0  0  3  0  0  0  0  0  0
  189.8660  178.4680  144.6420 C   0  0  0  0  0  2  0  0  0  0  0  0
  183.4220  179.2630  144.6240 C   0  0  1  0  0  3  0  0  0  0  0  0
  183.4560  180.5300  144.0360 O   0  0  0  0  0  1  0  0  0  0  0  0
  182.2940  178.4400  144.0140 C   0  0  0  0  0  2  0  0  0  0  0  0
  180.9160  178.4150  142.0610 O   0  0  0  0  0  1  0  0  0  0  0  0
  181.4990  179.2580  143.0080 C   0  0  0  0  0  2  0  0  0  0  0  0
  186.0330  178.7830  141.0350 C   0  0  0  0  0  2  0  0  0  0  0  0
  184.5750  179.1040  140.7490 C   0  0  0  0  0  2  0  0  0  0  0  0
  184.4650  179.7950  139.5410 O   0  0  0  0  0  0  0  0  0  0  0  0
  184.6340  178.8180  138.5610 C   0  0  0  0  0  2  0  0  0  0  0  0
  183.3090  178.1400  138.2920 C   0  0  0  0  0  2  0  0  0  0  0  0
  183.4680  176.6410  138.4250 C   0  0  0  0  0  2  0  0  0  0  0  0
  182.5520  176.1350  139.5210 C   0  0  0  0  0  1  0  0  0  0  0  0
  2  8  1  6  0  0  0
  2  3  1  0  0  0  0
  3 11  2  0  0  0  0
  3  6  1  0  0  0  0
  5  7  1  0  0  0  0
  7  1  2  0  0  0  0
  7 15  1  0  0  0  0
  8  5  2  0  0  0  0
  9  2  1  0  0  0  0
 10 21  1  6  0  0  0
 10  9  1  0  0  0  0
 10 13  1  0  0  0  0
 12 16  1  1  0  0  0
 12 14  1  0  0  0  0
 13 12  1  0  0  0  0
 14  6  1  0  0  0  0
 14  4  1  1  0  0  0
 15 11  1  0  0  0  0
 16 17  1  6  0  0  0
 18 16  1  0  0  0  0
 19 20  1  0  0  0  0
 20 18  1  0  0  0  0
 22 21  1  0  0  0  0
 23 22  1  0  0  0  0
 24 23  1  0  0  0  0
 25 26  1  0  0  0  0
 25 24  1  0  0  0  0
 26 27  1  0  0  0  0
M  END
>  <MODEL>
2

>  <REMARK>
 VINA RESULT:      -6.9      2.925      6.392
  Name = 
  9 active torsions:
  status: ('A' for Active; 'I' for Inactive)
    1  A    between atoms: C_3  and  C_27
    2  A    between atoms: O_4  and  C_7
    3  A    between atoms: O_4  and  C_21
    4  A    between atoms: C_7  and  C_27
    5  A    between atoms: C_15  and  C_22
    6  A    between atoms: C_15  and  C_24
    7  A    between atoms: C_16  and  C_17
    8  A    between atoms: C_16  and  C_21
    9  A    between atoms: C_20  and  C_24
                            x       y       z     vdW  Elec       q    Type
                         _______ _______ _______ _____ _____    ______ ____

>  <TORSDO>
F 9

$$$$
=
 OpenBabel10222420193D

 27 28  0  0  1  0  0  0  0  0999 V2000
  192.3910  175.3720  143.6310 O   0  0  0  0  0  0  0  0  0  0  0  0
  189.1520  178.2850  143.7550 C   0  0  2  0  0  3  0  0  0  0  0  0
  189.1020  177.7430  142.3520 C   0  0  0  0  0  0  0  0  0  0  0  0
  186.4750  178.7040  139.9640 O   0  0  0  0  0  1  0  0  0  0  0  0
  191.4940  177.4510  144.2660 C   0  0  0  0  0  3  0  0  0  0  0  0
  188.4170  178.5660  141.3130 C   0  0  0  0  0  2  0  0  0  0  0  0
  191.3760  176.1140  143.6530 C   0  0  0  0  0  0  0  0  0  0  0  0
  190.5470  178.3950  144.3060 C   0  0  0  0  0  3  0  0  0  0  0  0
  188.3250  177.5370  144.6020 O   0  0  0  0  0  0  0  0  0  0  0  0
  187.1010  178.2220  144.6240 C   0  0  1  0  0  3  0  0  0  0  0  0
  189.5250  176.5070  142.0490 C   0  0  0  0  0  3  0  0  0  0  0  0
  186.1080  178.6610  142.3600 C   0  0  1  0  0  3  0  0  0  0  0  0
  186.1820  177.6830  143.5350 C   0  0  0  0  0  2  0  0  0  0  0  0
  186.9490  178.1670  141.1650 C   0  0  1  0  0  3  0  0  0  0  0  0
  190.0960  175.5870  143.0840 C   0  0  0  0  0  2  0  0  0  0  0  0
  184.6440  178.9350  141.9820 C   0  0  1  0  0  3  0  0  0  0  0  0
  184.0280  177.7760  141.5030 O   0  0  0  0  0  1  0  0  0  0  0  0
  183.8500  179.4960  143.1550 C   0  0  0  0  0  2  0  0  0  0  0  0
  182.0250  178.6820  144.4660 O   0  0  0  0  0  1  0  0  0  0  0  0
  182.4260  178.9630  143.1590 C   0  0  0  0  0  2  0  0  0  0  0  0
  186.4280  178.0350  145.9740 C   0  0  0  0  0  2  0  0  0  0  0  0
  187.3710  177.3720  146.9640 C   0  0  0  0  0  2  0  0  0  0  0  0
  187.5120  178.1710  148.0990 O   0  0  0  0  0  0  0  0  0  0  0  0
  188.8810  178.1690  148.3630 C   0  0  0  0  0  2  0  0  0  0  0  0
  189.5260  176.9910  147.6650 C   0  0  0  0  0  2  0  0  0  0  0  0
  191.0320  177.1310  147.7180 C   0  0  0  0  0  2  0  0  0  0  0  0
  191.6700  175.7790  147.4750 C   0  0  0  0  0  1  0  0  0  0  0  0
  1  7  2  0  0  0  0
  2  8  1  1  0  0  0
  2  9  1  0  0  0  0
  3  2  1  0  0  0  0
  5  8  2  0  0  0  0
  6  3  1  0  0  0  0
  7  5  1  0  0  0  0
  9 10  1  0  0  0  0
 10 21  1  1  0  0  0
 11  3  2  0  0  0  0
 11 15  1  0  0  0  0
 12 16  1  6  0  0  0
 12 13  1  0  0  0  0
 13 10  1  0  0  0  0
 14  4  1  6  0  0  0
 14  6  1  0  0  0  0
 14 12  1  0  0  0  0
 15  7  1  0  0  0  0
 16 17  1  1  0  0  0
 16 18  1  0  0  0  0
 18 20  1  0  0  0  0
 20 19  1  0  0  0  0
 21 22  1  0  0  0  0
 22 23  1  0  0  0  0
 23 24  1  0  0  0  0
 25 26  1  0  0  0  0
 25 24  1  0  0  0  0
 27 26  1  0  0  0  0
M  END
>  <MODEL>
3

>  <REMARK>
 VINA RESULT:      -6.8      2.422      4.620
  Name = 
  9 active torsions:
  status: ('A' for Active; 'I' for Inactive)
    1  A    between atoms: C_3  and  C_27
    2  A    between atoms: O_4  and  C_7
    3  A    between atoms: O_4  and  C_21
    4  A    between atoms: C_7  and  C_27
    5  A    between atoms: C_15  and  C_22
    6  A    between atoms: C_15  and  C_24
    7  A    between atoms: C_16  and  C_17
    8  A    between atoms: C_16  and  C_21
    9  A    between atoms: C_20  and  C_24
                            x       y       z     vdW  Elec       q    Type
                         _______ _______ _______ _____ _____    ______ ____

>  <TORSDO>
F 9

$$$$
=
 OpenBabel10222420193D

 27 28  0  0  1  0  0  0  0  0999 V2000
  192.0270  177.1390  145.8070 O   0  0  0  0  0  0  0  0  0  0  0  0
  188.8340  176.6810  142.8760 C   0  0  2  0  0  3  0  0  0  0  0  0
  188.1350  177.2210  144.0960 C   0  0  0  0  0  0  0  0  0  0  0  0
  184.5670  178.1090  144.0880 O   0  0  0  0  0  1  0  0  0  0  0  0
  190.9400  175.9540  144.0900 C   0  0  0  0  0  3  0  0  0  0  0  0
  186.6620  177.0120  144.2030 C   0  0  0  0  0  2  0  0  0  0  0  0
  191.0950  177.1340  144.9610 C   0  0  0  0  0  0  0  0  0  0  0  0
  189.9650  175.7460  143.1980 C   0  0  0  0  0  3  0  0  0  0  0  0
  189.2550  177.7280  142.0470 O   0  0  0  0  0  0  0  0  0  0  0  0
  188.2270  177.8930  141.1070 C   0  0  1  0  0  3  0  0  0  0  0  0
  188.7650  177.9860  144.9980 C   0  0  0  0  0  3  0  0  0  0  0  0
  185.9470  178.2370  142.0990 C   0  0  1  0  0  3  0  0  0  0  0  0
  187.2230  178.9240  141.6060 C   0  0  0  0  0  2  0  0  0  0  0  0
  185.8870  178.2040  143.6400 C   0  0  1  0  0  3  0  0  0  0  0  0
  190.2150  178.3410  144.8660 C   0  0  0  0  0  2  0  0  0  0  0  0
  184.7080  178.8950  141.4730 C   0  0  1  0  0  3  0  0  0  0  0  0
  185.0690  179.7320  140.4140 O   0  0  0  0  0  1  0  0  0  0  0  0
  183.6980  177.8600  140.9920 C   0  0  0  0  0  2  0  0  0  0  0  0
  182.0250  178.9850  142.2760 O   0  0  0  0  0  1  0  0  0  0  0  0
  182.2830  178.4160  141.0280 C   0  0  0  0  0  2  0  0  0  0  0  0
  188.8070  178.3690  139.7850 C   0  0  0  0  0  2  0  0  0  0  0  0
  189.5980  177.2620  139.1080 C   0  0  0  0  0  2  0  0  0  0  0  0
  189.3630  177.2780  137.7320 O   0  0  0  0  0  0  0  0  0  0  0  0
  188.1940  176.5360  137.5660 C   0  0  0  0  0  2  0  0  0  0  0  0
  187.3180  177.2030  136.5290 C   0  0  0  0  0  2  0  0  0  0  0  0
  186.3340  178.1290  137.2120 C   0  0  0  0  0  2  0  0  0  0  0  0
  185.0820  177.3540  137.5680 C   0  0  0  0  0  1  0  0  0  0  0  0
  2  8  1  1  0  0  0
  2  3  1  0  0  0  0
  3  6  1  0  0  0  0
  3 11  2  0  0  0  0
  5  7  1  0  0  0  0
  7  1  2  0  0  0  0
  8  5  2  0  0  0  0
  9  2  1  0  0  0  0
 10 21  1  6  0  0  0
 10 13  1  0  0  0  0
 10  9  1  0  0  0  0
 12 16  1  1  0  0  0
 12 14  1  0  0  0  0
 13 12  1  0  0  0  0
 14  4  1  6  0  0  0
 14  6  1  0  0  0  0
 15  7  1  0  0  0  0
 15 11  1  0  0  0  0
 16 17  1  6  0  0  0
 18 20  1  0  0  0  0
 18 16  1  0  0  0  0
 20 19  1  0  0  0  0
 22 21  1  0  0  0  0
 23 22  1  0  0  0  0
 24 23  1  0  0  0  0
 25 26  1  0  0  0  0
 25 24  1  0  0  0  0
 26 27  1  0  0  0  0
M  END
>  <MODEL>
4

>  <REMARK>
 VINA RESULT:      -6.7      1.917      5.631
  Name = 
  9 active torsions:
  status: ('A' for Active; 'I' for Inactive)
    1  A    between atoms: C_3  and  C_27
    2  A    between atoms: O_4  and  C_7
    3  A    between atoms: O_4  and  C_21
    4  A    between atoms: C_7  and  C_27
    5  A    between atoms: C_15  and  C_22
    6  A    between atoms: C_15  and  C_24
    7  A    between atoms: C_16  and  C_17
    8  A    between atoms: C_16  and  C_21
    9  A    between atoms: C_20  and  C_24
                            x       y       z     vdW  Elec       q    Type
                         _______ _______ _______ _____ _____    ______ ____

>  <TORSDO>
F 9

$$$$
=
 OpenBabel10222420193D

 27 28  0  0  1  0  0  0  0  0999 V2000
  191.7830  177.0650  144.4820 O   0  0  0  0  0  0  0  0  0  0  0  0
  187.5380  176.8510  143.5180 C   0  0  2  0  0  3  0  0  0  0  0  0
  187.5650  177.3360  144.9420 C   0  0  0  0  0  0  0  0  0  0  0  0
  184.5120  178.3070  146.7480 O   0  0  0  0  0  1  0  0  0  0  0  0
  189.9310  176.0060  143.4920 C   0  0  0  0  0  3  0  0  0  0  0  0
  186.3310  177.1560  145.7620 C   0  0  0  0  0  2  0  0  0  0  0  0
  190.5550  177.1310  144.2140 C   0  0  0  0  0  0  0  0  0  0  0  0
  188.6330  175.8720  143.1970 C   0  0  0  0  0  3  0  0  0  0  0  0
  187.5420  177.9330  142.6290 O   0  0  0  0  0  0  0  0  0  0  0  0
  186.1930  178.1750  142.3330 C   0  0  1  0  0  3  0  0  0  0  0  0
  188.5960  178.0340  145.4390 C   0  0  0  0  0  3  0  0  0  0  0  0
  184.7260  178.5150  144.3420 C   0  0  1  0  0  3  0  0  0  0  0  0
  185.6210  179.1990  143.3060 C   0  0  0  0  0  2  0  0  0  0  0  0
  185.4390  178.3950  145.7060 C   0  0  1  0  0  3  0  0  0  0  0  0
  189.8040  178.3620  144.6150 C   0  0  0  0  0  2  0  0  0  0  0  0
  183.3730  179.2370  144.4430 C   0  0  1  0  0  3  0  0  0  0  0  0
  183.5040  180.5890  144.1140 O   0  0  0  0  0  1  0  0  0  0  0  0
  182.3180  178.5880  143.5550 C   0  0  0  0  0  2  0  0  0  0  0  0
  180.0970  177.7580  143.8560 O   0  0  0  0  0  1  0  0  0  0  0  0
  180.9160  178.8660  144.0770 C   0  0  0  0  0  2  0  0  0  0  0  0
  186.0620  178.7130  140.9180 C   0  0  0  0  0  2  0  0  0  0  0  0
  187.3720  178.5720  140.1600 C   0  0  0  0  0  2  0  0  0  0  0  0
  187.1320  178.5760  138.7850 O   0  0  0  0  0  0  0  0  0  0  0  0
  188.2750  178.0050  138.2270 C   0  0  0  0  0  2  0  0  0  0  0  0
  188.9230  177.0850  139.2390 C   0  0  0  0  0  2  0  0  0  0  0  0
  190.4180  177.0410  139.0020 C   0  0  0  0  0  2  0  0  0  0  0  0
  191.1390  177.2570  140.3170 C   0  0  0  0  0  1  0  0  0  0  0  0
  2  8  1  6  0  0  0
  2  3  1  0  0  0  0
  3 11  2  0  0  0  0
  3  6  1  0  0  0  0
  5  7  1  0  0  0  0
  7  1  2  0  0  0  0
  7 15  1  0  0  0  0
  8  5  2  0  0  0  0
  9  2  1  0  0  0  0
 10 21  1  6  0  0  0
 10  9  1  0  0  0  0
 10 13  1  0  0  0  0
 12 16  1  1  0  0  0
 12 14  1  0  0  0  0
 13 12  1  0  0  0  0
 14  6  1  0  0  0  0
 14  4  1  1  0  0  0
 15 11  1  0  0  0  0
 16 17  1  6  0  0  0
 18 20  1  0  0  0  0
 18 16  1  0  0  0  0
 19 20  1  0  0  0  0
 22 21  1  0  0  0  0
 23 22  1  0  0  0  0
 24 23  1  0  0  0  0
 24 25  1  0  0  0  0
 26 25  1  0  0  0  0
 26 27  1  0  0  0  0
M  END
>  <MODEL>
5

>  <REMARK>
 VINA RESULT:      -6.7      2.157      6.378
  Name = 
  9 active torsions:
  status: ('A' for Active; 'I' for Inactive)
    1  A    between atoms: C_3  and  C_27
    2  A    between atoms: O_4  and  C_7
    3  A    between atoms: O_4  and  C_21
    4  A    between atoms: C_7  and  C_27
    5  A    between atoms: C_15  and  C_22
    6  A    between atoms: C_15  and  C_24
    7  A    between atoms: C_16  and  C_17
    8  A    between atoms: C_16  and  C_21
    9  A    between atoms: C_20  and  C_24
                            x       y       z     vdW  Elec       q    Type
                         _______ _______ _______ _____ _____    ______ ____

>  <TORSDO>
F 9

$$$$
=
 OpenBabel10222420193D

 27 28  0  0  1  0  0  0  0  0999 V2000
  192.0260  177.2450  145.6750 O   0  0  0  0  0  0  0  0  0  0  0  0
  188.8270  176.7270  142.7610 C   0  0  2  0  0  3  0  0  0  0  0  0
  188.1260  177.2600  143.9820 C   0  0  0  0  0  0  0  0  0  0  0  0
  184.5440  178.0930  143.9880 O   0  0  0  0  0  1  0  0  0  0  0  0
  190.9500  176.0370  143.9680 C   0  0  0  0  0  3  0  0  0  0  0  0
  186.6560  177.0290  144.0970 C   0  0  0  0  0  2  0  0  0  0  0  0
  191.0900  177.2230  144.8340 C   0  0  0  0  0  0  0  0  0  0  0  0
  189.9740  175.8110  143.0800 C   0  0  0  0  0  3  0  0  0  0  0  0
  189.2280  177.7780  141.9270 O   0  0  0  0  0  0  0  0  0  0  0  0
  188.1930  177.9230  140.9900 C   0  0  1  0  0  3  0  0  0  0  0  0
  188.7480  178.0390  144.8790 C   0  0  0  0  0  3  0  0  0  0  0  0
  185.9130  178.2350  141.9920 C   0  0  1  0  0  3  0  0  0  0  0  0
  187.1760  178.9400  141.4910 C   0  0  0  0  0  2  0  0  0  0  0  0
  185.8610  178.2060  143.5340 C   0  0  1  0  0  3  0  0  0  0  0  0
  190.1910  178.4160  144.7390 C   0  0  0  0  0  2  0  0  0  0  0  0
  184.6610  178.8720  141.3690 C   0  0  1  0  0  3  0  0  0  0  0  0
  185.0050  179.7240  140.3170 O   0  0  0  0  0  1  0  0  0  0  0  0
  183.6730  177.8200  140.8820 C   0  0  0  0  0  2  0  0  0  0  0  0
  183.0720  176.7730  138.8180 O   0  0  0  0  0  1  0  0  0  0  0  0
  183.3550  178.0070  139.4060 C   0  0  0  0  0  2  0  0  0  0  0  0
  188.7590  178.4050  139.6640 C   0  0  0  0  0  2  0  0  0  0  0  0
  188.6370  177.3280  138.5990 C   0  0  0  0  0  2  0  0  0  0  0  0
  189.7870  177.3040  137.8080 O   0  0  0  0  0  0  0  0  0  0  0  0
  190.5060  176.2010  138.2640 C   0  0  0  0  0  2  0  0  0  0  0  0
  191.6980  175.9690  137.3620 C   0  0  0  0  0  2  0  0  0  0  0  0
  192.9760  176.2230  138.1320 C   0  0  0  0  0  2  0  0  0  0  0  0
  194.0280  175.2210  137.7010 C   0  0  0  0  0  1  0  0  0  0  0  0
  2  8  1  1  0  0  0
  2  3  1  0  0  0  0
  3  6  1  0  0  0  0
  3 11  2  0  0  0  0
  5  7  1  0  0  0  0
  7  1  2  0  0  0  0
  8  5  2  0  0  0  0
  9  2  1  0  0  0  0
 10 21  1  6  0  0  0
 10 13  1  0  0  0  0
 10  9  1  0  0  0  0
 12 16  1  6  0  0  0
 12 14  1  0  0  0  0
 13 12  1  0  0  0  0
 14  4  1  6  0  0  0
 14  6  1  0  0  0  0
 15  7  1  0  0  0  0
 15 11  1  0  0  0  0
 16 17  1  6  0  0  0
 18 16  1  0  0  0  0
 19 20  1  0  0  0  0
 20 18  1  0  0  0  0
 22 21  1  0  0  0  0
 23 24  1  0  0  0  0
 23 22  1  0  0  0  0
 25 26  1  0  0  0  0
 25 24  1  0  0  0  0
 27 26  1  0  0  0  0
M  END
>  <MODEL>
6

>  <REMARK>
 VINA RESULT:      -6.4      2.115      5.735
  Name = 
  9 active torsions:
  status: ('A' for Active; 'I' for Inactive)
    1  A    between atoms: C_3  and  C_27
    2  A    between atoms: O_4  and  C_7
    3  A    between atoms: O_4  and  C_21
    4  A    between atoms: C_7  and  C_27
    5  A    between atoms: C_15  and  C_22
    6  A    between atoms: C_15  and  C_24
    7  A    between atoms: C_16  and  C_17
    8  A    between atoms: C_16  and  C_21
    9  A    between atoms: C_20  and  C_24
                            x       y       z     vdW  Elec       q    Type
                         _______ _______ _______ _____ _____    ______ ____

>  <TORSDO>
F 9

$$$$
=
 OpenBabel10222420193D

 27 28  0  0  1  0  0  0  0  0999 V2000
  191.7630  176.3570  146.2720 O   0  0  0  0  0  0  0  0  0  0  0  0
  190.5140  178.4020  142.6320 C   0  0  2  0  0  3  0  0  0  0  0  0
  191.4360  177.3170  142.1440 C   0  0  0  0  0  0  0  0  0  0  0  0
  192.0010  176.6790  138.5660 O   0  0  0  0  0  1  0  0  0  0  0  0
  191.2690  178.3060  145.0530 C   0  0  0  0  0  3  0  0  0  0  0  0
  192.0490  177.4820  140.7930 C   0  0  0  0  0  2  0  0  0  0  0  0
  191.3410  176.8390  145.1890 C   0  0  0  0  0  0  0  0  0  0  0  0
  190.9230  178.9870  143.9550 C   0  0  0  0  0  3  0  0  0  0  0  0
  189.1900  177.9450  142.6630 O   0  0  0  0  0  0  0  0  0  0  0  0
  188.6330  178.3370  141.4370 C   0  0  1  0  0  3  0  0  0  0  0  0
  191.6070  176.1700  142.8160 C   0  0  0  0  0  3  0  0  0  0  0  0
  189.9200  177.5880  139.4160 C   0  0  1  0  0  3  0  0  0  0  0  0
  188.8090  177.2300  140.4060 C   0  0  0  0  0  2  0  0  0  0  0  0
  191.2120  176.7970  139.7140 C   0  0  1  0  0  3  0  0  0  0  0  0
  190.9070  175.8960  144.1120 C   0  0  0  0  0  2  0  0  0  0  0  0
  189.4320  177.4020  137.9710 C   0  0  1  0  0  3  0  0  0  0  0  0
  188.3770  176.4880  137.9150 O   0  0  0  0  0  1  0  0  0  0  0  0
  189.0050  178.7230  137.3430 C   0  0  0  0  0  2  0  0  0  0  0  0
  186.6840  178.6550  137.9090 O   0  0  0  0  0  1  0  0  0  0  0  0
  187.5740  178.6520  136.8330 C   0  0  0  0  0  2  0  0  0  0  0  0
  187.1500  178.6200  141.6090 C   0  0  0  0  0  2  0  0  0  0  0  0
  186.5850  177.8550  142.7950 C   0  0  0  0  0  2  0  0  0  0  0  0
  185.1900  177.9030  142.7760 O   0  0  0  0  0  0  0  0  0  0  0  0
  184.8860  179.2630  142.7360 C   0  0  0  0  0  2  0  0  0  0  0  0
  184.1940  179.6620  144.0210 C   0  0  0  0  0  2  0  0  0  0  0  0
  183.0970  178.6670  144.3370 C   0  0  0  0  0  2  0  0  0  0  0  0
  181.8630  179.0070  143.5270 C   0  0  0  0  0  1  0  0  0  0  0  0
  2  9  1  0  0  0  0
  2  8  1  1  0  0  0
  3  2  1  0  0  0  0
  3 11  2  0  0  0  0
  5  7  1  0  0  0  0
  6  3  1  0  0  0  0
  7  1  2  0  0  0  0
  8  5  2  0  0  0  0
 10 21  1  1  0  0  0
 10  9  1  0  0  0  0
 11 15  1  0  0  0  0
 12 16  1  6  0  0  0
 12 14  1  0  0  0  0
 12 13  1  0  0  0  0
 13 10  1  0  0  0  0
 14  4  1  6  0  0  0
 14  6  1  0  0  0  0
 15  7  1  0  0  0  0
 16 17  1  1  0  0  0
 18 16  1  0  0  0  0
 20 18  1  0  0  0  0
 20 19  1  0  0  0  0
 21 22  1  0  0  0  0
 23 22  1  0  0  0  0
 24 23  1  0  0  0  0
 24 25  1  0  0  0  0
 25 26  1  0  0  0  0
 27 26  1  0  0  0  0
M  END
>  <MODEL>
7

>  <REMARK>
 VINA RESULT:      -6.3      1.162      1.823
  Name = 
  9 active torsions:
  status: ('A' for Active; 'I' for Inactive)
    1  A    between atoms: C_3  and  C_27
    2  A    between atoms: O_4  and  C_7
    3  A    between atoms: O_4  and  C_21
    4  A    between atoms: C_7  and  C_27
    5  A    between atoms: C_15  and  C_22
    6  A    between atoms: C_15  and  C_24
    7  A    between atoms: C_16  and  C_17
    8  A    between atoms: C_16  and  C_21
    9  A    between atoms: C_20  and  C_24
                            x       y       z     vdW  Elec       q    Type
                         _______ _______ _______ _____ _____    ______ ____

>  <TORSDO>
F 9

$$$$
=
 OpenBabel10222420193D

 27 28  0  0  1  0  0  0  0  0999 V2000
  185.8530  179.3480  147.6770 O   0  0  0  0  0  0  0  0  0  0  0  0
  185.8870  177.7430  143.6260 C   0  0  2  0  0  3  0  0  0  0  0  0
  184.5180  178.3530  143.7650 C   0  0  0  0  0  0  0  0  0  0  0  0
  182.1400  178.5120  140.9650 O   0  0  0  0  0  1  0  0  0  0  0  0
  186.3910  177.6770  146.1120 C   0  0  0  0  0  3  0  0  0  0  0  0
  183.4490  177.8840  142.8350 C   0  0  0  0  0  2  0  0  0  0  0  0
  185.8570  179.0060  146.4670 C   0  0  0  0  0  0  0  0  0  0  0  0
  186.3990  177.1210  144.8950 C   0  0  0  0  0  3  0  0  0  0  0  0
  186.7920  178.6790  143.1130 O   0  0  0  0  0  0  0  0  0  0  0  0
  186.8040  178.4640  141.7270 C   0  0  1  0  0  3  0  0  0  0  0  0
  184.2750  179.3800  144.5920 C   0  0  0  0  0  3  0  0  0  0  0  0
  184.5420  178.5350  140.6390 C   0  0  1  0  0  3  0  0  0  0  0  0
  185.7680  179.3540  141.0520 C   0  0  0  0  0  2  0  0  0  0  0  0
  183.3570  178.7770  141.5980 C   0  0  1  0  0  3  0  0  0  0  0  0
  185.3470  179.9790  145.4510 C   0  0  0  0  0  2  0  0  0  0  0  0
  184.1820  178.8120  139.1710 C   0  0  1  0  0  3  0  0  0  0  0  0
  184.5430  180.1110  138.8060 O   0  0  0  0  0  1  0  0  0  0  0  0
  184.8350  177.8090  138.2290 C   0  0  0  0  0  2  0  0  0  0  0  0
  187.1040  177.1890  137.7990 O   0  0  0  0  0  1  0  0  0  0  0  0
  186.2230  178.2720  137.8110 C   0  0  0  0  0  2  0  0  0  0  0  0
  188.1770  178.7900  141.1630 C   0  0  0  0  0  2  0  0  0  0  0  0
  188.9630  177.5210  140.8770 C   0  0  0  0  0  2  0  0  0  0  0  0
  188.9120  176.6680  141.9800 O   0  0  0  0  0  0  0  0  0  0  0  0
  190.1170  176.8810  142.6470 C   0  0  0  0  0  2  0  0  0  0  0  0
  189.8970  176.7520  144.1380 C   0  0  0  0  0  2  0  0  0  0  0  0
  189.9640  178.1200  144.7820 C   0  0  0  0  0  2  0  0  0  0  0  0
  190.8370  179.0280  143.9400 C   0  0  0  0  0  1  0  0  0  0  0  0
  2  3  1  0  0  0  0
  2  8  1  1  0  0  0
  3 11  2  0  0  0  0
  5  7  1  0  0  0  0
  6  3  1  0  0  0  0
  7  1  2  0  0  0  0
  8  5  2  0  0  0  0
  9  2  1  0  0  0  0
 10 21  1  6  0  0  0
 10  9  1  0  0  0  0
 11 15  1  0  0  0  0
 12 16  1  6  0  0  0
 12 13  1  0  0  0  0
 12 14  1  0  0  0  0
 13 10  1  0  0  0  0
 14  4  1  6  0  0  0
 14  6  1  0  0  0  0
 15  7  1  0  0  0  0
 16 17  1  6  0  0  0
 18 16  1  0  0  0  0
 19 20  1  0  0  0  0
 20 18  1  0  0  0  0
 22 21  1  0  0  0  0
 22 23  1  0  0  0  0
 23 24  1  0  0  0  0
 24 25  1  0  0  0  0
 25 26  1  0  0  0  0
 27 26  1  0  0  0  0
M  END
>  <MODEL>
8

>  <REMARK>
 VINA RESULT:      -6.1      2.140      5.528
  Name = 
  9 active torsions:
  status: ('A' for Active; 'I' for Inactive)
    1  A    between atoms: C_3  and  C_27
    2  A    between atoms: O_4  and  C_7
    3  A    between atoms: O_4  and  C_21
    4  A    between atoms: C_7  and  C_27
    5  A    between atoms: C_15  and  C_22
    6  A    between atoms: C_15  and  C_24
    7  A    between atoms: C_16  and  C_17
    8  A    between atoms: C_16  and  C_21
    9  A    between atoms: C_20  and  C_24
                            x       y       z     vdW  Elec       q    Type
                         _______ _______ _______ _____ _____    ______ ____

>  <TORSDO>
F 9

$$$$
=
 OpenBabel10222420193D

 27 28  0  0  1  0  0  0  0  0999 V2000
  192.6390  177.5470  141.9780 O   0  0  0  0  0  0  0  0  0  0  0  0
  188.7830  176.6050  143.7770 C   0  0  2  0  0  3  0  0  0  0  0  0
  189.5530  177.2660  144.8890 C   0  0  0  0  0  0  0  0  0  0  0  0
  188.0410  178.0080  148.1580 O   0  0  0  0  0  1  0  0  0  0  0  0
  190.8040  176.1160  142.3230 C   0  0  0  0  0  3  0  0  0  0  0  0
  189.1040  177.0150  146.2900 C   0  0  0  0  0  2  0  0  0  0  0  0
  191.5060  177.4010  142.5050 C   0  0  0  0  0  0  0  0  0  0  0  0
  189.6380  175.7610  142.8740 C   0  0  0  0  0  3  0  0  0  0  0  0
  188.0550  177.5550  143.0510 O   0  0  0  0  0  0  0  0  0  0  0  0
  186.7760  177.5620  143.6270 C   0  0  1  0  0  3  0  0  0  0  0  0
  190.5220  178.1610  144.6520 C   0  0  0  0  0  3  0  0  0  0  0  0
  186.7480  177.9390  146.1080 C   0  0  1  0  0  3  0  0  0  0  0  0
  186.7060  178.6080  144.7320 C   0  0  0  0  0  2  0  0  0  0  0  0
  188.1350  178.0970  146.7660 C   0  0  1  0  0  3  0  0  0  0  0  0
  190.9190  178.5520  143.2610 C   0  0  0  0  0  2  0  0  0  0  0  0
  185.6090  178.4660  146.9950 C   0  0  1  0  0  3  0  0  0  0  0  0
  185.7280  179.8440  147.1940 O   0  0  0  0  0  1  0  0  0  0  0  0
  184.2400  178.1450  146.4090 C   0  0  0  0  0  2  0  0  0  0  0  0
  182.9300  178.7210  144.4950 O   0  0  0  0  0  1  0  0  0  0  0  0
  183.7680  179.2510  145.4780 C   0  0  0  0  0  2  0  0  0  0  0  0
  185.7340  177.8910  142.5700 C   0  0  0  0  0  2  0  0  0  0  0  0
  185.7120  179.3820  142.2750 C   0  0  0  0  0  2  0  0  0  0  0  0
  185.3220  179.6030  140.9530 O   0  0  0  0  0  0  0  0  0  0  0  0
  184.1980  178.7990  140.7790 C   0  0  0  0  0  2  0  0  0  0  0  0
  183.5930  179.0670  139.4180 C   0  0  0  0  0  2  0  0  0  0  0  0
  182.1590  179.5260  139.5800 C   0  0  0  0  0  2  0  0  0  0  0  0
  181.8460  180.5710  138.5300 C   0  0  0  0  0  1  0  0  0  0  0  0
  1  7  2  0  0  0  0
  2  8  1  6  0  0  0
  2  3  1  0  0  0  0
  3  6  1  0  0  0  0
  5  7  1  0  0  0  0
  5  8  2  0  0  0  0
  6 14  1  0  0  0  0
  7 15  1  0  0  0  0
  9 10  1  0  0  0  0
  9  2  1  0  0  0  0
 10 21  1  6  0  0  0
 10 13  1  0  0  0  0
 11  3  2  0  0  0  0
 12 14  1  0  0  0  0
 12 16  1  1  0  0  0
 13 12  1  0  0  0  0
 14  4  1  1  0  0  0
 15 11  1  0  0  0  0
 16 17  1  6  0  0  0
 18 16  1  0  0  0  0
 19 20  1  0  0  0  0
 20 18  1  0  0  0  0
 22 21  1  0  0  0  0
 23 22  1  0  0  0  0
 24 23  1  0  0  0  0
 25 26  1  0  0  0  0
 25 24  1  0  0  0  0
 27 26  1  0  0  0  0
M  END
>  <MODEL>
9

>  <REMARK>
 VINA RESULT:      -6.1      2.817      6.418
  Name = 
  9 active torsions:
  status: ('A' for Active; 'I' for Inactive)
    1  A    between atoms: C_3  and  C_27
    2  A    between atoms: O_4  and  C_7
    3  A    between atoms: O_4  and  C_21
    4  A    between atoms: C_7  and  C_27
    5  A    between atoms: C_15  and  C_22
    6  A    between atoms: C_15  and  C_24
    7  A    between atoms: C_16  and  C_17
    8  A    between atoms: C_16  and  C_21
    9  A    between atoms: C_20  and  C_24
                            x       y       z     vdW  Elec       q    Type
                         _______ _______ _______ _____ _____    ______ ____

>  <TORSDO>
F 9

$$$$
