=
 OpenBabel10222418263D

 26 29  0  0  1  0  0  0  0  0999 V2000
  182.9610  179.2950  144.3990 C   0  0  0  0  0  2  0  0  0  0  0  0
  185.6670  180.0130  143.7710 F   0  0  0  0  0  0  0  0  0  0  0  0
  187.5040  177.6600  145.5090 C   0  0  2  0  0  3  0  0  0  0  0  0
  185.5180  178.6460  143.5550 C   0  0  2  0  0  0  0  0  0  0  0  0
  183.0300  178.8460  142.9340 C   0  0  0  0  0  2  0  0  0  0  0  0
  184.4330  178.3970  142.4950 C   0  0  1  0  0  3  0  0  0  0  0  0
  184.8210  179.0230  141.1580 C   0  0  0  0  0  2  0  0  0  0  0  0
  185.1010  177.9500  144.8570 C   0  0  1  0  0  3  0  0  0  0  0  0
  187.9520  178.2140  144.1360 C   0  0  2  0  0  3  0  0  0  0  0  0
  186.1340  178.2000  145.9440 C   0  0  0  0  0  2  0  0  0  0  0  0
  187.2490  178.7000  141.7380 C   0  0  0  0  0  2  0  0  0  0  0  0
  186.1620  178.4620  140.6890 C   0  0  0  0  0  2  0  0  0  0  0  0
  186.8490  178.0540  143.0700 C   0  0  2  0  0  3  0  0  0  0  0  0
  183.6870  178.3220  145.3350 C   0  0  0  0  0  2  0  0  0  0  0  0
  190.4910  175.6280  142.9770 C   0  0  0  0  0  3  0  0  0  0  0  0
  191.5830  177.7270  143.1770 C   0  0  0  0  0  3  0  0  0  0  0  0
  189.2310  177.5610  143.6890 C   0  0  0  0  0  0  0  0  0  0  0  0
  191.6070  176.3990  142.8830 N   0  0  0  0  0  0  0  0  0  0  0  0
  189.2810  176.1950  143.3830 C   0  0  0  0  0  3  0  0  0  0  0  0
  190.3920  178.3330  143.5850 C   0  0  0  0  0  3  0  0  0  0  0  0
  188.5650  177.8940  146.5960 C   0  0  1  0  0  3  0  0  0  0  0  0
  187.9710  178.5150  147.8550 C   0  0  0  0  0  2  0  0  0  0  0  0
  187.8410  177.5070  148.8920 N   0  0  0  0  0  1  0  0  0  0  0  0
  189.2130  176.6950  146.9050 O   0  0  0  0  0  0  0  0  0  0  0  0
  191.3830  176.2690  146.3590 O   0  0  0  0  0  1  0  0  0  0  0  0
  190.5410  177.0560  147.1420 C   0  0  0  0  0  2  0  0  0  0  0  0
  1 14  1  0  0  0  0
  3 10  1  0  0  0  0
  3 21  1  1  0  0  0
  4  2  1  1  0  0  0
  4  8  1  0  0  0  0
  5  1  1  0  0  0  0
  6  7  1  6  0  0  0
  6  5  1  0  0  0  0
  6  4  1  0  0  0  0
  8 14  1  1  0  0  0
  8 10  1  0  0  0  0
  9 17  1  6  0  0  0
  9  3  1  0  0  0  0
 12  7  1  0  0  0  0
 12 11  1  0  0  0  0
 13 11  1  6  0  0  0
 13  4  1  0  0  0  0
 13  9  1  0  0  0  0
 15 19  1  0  0  0  0
 16 20  2  0  0  0  0
 18 15  2  0  0  0  0
 18 16  1  0  0  0  0
 19 17  2  0  0  0  0
 20 17  1  0  0  0  0
 21 24  1  0  0  0  0
 21 22  1  1  0  0  0
 22 23  1  0  0  0  0
 24 26  1  0  0  0  0
 25 26  1  0  0  0  0
M  END
>  <MODEL>
1

>  <REMARK>
 VINA RESULT:      -8.1      0.000      0.000
  Name = 
  5 active torsions:
  status: ('A' for Active; 'I' for Inactive)
    1  A    between atoms: C_4  and  C_18
    2  A    between atoms: C_7  and  C_18
    3  A    between atoms: C_13  and  C_14
    4  A    between atoms: C_18  and  O_22
    5  A    between atoms: C_21  and  O_22
                            x       y       z     vdW  Elec       q    Type
                         _______ _______ _______ _____ _____    ______ ____

>  <TORSDO>
F 5

$$$$
=
 OpenBabel10222418263D

 26 29  0  0  1  0  0  0  0  0999 V2000
  183.0930  178.8480  142.8870 C   0  0  0  0  0  2  0  0  0  0  0  0
  185.2000  176.9960  143.4890 F   0  0  0  0  0  0  0  0  0  0  0  0
  187.8580  178.2480  141.6720 C   0  0  2  0  0  3  0  0  0  0  0  0
  185.6870  178.2860  143.6780 C   0  0  2  0  0  0  0  0  0  0  0  0
  183.3910  179.2350  144.3410 C   0  0  0  0  0  2  0  0  0  0  0  0
  184.8560  179.0100  144.7490 C   0  0  1  0  0  3  0  0  0  0  0  0
  184.9510  178.2920  146.0930 C   0  0  0  0  0  2  0  0  0  0  0  0
  185.5980  179.0790  142.3680 C   0  0  1  0  0  3  0  0  0  0  0  0
  188.0420  177.5680  143.0500 C   0  0  2  0  0  3  0  0  0  0  0  0
  186.3820  178.3770  141.2710 C   0  0  0  0  0  2  0  0  0  0  0  0
  187.2510  177.4800  145.4690 C   0  0  0  0  0  2  0  0  0  0  0  0
  186.4130  178.1950  146.5290 C   0  0  0  0  0  2  0  0  0  0  0  0
  187.1540  178.2200  144.1290 C   0  0  2  0  0  3  0  0  0  0  0  0
  184.1570  179.3780  141.9200 C   0  0  0  0  0  2  0  0  0  0  0  0
  191.5350  176.4450  144.0540 C   0  0  0  0  0  3  0  0  0  0  0  0
  191.4740  178.8190  144.0460 C   0  0  0  0  0  3  0  0  0  0  0  0
  189.4870  177.5800  143.4630 C   0  0  0  0  0  0  0  0  0  0  0  0
  192.1410  177.6490  144.2350 N   0  0  0  0  0  0  0  0  0  0  0  0
  190.1950  176.3880  143.6650 C   0  0  0  0  0  3  0  0  0  0  0  0
  190.1320  178.8050  143.6560 C   0  0  0  0  0  3  0  0  0  0  0  0
  188.6750  177.5470  140.5750 C   0  0  1  0  0  3  0  0  0  0  0  0
  187.9300  177.5030  139.2450 C   0  0  0  0  0  2  0  0  0  0  0  0
  188.3210  178.6320  138.4200 N   0  0  0  0  0  1  0  0  0  0  0  0
  189.9130  178.1760  140.4180 O   0  0  0  0  0  0  0  0  0  0  0  0
  192.0730  177.5030  140.6810 O   0  0  0  0  0  1  0  0  0  0  0  0
  190.8180  177.1370  140.1980 C   0  0  0  0  0  2  0  0  0  0  0  0
  1  5  1  0  0  0  0
  3 21  1  6  0  0  0
  3  9  1  0  0  0  0
  4  2  1  6  0  0  0
  4 13  1  0  0  0  0
  4  6  1  0  0  0  0
  6  5  1  6  0  0  0
  6  7  1  0  0  0  0
  7 12  1  0  0  0  0
  8 10  1  6  0  0  0
  8  4  1  0  0  0  0
  9 17  1  1  0  0  0
  9 13  1  0  0  0  0
 10  3  1  0  0  0  0
 11 12  1  0  0  0  0
 13 11  1  1  0  0  0
 14  8  1  0  0  0  0
 14  1  1  0  0  0  0
 15 18  1  0  0  0  0
 16 18  2  0  0  0  0
 17 20  2  0  0  0  0
 17 19  1  0  0  0  0
 19 15  2  0  0  0  0
 20 16  1  0  0  0  0
 21 22  1  6  0  0  0
 23 22  1  0  0  0  0
 24 21  1  0  0  0  0
 26 24  1  0  0  0  0
 26 25  1  0  0  0  0
M  END
>  <MODEL>
2

>  <REMARK>
 VINA RESULT:      -7.4      2.515      4.451
  Name = 
  5 active torsions:
  status: ('A' for Active; 'I' for Inactive)
    1  A    between atoms: C_4  and  C_18
    2  A    between atoms: C_7  and  C_18
    3  A    between atoms: C_13  and  C_14
    4  A    between atoms: C_18  and  O_22
    5  A    between atoms: C_21  and  O_22
                            x       y       z     vdW  Elec       q    Type
                         _______ _______ _______ _____ _____    ______ ____

>  <TORSDO>
F 5

$$$$
=
 OpenBabel10222418263D

 26 29  0  0  1  0  0  0  0  0999 V2000
  189.6560  177.1730  145.2580 C   0  0  0  0  0  2  0  0  0  0  0  0
  189.3160  178.8390  142.9480 F   0  0  0  0  0  0  0  0  0  0  0  0
  190.5180  176.8520  140.3910 C   0  0  2  0  0  3  0  0  0  0  0  0
  188.7780  177.5870  142.6640 C   0  0  2  0  0  0  0  0  0  0  0  0
  188.1310  177.1270  145.1100 C   0  0  0  0  0  2  0  0  0  0  0  0
  187.6510  177.2630  143.6560 C   0  0  1  0  0  3  0  0  0  0  0  0
  186.5140  178.2760  143.5420 C   0  0  0  0  0  2  0  0  0  0  0  0
  189.8640  176.5090  142.7860 C   0  0  1  0  0  3  0  0  0  0  0  0
  189.3320  177.8260  140.1970 C   0  0  2  0  0  3  0  0  0  0  0  0
  191.0170  176.8120  141.8410 C   0  0  0  0  0  2  0  0  0  0  0  0
  187.0910  178.6130  141.1150 C   0  0  0  0  0  2  0  0  0  0  0  0
  185.9760  178.2960  142.1120 C   0  0  0  0  0  2  0  0  0  0  0  0
  188.2180  177.5800  141.2350 C   0  0  2  0  0  3  0  0  0  0  0  0
  190.3630  176.2900  144.2240 C   0  0  0  0  0  2  0  0  0  0  0  0
  187.6700  176.5370  137.0270 C   0  0  0  0  0  3  0  0  0  0  0  0
  188.4420  178.7480  136.6340 C   0  0  0  0  0  3  0  0  0  0  0  0
  188.7910  177.7380  138.7960 C   0  0  0  0  0  0  0  0  0  0  0  0
  187.8240  177.6130  136.2090 N   0  0  0  0  0  0  0  0  0  0  0  0
  188.1520  176.5790  138.3370 C   0  0  0  0  0  3  0  0  0  0  0  0
  188.9380  178.8300  137.9370 C   0  0  0  0  0  3  0  0  0  0  0  0
  191.6680  177.1490  139.4150 C   0  0  1  0  0  3  0  0  0  0  0  0
  192.9230  177.6310  140.1350 C   0  0  0  0  0  2  0  0  0  0  0  0
  194.0550  176.8010  139.7660 N   0  0  0  0  0  1  0  0  0  0  0  0
  191.9540  176.0170  138.6460 O   0  0  0  0  0  0  0  0  0  0  0  0
  191.0280  175.4020  136.6580 O   0  0  0  0  0  1  0  0  0  0  0  0
  191.7180  176.4100  137.3280 C   0  0  0  0  0  2  0  0  0  0  0  0
  3 21  1  6  0  0  0
  3 10  1  0  0  0  0
  4  8  1  0  0  0  0
  4  2  1  1  0  0  0
  4  6  1  0  0  0  0
  5  1  1  0  0  0  0
  6  7  1  1  0  0  0
  6  5  1  0  0  0  0
  8 10  1  6  0  0  0
  8 14  1  0  0  0  0
  9 17  1  6  0  0  0
  9  3  1  0  0  0  0
  9 13  1  0  0  0  0
 11 12  1  0  0  0  0
 12  7  1  0  0  0  0
 13 11  1  1  0  0  0
 13  4  1  0  0  0  0
 14  1  1  0  0  0  0
 15 19  1  0  0  0  0
 16 20  2  0  0  0  0
 18 16  1  0  0  0  0
 18 15  2  0  0  0  0
 19 17  2  0  0  0  0
 20 17  1  0  0  0  0
 21 22  1  1  0  0  0
 23 22  1  0  0  0  0
 24 21  1  0  0  0  0
 25 26  1  0  0  0  0
 26 24  1  0  0  0  0
M  END
>  <MODEL>
3

>  <REMARK>
 VINA RESULT:      -6.9      4.014      6.501
  Name = 
  5 active torsions:
  status: ('A' for Active; 'I' for Inactive)
    1  A    between atoms: C_4  and  C_18
    2  A    between atoms: C_7  and  C_18
    3  A    between atoms: C_13  and  C_14
    4  A    between atoms: C_18  and  O_22
    5  A    between atoms: C_21  and  O_22
                            x       y       z     vdW  Elec       q    Type
                         _______ _______ _______ _____ _____    ______ ____

>  <TORSDO>
F 5

$$$$
=
 OpenBabel10222418263D

 26 29  0  0  1  0  0  0  0  0999 V2000
  183.1130  178.7280  143.1840 C   0  0  0  0  0  2  0  0  0  0  0  0
  185.3310  177.0280  143.8380 F   0  0  0  0  0  0  0  0  0  0  0  0
  187.9480  178.5000  142.1300 C   0  0  2  0  0  3  0  0  0  0  0  0
  185.7140  178.3480  144.0590 C   0  0  2  0  0  0  0  0  0  0  0  0
  183.3310  179.1150  144.6520 C   0  0  0  0  0  2  0  0  0  0  0  0
  184.7940  178.9930  145.1080 C   0  0  1  0  0  3  0  0  0  0  0  0
  184.8970  178.2650  146.4460 C   0  0  0  0  0  2  0  0  0  0  0  0
  185.6100  179.1510  142.7560 C   0  0  1  0  0  3  0  0  0  0  0  0
  188.1350  177.8160  143.5050 C   0  0  2  0  0  3  0  0  0  0  0  0
  186.4820  178.5250  141.6790 C   0  0  0  0  0  2  0  0  0  0  0  0
  187.2710  177.6350  145.8930 C   0  0  0  0  0  2  0  0  0  0  0  0
  186.3460  178.2700  146.9320 C   0  0  0  0  0  2  0  0  0  0  0  0
  187.1640  178.3850  144.5600 C   0  0  2  0  0  3  0  0  0  0  0  0
  184.1670  179.3490  142.2610 C   0  0  0  0  0  2  0  0  0  0  0  0
  191.5080  177.0320  145.0800 C   0  0  0  0  0  3  0  0  0  0  0  0
  191.5950  179.2130  144.1450 C   0  0  0  0  0  3  0  0  0  0  0  0
  189.5610  177.9290  143.9690 C   0  0  0  0  0  0  0  0  0  0  0  0
  192.1800  178.1840  144.8150 N   0  0  0  0  0  0  0  0  0  0  0  0
  190.1840  176.8830  144.6610 C   0  0  0  0  0  3  0  0  0  0  0  0
  190.2720  179.1030  143.7090 C   0  0  0  0  0  3  0  0  0  0  0  0
  188.8520  177.8780  141.0540 C   0  0  1  0  0  3  0  0  0  0  0  0
  189.2180  176.4330  141.3760 C   0  0  0  0  0  2  0  0  0  0  0  0
  190.6230  176.2030  141.0920 N   0  0  0  0  0  1  0  0  0  0  0  0
  188.2350  177.9550  139.8020 O   0  0  0  0  0  0  0  0  0  0  0  0
  188.5070  179.0310  137.8130 O   0  0  0  0  0  1  0  0  0  0  0  0
  189.1330  178.6660  139.0030 C   0  0  0  0  0  2  0  0  0  0  0  0
  1  5  1  0  0  0  0
  3 21  1  6  0  0  0
  3  9  1  0  0  0  0
  4  2  1  6  0  0  0
  4 13  1  0  0  0  0
  4  6  1  0  0  0  0
  6  5  1  6  0  0  0
  6  7  1  0  0  0  0
  7 12  1  0  0  0  0
  8 10  1  6  0  0  0
  8  4  1  0  0  0  0
  9 17  1  1  0  0  0
  9 13  1  0  0  0  0
 10  3  1  0  0  0  0
 11 12  1  0  0  0  0
 13 11  1  1  0  0  0
 14  8  1  0  0  0  0
 14  1  1  0  0  0  0
 16 18  2  0  0  0  0
 17 19  1  0  0  0  0
 18 15  1  0  0  0  0
 19 15  2  0  0  0  0
 20 17  2  0  0  0  0
 20 16  1  0  0  0  0
 21 22  1  1  0  0  0
 23 22  1  0  0  0  0
 24 21  1  0  0  0  0
 25 26  1  0  0  0  0
 26 24  1  0  0  0  0
M  END
>  <MODEL>
4

>  <REMARK>
 VINA RESULT:      -6.9      2.777      4.564
  Name = 
  5 active torsions:
  status: ('A' for Active; 'I' for Inactive)
    1  A    between atoms: C_4  and  C_18
    2  A    between atoms: C_7  and  C_18
    3  A    between atoms: C_13  and  C_14
    4  A    between atoms: C_18  and  O_22
    5  A    between atoms: C_21  and  O_22
                            x       y       z     vdW  Elec       q    Type
                         _______ _______ _______ _____ _____    ______ ____

>  <TORSDO>
F 5

$$$$
=
 OpenBabel10222418263D

 26 29  0  0  1  0  0  0  0  0999 V2000
  182.6430  179.3450  142.4400 C   0  0  0  0  0  2  0  0  0  0  0  0
  185.4280  180.0240  142.5640 F   0  0  0  0  0  0  0  0  0  0  0  0
  186.6620  177.7620  144.8660 C   0  0  2  0  0  3  0  0  0  0  0  0
  185.3220  178.6470  142.3840 C   0  0  2  0  0  0  0  0  0  0  0  0
  183.1130  178.8200  141.0790 C   0  0  0  0  0  2  0  0  0  0  0  0
  184.5750  178.3450  141.0760 C   0  0  1  0  0  3  0  0  0  0  0  0
  185.3340  178.8990  139.8720 C   0  0  0  0  0  2  0  0  0  0  0  0
  184.5440  178.0220  143.5490 C   0  0  1  0  0  3  0  0  0  0  0  0
  187.4880  178.2420  143.6490 C   0  0  2  0  0  3  0  0  0  0  0  0
  185.2350  178.3280  144.8700 C   0  0  0  0  0  2  0  0  0  0  0  0
  187.4950  178.6020  141.1280 C   0  0  0  0  0  2  0  0  0  0  0  0
  186.7440  178.3110  139.8290 C   0  0  0  0  0  2  0  0  0  0  0  0
  186.7260  178.0280  142.3250 C   0  0  2  0  0  3  0  0  0  0  0  0
  183.0600  178.4220  143.5900 C   0  0  0  0  0  2  0  0  0  0  0  0
  190.2190  175.6300  143.2160 C   0  0  0  0  0  3  0  0  0  0  0  0
  191.2160  177.6550  143.9530 C   0  0  0  0  0  3  0  0  0  0  0  0
  188.8290  177.5640  143.6140 C   0  0  0  0  0  0  0  0  0  0  0  0
  191.3140  176.3520  143.5750 N   0  0  0  0  0  0  0  0  0  0  0  0
  188.9550  176.2230  143.2290 C   0  0  0  0  0  3  0  0  0  0  0  0
  189.9690  178.2850  143.9780 C   0  0  0  0  0  3  0  0  0  0  0  0
  187.3780  178.0520  146.1940 C   0  0  1  0  0  3  0  0  0  0  0  0
  186.3990  178.3690  147.3190 C   0  0  0  0  0  2  0  0  0  0  0  0
  186.1630  179.8000  147.3810 N   0  0  0  0  0  1  0  0  0  0  0  0
  188.1920  176.9720  146.5500 O   0  0  0  0  0  0  0  0  0  0  0  0
  190.2800  177.2240  147.4230 O   0  0  0  0  0  1  0  0  0  0  0  0
  188.9200  177.4200  147.6530 C   0  0  0  0  0  2  0  0  0  0  0  0
  1 14  1  0  0  0  0
  3 10  1  0  0  0  0
  3 21  1  1  0  0  0
  4  2  1  1  0  0  0
  4  8  1  0  0  0  0
  5  1  1  0  0  0  0
  6  7  1  6  0  0  0
  6  5  1  0  0  0  0
  6  4  1  0  0  0  0
  8 14  1  1  0  0  0
  8 10  1  0  0  0  0
  9 17  1  6  0  0  0
  9  3  1  0  0  0  0
 12  7  1  0  0  0  0
 12 11  1  0  0  0  0
 13 11  1  6  0  0  0
 13  4  1  0  0  0  0
 13  9  1  0  0  0  0
 15 19  2  0  0  0  0
 15 18  1  0  0  0  0
 16 20  1  0  0  0  0
 17 20  2  0  0  0  0
 18 16  2  0  0  0  0
 19 17  1  0  0  0  0
 21 24  1  0  0  0  0
 21 22  1  1  0  0  0
 22 23  1  0  0  0  0
 24 26  1  0  0  0  0
 25 26  1  0  0  0  0
M  END
>  <MODEL>
5

>  <REMARK>
 VINA RESULT:      -6.9      1.200      1.384
  Name = 
  5 active torsions:
  status: ('A' for Active; 'I' for Inactive)
    1  A    between atoms: C_4  and  C_18
    2  A    between atoms: C_7  and  C_18
    3  A    between atoms: C_13  and  C_14
    4  A    between atoms: C_18  and  O_22
    5  A    between atoms: C_21  and  O_22
                            x       y       z     vdW  Elec       q    Type
                         _______ _______ _______ _____ _____    ______ ____

>  <TORSDO>
F 5

$$$$
=
 OpenBabel10222418263D

 26 29  0  0  1  0  0  0  0  0999 V2000
  184.5870  178.5640  141.4840 C   0  0  0  0  0  2  0  0  0  0  0  0
  185.7730  176.7870  143.3990 F   0  0  0  0  0  0  0  0  0  0  0  0
  189.0370  177.9050  143.5580 C   0  0  2  0  0  3  0  0  0  0  0  0
  186.0940  178.0930  143.7590 C   0  0  2  0  0  0  0  0  0  0  0  0
  183.9320  179.0750  142.7730 C   0  0  0  0  0  2  0  0  0  0  0  0
  184.8110  178.8970  144.0210 C   0  0  1  0  0  3  0  0  0  0  0  0
  184.0150  178.2960  145.1770 C   0  0  0  0  0  2  0  0  0  0  0  0
  186.8770  178.7730  142.6280 C   0  0  1  0  0  3  0  0  0  0  0  0
  188.2910  177.3450  144.7920 C   0  0  2  0  0  3  0  0  0  0  0  0
  188.1410  177.9880  142.3150 C   0  0  0  0  0  2  0  0  0  0  0  0
  186.1620  177.4540  146.1850 C   0  0  0  0  0  2  0  0  0  0  0  0
  184.8800  178.2480  146.4360 C   0  0  0  0  0  2  0  0  0  0  0  0
  186.9550  178.0780  145.0310 C   0  0  2  0  0  3  0  0  0  0  0  0
  186.0450  179.0210  141.3590 C   0  0  0  0  0  2  0  0  0  0  0  0
  191.1170  176.7290  147.2630 C   0  0  0  0  0  3  0  0  0  0  0  0
  189.5910  178.2740  148.2250 C   0  0  0  0  0  3  0  0  0  0  0  0
  189.1630  177.4040  146.0160 C   0  0  0  0  0  0  0  0  0  0  0  0
  190.7300  177.5330  148.2900 N   0  0  0  0  0  0  0  0  0  0  0  0
  190.3400  176.6500  146.1060 C   0  0  0  0  0  3  0  0  0  0  0  0
  188.7860  178.2230  147.0840 C   0  0  0  0  0  3  0  0  0  0  0  0
  190.3260  177.1220  143.2650 C   0  0  1  0  0  3  0  0  0  0  0  0
  190.0960  175.9860  142.2750 C   0  0  0  0  0  2  0  0  0  0  0  0
  190.5340  176.3860  140.9500 N   0  0  0  0  0  1  0  0  0  0  0  0
  191.3190  177.9850  142.7910 O   0  0  0  0  0  0  0  0  0  0  0  0
  192.1940  178.9830  144.6410 O   0  0  0  0  0  1  0  0  0  0  0  0
  191.2500  179.1030  143.6230 C   0  0  0  0  0  2  0  0  0  0  0  0
  1  5  1  0  0  0  0
  3 21  1  6  0  0  0
  3  9  1  0  0  0  0
  4  2  1  6  0  0  0
  4  6  1  0  0  0  0
  4 13  1  0  0  0  0
  6  5  1  6  0  0  0
  6  7  1  0  0  0  0
  7 12  1  0  0  0  0
  8 14  1  6  0  0  0
  8  4  1  0  0  0  0
  9 13  1  0  0  0  0
  9 17  1  1  0  0  0
 10  8  1  0  0  0  0
 10  3  1  0  0  0  0
 11 12  1  0  0  0  0
 13 11  1  1  0  0  0
 14  1  1  0  0  0  0
 15 18  1  0  0  0  0
 16 18  2  0  0  0  0
 17 19  1  0  0  0  0
 17 20  2  0  0  0  0
 19 15  2  0  0  0  0
 20 16  1  0  0  0  0
 21 22  1  6  0  0  0
 23 22  1  0  0  0  0
 24 21  1  0  0  0  0
 24 26  1  0  0  0  0
 26 25  1  0  0  0  0
M  END
>  <MODEL>
6

>  <REMARK>
 VINA RESULT:      -6.6      1.696      4.160
  Name = 
  5 active torsions:
  status: ('A' for Active; 'I' for Inactive)
    1  A    between atoms: C_4  and  C_18
    2  A    between atoms: C_7  and  C_18
    3  A    between atoms: C_13  and  C_14
    4  A    between atoms: C_18  and  O_22
    5  A    between atoms: C_21  and  O_22
                            x       y       z     vdW  Elec       q    Type
                         _______ _______ _______ _____ _____    ______ ____

>  <TORSDO>
F 5

$$$$
=
 OpenBabel10222418263D

 26 29  0  0  1  0  0  0  0  0999 V2000
  184.6010  178.6080  146.2090 C   0  0  0  0  0  2  0  0  0  0  0  0
  186.2530  179.7560  144.1620 F   0  0  0  0  0  0  0  0  0  0  0  0
  188.7240  177.3770  143.7530 C   0  0  2  0  0  3  0  0  0  0  0  0
  185.9670  178.4410  143.8050 C   0  0  2  0  0  0  0  0  0  0  0  0
  183.6850  178.4390  144.9910 C   0  0  0  0  0  2  0  0  0  0  0  0
  184.4480  178.2520  143.6690 C   0  0  1  0  0  3  0  0  0  0  0  0
  183.8810  179.1500  142.5720 C   0  0  0  0  0  2  0  0  0  0  0  0
  186.4870  177.4790  144.8800 C   0  0  1  0  0  3  0  0  0  0  0  0
  188.1780  178.2180  142.5750 C   0  0  2  0  0  3  0  0  0  0  0  0
  187.9850  177.6580  145.0690 C   0  0  0  0  0  2  0  0  0  0  0  0
  186.0880  179.0310  141.3680 C   0  0  0  0  0  2  0  0  0  0  0  0
  184.5750  178.8510  141.2440 C   0  0  0  0  0  2  0  0  0  0  0  0
  186.6430  178.1150  142.4650 C   0  0  2  0  0  3  0  0  0  0  0  0
  185.7400  177.5820  146.2200 C   0  0  0  0  0  2  0  0  0  0  0  0
  190.2880  176.3780  139.9990 C   0  0  0  0  0  3  0  0  0  0  0  0
  189.2140  178.2070  138.9330 C   0  0  0  0  0  3  0  0  0  0  0  0
  188.8370  177.8180  141.2830 C   0  0  0  0  0  0  0  0  0  0  0  0
  190.0390  177.1270  138.8910 N   0  0  0  0  0  0  0  0  0  0  0  0
  189.6910  176.7100  141.2170 C   0  0  0  0  0  3  0  0  0  0  0  0
  188.5970  178.5720  140.1320 C   0  0  0  0  0  3  0  0  0  0  0  0
  190.2420  177.5440  143.9200 C   0  0  1  0  0  3  0  0  0  0  0  0
  190.5970  178.7550  144.7770 C   0  0  0  0  0  2  0  0  0  0  0  0
  191.2720  179.7530  143.9680 N   0  0  0  0  0  1  0  0  0  0  0  0
  190.7990  176.3840  144.4660 O   0  0  0  0  0  0  0  0  0  0  0  0
  192.0550  175.7290  146.2490 O   0  0  0  0  0  1  0  0  0  0  0  0
  191.3480  176.7880  145.6840 C   0  0  0  0  0  2  0  0  0  0  0  0
  1 14  1  0  0  0  0
  3 21  1  1  0  0  0
  3 10  1  0  0  0  0
  4  2  1  1  0  0  0
  4  8  1  0  0  0  0
  5  1  1  0  0  0  0
  6  7  1  6  0  0  0
  6  4  1  0  0  0  0
  6  5  1  0  0  0  0
  8 10  1  1  0  0  0
  8 14  1  0  0  0  0
  9 17  1  6  0  0  0
  9  3  1  0  0  0  0
 12 11  1  0  0  0  0
 12  7  1  0  0  0  0
 13 11  1  6  0  0  0
 13  9  1  0  0  0  0
 13  4  1  0  0  0  0
 15 19  1  0  0  0  0
 16 20  2  0  0  0  0
 18 16  1  0  0  0  0
 18 15  2  0  0  0  0
 19 17  2  0  0  0  0
 20 17  1  0  0  0  0
 21 24  1  0  0  0  0
 21 22  1  1  0  0  0
 23 22  1  0  0  0  0
 24 26  1  0  0  0  0
 26 25  1  0  0  0  0
M  END
>  <MODEL>
7

>  <REMARK>
 VINA RESULT:      -6.5      1.942      2.767
  Name = 
  5 active torsions:
  status: ('A' for Active; 'I' for Inactive)
    1  A    between atoms: C_4  and  C_18
    2  A    between atoms: C_7  and  C_18
    3  A    between atoms: C_13  and  C_14
    4  A    between atoms: C_18  and  O_22
    5  A    between atoms: C_21  and  O_22
                            x       y       z     vdW  Elec       q    Type
                         _______ _______ _______ _____ _____    ______ ____

>  <TORSDO>
F 5

$$$$
=
 OpenBabel10222418263D

 26 29  0  0  1  0  0  0  0  0999 V2000
  183.1320  178.8140  144.2450 C   0  0  0  0  0  2  0  0  0  0  0  0
  185.2880  176.9690  143.8210 F   0  0  0  0  0  0  0  0  0  0  0  0
  187.2840  178.6380  141.5480 C   0  0  2  0  0  3  0  0  0  0  0  0
  185.8330  178.2220  144.0900 C   0  0  2  0  0  0  0  0  0  0  0  0
  183.8680  178.9410  145.5840 C   0  0  0  0  0  2  0  0  0  0  0  0
  185.3830  178.7040  145.4770 C   0  0  1  0  0  3  0  0  0  0  0  0
  185.8720  177.7580  146.5710 C   0  0  0  0  0  2  0  0  0  0  0  0
  185.3610  179.2370  143.0400 C   0  0  1  0  0  3  0  0  0  0  0  0
  187.8680  177.7260  142.6530 C   0  0  2  0  0  3  0  0  0  0  0  0
  185.7590  178.7790  141.6460 C   0  0  0  0  0  2  0  0  0  0  0  0
  187.8550  177.1660  145.1370 C   0  0  0  0  0  2  0  0  0  0  0  0
  187.3950  177.6410  146.5160 C   0  0  0  0  0  2  0  0  0  0  0  0
  187.3660  178.1340  144.0530 C   0  0  2  0  0  3  0  0  0  0  0  0
  183.8580  179.5540  143.1160 C   0  0  0  0  0  2  0  0  0  0  0  0
  191.4630  176.8450  141.7710 C   0  0  0  0  0  3  0  0  0  0  0  0
  191.4820  178.6200  143.3490 C   0  0  0  0  0  3  0  0  0  0  0  0
  189.3710  177.7210  142.6020 C   0  0  0  0  0  0  0  0  0  0  0  0
  192.1350  177.7360  142.5470 N   0  0  0  0  0  0  0  0  0  0  0  0
  190.0670  176.8200  141.7840 C   0  0  0  0  0  3  0  0  0  0  0  0
  190.0850  178.6270  143.3900 C   0  0  0  0  0  3  0  0  0  0  0  0
  187.7130  178.1830  140.1450 C   0  0  1  0  0  3  0  0  0  0  0  0
  186.5260  177.7350  139.2990 C   0  0  0  0  0  2  0  0  0  0  0  0
  185.9500  178.8750  138.6080 N   0  0  0  0  0  1  0  0  0  0  0  0
  188.4110  179.2060  139.4970 O   0  0  0  0  0  0  0  0  0  0  0  0
  189.1160  179.2960  137.3330 O   0  0  0  0  0  1  0  0  0  0  0  0
  189.1640  178.5610  138.5150 C   0  0  0  0  0  2  0  0  0  0  0  0
  1  5  1  0  0  0  0
  3 21  1  6  0  0  0
  3 10  1  0  0  0  0
  3  9  1  0  0  0  0
  4  2  1  6  0  0  0
  4  6  1  0  0  0  0
  6  5  1  6  0  0  0
  6  7  1  0  0  0  0
  8 10  1  6  0  0  0
  8 14  1  0  0  0  0
  8  4  1  0  0  0  0
  9 17  1  1  0  0  0
  9 13  1  0  0  0  0
 11 12  1  0  0  0  0
 12  7  1  0  0  0  0
 13  4  1  0  0  0  0
 13 11  1  1  0  0  0
 14  1  1  0  0  0  0
 15 19  2  0  0  0  0
 15 18  1  0  0  0  0
 16 20  1  0  0  0  0
 17 20  2  0  0  0  0
 18 16  2  0  0  0  0
 19 17  1  0  0  0  0
 21 22  1  6  0  0  0
 23 22  1  0  0  0  0
 24 21  1  0  0  0  0
 25 26  1  0  0  0  0
 26 24  1  0  0  0  0
M  END
>  <MODEL>
8

>  <REMARK>
 VINA RESULT:      -6.3      3.175      4.957
  Name = 
  5 active torsions:
  status: ('A' for Active; 'I' for Inactive)
    1  A    between atoms: C_4  and  C_18
    2  A    between atoms: C_7  and  C_18
    3  A    between atoms: C_13  and  C_14
    4  A    between atoms: C_18  and  O_22
    5  A    between atoms: C_21  and  O_22
                            x       y       z     vdW  Elec       q    Type
                         _______ _______ _______ _____ _____    ______ ____

>  <TORSDO>
F 5

$$$$
=
 OpenBabel10222418263D

 26 29  0  0  1  0  0  0  0  0999 V2000
  185.4690  178.2340  147.2390 C   0  0  0  0  0  2  0  0  0  0  0  0
  186.5120  176.5650  145.1520 F   0  0  0  0  0  0  0  0  0  0  0  0
  186.1500  178.5410  142.3420 C   0  0  2  0  0  3  0  0  0  0  0  0
  187.1060  177.8190  145.0440 C   0  0  2  0  0  0  0  0  0  0  0  0
  186.9660  178.2870  147.5690 C   0  0  0  0  0  2  0  0  0  0  0  0
  187.8720  178.1500  146.3340 C   0  0  1  0  0  3  0  0  0  0  0  0
  188.9920  177.1430  146.5790 C   0  0  0  0  0  2  0  0  0  0  0  0
  186.0320  178.8920  144.8210 C   0  0  1  0  0  3  0  0  0  0  0  0
  187.3410  177.5720  142.5270 C   0  0  2  0  0  3  0  0  0  0  0  0
  185.2280  178.5820  143.5680 C   0  0  0  0  0  2  0  0  0  0  0  0
  189.1920  176.7970  144.0940 C   0  0  0  0  0  2  0  0  0  0  0  0
  189.9450  177.1220  145.3850 C   0  0  0  0  0  2  0  0  0  0  0  0
  188.0800  177.8250  143.8570 C   0  0  2  0  0  3  0  0  0  0  0  0
  185.1130  179.1120  146.0340 C   0  0  0  0  0  2  0  0  0  0  0  0
  189.1760  178.8080  139.4320 C   0  0  0  0  0  3  0  0  0  0  0  0
  190.0530  176.6860  140.0370 C   0  0  0  0  0  3  0  0  0  0  0  0
  188.2870  177.6600  141.3610 C   0  0  0  0  0  0  0  0  0  0  0  0
  190.0340  177.7750  139.2210 N   0  0  0  0  0  0  0  0  0  0  0  0
  188.2850  178.7700  140.5070 C   0  0  0  0  0  3  0  0  0  0  0  0
  189.1780  176.6100  141.1230 C   0  0  0  0  0  3  0  0  0  0  0  0
  185.3580  178.2360  141.0600 C   0  0  1  0  0  3  0  0  0  0  0  0
  183.9620  177.7010  141.3600 C   0  0  0  0  0  2  0  0  0  0  0  0
  183.0160  178.7990  141.4390 N   0  0  0  0  0  1  0  0  0  0  0  0
  185.2770  179.3790  140.2590 O   0  0  0  0  0  0  0  0  0  0  0  0
  185.9090  178.9110  138.1210 O   0  0  0  0  0  1  0  0  0  0  0  0
  184.8420  178.9150  139.0160 C   0  0  0  0  0  2  0  0  0  0  0  0
  1  5  1  0  0  0  0
  3 21  1  6  0  0  0
  3  9  1  0  0  0  0
  3 10  1  0  0  0  0
  4  2  1  1  0  0  0
  4  6  1  0  0  0  0
  6  7  1  1  0  0  0
  6  5  1  0  0  0  0
  8 10  1  6  0  0  0
  8  4  1  0  0  0  0
  8 14  1  0  0  0  0
  9 17  1  6  0  0  0
  9 13  1  0  0  0  0
 11 12  1  0  0  0  0
 12  7  1  0  0  0  0
 13 11  1  1  0  0  0
 13  4  1  0  0  0  0
 14  1  1  0  0  0  0
 15 19  1  0  0  0  0
 16 20  2  0  0  0  0
 18 15  2  0  0  0  0
 18 16  1  0  0  0  0
 19 17  2  0  0  0  0
 20 17  1  0  0  0  0
 21 22  1  1  0  0  0
 22 23  1  0  0  0  0
 24 21  1  0  0  0  0
 25 26  1  0  0  0  0
 26 24  1  0  0  0  0
M  END
>  <MODEL>
9

>  <REMARK>
 VINA RESULT:      -6.3      3.533      5.452
  Name = 
  5 active torsions:
  status: ('A' for Active; 'I' for Inactive)
    1  A    between atoms: C_4  and  C_18
    2  A    between atoms: C_7  and  C_18
    3  A    between atoms: C_13  and  C_14
    4  A    between atoms: C_18  and  O_22
    5  A    between atoms: C_21  and  O_22
                            x       y       z     vdW  Elec       q    Type
                         _______ _______ _______ _____ _____    ______ ____

>  <TORSDO>
F 5

$$$$
