=
 OpenBabel10222418193D

 34 36  0  0  1  0  0  0  0  0999 V2000
  186.6950  177.7910  144.2810 C   0  0  0  0  0  0  0  0  0  0  0  0
  187.1670  177.8680  145.5400 C   0  0  0  0  0  3  0  0  0  0  0  0
  184.4670  178.6500  145.0710 C   0  0  0  0  0  3  0  0  0  0  0  0
  183.4530  178.6140  142.4700 C   0  0  0  0  0  3  0  0  0  0  0  0
  183.1530  179.0580  144.8280 C   0  0  0  0  0  3  0  0  0  0  0  0
  185.2930  178.2180  144.0190 C   0  0  0  0  0  0  0  0  0  0  0  0
  184.7670  178.2070  142.7140 C   0  0  0  0  0  3  0  0  0  0  0  0
  182.6460  179.0450  143.5270 C   0  0  0  0  0  0  0  0  0  0  0  0
  181.2360  179.4520  143.2720 C   0  0  0  0  0  2  0  0  0  0  0  0
  180.7510  178.8700  140.8970 C   0  0  0  0  0  3  0  0  0  0  0  0
  179.5500  177.1420  141.1900 C   0  0  0  0  0  3  0  0  0  0  0  0
  179.9110  177.5720  142.4150 N   0  0  0  0  0  0  0  0  0  0  0  0
  180.0600  177.9330  140.2190 N   0  0  0  0  0  0  0  0  0  0  0  0
  180.6610  178.6380  142.2140 N   0  0  0  0  0  0  0  0  0  0  0  0
  187.8170  176.0360  143.1280 O   0  0  0  0  0  0  0  0  0  0  0  0
  187.5150  177.2600  143.1670 C   0  0  0  0  0  0  0  0  0  0  0  0
  187.9300  178.1280  142.1130 N   0  0  0  0  0  2  0  0  0  0  0  0
  188.6970  177.6500  141.0450 N   0  0  0  0  0  0  0  0  0  0  0  0
  188.6130  178.2130  139.8860 C   0  0  0  0  0  3  0  0  0  0  0  0
  190.6760  177.0620  139.2710 C   0  0  0  0  0  2  0  0  0  0  0  0
  187.5770  177.4190  137.2500 F   0  0  0  0  0  0  0  0  0  0  0  0
  188.6220  176.7510  137.8610 C   0  0  2  0  0  3  0  0  0  0  0  0
  190.7010  175.5430  137.4080 N   0  0  0  0  0  0  0  0  0  0  0  0
  191.2680  176.0590  138.6180 C   0  0  0  0  0  3  0  0  0  0  0  0
  189.4300  177.7160  138.7410 C   0  0  1  0  0  3  0  0  0  0  0  0
  189.5340  176.1630  136.7870 C   0  0  0  0  0  2  0  0  0  0  0  0
  188.7790  176.6220  146.7850 O   0  0  0  0  0  0  0  0  0  0  0  0
  188.5360  177.5900  146.0130 C   0  0  0  0  0  0  0  0  0  0  0  0
  189.5770  178.3930  145.5410 O   0  0  0  0  0  0  0  0  0  0  0  0
  190.4460  177.9790  144.4920 C   0  0  1  0  0  3  0  0  0  0  0  0
  191.2090  179.1720  143.9390 C   0  0  0  0  0  1  0  0  0  0  0  0
  191.9460  177.0900  146.1290 O   0  0  0  0  0  0  0  0  0  0  0  0
  191.7300  175.8320  144.1900 N   0  0  0  0  0  1  0  0  0  0  0  0
  191.4050  176.9550  145.0000 C   0  0  0  0  0  0  0  0  0  0  0  0
  1  2  2  0  0  0  0
  2 28  1  0  0  0  0
  4  7  2  0  0  0  0
  4  8  1  0  0  0  0
  5  3  1  0  0  0  0
  6  1  1  0  0  0  0
  6  3  2  0  0  0  0
  7  6  1  0  0  0  0
  8  5  2  0  0  0  0
  9  8  1  0  0  0  0
 10 14  1  0  0  0  0
 11 12  2  0  0  0  0
 13 10  2  0  0  0  0
 13 11  1  0  0  0  0
 14 12  1  0  0  0  0
 14  9  1  0  0  0  0
 15 16  2  0  0  0  0
 16  1  1  0  0  0  0
 17 16  1  0  0  0  0
 18 17  1  0  0  0  0
 19 18  2  0  0  0  0
 22 21  1  6  0  0  0
 22 25  1  0  0  0  0
 23 24  2  0  0  0  0
 24 20  1  0  0  0  0
 25 20  1  0  0  0  0
 25 19  1  1  0  0  0
 26 23  1  0  0  0  0
 26 22  1  0  0  0  0
 28 27  2  0  0  0  0
 29 28  1  0  0  0  0
 30 31  1  1  0  0  0
 30 34  1  0  0  0  0
 30 29  1  0  0  0  0
 33 34  1  0  0  0  0
 34 32  2  0  0  0  0
M  END
>  <MODEL>
1

>  <REMARK>
 VINA RESULT:      -8.9      0.000      0.000
  Name = 
  10 active torsions:
  status: ('A' for Active; 'I' for Inactive)
    1  A    between atoms: N_7  and  N_24
    2  A    between atoms: C_12  and  C_18
    3  A    between atoms: O_13  and  C_17
    4  A    between atoms: O_13  and  C_33
    5  A    between atoms: C_16  and  C_30
    6  A    between atoms: C_17  and  C_27
    7  A    between atoms: C_18  and  C_19
    8  A    between atoms: C_25  and  C_28
    9  A    between atoms: C_28  and  N_34
   10  A    between atoms: C_32  and  C_33
                            x       y       z     vdW  Elec       q    Type
                         _______ _______ _______ _____ _____    ______ ____

>  <TORSDO>
F 10

$$$$
=
 OpenBabel10222418193D

 34 36  0  0  1  0  0  0  0  0999 V2000
  183.8670  178.5430  143.4070 C   0  0  0  0  0  0  0  0  0  0  0  0
  182.6850  178.8550  143.9720 C   0  0  0  0  0  3  0  0  0  0  0  0
  186.1320  177.5510  143.8700 C   0  0  0  0  0  3  0  0  0  0  0  0
  186.2140  178.7410  146.3950 C   0  0  0  0  0  3  0  0  0  0  0  0
  187.2420  177.3610  144.6970 C   0  0  0  0  0  3  0  0  0  0  0  0
  185.0470  178.3370  144.2930 C   0  0  0  0  0  0  0  0  0  0  0  0
  185.1040  178.9300  145.5680 C   0  0  0  0  0  3  0  0  0  0  0  0
  187.2870  177.9590  145.9580 C   0  0  0  0  0  0  0  0  0  0  0  0
  188.4580  177.7330  146.8500 C   0  0  0  0  0  2  0  0  0  0  0  0
  190.6930  176.7870  146.2790 C   0  0  0  0  0  3  0  0  0  0  0  0
  191.1950  178.0280  144.6290 C   0  0  0  0  0  3  0  0  0  0  0  0
  189.9750  178.4180  145.0460 N   0  0  0  0  0  0  0  0  0  0  0  0
  191.6720  177.0100  145.3800 N   0  0  0  0  0  0  0  0  0  0  0  0
  189.6770  177.6340  146.0640 N   0  0  0  0  0  0  0  0  0  0  0  0
  183.4530  177.5160  141.3000 O   0  0  0  0  0  0  0  0  0  0  0  0
  184.0310  178.4370  141.9390 C   0  0  0  0  0  0  0  0  0  0  0  0
  184.8120  179.4050  141.2390 N   0  0  0  0  0  2  0  0  0  0  0  0
  184.9750  179.3340  139.8510 N   0  0  0  0  0  0  0  0  0  0  0  0
  185.8040  178.4860  139.3410 C   0  0  0  0  0  3  0  0  0  0  0  0
  187.4290  178.1080  137.5590 C   0  0  0  0  0  2  0  0  0  0  0  0
  183.7370  177.7060  137.3980 F   0  0  0  0  0  0  0  0  0  0  0  0
  185.0600  177.3330  137.2540 C   0  0  2  0  0  3  0  0  0  0  0  0
  186.7950  176.8890  135.5870 N   0  0  0  0  0  0  0  0  0  0  0  0
  187.7870  177.4180  136.4740 C   0  0  0  0  0  3  0  0  0  0  0  0
  185.9840  178.3970  137.8630 C   0  0  1  0  0  3  0  0  0  0  0  0
  185.3760  177.1800  135.7680 C   0  0  0  0  0  2  0  0  0  0  0  0
  180.3730  178.3420  143.6750 O   0  0  0  0  0  0  0  0  0  0  0  0
  181.3770  179.0120  143.3090 C   0  0  0  0  0  0  0  0  0  0  0  0
  181.2580  179.9670  142.2970 O   0  0  0  0  0  0  0  0  0  0  0  0
  180.1980  179.9440  141.3470 C   0  0  1  0  0  3  0  0  0  0  0  0
  179.1590  180.9980  141.6920 C   0  0  0  0  0  1  0  0  0  0  0  0
  181.4820  179.3440  139.4200 O   0  0  0  0  0  0  0  0  0  0  0  0
  180.4230  181.4060  139.3070 N   0  0  0  0  0  1  0  0  0  0  0  0
  180.7360  180.1910  139.9780 C   0  0  0  0  0  0  0  0  0  0  0  0
  1  2  2  0  0  0  0
  1  6  1  0  0  0  0
  3  6  2  0  0  0  0
  3  5  1  0  0  0  0
  5  8  2  0  0  0  0
  6  7  1  0  0  0  0
  7  4  2  0  0  0  0
  8  4  1  0  0  0  0
  8  9  1  0  0  0  0
 11 12  2  0  0  0  0
 11 13  1  0  0  0  0
 12 14  1  0  0  0  0
 13 10  2  0  0  0  0
 14 10  1  0  0  0  0
 14  9  1  0  0  0  0
 15 16  2  0  0  0  0
 16  1  1  0  0  0  0
 17 16  1  0  0  0  0
 18 17  1  0  0  0  0
 19 18  2  0  0  0  0
 20 25  1  0  0  0  0
 22 21  1  6  0  0  0
 22 25  1  0  0  0  0
 23 26  1  0  0  0  0
 23 24  2  0  0  0  0
 24 20  1  0  0  0  0
 25 19  1  1  0  0  0
 26 22  1  0  0  0  0
 28 27  2  0  0  0  0
 28  2  1  0  0  0  0
 29 28  1  0  0  0  0
 30 31  1  1  0  0  0
 30 29  1  0  0  0  0
 32 34  2  0  0  0  0
 33 34  1  0  0  0  0
 34 30  1  0  0  0  0
M  END
>  <MODEL>
2

>  <REMARK>
 VINA RESULT:      -8.3      3.568      7.704
  Name = 
  10 active torsions:
  status: ('A' for Active; 'I' for Inactive)
    1  A    between atoms: N_7  and  N_24
    2  A    between atoms: C_12  and  C_18
    3  A    between atoms: O_13  and  C_17
    4  A    between atoms: O_13  and  C_33
    5  A    between atoms: C_16  and  C_30
    6  A    between atoms: C_17  and  C_27
    7  A    between atoms: C_18  and  C_19
    8  A    between atoms: C_25  and  C_28
    9  A    between atoms: C_28  and  N_34
   10  A    between atoms: C_32  and  C_33
                            x       y       z     vdW  Elec       q    Type
                         _______ _______ _______ _____ _____    ______ ____

>  <TORSDO>
F 10

$$$$
=
 OpenBabel10222418193D

 34 36  0  0  1  0  0  0  0  0999 V2000
  190.8420  177.5030  141.9950 C   0  0  0  0  0  0  0  0  0  0  0  0
  191.6590  178.1850  142.8190 C   0  0  0  0  0  3  0  0  0  0  0  0
  192.6900  177.3350  140.2970 C   0  0  0  0  0  3  0  0  0  0  0  0
  190.9670  176.1720  138.4330 C   0  0  0  0  0  3  0  0  0  0  0  0
  193.1670  176.9740  139.0350 C   0  0  0  0  0  3  0  0  0  0  0  0
  191.3460  177.1220  140.6460 C   0  0  0  0  0  0  0  0  0  0  0  0
  190.4910  176.5340  139.6960 C   0  0  0  0  0  3  0  0  0  0  0  0
  192.3080  176.3880  138.1030 C   0  0  0  0  0  0  0  0  0  0  0  0
  192.8110  176.0290  136.7480 C   0  0  0  0  0  2  0  0  0  0  0  0
  193.8780  173.8270  137.2260 C   0  0  0  0  0  3  0  0  0  0  0  0
  195.9130  174.3360  136.8920 C   0  0  0  0  0  3  0  0  0  0  0  0
  195.1940  175.4490  136.6500 N   0  0  0  0  0  0  0  0  0  0  0  0
  195.1190  173.3040  137.2540 N   0  0  0  0  0  0  0  0  0  0  0  0
  193.9350  175.1130  136.8550 N   0  0  0  0  0  0  0  0  0  0  0  0
  189.1890  176.0180  142.8490 O   0  0  0  0  0  0  0  0  0  0  0  0
  189.4530  177.1570  142.3780 C   0  0  0  0  0  0  0  0  0  0  0  0
  188.4170  178.1310  142.2520 N   0  0  0  0  0  2  0  0  0  0  0  0
  187.0990  177.8340  142.6150 N   0  0  0  0  0  0  0  0  0  0  0  0
  186.1230  178.5160  142.1160 C   0  0  0  0  0  3  0  0  0  0  0  0
  184.4580  178.6890  143.8940 C   0  0  0  0  0  2  0  0  0  0  0  0
  183.8630  178.2450  140.2510 F   0  0  0  0  0  0  0  0  0  0  0  0
  183.7240  178.8280  141.4970 C   0  0  2  0  0  3  0  0  0  0  0  0
  182.1560  179.1200  143.3530 N   0  0  0  0  0  0  0  0  0  0  0  0
  183.2470  179.0920  144.2820 C   0  0  0  0  0  3  0  0  0  0  0  0
  184.7130  178.2060  142.4920 C   0  0  1  0  0  3  0  0  0  0  0  0
  182.2980  178.6040  141.9950 C   0  0  0  0  0  2  0  0  0  0  0  0
  190.7310  179.6080  144.4960 O   0  0  0  0  0  0  0  0  0  0  0  0
  191.4110  178.5830  144.2170 C   0  0  0  0  0  0  0  0  0  0  0  0
  191.9020  177.7640  145.2360 O   0  0  0  0  0  0  0  0  0  0  0  0
  191.1860  176.6320  145.7170 C   0  0  1  0  0  3  0  0  0  0  0  0
  192.1060  175.7350  146.5310 C   0  0  0  0  0  1  0  0  0  0  0  0
  190.2020  177.3500  147.7750 O   0  0  0  0  0  0  0  0  0  0  0  0
  188.7380  177.1610  145.9850 N   0  0  0  0  0  1  0  0  0  0  0  0
  190.0370  177.0740  146.5580 C   0  0  0  0  0  0  0  0  0  0  0  0
  1 16  1  0  0  0  0
  1  2  2  0  0  0  0
  2 28  1  0  0  0  0
  3  6  1  0  0  0  0
  4  7  1  0  0  0  0
  5  3  2  0  0  0  0
  6  1  1  0  0  0  0
  7  6  2  0  0  0  0
  8  4  2  0  0  0  0
  8  5  1  0  0  0  0
  9 14  1  0  0  0  0
  9  8  1  0  0  0  0
 10 13  2  0  0  0  0
 11 13  1  0  0  0  0
 12 14  1  0  0  0  0
 12 11  2  0  0  0  0
 14 10  1  0  0  0  0
 16 15  2  0  0  0  0
 17 16  1  0  0  0  0
 17 18  1  0  0  0  0
 19 18  2  0  0  0  0
 20 24  1  0  0  0  0
 22 21  1  6  0  0  0
 22 26  1  0  0  0  0
 22 25  1  0  0  0  0
 23 24  2  0  0  0  0
 25 19  1  6  0  0  0
 25 20  1  0  0  0  0
 26 23  1  0  0  0  0
 28 27  2  0  0  0  0
 28 29  1  0  0  0  0
 29 30  1  0  0  0  0
 30 31  1  1  0  0  0
 30 34  1  0  0  0  0
 33 34  1  0  0  0  0
 34 32  2  0  0  0  0
M  END
>  <MODEL>
3

>  <REMARK>
 VINA RESULT:      -8.2      2.417      8.753
  Name = 
  10 active torsions:
  status: ('A' for Active; 'I' for Inactive)
    1  A    between atoms: N_7  and  N_24
    2  A    between atoms: C_12  and  C_18
    3  A    between atoms: O_13  and  C_17
    4  A    between atoms: O_13  and  C_33
    5  A    between atoms: C_16  and  C_30
    6  A    between atoms: C_17  and  C_27
    7  A    between atoms: C_18  and  C_19
    8  A    between atoms: C_25  and  C_28
    9  A    between atoms: C_28  and  N_34
   10  A    between atoms: C_32  and  C_33
                            x       y       z     vdW  Elec       q    Type
                         _______ _______ _______ _____ _____    ______ ____

>  <TORSDO>
F 10

$$$$
=
 OpenBabel10222418193D

 34 36  0  0  1  0  0  0  0  0999 V2000
  190.7710  177.3650  141.3610 C   0  0  0  0  0  0  0  0  0  0  0  0
  191.8250  177.6360  142.1540 C   0  0  0  0  0  3  0  0  0  0  0  0
  189.9610  176.6310  139.0950 C   0  0  0  0  0  3  0  0  0  0  0  0
  192.5740  176.5490  138.1120 C   0  0  0  0  0  3  0  0  0  0  0  0
  190.1970  176.2610  137.7690 C   0  0  0  0  0  3  0  0  0  0  0  0
  191.0260  176.9650  139.9490 C   0  0  0  0  0  0  0  0  0  0  0  0
  192.3360  176.9190  139.4380 C   0  0  0  0  0  3  0  0  0  0  0  0
  191.5020  176.2240  137.2740 C   0  0  0  0  0  0  0  0  0  0  0  0
  191.7560  175.8010  135.8680 C   0  0  0  0  0  2  0  0  0  0  0  0
  192.0200  173.3540  136.2620 C   0  0  0  0  0  3  0  0  0  0  0  0
  194.0330  173.1050  135.6280 C   0  0  0  0  0  3  0  0  0  0  0  0
  193.7330  174.4070  135.4540 N   0  0  0  0  0  0  0  0  0  0  0  0
  192.9820  172.4200  136.1320 N   0  0  0  0  0  0  0  0  0  0  0  0
  192.4800  174.5410  135.8450 N   0  0  0  0  0  0  0  0  0  0  0  0
  188.6530  178.4480  141.4490 O   0  0  0  0  0  0  0  0  0  0  0  0
  189.3750  177.4920  141.8420 C   0  0  0  0  0  0  0  0  0  0  0  0
  188.8330  176.5070  142.7210 N   0  0  0  0  0  2  0  0  0  0  0  0
  187.5160  176.5990  143.1830 N   0  0  0  0  0  0  0  0  0  0  0  0
  187.2060  177.4710  144.0830 C   0  0  0  0  0  3  0  0  0  0  0  0
  185.8260  177.9350  146.0420 C   0  0  0  0  0  2  0  0  0  0  0  0
  184.8540  178.1790  142.4630 F   0  0  0  0  0  0  0  0  0  0  0  0
  185.0060  178.6110  143.7680 C   0  0  2  0  0  3  0  0  0  0  0  0
  183.7620  179.1450  145.8060 N   0  0  0  0  0  0  0  0  0  0  0  0
  184.8470  178.6510  146.6000 C   0  0  0  0  0  3  0  0  0  0  0  0
  185.8040  177.5810  144.5800 C   0  0  1  0  0  3  0  0  0  0  0  0
  183.6260  178.7910  144.3960 C   0  0  0  0  0  2  0  0  0  0  0  0
  191.9040  179.1500  143.9980 O   0  0  0  0  0  0  0  0  0  0  0  0
  191.8180  177.9580  143.5930 C   0  0  0  0  0  0  0  0  0  0  0  0
  191.6560  176.9130  144.5050 O   0  0  0  0  0  0  0  0  0  0  0  0
  191.4170  177.1390  145.8900 C   0  0  1  0  0  3  0  0  0  0  0  0
  189.9230  177.1560  146.1700 C   0  0  0  0  0  1  0  0  0  0  0  0
  192.3690  176.2770  147.9080 O   0  0  0  0  0  0  0  0  0  0  0  0
  192.3870  174.8230  146.0990 N   0  0  0  0  0  1  0  0  0  0  0  0
  192.0720  176.0720  146.7010 C   0  0  0  0  0  0  0  0  0  0  0  0
  1 16  1  0  0  0  0
  1  2  2  0  0  0  0
  2 28  1  0  0  0  0
  3  6  1  0  0  0  0
  4  7  1  0  0  0  0
  5  3  2  0  0  0  0
  6  1  1  0  0  0  0
  7  6  2  0  0  0  0
  8  5  1  0  0  0  0
  8  4  2  0  0  0  0
  9  8  1  0  0  0  0
 11 13  1  0  0  0  0
 12 11  2  0  0  0  0
 12 14  1  0  0  0  0
 13 10  2  0  0  0  0
 14  9  1  0  0  0  0
 14 10  1  0  0  0  0
 15 16  2  0  0  0  0
 16 17  1  0  0  0  0
 17 18  1  0  0  0  0
 18 19  2  0  0  0  0
 20 24  1  0  0  0  0
 22 21  1  6  0  0  0
 22 26  1  0  0  0  0
 22 25  1  0  0  0  0
 23 24  2  0  0  0  0
 25 19  1  6  0  0  0
 25 20  1  0  0  0  0
 26 23  1  0  0  0  0
 28 27  2  0  0  0  0
 28 29  1  0  0  0  0
 29 30  1  0  0  0  0
 30 31  1  6  0  0  0
 30 34  1  0  0  0  0
 33 34  1  0  0  0  0
 34 32  2  0  0  0  0
M  END
>  <MODEL>
4

>  <REMARK>
 VINA RESULT:      -8.1      2.851      8.630
  Name = 
  10 active torsions:
  status: ('A' for Active; 'I' for Inactive)
    1  A    between atoms: N_7  and  N_24
    2  A    between atoms: C_12  and  C_18
    3  A    between atoms: O_13  and  C_17
    4  A    between atoms: O_13  and  C_33
    5  A    between atoms: C_16  and  C_30
    6  A    between atoms: C_17  and  C_27
    7  A    between atoms: C_18  and  C_19
    8  A    between atoms: C_25  and  C_28
    9  A    between atoms: C_28  and  N_34
   10  A    between atoms: C_32  and  C_33
                            x       y       z     vdW  Elec       q    Type
                         _______ _______ _______ _____ _____    ______ ____

>  <TORSDO>
F 10

$$$$
=
 OpenBabel10222418193D

 34 36  0  0  1  0  0  0  0  0999 V2000
  188.9690  177.6700  142.9000 C   0  0  0  0  0  0  0  0  0  0  0  0
  189.5130  178.1880  144.0170 C   0  0  0  0  0  3  0  0  0  0  0  0
  186.5370  177.6200  143.5400 C   0  0  0  0  0  3  0  0  0  0  0  0
  185.8070  178.8340  141.1330 C   0  0  0  0  0  3  0  0  0  0  0  0
  185.1920  177.8890  143.2730 C   0  0  0  0  0  3  0  0  0  0  0  0
  187.5350  177.9520  142.6090 C   0  0  0  0  0  0  0  0  0  0  0  0
  187.1510  178.5640  141.4020 C   0  0  0  0  0  3  0  0  0  0  0  0
  184.8260  178.5010  142.0720 C   0  0  0  0  0  0  0  0  0  0  0  0
  183.3890  178.7610  141.7750 C   0  0  0  0  0  2  0  0  0  0  0  0
  182.9360  179.2800  139.3790 C   0  0  0  0  0  3  0  0  0  0  0  0
  182.5920  177.3150  138.6470 C   0  0  0  0  0  3  0  0  0  0  0  0
  182.8740  177.1930  139.9590 N   0  0  0  0  0  0  0  0  0  0  0  0
  182.6240  178.6080  138.2540 N   0  0  0  0  0  0  0  0  0  0  0  0
  183.0910  178.4190  140.3950 N   0  0  0  0  0  0  0  0  0  0  0  0
  190.1930  175.6960  142.3820 O   0  0  0  0  0  0  0  0  0  0  0  0
  189.7420  176.8030  141.9800 C   0  0  0  0  0  0  0  0  0  0  0  0
  189.9410  177.2020  140.6250 N   0  0  0  0  0  2  0  0  0  0  0  0
  190.6590  176.3970  139.7340 N   0  0  0  0  0  0  0  0  0  0  0  0
  191.0710  176.8840  138.6120 C   0  0  0  0  0  3  0  0  0  0  0  0
  193.3090  176.1510  137.9690 C   0  0  0  0  0  2  0  0  0  0  0  0
  190.0680  174.4780  137.2470 F   0  0  0  0  0  0  0  0  0  0  0  0
  191.3700  174.5780  137.7020 C   0  0  2  0  0  3  0  0  0  0  0  0
  193.6690  173.8980  137.2100 N   0  0  0  0  0  0  0  0  0  0  0  0
  194.1510  175.1430  137.7320 C   0  0  0  0  0  3  0  0  0  0  0  0
  191.8420  176.0380  137.6550 C   0  0  1  0  0  3  0  0  0  0  0  0
  192.2740  173.7270  136.8140 C   0  0  0  0  0  2  0  0  0  0  0  0
  191.7360  179.0420  144.1850 O   0  0  0  0  0  0  0  0  0  0  0  0
  190.9190  178.1190  144.4560 C   0  0  0  0  0  0  0  0  0  0  0  0
  191.3190  177.0300  145.2330 O   0  0  0  0  0  0  0  0  0  0  0  0
  191.2460  177.0370  146.6550 C   0  0  1  0  0  3  0  0  0  0  0  0
  189.8260  176.7450  147.1110 C   0  0  0  0  0  1  0  0  0  0  0  0
  192.4260  174.9580  146.5850 O   0  0  0  0  0  0  0  0  0  0  0  0
  192.7740  176.2360  148.4910 N   0  0  0  0  0  1  0  0  0  0  0  0
  192.1790  176.0190  147.2180 C   0  0  0  0  0  0  0  0  0  0  0  0
  1  2  2  0  0  0  0
  2 28  1  0  0  0  0
  4  7  2  0  0  0  0
  4  8  1  0  0  0  0
  5  3  1  0  0  0  0
  6  1  1  0  0  0  0
  6  3  2  0  0  0  0
  7  6  1  0  0  0  0
  8  5  2  0  0  0  0
  9  8  1  0  0  0  0
 10 14  1  0  0  0  0
 11 12  2  0  0  0  0
 12 14  1  0  0  0  0
 13 11  1  0  0  0  0
 13 10  2  0  0  0  0
 14  9  1  0  0  0  0
 16 15  2  0  0  0  0
 16  1  1  0  0  0  0
 17 16  1  0  0  0  0
 18 17  1  0  0  0  0
 19 18  2  0  0  0  0
 22 21  1  6  0  0  0
 23 24  2  0  0  0  0
 24 20  1  0  0  0  0
 25 22  1  0  0  0  0
 25 20  1  0  0  0  0
 25 19  1  1  0  0  0
 26 23  1  0  0  0  0
 26 22  1  0  0  0  0
 27 28  2  0  0  0  0
 28 29  1  0  0  0  0
 29 30  1  0  0  0  0
 30 31  1  6  0  0  0
 30 34  1  0  0  0  0
 32 34  2  0  0  0  0
 34 33  1  0  0  0  0
M  END
>  <MODEL>
5

>  <REMARK>
 VINA RESULT:      -7.9      2.333      3.130
  Name = 
  10 active torsions:
  status: ('A' for Active; 'I' for Inactive)
    1  A    between atoms: N_7  and  N_24
    2  A    between atoms: C_12  and  C_18
    3  A    between atoms: O_13  and  C_17
    4  A    between atoms: O_13  and  C_33
    5  A    between atoms: C_16  and  C_30
    6  A    between atoms: C_17  and  C_27
    7  A    between atoms: C_18  and  C_19
    8  A    between atoms: C_25  and  C_28
    9  A    between atoms: C_28  and  N_34
   10  A    between atoms: C_32  and  C_33
                            x       y       z     vdW  Elec       q    Type
                         _______ _______ _______ _____ _____    ______ ____

>  <TORSDO>
F 10

$$$$
=
 OpenBabel10222418193D

 34 36  0  0  1  0  0  0  0  0999 V2000
  189.5200  177.6810  140.8040 C   0  0  0  0  0  0  0  0  0  0  0  0
  188.4840  178.3360  140.2450 C   0  0  0  0  0  3  0  0  0  0  0  0
  190.5600  178.3880  142.9820 C   0  0  0  0  0  3  0  0  0  0  0  0
  188.8120  176.7570  144.4250 C   0  0  0  0  0  3  0  0  0  0  0  0
  190.6400  178.3400  144.3760 C   0  0  0  0  0  3  0  0  0  0  0  0
  189.6070  177.6230  142.2890 C   0  0  0  0  0  0  0  0  0  0  0  0
  188.7330  176.8070  143.0310 C   0  0  0  0  0  3  0  0  0  0  0  0
  189.7630  177.5280  145.0990 C   0  0  0  0  0  0  0  0  0  0  0  0
  189.8680  177.4550  146.5840 C   0  0  0  0  0  2  0  0  0  0  0  0
  191.6780  175.7730  146.2560 C   0  0  0  0  0  3  0  0  0  0  0  0
  192.7170  176.0030  148.0940 C   0  0  0  0  0  3  0  0  0  0  0  0
  191.6960  176.8810  148.1180 N   0  0  0  0  0  0  0  0  0  0  0  0
  192.7330  175.2950  146.9430 N   0  0  0  0  0  0  0  0  0  0  0  0
  191.0670  176.7300  146.9680 N   0  0  0  0  0  0  0  0  0  0  0  0
  191.7760  177.4590  140.0790 O   0  0  0  0  0  0  0  0  0  0  0  0
  190.5850  177.0560  139.9850 C   0  0  0  0  0  0  0  0  0  0  0  0
  190.2700  175.9670  139.1190 N   0  0  0  0  0  2  0  0  0  0  0  0
  191.2590  175.3540  138.3420 N   0  0  0  0  0  0  0  0  0  0  0  0
  191.4380  175.7200  137.1170 C   0  0  0  0  0  3  0  0  0  0  0  0
  193.8280  175.6750  136.6240 C   0  0  0  0  0  2  0  0  0  0  0  0
  191.3210  173.0060  135.9880 F   0  0  0  0  0  0  0  0  0  0  0  0
  192.4960  173.5530  136.4680 C   0  0  2  0  0  3  0  0  0  0  0  0
  194.9180  173.5930  136.1210 N   0  0  0  0  0  0  0  0  0  0  0  0
  194.9550  174.9680  136.5210 C   0  0  0  0  0  3  0  0  0  0  0  0
  192.4920  175.0760  136.2800 C   0  0  1  0  0  3  0  0  0  0  0  0
  193.6740  172.9530  135.7030 C   0  0  0  0  0  2  0  0  0  0  0  0
  188.8050  179.1910  138.0390 O   0  0  0  0  0  0  0  0  0  0  0  0
  188.1460  178.4450  138.8130 C   0  0  0  0  0  0  0  0  0  0  0  0
  187.1070  177.6550  138.3160 O   0  0  0  0  0  0  0  0  0  0  0  0
  186.0060  178.2040  137.6010 C   0  0  1  0  0  3  0  0  0  0  0  0
  185.5680  177.2530  136.4980 C   0  0  0  0  0  1  0  0  0  0  0  0
  184.0500  177.5390  138.8060 O   0  0  0  0  0  0  0  0  0  0  0  0
  184.6920  179.7500  139.0950 N   0  0  0  0  0  1  0  0  0  0  0  0
  184.8680  178.4560  138.5320 C   0  0  0  0  0  0  0  0  0  0  0  0
  1  6  1  0  0  0  0
  2  1  2  0  0  0  0
  3  5  1  0  0  0  0
  4  8  1  0  0  0  0
  5  8  2  0  0  0  0
  6  3  2  0  0  0  0
  6  7  1  0  0  0  0
  7  4  2  0  0  0  0
  8  9  1  0  0  0  0
  9 14  1  0  0  0  0
 10 13  2  0  0  0  0
 10 14  1  0  0  0  0
 11 12  2  0  0  0  0
 13 11  1  0  0  0  0
 14 12  1  0  0  0  0
 16 15  2  0  0  0  0
 16  1  1  0  0  0  0
 17 16  1  0  0  0  0
 18 17  1  0  0  0  0
 19 18  2  0  0  0  0
 22 21  1  6  0  0  0
 23 24  2  0  0  0  0
 24 20  1  0  0  0  0
 25 22  1  0  0  0  0
 25 20  1  0  0  0  0
 25 19  1  1  0  0  0
 26 23  1  0  0  0  0
 26 22  1  0  0  0  0
 27 28  2  0  0  0  0
 28  2  1  0  0  0  0
 29 28  1  0  0  0  0
 30 31  1  6  0  0  0
 30 29  1  0  0  0  0
 30 34  1  0  0  0  0
 34 32  2  0  0  0  0
 34 33  1  0  0  0  0
M  END
>  <MODEL>
6

>  <REMARK>
 VINA RESULT:      -7.8      4.156      8.037
  Name = 
  10 active torsions:
  status: ('A' for Active; 'I' for Inactive)
    1  A    between atoms: N_7  and  N_24
    2  A    between atoms: C_12  and  C_18
    3  A    between atoms: O_13  and  C_17
    4  A    between atoms: O_13  and  C_33
    5  A    between atoms: C_16  and  C_30
    6  A    between atoms: C_17  and  C_27
    7  A    between atoms: C_18  and  C_19
    8  A    between atoms: C_25  and  C_28
    9  A    between atoms: C_28  and  N_34
   10  A    between atoms: C_32  and  C_33
                            x       y       z     vdW  Elec       q    Type
                         _______ _______ _______ _____ _____    ______ ____

>  <TORSDO>
F 10

$$$$
=
 OpenBabel10222418193D

 34 36  0  0  1  0  0  0  0  0999 V2000
  189.2720  177.3380  137.6360 C   0  0  0  0  0  0  0  0  0  0  0  0
  188.2490  177.2650  136.7630 C   0  0  0  0  0  3  0  0  0  0  0  0
  191.6710  176.7720  138.1340 C   0  0  0  0  0  3  0  0  0  0  0  0
  191.9230  175.4020  135.7140 C   0  0  0  0  0  3  0  0  0  0  0  0
  192.8850  176.1690  137.7950 C   0  0  0  0  0  3  0  0  0  0  0  0
  190.5660  176.7000  137.2690 C   0  0  0  0  0  0  0  0  0  0  0  0
  190.7090  176.0050  136.0540 C   0  0  0  0  0  3  0  0  0  0  0  0
  193.0110  175.4800  136.5880 C   0  0  0  0  0  0  0  0  0  0  0  0
  194.3140  174.8620  136.2140 C   0  0  0  0  0  2  0  0  0  0  0  0
  194.6560  173.1660  138.0110 C   0  0  0  0  0  3  0  0  0  0  0  0
  196.2240  174.1050  139.0940 C   0  0  0  0  0  3  0  0  0  0  0  0
  195.9360  174.9150  138.0570 N   0  0  0  0  0  0  0  0  0  0  0  0
  195.4420  173.0030  139.0930 N   0  0  0  0  0  0  0  0  0  0  0  0
  194.9670  174.3140  137.3920 N   0  0  0  0  0  0  0  0  0  0  0  0
  189.0550  179.2540  139.0320 O   0  0  0  0  0  0  0  0  0  0  0  0
  189.1310  177.9970  138.9550 C   0  0  0  0  0  0  0  0  0  0  0  0
  189.0410  177.2060  140.1400 N   0  0  0  0  0  2  0  0  0  0  0  0
  188.8990  177.8040  141.3970 N   0  0  0  0  0  0  0  0  0  0  0  0
  188.4070  177.1290  142.3810 C   0  0  0  0  0  3  0  0  0  0  0  0
  186.8290  177.6000  144.1830 C   0  0  0  0  0  3  0  0  0  0  0  0
  190.5370  177.4380  144.3860 F   0  0  0  0  0  0  0  0  0  0  0  0
  189.2340  177.1390  144.7370 C   0  0  2  0  0  3  0  0  0  0  0  0
  187.5480  177.4940  146.4740 N   0  0  0  0  0  2  0  0  0  0  0  0
  186.5190  177.5030  145.4770 C   0  0  0  0  0  3  0  0  0  0  0  0
  188.2540  177.7530  143.7270 C   0  0  1  0  0  3  0  0  0  0  0  0
  188.9490  177.7070  146.1260 C   0  0  0  0  0  2  0  0  0  0  0  0
  186.5770  178.8380  136.1060 O   0  0  0  0  0  0  0  0  0  0  0  0
  186.9190  177.8940  136.8710 C   0  0  0  0  0  0  0  0  0  0  0  0
  186.0170  177.3840  137.8070 O   0  0  0  0  0  0  0  0  0  0  0  0
  184.7660  178.0040  138.0790 C   0  0  1  0  0  3  0  0  0  0  0  0
  183.7390  176.9600  138.4890 C   0  0  0  0  0  1  0  0  0  0  0  0
  184.3410  180.1280  139.0940 O   0  0  0  0  0  0  0  0  0  0  0  0
  185.7580  178.7250  140.2800 N   0  0  0  0  0  1  0  0  0  0  0  0
  184.9230  179.0130  139.1660 C   0  0  0  0  0  0  0  0  0  0  0  0
  1 16  1  0  0  0  0
  2 28  1  0  0  0  0
  2  1  2  0  0  0  0
  4  7  2  0  0  0  0
  4  8  1  0  0  0  0
  5  3  1  0  0  0  0
  6  1  1  0  0  0  0
  6  3  2  0  0  0  0
  7  6  1  0  0  0  0
  8  5  2  0  0  0  0
  9  8  1  0  0  0  0
  9 14  1  0  0  0  0
 10 13  2  0  0  0  0
 12 11  2  0  0  0  0
 13 11  1  0  0  0  0
 14 10  1  0  0  0  0
 14 12  1  0  0  0  0
 16 15  2  0  0  0  0
 16 17  1  0  0  0  0
 17 18  1  0  0  0  0
 18 19  2  0  0  0  0
 20 24  2  0  0  0  0
 22 21  1  6  0  0  0
 22 26  1  0  0  0  0
 24 23  1  0  0  0  0
 25 19  1  6  0  0  0
 25 20  1  0  0  0  0
 25 22  1  0  0  0  0
 26 23  1  0  0  0  0
 27 28  2  0  0  0  0
 28 29  1  0  0  0  0
 29 30  1  0  0  0  0
 30 31  1  1  0  0  0
 30 34  1  0  0  0  0
 32 34  2  0  0  0  0
 34 33  1  0  0  0  0
M  END
>  <MODEL>
7

>  <REMARK>
 VINA RESULT:      -7.6      4.062     10.288
  Name = 
  10 active torsions:
  status: ('A' for Active; 'I' for Inactive)
    1  A    between atoms: N_7  and  N_24
    2  A    between atoms: C_12  and  C_18
    3  A    between atoms: O_13  and  C_17
    4  A    between atoms: O_13  and  C_33
    5  A    between atoms: C_16  and  C_30
    6  A    between atoms: C_17  and  C_27
    7  A    between atoms: C_18  and  C_19
    8  A    between atoms: C_25  and  C_28
    9  A    between atoms: C_28  and  N_34
   10  A    between atoms: C_32  and  C_33
                            x       y       z     vdW  Elec       q    Type
                         _______ _______ _______ _____ _____    ______ ____

>  <TORSDO>
F 10

$$$$
=
 OpenBabel10222418193D

 34 36  0  0  1  0  0  0  0  0999 V2000
  183.5020  178.5440  142.3090 C   0  0  0  0  0  0  0  0  0  0  0  0
  182.2340  178.9020  142.5910 C   0  0  0  0  0  3  0  0  0  0  0  0
  185.7090  177.7760  143.2390 C   0  0  0  0  0  3  0  0  0  0  0  0
  185.0810  178.8030  145.7600 C   0  0  0  0  0  3  0  0  0  0  0  0
  186.6210  177.6550  144.2900 C   0  0  0  0  0  3  0  0  0  0  0  0
  184.4700  178.4110  143.4320 C   0  0  0  0  0  0  0  0  0  0  0  0
  184.1700  178.9230  144.7080 C   0  0  0  0  0  3  0  0  0  0  0  0
  186.3110  178.1720  145.5500 C   0  0  0  0  0  0  0  0  0  0  0  0
  187.2730  178.0170  146.6770 C   0  0  0  0  0  2  0  0  0  0  0  0
  189.4910  176.8790  146.7120 C   0  0  0  0  0  3  0  0  0  0  0  0
  190.3810  177.7790  145.0050 C   0  0  0  0  0  3  0  0  0  0  0  0
  189.1410  178.2950  145.1090 N   0  0  0  0  0  0  0  0  0  0  0  0
  190.6300  176.8900  145.9930 N   0  0  0  0  0  0  0  0  0  0  0  0
  188.6010  177.7210  146.1670 N   0  0  0  0  0  0  0  0  0  0  0  0
  183.5230  177.3430  140.2540 O   0  0  0  0  0  0  0  0  0  0  0  0
  183.9620  178.3200  140.9190 C   0  0  0  0  0  0  0  0  0  0  0  0
  184.8750  179.2360  140.3150 N   0  0  0  0  0  2  0  0  0  0  0  0
  185.3190  179.0530  139.0010 N   0  0  0  0  0  0  0  0  0  0  0  0
  186.4190  178.4160  138.7740 C   0  0  0  0  0  3  0  0  0  0  0  0
  188.3700  178.5220  137.3120 C   0  0  0  0  0  2  0  0  0  0  0  0
  185.2460  176.5740  136.8020 F   0  0  0  0  0  0  0  0  0  0  0  0
  186.6100  176.7820  136.8950 C   0  0  2  0  0  3  0  0  0  0  0  0
  188.6640  176.8910  135.5710 N   0  0  0  0  0  0  0  0  0  0  0  0
  189.1750  177.9080  136.4420 C   0  0  0  0  0  3  0  0  0  0  0  0
  186.9000  178.2100  137.3780 C   0  0  1  0  0  3  0  0  0  0  0  0
  187.2400  176.5750  135.5200 C   0  0  0  0  0  2  0  0  0  0  0  0
  180.1750  178.1390  141.6530 O   0  0  0  0  0  0  0  0  0  0  0  0
  181.0930  179.0040  141.6610 C   0  0  0  0  0  0  0  0  0  0  0  0
  181.0200  180.1180  140.8220 O   0  0  0  0  0  0  0  0  0  0  0  0
  180.4790  180.0500  139.5080 C   0  0  1  0  0  3  0  0  0  0  0  0
  179.3830  181.0890  139.3350 C   0  0  0  0  0  1  0  0  0  0  0  0
  181.5570  179.6430  137.4120 O   0  0  0  0  0  0  0  0  0  0  0  0
  182.6020  181.1960  138.7840 N   0  0  0  0  0  1  0  0  0  0  0  0
  181.5560  180.2760  138.5010 C   0  0  0  0  0  0  0  0  0  0  0  0
  1  2  2  0  0  0  0
  1  6  1  0  0  0  0
  3  6  2  0  0  0  0
  3  5  1  0  0  0  0
  5  8  2  0  0  0  0
  6  7  1  0  0  0  0
  7  4  2  0  0  0  0
  8  4  1  0  0  0  0
  8  9  1  0  0  0  0
 11 12  2  0  0  0  0
 11 13  1  0  0  0  0
 12 14  1  0  0  0  0
 13 10  2  0  0  0  0
 14  9  1  0  0  0  0
 14 10  1  0  0  0  0
 15 16  2  0  0  0  0
 16  1  1  0  0  0  0
 17 16  1  0  0  0  0
 18 17  1  0  0  0  0
 19 18  2  0  0  0  0
 20 25  1  0  0  0  0
 22 21  1  6  0  0  0
 22 25  1  0  0  0  0
 23 24  2  0  0  0  0
 24 20  1  0  0  0  0
 25 19  1  1  0  0  0
 26 23  1  0  0  0  0
 26 22  1  0  0  0  0
 27 28  2  0  0  0  0
 28  2  1  0  0  0  0
 29 28  1  0  0  0  0
 30 31  1  1  0  0  0
 30 29  1  0  0  0  0
 32 34  2  0  0  0  0
 34 33  1  0  0  0  0
 34 30  1  0  0  0  0
M  END
>  <MODEL>
8

>  <REMARK>
 VINA RESULT:      -7.6      3.661      7.513
  Name = 
  10 active torsions:
  status: ('A' for Active; 'I' for Inactive)
    1  A    between atoms: N_7  and  N_24
    2  A    between atoms: C_12  and  C_18
    3  A    between atoms: O_13  and  C_17
    4  A    between atoms: O_13  and  C_33
    5  A    between atoms: C_16  and  C_30
    6  A    between atoms: C_17  and  C_27
    7  A    between atoms: C_18  and  C_19
    8  A    between atoms: C_25  and  C_28
    9  A    between atoms: C_28  and  N_34
   10  A    between atoms: C_32  and  C_33
                            x       y       z     vdW  Elec       q    Type
                         _______ _______ _______ _____ _____    ______ ____

>  <TORSDO>
F 10

$$$$
=
 OpenBabel10222418193D

 34 36  0  0  1  0  0  0  0  0999 V2000
  190.3340  177.6690  141.2800 C   0  0  0  0  0  0  0  0  0  0  0  0
  190.9600  177.7400  142.4700 C   0  0  0  0  0  3  0  0  0  0  0  0
  192.4420  177.3150  139.9540 C   0  0  0  0  0  3  0  0  0  0  0  0
  191.0920  175.7190  138.1030 C   0  0  0  0  0  3  0  0  0  0  0  0
  193.1340  176.7600  138.8740 C   0  0  0  0  0  3  0  0  0  0  0  0
  191.0670  177.0820  140.1240 C   0  0  0  0  0  0  0  0  0  0  0  0
  190.4020  176.2740  139.1840 C   0  0  0  0  0  3  0  0  0  0  0  0
  192.4610  175.9580  137.9500 C   0  0  0  0  0  0  0  0  0  0  0  0
  193.1930  175.3900  136.7830 C   0  0  0  0  0  2  0  0  0  0  0  0
  194.4450  173.5900  137.9700 C   0  0  0  0  0  3  0  0  0  0  0  0
  196.4340  174.2460  137.6170 C   0  0  0  0  0  3  0  0  0  0  0  0
  195.6240  175.1320  137.0060 N   0  0  0  0  0  0  0  0  0  0  0  0
  195.7280  173.2690  138.2280 N   0  0  0  0  0  0  0  0  0  0  0  0
  194.3950  174.7060  137.2290 N   0  0  0  0  0  0  0  0  0  0  0  0
  188.7160  178.9940  140.1430 O   0  0  0  0  0  0  0  0  0  0  0  0
  188.9610  178.1900  141.0840 C   0  0  0  0  0  0  0  0  0  0  0  0
  187.9050  177.7500  141.9360 N   0  0  0  0  0  2  0  0  0  0  0  0
  186.5980  178.2200  141.7660 N   0  0  0  0  0  0  0  0  0  0  0  0
  185.9260  178.6420  142.7850 C   0  0  0  0  0  3  0  0  0  0  0  0
  184.0250  178.7520  141.2580 C   0  0  0  0  0  3  0  0  0  0  0  0
  184.0040  179.1480  144.9540 F   0  0  0  0  0  0  0  0  0  0  0  0
  183.6150  178.6310  143.7320 C   0  0  2  0  0  3  0  0  0  0  0  0
  181.7820  178.6140  142.1120 N   0  0  0  0  0  2  0  0  0  0  0  0
  182.7270  178.5270  141.0390 C   0  0  0  0  0  3  0  0  0  0  0  0
  184.5330  179.1500  142.6160 C   0  0  1  0  0  3  0  0  0  0  0  0
  182.1780  179.0600  143.4440 C   0  0  0  0  0  2  0  0  0  0  0  0
  190.5380  179.3860  144.1470 O   0  0  0  0  0  0  0  0  0  0  0  0
  190.4060  178.1930  143.7600 C   0  0  0  0  0  0  0  0  0  0  0  0
  189.6780  177.2790  144.5260 O   0  0  0  0  0  0  0  0  0  0  0  0
  188.8730  177.6780  145.6300 C   0  0  1  0  0  3  0  0  0  0  0  0
  187.4540  177.1600  145.4610 C   0  0  0  0  0  1  0  0  0  0  0  0
  190.6440  176.7410  146.9360 O   0  0  0  0  0  0  0  0  0  0  0  0
  188.6540  177.1040  148.0730 N   0  0  0  0  0  1  0  0  0  0  0  0
  189.4560  177.1560  146.9000 C   0  0  0  0  0  0  0  0  0  0  0  0
  1  2  2  0  0  0  0
  2 28  1  0  0  0  0
  3  6  1  0  0  0  0
  4  7  1  0  0  0  0
  5  3  2  0  0  0  0
  6  1  1  0  0  0  0
  7  6  2  0  0  0  0
  8  4  2  0  0  0  0
  8  5  1  0  0  0  0
  9 14  1  0  0  0  0
  9  8  1  0  0  0  0
 10 13  2  0  0  0  0
 11 13  1  0  0  0  0
 12 14  1  0  0  0  0
 12 11  2  0  0  0  0
 14 10  1  0  0  0  0
 15 16  2  0  0  0  0
 16  1  1  0  0  0  0
 16 17  1  0  0  0  0
 18 17  1  0  0  0  0
 18 19  2  0  0  0  0
 20 25  1  0  0  0  0
 22 21  1  1  0  0  0
 23 26  1  0  0  0  0
 24 20  2  0  0  0  0
 24 23  1  0  0  0  0
 25 19  1  1  0  0  0
 25 22  1  0  0  0  0
 26 22  1  0  0  0  0
 28 27  2  0  0  0  0
 28 29  1  0  0  0  0
 29 30  1  0  0  0  0
 30 31  1  6  0  0  0
 30 34  1  0  0  0  0
 34 32  2  0  0  0  0
 34 33  1  0  0  0  0
M  END
>  <MODEL>
9

>  <REMARK>
 VINA RESULT:      -7.6      2.922      9.045
  Name = 
  10 active torsions:
  status: ('A' for Active; 'I' for Inactive)
    1  A    between atoms: N_7  and  N_24
    2  A    between atoms: C_12  and  C_18
    3  A    between atoms: O_13  and  C_17
    4  A    between atoms: O_13  and  C_33
    5  A    between atoms: C_16  and  C_30
    6  A    between atoms: C_17  and  C_27
    7  A    between atoms: C_18  and  C_19
    8  A    between atoms: C_25  and  C_28
    9  A    between atoms: C_28  and  N_34
   10  A    between atoms: C_32  and  C_33
                            x       y       z     vdW  Elec       q    Type
                         _______ _______ _______ _____ _____    ______ ____

>  <TORSDO>
F 10

$$$$
