=
 OpenBabel10222417373D

 49 53  0  0  1  0  0  0  0  0999 V2000
  184.6850  178.9650  140.7440 C   0  0  0  0  0  0  0  0  0  0  0  0
  185.8950  178.9860  140.3890 O   0  0  0  0  0  0  0  0  0  0  0  0
  184.2940  178.3710  142.0610 C   0  0  2  0  0  3  0  0  0  0  0  0
  182.9460  178.6330  142.3210 O   0  0  0  0  0  1  0  0  0  0  0  0
  185.0600  180.3060  143.2320 F   0  0  0  0  0  0  0  0  0  0  0  0
  185.1650  178.9250  143.1860 C   0  0  1  0  0  3  0  0  0  0  0  0
  186.1790  177.6600  146.3080 N   0  0  0  0  0  0  0  0  0  0  0  0
  185.7780  177.2930  144.9660 C   0  0  0  0  0  2  0  0  0  0  0  0
  184.7210  179.3170  145.5210 O   0  0  0  0  0  0  0  0  0  0  0  0
  185.2510  178.7190  146.6740 C   0  0  0  0  0  2  0  0  0  0  0  0
  184.7690  178.3240  144.5340 C   0  0  1  0  0  3  0  0  0  0  0  0
  187.4990  178.2680  146.2130 C   0  0  0  0  0  2  0  0  0  0  0  0
  188.5390  177.3890  146.9000 C   0  0  2  0  0  3  0  0  0  0  0  0
  189.0030  177.9890  148.1960 C   0  0  0  0  0  3  0  0  0  0  0  0
  188.2210  178.1660  149.1150 O   0  0  0  0  0  0  0  0  0  0  0  0
  189.6940  177.0520  145.9460 C   0  0  1  0  0  3  0  0  0  0  0  0
  189.1670  177.5920  143.5180 C   0  0  0  0  0  2  0  0  0  0  0  0
  190.1140  175.2060  142.6630 O   0  0  0  0  0  0  0  0  0  0  0  0
  190.4240  177.1510  141.1640 O   0  0  0  0  0  0  0  0  0  0  0  0
  189.8900  178.0530  144.7840 C   0  0  2  0  0  3  0  0  0  0  0  0
  191.8170  177.1310  143.4810 C   0  0  0  0  0  2  0  0  0  0  0  0
  191.5830  179.4740  143.8520 O   0  0  0  0  0  1  0  0  0  0  0  0
  190.3640  176.6860  142.5900 S   0  0  0  0  0  0  0  0  0  0  0  0
  191.3830  178.2280  144.4450 C   0  0  1  0  0  3  0  0  0  0  0  0
  190.9290  176.8960  146.7290 C   0  0  0  0  0  0  0  0  0  0  0  0
  191.8980  176.7710  147.3480 N   0  0  0  0  0  0  0  0  0  0  0  0
  183.6850  179.4310  139.8900 O   0  0  0  0  0  0  0  0  0  0  0  0
  183.3270  178.7400  138.7010 C   0  0  2  0  0  3  0  0  0  0  0  0
  182.0220  179.2580  138.1840 C   0  0  0  0  0  0  0  0  0  0  0  0
  181.6760  179.0190  137.0360 O   0  0  0  0  0  0  0  0  0  0  0  0
  181.1440  180.0690  139.0850 C   0  0  2  0  0  3  0  0  0  0  0  0
  179.9650  179.3830  139.3190 F   0  0  0  0  0  0  0  0  0  0  0  0
  179.8600  182.0820  139.2070 O   0  0  0  0  0  1  0  0  0  0  0  0
  182.0050  182.2130  138.4630 O   0  0  0  0  0  1  0  0  0  0  0  0
  180.8480  181.4310  138.4690 C   0  0  0  0  0  3  0  0  0  0  0  0
  183.2240  177.2510  138.9840 C   0  0  0  0  0  2  0  0  0  0  0  0
  183.7740  176.4640  137.8110 C   0  0  0  0  0  2  0  0  0  0  0  0
  184.9790  177.1790  137.2280 C   0  0  0  0  0  2  0  0  0  0  0  0
  185.7460  173.5410  136.7540 C   0  0  0  0  0  2  0  0  0  0  0  0
  188.4030  174.1900  137.0420 O   0  0  0  0  0  0  0  0  0  0  0  0
  186.0260  174.8900  136.9500 C   0  0  0  0  0  0  0  0  0  0  0  0
  187.0660  173.9560  136.9090 C   0  0  0  0  0  0  0  0  0  0  0  0
  190.2460  177.3790  137.6230 C   0  0  0  0  0  3  0  0  0  0  0  0
  188.6340  175.6010  137.2540 C   0  0  0  0  0  0  0  0  0  0  0  0
  187.8920  177.9570  137.5330 C   0  0  0  0  0  3  0  0  0  0  0  0
  187.5410  176.6200  137.3130 C   0  0  0  0  0  0  0  0  0  0  0  0
  189.2280  178.3300  137.6870 C   0  0  0  0  0  3  0  0  0  0  0  0
  186.1140  176.2700  137.1360 N   0  0  0  0  0  0  0  0  0  0  0  0
  189.9540  176.0310  137.4100 C   0  0  0  0  0  3  0  0  0  0  0  0
  1  3  1  0  0  0  0
  2  1  2  0  0  0  0
  3  4  1  1  0  0  0
  3  6  1  0  0  0  0
  6  5  1  1  0  0  0
  7 10  1  0  0  0  0
  8  7  1  0  0  0  0
  9 10  1  0  0  0  0
 11  6  1  6  0  0  0
 11  8  1  0  0  0  0
 11  9  1  0  0  0  0
 12  7  1  0  0  0  0
 13 12  1  6  0  0  0
 13 14  1  0  0  0  0
 14 15  2  0  0  0  0
 16 25  1  1  0  0  0
 16 13  1  0  0  0  0
 17 20  1  0  0  0  0
 19 23  2  0  0  0  0
 20 16  1  1  0  0  0
 21 24  1  0  0  0  0
 23 18  2  0  0  0  0
 23 21  1  0  0  0  0
 23 17  1  0  0  0  0
 24 22  1  6  0  0  0
 24 20  1  0  0  0  0
 25 26  3  0  0  0  0
 27  1  1  0  0  0  0
 28 36  1  1  0  0  0
 28 27  1  0  0  0  0
 29 28  1  0  0  0  0
 29 31  1  0  0  0  0
 30 29  2  0  0  0  0
 31 32  1  6  0  0  0
 34 35  1  0  0  0  0
 35 31  1  0  0  0  0
 35 33  1  0  0  0  0
 37 36  1  0  0  0  0
 38 37  1  0  0  0  0
 39 42  1  0  0  0  0
 39 41  1  0  0  0  0
 40 44  1  0  0  0  0
 41 48  1  0  0  0  0
 42 41  2  0  0  0  0
 42 40  1  0  0  0  0
 43 47  1  0  0  0  0
 44 46  2  0  0  0  0
 44 49  1  0  0  0  0
 45 47  2  0  0  0  0
 46 45  1  0  0  0  0
 48 38  1  0  0  0  0
 48 46  1  0  0  0  0
 49 43  2  0  0  0  0
M  END
>  <MODEL>
1

>  <REMARK>
 VINA RESULT:      -7.8      0.000      0.000
  Name = 
  18 active torsions:
  status: ('A' for Active; 'I' for Inactive)
    1  A    between atoms: C_1  and  C_17
    2  A    between atoms: C_1  and  C_37
    3  A    between atoms: C_6  and  C_41
    4  A    between atoms: N_7  and  C_42
    5  A    between atoms: C_9  and  C_41
    6  A    between atoms: C_10  and  C_13
    7  A    between atoms: C_10  and  O_39
    8  A    between atoms: C_13  and  C_22
    9  A    between atoms: C_17  and  C_38
   10  A    between atoms: C_22  and  C_47
   11  A    between atoms: C_26  and  C_43
   12  A    between atoms: C_26  and  C_44
   13  A    between atoms: N_31  and  C_44
   14  A    between atoms: C_33  and  C_34
   15  A    between atoms: C_33  and  C_41
   16  A    between atoms: C_33  and  C_42
   17  A    between atoms: C_38  and  O_39
   18  A    between atoms: C_38  and  C_43
                            x       y       z     vdW  Elec       q    Type
                         _______ _______ _______ _____ _____    ______ ____

>  <TORSDO>
F 18

$$$$
=
 OpenBabel10222417373D

 49 53  0  0  1  0  0  0  0  0999 V2000
  185.1910  179.0900  140.9580 C   0  0  0  0  0  0  0  0  0  0  0  0
  186.4230  178.9900  140.7050 O   0  0  0  0  0  0  0  0  0  0  0  0
  184.6210  178.4750  142.1960 C   0  0  2  0  0  3  0  0  0  0  0  0
  183.2310  178.6220  142.2070 O   0  0  0  0  0  1  0  0  0  0  0  0
  184.8330  180.4350  143.5450 F   0  0  0  0  0  0  0  0  0  0  0  0
  185.2270  179.1100  143.4460 C   0  0  1  0  0  3  0  0  0  0  0  0
  186.2050  177.5150  146.4240 N   0  0  0  0  0  0  0  0  0  0  0  0
  185.8450  177.2970  145.0390 C   0  0  0  0  0  2  0  0  0  0  0  0
  184.7210  179.2160  145.7980 O   0  0  0  0  0  0  0  0  0  0  0  0
  185.2410  178.5000  146.8870 C   0  0  0  0  0  2  0  0  0  0  0  0
  184.8170  178.3460  144.7040 C   0  0  1  0  0  3  0  0  0  0  0  0
  187.5100  178.1620  146.4350 C   0  0  0  0  0  2  0  0  0  0  0  0
  188.5750  177.2020  146.9530 C   0  0  2  0  0  3  0  0  0  0  0  0
  189.0950  177.6240  148.2970 C   0  0  0  0  0  3  0  0  0  0  0  0
  188.4030  178.2850  149.0520 O   0  0  0  0  0  0  0  0  0  0  0  0
  189.6880  176.9990  145.9140 C   0  0  1  0  0  3  0  0  0  0  0  0
  189.0430  177.6000  143.5290 C   0  0  0  0  0  2  0  0  0  0  0  0
  190.2210  175.3790  142.5290 O   0  0  0  0  0  0  0  0  0  0  0  0
  190.2780  177.4200  141.1300 O   0  0  0  0  0  0  0  0  0  0  0  0
  189.7430  178.0730  144.8030 C   0  0  2  0  0  3  0  0  0  0  0  0
  191.7250  177.4370  143.4150 C   0  0  0  0  0  2  0  0  0  0  0  0
  191.2470  179.7180  143.9140 O   0  0  0  0  0  1  0  0  0  0  0  0
  190.3060  176.8790  142.5310 S   0  0  0  0  0  0  0  0  0  0  0  0
  191.1990  178.4290  144.4440 C   0  0  1  0  0  3  0  0  0  0  0  0
  190.9780  176.8880  146.6130 C   0  0  0  0  0  0  0  0  0  0  0  0
  191.9890  176.8000  147.1660 N   0  0  0  0  0  0  0  0  0  0  0  0
  184.3290  179.7150  140.0560 O   0  0  0  0  0  0  0  0  0  0  0  0
  184.1020  179.2020  138.7500 C   0  0  2  0  0  3  0  0  0  0  0  0
  182.6360  179.0170  138.5230 C   0  0  0  0  0  0  0  0  0  0  0  0
  182.1400  177.9000  138.5720 O   0  0  0  0  0  0  0  0  0  0  0  0
  181.7790  180.2110  138.2360 C   0  0  2  0  0  3  0  0  0  0  0  0
  182.4770  181.3650  138.5520 F   0  0  0  0  0  0  0  0  0  0  0  0
  180.7510  180.2080  140.3940 O   0  0  0  0  0  1  0  0  0  0  0  0
  179.6550  181.2180  138.6770 O   0  0  0  0  0  1  0  0  0  0  0  0
  180.4790  180.1480  139.0270 C   0  0  0  0  0  3  0  0  0  0  0  0
  184.8280  177.8770  138.5870 C   0  0  0  0  0  2  0  0  0  0  0  0
  185.5960  177.8670  137.2810 C   0  0  0  0  0  2  0  0  0  0  0  0
  186.2150  176.4990  137.0540 C   0  0  0  0  0  2  0  0  0  0  0  0
  188.9380  178.9500  137.8480 C   0  0  0  0  0  2  0  0  0  0  0  0
  190.7220  176.8800  137.5380 O   0  0  0  0  0  0  0  0  0  0  0  0
  188.3850  177.7100  137.5400 C   0  0  0  0  0  0  0  0  0  0  0  0
  189.7700  177.8480  137.6740 C   0  0  0  0  0  0  0  0  0  0  0  0
  190.3780  173.2610  136.7080 C   0  0  0  0  0  3  0  0  0  0  0  0
  190.0940  175.6200  137.2090 C   0  0  0  0  0  0  0  0  0  0  0  0
  188.1320  174.1760  136.7190 C   0  0  0  0  0  3  0  0  0  0  0  0
  188.6180  175.4460  137.0490 C   0  0  0  0  0  0  0  0  0  0  0  0
  189.0010  173.0980  136.5510 C   0  0  0  0  0  3  0  0  0  0  0  0
  187.6590  176.5580  137.2370 N   0  0  0  0  0  0  0  0  0  0  0  0
  190.9190  174.5060  137.0330 C   0  0  0  0  0  3  0  0  0  0  0  0
  1  3  1  0  0  0  0
  2  1  2  0  0  0  0
  3  4  1  1  0  0  0
  3  6  1  0  0  0  0
  6  5  1  1  0  0  0
  7 12  1  0  0  0  0
  7 10  1  0  0  0  0
  8  7  1  0  0  0  0
  9 10  1  0  0  0  0
 11  6  1  6  0  0  0
 11  8  1  0  0  0  0
 11  9  1  0  0  0  0
 13 12  1  6  0  0  0
 13 14  1  0  0  0  0
 14 15  2  0  0  0  0
 16 25  1  1  0  0  0
 16 13  1  0  0  0  0
 17 20  1  0  0  0  0
 18 23  2  0  0  0  0
 19 23  2  0  0  0  0
 20 16  1  1  0  0  0
 21 24  1  0  0  0  0
 23 21  1  0  0  0  0
 23 17  1  0  0  0  0
 24 22  1  6  0  0  0
 24 20  1  0  0  0  0
 25 26  3  0  0  0  0
 27  1  1  0  0  0  0
 28 36  1  1  0  0  0
 28 27  1  0  0  0  0
 29 30  2  0  0  0  0
 29 28  1  0  0  0  0
 31 29  1  0  0  0  0
 31 32  1  1  0  0  0
 31 35  1  0  0  0  0
 34 35  1  0  0  0  0
 35 33  1  0  0  0  0
 37 36  1  0  0  0  0
 38 48  1  0  0  0  0
 38 37  1  0  0  0  0
 40 42  1  0  0  0  0
 41 42  2  0  0  0  0
 41 39  1  0  0  0  0
 42 39  1  0  0  0  0
 43 49  1  0  0  0  0
 44 40  1  0  0  0  0
 45 46  2  0  0  0  0
 46 44  1  0  0  0  0
 46 48  1  0  0  0  0
 47 43  2  0  0  0  0
 47 45  1  0  0  0  0
 48 41  1  0  0  0  0
 49 44  2  0  0  0  0
M  END
>  <MODEL>
2

>  <REMARK>
 VINA RESULT:      -7.7      1.166      2.059
  Name = 
  18 active torsions:
  status: ('A' for Active; 'I' for Inactive)
    1  A    between atoms: C_1  and  C_17
    2  A    between atoms: C_1  and  C_37
    3  A    between atoms: C_6  and  C_41
    4  A    between atoms: N_7  and  C_42
    5  A    between atoms: C_9  and  C_41
    6  A    between atoms: C_10  and  C_13
    7  A    between atoms: C_10  and  O_39
    8  A    between atoms: C_13  and  C_22
    9  A    between atoms: C_17  and  C_38
   10  A    between atoms: C_22  and  C_47
   11  A    between atoms: C_26  and  C_43
   12  A    between atoms: C_26  and  C_44
   13  A    between atoms: N_31  and  C_44
   14  A    between atoms: C_33  and  C_34
   15  A    between atoms: C_33  and  C_41
   16  A    between atoms: C_33  and  C_42
   17  A    between atoms: C_38  and  O_39
   18  A    between atoms: C_38  and  C_43
                            x       y       z     vdW  Elec       q    Type
                         _______ _______ _______ _____ _____    ______ ____

>  <TORSDO>
F 18

$$$$
=
 OpenBabel10222417373D

 49 53  0  0  1  0  0  0  0  0999 V2000
  185.1700  179.0130  140.0690 C   0  0  0  0  0  0  0  0  0  0  0  0
  184.5480  180.0490  139.7080 O   0  0  0  0  0  0  0  0  0  0  0  0
  184.7650  178.2800  141.3090 C   0  0  2  0  0  3  0  0  0  0  0  0
  183.4070  178.4900  141.5660 O   0  0  0  0  0  1  0  0  0  0  0  0
  185.7280  180.1100  142.5040 F   0  0  0  0  0  0  0  0  0  0  0  0
  185.6030  178.7300  142.5030 C   0  0  1  0  0  3  0  0  0  0  0  0
  186.0700  177.7920  145.8610 N   0  0  0  0  0  0  0  0  0  0  0  0
  185.9000  177.2900  144.5140 C   0  0  0  0  0  2  0  0  0  0  0  0
  184.7730  179.3440  144.6790 O   0  0  0  0  0  0  0  0  0  0  0  0
  185.0980  178.8700  145.9590 C   0  0  0  0  0  2  0  0  0  0  0  0
  184.9820  178.2590  143.8180 C   0  0  1  0  0  3  0  0  0  0  0  0
  187.3890  178.4050  145.9310 C   0  0  0  0  0  2  0  0  0  0  0  0
  188.3640  177.4870  146.6610 C   0  0  2  0  0  3  0  0  0  0  0  0
  188.7470  178.0390  148.0030 C   0  0  0  0  0  3  0  0  0  0  0  0
  188.0540  177.8270  148.9840 O   0  0  0  0  0  0  0  0  0  0  0  0
  189.5770  177.1560  145.7780 C   0  0  1  0  0  3  0  0  0  0  0  0
  189.2310  177.7890  143.3400 C   0  0  0  0  0  2  0  0  0  0  0  0
  190.1820  175.4100  142.4690 O   0  0  0  0  0  0  0  0  0  0  0  0
  190.6370  177.3970  141.0640 O   0  0  0  0  0  0  0  0  0  0  0  0
  189.8740  178.1900  144.6680 C   0  0  2  0  0  3  0  0  0  0  0  0
  191.8660  177.2670  143.4690 C   0  0  0  0  0  2  0  0  0  0  0  0
  191.6570  179.6010  143.9040 O   0  0  0  0  0  1  0  0  0  0  0  0
  190.4690  176.8860  142.4660 S   0  0  0  0  0  0  0  0  0  0  0  0
  191.3900  178.3410  144.4390 C   0  0  1  0  0  3  0  0  0  0  0  0
  190.7500  176.9470  146.6410 C   0  0  0  0  0  0  0  0  0  0  0  0
  191.6710  176.7860  147.3210 N   0  0  0  0  0  0  0  0  0  0  0  0
  186.2890  178.5720  139.3600 O   0  0  0  0  0  0  0  0  0  0  0  0
  186.1720  177.8110  138.1650 C   0  0  2  0  0  3  0  0  0  0  0  0
  187.2480  178.2050  137.2040 C   0  0  0  0  0  0  0  0  0  0  0  0
  187.4840  179.3860  136.9930 O   0  0  0  0  0  0  0  0  0  0  0  0
  188.0340  177.1400  136.5030 C   0  0  2  0  0  3  0  0  0  0  0  0
  187.3780  176.7730  135.3410 F   0  0  0  0  0  0  0  0  0  0  0  0
  188.3230  174.7700  136.6330 O   0  0  0  0  0  1  0  0  0  0  0  0
  189.3930  176.0740  138.1580 O   0  0  0  0  0  1  0  0  0  0  0  0
  188.2270  175.9280  137.4050 C   0  0  0  0  0  3  0  0  0  0  0  0
  184.8050  178.0410  137.5430 C   0  0  0  0  0  2  0  0  0  0  0  0
  184.0280  176.7400  137.5100 C   0  0  0  0  0  2  0  0  0  0  0  0
  182.5950  177.0030  137.0850 C   0  0  0  0  0  2  0  0  0  0  0  0
  180.8040  175.4140  139.9690 C   0  0  0  0  0  2  0  0  0  0  0  0
  179.9370  177.9310  140.6590 O   0  0  0  0  0  0  0  0  0  0  0  0
  181.2450  176.4540  139.1560 C   0  0  0  0  0  0  0  0  0  0  0  0
  180.4120  176.7200  140.2470 C   0  0  0  0  0  0  0  0  0  0  0  0
  180.4530  181.3350  139.2270 C   0  0  0  0  0  3  0  0  0  0  0  0
  180.4160  178.9700  139.7750 C   0  0  0  0  0  0  0  0  0  0  0  0
  181.6870  179.8030  137.8090 C   0  0  0  0  0  3  0  0  0  0  0  0
  181.2980  178.7130  138.5950 C   0  0  0  0  0  0  0  0  0  0  0  0
  181.2690  181.0970  138.1210 C   0  0  0  0  0  3  0  0  0  0  0  0
  181.7790  177.3600  138.2390 N   0  0  0  0  0  0  0  0  0  0  0  0
  180.0310  180.2850  140.0440 C   0  0  0  0  0  3  0  0  0  0  0  0
  1  3  1  0  0  0  0
  2  1  2  0  0  0  0
  3  4  1  1  0  0  0
  3  6  1  0  0  0  0
  6  5  1  1  0  0  0
  7 12  1  0  0  0  0
  7 10  1  0  0  0  0
  8  7  1  0  0  0  0
  9 10  1  0  0  0  0
 11  6  1  6  0  0  0
 11  8  1  0  0  0  0
 11  9  1  0  0  0  0
 13 12  1  6  0  0  0
 13 14  1  0  0  0  0
 14 15  2  0  0  0  0
 16 25  1  1  0  0  0
 16 13  1  0  0  0  0
 17 20  1  0  0  0  0
 19 23  2  0  0  0  0
 20 16  1  1  0  0  0
 21 24  1  0  0  0  0
 23 18  2  0  0  0  0
 23 17  1  0  0  0  0
 23 21  1  0  0  0  0
 24 22  1  6  0  0  0
 24 20  1  0  0  0  0
 25 26  3  0  0  0  0
 27  1  1  0  0  0  0
 28 36  1  6  0  0  0
 28 27  1  0  0  0  0
 29 28  1  0  0  0  0
 30 29  2  0  0  0  0
 31 32  1  6  0  0  0
 31 29  1  0  0  0  0
 31 35  1  0  0  0  0
 33 35  1  0  0  0  0
 35 34  1  0  0  0  0
 37 36  1  0  0  0  0
 38 37  1  0  0  0  0
 38 48  1  0  0  0  0
 39 42  1  0  0  0  0
 41 39  1  0  0  0  0
 41 42  2  0  0  0  0
 42 40  1  0  0  0  0
 43 49  1  0  0  0  0
 44 49  2  0  0  0  0
 44 40  1  0  0  0  0
 45 47  1  0  0  0  0
 45 46  2  0  0  0  0
 46 44  1  0  0  0  0
 47 43  2  0  0  0  0
 48 46  1  0  0  0  0
 48 41  1  0  0  0  0
M  END
>  <MODEL>
3

>  <REMARK>
 VINA RESULT:      -7.7      1.923      5.121
  Name = 
  18 active torsions:
  status: ('A' for Active; 'I' for Inactive)
    1  A    between atoms: C_1  and  C_17
    2  A    between atoms: C_1  and  C_37
    3  A    between atoms: C_6  and  C_41
    4  A    between atoms: N_7  and  C_42
    5  A    between atoms: C_9  and  C_41
    6  A    between atoms: C_10  and  C_13
    7  A    between atoms: C_10  and  O_39
    8  A    between atoms: C_13  and  C_22
    9  A    between atoms: C_17  and  C_38
   10  A    between atoms: C_22  and  C_47
   11  A    between atoms: C_26  and  C_43
   12  A    between atoms: C_26  and  C_44
   13  A    between atoms: N_31  and  C_44
   14  A    between atoms: C_33  and  C_34
   15  A    between atoms: C_33  and  C_41
   16  A    between atoms: C_33  and  C_42
   17  A    between atoms: C_38  and  O_39
   18  A    between atoms: C_38  and  C_43
                            x       y       z     vdW  Elec       q    Type
                         _______ _______ _______ _____ _____    ______ ____

>  <TORSDO>
F 18

$$$$
=
 OpenBabel10222417373D

 49 53  0  0  1  0  0  0  0  0999 V2000
  188.6500  178.2050  139.5620 C   0  0  0  0  0  0  0  0  0  0  0  0
  188.0010  179.0020  140.2920 O   0  0  0  0  0  0  0  0  0  0  0  0
  188.4900  178.2390  138.0740 C   0  0  2  0  0  3  0  0  0  0  0  0
  188.7550  179.5260  137.5950 O   0  0  0  0  0  1  0  0  0  0  0  0
  186.3600  178.8990  137.2210 F   0  0  0  0  0  0  0  0  0  0  0  0
  187.0830  177.8060  137.6700 C   0  0  1  0  0  3  0  0  0  0  0  0
  185.3250  175.5560  135.6150 N   0  0  0  0  0  0  0  0  0  0  0  0
  186.0780  175.6810  136.8460 C   0  0  0  0  0  2  0  0  0  0  0  0
  186.8810  177.2840  135.3280 O   0  0  0  0  0  0  0  0  0  0  0  0
  186.0870  176.3420  134.6570 C   0  0  0  0  0  2  0  0  0  0  0  0
  187.1300  176.7270  136.5890 C   0  0  1  0  0  3  0  0  0  0  0  0
  184.0560  176.2440  135.8140 C   0  0  0  0  0  2  0  0  0  0  0  0
  183.4490  175.8610  137.1580 C   0  0  2  0  0  3  0  0  0  0  0  0
  182.6160  174.6160  137.0560 C   0  0  0  0  0  3  0  0  0  0  0  0
  181.6120  174.4830  137.7350 O   0  0  0  0  0  0  0  0  0  0  0  0
  182.6900  177.0440  137.7790 C   0  0  1  0  0  3  0  0  0  0  0  0
  183.3060  177.4130  140.2170 C   0  0  0  0  0  2  0  0  0  0  0  0
  180.7130  177.6240  140.9590 O   0  0  0  0  0  0  0  0  0  0  0  0
  182.3590  179.0020  142.1900 O   0  0  0  0  0  0  0  0  0  0  0  0
  183.5110  177.8900  138.7790 C   0  0  2  0  0  3  0  0  0  0  0  0
  181.9060  179.6250  139.5980 C   0  0  0  0  0  2  0  0  0  0  0  0
  184.1820  180.1640  139.1410 O   0  0  0  0  0  1  0  0  0  0  0  0
  181.9950  178.4020  140.8630 S   0  0  0  0  0  0  0  0  0  0  0  0
  183.1160  179.3770  138.7070 C   0  0  1  0  0  3  0  0  0  0  0  0
  182.1430  177.8780  136.6980 C   0  0  0  0  0  0  0  0  0  0  0  0
  181.7110  178.5360  135.8500 N   0  0  0  0  0  0  0  0  0  0  0  0
  189.4760  177.2330  140.1290 O   0  0  0  0  0  0  0  0  0  0  0  0
  190.8930  177.3310  140.0900 C   0  0  2  0  0  3  0  0  0  0  0  0
  191.4490  176.3060  139.1550 C   0  0  0  0  0  0  0  0  0  0  0  0
  190.7320  175.4160  138.7190 O   0  0  0  0  0  0  0  0  0  0  0  0
  192.8910  176.3770  138.7570 C   0  0  2  0  0  3  0  0  0  0  0  0
  193.3760  177.6490  139.0110 F   0  0  0  0  0  0  0  0  0  0  0  0
  191.9830  176.5250  136.5500 O   0  0  0  0  0  1  0  0  0  0  0  0
  194.2420  176.5980  136.7960 O   0  0  0  0  0  1  0  0  0  0  0  0
  193.0630  176.0330  137.2830 C   0  0  0  0  0  3  0  0  0  0  0  0
  191.4580  177.1280  141.4860 C   0  0  0  0  0  2  0  0  0  0  0  0
  190.4420  177.5660  142.5220 C   0  0  0  0  0  2  0  0  0  0  0  0
  190.0330  176.3800  143.3780 C   0  0  0  0  0  2  0  0  0  0  0  0
  191.4910  176.6630  146.8200 C   0  0  0  0  0  2  0  0  0  0  0  0
  189.0410  177.5980  147.6470 O   0  0  0  0  0  0  0  0  0  0  0  0
  190.5160  176.7760  145.8320 C   0  0  0  0  0  0  0  0  0  0  0  0
  190.2220  177.1290  147.1530 C   0  0  0  0  0  0  0  0  0  0  0  0
  185.7980  178.2530  145.9270 C   0  0  0  0  0  3  0  0  0  0  0  0
  188.0650  177.6840  146.5840 C   0  0  0  0  0  0  0  0  0  0  0  0
  187.3170  177.4240  144.2280 C   0  0  0  0  0  3  0  0  0  0  0  0
  188.3490  177.3040  145.1660 C   0  0  0  0  0  0  0  0  0  0  0  0
  186.0580  177.8910  144.6050 C   0  0  0  0  0  3  0  0  0  0  0  0
  189.6750  176.8220  144.7200 N   0  0  0  0  0  0  0  0  0  0  0  0
  186.7880  178.1500  146.9050 C   0  0  0  0  0  3  0  0  0  0  0  0
  1 27  1  0  0  0  0
  1  2  2  0  0  0  0
  3  4  1  1  0  0  0
  3  1  1  0  0  0  0
  6  5  1  6  0  0  0
  6  3  1  0  0  0  0
  7 12  1  0  0  0  0
  7  8  1  0  0  0  0
  9 11  1  0  0  0  0
 10  9  1  0  0  0  0
 10  7  1  0  0  0  0
 11  8  1  0  0  0  0
 11  6  1  1  0  0  0
 13 12  1  6  0  0  0
 13 16  1  0  0  0  0
 14 13  1  0  0  0  0
 14 15  2  0  0  0  0
 16 25  1  6  0  0  0
 17 23  1  0  0  0  0
 20 16  1  6  0  0  0
 20 17  1  0  0  0  0
 21 23  1  0  0  0  0
 23 18  2  0  0  0  0
 23 19  2  0  0  0  0
 24 20  1  0  0  0  0
 24 22  1  1  0  0  0
 24 21  1  0  0  0  0
 26 25  3  0  0  0  0
 28 27  1  0  0  0  0
 28 36  1  1  0  0  0
 29 28  1  0  0  0  0
 30 29  2  0  0  0  0
 31 32  1  6  0  0  0
 31 29  1  0  0  0  0
 33 35  1  0  0  0  0
 34 35  1  0  0  0  0
 35 31  1  0  0  0  0
 36 37  1  0  0  0  0
 37 38  1  0  0  0  0
 38 48  1  0  0  0  0
 39 42  1  0  0  0  0
 41 39  1  0  0  0  0
 41 42  2  0  0  0  0
 42 40  1  0  0  0  0
 43 49  1  0  0  0  0
 44 49  2  0  0  0  0
 44 40  1  0  0  0  0
 45 47  1  0  0  0  0
 45 46  2  0  0  0  0
 46 44  1  0  0  0  0
 47 43  2  0  0  0  0
 48 46  1  0  0  0  0
 48 41  1  0  0  0  0
M  END
>  <MODEL>
4

>  <REMARK>
 VINA RESULT:      -7.6      3.088     10.023
  Name = 
  18 active torsions:
  status: ('A' for Active; 'I' for Inactive)
    1  A    between atoms: C_1  and  C_17
    2  A    between atoms: C_1  and  C_37
    3  A    between atoms: C_6  and  C_41
    4  A    between atoms: N_7  and  C_42
    5  A    between atoms: C_9  and  C_41
    6  A    between atoms: C_10  and  C_13
    7  A    between atoms: C_10  and  O_39
    8  A    between atoms: C_13  and  C_22
    9  A    between atoms: C_17  and  C_38
   10  A    between atoms: C_22  and  C_47
   11  A    between atoms: C_26  and  C_43
   12  A    between atoms: C_26  and  C_44
   13  A    between atoms: N_31  and  C_44
   14  A    between atoms: C_33  and  C_34
   15  A    between atoms: C_33  and  C_41
   16  A    between atoms: C_33  and  C_42
   17  A    between atoms: C_38  and  O_39
   18  A    between atoms: C_38  and  C_43
                            x       y       z     vdW  Elec       q    Type
                         _______ _______ _______ _____ _____    ______ ____

>  <TORSDO>
F 18

$$$$
=
 OpenBabel10222417373D

 49 53  0  0  1  0  0  0  0  0999 V2000
  184.9910  179.0240  140.2320 C   0  0  0  0  0  0  0  0  0  0  0  0
  184.3130  180.0400  139.9180 O   0  0  0  0  0  0  0  0  0  0  0  0
  184.6730  178.2570  141.4770 C   0  0  2  0  0  3  0  0  0  0  0  0
  183.3140  178.3790  141.7790 O   0  0  0  0  0  1  0  0  0  0  0  0
  185.5740  180.1350  142.6450 F   0  0  0  0  0  0  0  0  0  0  0  0
  185.5200  178.7500  142.6480 C   0  0  1  0  0  3  0  0  0  0  0  0
  186.1440  177.7010  145.9470 N   0  0  0  0  0  0  0  0  0  0  0  0
  185.8950  177.2440  144.5960 C   0  0  0  0  0  2  0  0  0  0  0  0
  184.8160  179.3110  144.8820 O   0  0  0  0  0  0  0  0  0  0  0  0
  185.1990  178.7920  146.1280 C   0  0  0  0  0  2  0  0  0  0  0  0
  184.9600  178.2500  143.9790 C   0  0  1  0  0  3  0  0  0  0  0  0
  187.4770  178.2890  145.9650 C   0  0  0  0  0  2  0  0  0  0  0  0
  188.4400  177.3980  146.7400 C   0  0  2  0  0  3  0  0  0  0  0  0
  188.7830  177.9840  148.0790 C   0  0  0  0  0  3  0  0  0  0  0  0
  187.9390  178.0680  148.9560 O   0  0  0  0  0  0  0  0  0  0  0  0
  189.6790  177.0590  145.8970 C   0  0  1  0  0  3  0  0  0  0  0  0
  189.3180  177.6730  143.4570 C   0  0  0  0  0  2  0  0  0  0  0  0
  190.1790  175.2540  142.6030 O   0  0  0  0  0  0  0  0  0  0  0  0
  190.6770  177.2070  141.1650 O   0  0  0  0  0  0  0  0  0  0  0  0
  189.9930  178.0690  144.7700 C   0  0  2  0  0  3  0  0  0  0  0  0
  191.9370  177.0670  143.5540 C   0  0  0  0  0  2  0  0  0  0  0  0
  191.8100  179.4120  143.9620 O   0  0  0  0  0  1  0  0  0  0  0  0
  190.5130  176.7190  142.5760 S   0  0  0  0  0  0  0  0  0  0  0  0
  191.5100  178.1680  144.5160 C   0  0  1  0  0  3  0  0  0  0  0  0
  190.8320  176.8860  146.7940 C   0  0  0  0  0  0  0  0  0  0  0  0
  191.7400  176.7530  147.4980 N   0  0  0  0  0  0  0  0  0  0  0  0
  186.0890  178.6370  139.4630 O   0  0  0  0  0  0  0  0  0  0  0  0
  185.9490  177.8380  138.2960 C   0  0  2  0  0  3  0  0  0  0  0  0
  187.0180  178.1860  137.3090 C   0  0  0  0  0  0  0  0  0  0  0  0
  186.9190  179.1940  136.6230 O   0  0  0  0  0  0  0  0  0  0  0  0
  188.2110  177.2920  137.1700 C   0  0  2  0  0  3  0  0  0  0  0  0
  188.0410  176.1710  137.9660 F   0  0  0  0  0  0  0  0  0  0  0  0
  189.2570  178.8130  138.6890 O   0  0  0  0  0  1  0  0  0  0  0  0
  190.4990  177.1080  137.8410 O   0  0  0  0  0  1  0  0  0  0  0  0
  189.4870  178.0270  137.5600 C   0  0  0  0  0  3  0  0  0  0  0  0
  184.5780  178.0640  137.6820 C   0  0  0  0  0  2  0  0  0  0  0  0
  183.7540  176.7950  137.7840 C   0  0  0  0  0  2  0  0  0  0  0  0
  183.8570  176.0060  136.4910 C   0  0  0  0  0  2  0  0  0  0  0  0
  185.7770  172.9640  137.5420 C   0  0  0  0  0  2  0  0  0  0  0  0
  183.4530  171.5320  137.2080 O   0  0  0  0  0  0  0  0  0  0  0  0
  184.6620  173.6960  137.1430 C   0  0  0  0  0  0  0  0  0  0  0  0
  184.5600  172.3170  137.3500 C   0  0  0  0  0  0  0  0  0  0  0  0
  179.9840  172.4240  136.1730 C   0  0  0  0  0  3  0  0  0  0  0  0
  182.3320  172.3410  136.7830 C   0  0  0  0  0  0  0  0  0  0  0  0
  181.2610  174.4850  136.1250 C   0  0  0  0  0  3  0  0  0  0  0  0
  182.4160  173.8140  136.5450 C   0  0  0  0  0  0  0  0  0  0  0  0
  180.0610  173.7970  135.9410 C   0  0  0  0  0  3  0  0  0  0  0  0
  183.6630  174.5850  136.7460 N   0  0  0  0  0  0  0  0  0  0  0  0
  181.1050  171.7030  136.5880 C   0  0  0  0  0  3  0  0  0  0  0  0
  1  3  1  0  0  0  0
  2  1  2  0  0  0  0
  3  4  1  1  0  0  0
  3  6  1  0  0  0  0
  6  5  1  1  0  0  0
  7 12  1  0  0  0  0
  7 10  1  0  0  0  0
  8  7  1  0  0  0  0
  9 10  1  0  0  0  0
 11  6  1  6  0  0  0
 11  8  1  0  0  0  0
 11  9  1  0  0  0  0
 13 12  1  6  0  0  0
 13 14  1  0  0  0  0
 14 15  2  0  0  0  0
 16 13  1  0  0  0  0
 16 25  1  1  0  0  0
 17 20  1  0  0  0  0
 19 23  2  0  0  0  0
 20 16  1  1  0  0  0
 21 24  1  0  0  0  0
 23 18  2  0  0  0  0
 23 17  1  0  0  0  0
 23 21  1  0  0  0  0
 24 22  1  6  0  0  0
 24 20  1  0  0  0  0
 25 26  3  0  0  0  0
 27  1  1  0  0  0  0
 28 36  1  6  0  0  0
 28 27  1  0  0  0  0
 29 28  1  0  0  0  0
 30 29  2  0  0  0  0
 31 29  1  0  0  0  0
 31 35  1  0  0  0  0
 31 32  1  1  0  0  0
 35 34  1  0  0  0  0
 35 33  1  0  0  0  0
 36 37  1  0  0  0  0
 38 48  1  0  0  0  0
 38 37  1  0  0  0  0
 40 42  1  0  0  0  0
 41 42  2  0  0  0  0
 41 39  1  0  0  0  0
 42 39  1  0  0  0  0
 43 49  1  0  0  0  0
 44 40  1  0  0  0  0
 45 46  2  0  0  0  0
 46 48  1  0  0  0  0
 46 44  1  0  0  0  0
 47 45  1  0  0  0  0
 47 43  2  0  0  0  0
 48 41  1  0  0  0  0
 49 44  2  0  0  0  0
M  END
>  <MODEL>
5

>  <REMARK>
 VINA RESULT:      -7.5      2.345      4.614
  Name = 
  18 active torsions:
  status: ('A' for Active; 'I' for Inactive)
    1  A    between atoms: C_1  and  C_17
    2  A    between atoms: C_1  and  C_37
    3  A    between atoms: C_6  and  C_41
    4  A    between atoms: N_7  and  C_42
    5  A    between atoms: C_9  and  C_41
    6  A    between atoms: C_10  and  C_13
    7  A    between atoms: C_10  and  O_39
    8  A    between atoms: C_13  and  C_22
    9  A    between atoms: C_17  and  C_38
   10  A    between atoms: C_22  and  C_47
   11  A    between atoms: C_26  and  C_43
   12  A    between atoms: C_26  and  C_44
   13  A    between atoms: N_31  and  C_44
   14  A    between atoms: C_33  and  C_34
   15  A    between atoms: C_33  and  C_41
   16  A    between atoms: C_33  and  C_42
   17  A    between atoms: C_38  and  O_39
   18  A    between atoms: C_38  and  C_43
                            x       y       z     vdW  Elec       q    Type
                         _______ _______ _______ _____ _____    ______ ____

>  <TORSDO>
F 18

$$$$
=
 OpenBabel10222417373D

 49 53  0  0  1  0  0  0  0  0999 V2000
  188.5090  177.7580  138.0510 C   0  0  0  0  0  0  0  0  0  0  0  0
  188.3480  178.9690  138.3640 O   0  0  0  0  0  0  0  0  0  0  0  0
  187.8400  177.1940  136.8370 C   0  0  2  0  0  3  0  0  0  0  0  0
  187.8570  178.1340  135.8020 O   0  0  0  0  0  1  0  0  0  0  0  0
  185.5180  177.7110  136.6260 F   0  0  0  0  0  0  0  0  0  0  0  0
  186.4030  176.7830  137.1510 C   0  0  1  0  0  3  0  0  0  0  0  0
  183.9850  174.4090  136.2100 N   0  0  0  0  0  0  0  0  0  0  0  0
  184.8810  174.8150  137.2720 C   0  0  0  0  0  2  0  0  0  0  0  0
  185.8310  175.4590  135.2220 O   0  0  0  0  0  0  0  0  0  0  0  0
  184.7830  174.5530  135.0020 C   0  0  0  0  0  2  0  0  0  0  0  0
  186.0960  175.3930  136.5960 C   0  0  1  0  0  3  0  0  0  0  0  0
  182.9230  175.4030  136.1360 C   0  0  0  0  0  2  0  0  0  0  0  0
  182.3870  175.7120  137.5290 C   0  0  2  0  0  3  0  0  0  0  0  0
  181.1850  174.8760  137.8600 C   0  0  0  0  0  3  0  0  0  0  0  0
  180.7480  174.8360  138.9980 O   0  0  0  0  0  0  0  0  0  0  0  0
  182.1380  177.2180  137.7040 C   0  0  1  0  0  3  0  0  0  0  0  0
  183.0970  177.3800  140.0530 C   0  0  0  0  0  2  0  0  0  0  0  0
  180.6460  177.7040  141.1530 O   0  0  0  0  0  0  0  0  0  0  0  0
  182.5370  178.8870  142.2270 O   0  0  0  0  0  0  0  0  0  0  0  0
  183.1440  177.9390  138.6310 C   0  0  2  0  0  3  0  0  0  0  0  0
  181.7900  179.7130  139.7630 C   0  0  0  0  0  2  0  0  0  0  0  0
  184.0190  180.1360  139.0320 O   0  0  0  0  0  1  0  0  0  0  0  0
  181.9570  178.4030  140.9290 S   0  0  0  0  0  0  0  0  0  0  0  0
  182.8510  179.4500  138.7020 C   0  0  1  0  0  3  0  0  0  0  0  0
  182.0890  177.8500  136.3760 C   0  0  0  0  0  0  0  0  0  0  0  0
  182.0520  178.3430  135.3310 N   0  0  0  0  0  0  0  0  0  0  0  0
  189.2550  176.9050  138.8660 O   0  0  0  0  0  0  0  0  0  0  0  0
  190.6760  176.9260  138.8780 C   0  0  2  0  0  3  0  0  0  0  0  0
  191.2080  175.7100  138.1880 C   0  0  0  0  0  0  0  0  0  0  0  0
  190.4970  174.7270  138.0360 O   0  0  0  0  0  0  0  0  0  0  0  0
  192.6180  175.7080  137.6840 C   0  0  2  0  0  3  0  0  0  0  0  0
  193.1760  176.9620  137.8720 F   0  0  0  0  0  0  0  0  0  0  0  0
  193.5310  176.1790  135.5250 O   0  0  0  0  0  1  0  0  0  0  0  0
  193.1130  174.0120  136.0720 O   0  0  0  0  0  1  0  0  0  0  0  0
  192.6650  175.3270  136.2100 C   0  0  0  0  0  3  0  0  0  0  0  0
  191.1750  176.9740  140.3120 C   0  0  0  0  0  2  0  0  0  0  0  0
  190.0200  176.7500  141.2680 C   0  0  0  0  0  2  0  0  0  0  0  0
  189.8670  177.9500  142.1850 C   0  0  0  0  0  2  0  0  0  0  0  0
  186.2920  178.5940  141.2620 C   0  0  0  0  0  2  0  0  0  0  0  0
  185.6620  178.1780  143.9060 O   0  0  0  0  0  0  0  0  0  0  0  0
  187.3570  178.2750  142.0990 C   0  0  0  0  0  0  0  0  0  0  0  0
  186.0610  178.3680  142.6150 C   0  0  0  0  0  0  0  0  0  0  0  0
  187.6510  177.3260  146.9430 C   0  0  0  0  0  3  0  0  0  0  0  0
  186.8070  177.8610  144.7300 C   0  0  0  0  0  0  0  0  0  0  0  0
  189.2310  177.4620  145.1070 C   0  0  0  0  0  3  0  0  0  0  0  0
  188.2040  177.7670  144.2060 C   0  0  0  0  0  0  0  0  0  0  0  0
  188.9570  177.2450  146.4580 C   0  0  0  0  0  3  0  0  0  0  0  0
  188.5360  177.9710  142.7790 N   0  0  0  0  0  0  0  0  0  0  0  0
  186.5890  177.6310  146.0900 C   0  0  0  0  0  3  0  0  0  0  0  0
  1  2  2  0  0  0  0
  1 27  1  0  0  0  0
  3  4  1  6  0  0  0
  3  6  1  0  0  0  0
  3  1  1  0  0  0  0
  6  5  1  6  0  0  0
  7  8  1  0  0  0  0
  9 11  1  0  0  0  0
 10  9  1  0  0  0  0
 10  7  1  0  0  0  0
 11  6  1  1  0  0  0
 11  8  1  0  0  0  0
 12  7  1  0  0  0  0
 13 12  1  6  0  0  0
 13 16  1  0  0  0  0
 13 14  1  0  0  0  0
 14 15  2  0  0  0  0
 16 25  1  6  0  0  0
 17 23  1  0  0  0  0
 20 16  1  6  0  0  0
 20 24  1  0  0  0  0
 20 17  1  0  0  0  0
 21 23  1  0  0  0  0
 23 18  2  0  0  0  0
 23 19  2  0  0  0  0
 24 22  1  1  0  0  0
 24 21  1  0  0  0  0
 26 25  3  0  0  0  0
 27 28  1  0  0  0  0
 28 36  1  1  0  0  0
 29 28  1  0  0  0  0
 30 29  2  0  0  0  0
 31 32  1  6  0  0  0
 31 29  1  0  0  0  0
 33 35  1  0  0  0  0
 34 35  1  0  0  0  0
 35 31  1  0  0  0  0
 36 37  1  0  0  0  0
 37 38  1  0  0  0  0
 38 48  1  0  0  0  0
 39 41  1  0  0  0  0
 39 42  1  0  0  0  0
 40 44  1  0  0  0  0
 41 42  2  0  0  0  0
 41 48  1  0  0  0  0
 42 40  1  0  0  0  0
 44 49  1  0  0  0  0
 45 47  2  0  0  0  0
 46 44  2  0  0  0  0
 46 45  1  0  0  0  0
 47 43  1  0  0  0  0
 48 46  1  0  0  0  0
 49 43  2  0  0  0  0
M  END
>  <MODEL>
6

>  <REMARK>
 VINA RESULT:      -7.4      3.223      9.793
  Name = 
  18 active torsions:
  status: ('A' for Active; 'I' for Inactive)
    1  A    between atoms: C_1  and  C_17
    2  A    between atoms: C_1  and  C_37
    3  A    between atoms: C_6  and  C_41
    4  A    between atoms: N_7  and  C_42
    5  A    between atoms: C_9  and  C_41
    6  A    between atoms: C_10  and  C_13
    7  A    between atoms: C_10  and  O_39
    8  A    between atoms: C_13  and  C_22
    9  A    between atoms: C_17  and  C_38
   10  A    between atoms: C_22  and  C_47
   11  A    between atoms: C_26  and  C_43
   12  A    between atoms: C_26  and  C_44
   13  A    between atoms: N_31  and  C_44
   14  A    between atoms: C_33  and  C_34
   15  A    between atoms: C_33  and  C_41
   16  A    between atoms: C_33  and  C_42
   17  A    between atoms: C_38  and  O_39
   18  A    between atoms: C_38  and  C_43
                            x       y       z     vdW  Elec       q    Type
                         _______ _______ _______ _____ _____    ______ ____

>  <TORSDO>
F 18

$$$$
=
 OpenBabel10222417373D

 49 53  0  0  1  0  0  0  0  0999 V2000
  184.2250  178.8760  143.2930 C   0  0  0  0  0  0  0  0  0  0  0  0
  185.1770  179.4740  142.7210 O   0  0  0  0  0  0  0  0  0  0  0  0
  184.3420  178.4650  144.7270 C   0  0  2  0  0  3  0  0  0  0  0  0
  183.2950  179.0190  145.4690 O   0  0  0  0  0  1  0  0  0  0  0  0
  185.6780  180.2610  145.5590 F   0  0  0  0  0  0  0  0  0  0  0  0
  185.6860  178.8990  145.3070 C   0  0  1  0  0  3  0  0  0  0  0  0
  188.0850  177.2700  147.2980 N   0  0  0  0  0  0  0  0  0  0  0  0
  187.0360  177.0670  146.3220 C   0  0  0  0  0  2  0  0  0  0  0  0
  186.5210  178.9940  147.5640 O   0  0  0  0  0  0  0  0  0  0  0  0
  187.5330  178.2640  148.2050 C   0  0  0  0  0  2  0  0  0  0  0  0
  186.0040  178.1300  146.5890 C   0  0  1  0  0  3  0  0  0  0  0  0
  189.2020  177.9010  146.6070 C   0  0  0  0  0  2  0  0  0  0  0  0
  190.1880  176.8470  146.1180 C   0  0  2  0  0  3  0  0  0  0  0  0
  191.3880  176.7520  147.0150 C   0  0  0  0  0  3  0  0  0  0  0  0
  192.3520  176.0770  146.6950 O   0  0  0  0  0  0  0  0  0  0  0  0
  190.5560  177.0760  144.6440 C   0  0  1  0  0  3  0  0  0  0  0  0
  190.2220  175.8120  142.4630 C   0  0  0  0  0  2  0  0  0  0  0  0
  191.8460  177.4980  141.1060 O   0  0  0  0  0  0  0  0  0  0  0  0
  189.9200  176.5440  139.8780 O   0  0  0  0  0  0  0  0  0  0  0  0
  189.5310  176.5260  143.6260 C   0  0  2  0  0  3  0  0  0  0  0  0
  189.3830  178.2970  141.8660 C   0  0  0  0  0  2  0  0  0  0  0  0
  187.4430  177.1330  142.6140 O   0  0  0  0  0  1  0  0  0  0  0  0
  190.4200  177.0340  141.2060 S   0  0  0  0  0  0  0  0  0  0  0  0
  188.6620  177.6570  143.0440 C   0  0  1  0  0  3  0  0  0  0  0  0
  190.8010  178.5110  144.4320 C   0  0  0  0  0  0  0  0  0  0  0  0
  190.9920  179.6390  144.2610 N   0  0  0  0  0  0  0  0  0  0  0  0
  183.0760  178.5270  142.5820 O   0  0  0  0  0  0  0  0  0  0  0  0
  182.9660  178.7260  141.1790 C   0  0  2  0  0  3  0  0  0  0  0  0
  181.5450  179.0150  140.8160 C   0  0  0  0  0  0  0  0  0  0  0  0
  181.2840  179.8680  139.9790 O   0  0  0  0  0  0  0  0  0  0  0  0
  180.4440  178.2510  141.4840 C   0  0  2  0  0  3  0  0  0  0  0  0
  179.6310  177.6780  140.5210 F   0  0  0  0  0  0  0  0  0  0  0  0
  179.1660  178.4450  143.4940 O   0  0  0  0  0  1  0  0  0  0  0  0
  180.4140  180.2260  142.8330 O   0  0  0  0  0  1  0  0  0  0  0  0
  179.6260  179.1620  142.3900 C   0  0  0  0  0  3  0  0  0  0  0  0
  183.4520  177.4880  140.4460 C   0  0  0  0  0  2  0  0  0  0  0  0
  183.0900  177.5830  138.9770 C   0  0  0  0  0  2  0  0  0  0  0  0
  184.2420  178.1930  138.1990 C   0  0  0  0  0  2  0  0  0  0  0  0
  184.0520  174.5930  137.1730 C   0  0  0  0  0  2  0  0  0  0  0  0
  186.7010  174.7840  136.4590 O   0  0  0  0  0  0  0  0  0  0  0  0
  184.6430  175.8410  137.3530 C   0  0  0  0  0  0  0  0  0  0  0  0
  185.3900  174.7770  136.8370 C   0  0  0  0  0  0  0  0  0  0  0  0
  189.2160  177.5360  136.5350 C   0  0  0  0  0  3  0  0  0  0  0  0
  187.2660  176.0970  136.6780 C   0  0  0  0  0  0  0  0  0  0  0  0
  187.1560  178.4690  137.4120 C   0  0  0  0  0  3  0  0  0  0  0  0
  186.4930  177.2480  137.2380 C   0  0  0  0  0  0  0  0  0  0  0  0
  188.5000  178.6100  137.0650 C   0  0  0  0  0  3  0  0  0  0  0  0
  185.0620  177.1480  137.6010 N   0  0  0  0  0  0  0  0  0  0  0  0
  188.6070  176.2950  136.3440 C   0  0  0  0  0  3  0  0  0  0  0  0
  1  3  1  0  0  0  0
  2  1  2  0  0  0  0
  3  6  1  0  0  0  0
  3  4  1  1  0  0  0
  6  5  1  1  0  0  0
  7 10  1  0  0  0  0
  8 11  1  0  0  0  0
  8  7  1  0  0  0  0
  9 10  1  0  0  0  0
 11  6  1  6  0  0  0
 11  9  1  0  0  0  0
 12  7  1  0  0  0  0
 13 12  1  1  0  0  0
 13 14  1  0  0  0  0
 15 14  2  0  0  0  0
 16 25  1  1  0  0  0
 16 13  1  0  0  0  0
 17 20  1  0  0  0  0
 18 23  2  0  0  0  0
 19 23  2  0  0  0  0
 20 16  1  1  0  0  0
 21 24  1  0  0  0  0
 23 21  1  0  0  0  0
 23 17  1  0  0  0  0
 24 22  1  6  0  0  0
 24 20  1  0  0  0  0
 26 25  3  0  0  0  0
 27  1  1  0  0  0  0
 28 36  1  6  0  0  0
 28 27  1  0  0  0  0
 29 28  1  0  0  0  0
 29 31  1  0  0  0  0
 30 29  2  0  0  0  0
 31 32  1  6  0  0  0
 31 35  1  0  0  0  0
 35 34  1  0  0  0  0
 35 33  1  0  0  0  0
 37 36  1  0  0  0  0
 38 37  1  0  0  0  0
 39 41  1  0  0  0  0
 40 44  1  0  0  0  0
 40 42  1  0  0  0  0
 41 48  1  0  0  0  0
 42 39  1  0  0  0  0
 42 41  2  0  0  0  0
 43 47  1  0  0  0  0
 44 46  2  0  0  0  0
 46 45  1  0  0  0  0
 46 48  1  0  0  0  0
 47 45  2  0  0  0  0
 48 38  1  0  0  0  0
 49 43  2  0  0  0  0
 49 44  1  0  0  0  0
M  END
>  <MODEL>
7

>  <REMARK>
 VINA RESULT:      -7.2      1.971      2.748
  Name = 
  18 active torsions:
  status: ('A' for Active; 'I' for Inactive)
    1  A    between atoms: C_1  and  C_17
    2  A    between atoms: C_1  and  C_37
    3  A    between atoms: C_6  and  C_41
    4  A    between atoms: N_7  and  C_42
    5  A    between atoms: C_9  and  C_41
    6  A    between atoms: C_10  and  C_13
    7  A    between atoms: C_10  and  O_39
    8  A    between atoms: C_13  and  C_22
    9  A    between atoms: C_17  and  C_38
   10  A    between atoms: C_22  and  C_47
   11  A    between atoms: C_26  and  C_43
   12  A    between atoms: C_26  and  C_44
   13  A    between atoms: N_31  and  C_44
   14  A    between atoms: C_33  and  C_34
   15  A    between atoms: C_33  and  C_41
   16  A    between atoms: C_33  and  C_42
   17  A    between atoms: C_38  and  O_39
   18  A    between atoms: C_38  and  C_43
                            x       y       z     vdW  Elec       q    Type
                         _______ _______ _______ _____ _____    ______ ____

>  <TORSDO>
F 18

$$$$
=
 OpenBabel10222417373D

 49 53  0  0  1  0  0  0  0  0999 V2000
  188.9520  178.0190  138.8830 C   0  0  0  0  0  0  0  0  0  0  0  0
  188.5070  178.9050  139.6620 O   0  0  0  0  0  0  0  0  0  0  0  0
  188.0170  177.0600  138.2150 C   0  0  2  0  0  3  0  0  0  0  0  0
  188.7400  176.1590  137.4280 O   0  0  0  0  0  1  0  0  0  0  0  0
  187.5510  178.9770  136.8690 F   0  0  0  0  0  0  0  0  0  0  0  0
  186.9960  177.8060  137.3590 C   0  0  1  0  0  3  0  0  0  0  0  0
  184.2960  176.2710  135.7070 N   0  0  0  0  0  0  0  0  0  0  0  0
  185.3710  176.0550  136.6520 C   0  0  0  0  0  2  0  0  0  0  0  0
  186.0420  177.7310  135.1480 O   0  0  0  0  0  0  0  0  0  0  0  0
  184.9090  177.0660  134.6540 C   0  0  0  0  0  2  0  0  0  0  0  0
  186.5070  176.9340  136.2020 C   0  0  1  0  0  3  0  0  0  0  0  0
  183.3110  177.1210  136.3600 C   0  0  0  0  0  2  0  0  0  0  0  0
  183.1700  176.7390  137.8290 C   0  0  2  0  0  3  0  0  0  0  0  0
  182.2910  175.5350  138.0070 C   0  0  0  0  0  3  0  0  0  0  0  0
  181.9680  174.8540  137.0490 O   0  0  0  0  0  0  0  0  0  0  0  0
  182.7200  177.9420  138.6720 C   0  0  1  0  0  3  0  0  0  0  0  0
  180.7560  179.2670  137.7510 C   0  0  0  0  0  2  0  0  0  0  0  0
  181.9140  181.6320  138.3700 O   0  0  0  0  0  0  0  0  0  0  0  0
  179.4470  181.5020  138.5290 O   0  0  0  0  0  0  0  0  0  0  0  0
  181.1910  178.1670  138.7190 C   0  0  2  0  0  3  0  0  0  0  0  0
  180.8870  180.0690  140.3150 C   0  0  0  0  0  2  0  0  0  0  0  0
  179.3920  178.2130  140.3040 O   0  0  0  0  0  1  0  0  0  0  0  0
  180.7390  180.7550  138.6980 S   0  0  0  0  0  0  0  0  0  0  0  0
  180.7300  178.5650  140.1340 C   0  0  1  0  0  3  0  0  0  0  0  0
  183.2820  177.8120  140.0250 C   0  0  0  0  0  0  0  0  0  0  0  0
  183.7230  177.7130  141.0900 N   0  0  0  0  0  0  0  0  0  0  0  0
  190.3250  177.8730  138.6830 O   0  0  0  0  0  0  0  0  0  0  0  0
  191.2060  177.5100  139.7370 C   0  0  2  0  0  3  0  0  0  0  0  0
  192.4660  176.9350  139.1720 C   0  0  0  0  0  0  0  0  0  0  0  0
  193.5510  177.2430  139.6470 O   0  0  0  0  0  0  0  0  0  0  0  0
  192.3880  175.9790  138.0230 C   0  0  2  0  0  3  0  0  0  0  0  0
  191.4630  174.9900  138.3080 F   0  0  0  0  0  0  0  0  0  0  0  0
  193.5930  174.0600  137.2600 O   0  0  0  0  0  1  0  0  0  0  0  0
  194.4330  176.1200  136.7890 O   0  0  0  0  0  1  0  0  0  0  0  0
  193.7510  175.3600  137.7410 C   0  0  0  0  0  3  0  0  0  0  0  0
  190.5300  176.4970  140.6440 C   0  0  0  0  0  2  0  0  0  0  0  0
  190.4990  177.0190  142.0670 C   0  0  0  0  0  2  0  0  0  0  0  0
  189.4210  176.3010  142.8590 C   0  0  0  0  0  2  0  0  0  0  0  0
  191.6670  176.6030  145.8440 C   0  0  0  0  0  2  0  0  0  0  0  0
  189.5060  177.6070  147.2160 O   0  0  0  0  0  0  0  0  0  0  0  0
  190.4860  176.7230  145.1160 C   0  0  0  0  0  0  0  0  0  0  0  0
  190.5250  177.1030  146.4620 C   0  0  0  0  0  0  0  0  0  0  0  0
  185.9580  178.3120  146.3090 C   0  0  0  0  0  3  0  0  0  0  0  0
  188.3050  177.7000  146.4150 C   0  0  0  0  0  0  0  0  0  0  0  0
  187.0090  177.4210  144.3130 C   0  0  0  0  0  3  0  0  0  0  0  0
  188.2340  177.2920  144.9790 C   0  0  0  0  0  0  0  0  0  0  0  0
  185.8860  177.9240  144.9710 C   0  0  0  0  0  3  0  0  0  0  0  0
  189.4040  176.7710  144.2380 N   0  0  0  0  0  0  0  0  0  0  0  0
  187.1520  178.2010  147.0240 C   0  0  0  0  0  3  0  0  0  0  0  0
  1  2  2  0  0  0  0
  3  4  1  6  0  0  0
  3  1  1  0  0  0  0
  6  5  1  6  0  0  0
  6  3  1  0  0  0  0
  7 12  1  0  0  0  0
  7  8  1  0  0  0  0
  9 11  1  0  0  0  0
 10  9  1  0  0  0  0
 10  7  1  0  0  0  0
 11  8  1  0  0  0  0
 11  6  1  1  0  0  0
 13 12  1  6  0  0  0
 13 14  1  0  0  0  0
 13 16  1  0  0  0  0
 15 14  2  0  0  0  0
 16 25  1  1  0  0  0
 17 23  1  0  0  0  0
 17 20  1  0  0  0  0
 18 23  2  0  0  0  0
 19 23  2  0  0  0  0
 20 16  1  1  0  0  0
 20 24  1  0  0  0  0
 23 21  1  0  0  0  0
 24 22  1  6  0  0  0
 24 21  1  0  0  0  0
 25 26  3  0  0  0  0
 27  1  1  0  0  0  0
 27 28  1  0  0  0  0
 28 36  1  1  0  0  0
 29 30  2  0  0  0  0
 29 28  1  0  0  0  0
 31 32  1  1  0  0  0
 31 29  1  0  0  0  0
 33 35  1  0  0  0  0
 34 35  1  0  0  0  0
 35 31  1  0  0  0  0
 36 37  1  0  0  0  0
 37 38  1  0  0  0  0
 38 48  1  0  0  0  0
 39 42  1  0  0  0  0
 41 39  1  0  0  0  0
 41 42  2  0  0  0  0
 42 40  1  0  0  0  0
 43 49  1  0  0  0  0
 44 49  2  0  0  0  0
 44 40  1  0  0  0  0
 45 47  1  0  0  0  0
 45 46  2  0  0  0  0
 46 44  1  0  0  0  0
 47 43  2  0  0  0  0
 48 46  1  0  0  0  0
 48 41  1  0  0  0  0
M  END
>  <MODEL>
8

>  <REMARK>
 VINA RESULT:      -6.8      3.378     10.247
  Name = 
  18 active torsions:
  status: ('A' for Active; 'I' for Inactive)
    1  A    between atoms: C_1  and  C_17
    2  A    between atoms: C_1  and  C_37
    3  A    between atoms: C_6  and  C_41
    4  A    between atoms: N_7  and  C_42
    5  A    between atoms: C_9  and  C_41
    6  A    between atoms: C_10  and  C_13
    7  A    between atoms: C_10  and  O_39
    8  A    between atoms: C_13  and  C_22
    9  A    between atoms: C_17  and  C_38
   10  A    between atoms: C_22  and  C_47
   11  A    between atoms: C_26  and  C_43
   12  A    between atoms: C_26  and  C_44
   13  A    between atoms: N_31  and  C_44
   14  A    between atoms: C_33  and  C_34
   15  A    between atoms: C_33  and  C_41
   16  A    between atoms: C_33  and  C_42
   17  A    between atoms: C_38  and  O_39
   18  A    between atoms: C_38  and  C_43
                            x       y       z     vdW  Elec       q    Type
                         _______ _______ _______ _____ _____    ______ ____

>  <TORSDO>
F 18

$$$$
=
 OpenBabel10222417373D

 49 53  0  0  1  0  0  0  0  0999 V2000
  189.9560  177.2470  139.2800 C   0  0  0  0  0  0  0  0  0  0  0  0
  191.1290  176.8310  139.4810 O   0  0  0  0  0  0  0  0  0  0  0  0
  189.1690  176.7540  138.1070 C   0  0  2  0  0  3  0  0  0  0  0  0
  188.7920  175.4230  138.3090 O   0  0  0  0  0  1  0  0  0  0  0  0
  190.5310  175.6580  136.4800 F   0  0  0  0  0  0  0  0  0  0  0  0
  189.9780  176.8830  136.8180 C   0  0  1  0  0  3  0  0  0  0  0  0
  187.0040  176.5960  134.9610 N   0  0  0  0  0  0  0  0  0  0  0  0
  188.4110  176.2550  134.9860 C   0  0  0  0  0  2  0  0  0  0  0  0
  188.1240  178.2710  136.1570 O   0  0  0  0  0  0  0  0  0  0  0  0
  186.9710  177.9780  135.4130 C   0  0  0  0  0  2  0  0  0  0  0  0
  189.1070  177.3990  135.6730 C   0  0  1  0  0  3  0  0  0  0  0  0
  186.3470  175.7990  135.9870 C   0  0  0  0  0  2  0  0  0  0  0  0
  184.9430  176.3290  136.2540 C   0  0  2  0  0  3  0  0  0  0  0  0
  184.7560  176.7010  137.6970 C   0  0  0  0  0  3  0  0  0  0  0  0
  184.8010  177.8680  138.0490 O   0  0  0  0  0  0  0  0  0  0  0  0
  183.8760  175.3490  135.7430 C   0  0  1  0  0  3  0  0  0  0  0  0
  184.2420  173.1570  136.9790 C   0  0  0  0  0  2  0  0  0  0  0  0
  184.4550  171.7600  134.6710 O   0  0  0  0  0  0  0  0  0  0  0  0
  183.4160  170.6100  136.6010 O   0  0  0  0  0  0  0  0  0  0  0  0
  183.3290  174.3710  136.8090 C   0  0  2  0  0  3  0  0  0  0  0  0
  182.0510  172.6660  135.4980 C   0  0  0  0  0  2  0  0  0  0  0  0
  181.2390  173.4840  137.5840 O   0  0  0  0  0  1  0  0  0  0  0  0
  183.5980  171.9220  135.8950 S   0  0  0  0  0  0  0  0  0  0  0  0
  181.9240  173.8640  136.4300 C   0  0  1  0  0  3  0  0  0  0  0  0
  182.7890  176.1140  135.1140 C   0  0  0  0  0  0  0  0  0  0  0  0
  181.9360  176.7190  134.6200 N   0  0  0  0  0  0  0  0  0  0  0  0
  189.3970  178.2240  140.1050 O   0  0  0  0  0  0  0  0  0  0  0  0
  188.6810  177.8940  141.2870 C   0  0  2  0  0  3  0  0  0  0  0  0
  187.2870  178.4280  141.2050 C   0  0  0  0  0  0  0  0  0  0  0  0
  186.8590  178.8720  140.1490 O   0  0  0  0  0  0  0  0  0  0  0  0
  186.4200  178.4140  142.4250 C   0  0  2  0  0  3  0  0  0  0  0  0
  186.1950  177.1040  142.8150 F   0  0  0  0  0  0  0  0  0  0  0  0
  184.1340  178.1890  141.7640 O   0  0  0  0  0  1  0  0  0  0  0  0
  184.6600  179.7690  143.3120 O   0  0  0  0  0  1  0  0  0  0  0  0
  185.0970  179.1180  142.1570 C   0  0  0  0  0  3  0  0  0  0  0  0
  189.3940  178.4750  142.4960 C   0  0  0  0  0  2  0  0  0  0  0  0
  190.4240  177.4890  143.0110 C   0  0  0  0  0  2  0  0  0  0  0  0
  189.7460  176.4290  143.8600 C   0  0  0  0  0  2  0  0  0  0  0  0
  192.0790  176.1260  146.7790 C   0  0  0  0  0  2  0  0  0  0  0  0
  190.1310  177.3280  148.3030 O   0  0  0  0  0  0  0  0  0  0  0  0
  190.9150  176.4880  146.1060 C   0  0  0  0  0  0  0  0  0  0  0  0
  191.0420  176.7400  147.4750 C   0  0  0  0  0  0  0  0  0  0  0  0
  186.7160  178.6410  147.5830 C   0  0  0  0  0  3  0  0  0  0  0  0
  188.9410  177.6710  147.5560 C   0  0  0  0  0  0  0  0  0  0  0  0
  187.5710  177.7750  145.4850 C   0  0  0  0  0  3  0  0  0  0  0  0
  188.7750  177.4030  146.0940 C   0  0  0  0  0  0  0  0  0  0  0  0
  186.5550  178.3850  146.2210 C   0  0  0  0  0  3  0  0  0  0  0  0
  189.8340  176.7760  145.2730 N   0  0  0  0  0  0  0  0  0  0  0  0
  187.8940  178.2880  148.2430 C   0  0  0  0  0  3  0  0  0  0  0  0
  1  2  2  0  0  0  0
  1 27  1  0  0  0  0
  3  4  1  1  0  0  0
  3  1  1  0  0  0  0
  6  5  1  6  0  0  0
  6  3  1  0  0  0  0
  7  8  1  0  0  0  0
  7 10  1  0  0  0  0
  7 12  1  0  0  0  0
  8 11  1  0  0  0  0
 10  9  1  0  0  0  0
 11  9  1  0  0  0  0
 11  6  1  1  0  0  0
 13 12  1  1  0  0  0
 13 14  1  0  0  0  0
 14 15  2  0  0  0  0
 16 25  1  1  0  0  0
 16 13  1  0  0  0  0
 18 23  2  0  0  0  0
 20 16  1  6  0  0  0
 20 17  1  0  0  0  0
 21 23  1  0  0  0  0
 21 24  1  0  0  0  0
 23 19  2  0  0  0  0
 23 17  1  0  0  0  0
 24 20  1  0  0  0  0
 24 22  1  1  0  0  0
 26 25  3  0  0  0  0
 27 28  1  0  0  0  0
 28 36  1  1  0  0  0
 29 28  1  0  0  0  0
 29 31  1  0  0  0  0
 30 29  2  0  0  0  0
 31 32  1  6  0  0  0
 33 35  1  0  0  0  0
 35 31  1  0  0  0  0
 35 34  1  0  0  0  0
 36 37  1  0  0  0  0
 37 38  1  0  0  0  0
 38 48  1  0  0  0  0
 39 42  1  0  0  0  0
 41 39  1  0  0  0  0
 41 42  2  0  0  0  0
 42 40  1  0  0  0  0
 43 49  1  0  0  0  0
 44 49  2  0  0  0  0
 44 40  1  0  0  0  0
 45 46  2  0  0  0  0
 45 47  1  0  0  0  0
 46 44  1  0  0  0  0
 47 43  2  0  0  0  0
 48 46  1  0  0  0  0
 48 41  1  0  0  0  0
M  END
>  <MODEL>
9

>  <REMARK>
 VINA RESULT:      -6.8      3.229      9.913
  Name = 
  18 active torsions:
  status: ('A' for Active; 'I' for Inactive)
    1  A    between atoms: C_1  and  C_17
    2  A    between atoms: C_1  and  C_37
    3  A    between atoms: C_6  and  C_41
    4  A    between atoms: N_7  and  C_42
    5  A    between atoms: C_9  and  C_41
    6  A    between atoms: C_10  and  C_13
    7  A    between atoms: C_10  and  O_39
    8  A    between atoms: C_13  and  C_22
    9  A    between atoms: C_17  and  C_38
   10  A    between atoms: C_22  and  C_47
   11  A    between atoms: C_26  and  C_43
   12  A    between atoms: C_26  and  C_44
   13  A    between atoms: N_31  and  C_44
   14  A    between atoms: C_33  and  C_34
   15  A    between atoms: C_33  and  C_41
   16  A    between atoms: C_33  and  C_42
   17  A    between atoms: C_38  and  O_39
   18  A    between atoms: C_38  and  C_43
                            x       y       z     vdW  Elec       q    Type
                         _______ _______ _______ _____ _____    ______ ____

>  <TORSDO>
F 18

$$$$
