=
 OpenBabel10222419143D

 56 60  0  0  1  0  0  0  0  0999 V2000
  186.2200  177.8830  143.2120 C   0  0  1  0  0  3  0  0  0  0  0  0
  187.0600  178.3550  142.1160 N   0  0  0  0  0  2  0  0  0  0  0  0
  188.2240  177.6570  141.6660 C   0  0  0  0  0  0  0  0  0  0  0  0
  188.6380  176.6300  142.2740 O   0  0  0  0  0  0  0  0  0  0  0  0
  188.9740  178.1680  140.4840 C   0  0  0  0  0  2  0  0  0  0  0  0
  188.6470  177.3840  139.3070 N   0  0  0  0  0  2  0  0  0  0  0  0
  188.1000  176.8010  136.2650 C   0  0  0  0  0  0  0  0  0  0  0  0
  187.7090  178.3850  137.0040 S   0  0  0  0  0  0  0  0  0  0  0  0
  189.4860  176.3260  136.5040 C   0  0  0  0  0  2  0  0  0  0  0  0
  190.1640  177.3700  137.3670 C   0  0  1  0  0  3  0  0  0  0  0  0
  189.0990  178.1400  138.1430 C   0  0  2  0  0  3  0  0  0  0  0  0
  191.0870  176.7710  138.2230 O   0  0  0  0  0  1  0  0  0  0  0  0
  187.2220  175.9750  135.6790 C   0  0  0  0  0  3  0  0  0  0  0  0
  185.8350  176.2440  135.4270 N   0  0  0  0  0  2  0  0  0  0  0  0
  184.7000  175.5570  136.0250 C   0  0  0  0  0  2  0  0  0  0  0  0
  183.7560  176.5600  136.6560 C   0  0  0  0  0  2  0  0  0  0  0  0
  180.6170  176.5770  136.2260 C   0  0  0  0  0  1  0  0  0  0  0  0
  183.3200  176.0830  138.0330 C   0  0  1  0  0  3  0  0  0  0  0  0
  181.2580  175.3510  139.2530 O   0  0  0  0  0  0  0  0  0  0  0  0
  179.8540  174.5990  137.4560 C   0  0  0  0  0  2  0  0  0  0  0  0
  181.9240  175.4660  138.0260 C   0  0  1  0  0  0  0  0  0  0  0  0
  181.0460  175.2450  136.8170 C   0  0  2  0  0  3  0  0  0  0  0  0
  179.9310  175.0100  138.9220 C   0  0  0  0  0  2  0  0  0  0  0  0
  183.1480  174.5740  138.0030 C   0  0  0  0  0  2  0  0  0  0  0  0
  186.2750  178.8630  144.3800 C   0  0  0  0  0  2  0  0  0  0  0  0
  186.2090  178.1370  145.6900 C   0  0  0  0  0  0  0  0  0  0  0  0
  185.1340  177.9270  146.2280 O   0  0  0  0  0  0  0  0  0  0  0  0
  187.4750  177.6750  146.3370 C   0  0  0  0  0  2  0  0  0  0  0  0
  188.6400  177.6560  145.3520 C   0  0  0  0  0  2  0  0  0  0  0  0
  192.0100  176.4150  145.3570 C   0  0  0  0  0  3  0  0  0  0  0  0
  189.9920  177.7150  146.0580 C   0  0  1  0  0  3  0  0  0  0  0  0
  189.9440  176.8190  147.3080 C   0  0  0  0  0  2  0  0  0  0  0  0
  191.3330  176.3640  147.7340 C   0  0  0  0  0  2  0  0  0  0  0  0
  191.1090  177.3720  145.0830 C   0  0  0  0  0  0  0  0  0  0  0  0
  191.9340  175.5650  146.5840 C   0  0  0  0  0  2  0  0  0  0  0  0
  191.6710  177.6550  142.7910 O   0  0  0  0  0  0  0  0  0  0  0  0
  191.0770  179.5630  143.9010 O   0  0  0  0  0  1  0  0  0  0  0  0
  191.3050  178.1900  143.8710 C   0  0  0  0  0  0  0  0  0  0  0  0
  184.7860  177.7710  142.7300 C   0  0  0  0  0  2  0  0  0  0  0  0
  184.0390  179.0660  142.9700 C   0  0  0  0  0  2  0  0  0  0  0  0
  183.0200  179.2880  141.8660 C   0  0  0  0  0  2  0  0  0  0  0  0
  183.4710  178.6800  140.5450 C   0  0  0  0  0  2  0  0  0  0  0  0
  183.0870  179.5660  139.3720 C   0  0  0  0  0  2  0  0  0  0  0  0
  181.6750  179.2480  138.9140 C   0  0  0  0  0  2  0  0  0  0  0  0
  180.7490  180.2880  139.3650 N   0  0  0  0  0  0  0  0  0  0  0  0
  180.2040  181.0320  138.2180 C   0  0  2  0  0  3  0  0  0  0  0  0
  180.8100  181.5240  136.0510 O   0  0  0  0  0  0  0  0  0  0  0  0
  180.5670  180.4400  136.8820 C   0  0  0  0  0  2  0  0  0  0  0  0
  180.6630  182.3480  138.2170 O   0  0  0  0  0  0  0  0  0  0  0  0
  180.6810  183.8830  136.3850 C   0  0  0  0  0  1  0  0  0  0  0  0
  181.1780  182.5580  136.9250 C   0  0  2  0  0  3  0  0  0  0  0  0
  179.7130  179.6750  139.9950 O   0  0  0  0  0  0  0  0  0  0  0  0
  178.9310  181.2190  141.6460 C   0  0  0  0  0  1  0  0  0  0  0  0
  179.8370  180.0400  141.3390 C   0  0  1  0  0  3  0  0  0  0  0  0
  179.5270  178.8560  142.2480 C   0  0  0  0  0  2  0  0  0  0  0  0
  179.3480  177.5610  141.4700 C   0  0  0  0  0  1  0  0  0  0  0  0
  1 39  1  6  0  0  0
  1 25  1  0  0  0  0
  2  1  1  0  0  0  0
  3  2  1  0  0  0  0
  3  4  2  0  0  0  0
  5  3  1  0  0  0  0
  6  5  1  0  0  0  0
  7  9  1  0  0  0  0
  7  8  1  0  0  0  0
  8 11  1  0  0  0  0
  9 10  1  0  0  0  0
 10 11  1  0  0  0  0
 10 12  1  1  0  0  0
 11  6  1  1  0  0  0
 13  7  2  0  0  0  0
 14 13  1  0  0  0  0
 14 15  1  0  0  0  0
 15 16  1  0  0  0  0
 18 16  1  6  0  0  0
 20 23  1  0  0  0  0
 21 24  1  1  0  0  0
 21 18  1  0  0  0  0
 21 19  1  0  0  0  0
 22 17  1  1  0  0  0
 22 20  1  0  0  0  0
 22 21  1  0  0  0  0
 23 19  1  0  0  0  0
 24 18  1  0  0  0  0
 25 26  1  0  0  0  0
 26 27  2  0  0  0  0
 26 28  1  0  0  0  0
 29 28  1  0  0  0  0
 30 35  1  0  0  0  0
 31 29  1  6  0  0  0
 31 32  1  0  0  0  0
 32 33  1  0  0  0  0
 34 30  2  0  0  0  0
 34 31  1  0  0  0  0
 35 33  1  0  0  0  0
 36 38  2  0  0  0  0
 38 37  1  0  0  0  0
 38 34  1  0  0  0  0
 39 40  1  0  0  0  0
 41 40  1  0  0  0  0
 42 41  1  0  0  0  0
 43 42  1  0  0  0  0
 44 45  1  0  0  0  0
 44 43  1  0  0  0  0
 45 52  1  0  0  0  0
 46 45  1  1  0  0  0
 47 48  1  0  0  0  0
 47 51  1  0  0  0  0
 48 46  1  0  0  0  0
 49 46  1  0  0  0  0
 51 50  1  6  0  0  0
 51 49  1  0  0  0  0
 52 54  1  0  0  0  0
 54 53  1  1  0  0  0
 54 55  1  0  0  0  0
 56 55  1  0  0  0  0
M  END
>  <MODEL>
1

>  <REMARK>
 VINA RESULT:      -6.3      0.000      0.000
  Name = 
  25 active torsions:
  status: ('A' for Active; 'I' for Inactive)
    1  A    between atoms: C_1  and  C_32
    2  A    between atoms: C_3  and  C_9
    3  A    between atoms: C_3  and  C_25
    4  A    between atoms: C_4  and  C_35
    5  A    between atoms: C_5  and  C_25
    6  A    between atoms: C_5  and  C_35
    7  A    between atoms: C_7  and  N_13
    8  A    between atoms: C_9  and  N_11
    9  A    between atoms: C_9  and  C_15
   10  A    between atoms: C_12  and  C_21
   11  A    between atoms: C_12  and  C_55
   12  A    between atoms: N_13  and  O_51
   13  A    between atoms: N_13  and  C_53
   14  A    between atoms: C_14  and  N_54
   15  A    between atoms: C_14  and  C_56
   16  A    between atoms: C_15  and  C_21
   17  A    between atoms: C_27  and  N_46
   18  A    between atoms: C_28  and  C_44
   19  A    between atoms: C_29  and  C_53
   20  A    between atoms: C_29  and  C_55
   21  A    between atoms: C_32  and  O_51
   22  A    between atoms: C_33  and  C_56
   23  A    between atoms: C_36  and  N_54
   24  A    between atoms: C_42  and  C_47
   25  A    between atoms: N_46  and  C_47
                            x       y       z     vdW  Elec       q    Type
                         _______ _______ _______ _____ _____    ______ ____

>  <TORSDO>
F 25

$$$$
=
 OpenBabel10222419143D

 56 60  0  0  1  0  0  0  0  0999 V2000
  185.8420  178.5710  142.9210 C   0  0  1  0  0  3  0  0  0  0  0  0
  184.5610  178.3330  142.2650 N   0  0  0  0  0  2  0  0  0  0  0  0
  183.3260  178.8740  142.7410 C   0  0  0  0  0  0  0  0  0  0  0  0
  183.2780  179.5170  143.8270 O   0  0  0  0  0  0  0  0  0  0  0  0
  182.0780  178.6480  141.9600 C   0  0  0  0  0  2  0  0  0  0  0  0
  182.3950  178.4460  140.5570 N   0  0  0  0  0  2  0  0  0  0  0  0
  181.1750  177.8370  137.7230 C   0  0  0  0  0  0  0  0  0  0  0  0
  180.1350  178.1930  139.1370 S   0  0  0  0  0  0  0  0  0  0  0  0
  182.2500  178.8310  137.4730 C   0  0  0  0  0  2  0  0  0  0  0  0
  182.1440  179.8740  138.5660 C   0  0  1  0  0  3  0  0  0  0  0  0
  181.4590  179.2520  139.7810 C   0  0  2  0  0  3  0  0  0  0  0  0
  183.4060  180.3700  138.8910 O   0  0  0  0  0  1  0  0  0  0  0  0
  181.1560  176.7060  137.0060 C   0  0  0  0  0  3  0  0  0  0  0  0
  180.2340  175.6160  137.1540 N   0  0  0  0  0  2  0  0  0  0  0  0
  179.9450  174.5890  136.1650 C   0  0  0  0  0  2  0  0  0  0  0  0
  180.1200  173.2120  136.7740 C   0  0  0  0  0  2  0  0  0  0  0  0
  183.2480  172.7180  136.7020 C   0  0  0  0  0  1  0  0  0  0  0  0
  180.1720  172.1540  135.6830 C   0  0  1  0  0  3  0  0  0  0  0  0
  181.7950  170.5780  134.6070 O   0  0  0  0  0  0  0  0  0  0  0  0
  183.4430  170.3020  136.3320 C   0  0  0  0  0  2  0  0  0  0  0  0
  181.4370  171.3030  135.7510 C   0  0  1  0  0  0  0  0  0  0  0  0
  182.5210  171.3870  136.8000 C   0  0  2  0  0  3  0  0  0  0  0  0
  183.1020  170.1150  134.8580 C   0  0  0  0  0  2  0  0  0  0  0  0
  180.1380  170.7780  136.3250 C   0  0  0  0  0  2  0  0  0  0  0  0
  186.1720  177.4230  143.8700 C   0  0  0  0  0  2  0  0  0  0  0  0
  186.2290  177.9020  145.2890 C   0  0  0  0  0  0  0  0  0  0  0  0
  185.2120  178.2440  145.8690 O   0  0  0  0  0  0  0  0  0  0  0  0
  187.5480  177.9620  145.9910 C   0  0  0  0  0  2  0  0  0  0  0  0
  188.5770  177.0430  145.3390 C   0  0  0  0  0  2  0  0  0  0  0  0
  191.9830  175.9030  145.3580 C   0  0  0  0  0  3  0  0  0  0  0  0
  190.0010  177.3660  145.7850 C   0  0  1  0  0  3  0  0  0  0  0  0
  190.1540  177.0080  147.2740 C   0  0  0  0  0  2  0  0  0  0  0  0
  191.6070  176.7510  147.6490 C   0  0  0  0  0  2  0  0  0  0  0  0
  191.0060  176.6840  144.8690 C   0  0  0  0  0  0  0  0  0  0  0  0
  192.1030  175.5790  146.8120 C   0  0  0  0  0  2  0  0  0  0  0  0
  190.6530  176.1120  142.5900 O   0  0  0  0  0  0  0  0  0  0  0  0
  191.3920  178.2420  142.9670 O   0  0  0  0  0  1  0  0  0  0  0  0
  191.0090  176.9850  143.4250 C   0  0  0  0  0  0  0  0  0  0  0  0
  186.9310  178.6690  141.8690 C   0  0  0  0  0  2  0  0  0  0  0  0
  186.3280  178.7710  140.4830 C   0  0  0  0  0  2  0  0  0  0  0  0
  187.2240  178.0690  139.4770 C   0  0  0  0  0  2  0  0  0  0  0  0
  188.6380  178.6340  139.4830 C   0  0  0  0  0  2  0  0  0  0  0  0
  189.6010  177.7110  138.7560 C   0  0  0  0  0  2  0  0  0  0  0  0
  189.0750  176.2880  138.7680 C   0  0  0  0  0  2  0  0  0  0  0  0
  189.9400  175.4200  137.9680 N   0  0  0  0  0  0  0  0  0  0  0  0
  189.1990  174.8540  136.8300 C   0  0  2  0  0  3  0  0  0  0  0  0
  187.0060  174.5660  136.1850 O   0  0  0  0  0  0  0  0  0  0  0  0
  187.9050  175.5640  136.5330 C   0  0  0  0  0  2  0  0  0  0  0  0
  188.8840  173.5160  137.0590 O   0  0  0  0  0  0  0  0  0  0  0  0
  187.2190  172.2010  135.9560 C   0  0  0  0  0  1  0  0  0  0  0  0
  187.5010  173.4150  136.8170 C   0  0  2  0  0  3  0  0  0  0  0  0
  190.9480  176.1830  137.4710 O   0  0  0  0  0  0  0  0  0  0  0  0
  192.6230  174.5790  136.8820 C   0  0  0  0  0  1  0  0  0  0  0  0
  192.1230  175.5710  137.9180 C   0  0  1  0  0  3  0  0  0  0  0  0
  193.1860  176.6160  138.2370 C   0  0  0  0  0  2  0  0  0  0  0  0
  193.0740  177.1370  139.6620 C   0  0  0  0  0  1  0  0  0  0  0  0
  1 39  1  6  0  0  0
  1 25  1  0  0  0  0
  2  3  1  0  0  0  0
  2  1  1  0  0  0  0
  3  4  2  0  0  0  0
  5  3  1  0  0  0  0
  6  5  1  0  0  0  0
  7  8  1  0  0  0  0
  8 11  1  0  0  0  0
  9  7  1  0  0  0  0
  9 10  1  0  0  0  0
 10 12  1  1  0  0  0
 10 11  1  0  0  0  0
 11  6  1  6  0  0  0
 13 14  1  0  0  0  0
 13  7  2  0  0  0  0
 15 16  1  0  0  0  0
 15 14  1  0  0  0  0
 18 21  1  0  0  0  0
 18 24  1  0  0  0  0
 18 16  1  1  0  0  0
 19 23  1  0  0  0  0
 19 21  1  0  0  0  0
 20 22  1  0  0  0  0
 21 24  1  1  0  0  0
 21 22  1  0  0  0  0
 22 17  1  6  0  0  0
 23 20  1  0  0  0  0
 25 26  1  0  0  0  0
 26 27  2  0  0  0  0
 26 28  1  0  0  0  0
 29 28  1  0  0  0  0
 30 35  1  0  0  0  0
 31 29  1  6  0  0  0
 31 32  1  0  0  0  0
 32 33  1  0  0  0  0
 34 30  2  0  0  0  0
 34 31  1  0  0  0  0
 35 33  1  0  0  0  0
 36 38  2  0  0  0  0
 37 38  1  0  0  0  0
 38 34  1  0  0  0  0
 40 39  1  0  0  0  0
 41 42  1  0  0  0  0
 41 40  1  0  0  0  0
 43 44  1  0  0  0  0
 43 42  1  0  0  0  0
 45 44  1  0  0  0  0
 46 49  1  0  0  0  0
 46 45  1  1  0  0  0
 47 48  1  0  0  0  0
 47 51  1  0  0  0  0
 48 46  1  0  0  0  0
 51 50  1  6  0  0  0
 51 49  1  0  0  0  0
 52 54  1  0  0  0  0
 52 45  1  0  0  0  0
 54 53  1  6  0  0  0
 54 55  1  0  0  0  0
 55 56  1  0  0  0  0
M  END
>  <MODEL>
2

>  <REMARK>
 VINA RESULT:      -6.2      2.819      7.236
  Name = 
  25 active torsions:
  status: ('A' for Active; 'I' for Inactive)
    1  A    between atoms: C_1  and  C_32
    2  A    between atoms: C_3  and  C_9
    3  A    between atoms: C_3  and  C_25
    4  A    between atoms: C_4  and  C_35
    5  A    between atoms: C_5  and  C_25
    6  A    between atoms: C_5  and  C_35
    7  A    between atoms: C_7  and  N_13
    8  A    between atoms: C_9  and  N_11
    9  A    between atoms: C_9  and  C_15
   10  A    between atoms: C_12  and  C_21
   11  A    between atoms: C_12  and  C_55
   12  A    between atoms: N_13  and  O_51
   13  A    between atoms: N_13  and  C_53
   14  A    between atoms: C_14  and  N_54
   15  A    between atoms: C_14  and  C_56
   16  A    between atoms: C_15  and  C_21
   17  A    between atoms: C_27  and  N_46
   18  A    between atoms: C_28  and  C_44
   19  A    between atoms: C_29  and  C_53
   20  A    between atoms: C_29  and  C_55
   21  A    between atoms: C_32  and  O_51
   22  A    between atoms: C_33  and  C_56
   23  A    between atoms: C_36  and  N_54
   24  A    between atoms: C_42  and  C_47
   25  A    between atoms: N_46  and  C_47
                            x       y       z     vdW  Elec       q    Type
                         _______ _______ _______ _____ _____    ______ ____

>  <TORSDO>
F 25

$$$$
=
 OpenBabel10222419143D

 56 60  0  0  1  0  0  0  0  0999 V2000
  186.0410  178.0930  142.7240 C   0  0  1  0  0  3  0  0  0  0  0  0
  187.1340  177.4990  141.9620 N   0  0  0  0  0  2  0  0  0  0  0  0
  187.9990  178.2590  141.1140 C   0  0  0  0  0  0  0  0  0  0  0  0
  187.7900  179.4870  140.9100 O   0  0  0  0  0  0  0  0  0  0  0  0
  189.1420  177.5820  140.4390 C   0  0  0  0  0  2  0  0  0  0  0  0
  189.1520  177.9070  139.0240 N   0  0  0  0  0  2  0  0  0  0  0  0
  189.3920  176.6080  136.1690 C   0  0  0  0  0  0  0  0  0  0  0  0
  189.1510  175.6120  137.6380 S   0  0  0  0  0  0  0  0  0  0  0  0
  188.4220  177.7220  136.0050 C   0  0  0  0  0  2  0  0  0  0  0  0
  187.5030  177.6830  137.2080 C   0  0  1  0  0  3  0  0  0  0  0  0
  188.2260  176.9940  138.3630 C   0  0  2  0  0  3  0  0  0  0  0  0
  187.0990  178.9720  137.5550 O   0  0  0  0  0  1  0  0  0  0  0  0
  190.4340  176.5270  135.3320 C   0  0  0  0  0  3  0  0  0  0  0  0
  191.4940  175.5590  135.3820 N   0  0  0  0  0  2  0  0  0  0  0  0
  191.3880  174.1850  135.8480 C   0  0  0  0  0  2  0  0  0  0  0  0
  192.7120  173.7250  136.4230 C   0  0  0  0  0  2  0  0  0  0  0  0
  195.0240  172.0020  137.7360 C   0  0  0  0  0  1  0  0  0  0  0  0
  193.2410  174.7480  137.4170 C   0  0  1  0  0  3  0  0  0  0  0  0
  195.1420  175.0720  139.0160 O   0  0  0  0  0  0  0  0  0  0  0  0
  196.8240  173.6280  138.0940 C   0  0  0  0  0  2  0  0  0  0  0  0
  194.6790  174.4630  137.8430 C   0  0  1  0  0  0  0  0  0  0  0  0
  195.5680  173.3580  137.3210 C   0  0  2  0  0  3  0  0  0  0  0  0
  196.3680  174.4390  139.3020 C   0  0  0  0  0  2  0  0  0  0  0  0
  194.3950  175.5050  136.7820 C   0  0  0  0  0  2  0  0  0  0  0  0
  186.5880  178.8580  143.9250 C   0  0  0  0  0  2  0  0  0  0  0  0
  186.1850  178.1970  145.2090 C   0  0  0  0  0  0  0  0  0  0  0  0
  185.0250  178.2310  145.5850 O   0  0  0  0  0  0  0  0  0  0  0  0
  187.2200  177.4970  146.0300 C   0  0  0  0  0  2  0  0  0  0  0  0
  188.4390  177.1140  145.1960 C   0  0  0  0  0  2  0  0  0  0  0  0
  191.8600  176.2330  145.8400 C   0  0  0  0  0  3  0  0  0  0  0  0
  189.7440  177.5660  145.8450 C   0  0  1  0  0  3  0  0  0  0  0  0
  189.6710  177.3000  147.3590 C   0  0  0  0  0  2  0  0  0  0  0  0
  191.0550  177.1710  147.9800 C   0  0  0  0  0  2  0  0  0  0  0  0
  190.9300  176.9120  145.1500 C   0  0  0  0  0  0  0  0  0  0  0  0
  191.7580  175.9970  147.3130 C   0  0  0  0  0  2  0  0  0  0  0  0
  191.0240  176.1890  142.8880 O   0  0  0  0  0  0  0  0  0  0  0  0
  191.4980  178.3970  143.2350 O   0  0  0  0  0  1  0  0  0  0  0  0
  191.1530  177.1350  143.7090 C   0  0  0  0  0  0  0  0  0  0  0  0
  185.2770  179.0550  141.8340 C   0  0  0  0  0  2  0  0  0  0  0  0
  184.1270  178.3480  141.1460 C   0  0  0  0  0  2  0  0  0  0  0  0
  184.3470  178.3460  139.6430 C   0  0  0  0  0  2  0  0  0  0  0  0
  183.3270  177.4780  138.9190 C   0  0  0  0  0  2  0  0  0  0  0  0
  182.1840  177.0880  139.8420 C   0  0  0  0  0  2  0  0  0  0  0  0
  180.8780  177.6700  139.3340 C   0  0  0  0  0  2  0  0  0  0  0  0
  180.7160  179.0450  139.8090 N   0  0  0  0  0  0  0  0  0  0  0  0
  180.2410  179.9180  138.7240 C   0  0  2  0  0  3  0  0  0  0  0  0
  181.1450  181.2250  137.0550 O   0  0  0  0  0  0  0  0  0  0  0  0
  181.1290  179.9120  137.5070 C   0  0  0  0  0  2  0  0  0  0  0  0
  180.1500  181.2400  139.1530 O   0  0  0  0  0  0  0  0  0  0  0  0
  180.0500  183.2090  137.8010 C   0  0  0  0  0  1  0  0  0  0  0  0
  180.8580  181.9900  138.1960 C   0  0  2  0  0  3  0  0  0  0  0  0
  179.7690  179.0380  140.7830 O   0  0  0  0  0  0  0  0  0  0  0  0
  179.5310  180.6300  142.5540 C   0  0  0  0  0  1  0  0  0  0  0  0
  180.4040  179.5650  141.9120 C   0  0  1  0  0  3  0  0  0  0  0  0
  180.7430  178.4590  142.9040 C   0  0  0  0  0  2  0  0  0  0  0  0
  181.8200  178.8800  143.8920 C   0  0  0  0  0  1  0  0  0  0  0  0
  1 39  1  6  0  0  0
  1 25  1  0  0  0  0
  2  1  1  0  0  0  0
  3  2  1  0  0  0  0
  4  3  2  0  0  0  0
  5  3  1  0  0  0  0
  6  5  1  0  0  0  0
  7  8  1  0  0  0  0
  8 11  1  0  0  0  0
  9  7  1  0  0  0  0
  9 10  1  0  0  0  0
 10 12  1  1  0  0  0
 10 11  1  0  0  0  0
 11  6  1  6  0  0  0
 13 14  1  0  0  0  0
 13  7  2  0  0  0  0
 14 15  1  0  0  0  0
 15 16  1  0  0  0  0
 18 16  1  6  0  0  0
 18 21  1  0  0  0  0
 19 23  1  0  0  0  0
 20 23  1  0  0  0  0
 21 24  1  6  0  0  0
 21 19  1  0  0  0  0
 22 17  1  1  0  0  0
 22 21  1  0  0  0  0
 22 20  1  0  0  0  0
 24 18  1  0  0  0  0
 25 26  1  0  0  0  0
 26 27  2  0  0  0  0
 26 28  1  0  0  0  0
 29 28  1  0  0  0  0
 30 35  1  0  0  0  0
 31 29  1  6  0  0  0
 31 32  1  0  0  0  0
 32 33  1  0  0  0  0
 34 30  2  0  0  0  0
 34 31  1  0  0  0  0
 35 33  1  0  0  0  0
 36 38  2  0  0  0  0
 37 38  1  0  0  0  0
 38 34  1  0  0  0  0
 40 39  1  0  0  0  0
 41 40  1  0  0  0  0
 42 41  1  0  0  0  0
 42 43  1  0  0  0  0
 44 45  1  0  0  0  0
 44 43  1  0  0  0  0
 45 52  1  0  0  0  0
 46 49  1  0  0  0  0
 46 45  1  1  0  0  0
 47 48  1  0  0  0  0
 47 51  1  0  0  0  0
 48 46  1  0  0  0  0
 51 50  1  6  0  0  0
 51 49  1  0  0  0  0
 52 54  1  0  0  0  0
 54 53  1  1  0  0  0
 54 55  1  0  0  0  0
 55 56  1  0  0  0  0
M  END
>  <MODEL>
3

>  <REMARK>
 VINA RESULT:      -6.2      2.820      5.824
  Name = 
  25 active torsions:
  status: ('A' for Active; 'I' for Inactive)
    1  A    between atoms: C_1  and  C_32
    2  A    between atoms: C_3  and  C_9
    3  A    between atoms: C_3  and  C_25
    4  A    between atoms: C_4  and  C_35
    5  A    between atoms: C_5  and  C_25
    6  A    between atoms: C_5  and  C_35
    7  A    between atoms: C_7  and  N_13
    8  A    between atoms: C_9  and  N_11
    9  A    between atoms: C_9  and  C_15
   10  A    between atoms: C_12  and  C_21
   11  A    between atoms: C_12  and  C_55
   12  A    between atoms: N_13  and  O_51
   13  A    between atoms: N_13  and  C_53
   14  A    between atoms: C_14  and  N_54
   15  A    between atoms: C_14  and  C_56
   16  A    between atoms: C_15  and  C_21
   17  A    between atoms: C_27  and  N_46
   18  A    between atoms: C_28  and  C_44
   19  A    between atoms: C_29  and  C_53
   20  A    between atoms: C_29  and  C_55
   21  A    between atoms: C_32  and  O_51
   22  A    between atoms: C_33  and  C_56
   23  A    between atoms: C_36  and  N_54
   24  A    between atoms: C_42  and  C_47
   25  A    between atoms: N_46  and  C_47
                            x       y       z     vdW  Elec       q    Type
                         _______ _______ _______ _____ _____    ______ ____

>  <TORSDO>
F 25

$$$$
=
 OpenBabel10222419143D

 56 60  0  0  1  0  0  0  0  0999 V2000
  186.0070  178.0370  143.1290 C   0  0  1  0  0  3  0  0  0  0  0  0
  186.7990  178.6220  142.0530 N   0  0  0  0  0  2  0  0  0  0  0  0
  187.9190  177.9610  141.4570 C   0  0  0  0  0  0  0  0  0  0  0  0
  188.3370  176.8590  141.9130 O   0  0  0  0  0  0  0  0  0  0  0  0
  188.6180  178.5970  140.3060 C   0  0  0  0  0  2  0  0  0  0  0  0
  188.7000  177.6660  139.1940 N   0  0  0  0  0  2  0  0  0  0  0  0
  188.1220  176.4490  136.3520 C   0  0  0  0  0  0  0  0  0  0  0  0
  186.8630  176.5040  137.6250 S   0  0  0  0  0  0  0  0  0  0  0  0
  188.7960  177.7450  136.0850 C   0  0  0  0  0  2  0  0  0  0  0  0
  188.1980  178.7550  137.0430 C   0  0  1  0  0  3  0  0  0  0  0  0
  187.6380  178.0170  138.2560 C   0  0  2  0  0  3  0  0  0  0  0  0
  189.1540  179.6990  137.4150 O   0  0  0  0  0  1  0  0  0  0  0  0
  188.5910  175.3390  135.7660 C   0  0  0  0  0  3  0  0  0  0  0  0
  188.1040  174.0020  135.9560 N   0  0  0  0  0  2  0  0  0  0  0  0
  186.9930  173.6010  136.8050 C   0  0  0  0  0  2  0  0  0  0  0  0
  185.7720  173.3020  135.9600 C   0  0  0  0  0  2  0  0  0  0  0  0
  182.9970  174.6130  136.7470 C   0  0  0  0  0  1  0  0  0  0  0  0
  185.0580  172.0640  136.4810 C   0  0  1  0  0  3  0  0  0  0  0  0
  182.7870  171.3290  137.2420 O   0  0  0  0  0  0  0  0  0  0  0  0
  181.3530  172.9020  136.1310 C   0  0  0  0  0  2  0  0  0  0  0  0
  183.5380  172.2040  136.4480 C   0  0  1  0  0  0  0  0  0  0  0  0
  182.7570  173.3750  135.9000 C   0  0  2  0  0  3  0  0  0  0  0  0
  181.4770  171.8460  137.2240 C   0  0  0  0  0  2  0  0  0  0  0  0
  184.2540  171.4430  135.3520 C   0  0  0  0  0  2  0  0  0  0  0  0
  185.9440  178.9910  144.3180 C   0  0  0  0  0  2  0  0  0  0  0  0
  186.0280  178.2390  145.6120 C   0  0  0  0  0  0  0  0  0  0  0  0
  185.0330  177.7220  146.0940 O   0  0  0  0  0  0  0  0  0  0  0  0
  187.3440  178.1290  146.3130 C   0  0  0  0  0  2  0  0  0  0  0  0
  188.4420  177.6270  145.3800 C   0  0  0  0  0  2  0  0  0  0  0  0
  191.8710  176.5820  145.1720 C   0  0  0  0  0  3  0  0  0  0  0  0
  189.8300  177.7690  145.9970 C   0  0  1  0  0  3  0  0  0  0  0  0
  189.9150  176.8820  147.2510 C   0  0  0  0  0  2  0  0  0  0  0  0
  191.3530  176.5110  147.5880 C   0  0  0  0  0  2  0  0  0  0  0  0
  190.9010  177.4830  144.9530 C   0  0  0  0  0  0  0  0  0  0  0  0
  191.9240  175.7390  146.4050 C   0  0  0  0  0  2  0  0  0  0  0  0
  190.6350  179.5150  143.7500 O   0  0  0  0  0  1  0  0  0  0  0  0
  191.4200  177.7470  142.5330 O   0  0  0  0  0  0  0  0  0  0  0  0
  190.9710  178.3010  143.7280 C   0  0  0  0  0  0  0  0  0  0  0  0
  184.5980  177.7800  142.6290 C   0  0  0  0  0  2  0  0  0  0  0  0
  183.6940  178.9510  142.9530 C   0  0  0  0  0  2  0  0  0  0  0  0
  182.4260  178.8720  142.1190 C   0  0  0  0  0  2  0  0  0  0  0  0
  182.6760  178.2260  140.7640 C   0  0  0  0  0  2  0  0  0  0  0  0
  183.0190  179.2670  139.7120 C   0  0  0  0  0  2  0  0  0  0  0  0
  182.5910  178.7860  138.3380 C   0  0  0  0  0  2  0  0  0  0  0  0
  181.1580  178.4870  138.3280 N   0  0  0  0  0  0  0  0  0  0  0  0
  180.4010  179.5910  137.7160 C   0  0  2  0  0  3  0  0  0  0  0  0
  180.8120  181.4040  136.3560 O   0  0  0  0  0  0  0  0  0  0  0  0
  180.9320  180.0220  136.3750 C   0  0  0  0  0  2  0  0  0  0  0  0
  180.4140  180.7170  138.5380 O   0  0  0  0  0  0  0  0  0  0  0  0
  179.9370  182.9770  137.9220 C   0  0  0  0  0  1  0  0  0  0  0  0
  180.8330  181.7740  137.7100 C   0  0  2  0  0  3  0  0  0  0  0  0
  180.9710  177.3800  137.5630 O   0  0  0  0  0  0  0  0  0  0  0  0
  179.1790  175.8470  137.1590 C   0  0  0  0  0  1  0  0  0  0  0  0
  179.9300  176.6810  138.1820 C   0  0  1  0  0  3  0  0  0  0  0  0
  180.4630  175.8140  139.3160 C   0  0  0  0  0  2  0  0  0  0  0  0
  179.8620  174.4160  139.3060 C   0  0  0  0  0  1  0  0  0  0  0  0
  1 39  1  6  0  0  0
  1 25  1  0  0  0  0
  2  1  1  0  0  0  0
  3  4  2  0  0  0  0
  3  2  1  0  0  0  0
  5  3  1  0  0  0  0
  6  5  1  0  0  0  0
  7  8  1  0  0  0  0
  8 11  1  0  0  0  0
  9  7  1  0  0  0  0
  9 10  1  0  0  0  0
 10 12  1  1  0  0  0
 10 11  1  0  0  0  0
 11  6  1  1  0  0  0
 13 14  1  0  0  0  0
 13  7  2  0  0  0  0
 14 15  1  0  0  0  0
 16 15  1  0  0  0  0
 18 16  1  6  0  0  0
 20 23  1  0  0  0  0
 21 24  1  6  0  0  0
 21 18  1  0  0  0  0
 21 19  1  0  0  0  0
 22 20  1  0  0  0  0
 22 21  1  0  0  0  0
 22 17  1  1  0  0  0
 23 19  1  0  0  0  0
 24 18  1  0  0  0  0
 25 26  1  0  0  0  0
 26 27  2  0  0  0  0
 26 28  1  0  0  0  0
 29 28  1  0  0  0  0
 30 35  1  0  0  0  0
 31 29  1  6  0  0  0
 31 32  1  0  0  0  0
 32 33  1  0  0  0  0
 34 30  2  0  0  0  0
 34 31  1  0  0  0  0
 35 33  1  0  0  0  0
 37 38  2  0  0  0  0
 38 36  1  0  0  0  0
 38 34  1  0  0  0  0
 39 40  1  0  0  0  0
 41 40  1  0  0  0  0
 42 41  1  0  0  0  0
 43 42  1  0  0  0  0
 44 43  1  0  0  0  0
 45 44  1  0  0  0  0
 46 45  1  1  0  0  0
 46 49  1  0  0  0  0
 47 48  1  0  0  0  0
 47 51  1  0  0  0  0
 48 46  1  0  0  0  0
 51 50  1  6  0  0  0
 51 49  1  0  0  0  0
 52 54  1  0  0  0  0
 52 45  1  0  0  0  0
 54 53  1  6  0  0  0
 54 55  1  0  0  0  0
 56 55  1  0  0  0  0
M  END
>  <MODEL>
4

>  <REMARK>
 VINA RESULT:      -6.1      1.729      2.433
  Name = 
  25 active torsions:
  status: ('A' for Active; 'I' for Inactive)
    1  A    between atoms: C_1  and  C_32
    2  A    between atoms: C_3  and  C_9
    3  A    between atoms: C_3  and  C_25
    4  A    between atoms: C_4  and  C_35
    5  A    between atoms: C_5  and  C_25
    6  A    between atoms: C_5  and  C_35
    7  A    between atoms: C_7  and  N_13
    8  A    between atoms: C_9  and  N_11
    9  A    between atoms: C_9  and  C_15
   10  A    between atoms: C_12  and  C_21
   11  A    between atoms: C_12  and  C_55
   12  A    between atoms: N_13  and  O_51
   13  A    between atoms: N_13  and  C_53
   14  A    between atoms: C_14  and  N_54
   15  A    between atoms: C_14  and  C_56
   16  A    between atoms: C_15  and  C_21
   17  A    between atoms: C_27  and  N_46
   18  A    between atoms: C_28  and  C_44
   19  A    between atoms: C_29  and  C_53
   20  A    between atoms: C_29  and  C_55
   21  A    between atoms: C_32  and  O_51
   22  A    between atoms: C_33  and  C_56
   23  A    between atoms: C_36  and  N_54
   24  A    between atoms: C_42  and  C_47
   25  A    between atoms: N_46  and  C_47
                            x       y       z     vdW  Elec       q    Type
                         _______ _______ _______ _____ _____    ______ ____

>  <TORSDO>
F 25

$$$$
=
 OpenBabel10222419143D

 56 60  0  0  1  0  0  0  0  0999 V2000
  185.6500  178.6350  142.4970 C   0  0  1  0  0  3  0  0  0  0  0  0
  184.3850  178.2770  141.8660 N   0  0  0  0  0  2  0  0  0  0  0  0
  183.1180  178.7550  142.3270 C   0  0  0  0  0  0  0  0  0  0  0  0
  183.0320  179.4450  143.3810 O   0  0  0  0  0  0  0  0  0  0  0  0
  181.8840  178.4060  141.5700 C   0  0  0  0  0  2  0  0  0  0  0  0
  182.1170  178.5420  140.1430 N   0  0  0  0  0  2  0  0  0  0  0  0
  180.5450  178.0870  137.4560 C   0  0  0  0  0  0  0  0  0  0  0  0
  179.7000  178.2030  139.0320 S   0  0  0  0  0  0  0  0  0  0  0  0
  181.4840  179.2010  137.1690 C   0  0  0  0  0  2  0  0  0  0  0  0
  181.4550  180.1200  138.3720 C   0  0  1  0  0  3  0  0  0  0  0  0
  181.0120  179.3220  139.5950 C   0  0  2  0  0  3  0  0  0  0  0  0
  182.7050  180.7060  138.5690 O   0  0  0  0  0  1  0  0  0  0  0  0
  180.5160  177.0330  136.6300 C   0  0  0  0  0  3  0  0  0  0  0  0
  179.7200  175.8480  136.7870 N   0  0  0  0  0  2  0  0  0  0  0  0
  179.5770  174.7700  135.8210 C   0  0  0  0  0  2  0  0  0  0  0  0
  179.9130  173.4410  136.4670 C   0  0  0  0  0  2  0  0  0  0  0  0
  183.0420  173.7140  136.8810 C   0  0  0  0  0  1  0  0  0  0  0  0
  180.3840  172.4470  135.4160 C   0  0  1  0  0  3  0  0  0  0  0  0
  182.4830  171.3270  134.6300 O   0  0  0  0  0  0  0  0  0  0  0  0
  183.8660  171.4230  136.5910 C   0  0  0  0  0  2  0  0  0  0  0  0
  181.7910  171.9240  135.6930 C   0  0  1  0  0  0  0  0  0  0  0  0
  182.6500  172.2470  136.8930 C   0  0  2  0  0  3  0  0  0  0  0  0
  183.8090  171.1880  135.0860 C   0  0  0  0  0  2  0  0  0  0  0  0
  180.5840  171.0910  136.0720 C   0  0  0  0  0  2  0  0  0  0  0  0
  186.0770  177.5480  143.4790 C   0  0  0  0  0  2  0  0  0  0  0  0
  185.9500  178.0260  144.8940 C   0  0  0  0  0  0  0  0  0  0  0  0
  184.8590  178.3240  145.3520 O   0  0  0  0  0  0  0  0  0  0  0  0
  187.1760  178.1410  145.7430 C   0  0  0  0  0  2  0  0  0  0  0  0
  188.3700  177.4330  145.1100 C   0  0  0  0  0  2  0  0  0  0  0  0
  191.8790  176.6910  145.2870 C   0  0  0  0  0  3  0  0  0  0  0  0
  189.6640  177.6890  145.8780 C   0  0  1  0  0  3  0  0  0  0  0  0
  189.6860  176.8030  147.1350 C   0  0  0  0  0  2  0  0  0  0  0  0
  191.1040  176.5550  147.6300 C   0  0  0  0  0  2  0  0  0  0  0  0
  190.8640  177.5060  144.9600 C   0  0  0  0  0  0  0  0  0  0  0  0
  191.8680  175.8460  146.5200 C   0  0  0  0  0  2  0  0  0  0  0  0
  191.1950  177.8030  142.6260 O   0  0  0  0  0  0  0  0  0  0  0  0
  190.8960  179.7230  143.8290 O   0  0  0  0  0  1  0  0  0  0  0  0
  190.9980  178.3380  143.7490 C   0  0  0  0  0  0  0  0  0  0  0  0
  186.7180  178.7800  141.4290 C   0  0  0  0  0  2  0  0  0  0  0  0
  186.1580  178.4400  140.0630 C   0  0  0  0  0  2  0  0  0  0  0  0
  187.1950  177.6800  139.2540 C   0  0  0  0  0  2  0  0  0  0  0  0
  187.8490  178.5600  138.1980 C   0  0  0  0  0  2  0  0  0  0  0  0
  189.1310  177.9340  137.6770 C   0  0  0  0  0  2  0  0  0  0  0  0
  189.4920  176.7120  138.5030 C   0  0  0  0  0  2  0  0  0  0  0  0
  190.2850  175.7760  137.7060 N   0  0  0  0  0  0  0  0  0  0  0  0
  191.5820  175.5140  138.3490 C   0  0  2  0  0  3  0  0  0  0  0  0
  193.7700  176.2060  138.1410 O   0  0  0  0  0  0  0  0  0  0  0  0
  192.4980  176.7090  138.3780 C   0  0  0  0  0  2  0  0  0  0  0  0
  192.2670  174.4940  137.6910 O   0  0  0  0  0  0  0  0  0  0  0  0
  194.6020  173.9950  137.8050 C   0  0  0  0  0  1  0  0  0  0  0  0
  193.5470  175.0160  137.4310 C   0  0  2  0  0  3  0  0  0  0  0  0
  189.6050  174.6020  137.6460 O   0  0  0  0  0  0  0  0  0  0  0  0
  189.5650  173.1760  135.7250 C   0  0  0  0  0  1  0  0  0  0  0  0
  189.1530  174.5090  136.3260 C   0  0  1  0  0  3  0  0  0  0  0  0
  187.6420  174.7000  136.2590 C   0  0  0  0  0  2  0  0  0  0  0  0
  186.8900  173.6310  137.0380 C   0  0  0  0  0  1  0  0  0  0  0  0
  1 39  1  6  0  0  0
  1 25  1  0  0  0  0
  2  3  1  0  0  0  0
  2  1  1  0  0  0  0
  3  4  2  0  0  0  0
  5  3  1  0  0  0  0
  6  5  1  0  0  0  0
  7  8  1  0  0  0  0
  8 11  1  0  0  0  0
  9  7  1  0  0  0  0
  9 10  1  0  0  0  0
 10 12  1  1  0  0  0
 10 11  1  0  0  0  0
 11  6  1  6  0  0  0
 13 14  1  0  0  0  0
 13  7  2  0  0  0  0
 15 16  1  0  0  0  0
 15 14  1  0  0  0  0
 18 21  1  0  0  0  0
 18 24  1  0  0  0  0
 18 16  1  1  0  0  0
 19 23  1  0  0  0  0
 19 21  1  0  0  0  0
 20 22  1  0  0  0  0
 21 24  1  1  0  0  0
 21 22  1  0  0  0  0
 22 17  1  6  0  0  0
 23 20  1  0  0  0  0
 25 26  1  0  0  0  0
 26 27  2  0  0  0  0
 26 28  1  0  0  0  0
 29 28  1  0  0  0  0
 30 35  1  0  0  0  0
 31 29  1  6  0  0  0
 31 32  1  0  0  0  0
 32 33  1  0  0  0  0
 34 30  2  0  0  0  0
 34 31  1  0  0  0  0
 35 33  1  0  0  0  0
 36 38  2  0  0  0  0
 38 37  1  0  0  0  0
 38 34  1  0  0  0  0
 40 39  1  0  0  0  0
 41 40  1  0  0  0  0
 42 41  1  0  0  0  0
 43 42  1  0  0  0  0
 43 44  1  0  0  0  0
 45 44  1  0  0  0  0
 46 45  1  6  0  0  0
 46 48  1  0  0  0  0
 47 48  1  0  0  0  0
 49 46  1  0  0  0  0
 51 49  1  0  0  0  0
 51 50  1  1  0  0  0
 51 47  1  0  0  0  0
 52 45  1  0  0  0  0
 54 53  1  1  0  0  0
 54 52  1  0  0  0  0
 55 54  1  0  0  0  0
 55 56  1  0  0  0  0
M  END
>  <MODEL>
5

>  <REMARK>
 VINA RESULT:      -5.9      2.686      7.527
  Name = 
  25 active torsions:
  status: ('A' for Active; 'I' for Inactive)
    1  A    between atoms: C_1  and  C_32
    2  A    between atoms: C_3  and  C_9
    3  A    between atoms: C_3  and  C_25
    4  A    between atoms: C_4  and  C_35
    5  A    between atoms: C_5  and  C_25
    6  A    between atoms: C_5  and  C_35
    7  A    between atoms: C_7  and  N_13
    8  A    between atoms: C_9  and  N_11
    9  A    between atoms: C_9  and  C_15
   10  A    between atoms: C_12  and  C_21
   11  A    between atoms: C_12  and  C_55
   12  A    between atoms: N_13  and  O_51
   13  A    between atoms: N_13  and  C_53
   14  A    between atoms: C_14  and  N_54
   15  A    between atoms: C_14  and  C_56
   16  A    between atoms: C_15  and  C_21
   17  A    between atoms: C_27  and  N_46
   18  A    between atoms: C_28  and  C_44
   19  A    between atoms: C_29  and  C_53
   20  A    between atoms: C_29  and  C_55
   21  A    between atoms: C_32  and  O_51
   22  A    between atoms: C_33  and  C_56
   23  A    between atoms: C_36  and  N_54
   24  A    between atoms: C_42  and  C_47
   25  A    between atoms: N_46  and  C_47
                            x       y       z     vdW  Elec       q    Type
                         _______ _______ _______ _____ _____    ______ ____

>  <TORSDO>
F 25

$$$$
=
 OpenBabel10222419143D

 56 60  0  0  1  0  0  0  0  0999 V2000
  185.8320  178.0550  142.8420 C   0  0  1  0  0  3  0  0  0  0  0  0
  186.7400  178.7000  141.9000 N   0  0  0  0  0  2  0  0  0  0  0  0
  187.9260  178.0750  141.4020 C   0  0  0  0  0  0  0  0  0  0  0  0
  188.2950  176.9490  141.8400 O   0  0  0  0  0  0  0  0  0  0  0  0
  188.7490  178.7760  140.3770 C   0  0  0  0  0  2  0  0  0  0  0  0
  189.1510  177.8460  139.3360 N   0  0  0  0  0  2  0  0  0  0  0  0
  189.1630  176.5020  136.4930 C   0  0  1  0  0  3  0  0  0  0  0  0
  187.8940  176.1330  137.7020 S   0  0  0  0  0  0  0  0  0  0  0  0
  189.3780  177.9480  136.2350 C   0  0  0  0  0  2  0  0  0  0  0  0
  188.4280  178.7010  137.1430 C   0  0  1  0  0  3  0  0  0  0  0  0
  188.0840  177.8200  138.3420 C   0  0  2  0  0  3  0  0  0  0  0  0
  188.9920  179.9110  137.5450 O   0  0  0  0  0  1  0  0  0  0  0  0
  190.0070  175.6130  135.9510 C   0  0  0  0  0  3  0  0  0  0  0  0
  189.9860  174.1900  136.1420 N   0  0  0  0  0  0  0  0  0  0  0  0
  190.9720  173.2390  135.6530 C   0  0  0  0  0  2  0  0  0  0  0  0
  192.2560  173.3630  136.4490 C   0  0  0  0  0  2  0  0  0  0  0  0
  194.1650  175.8540  136.0240 C   0  0  0  0  0  1  0  0  0  0  0  0
  193.3980  172.6710  135.7210 C   0  0  1  0  0  3  0  0  0  0  0  0
  195.7220  173.1330  134.9060 O   0  0  0  0  0  0  0  0  0  0  0  0
  196.4110  174.9250  136.3490 C   0  0  0  0  0  2  0  0  0  0  0  0
  194.7140  173.4370  135.8310 C   0  0  1  0  0  0  0  0  0  0  0  0
  194.9530  174.7010  136.6210 C   0  0  2  0  0  3  0  0  0  0  0  0
  196.6880  174.1460  135.0680 C   0  0  0  0  0  2  0  0  0  0  0  0
  194.4490  172.2500  136.7330 C   0  0  0  0  0  2  0  0  0  0  0  0
  185.6840  178.9060  144.1000 C   0  0  0  0  0  2  0  0  0  0  0  0
  186.0530  178.1200  145.3220 C   0  0  0  0  0  0  0  0  0  0  0  0
  185.2790  177.3000  145.7890 O   0  0  0  0  0  0  0  0  0  0  0  0
  187.3790  178.3540  145.9710 C   0  0  0  0  0  2  0  0  0  0  0  0
  188.4790  177.5160  145.3270 C   0  0  0  0  0  2  0  0  0  0  0  0
  191.9600  176.6320  145.2780 C   0  0  0  0  0  3  0  0  0  0  0  0
  189.8280  177.7110  146.0160 C   0  0  1  0  0  3  0  0  0  0  0  0
  189.8910  176.8080  147.2600 C   0  0  0  0  0  2  0  0  0  0  0  0
  191.3260  176.4970  147.6630 C   0  0  0  0  0  2  0  0  0  0  0  0
  190.9610  177.4910  145.0230 C   0  0  0  0  0  0  0  0  0  0  0  0
  191.9900  175.7720  146.5010 C   0  0  0  0  0  2  0  0  0  0  0  0
  190.9540  179.5850  143.9000 O   0  0  0  0  0  1  0  0  0  0  0  0
  191.2650  177.7550  142.5670 O   0  0  0  0  0  0  0  0  0  0  0  0
  191.0540  178.3320  143.8150 C   0  0  0  0  0  0  0  0  0  0  0  0
  184.4710  177.8930  142.1930 C   0  0  0  0  0  2  0  0  0  0  0  0
  183.4720  178.8580  142.7980 C   0  0  0  0  0  2  0  0  0  0  0  0
  182.2270  178.9250  141.9310 C   0  0  0  0  0  2  0  0  0  0  0  0
  182.4790  178.3840  140.5300 C   0  0  0  0  0  2  0  0  0  0  0  0
  182.8780  179.4960  139.5750 C   0  0  0  0  0  2  0  0  0  0  0  0
  182.2190  179.2890  138.2230 C   0  0  0  0  0  2  0  0  0  0  0  0
  180.7840  179.0510  138.3890 N   0  0  0  0  0  0  0  0  0  0  0  0
  180.0110  180.2390  137.9960 C   0  0  2  0  0  3  0  0  0  0  0  0
  179.7060  181.5410  136.1200 O   0  0  0  0  0  0  0  0  0  0  0  0
  179.5740  180.2300  136.5550 C   0  0  0  0  0  2  0  0  0  0  0  0
  180.7560  181.4010  138.1860 O   0  0  0  0  0  0  0  0  0  0  0  0
  180.3760  183.5520  137.2150 C   0  0  0  0  0  1  0  0  0  0  0  0
  180.6850  182.0910  136.9620 C   0  0  2  0  0  3  0  0  0  0  0  0
  180.4350  178.0320  137.5610 O   0  0  0  0  0  0  0  0  0  0  0  0
  178.9340  176.5540  138.6950 C   0  0  0  0  0  1  0  0  0  0  0  0
  180.3780  176.9000  138.3790 C   0  0  1  0  0  3  0  0  0  0  0  0
  181.0950  175.7260  137.7220 C   0  0  0  0  0  2  0  0  0  0  0  0
  182.3570  175.3280  138.4710 C   0  0  0  0  0  1  0  0  0  0  0  0
  1 39  1  6  0  0  0
  1 25  1  0  0  0  0
  2  1  1  0  0  0  0
  3  4  2  0  0  0  0
  3  2  1  0  0  0  0
  5  3  1  0  0  0  0
  6  5  1  0  0  0  0
  7 13  1  1  0  0  0
  7  8  1  0  0  0  0
  8 11  1  0  0  0  0
  9  7  1  0  0  0  0
  9 10  1  0  0  0  0
 10 12  1  1  0  0  0
 10 11  1  0  0  0  0
 11  6  1  1  0  0  0
 13 14  2  0  0  0  0
 15 14  1  0  0  0  0
 15 16  1  0  0  0  0
 18 21  1  0  0  0  0
 18 16  1  1  0  0  0
 18 24  1  0  0  0  0
 19 23  1  0  0  0  0
 19 21  1  0  0  0  0
 20 22  1  0  0  0  0
 21 22  1  0  0  0  0
 21 24  1  1  0  0  0
 22 17  1  6  0  0  0
 23 20  1  0  0  0  0
 25 26  1  0  0  0  0
 26 27  2  0  0  0  0
 26 28  1  0  0  0  0
 29 28  1  0  0  0  0
 30 35  1  0  0  0  0
 31 29  1  6  0  0  0
 31 32  1  0  0  0  0
 32 33  1  0  0  0  0
 34 30  2  0  0  0  0
 34 31  1  0  0  0  0
 35 33  1  0  0  0  0
 37 38  2  0  0  0  0
 38 36  1  0  0  0  0
 38 34  1  0  0  0  0
 39 40  1  0  0  0  0
 41 40  1  0  0  0  0
 42 41  1  0  0  0  0
 43 42  1  0  0  0  0
 44 45  1  0  0  0  0
 44 43  1  0  0  0  0
 46 49  1  0  0  0  0
 46 45  1  6  0  0  0
 47 48  1  0  0  0  0
 47 51  1  0  0  0  0
 48 46  1  0  0  0  0
 51 50  1  1  0  0  0
 51 49  1  0  0  0  0
 52 54  1  0  0  0  0
 52 45  1  0  0  0  0
 54 53  1  6  0  0  0
 55 54  1  0  0  0  0
 55 56  1  0  0  0  0
M  END
>  <MODEL>
6

>  <REMARK>
 VINA RESULT:      -5.8      2.735      5.881
  Name = 
  25 active torsions:
  status: ('A' for Active; 'I' for Inactive)
    1  A    between atoms: C_1  and  C_32
    2  A    between atoms: C_3  and  C_9
    3  A    between atoms: C_3  and  C_25
    4  A    between atoms: C_4  and  C_35
    5  A    between atoms: C_5  and  C_25
    6  A    between atoms: C_5  and  C_35
    7  A    between atoms: C_7  and  N_13
    8  A    between atoms: C_9  and  N_11
    9  A    between atoms: C_9  and  C_15
   10  A    between atoms: C_12  and  C_21
   11  A    between atoms: C_12  and  C_55
   12  A    between atoms: N_13  and  O_51
   13  A    between atoms: N_13  and  C_53
   14  A    between atoms: C_14  and  N_54
   15  A    between atoms: C_14  and  C_56
   16  A    between atoms: C_15  and  C_21
   17  A    between atoms: C_27  and  N_46
   18  A    between atoms: C_28  and  C_44
   19  A    between atoms: C_29  and  C_53
   20  A    between atoms: C_29  and  C_55
   21  A    between atoms: C_32  and  O_51
   22  A    between atoms: C_33  and  C_56
   23  A    between atoms: C_36  and  N_54
   24  A    between atoms: C_42  and  C_47
   25  A    between atoms: N_46  and  C_47
                            x       y       z     vdW  Elec       q    Type
                         _______ _______ _______ _____ _____    ______ ____

>  <TORSDO>
F 25

$$$$
=
 OpenBabel10222419143D

 56 60  0  0  1  0  0  0  0  0999 V2000
  185.8720  178.1190  142.7250 C   0  0  1  0  0  3  0  0  0  0  0  0
  186.9770  177.4980  142.0040 N   0  0  0  0  0  2  0  0  0  0  0  0
  187.9130  178.2400  141.2170 C   0  0  0  0  0  0  0  0  0  0  0  0
  187.7630  179.4810  141.0340 O   0  0  0  0  0  0  0  0  0  0  0  0
  189.0610  177.5330  140.5840 C   0  0  0  0  0  2  0  0  0  0  0  0
  189.1800  177.9220  139.1890 N   0  0  0  0  0  2  0  0  0  0  0  0
  189.7170  176.7260  136.3300 C   0  0  0  0  0  0  0  0  0  0  0  0
  189.3570  175.6760  137.7360 S   0  0  0  0  0  0  0  0  0  0  0  0
  188.7460  177.8280  136.1100 C   0  0  0  0  0  2  0  0  0  0  0  0
  187.7180  177.7340  137.2170 C   0  0  1  0  0  3  0  0  0  0  0  0
  188.3400  177.0170  138.4130 C   0  0  2  0  0  3  0  0  0  0  0  0
  187.2570  179.0030  137.5660 O   0  0  0  0  0  1  0  0  0  0  0  0
  190.8370  176.6900  135.5960 C   0  0  0  0  0  3  0  0  0  0  0  0
  191.9060  175.7390  135.7150 N   0  0  0  0  0  2  0  0  0  0  0  0
  193.2010  175.9700  136.3350 C   0  0  0  0  0  2  0  0  0  0  0  0
  194.2840  175.2360  135.5710 C   0  0  0  0  0  2  0  0  0  0  0  0
  197.4360  175.1990  135.2540 C   0  0  0  0  0  1  0  0  0  0  0  0
  194.5780  173.8950  136.2280 C   0  0  1  0  0  3  0  0  0  0  0  0
  196.5210  172.5100  136.9890 O   0  0  0  0  0  0  0  0  0  0  0  0
  198.2150  174.1750  137.3420 C   0  0  0  0  0  2  0  0  0  0  0  0
  196.0150  173.7900  136.7310 C   0  0  1  0  0  0  0  0  0  0  0  0
  197.0620  174.8780  136.6920 C   0  0  2  0  0  3  0  0  0  0  0  0
  197.9060  172.6910  137.1750 C   0  0  0  0  0  2  0  0  0  0  0  0
  194.8960  174.1210  137.6960 C   0  0  0  0  0  2  0  0  0  0  0  0
  186.3980  178.9130  143.9160 C   0  0  0  0  0  2  0  0  0  0  0  0
  185.9980  178.2670  145.2090 C   0  0  0  0  0  0  0  0  0  0  0  0
  184.8440  178.3240  145.5990 O   0  0  0  0  0  0  0  0  0  0  0  0
  187.0300  177.5530  146.0220 C   0  0  0  0  0  2  0  0  0  0  0  0
  188.2640  177.2080  145.1930 C   0  0  0  0  0  2  0  0  0  0  0  0
  191.6850  176.3770  145.9010 C   0  0  0  0  0  3  0  0  0  0  0  0
  189.5530  177.6840  145.8570 C   0  0  1  0  0  3  0  0  0  0  0  0
  189.4590  177.4350  147.3720 C   0  0  0  0  0  2  0  0  0  0  0  0
  190.8340  177.3310  148.0170 C   0  0  0  0  0  2  0  0  0  0  0  0
  190.7580  177.0360  145.1880 C   0  0  0  0  0  0  0  0  0  0  0  0
  191.5630  176.1570  147.3740 C   0  0  0  0  0  2  0  0  0  0  0  0
  191.0340  176.2650  142.9580 O   0  0  0  0  0  0  0  0  0  0  0  0
  191.1850  178.5270  143.2420 O   0  0  0  0  0  1  0  0  0  0  0  0
  191.0010  177.2440  143.7480 C   0  0  0  0  0  0  0  0  0  0  0  0
  185.1330  179.0600  141.7930 C   0  0  0  0  0  2  0  0  0  0  0  0
  183.7580  178.5160  141.4640 C   0  0  0  0  0  2  0  0  0  0  0  0
  183.7560  177.9260  140.0640 C   0  0  0  0  0  2  0  0  0  0  0  0
  182.5550  177.0220  139.8280 C   0  0  0  0  0  2  0  0  0  0  0  0
  181.3250  177.8290  139.4480 C   0  0  0  0  0  2  0  0  0  0  0  0
  180.8010  177.3810  138.0960 C   0  0  0  0  0  2  0  0  0  0  0  0
  181.4380  178.1480  137.0250 N   0  0  0  0  0  0  0  0  0  0  0  0
  182.1240  177.2520  136.0810 C   0  0  2  0  0  3  0  0  0  0  0  0
  183.1000  175.1650  136.1000 O   0  0  0  0  0  0  0  0  0  0  0  0
  181.8860  175.7900  136.3490 C   0  0  0  0  0  2  0  0  0  0  0  0
  183.5030  177.4520  136.1190 O   0  0  0  0  0  0  0  0  0  0  0  0
  185.2130  175.9740  135.3410 C   0  0  0  0  0  1  0  0  0  0  0  0
  184.0570  176.1720  136.3010 C   0  0  2  0  0  3  0  0  0  0  0  0
  180.4600  178.8010  136.3450 O   0  0  0  0  0  0  0  0  0  0  0  0
  180.7670  180.4260  134.6160 C   0  0  0  0  0  1  0  0  0  0  0  0
  180.9870  180.0680  136.0750 C   0  0  1  0  0  3  0  0  0  0  0  0
  180.3720  181.1140  136.9980 C   0  0  0  0  0  2  0  0  0  0  0  0
  180.6130  182.5320  136.5050 C   0  0  0  0  0  1  0  0  0  0  0  0
  1 39  1  6  0  0  0
  1 25  1  0  0  0  0
  2  1  1  0  0  0  0
  3  2  1  0  0  0  0
  4  3  2  0  0  0  0
  5  3  1  0  0  0  0
  6  5  1  0  0  0  0
  7  8  1  0  0  0  0
  8 11  1  0  0  0  0
  9  7  1  0  0  0  0
  9 10  1  0  0  0  0
 10 12  1  1  0  0  0
 10 11  1  0  0  0  0
 11  6  1  6  0  0  0
 13 14  1  0  0  0  0
 13  7  2  0  0  0  0
 14 15  1  0  0  0  0
 16 15  1  0  0  0  0
 18 16  1  6  0  0  0
 18 21  1  0  0  0  0
 18 24  1  0  0  0  0
 19 23  1  0  0  0  0
 21 19  1  0  0  0  0
 21 24  1  1  0  0  0
 22 17  1  6  0  0  0
 22 21  1  0  0  0  0
 22 20  1  0  0  0  0
 23 20  1  0  0  0  0
 25 26  1  0  0  0  0
 26 27  2  0  0  0  0
 26 28  1  0  0  0  0
 29 28  1  0  0  0  0
 30 35  1  0  0  0  0
 31 29  1  6  0  0  0
 31 32  1  0  0  0  0
 32 33  1  0  0  0  0
 34 31  1  0  0  0  0
 34 30  2  0  0  0  0
 35 33  1  0  0  0  0
 36 38  2  0  0  0  0
 37 38  1  0  0  0  0
 38 34  1  0  0  0  0
 40 39  1  0  0  0  0
 41 40  1  0  0  0  0
 42 41  1  0  0  0  0
 43 42  1  0  0  0  0
 44 43  1  0  0  0  0
 45 44  1  0  0  0  0
 46 49  1  0  0  0  0
 46 48  1  0  0  0  0
 46 45  1  1  0  0  0
 47 51  1  0  0  0  0
 47 48  1  0  0  0  0
 49 51  1  0  0  0  0
 51 50  1  6  0  0  0
 52 45  1  0  0  0  0
 54 53  1  6  0  0  0
 54 52  1  0  0  0  0
 54 55  1  0  0  0  0
 56 55  1  0  0  0  0
M  END
>  <MODEL>
7

>  <REMARK>
 VINA RESULT:      -5.6      3.375      6.968
  Name = 
  25 active torsions:
  status: ('A' for Active; 'I' for Inactive)
    1  A    between atoms: C_1  and  C_32
    2  A    between atoms: C_3  and  C_9
    3  A    between atoms: C_3  and  C_25
    4  A    between atoms: C_4  and  C_35
    5  A    between atoms: C_5  and  C_25
    6  A    between atoms: C_5  and  C_35
    7  A    between atoms: C_7  and  N_13
    8  A    between atoms: C_9  and  N_11
    9  A    between atoms: C_9  and  C_15
   10  A    between atoms: C_12  and  C_21
   11  A    between atoms: C_12  and  C_55
   12  A    between atoms: N_13  and  O_51
   13  A    between atoms: N_13  and  C_53
   14  A    between atoms: C_14  and  N_54
   15  A    between atoms: C_14  and  C_56
   16  A    between atoms: C_15  and  C_21
   17  A    between atoms: C_27  and  N_46
   18  A    between atoms: C_28  and  C_44
   19  A    between atoms: C_29  and  C_53
   20  A    between atoms: C_29  and  C_55
   21  A    between atoms: C_32  and  O_51
   22  A    between atoms: C_33  and  C_56
   23  A    between atoms: C_36  and  N_54
   24  A    between atoms: C_42  and  C_47
   25  A    between atoms: N_46  and  C_47
                            x       y       z     vdW  Elec       q    Type
                         _______ _______ _______ _____ _____    ______ ____

>  <TORSDO>
F 25

$$$$
=
 OpenBabel10222419143D

 56 60  0  0  1  0  0  0  0  0999 V2000
  189.9730  177.5840  139.3310 C   0  0  1  0  0  3  0  0  0  0  0  0
  190.3640  177.4220  140.7270 N   0  0  0  0  0  2  0  0  0  0  0  0
  191.7060  177.5940  141.1890 C   0  0  0  0  0  0  0  0  0  0  0  0
  192.6480  177.8050  140.3740 O   0  0  0  0  0  0  0  0  0  0  0  0
  191.9990  177.4920  142.6460 C   0  0  0  0  0  2  0  0  0  0  0  0
  190.8250  177.8550  143.4190 N   0  0  0  0  0  2  0  0  0  0  0  0
  188.1980  177.4420  145.1000 C   0  0  0  0  0  0  0  0  0  0  0  0
  188.6140  176.3700  143.7260 S   0  0  0  0  0  0  0  0  0  0  0  0
  189.2770  177.6110  146.1070 C   0  0  0  0  0  2  0  0  0  0  0  0
  190.4630  176.8070  145.6180 C   0  0  1  0  0  3  0  0  0  0  0  0
  190.3660  176.6500  144.1020 C   0  0  2  0  0  3  0  0  0  0  0  0
  191.6570  177.4210  145.9920 O   0  0  0  0  0  1  0  0  0  0  0  0
  187.0960  178.1960  145.1950 C   0  0  0  0  0  3  0  0  0  0  0  0
  185.9880  178.2090  144.2820 N   0  0  0  0  0  2  0  0  0  0  0  0
  184.6140  178.5660  144.5970 C   0  0  0  0  0  2  0  0  0  0  0  0
  183.8300  178.8030  143.3220 C   0  0  0  0  0  2  0  0  0  0  0  0
  182.5410  178.7850  140.4280 C   0  0  0  0  0  1  0  0  0  0  0  0
  182.5510  179.5700  143.6220 C   0  0  1  0  0  3  0  0  0  0  0  0
  180.3870  180.2060  142.5310 O   0  0  0  0  0  0  0  0  0  0  0  0
  180.1460  178.4940  140.8640 C   0  0  0  0  0  2  0  0  0  0  0  0
  181.4480  179.2940  142.6030 C   0  0  1  0  0  0  0  0  0  0  0  0
  181.5150  178.3220  141.4490 C   0  0  2  0  0  3  0  0  0  0  0  0
  179.6820  179.8590  141.3610 C   0  0  0  0  0  2  0  0  0  0  0  0
  181.4420  178.5810  143.9390 C   0  0  0  0  0  2  0  0  0  0  0  0
  190.0640  176.2490  138.5980 C   0  0  0  0  0  2  0  0  0  0  0  0
  191.1030  176.3030  137.5180 C   0  0  0  0  0  0  0  0  0  0  0  0
  190.8310  176.7610  136.4200 O   0  0  0  0  0  0  0  0  0  0  0  0
  192.4770  175.7840  137.7950 C   0  0  0  0  0  2  0  0  0  0  0  0
  193.0520  175.0360  136.5960 C   0  0  0  0  0  2  0  0  0  0  0  0
  195.7240  172.7100  136.0070 C   0  0  0  0  0  3  0  0  0  0  0  0
  193.6420  173.6840  136.9900 C   0  0  1  0  0  3  0  0  0  0  0  0
  192.8690  172.5680  136.2650 C   0  0  0  0  0  2  0  0  0  0  0  0
  193.6980  171.2990  136.1310 C   0  0  0  0  0  2  0  0  0  0  0  0
  195.1430  173.6730  136.7390 C   0  0  0  0  0  0  0  0  0  0  0  0
  194.9410  171.6380  135.3180 C   0  0  0  0  0  2  0  0  0  0  0  0
  196.7440  175.4290  136.7540 O   0  0  0  0  0  0  0  0  0  0  0  0
  196.0220  174.7390  138.8100 O   0  0  0  0  0  1  0  0  0  0  0  0
  196.0100  174.6520  137.4210 C   0  0  0  0  0  0  0  0  0  0  0  0
  188.5420  178.0840  139.2680 C   0  0  0  0  0  2  0  0  0  0  0  0
  187.9420  177.8150  137.9030 C   0  0  0  0  0  2  0  0  0  0  0  0
  186.4280  177.7440  138.0090 C   0  0  0  0  0  2  0  0  0  0  0  0
  185.7710  177.5410  136.6510 C   0  0  0  0  0  2  0  0  0  0  0  0
  184.3000  177.1930  136.7980 C   0  0  0  0  0  2  0  0  0  0  0  0
  183.9630  175.9720  135.9610 C   0  0  0  0  0  2  0  0  0  0  0  0
  183.7820  174.8010  136.8210 N   0  0  0  0  0  0  0  0  0  0  0  0
  182.3590  174.4410  136.9160 C   0  0  2  0  0  3  0  0  0  0  0  0
  181.0720  172.5300  136.9350 O   0  0  0  0  0  0  0  0  0  0  0  0
  182.1070  173.1390  137.6300 C   0  0  0  0  0  2  0  0  0  0  0  0
  181.7900  174.3250  135.6480 O   0  0  0  0  0  0  0  0  0  0  0  0
  179.7640  173.2040  135.0570 C   0  0  0  0  0  1  0  0  0  0  0  0
  181.1540  173.0700  135.6420 C   0  0  2  0  0  3  0  0  0  0  0  0
  184.4390  173.7600  136.2460 O   0  0  0  0  0  0  0  0  0  0  0  0
  186.2010  172.8630  137.5940 C   0  0  0  0  0  1  0  0  0  0  0  0
  185.7800  173.9330  136.6020 C   0  0  1  0  0  3  0  0  0  0  0  0
  186.6710  173.9200  135.3650 C   0  0  0  0  0  2  0  0  0  0  0  0
  187.7970  174.9380  135.4540 C   0  0  0  0  0  1  0  0  0  0  0  0
  1 25  1  6  0  0  0
  1  2  1  0  0  0  0
  2  3  1  0  0  0  0
  3  5  1  0  0  0  0
  4  3  2  0  0  0  0
  5  6  1  0  0  0  0
  7 13  2  0  0  0  0
  7  9  1  0  0  0  0
  8 11  1  0  0  0  0
  8  7  1  0  0  0  0
 10 12  1  6  0  0  0
 10  9  1  0  0  0  0
 11  6  1  6  0  0  0
 11 10  1  0  0  0  0
 14 15  1  0  0  0  0
 14 13  1  0  0  0  0
 16 15  1  0  0  0  0
 18 16  1  6  0  0  0
 18 24  1  0  0  0  0
 19 21  1  0  0  0  0
 20 23  1  0  0  0  0
 20 22  1  0  0  0  0
 21 18  1  0  0  0  0
 21 24  1  1  0  0  0
 22 17  1  6  0  0  0
 22 21  1  0  0  0  0
 23 19  1  0  0  0  0
 26 28  1  0  0  0  0
 26 25  1  0  0  0  0
 27 26  2  0  0  0  0
 29 28  1  0  0  0  0
 30 34  2  0  0  0  0
 31 29  1  6  0  0  0
 32 31  1  0  0  0  0
 33 32  1  0  0  0  0
 34 31  1  0  0  0  0
 34 38  1  0  0  0  0
 35 30  1  0  0  0  0
 35 33  1  0  0  0  0
 36 38  2  0  0  0  0
 38 37  1  0  0  0  0
 39  1  1  0  0  0  0
 40 41  1  0  0  0  0
 40 39  1  0  0  0  0
 42 43  1  0  0  0  0
 42 41  1  0  0  0  0
 44 43  1  0  0  0  0
 44 45  1  0  0  0  0
 46 45  1  6  0  0  0
 46 48  1  0  0  0  0
 47 48  1  0  0  0  0
 49 46  1  0  0  0  0
 51 50  1  1  0  0  0
 51 49  1  0  0  0  0
 51 47  1  0  0  0  0
 52 54  1  0  0  0  0
 52 45  1  0  0  0  0
 54 53  1  1  0  0  0
 55 56  1  0  0  0  0
 55 54  1  0  0  0  0
M  END
>  <MODEL>
8

>  <REMARK>
 VINA RESULT:      -5.6      3.352      8.241
  Name = 
  25 active torsions:
  status: ('A' for Active; 'I' for Inactive)
    1  A    between atoms: C_1  and  C_32
    2  A    between atoms: C_3  and  C_9
    3  A    between atoms: C_3  and  C_25
    4  A    between atoms: C_4  and  C_35
    5  A    between atoms: C_5  and  C_25
    6  A    between atoms: C_5  and  C_35
    7  A    between atoms: C_7  and  N_13
    8  A    between atoms: C_9  and  N_11
    9  A    between atoms: C_9  and  C_15
   10  A    between atoms: C_12  and  C_21
   11  A    between atoms: C_12  and  C_55
   12  A    between atoms: N_13  and  O_51
   13  A    between atoms: N_13  and  C_53
   14  A    between atoms: C_14  and  N_54
   15  A    between atoms: C_14  and  C_56
   16  A    between atoms: C_15  and  C_21
   17  A    between atoms: C_27  and  N_46
   18  A    between atoms: C_28  and  C_44
   19  A    between atoms: C_29  and  C_53
   20  A    between atoms: C_29  and  C_55
   21  A    between atoms: C_32  and  O_51
   22  A    between atoms: C_33  and  C_56
   23  A    between atoms: C_36  and  N_54
   24  A    between atoms: C_42  and  C_47
   25  A    between atoms: N_46  and  C_47
                            x       y       z     vdW  Elec       q    Type
                         _______ _______ _______ _____ _____    ______ ____

>  <TORSDO>
F 25

$$$$
=
 OpenBabel10222419143D

 56 60  0  0  1  0  0  0  0  0999 V2000
  188.0750  178.2960  137.8570 C   0  0  1  0  0  3  0  0  0  0  0  0
  187.8450  178.2490  139.2960 N   0  0  0  0  0  2  0  0  0  0  0  0
  188.8930  178.0530  140.2500 C   0  0  0  0  0  0  0  0  0  0  0  0
  190.0740  177.8110  139.8720 O   0  0  0  0  0  0  0  0  0  0  0  0
  188.5790  178.1040  141.7050 C   0  0  0  0  0  2  0  0  0  0  0  0
  189.8060  178.1430  142.4810 N   0  0  0  0  0  2  0  0  0  0  0  0
  188.1390  177.4530  145.0580 C   0  0  0  0  0  0  0  0  0  0  0  0
  188.1550  176.3710  143.6300 S   0  0  0  0  0  0  0  0  0  0  0  0
  189.4810  177.8420  145.5610 C   0  0  0  0  0  2  0  0  0  0  0  0
  190.4970  177.1920  144.6450 C   0  0  1  0  0  3  0  0  0  0  0  0
  189.8470  176.9290  143.2890 C   0  0  2  0  0  3  0  0  0  0  0  0
  191.6280  177.9980  144.5210 O   0  0  0  0  0  1  0  0  0  0  0  0
  187.0540  178.0420  145.5790 C   0  0  0  0  0  3  0  0  0  0  0  0
  185.6930  177.8340  145.1740 N   0  0  0  0  0  2  0  0  0  0  0  0
  184.6200  178.8160  145.2160 C   0  0  0  0  0  2  0  0  0  0  0  0
  184.0100  178.9830  143.8400 C   0  0  0  0  0  2  0  0  0  0  0  0
  183.2890  179.1480  140.7590 C   0  0  0  0  0  1  0  0  0  0  0  0
  182.5960  179.5320  143.9510 C   0  0  1  0  0  3  0  0  0  0  0  0
  180.5960  180.0050  142.5170 O   0  0  0  0  0  0  0  0  0  0  0  0
  180.9280  178.4920  140.6820 C   0  0  0  0  0  2  0  0  0  0  0  0
  181.7530  179.2390  142.7120 C   0  0  1  0  0  0  0  0  0  0  0  0
  182.1770  178.4330  141.5070 C   0  0  2  0  0  3  0  0  0  0  0  0
  180.1780  179.7130  141.2040 C   0  0  0  0  0  2  0  0  0  0  0  0
  181.6120  178.3740  143.9470 C   0  0  0  0  0  2  0  0  0  0  0  0
  188.9350  177.1130  137.4200 C   0  0  0  0  0  2  0  0  0  0  0  0
  189.0300  177.0460  135.9250 C   0  0  0  0  0  0  0  0  0  0  0  0
  189.1200  178.0670  135.2630 O   0  0  0  0  0  0  0  0  0  0  0  0
  189.0100  175.7120  135.2490 C   0  0  0  0  0  2  0  0  0  0  0  0
  190.4120  175.2560  134.8560 C   0  0  0  0  0  2  0  0  0  0  0  0
  193.1920  173.4280  136.2060 C   0  0  0  0  0  3  0  0  0  0  0  0
  190.8330  173.9900  135.5980 C   0  0  1  0  0  3  0  0  0  0  0  0
  190.8930  172.8200  134.6000 C   0  0  0  0  0  2  0  0  0  0  0  0
  191.8160  171.7100  135.0810 C   0  0  0  0  0  2  0  0  0  0  0  0
  192.1290  174.2330  136.3580 C   0  0  0  0  0  0  0  0  0  0  0  0
  193.2140  172.2970  135.2280 C   0  0  0  0  0  2  0  0  0  0  0  0
  192.9830  176.2580  137.2620 O   0  0  0  0  0  0  0  0  0  0  0  0
  191.3680  175.2270  138.5090 O   0  0  0  0  0  1  0  0  0  0  0  0
  192.1910  175.2860  137.3880 C   0  0  0  0  0  0  0  0  0  0  0  0
  186.7420  178.2280  137.1360 C   0  0  0  0  0  2  0  0  0  0  0  0
  185.6210  177.9330  138.1110 C   0  0  0  0  0  2  0  0  0  0  0  0
  184.3770  177.5010  137.3540 C   0  0  0  0  0  2  0  0  0  0  0  0
  183.4240  176.7040  138.2330 C   0  0  0  0  0  2  0  0  0  0  0  0
  182.1950  176.2660  137.4560 C   0  0  0  0  0  2  0  0  0  0  0  0
  181.9190  174.7930  137.6970 C   0  0  0  0  0  2  0  0  0  0  0  0
  182.0340  174.0430  136.4450 N   0  0  0  0  0  0  0  0  0  0  0  0
  183.4360  173.9810  136.0030 C   0  0  2  0  0  3  0  0  0  0  0  0
  184.9110  172.4060  135.1970 O   0  0  0  0  0  0  0  0  0  0  0  0
  183.6830  172.9820  134.9040 C   0  0  0  0  0  2  0  0  0  0  0  0
  184.2750  173.6360  137.0610 O   0  0  0  0  0  0  0  0  0  0  0  0
  186.5030  172.7780  136.9350 C   0  0  0  0  0  1  0  0  0  0  0  0
  185.0450  172.5590  136.5860 C   0  0  2  0  0  3  0  0  0  0  0  0
  181.6150  172.7730  136.6830 O   0  0  0  0  0  0  0  0  0  0  0  0
  179.6880  173.3100  135.3690 C   0  0  0  0  0  1  0  0  0  0  0  0
  180.2190  172.8500  136.7160 C   0  0  1  0  0  3  0  0  0  0  0  0
  179.6160  171.5090  137.1170 C   0  0  0  0  0  2  0  0  0  0  0  0
  179.1960  170.6810  135.9130 C   0  0  0  0  0  1  0  0  0  0  0  0
  1 39  1  6  0  0  0
  1  2  1  0  0  0  0
  2  3  1  0  0  0  0
  3  5  1  0  0  0  0
  4  3  2  0  0  0  0
  5  6  1  0  0  0  0
  7  9  1  0  0  0  0
  7 13  2  0  0  0  0
  8  7  1  0  0  0  0
 10 12  1  6  0  0  0
 10  9  1  0  0  0  0
 11  6  1  6  0  0  0
 11  8  1  0  0  0  0
 11 10  1  0  0  0  0
 14 15  1  0  0  0  0
 14 13  1  0  0  0  0
 16 15  1  0  0  0  0
 18 16  1  6  0  0  0
 19 21  1  0  0  0  0
 20 23  1  0  0  0  0
 20 22  1  0  0  0  0
 21 24  1  1  0  0  0
 21 18  1  0  0  0  0
 22 17  1  6  0  0  0
 22 21  1  0  0  0  0
 23 19  1  0  0  0  0
 24 18  1  0  0  0  0
 25  1  1  0  0  0  0
 26 25  1  0  0  0  0
 27 26  2  0  0  0  0
 28 26  1  0  0  0  0
 29 28  1  0  0  0  0
 30 34  2  0  0  0  0
 31 29  1  6  0  0  0
 31 34  1  0  0  0  0
 32 33  1  0  0  0  0
 32 31  1  0  0  0  0
 33 35  1  0  0  0  0
 34 38  1  0  0  0  0
 35 30  1  0  0  0  0
 36 38  2  0  0  0  0
 38 37  1  0  0  0  0
 39 40  1  0  0  0  0
 41 40  1  0  0  0  0
 41 42  1  0  0  0  0
 43 44  1  0  0  0  0
 43 42  1  0  0  0  0
 45 52  1  0  0  0  0
 45 44  1  0  0  0  0
 46 45  1  1  0  0  0
 46 49  1  0  0  0  0
 47 51  1  0  0  0  0
 48 47  1  0  0  0  0
 48 46  1  0  0  0  0
 51 50  1  6  0  0  0
 51 49  1  0  0  0  0
 52 54  1  0  0  0  0
 54 53  1  6  0  0  0
 54 55  1  0  0  0  0
 56 55  1  0  0  0  0
M  END
>  <MODEL>
9

>  <REMARK>
 VINA RESULT:      -5.5      2.882      8.137
  Name = 
  25 active torsions:
  status: ('A' for Active; 'I' for Inactive)
    1  A    between atoms: C_1  and  C_32
    2  A    between atoms: C_3  and  C_9
    3  A    between atoms: C_3  and  C_25
    4  A    between atoms: C_4  and  C_35
    5  A    between atoms: C_5  and  C_25
    6  A    between atoms: C_5  and  C_35
    7  A    between atoms: C_7  and  N_13
    8  A    between atoms: C_9  and  N_11
    9  A    between atoms: C_9  and  C_15
   10  A    between atoms: C_12  and  C_21
   11  A    between atoms: C_12  and  C_55
   12  A    between atoms: N_13  and  O_51
   13  A    between atoms: N_13  and  C_53
   14  A    between atoms: C_14  and  N_54
   15  A    between atoms: C_14  and  C_56
   16  A    between atoms: C_15  and  C_21
   17  A    between atoms: C_27  and  N_46
   18  A    between atoms: C_28  and  C_44
   19  A    between atoms: C_29  and  C_53
   20  A    between atoms: C_29  and  C_55
   21  A    between atoms: C_32  and  O_51
   22  A    between atoms: C_33  and  C_56
   23  A    between atoms: C_36  and  N_54
   24  A    between atoms: C_42  and  C_47
   25  A    between atoms: N_46  and  C_47
                            x       y       z     vdW  Elec       q    Type
                         _______ _______ _______ _____ _____    ______ ____

>  <TORSDO>
F 25

$$$$
