=
 OpenBabel10222419063D

 50 57  0  0  1  0  0  0  0  0999 V2000
  191.2260  178.1060  145.0810 C   0  0  0  0  0  2  0  0  0  0  0  0
  189.4550  177.3010  146.6630 C   0  0  0  0  0  0  0  0  0  0  0  0
  187.1820  177.8510  143.0300 C   0  0  0  0  0  0  0  0  0  0  0  0
  187.6730  177.5580  141.8600 N   0  0  0  0  0  0  0  0  0  0  0  0
  187.3730  178.0250  148.0010 C   0  0  0  0  0  1  0  0  0  0  0  0
  187.9350  177.5220  144.2600 C   0  0  0  0  0  0  0  0  0  0  0  0
  189.8950  176.9610  142.8440 C   0  0  2  0  0  3  0  0  0  0  0  0
  190.1010  177.1500  147.7340 O   0  0  0  0  0  0  0  0  0  0  0  0
  188.9040  176.7880  141.6780 C   0  0  2  0  0  3  0  0  0  0  0  0
  189.1940  177.0550  144.1700 C   0  0  0  0  0  0  0  0  0  0  0  0
  188.0400  177.7160  146.7060 C   0  0  0  0  0  0  0  0  0  0  0  0
  187.3420  177.8280  145.5760 C   0  0  0  0  0  3  0  0  0  0  0  0
  191.7680  177.9550  143.6460 C   0  0  0  0  0  2  0  0  0  0  0  0
  190.7280  178.0880  142.6940 O   0  0  0  0  0  0  0  0  0  0  0  0
  190.1390  177.0540  145.3460 C   0  0  1  0  0  3  0  0  0  0  0  0
  190.4600  176.3160  139.9170 O   0  0  0  0  0  0  0  0  0  0  0  0
  189.5380  177.0610  140.3500 C   0  0  0  0  0  0  0  0  0  0  0  0
  189.0250  178.1200  139.5350 N   0  0  0  0  0  2  0  0  0  0  0  0
  185.9210  177.4910  136.7640 C   0  0  1  0  0  3  0  0  0  0  0  0
  189.8050  177.7490  135.3660 C   0  0  0  0  0  2  0  0  0  0  0  0
  186.9170  177.6830  137.9120 C   0  0  0  0  0  2  0  0  0  0  0  0
  187.4000  177.2990  135.0530 C   0  0  0  0  0  2  0  0  0  0  0  0
  189.4210  178.2580  138.1950 N   0  0  0  0  0  0  0  0  0  0  0  0
  188.5840  177.6770  135.9030 C   0  0  0  0  0  0  0  0  0  0  0  0
  186.4490  176.5880  135.8170 O   0  0  0  0  0  0  0  0  0  0  0  0
  188.2940  178.0510  137.3320 C   0  0  1  0  0  0  0  0  0  0  0  0
  188.6850  179.3790  137.6560 N   0  0  0  0  0  2  0  0  0  0  0  0
  183.5820  177.1800  136.4040 O   0  0  0  0  0  1  0  0  0  0  0  0
  184.6100  176.9620  137.3180 C   0  0  0  0  0  2  0  0  0  0  0  0
  185.9620  178.5280  143.1390 O   0  0  0  0  0  0  0  0  0  0  0  0
  185.2430  179.0170  142.0080 C   0  0  0  0  0  2  0  0  0  0  0  0
  183.7890  178.5790  142.0670 C   0  0  0  0  0  2  0  0  0  0  0  0
  183.3600  178.0010  140.7320 C   0  0  0  0  0  2  0  0  0  0  0  0
  183.1010  179.1300  139.7540 C   0  0  0  0  0  2  0  0  0  0  0  0
  180.8300  183.2770  135.5220 N   0  0  0  0  0  0  0  0  0  0  0  0
  181.2620  180.6700  139.0890 C   0  0  0  0  0  2  0  0  0  0  0  0
  180.3760  185.4280  136.3640 N   0  0  0  0  0  0  0  0  0  0  0  0
  180.7830  184.6240  135.3460 C   0  0  0  0  0  3  0  0  0  0  0  0
  180.0180  184.9020  137.5640 C   0  0  0  0  0  0  0  0  0  0  0  0
  180.2270  179.0850  137.5880 C   0  0  1  0  0  3  0  0  0  0  0  0
  179.5940  185.7580  138.6160 N   0  0  0  0  0  1  0  0  0  0  0  0
  180.4820  182.7080  136.7050 C   0  0  0  0  0  0  0  0  0  0  0  0
  181.2560  178.3840  138.3490 N   0  0  0  0  0  0  0  0  0  0  0  0
  180.0640  183.5230  137.7620 C   0  0  0  0  0  3  0  0  0  0  0  0
  180.1730  180.5410  138.0510 C   0  0  2  0  0  3  0  0  0  0  0  0
  180.8010  180.4250  135.7900 N   0  0  0  0  0  0  0  0  0  0  0  0
  180.6300  177.1980  138.9130 C   0  0  0  0  0  1  0  0  0  0  0  0
  181.6130  179.2480  139.4670 C   0  0  1  0  0  3  0  0  0  0  0  0
  180.6470  179.1990  136.1530 C   0  0  0  0  0  3  0  0  0  0  0  0
  180.5340  181.2840  136.8540 N   0  0  0  0  0  0  0  0  0  0  0  0
  2 11  1  0  0  0  0
  2  8  2  0  0  0  0
  3 30  1  0  0  0  0
  3  6  1  0  0  0  0
  4  3  2  0  0  0  0
  6 12  1  0  0  0  0
  7 14  1  6  0  0  0
  7 10  1  0  0  0  0
  9 17  1  6  0  0  0
  9  4  1  0  0  0  0
  9  7  1  0  0  0  0
 10  6  2  0  0  0  0
 10 15  1  0  0  0  0
 11  5  1  0  0  0  0
 12 11  2  0  0  0  0
 13  1  1  0  0  0  0
 14 13  1  0  0  0  0
 15  1  1  6  0  0  0
 15  2  1  0  0  0  0
 16 17  2  0  0  0  0
 18 17  1  0  0  0  0
 19 29  1  1  0  0  0
 19 21  1  0  0  0  0
 20 24  2  0  0  0  0
 22 25  1  0  0  0  0
 22 24  1  0  0  0  0
 23 18  1  0  0  0  0
 24 26  1  0  0  0  0
 25 19  1  0  0  0  0
 26 27  1  0  0  0  0
 26 21  1  1  0  0  0
 26 23  1  0  0  0  0
 27 23  1  0  0  0  0
 28 29  1  0  0  0  0
 31 32  1  0  0  0  0
 31 30  1  0  0  0  0
 33 32  1  0  0  0  0
 34 33  1  0  0  0  0
 35 42  1  0  0  0  0
 36 48  1  0  0  0  0
 37 39  2  0  0  0  0
 38 35  2  0  0  0  0
 38 37  1  0  0  0  0
 39 44  1  0  0  0  0
 39 41  1  0  0  0  0
 40 49  1  6  0  0  0
 40 45  1  0  0  0  0
 40 43  1  0  0  0  0
 42 50  1  0  0  0  0
 42 44  2  0  0  0  0
 43 47  1  0  0  0  0
 43 48  1  0  0  0  0
 45 36  1  1  0  0  0
 46 49  2  0  0  0  0
 46 50  1  0  0  0  0
 48 34  1  6  0  0  0
 50 45  1  0  0  0  0
M  END
>  <MODEL>
1

>  <REMARK>
 VINA RESULT:     -10.5      0.000      0.000
  Name = 
  9 active torsions:
  status: ('A' for Active; 'I' for Inactive)
    1  A    between atoms: C_1  and  C_28
    2  A    between atoms: C_6  and  C_37
    3  A    between atoms: C_6  and  C_49
    4  A    between atoms: C_11  and  O_13
    5  A    between atoms: O_13  and  C_37
    6  A    between atoms: N_18  and  N_33
    7  A    between atoms: C_27  and  C_32
    8  A    between atoms: C_42  and  C_44
    9  A    between atoms: C_42  and  C_49
                            x       y       z     vdW  Elec       q    Type
                         _______ _______ _______ _____ _____    ______ ____

>  <TORSDO>
F 9

$$$$
=
 OpenBabel10222419063D

 50 57  0  0  1  0  0  0  0  0999 V2000
  191.2870  178.2350  145.0780 C   0  0  0  0  0  2  0  0  0  0  0  0
  189.5990  177.3140  146.6870 C   0  0  0  0  0  0  0  0  0  0  0  0
  187.2230  177.7630  143.1070 C   0  0  0  0  0  0  0  0  0  0  0  0
  187.7060  177.5100  141.9240 N   0  0  0  0  0  0  0  0  0  0  0  0
  187.5060  177.9020  148.0740 C   0  0  0  0  0  1  0  0  0  0  0  0
  188.0190  177.4670  144.3170 C   0  0  0  0  0  0  0  0  0  0  0  0
  189.9790  177.0350  142.8570 C   0  0  2  0  0  3  0  0  0  0  0  0
  190.2750  177.1900  147.7440 O   0  0  0  0  0  0  0  0  0  0  0  0
  188.9770  176.8150  141.7090 C   0  0  2  0  0  3  0  0  0  0  0  0
  189.3020  177.0760  144.1980 C   0  0  0  0  0  0  0  0  0  0  0  0
  188.1630  177.6440  146.7630 C   0  0  0  0  0  0  0  0  0  0  0  0
  187.4360  177.7260  145.6480 C   0  0  0  0  0  3  0  0  0  0  0  0
  191.8070  178.1300  143.6310 C   0  0  0  0  0  2  0  0  0  0  0  0
  190.7420  178.2110  142.7020 O   0  0  0  0  0  0  0  0  0  0  0  0
  190.2690  177.1190  145.3540 C   0  0  1  0  0  3  0  0  0  0  0  0
  190.7060  176.7000  140.0550 O   0  0  0  0  0  0  0  0  0  0  0  0
  189.5660  177.1380  140.3710 C   0  0  0  0  0  0  0  0  0  0  0  0
  188.7840  177.8680  139.4210 N   0  0  0  0  0  2  0  0  0  0  0  0
  185.6460  177.5300  136.6380 C   0  0  1  0  0  3  0  0  0  0  0  0
  189.5420  177.4670  135.2500 C   0  0  0  0  0  2  0  0  0  0  0  0
  186.6510  177.6270  137.7900 C   0  0  0  0  0  2  0  0  0  0  0  0
  187.1080  177.2270  134.9290 C   0  0  0  0  0  2  0  0  0  0  0  0
  189.1950  177.9840  138.0830 N   0  0  0  0  0  0  0  0  0  0  0  0
  188.3180  177.4950  135.7840 C   0  0  0  0  0  0  0  0  0  0  0  0
  186.0980  176.5940  135.6840 O   0  0  0  0  0  0  0  0  0  0  0  0
  188.0570  177.8810  137.2160 C   0  0  1  0  0  0  0  0  0  0  0  0
  188.5590  179.1670  137.5520 N   0  0  0  0  0  2  0  0  0  0  0  0
  184.1230  175.7360  137.0390 O   0  0  0  0  0  1  0  0  0  0  0  0
  184.2940  177.1110  137.1850 C   0  0  0  0  0  2  0  0  0  0  0  0
  185.9680  178.3660  143.2460 O   0  0  0  0  0  0  0  0  0  0  0  0
  184.8440  178.0110  142.4450 C   0  0  0  0  0  2  0  0  0  0  0  0
  184.6730  178.9910  141.2950 C   0  0  0  0  0  2  0  0  0  0  0  0
  183.2080  179.1100  140.9200 C   0  0  0  0  0  2  0  0  0  0  0  0
  183.0930  179.6350  139.5030 C   0  0  0  0  0  2  0  0  0  0  0  0
  179.1680  175.1590  141.7000 N   0  0  0  0  0  0  0  0  0  0  0  0
  181.2130  178.0690  139.0430 C   0  0  0  0  0  2  0  0  0  0  0  0
  179.2530  173.0990  140.5630 N   0  0  0  0  0  0  0  0  0  0  0  0
  179.0820  173.8020  141.7130 C   0  0  0  0  0  3  0  0  0  0  0  0
  179.5130  173.7370  139.3920 C   0  0  0  0  0  0  0  0  0  0  0  0
  179.5260  179.5290  139.9720 C   0  0  1  0  0  3  0  0  0  0  0  0
  179.6870  172.9850  138.1980 N   0  0  0  0  0  1  0  0  0  0  0  0
  179.4280  175.8370  140.5520 C   0  0  0  0  0  0  0  0  0  0  0  0
  180.7740  180.2790  139.8780 N   0  0  0  0  0  0  0  0  0  0  0  0
  179.6080  175.1260  139.3610 C   0  0  0  0  0  3  0  0  0  0  0  0
  179.7520  178.1210  139.4200 C   0  0  2  0  0  3  0  0  0  0  0  0
  179.1860  178.0230  141.6970 N   0  0  0  0  0  0  0  0  0  0  0  0
  180.4690  181.5200  139.1830 C   0  0  0  0  0  1  0  0  0  0  0  0
  181.6600  179.5140  139.0100 C   0  0  1  0  0  3  0  0  0  0  0  0
  179.1910  179.2790  141.4120 C   0  0  0  0  0  3  0  0  0  0  0  0
  179.5010  177.2680  140.5710 N   0  0  0  0  0  0  0  0  0  0  0  0
  2 11  1  0  0  0  0
  2  8  2  0  0  0  0
  3 30  1  0  0  0  0
  3  6  1  0  0  0  0
  4  3  2  0  0  0  0
  6 12  1  0  0  0  0
  7 14  1  6  0  0  0
  7 10  1  0  0  0  0
  9 17  1  6  0  0  0
  9  4  1  0  0  0  0
  9  7  1  0  0  0  0
 10  6  2  0  0  0  0
 10 15  1  0  0  0  0
 11  5  1  0  0  0  0
 12 11  2  0  0  0  0
 13  1  1  0  0  0  0
 14 13  1  0  0  0  0
 15  1  1  6  0  0  0
 15  2  1  0  0  0  0
 16 17  2  0  0  0  0
 18 17  1  0  0  0  0
 19 29  1  1  0  0  0
 19 21  1  0  0  0  0
 20 24  2  0  0  0  0
 22 25  1  0  0  0  0
 22 24  1  0  0  0  0
 23 18  1  0  0  0  0
 24 26  1  0  0  0  0
 25 19  1  0  0  0  0
 26 27  1  0  0  0  0
 26 21  1  1  0  0  0
 26 23  1  0  0  0  0
 27 23  1  0  0  0  0
 28 29  1  0  0  0  0
 31 30  1  0  0  0  0
 32 31  1  0  0  0  0
 33 32  1  0  0  0  0
 34 33  1  0  0  0  0
 35 38  1  0  0  0  0
 37 38  2  0  0  0  0
 39 37  1  0  0  0  0
 40 49  1  1  0  0  0
 41 39  1  0  0  0  0
 42 50  1  0  0  0  0
 42 35  2  0  0  0  0
 43 40  1  0  0  0  0
 44 39  2  0  0  0  0
 44 42  1  0  0  0  0
 45 36  1  1  0  0  0
 45 40  1  0  0  0  0
 45 50  1  0  0  0  0
 47 43  1  0  0  0  0
 48 36  1  0  0  0  0
 48 34  1  1  0  0  0
 48 43  1  0  0  0  0
 49 46  2  0  0  0  0
 50 46  1  0  0  0  0
M  END
>  <MODEL>
2

>  <REMARK>
 VINA RESULT:      -9.9      2.062      4.529
  Name = 
  9 active torsions:
  status: ('A' for Active; 'I' for Inactive)
    1  A    between atoms: C_1  and  C_28
    2  A    between atoms: C_6  and  C_37
    3  A    between atoms: C_6  and  C_49
    4  A    between atoms: C_11  and  O_13
    5  A    between atoms: O_13  and  C_37
    6  A    between atoms: N_18  and  N_33
    7  A    between atoms: C_27  and  C_32
    8  A    between atoms: C_42  and  C_44
    9  A    between atoms: C_42  and  C_49
                            x       y       z     vdW  Elec       q    Type
                         _______ _______ _______ _____ _____    ______ ____

>  <TORSDO>
F 9

$$$$
=
 OpenBabel10222419063D

 50 57  0  0  1  0  0  0  0  0999 V2000
  184.1790  178.3260  145.0610 C   0  0  0  0  0  2  0  0  0  0  0  0
  186.0950  178.6060  146.6550 C   0  0  0  0  0  0  0  0  0  0  0  0
  188.1360  177.3380  143.0640 C   0  0  0  0  0  0  0  0  0  0  0  0
  187.7630  177.7380  141.8830 N   0  0  0  0  0  0  0  0  0  0  0  0
  187.8600  177.3290  148.0340 C   0  0  0  0  0  1  0  0  0  0  0  0
  187.5030  177.8990  144.2770 C   0  0  0  0  0  0  0  0  0  0  0  0
  185.8070  178.9830  142.8250 C   0  0  2  0  0  3  0  0  0  0  0  0
  185.5130  178.9630  147.7140 O   0  0  0  0  0  0  0  0  0  0  0  0
  186.8150  178.8330  141.6700 C   0  0  2  0  0  3  0  0  0  0  0  0
  186.4380  178.7140  144.1620 C   0  0  0  0  0  0  0  0  0  0  0  0
  187.3250  177.7940  146.7250 C   0  0  0  0  0  0  0  0  0  0  0  0
  187.9690  177.4580  145.6060 C   0  0  0  0  0  3  0  0  0  0  0  0
  183.7180  178.6010  143.6170 C   0  0  0  0  0  2  0  0  0  0  0  0
  184.6800  178.1480  142.6820 O   0  0  0  0  0  0  0  0  0  0  0  0
  185.5250  179.0170  145.3240 C   0  0  1  0  0  3  0  0  0  0  0  0
  186.5990  177.9650  139.4470 O   0  0  0  0  0  0  0  0  0  0  0  0
  186.1400  178.7310  140.3380 C   0  0  0  0  0  0  0  0  0  0  0  0
  184.9170  179.4400  140.1180 N   0  0  0  0  0  2  0  0  0  0  0  0
  180.7810  179.3980  140.8910 C   0  0  1  0  0  3  0  0  0  0  0  0
  182.1240  178.0670  137.2120 C   0  0  0  0  0  2  0  0  0  0  0  0
  182.3090  179.4500  140.8020 C   0  0  0  0  0  2  0  0  0  0  0  0
  180.3520  178.4060  138.8950 C   0  0  0  0  0  2  0  0  0  0  0  0
  184.1280  179.1870  138.9840 N   0  0  0  0  0  0  0  0  0  0  0  0
  181.7790  178.5120  138.4230 C   0  0  0  0  0  0  0  0  0  0  0  0
  180.3050  178.2110  140.2920 O   0  0  0  0  0  0  0  0  0  0  0  0
  182.7390  179.2180  139.3420 C   0  0  1  0  0  0  0  0  0  0  0  0
  183.3300  180.3710  138.7580 N   0  0  0  0  0  2  0  0  0  0  0  0
  179.9610  180.7470  142.6820 O   0  0  0  0  0  1  0  0  0  0  0  0
  180.3600  179.4540  142.3480 C   0  0  0  0  0  2  0  0  0  0  0  0
  189.1020  176.3340  143.2010 O   0  0  0  0  0  0  0  0  0  0  0  0
  190.1250  176.1050  142.2350 C   0  0  0  0  0  2  0  0  0  0  0  0
  191.0380  177.3150  142.1250 C   0  0  0  0  0  2  0  0  0  0  0  0
  191.5750  177.4400  140.7110 C   0  0  0  0  0  2  0  0  0  0  0  0
  190.5900  176.8170  139.7420 C   0  0  0  0  0  2  0  0  0  0  0  0
  194.6060  172.5230  137.3550 N   0  0  0  0  0  0  0  0  0  0  0  0
  192.5100  176.3370  138.2330 C   0  0  0  0  0  2  0  0  0  0  0  0
  196.8880  172.9530  137.7430 N   0  0  0  0  0  0  0  0  0  0  0  0
  195.8660  172.0700  137.5920 C   0  0  0  0  0  3  0  0  0  0  0  0
  196.6660  174.2910  137.6650 C   0  0  0  0  0  0  0  0  0  0  0  0
  191.1240  175.5560  136.4140 C   0  0  1  0  0  3  0  0  0  0  0  0
  197.7480  175.2000  137.8250 N   0  0  0  0  0  1  0  0  0  0  0  0
  194.3390  173.8520  137.2710 C   0  0  0  0  0  0  0  0  0  0  0  0
  190.2550  176.1540  137.4230 N   0  0  0  0  0  0  0  0  0  0  0  0
  195.3810  174.7720  137.4270 C   0  0  0  0  0  3  0  0  0  0  0  0
  192.5770  175.6800  136.8750 C   0  0  2  0  0  3  0  0  0  0  0  0
  191.9640  173.4190  136.7030 N   0  0  0  0  0  0  0  0  0  0  0  0
  189.4060  177.1130  136.7330 C   0  0  0  0  0  1  0  0  0  0  0  0
  191.1150  176.9160  138.3200 C   0  0  1  0  0  3  0  0  0  0  0  0
  190.9060  174.0730  136.3710 C   0  0  0  0  0  3  0  0  0  0  0  0
  193.0020  174.2950  137.0100 N   0  0  0  0  0  0  0  0  0  0  0  0
  2 11  1  0  0  0  0
  2  8  2  0  0  0  0
  3 30  1  0  0  0  0
  3  6  1  0  0  0  0
  4  3  2  0  0  0  0
  6 12  1  0  0  0  0
  7 14  1  6  0  0  0
  7 10  1  0  0  0  0
  9 17  1  6  0  0  0
  9  4  1  0  0  0  0
  9  7  1  0  0  0  0
 10  6  2  0  0  0  0
 10 15  1  0  0  0  0
 11  5  1  0  0  0  0
 12 11  2  0  0  0  0
 13  1  1  0  0  0  0
 14 13  1  0  0  0  0
 15  1  1  6  0  0  0
 15  2  1  0  0  0  0
 16 17  2  0  0  0  0
 18 17  1  0  0  0  0
 19 29  1  1  0  0  0
 20 24  2  0  0  0  0
 21 19  1  0  0  0  0
 22 25  1  0  0  0  0
 23 26  1  0  0  0  0
 23 18  1  0  0  0  0
 24 22  1  0  0  0  0
 24 26  1  0  0  0  0
 25 19  1  0  0  0  0
 26 21  1  1  0  0  0
 27 23  1  0  0  0  0
 27 26  1  0  0  0  0
 29 28  1  0  0  0  0
 31 30  1  0  0  0  0
 32 31  1  0  0  0  0
 33 32  1  0  0  0  0
 34 33  1  0  0  0  0
 35 38  1  0  0  0  0
 36 48  1  0  0  0  0
 38 37  2  0  0  0  0
 39 37  1  0  0  0  0
 39 41  1  0  0  0  0
 40 49  1  1  0  0  0
 40 45  1  0  0  0  0
 40 43  1  0  0  0  0
 42 35  2  0  0  0  0
 42 44  1  0  0  0  0
 43 48  1  0  0  0  0
 44 39  2  0  0  0  0
 45 50  1  0  0  0  0
 45 36  1  1  0  0  0
 46 50  1  0  0  0  0
 47 43  1  0  0  0  0
 48 34  1  1  0  0  0
 49 46  2  0  0  0  0
 50 42  1  0  0  0  0
M  END
>  <MODEL>
3

>  <REMARK>
 VINA RESULT:      -9.6      3.948      9.847
  Name = 
  9 active torsions:
  status: ('A' for Active; 'I' for Inactive)
    1  A    between atoms: C_1  and  C_28
    2  A    between atoms: C_6  and  C_37
    3  A    between atoms: C_6  and  C_49
    4  A    between atoms: C_11  and  O_13
    5  A    between atoms: O_13  and  C_37
    6  A    between atoms: N_18  and  N_33
    7  A    between atoms: C_27  and  C_32
    8  A    between atoms: C_42  and  C_44
    9  A    between atoms: C_42  and  C_49
                            x       y       z     vdW  Elec       q    Type
                         _______ _______ _______ _____ _____    ______ ____

>  <TORSDO>
F 9

$$$$
=
 OpenBabel10222419063D

 50 57  0  0  1  0  0  0  0  0999 V2000
  184.1520  178.2570  145.0340 C   0  0  0  0  0  2  0  0  0  0  0  0
  186.0600  178.6290  146.6190 C   0  0  0  0  0  0  0  0  0  0  0  0
  188.1390  177.4050  143.0350 C   0  0  0  0  0  0  0  0  0  0  0  0
  187.7480  177.7780  141.8510 N   0  0  0  0  0  0  0  0  0  0  0  0
  187.8780  177.4370  148.0050 C   0  0  0  0  0  1  0  0  0  0  0  0
  187.4880  177.9530  144.2440 C   0  0  0  0  0  0  0  0  0  0  0  0
  185.7470  178.9540  142.7860 C   0  0  2  0  0  3  0  0  0  0  0  0
  185.4670  178.9740  147.6760 O   0  0  0  0  0  0  0  0  0  0  0  0
  186.7560  178.8320  141.6290 C   0  0  2  0  0  3  0  0  0  0  0  0
  186.3910  178.7240  144.1240 C   0  0  0  0  0  0  0  0  0  0  0  0
  187.3210  177.8670  146.6930 C   0  0  0  0  0  0  0  0  0  0  0  0
  187.9740  177.5460  145.5760 C   0  0  0  0  0  3  0  0  0  0  0  0
  183.6760  178.4990  143.5880 C   0  0  0  0  0  2  0  0  0  0  0  0
  184.6530  178.0740  142.6550 O   0  0  0  0  0  0  0  0  0  0  0  0
  185.4700  179.0030  145.2850 C   0  0  1  0  0  3  0  0  0  0  0  0
  186.5300  177.8810  139.4420 O   0  0  0  0  0  0  0  0  0  0  0  0
  186.0820  178.6900  140.3010 C   0  0  0  0  0  0  0  0  0  0  0  0
  184.8720  179.4110  140.0500 N   0  0  0  0  0  2  0  0  0  0  0  0
  180.7540  179.1620  140.8770 C   0  0  1  0  0  3  0  0  0  0  0  0
  182.1100  177.9230  137.1710 C   0  0  0  0  0  2  0  0  0  0  0  0
  182.2760  179.2890  140.7680 C   0  0  0  0  0  2  0  0  0  0  0  0
  180.3470  178.1640  138.8800 C   0  0  0  0  0  2  0  0  0  0  0  0
  184.0810  179.1270  138.9250 N   0  0  0  0  0  0  0  0  0  0  0  0
  181.7600  178.3420  138.3900 C   0  0  0  0  0  0  0  0  0  0  0  0
  180.3290  177.9580  140.2760 O   0  0  0  0  0  0  0  0  0  0  0  0
  182.6980  179.0880  139.3010 C   0  0  1  0  0  0  0  0  0  0  0  0
  183.2240  180.2720  138.7180 N   0  0  0  0  0  2  0  0  0  0  0  0
  180.3100  180.5020  142.8020 O   0  0  0  0  0  1  0  0  0  0  0  0
  180.3500  179.1880  142.3400 C   0  0  0  0  0  2  0  0  0  0  0  0
  189.1440  176.4410  143.1790 O   0  0  0  0  0  0  0  0  0  0  0  0
  190.1380  176.2030  142.1850 C   0  0  0  0  0  2  0  0  0  0  0  0
  191.1220  177.3590  142.1210 C   0  0  0  0  0  2  0  0  0  0  0  0
  191.8230  177.3780  140.7760 C   0  0  0  0  0  2  0  0  0  0  0  0
  190.7910  177.5020  139.6730 C   0  0  0  0  0  2  0  0  0  0  0  0
  186.1770  176.1320  135.5370 N   0  0  0  0  0  0  0  0  0  0  0  0
  189.5200  175.7560  138.4330 C   0  0  0  0  0  2  0  0  0  0  0  0
  184.4700  174.7350  136.3590 N   0  0  0  0  0  0  0  0  0  0  0  0
  184.8690  175.7600  135.5620 C   0  0  0  0  0  3  0  0  0  0  0  0
  185.3640  174.0740  137.1400 C   0  0  0  0  0  0  0  0  0  0  0  0
  190.8070  175.9990  136.4020 C   0  0  1  0  0  3  0  0  0  0  0  0
  184.9280  173.0020  137.9670 N   0  0  0  0  0  1  0  0  0  0  0  0
  187.1040  175.5000  136.3030 C   0  0  0  0  0  0  0  0  0  0  0  0
  191.4720  176.7600  137.4550 N   0  0  0  0  0  0  0  0  0  0  0  0
  186.7070  174.4450  137.1290 C   0  0  0  0  0  3  0  0  0  0  0  0
  189.5730  175.3150  136.9900 C   0  0  2  0  0  3  0  0  0  0  0  0
  188.9410  176.8540  135.3320 N   0  0  0  0  0  0  0  0  0  0  0  0
  192.8660  176.3430  137.4610 C   0  0  0  0  0  1  0  0  0  0  0  0
  190.8930  176.3230  138.7190 C   0  0  1  0  0  3  0  0  0  0  0  0
  190.2250  176.9380  135.3880 C   0  0  0  0  0  3  0  0  0  0  0  0
  188.4750  175.9110  136.2450 N   0  0  0  0  0  0  0  0  0  0  0  0
  2 11  1  0  0  0  0
  2  8  2  0  0  0  0
  3 30  1  0  0  0  0
  3  6  1  0  0  0  0
  4  3  2  0  0  0  0
  6 12  1  0  0  0  0
  7 14  1  6  0  0  0
  7 10  1  0  0  0  0
  9 17  1  6  0  0  0
  9  4  1  0  0  0  0
  9  7  1  0  0  0  0
 10  6  2  0  0  0  0
 10 15  1  0  0  0  0
 11  5  1  0  0  0  0
 12 11  2  0  0  0  0
 13  1  1  0  0  0  0
 14 13  1  0  0  0  0
 15  1  1  6  0  0  0
 15  2  1  0  0  0  0
 16 17  2  0  0  0  0
 18 17  1  0  0  0  0
 19 29  1  1  0  0  0
 20 24  2  0  0  0  0
 21 19  1  0  0  0  0
 22 25  1  0  0  0  0
 23 26  1  0  0  0  0
 23 18  1  0  0  0  0
 24 22  1  0  0  0  0
 24 26  1  0  0  0  0
 25 19  1  0  0  0  0
 26 21  1  1  0  0  0
 27 23  1  0  0  0  0
 27 26  1  0  0  0  0
 29 28  1  0  0  0  0
 31 30  1  0  0  0  0
 32 31  1  0  0  0  0
 33 32  1  0  0  0  0
 34 33  1  0  0  0  0
 35 38  2  0  0  0  0
 35 42  1  0  0  0  0
 36 48  1  0  0  0  0
 37 39  2  0  0  0  0
 38 37  1  0  0  0  0
 39 41  1  0  0  0  0
 40 49  1  6  0  0  0
 40 45  1  0  0  0  0
 40 43  1  0  0  0  0
 42 44  2  0  0  0  0
 43 47  1  0  0  0  0
 43 48  1  0  0  0  0
 44 39  1  0  0  0  0
 45 36  1  1  0  0  0
 46 49  2  0  0  0  0
 46 50  1  0  0  0  0
 48 34  1  1  0  0  0
 50 42  1  0  0  0  0
 50 45  1  0  0  0  0
M  END
>  <MODEL>
4

>  <REMARK>
 VINA RESULT:      -9.5      3.110      7.614
  Name = 
  9 active torsions:
  status: ('A' for Active; 'I' for Inactive)
    1  A    between atoms: C_1  and  C_28
    2  A    between atoms: C_6  and  C_37
    3  A    between atoms: C_6  and  C_49
    4  A    between atoms: C_11  and  O_13
    5  A    between atoms: O_13  and  C_37
    6  A    between atoms: N_18  and  N_33
    7  A    between atoms: C_27  and  C_32
    8  A    between atoms: C_42  and  C_44
    9  A    between atoms: C_42  and  C_49
                            x       y       z     vdW  Elec       q    Type
                         _______ _______ _______ _____ _____    ______ ____

>  <TORSDO>
F 9

$$$$
=
 OpenBabel10222419063D

 50 57  0  0  1  0  0  0  0  0999 V2000
  190.0950  177.9290  145.7400 C   0  0  0  0  0  2  0  0  0  0  0  0
  187.7030  177.4760  146.3400 C   0  0  0  0  0  0  0  0  0  0  0  0
  187.3990  178.2350  142.0980 C   0  0  0  0  0  0  0  0  0  0  0  0
  188.3050  177.8230  141.2590 N   0  0  0  0  0  0  0  0  0  0  0  0
  185.3880  178.5710  146.6380 C   0  0  0  0  0  1  0  0  0  0  0  0
  187.4650  177.8400  143.5220 C   0  0  0  0  0  0  0  0  0  0  0  0
  189.7330  176.9220  143.1050 C   0  0  2  0  0  3  0  0  0  0  0  0
  187.7730  177.2660  147.5810 O   0  0  0  0  0  0  0  0  0  0  0  0
  189.3500  176.8620  141.6150 C   0  0  2  0  0  3  0  0  0  0  0  0
  188.5410  177.1770  143.9840 C   0  0  0  0  0  0  0  0  0  0  0  0
  186.5020  178.1100  145.7650 C   0  0  0  0  0  0  0  0  0  0  0  0
  186.4060  178.2870  144.4470 C   0  0  0  0  0  3  0  0  0  0  0  0
  191.1870  177.6380  144.6910 C   0  0  0  0  0  2  0  0  0  0  0  0
  190.7140  177.8970  143.3810 O   0  0  0  0  0  0  0  0  0  0  0  0
  188.8530  177.0730  145.4560 C   0  0  1  0  0  3  0  0  0  0  0  0
  191.5570  177.6320  141.0870 O   0  0  0  0  0  0  0  0  0  0  0  0
  190.5420  176.9800  140.7170 C   0  0  0  0  0  0  0  0  0  0  0  0
  190.5560  176.2680  139.4760 N   0  0  0  0  0  2  0  0  0  0  0  0
  190.1630  173.8460  136.0580 C   0  0  1  0  0  3  0  0  0  0  0  0
  193.9500  175.0360  137.2200 C   0  0  0  0  0  2  0  0  0  0  0  0
  190.1160  174.6880  137.3370 C   0  0  0  0  0  2  0  0  0  0  0  0
  192.4160  173.7080  135.8170 C   0  0  0  0  0  2  0  0  0  0  0  0
  191.7340  176.1530  138.7210 N   0  0  0  0  0  0  0  0  0  0  0  0
  192.6940  174.6980  136.9180 C   0  0  0  0  0  0  0  0  0  0  0  0
  191.2580  172.9560  136.1090 O   0  0  0  0  0  0  0  0  0  0  0  0
  191.4940  175.3330  137.5690 C   0  0  1  0  0  0  0  0  0  0  0  0
  191.4640  176.7470  137.4320 N   0  0  0  0  0  2  0  0  0  0  0  0
  188.4340  172.6280  137.1650 O   0  0  0  0  0  1  0  0  0  0  0  0
  188.8640  173.0730  135.9170 C   0  0  0  0  0  2  0  0  0  0  0  0
  186.3830  179.1000  141.6770 O   0  0  0  0  0  0  0  0  0  0  0  0
  185.1840  178.6430  141.0550 C   0  0  0  0  0  2  0  0  0  0  0  0
  183.9980  178.8040  141.9930 C   0  0  0  0  0  2  0  0  0  0  0  0
  182.7230  178.3500  141.3070 C   0  0  0  0  0  2  0  0  0  0  0  0
  182.6500  178.9640  139.9230 C   0  0  0  0  0  2  0  0  0  0  0  0
  180.8400  183.2560  135.6150 N   0  0  0  0  0  0  0  0  0  0  0  0
  180.8880  180.5250  139.1140 C   0  0  0  0  0  2  0  0  0  0  0  0
  180.2860  185.3760  136.4770 N   0  0  0  0  0  0  0  0  0  0  0  0
  180.8070  184.6100  135.4820 C   0  0  0  0  0  3  0  0  0  0  0  0
  179.8000  184.8070  137.6100 C   0  0  0  0  0  0  0  0  0  0  0  0
  180.0330  178.9930  137.4520 C   0  0  1  0  0  3  0  0  0  0  0  0
  179.2580  185.6250  138.6390 N   0  0  0  0  0  1  0  0  0  0  0  0
  180.3670  182.6460  136.7310 C   0  0  0  0  0  0  0  0  0  0  0  0
  180.9750  178.2670  138.2970 N   0  0  0  0  0  0  0  0  0  0  0  0
  179.8310  183.4230  137.7630 C   0  0  0  0  0  3  0  0  0  0  0  0
  179.9220  180.4320  137.9570 C   0  0  2  0  0  3  0  0  0  0  0  0
  180.7960  180.3970  135.7770 N   0  0  0  0  0  0  0  0  0  0  0  0
  180.2970  177.0610  138.7470 C   0  0  0  0  0  1  0  0  0  0  0  0
  181.2020  179.0910  139.4780 C   0  0  1  0  0  3  0  0  0  0  0  0
  180.6090  179.1590  136.0780 C   0  0  0  0  0  3  0  0  0  0  0  0
  180.4090  181.2170  136.8340 N   0  0  0  0  0  0  0  0  0  0  0  0
  2  8  2  0  0  0  0
  3  6  1  0  0  0  0
  4  9  1  0  0  0  0
  4  3  2  0  0  0  0
  6 10  2  0  0  0  0
  6 12  1  0  0  0  0
  7 14  1  6  0  0  0
  7 10  1  0  0  0  0
  9 17  1  6  0  0  0
  9  7  1  0  0  0  0
 10 15  1  0  0  0  0
 11  2  1  0  0  0  0
 11  5  1  0  0  0  0
 12 11  2  0  0  0  0
 13  1  1  0  0  0  0
 14 13  1  0  0  0  0
 15  1  1  6  0  0  0
 15  2  1  0  0  0  0
 17 16  2  0  0  0  0
 18 17  1  0  0  0  0
 19 29  1  1  0  0  0
 19 25  1  0  0  0  0
 19 21  1  0  0  0  0
 22 25  1  0  0  0  0
 22 24  1  0  0  0  0
 23 18  1  0  0  0  0
 24 20  2  0  0  0  0
 24 26  1  0  0  0  0
 26 21  1  6  0  0  0
 26 23  1  0  0  0  0
 27 26  1  0  0  0  0
 27 23  1  0  0  0  0
 29 28  1  0  0  0  0
 30  3  1  0  0  0  0
 31 30  1  0  0  0  0
 31 32  1  0  0  0  0
 33 32  1  0  0  0  0
 34 33  1  0  0  0  0
 35 42  1  0  0  0  0
 36 48  1  0  0  0  0
 37 39  2  0  0  0  0
 38 35  2  0  0  0  0
 38 37  1  0  0  0  0
 39 44  1  0  0  0  0
 39 41  1  0  0  0  0
 40 49  1  6  0  0  0
 40 45  1  0  0  0  0
 40 43  1  0  0  0  0
 42 50  1  0  0  0  0
 42 44  2  0  0  0  0
 43 47  1  0  0  0  0
 43 48  1  0  0  0  0
 45 36  1  1  0  0  0
 46 49  2  0  0  0  0
 46 50  1  0  0  0  0
 48 34  1  6  0  0  0
 50 45  1  0  0  0  0
M  END
>  <MODEL>
5

>  <REMARK>
 VINA RESULT:      -9.3      2.178      2.647
  Name = 
  9 active torsions:
  status: ('A' for Active; 'I' for Inactive)
    1  A    between atoms: C_1  and  C_28
    2  A    between atoms: C_6  and  C_37
    3  A    between atoms: C_6  and  C_49
    4  A    between atoms: C_11  and  O_13
    5  A    between atoms: O_13  and  C_37
    6  A    between atoms: N_18  and  N_33
    7  A    between atoms: C_27  and  C_32
    8  A    between atoms: C_42  and  C_44
    9  A    between atoms: C_42  and  C_49
                            x       y       z     vdW  Elec       q    Type
                         _______ _______ _______ _____ _____    ______ ____

>  <TORSDO>
F 9

$$$$
=
 OpenBabel10222419063D

 50 57  0  0  1  0  0  0  0  0999 V2000
  183.8970  178.4550  144.6490 C   0  0  0  0  0  2  0  0  0  0  0  0
  185.8550  178.6480  146.2040 C   0  0  0  0  0  0  0  0  0  0  0  0
  187.7760  177.3640  142.5540 C   0  0  0  0  0  0  0  0  0  0  0  0
  187.3920  177.7930  141.3860 N   0  0  0  0  0  0  0  0  0  0  0  0
  187.6050  177.2930  147.5280 C   0  0  0  0  0  1  0  0  0  0  0  0
  187.1880  177.9280  143.7880 C   0  0  0  0  0  0  0  0  0  0  0  0
  185.4990  179.0890  142.3870 C   0  0  2  0  0  3  0  0  0  0  0  0
  185.3080  179.0090  147.2810 O   0  0  0  0  0  0  0  0  0  0  0  0
  186.4770  178.9220  141.2080 C   0  0  2  0  0  3  0  0  0  0  0  0
  186.1490  178.7800  143.7060 C   0  0  0  0  0  0  0  0  0  0  0  0
  187.0580  177.7940  146.2370 C   0  0  0  0  0  0  0  0  0  0  0  0
  187.6660  177.4540  145.1000 C   0  0  0  0  0  3  0  0  0  0  0  0
  183.4150  178.7660  143.2180 C   0  0  0  0  0  2  0  0  0  0  0  0
  184.3420  178.2940  142.2570 O   0  0  0  0  0  0  0  0  0  0  0  0
  185.2710  179.0970  144.8920 C   0  0  1  0  0  3  0  0  0  0  0  0
  184.8590  179.6900  139.6160 O   0  0  0  0  0  0  0  0  0  0  0  0
  185.7710  178.8620  139.8900 C   0  0  0  0  0  0  0  0  0  0  0  0
  186.2040  177.9160  138.9080 N   0  0  0  0  0  2  0  0  0  0  0  0
  187.1530  174.5340  136.5910 C   0  0  1  0  0  3  0  0  0  0  0  0
  185.6410  177.8800  134.6870 C   0  0  0  0  0  2  0  0  0  0  0  0
  186.9020  175.6750  137.5820 C   0  0  0  0  0  2  0  0  0  0  0  0
  186.6530  175.6300  134.6680 C   0  0  0  0  0  2  0  0  0  0  0  0
  185.7400  177.9840  137.5840 N   0  0  0  0  0  0  0  0  0  0  0  0
  186.1240  176.8470  135.3820 C   0  0  0  0  0  0  0  0  0  0  0  0
  187.7100  175.0470  135.4000 O   0  0  0  0  0  0  0  0  0  0  0  0
  186.0890  176.7800  136.8860 C   0  0  1  0  0  0  0  0  0  0  0  0
  184.7800  176.9160  137.4230 N   0  0  0  0  0  2  0  0  0  0  0  0
  187.5120  172.2580  137.2170 O   0  0  0  0  0  1  0  0  0  0  0  0
  188.0970  173.5230  137.2180 C   0  0  0  0  0  2  0  0  0  0  0  0
  188.7100  176.3260  142.6560 O   0  0  0  0  0  0  0  0  0  0  0  0
  190.1060  176.5550  142.8320 C   0  0  0  0  0  2  0  0  0  0  0  0
  190.5380  177.8230  142.1130 C   0  0  0  0  0  2  0  0  0  0  0  0
  191.4800  177.4840  140.9730 C   0  0  0  0  0  2  0  0  0  0  0  0
  190.7070  176.7860  139.8720 C   0  0  0  0  0  2  0  0  0  0  0  0
  194.8150  172.6850  137.3090 N   0  0  0  0  0  0  0  0  0  0  0  0
  192.7430  176.4300  138.4840 C   0  0  0  0  0  2  0  0  0  0  0  0
  197.0630  172.9820  137.9440 N   0  0  0  0  0  0  0  0  0  0  0  0
  196.0380  172.1610  137.5940 C   0  0  0  0  0  3  0  0  0  0  0  0
  196.8820  174.3260  138.0190 C   0  0  0  0  0  0  0  0  0  0  0  0
  191.5070  175.9330  136.4680 C   0  0  1  0  0  3  0  0  0  0  0  0
  197.9670  175.1690  138.3860 N   0  0  0  0  0  1  0  0  0  0  0  0
  194.5900  174.0220  137.3730 C   0  0  0  0  0  0  0  0  0  0  0  0
  190.5660  176.4300  137.4660 N   0  0  0  0  0  0  0  0  0  0  0  0
  195.6350  174.8780  137.7340 C   0  0  0  0  0  3  0  0  0  0  0  0
  192.9150  175.9460  137.0640 C   0  0  2  0  0  3  0  0  0  0  0  0
  192.2650  173.7480  136.5520 N   0  0  0  0  0  0  0  0  0  0  0  0
  189.8050  177.4980  136.8350 C   0  0  0  0  0  1  0  0  0  0  0  0
  191.3600  177.0430  138.5240 C   0  0  1  0  0  3  0  0  0  0  0  0
  191.2570  174.4760  136.2170 C   0  0  0  0  0  3  0  0  0  0  0  0
  193.2930  174.5420  137.0570 N   0  0  0  0  0  0  0  0  0  0  0  0
  2 11  1  0  0  0  0
  2  8  2  0  0  0  0
  3 30  1  0  0  0  0
  3  6  1  0  0  0  0
  4  3  2  0  0  0  0
  6 12  1  0  0  0  0
  7 14  1  6  0  0  0
  7 10  1  0  0  0  0
  9 17  1  6  0  0  0
  9  4  1  0  0  0  0
  9  7  1  0  0  0  0
 10  6  2  0  0  0  0
 10 15  1  0  0  0  0
 11  5  1  0  0  0  0
 12 11  2  0  0  0  0
 13  1  1  0  0  0  0
 14 13  1  0  0  0  0
 15  1  1  6  0  0  0
 15  2  1  0  0  0  0
 16 17  2  0  0  0  0
 18 17  1  0  0  0  0
 19 29  1  1  0  0  0
 19 21  1  0  0  0  0
 20 24  2  0  0  0  0
 22 24  1  0  0  0  0
 22 25  1  0  0  0  0
 23 18  1  0  0  0  0
 24 26  1  0  0  0  0
 25 19  1  0  0  0  0
 26 27  1  0  0  0  0
 26 21  1  1  0  0  0
 26 23  1  0  0  0  0
 27 23  1  0  0  0  0
 28 29  1  0  0  0  0
 30 31  1  0  0  0  0
 32 31  1  0  0  0  0
 33 32  1  0  0  0  0
 34 33  1  0  0  0  0
 35 42  2  0  0  0  0
 35 38  1  0  0  0  0
 36 48  1  0  0  0  0
 37 39  1  0  0  0  0
 38 37  2  0  0  0  0
 39 41  1  0  0  0  0
 40 49  1  1  0  0  0
 40 45  1  0  0  0  0
 40 43  1  0  0  0  0
 42 44  1  0  0  0  0
 43 48  1  0  0  0  0
 44 39  2  0  0  0  0
 45 36  1  1  0  0  0
 46 50  1  0  0  0  0
 47 43  1  0  0  0  0
 48 34  1  1  0  0  0
 49 46  2  0  0  0  0
 50 45  1  0  0  0  0
 50 42  1  0  0  0  0
M  END
>  <MODEL>
6

>  <REMARK>
 VINA RESULT:      -9.3      4.268      9.570
  Name = 
  9 active torsions:
  status: ('A' for Active; 'I' for Inactive)
    1  A    between atoms: C_1  and  C_28
    2  A    between atoms: C_6  and  C_37
    3  A    between atoms: C_6  and  C_49
    4  A    between atoms: C_11  and  O_13
    5  A    between atoms: O_13  and  C_37
    6  A    between atoms: N_18  and  N_33
    7  A    between atoms: C_27  and  C_32
    8  A    between atoms: C_42  and  C_44
    9  A    between atoms: C_42  and  C_49
                            x       y       z     vdW  Elec       q    Type
                         _______ _______ _______ _____ _____    ______ ____

>  <TORSDO>
F 9

$$$$
=
 OpenBabel10222419063D

 50 57  0  0  1  0  0  0  0  0999 V2000
  190.3210  175.8450  137.1140 C   0  0  0  0  0  2  0  0  0  0  0  0
  189.0160  177.5520  135.8200 C   0  0  0  0  0  0  0  0  0  0  0  0
  187.6040  178.2530  139.8430 C   0  0  0  0  0  0  0  0  0  0  0  0
  188.3970  178.1840  140.8730 N   0  0  0  0  0  0  0  0  0  0  0  0
  186.6630  178.1580  134.9560 C   0  0  0  0  0  1  0  0  0  0  0  0
  188.1470  178.1440  138.4720 C   0  0  0  0  0  0  0  0  0  0  0  0
  190.3270  177.4680  139.4490 C   0  0  2  0  0  3  0  0  0  0  0  0
  189.4070  177.3500  134.6400 O   0  0  0  0  0  0  0  0  0  0  0  0
  189.8560  178.1290  140.7580 C   0  0  2  0  0  3  0  0  0  0  0  0
  189.4420  177.8230  138.2880 C   0  0  0  0  0  0  0  0  0  0  0  0
  187.6340  178.0000  136.0750 C   0  0  0  0  0  0  0  0  0  0  0  0
  187.2340  178.2630  137.3190 C   0  0  0  0  0  3  0  0  0  0  0  0
  191.1310  175.6230  138.4060 C   0  0  0  0  0  2  0  0  0  0  0  0
  190.4080  176.0630  139.5410 O   0  0  0  0  0  0  0  0  0  0  0  0
  189.9710  177.3330  136.9630 C   0  0  1  0  0  3  0  0  0  0  0  0
  191.6880  177.1300  141.9360 O   0  0  0  0  0  0  0  0  0  0  0  0
  190.4840  177.5060  141.9660 C   0  0  0  0  0  0  0  0  0  0  0  0
  189.7340  177.4280  143.1820 N   0  0  0  0  0  2  0  0  0  0  0  0
  187.1690  177.5680  146.5140 C   0  0  1  0  0  3  0  0  0  0  0  0
  191.2310  177.1280  147.1570 C   0  0  0  0  0  2  0  0  0  0  0  0
  187.9470  177.5750  145.1950 C   0  0  0  0  0  2  0  0  0  0  0  0
  188.9240  177.4970  147.9510 C   0  0  0  0  0  2  0  0  0  0  0  0
  190.3540  177.0790  144.3930 N   0  0  0  0  0  0  0  0  0  0  0  0
  189.9370  177.2730  146.8580 C   0  0  0  0  0  0  0  0  0  0  0  0
  187.8690  178.3120  147.4880 O   0  0  0  0  0  0  0  0  0  0  0  0
  189.3970  177.1320  145.4600 C   0  0  1  0  0  0  0  0  0  0  0  0
  189.7020  175.8780  144.8640 N   0  0  0  0  0  2  0  0  0  0  0  0
  185.6780  179.3770  146.9670 O   0  0  0  0  0  1  0  0  0  0  0  0
  185.7920  178.1660  146.2890 C   0  0  0  0  0  2  0  0  0  0  0  0
  186.2210  178.3770  140.0200 O   0  0  0  0  0  0  0  0  0  0  0  0
  185.6400  179.1150  141.0930 C   0  0  0  0  0  2  0  0  0  0  0  0
  184.4690  178.3550  141.6940 C   0  0  0  0  0  2  0  0  0  0  0  0
  183.5420  177.8660  140.5980 C   0  0  0  0  0  2  0  0  0  0  0  0
  182.8580  179.0530  139.9500 C   0  0  0  0  0  2  0  0  0  0  0  0
  183.4030  173.3520  137.2180 N   0  0  0  0  0  0  0  0  0  0  0  0
  183.6790  177.7090  138.0220 C   0  0  0  0  0  2  0  0  0  0  0  0
  185.6090  172.6500  136.7850 N   0  0  0  0  0  0  0  0  0  0  0  0
  184.3250  172.3560  137.1220 C   0  0  0  0  0  3  0  0  0  0  0  0
  185.9880  173.9320  136.5450 C   0  0  0  0  0  0  0  0  0  0  0  0
  181.5380  177.6680  136.9010 C   0  0  1  0  0  3  0  0  0  0  0  0
  187.3350  174.2200  136.1920 N   0  0  0  0  0  1  0  0  0  0  0  0
  183.7390  174.6470  136.9890 C   0  0  0  0  0  0  0  0  0  0  0  0
  181.4520  178.6130  138.0100 N   0  0  0  0  0  0  0  0  0  0  0  0
  185.0570  174.9640  136.6430 C   0  0  0  0  0  3  0  0  0  0  0  0
  182.9530  177.0900  136.8520 C   0  0  2  0  0  3  0  0  0  0  0  0
  181.3910  175.3890  137.2840 N   0  0  0  0  0  0  0  0  0  0  0  0
  180.9280  179.8560  137.4650 C   0  0  0  0  0  1  0  0  0  0  0  0
  182.8180  178.8810  138.4410 C   0  0  1  0  0  3  0  0  0  0  0  0
  180.6900  176.4660  137.1930 C   0  0  0  0  0  3  0  0  0  0  0  0
  182.7410  175.6710  137.0880 N   0  0  0  0  0  0  0  0  0  0  0  0
  1 13  1  0  0  0  0
  2 11  1  0  0  0  0
  2 15  1  0  0  0  0
  3 30  1  0  0  0  0
  3  4  2  0  0  0  0
  5 11  1  0  0  0  0
  6  3  1  0  0  0  0
  7 10  1  6  0  0  0
  7 14  1  0  0  0  0
  7  9  1  0  0  0  0
  8  2  2  0  0  0  0
  9  4  1  0  0  0  0
  9 17  1  1  0  0  0
 10  6  2  0  0  0  0
 11 12  2  0  0  0  0
 12  6  1  0  0  0  0
 13 14  1  0  0  0  0
 15  1  1  1  0  0  0
 15 10  1  0  0  0  0
 16 17  2  0  0  0  0
 17 18  1  0  0  0  0
 18 23  1  0  0  0  0
 19 29  1  6  0  0  0
 19 25  1  0  0  0  0
 21 19  1  0  0  0  0
 23 27  1  0  0  0  0
 23 26  1  0  0  0  0
 24 20  2  0  0  0  0
 24 22  1  0  0  0  0
 25 22  1  0  0  0  0
 26 21  1  6  0  0  0
 26 24  1  0  0  0  0
 27 26  1  0  0  0  0
 29 28  1  0  0  0  0
 30 31  1  0  0  0  0
 31 32  1  0  0  0  0
 33 32  1  0  0  0  0
 34 33  1  0  0  0  0
 36 48  1  0  0  0  0
 37 38  2  0  0  0  0
 38 35  1  0  0  0  0
 39 44  2  0  0  0  0
 39 37  1  0  0  0  0
 40 49  1  1  0  0  0
 40 43  1  0  0  0  0
 41 39  1  0  0  0  0
 42 50  1  0  0  0  0
 42 35  2  0  0  0  0
 43 48  1  0  0  0  0
 44 42  1  0  0  0  0
 45 40  1  0  0  0  0
 45 50  1  0  0  0  0
 45 36  1  1  0  0  0
 47 43  1  0  0  0  0
 48 34  1  1  0  0  0
 49 46  2  0  0  0  0
 50 46  1  0  0  0  0
M  END
>  <MODEL>
7

>  <REMARK>
 VINA RESULT:      -9.2      2.666      7.983
  Name = 
  9 active torsions:
  status: ('A' for Active; 'I' for Inactive)
    1  A    between atoms: C_1  and  C_28
    2  A    between atoms: C_6  and  C_37
    3  A    between atoms: C_6  and  C_49
    4  A    between atoms: C_11  and  O_13
    5  A    between atoms: O_13  and  C_37
    6  A    between atoms: N_18  and  N_33
    7  A    between atoms: C_27  and  C_32
    8  A    between atoms: C_42  and  C_44
    9  A    between atoms: C_42  and  C_49
                            x       y       z     vdW  Elec       q    Type
                         _______ _______ _______ _____ _____    ______ ____

>  <TORSDO>
F 9

$$$$
=
 OpenBabel10222419063D

 50 57  0  0  1  0  0  0  0  0999 V2000
  190.8210  178.3610  145.2480 C   0  0  0  0  0  2  0  0  0  0  0  0
  189.0160  177.4350  146.7230 C   0  0  0  0  0  0  0  0  0  0  0  0
  186.9670  177.7270  142.9310 C   0  0  0  0  0  0  0  0  0  0  0  0
  187.5620  177.4580  141.8040 N   0  0  0  0  0  0  0  0  0  0  0  0
  186.7910  178.0010  147.8970 C   0  0  0  0  0  1  0  0  0  0  0  0
  187.6560  177.4850  144.2160 C   0  0  0  0  0  0  0  0  0  0  0  0
  189.7510  177.0690  142.9520 C   0  0  2  0  0  3  0  0  0  0  0  0
  189.5950  177.3570  147.8390 O   0  0  0  0  0  0  0  0  0  0  0  0
  188.8640  176.7930  141.7250 C   0  0  2  0  0  3  0  0  0  0  0  0
  188.9540  177.1260  144.2240 C   0  0  0  0  0  0  0  0  0  0  0  0
  187.5720  177.7290  146.6590 C   0  0  0  0  0  0  0  0  0  0  0  0
  186.9480  177.7610  145.4810 C   0  0  0  0  0  3  0  0  0  0  0  0
  191.4740  178.2330  143.8580 C   0  0  0  0  0  2  0  0  0  0  0  0
  190.4960  178.2610  142.8340 O   0  0  0  0  0  0  0  0  0  0  0  0
  189.8100  177.2250  145.4620 C   0  0  1  0  0  3  0  0  0  0  0  0
  190.7210  176.6430  140.2190 O   0  0  0  0  0  0  0  0  0  0  0  0
  189.5640  177.0970  140.4370 C   0  0  0  0  0  0  0  0  0  0  0  0
  188.8730  177.8280  139.4210 N   0  0  0  0  0  2  0  0  0  0  0  0
  185.9390  177.8100  136.4040 C   0  0  1  0  0  3  0  0  0  0  0  0
  189.9100  177.4260  135.3110 C   0  0  0  0  0  2  0  0  0  0  0  0
  186.8580  177.8000  137.6300 C   0  0  0  0  0  2  0  0  0  0  0  0
  187.4950  177.4050  134.8030 C   0  0  0  0  0  2  0  0  0  0  0  0
  189.3920  177.9270  138.1200 N   0  0  0  0  0  0  0  0  0  0  0  0
  188.6560  177.5530  135.7520 C   0  0  0  0  0  0  0  0  0  0  0  0
  186.3800  176.8510  135.4670 O   0  0  0  0  0  0  0  0  0  0  0  0
  188.3200  177.9390  137.1680 C   0  0  1  0  0  0  0  0  0  0  0  0
  188.9040  179.1700  137.5690 N   0  0  0  0  0  2  0  0  0  0  0  0
  183.7700  177.0540  135.7520 O   0  0  0  0  0  1  0  0  0  0  0  0
  184.5170  177.5030  136.8390 C   0  0  0  0  0  2  0  0  0  0  0  0
  185.6900  178.3000  142.9390 O   0  0  0  0  0  0  0  0  0  0  0  0
  185.0750  178.8420  141.7720 C   0  0  0  0  0  2  0  0  0  0  0  0
  183.5770  178.5860  141.7870 C   0  0  0  0  0  2  0  0  0  0  0  0
  183.1790  177.7260  140.6030 C   0  0  0  0  0  2  0  0  0  0  0  0
  181.6830  177.4850  140.6350 C   0  0  0  0  0  2  0  0  0  0  0  0
  181.7510  172.0380  137.3800 N   0  0  0  0  0  0  0  0  0  0  0  0
  181.8940  176.3490  138.4300 C   0  0  0  0  0  2  0  0  0  0  0  0
  183.7190  171.6220  136.1560 N   0  0  0  0  0  0  0  0  0  0  0  0
  182.6670  171.1630  136.8850 C   0  0  0  0  0  3  0  0  0  0  0  0
  183.8720  172.9500  135.9170 C   0  0  0  0  0  0  0  0  0  0  0  0
  179.5100  176.1180  138.1130 C   0  0  1  0  0  3  0  0  0  0  0  0
  184.9770  173.4110  135.1510 N   0  0  0  0  0  1  0  0  0  0  0  0
  181.8670  173.3740  137.1670 C   0  0  0  0  0  0  0  0  0  0  0  0
  179.7330  176.9870  139.2640 N   0  0  0  0  0  0  0  0  0  0  0  0
  182.9440  173.8600  136.4210 C   0  0  0  0  0  3  0  0  0  0  0  0
  180.8640  175.7120  137.5290 C   0  0  2  0  0  3  0  0  0  0  0  0
  179.7140  173.8210  138.3160 N   0  0  0  0  0  0  0  0  0  0  0  0
  178.9400  178.1870  139.0470 C   0  0  0  0  0  1  0  0  0  0  0  0
  181.1330  177.3890  139.2220 C   0  0  1  0  0  3  0  0  0  0  0  0
  178.9310  174.8120  138.5680 C   0  0  0  0  0  3  0  0  0  0  0  0
  180.8780  174.2680  137.6950 N   0  0  0  0  0  0  0  0  0  0  0  0
  2  8  2  0  0  0  0
  3 30  1  0  0  0  0
  3  6  1  0  0  0  0
  4  3  2  0  0  0  0
  6 10  2  0  0  0  0
  6 12  1  0  0  0  0
  7 14  1  6  0  0  0
  7 10  1  0  0  0  0
  9 17  1  6  0  0  0
  9  4  1  0  0  0  0
  9  7  1  0  0  0  0
 10 15  1  0  0  0  0
 11  2  1  0  0  0  0
 11  5  1  0  0  0  0
 12 11  2  0  0  0  0
 13  1  1  0  0  0  0
 14 13  1  0  0  0  0
 15  1  1  6  0  0  0
 15  2  1  0  0  0  0
 16 17  2  0  0  0  0
 18 17  1  0  0  0  0
 19 29  1  1  0  0  0
 19 21  1  0  0  0  0
 20 24  2  0  0  0  0
 22 25  1  0  0  0  0
 22 24  1  0  0  0  0
 23 18  1  0  0  0  0
 24 26  1  0  0  0  0
 25 19  1  0  0  0  0
 26 27  1  0  0  0  0
 26 21  1  1  0  0  0
 26 23  1  0  0  0  0
 27 23  1  0  0  0  0
 28 29  1  0  0  0  0
 31 32  1  0  0  0  0
 31 30  1  0  0  0  0
 33 34  1  0  0  0  0
 33 32  1  0  0  0  0
 36 48  1  0  0  0  0
 37 38  1  0  0  0  0
 38 35  2  0  0  0  0
 39 37  2  0  0  0  0
 39 44  1  0  0  0  0
 40 49  1  1  0  0  0
 40 43  1  0  0  0  0
 41 39  1  0  0  0  0
 42 35  1  0  0  0  0
 42 50  1  0  0  0  0
 44 42  2  0  0  0  0
 45 50  1  0  0  0  0
 45 40  1  0  0  0  0
 45 36  1  1  0  0  0
 46 49  2  0  0  0  0
 47 43  1  0  0  0  0
 48 43  1  0  0  0  0
 48 34  1  1  0  0  0
 50 46  1  0  0  0  0
M  END
>  <MODEL>
8

>  <REMARK>
 VINA RESULT:      -8.8      3.104      5.044
  Name = 
  9 active torsions:
  status: ('A' for Active; 'I' for Inactive)
    1  A    between atoms: C_1  and  C_28
    2  A    between atoms: C_6  and  C_37
    3  A    between atoms: C_6  and  C_49
    4  A    between atoms: C_11  and  O_13
    5  A    between atoms: O_13  and  C_37
    6  A    between atoms: N_18  and  N_33
    7  A    between atoms: C_27  and  C_32
    8  A    between atoms: C_42  and  C_44
    9  A    between atoms: C_42  and  C_49
                            x       y       z     vdW  Elec       q    Type
                         _______ _______ _______ _____ _____    ______ ____

>  <TORSDO>
F 9

$$$$
=
 OpenBabel10222419063D

 50 57  0  0  1  0  0  0  0  0999 V2000
  183.4190  179.3770  144.5440 C   0  0  0  0  0  2  0  0  0  0  0  0
  181.2820  178.7720  143.3790 C   0  0  0  0  0  0  0  0  0  0  0  0
  183.9540  179.3550  140.0340 C   0  0  0  0  0  0  0  0  0  0  0  0
  185.2000  178.9800  140.0750 N   0  0  0  0  0  0  0  0  0  0  0  0
  179.3650  179.7050  141.9290 C   0  0  0  0  0  1  0  0  0  0  0  0
  183.0350  179.0160  141.1420 C   0  0  0  0  0  0  0  0  0  0  0  0
  184.9940  178.2520  142.4610 C   0  0  2  0  0  3  0  0  0  0  0  0
  180.4870  178.6130  144.3430 O   0  0  0  0  0  0  0  0  0  0  0  0
  185.7420  178.1110  141.1220 C   0  0  2  0  0  3  0  0  0  0  0  0
  183.5180  178.4510  142.2650 C   0  0  0  0  0  0  0  0  0  0  0  0
  180.7870  179.2960  142.0920 C   0  0  0  0  0  0  0  0  0  0  0  0
  181.6180  179.4180  141.0560 C   0  0  0  0  0  3  0  0  0  0  0  0
  184.9400  179.1290  144.5510 C   0  0  0  0  0  2  0  0  0  0  0  0
  185.4890  179.3060  143.2570 O   0  0  0  0  0  0  0  0  0  0  0  0
  182.7350  178.4220  143.5540 C   0  0  1  0  0  3  0  0  0  0  0  0
  187.7700  179.3770  140.9700 O   0  0  0  0  0  0  0  0  0  0  0  0
  187.2200  178.2840  141.2760 C   0  0  0  0  0  0  0  0  0  0  0  0
  187.9900  177.2290  141.8620 N   0  0  0  0  0  2  0  0  0  0  0  0
  188.5950  177.1670  146.0260 C   0  0  1  0  0  3  0  0  0  0  0  0
  191.6800  178.4600  143.5940 C   0  0  0  0  0  2  0  0  0  0  0  0
  188.1840  177.1570  144.5500 C   0  0  0  0  0  2  0  0  0  0  0  0
  190.6500  178.1040  145.8070 C   0  0  0  0  0  2  0  0  0  0  0  0
  189.3250  177.4350  142.2470 N   0  0  0  0  0  0  0  0  0  0  0  0
  190.6330  178.0310  144.3030 C   0  0  0  0  0  0  0  0  0  0  0  0
  189.3490  178.3260  146.3070 O   0  0  0  0  0  0  0  0  0  0  0  0
  189.4330  177.3710  143.6760 C   0  0  1  0  0  0  0  0  0  0  0  0
  189.7610  176.2250  142.9040 N   0  0  0  0  0  2  0  0  0  0  0  0
  187.3000  178.2560  147.7100 O   0  0  0  0  0  1  0  0  0  0  0  0
  187.3500  177.1280  146.8940 C   0  0  0  0  0  2  0  0  0  0  0  0
  183.4800  180.1270  138.9680 O   0  0  0  0  0  0  0  0  0  0  0  0
  182.1320  180.0720  138.5090 C   0  0  0  0  0  2  0  0  0  0  0  0
  181.9730  179.0060  137.4370 C   0  0  0  0  0  2  0  0  0  0  0  0
  181.2930  177.7790  138.0140 C   0  0  0  0  0  2  0  0  0  0  0  0
  182.2870  176.6370  138.0800 C   0  0  0  0  0  2  0  0  0  0  0  0
  188.5920  175.9600  138.3040 N   0  0  0  0  0  0  0  0  0  0  0  0
  184.5030  177.1870  137.0880 C   0  0  0  0  0  2  0  0  0  0  0  0
  189.8130  177.9620  138.5220 N   0  0  0  0  0  0  0  0  0  0  0  0
  189.6690  176.6360  138.7860 C   0  0  0  0  0  3  0  0  0  0  0  0
  188.8880  178.6260  137.7820 C   0  0  0  0  0  0  0  0  0  0  0  0
  184.6640  175.1240  135.8400 C   0  0  1  0  0  3  0  0  0  0  0  0
  189.0550  180.0130  137.5140 N   0  0  0  0  0  1  0  0  0  0  0  0
  187.6430  176.5850  137.5610 C   0  0  0  0  0  0  0  0  0  0  0  0
  183.3120  175.2220  136.3830 N   0  0  0  0  0  0  0  0  0  0  0  0
  187.7770  177.9490  137.2830 C   0  0  0  0  0  3  0  0  0  0  0  0
  185.4500  176.3730  136.2390 C   0  0  2  0  0  3  0  0  0  0  0  0
  186.4260  174.4570  137.1850 N   0  0  0  0  0  0  0  0  0  0  0  0
  182.3950  175.0060  135.2740 C   0  0  0  0  0  1  0  0  0  0  0  0
  183.1340  176.6010  136.8190 C   0  0  1  0  0  3  0  0  0  0  0  0
  185.4070  174.0190  136.5290 C   0  0  0  0  0  3  0  0  0  0  0  0
  186.5260  175.8410  137.0600 N   0  0  0  0  0  0  0  0  0  0  0  0
  1 13  1  0  0  0  0
  2 15  1  0  0  0  0
  2  8  2  0  0  0  0
  3  4  2  0  0  0  0
  3  6  1  0  0  0  0
  4  9  1  0  0  0  0
  5 11  1  0  0  0  0
  6 10  2  0  0  0  0
  7 10  1  6  0  0  0
  7 14  1  0  0  0  0
  9 17  1  1  0  0  0
  9  7  1  0  0  0  0
 10 15  1  0  0  0  0
 11  2  1  0  0  0  0
 12  6  1  0  0  0  0
 12 11  2  0  0  0  0
 14 13  1  0  0  0  0
 15  1  1  1  0  0  0
 16 17  2  0  0  0  0
 17 18  1  0  0  0  0
 18 23  1  0  0  0  0
 19 25  1  0  0  0  0
 19 29  1  1  0  0  0
 20 24  2  0  0  0  0
 21 19  1  0  0  0  0
 22 25  1  0  0  0  0
 23 27  1  0  0  0  0
 23 26  1  0  0  0  0
 24 22  1  0  0  0  0
 26 24  1  0  0  0  0
 26 21  1  1  0  0  0
 27 26  1  0  0  0  0
 29 28  1  0  0  0  0
 30  3  1  0  0  0  0
 31 30  1  0  0  0  0
 32 33  1  0  0  0  0
 32 31  1  0  0  0  0
 33 34  1  0  0  0  0
 35 38  1  0  0  0  0
 37 38  2  0  0  0  0
 39 37  1  0  0  0  0
 40 45  1  0  0  0  0
 40 43  1  0  0  0  0
 40 49  1  1  0  0  0
 41 39  1  0  0  0  0
 42 35  2  0  0  0  0
 43 48  1  0  0  0  0
 44 42  1  0  0  0  0
 44 39  2  0  0  0  0
 45 50  1  0  0  0  0
 45 36  1  1  0  0  0
 47 43  1  0  0  0  0
 48 36  1  0  0  0  0
 48 34  1  1  0  0  0
 49 46  2  0  0  0  0
 50 46  1  0  0  0  0
 50 42  1  0  0  0  0
M  END
>  <MODEL>
9

>  <REMARK>
 VINA RESULT:      -8.7      3.289      7.708
  Name = 
  9 active torsions:
  status: ('A' for Active; 'I' for Inactive)
    1  A    between atoms: C_1  and  C_28
    2  A    between atoms: C_6  and  C_37
    3  A    between atoms: C_6  and  C_49
    4  A    between atoms: C_11  and  O_13
    5  A    between atoms: O_13  and  C_37
    6  A    between atoms: N_18  and  N_33
    7  A    between atoms: C_27  and  C_32
    8  A    between atoms: C_42  and  C_44
    9  A    between atoms: C_42  and  C_49
                            x       y       z     vdW  Elec       q    Type
                         _______ _______ _______ _____ _____    ______ ____

>  <TORSDO>
F 9

$$$$
