=
 OpenBabel10222418223D

 34 37  0  0  1  0  0  0  0  0999 V2000
  189.6400  177.0920  143.8730 C   0  0  0  0  0  0  0  0  0  0  0  0
  190.7130  176.9600  141.6160 C   0  0  0  0  0  3  0  0  0  0  0  0
  190.3440  176.8520  146.1030 C   0  0  0  0  0  0  0  0  0  0  0  0
  188.5310  177.3970  142.0610 C   0  0  0  0  0  0  0  0  0  0  0  0
  188.5110  177.4700  140.3880 S   0  0  0  0  0  0  0  0  0  0  0  0
  189.0080  177.1130  146.5470 C   0  0  0  0  0  0  0  0  0  0  0  0
  189.7400  177.1250  142.5380 N   0  0  0  0  0  0  0  0  0  0  0  0
  190.1860  177.1110  140.3270 C   0  0  0  0  0  0  0  0  0  0  0  0
  187.9930  177.3650  145.5950 C   0  0  0  0  0  3  0  0  0  0  0  0
  188.3430  177.3480  144.2530 C   0  0  0  0  0  0  0  0  0  0  0  0
  187.6080  177.5510  143.0820 C   0  0  0  0  0  0  0  0  0  0  0  0
  190.6300  176.8490  144.7630 N   0  0  0  0  0  0  0  0  0  0  0  0
  191.4480  176.5830  147.0500 C   0  0  0  0  0  0  0  0  0  0  0  0
  192.2440  175.4120  146.8940 N   0  0  0  0  0  1  0  0  0  0  0  0
  191.7040  177.3730  147.9970 O   0  0  0  0  0  0  0  0  0  0  0  0
  188.1510  178.2450  148.5790 C   0  0  0  0  0  1  0  0  0  0  0  0
  188.7070  177.1190  147.9150 O   0  0  0  0  0  0  0  0  0  0  0  0
  190.9860  177.0440  139.0750 C   0  0  0  0  0  2  0  0  0  0  0  0
  191.0830  175.6620  138.6310 N   0  0  0  0  0  2  0  0  0  0  0  0
  189.2760  175.8960  136.9710 C   0  0  0  0  0  3  0  0  0  0  0  0
  190.2490  175.1120  137.6090 C   0  0  0  0  0  0  0  0  0  0  0  0
  190.4030  173.8090  137.2530 N   0  0  0  0  0  0  0  0  0  0  0  0
  188.6590  173.9850  135.6290 C   0  0  0  0  0  3  0  0  0  0  0  0
  189.6360  173.2340  136.2860 C   0  0  0  0  0  3  0  0  0  0  0  0
  188.4810  175.3240  135.9760 C   0  0  0  0  0  3  0  0  0  0  0  0
  186.2170  177.8400  142.9330 N   0  0  0  0  0  2  0  0  0  0  0  0
  185.7220  179.1540  142.5520 C   0  0  0  0  0  2  0  0  0  0  0  0
  184.9500  179.7770  143.7040 C   0  0  0  0  0  2  0  0  0  0  0  0
  184.4310  178.6230  145.8300 C   0  0  0  0  0  1  0  0  0  0  0  0
  184.0410  178.7550  144.3700 C   0  0  1  0  0  3  0  0  0  0  0  0
  182.3850  178.5170  142.0490 O   0  0  0  0  0  0  0  0  0  0  0  0
  182.6540  179.1870  144.2710 N   0  0  0  0  0  2  0  0  0  0  0  0
  180.4690  179.4940  143.0570 C   0  0  0  0  0  1  0  0  0  0  0  0
  181.8810  179.0340  143.0810 C   0  0  0  0  0  0  0  0  0  0  0  0
  1 10  2  0  0  0  0
  1 12  1  0  0  0  0
  2  7  1  0  0  0  0
  3  6  1  0  0  0  0
  3 13  1  0  0  0  0
  4  7  1  0  0  0  0
  4 11  2  0  0  0  0
  5  4  1  0  0  0  0
  6 17  1  0  0  0  0
  7  1  1  0  0  0  0
  8  5  1  0  0  0  0
  8  2  2  0  0  0  0
  9  6  2  0  0  0  0
 10  9  1  0  0  0  0
 11 10  1  0  0  0  0
 12  3  2  0  0  0  0
 13 15  2  0  0  0  0
 14 13  1  0  0  0  0
 17 16  1  0  0  0  0
 18  8  1  0  0  0  0
 19 18  1  0  0  0  0
 20 21  1  0  0  0  0
 21 19  1  0  0  0  0
 22 21  2  0  0  0  0
 23 25  1  0  0  0  0
 23 24  2  0  0  0  0
 24 22  1  0  0  0  0
 25 20  2  0  0  0  0
 26 11  1  0  0  0  0
 27 26  1  0  0  0  0
 27 28  1  0  0  0  0
 28 30  1  0  0  0  0
 30 29  1  1  0  0  0
 31 34  2  0  0  0  0
 32 30  1  0  0  0  0
 33 34  1  0  0  0  0
 34 32  1  0  0  0  0
M  END
>  <MODEL>
1

>  <REMARK>
 VINA RESULT:      -8.5      0.000      0.000
  Name = 
  9 active torsions:
  status: ('A' for Active; 'I' for Inactive)
    1  A    between atoms: N_1  and  C_23
    2  A    between atoms: C_2  and  C_15
    3  A    between atoms: C_2  and  N_31
    4  A    between atoms: C_3  and  C_11
    5  A    between atoms: N_7  and  C_26
    6  A    between atoms: C_15  and  C_26
    7  A    between atoms: C_21  and  O_33
    8  A    between atoms: C_23  and  C_27
    9  A    between atoms: N_31  and  C_32
                            x       y       z     vdW  Elec       q    Type
                         _______ _______ _______ _____ _____    ______ ____

>  <TORSDO>
F 9

$$$$
=
 OpenBabel10222418223D

 34 37  0  0  1  0  0  0  0  0999 V2000
  187.5030  178.2220  140.5170 C   0  0  0  0  0  0  0  0  0  0  0  0
  189.2450  177.5930  138.8350 C   0  0  0  0  0  3  0  0  0  0  0  0
  185.2750  178.9700  140.4550 C   0  0  0  0  0  0  0  0  0  0  0  0
  189.4680  177.5800  141.0930 C   0  0  0  0  0  0  0  0  0  0  0  0
  190.9940  177.0540  140.6440 S   0  0  0  0  0  0  0  0  0  0  0  0
  185.2560  179.0150  141.8850 C   0  0  0  0  0  0  0  0  0  0  0  0
  188.6870  177.8130  140.0450 N   0  0  0  0  0  0  0  0  0  0  0  0
  190.5710  177.1630  138.9860 C   0  0  0  0  0  0  0  0  0  0  0  0
  186.4120  178.6460  142.6110 C   0  0  0  0  0  3  0  0  0  0  0  0
  187.5300  178.2490  141.8920 C   0  0  0  0  0  0  0  0  0  0  0  0
  188.8050  177.8310  142.2830 C   0  0  0  0  0  0  0  0  0  0  0  0
  186.4100  178.5700  139.7990 N   0  0  0  0  0  0  0  0  0  0  0  0
  184.0980  179.3430  139.6400 C   0  0  0  0  0  0  0  0  0  0  0  0
  182.9790  178.4650  139.5700 N   0  0  0  0  0  1  0  0  0  0  0  0
  184.0630  180.4280  139.0010 O   0  0  0  0  0  0  0  0  0  0  0  0
  183.6000  178.7510  143.7110 C   0  0  0  0  0  1  0  0  0  0  0  0
  184.0990  179.4230  142.5630 O   0  0  0  0  0  0  0  0  0  0  0  0
  191.4670  176.7830  137.8630 C   0  0  0  0  0  2  0  0  0  0  0  0
  192.8170  176.5790  138.3640 N   0  0  0  0  0  2  0  0  0  0  0  0
  193.0870  174.4070  137.2280 C   0  0  0  0  0  3  0  0  0  0  0  0
  193.5970  175.4220  138.0510 C   0  0  0  0  0  0  0  0  0  0  0  0
  194.8530  175.3070  138.5620 N   0  0  0  0  0  0  0  0  0  0  0  0
  195.1630  173.1980  137.4800 C   0  0  0  0  0  3  0  0  0  0  0  0
  195.6380  174.2270  138.2960 C   0  0  0  0  0  3  0  0  0  0  0  0
  193.8780  173.2930  136.9450 C   0  0  0  0  0  3  0  0  0  0  0  0
  189.3410  177.6940  143.6000 N   0  0  0  0  0  2  0  0  0  0  0  0
  188.8440  176.7160  144.5550 C   0  0  0  0  0  2  0  0  0  0  0  0
  188.1580  177.4190  145.7150 C   0  0  0  0  0  2  0  0  0  0  0  0
  188.4090  178.1890  148.0520 C   0  0  0  0  0  1  0  0  0  0  0  0
  189.1600  177.8020  146.7930 C   0  0  1  0  0  3  0  0  0  0  0  0
  191.8830  177.5670  145.9470 O   0  0  0  0  0  0  0  0  0  0  0  0
  190.0400  176.6770  147.0750 N   0  0  0  0  0  2  0  0  0  0  0  0
  192.2340  175.4450  146.9570 C   0  0  0  0  0  1  0  0  0  0  0  0
  191.3950  176.6250  146.6260 C   0  0  0  0  0  0  0  0  0  0  0  0
  1 10  1  0  0  0  0
  2  8  2  0  0  0  0
  2  7  1  0  0  0  0
  3  6  2  0  0  0  0
  4 11  2  0  0  0  0
  5  4  1  0  0  0  0
  6 17  1  0  0  0  0
  6  9  1  0  0  0  0
  7  1  1  0  0  0  0
  7  4  1  0  0  0  0
  8  5  1  0  0  0  0
 10 11  1  0  0  0  0
 10  9  2  0  0  0  0
 11 26  1  0  0  0  0
 12  3  1  0  0  0  0
 12  1  2  0  0  0  0
 13  3  1  0  0  0  0
 14 13  1  0  0  0  0
 15 13  2  0  0  0  0
 17 16  1  0  0  0  0
 18 19  1  0  0  0  0
 18  8  1  0  0  0  0
 20 21  1  0  0  0  0
 21 19  1  0  0  0  0
 21 22  2  0  0  0  0
 23 24  2  0  0  0  0
 24 22  1  0  0  0  0
 25 20  2  0  0  0  0
 25 23  1  0  0  0  0
 26 27  1  0  0  0  0
 27 28  1  0  0  0  0
 28 30  1  0  0  0  0
 30 32  1  0  0  0  0
 30 29  1  1  0  0  0
 31 34  2  0  0  0  0
 34 33  1  0  0  0  0
 34 32  1  0  0  0  0
M  END
>  <MODEL>
2

>  <REMARK>
 VINA RESULT:      -8.5      2.572      6.565
  Name = 
  9 active torsions:
  status: ('A' for Active; 'I' for Inactive)
    1  A    between atoms: N_1  and  C_23
    2  A    between atoms: C_2  and  C_15
    3  A    between atoms: C_2  and  N_31
    4  A    between atoms: C_3  and  C_11
    5  A    between atoms: N_7  and  C_26
    6  A    between atoms: C_15  and  C_26
    7  A    between atoms: C_21  and  O_33
    8  A    between atoms: C_23  and  C_27
    9  A    between atoms: N_31  and  C_32
                            x       y       z     vdW  Elec       q    Type
                         _______ _______ _______ _____ _____    ______ ____

>  <TORSDO>
F 9

$$$$
=
 OpenBabel10222418223D

 34 37  0  0  1  0  0  0  0  0999 V2000
  189.6940  177.1070  144.1300 C   0  0  0  0  0  0  0  0  0  0  0  0
  190.8500  177.0150  141.9140 C   0  0  0  0  0  3  0  0  0  0  0  0
  190.3200  176.8580  146.3830 C   0  0  0  0  0  0  0  0  0  0  0  0
  188.6460  177.4100  142.2830 C   0  0  0  0  0  0  0  0  0  0  0  0
  188.6850  177.5000  140.6100 S   0  0  0  0  0  0  0  0  0  0  0  0
  188.9640  177.0920  146.7800 C   0  0  0  0  0  0  0  0  0  0  0  0
  189.8410  177.1550  142.8010 N   0  0  0  0  0  0  0  0  0  0  0  0
  190.3680  177.1700  140.6070 C   0  0  0  0  0  0  0  0  0  0  0  0
  187.9810  177.3350  145.7940 C   0  0  0  0  0  3  0  0  0  0  0  0
  188.3800  177.3380  144.4660 C   0  0  0  0  0  0  0  0  0  0  0  0
  187.6840  177.5390  143.2700 C   0  0  0  0  0  0  0  0  0  0  0  0
  190.6540  176.8730  145.0540 N   0  0  0  0  0  0  0  0  0  0  0  0
  191.3940  176.5990  147.3660 C   0  0  0  0  0  0  0  0  0  0  0  0
  192.0610  175.3400  147.3710 N   0  0  0  0  0  1  0  0  0  0  0  0
  191.7360  177.4730  148.2060 O   0  0  0  0  0  0  0  0  0  0  0  0
  188.2500  178.2520  148.8510 C   0  0  0  0  0  1  0  0  0  0  0  0
  188.6140  177.0790  148.1360 O   0  0  0  0  0  0  0  0  0  0  0  0
  191.2130  177.1280  139.3850 C   0  0  0  0  0  2  0  0  0  0  0  0
  190.9990  175.8720  138.6850 N   0  0  0  0  0  2  0  0  0  0  0  0
  193.1790  175.9500  137.5370 C   0  0  0  0  0  3  0  0  0  0  0  0
  191.9590  175.3070  137.7890 C   0  0  0  0  0  0  0  0  0  0  0  0
  191.6800  174.1260  137.1720 N   0  0  0  0  0  0  0  0  0  0  0  0
  193.7830  174.1560  136.0360 C   0  0  0  0  0  3  0  0  0  0  0  0
  192.5580  173.5440  136.3100 C   0  0  0  0  0  3  0  0  0  0  0  0
  194.0910  175.3670  136.6560 C   0  0  0  0  0  3  0  0  0  0  0  0
  186.2950  177.8060  143.0730 N   0  0  0  0  0  2  0  0  0  0  0  0
  185.7990  179.0850  142.5910 C   0  0  0  0  0  2  0  0  0  0  0  0
  184.9280  179.7420  143.6500 C   0  0  0  0  0  2  0  0  0  0  0  0
  184.5820  178.6440  145.8390 C   0  0  0  0  0  1  0  0  0  0  0  0
  184.1050  178.7080  144.4010 C   0  0  1  0  0  3  0  0  0  0  0  0
  182.4160  178.6260  142.0930 O   0  0  0  0  0  0  0  0  0  0  0  0
  182.6960  179.0760  144.3690 N   0  0  0  0  0  2  0  0  0  0  0  0
  180.4740  179.3940  143.2260 C   0  0  0  0  0  1  0  0  0  0  0  0
  181.9080  179.0070  143.1800 C   0  0  0  0  0  0  0  0  0  0  0  0
  1 10  2  0  0  0  0
  1 12  1  0  0  0  0
  2  7  1  0  0  0  0
  3  6  1  0  0  0  0
  3 13  1  0  0  0  0
  4  7  1  0  0  0  0
  4 11  2  0  0  0  0
  5  4  1  0  0  0  0
  6 17  1  0  0  0  0
  7  1  1  0  0  0  0
  8  5  1  0  0  0  0
  8  2  2  0  0  0  0
  9  6  2  0  0  0  0
 10  9  1  0  0  0  0
 11 10  1  0  0  0  0
 12  3  2  0  0  0  0
 13 14  1  0  0  0  0
 13 15  2  0  0  0  0
 17 16  1  0  0  0  0
 18  8  1  0  0  0  0
 19 18  1  0  0  0  0
 20 21  1  0  0  0  0
 21 19  1  0  0  0  0
 22 21  2  0  0  0  0
 23 24  2  0  0  0  0
 23 25  1  0  0  0  0
 24 22  1  0  0  0  0
 25 20  2  0  0  0  0
 26 11  1  0  0  0  0
 27 26  1  0  0  0  0
 27 28  1  0  0  0  0
 28 30  1  0  0  0  0
 30 29  1  1  0  0  0
 31 34  2  0  0  0  0
 32 30  1  0  0  0  0
 34 33  1  0  0  0  0
 34 32  1  0  0  0  0
M  END
>  <MODEL>
3

>  <REMARK>
 VINA RESULT:      -8.4      1.274      1.619
  Name = 
  9 active torsions:
  status: ('A' for Active; 'I' for Inactive)
    1  A    between atoms: N_1  and  C_23
    2  A    between atoms: C_2  and  C_15
    3  A    between atoms: C_2  and  N_31
    4  A    between atoms: C_3  and  C_11
    5  A    between atoms: N_7  and  C_26
    6  A    between atoms: C_15  and  C_26
    7  A    between atoms: C_21  and  O_33
    8  A    between atoms: C_23  and  C_27
    9  A    between atoms: N_31  and  C_32
                            x       y       z     vdW  Elec       q    Type
                         _______ _______ _______ _____ _____    ______ ____

>  <TORSDO>
F 9

$$$$
=
 OpenBabel10222418223D

 34 37  0  0  1  0  0  0  0  0999 V2000
  188.2870  177.7870  141.0430 C   0  0  0  0  0  0  0  0  0  0  0  0
  186.1320  178.4260  142.1420 C   0  0  0  0  0  3  0  0  0  0  0  0
  189.2230  177.9880  138.8960 C   0  0  0  0  0  0  0  0  0  0  0  0
  187.8910  177.3660  143.1100 C   0  0  0  0  0  0  0  0  0  0  0  0
  186.8460  177.4550  144.4160 S   0  0  0  0  0  0  0  0  0  0  0  0
  190.4080  177.3300  139.3560 C   0  0  0  0  0  0  0  0  0  0  0  0
  187.3750  177.9110  142.0140 N   0  0  0  0  0  0  0  0  0  0  0  0
  185.6670  178.2430  143.4510 C   0  0  0  0  0  0  0  0  0  0  0  0
  190.4930  176.9060  140.7020 C   0  0  0  0  0  3  0  0  0  0  0  0
  189.4070  177.1510  141.5290 C   0  0  0  0  0  0  0  0  0  0  0  0
  189.1640  176.8720  142.8770 C   0  0  0  0  0  0  0  0  0  0  0  0
  188.1820  178.2030  139.7600 N   0  0  0  0  0  0  0  0  0  0  0  0
  189.0740  178.4560  137.5000 C   0  0  0  0  0  0  0  0  0  0  0  0
  188.9680  177.5080  136.4430 N   0  0  0  0  0  1  0  0  0  0  0  0
  189.0390  179.6840  137.2230 O   0  0  0  0  0  0  0  0  0  0  0  0
  191.8620  175.8090  138.0450 C   0  0  0  0  0  1  0  0  0  0  0  0
  191.4770  177.1070  138.4780 O   0  0  0  0  0  0  0  0  0  0  0  0
  184.3580  178.7310  143.9570 C   0  0  0  0  0  2  0  0  0  0  0  0
  183.4780  179.0220  142.8370 N   0  0  0  0  0  2  0  0  0  0  0  0
  181.4210  178.6240  144.1350 C   0  0  0  0  0  3  0  0  0  0  0  0
  182.0530  178.9670  142.9310 C   0  0  0  0  0  0  0  0  0  0  0  0
  181.3010  179.2520  141.8340 N   0  0  0  0  0  0  0  0  0  0  0  0
  179.2780  178.8780  143.0500 C   0  0  0  0  0  3  0  0  0  0  0  0
  179.9400  179.2150  141.8680 C   0  0  0  0  0  3  0  0  0  0  0  0
  180.0270  178.5810  144.1890 C   0  0  0  0  0  3  0  0  0  0  0  0
  190.0070  176.2170  143.8260 N   0  0  0  0  0  2  0  0  0  0  0  0
  191.4000  176.5820  144.0250 C   0  0  0  0  0  2  0  0  0  0  0  0
  191.5580  177.3610  145.3210 C   0  0  0  0  0  2  0  0  0  0  0  0
  191.7560  176.1180  147.4510 C   0  0  0  0  0  1  0  0  0  0  0  0
  190.7790  176.7060  146.4510 C   0  0  1  0  0  3  0  0  0  0  0  0
  188.3210  176.1600  147.8090 O   0  0  0  0  0  0  0  0  0  0  0  0
  189.9390  177.6950  147.1120 N   0  0  0  0  0  2  0  0  0  0  0  0
  187.9210  178.4170  148.4350 C   0  0  0  0  0  1  0  0  0  0  0  0
  188.7230  177.3530  147.7780 C   0  0  0  0  0  0  0  0  0  0  0  0
  1 10  1  0  0  0  0
  1  7  1  0  0  0  0
  2  8  2  0  0  0  0
  3  6  2  0  0  0  0
  3 12  1  0  0  0  0
  4  5  1  0  0  0  0
  6  9  1  0  0  0  0
  7  2  1  0  0  0  0
  7  4  1  0  0  0  0
  8 18  1  0  0  0  0
  8  5  1  0  0  0  0
  9 10  2  0  0  0  0
 10 11  1  0  0  0  0
 11  4  2  0  0  0  0
 11 26  1  0  0  0  0
 12  1  2  0  0  0  0
 13  3  1  0  0  0  0
 14 13  1  0  0  0  0
 15 13  2  0  0  0  0
 16 17  1  0  0  0  0
 17  6  1  0  0  0  0
 19 21  1  0  0  0  0
 19 18  1  0  0  0  0
 20 25  2  0  0  0  0
 21 20  1  0  0  0  0
 22 24  1  0  0  0  0
 22 21  2  0  0  0  0
 23 25  1  0  0  0  0
 24 23  2  0  0  0  0
 26 27  1  0  0  0  0
 27 28  1  0  0  0  0
 28 30  1  0  0  0  0
 30 32  1  0  0  0  0
 30 29  1  1  0  0  0
 32 34  1  0  0  0  0
 34 31  2  0  0  0  0
 34 33  1  0  0  0  0
M  END
>  <MODEL>
4

>  <REMARK>
 VINA RESULT:      -8.4      2.774      8.361
  Name = 
  9 active torsions:
  status: ('A' for Active; 'I' for Inactive)
    1  A    between atoms: N_1  and  C_23
    2  A    between atoms: C_2  and  C_15
    3  A    between atoms: C_2  and  N_31
    4  A    between atoms: C_3  and  C_11
    5  A    between atoms: N_7  and  C_26
    6  A    between atoms: C_15  and  C_26
    7  A    between atoms: C_21  and  O_33
    8  A    between atoms: C_23  and  C_27
    9  A    between atoms: N_31  and  C_32
                            x       y       z     vdW  Elec       q    Type
                         _______ _______ _______ _____ _____    ______ ____

>  <TORSDO>
F 9

$$$$
=
 OpenBabel10222418223D

 34 37  0  0  1  0  0  0  0  0999 V2000
  185.9000  178.5690  141.1950 C   0  0  0  0  0  0  0  0  0  0  0  0
  188.2400  178.2620  140.3660 C   0  0  0  0  0  3  0  0  0  0  0  0
  183.8520  179.2730  140.2780 C   0  0  0  0  0  0  0  0  0  0  0  0
  187.4810  177.8770  142.4700 C   0  0  0  0  0  0  0  0  0  0  0  0
  189.0940  177.4630  142.6580 S   0  0  0  0  0  0  0  0  0  0  0  0
  183.2230  179.0790  141.5490 C   0  0  0  0  0  0  0  0  0  0  0  0
  187.2030  178.2670  141.2310 N   0  0  0  0  0  0  0  0  0  0  0  0
  189.4080  177.8390  141.0150 C   0  0  0  0  0  0  0  0  0  0  0  0
  183.9880  178.6160  142.6430 C   0  0  0  0  0  3  0  0  0  0  0  0
  185.3360  178.3670  142.4340 C   0  0  0  0  0  0  0  0  0  0  0  0
  186.3560  177.9130  143.2760 C   0  0  0  0  0  0  0  0  0  0  0  0
  185.1890  179.0100  140.1310 N   0  0  0  0  0  0  0  0  0  0  0  0
  183.1060  179.7540  139.0950 C   0  0  0  0  0  0  0  0  0  0  0  0
  182.5060  178.8150  138.2070 N   0  0  0  0  0  1  0  0  0  0  0  0
  182.9860  180.9840  138.8530 O   0  0  0  0  0  0  0  0  0  0  0  0
  180.8630  178.3300  141.6810 C   0  0  0  0  0  1  0  0  0  0  0  0
  181.8560  179.3460  141.7070 O   0  0  0  0  0  0  0  0  0  0  0  0
  190.7270  177.6680  140.3520 C   0  0  0  0  0  2  0  0  0  0  0  0
  190.8240  176.3280  139.7950 N   0  0  0  0  0  2  0  0  0  0  0  0
  190.1840  177.0470  137.5260 C   0  0  0  0  0  3  0  0  0  0  0  0
  190.5580  176.0350  138.4210 C   0  0  0  0  0  0  0  0  0  0  0  0
  190.6710  174.7530  137.9800 N   0  0  0  0  0  0  0  0  0  0  0  0
  190.0550  175.4010  135.7630 C   0  0  0  0  0  3  0  0  0  0  0  0
  190.4300  174.4180  136.6820 C   0  0  0  0  0  3  0  0  0  0  0  0
  189.9330  176.7220  136.1920 C   0  0  0  0  0  3  0  0  0  0  0  0
  186.2910  177.5690  144.6610 N   0  0  0  0  0  2  0  0  0  0  0  0
  187.1520  178.1750  145.6640 C   0  0  0  0  0  2  0  0  0  0  0  0
  188.0310  177.1150  146.3090 C   0  0  0  0  0  2  0  0  0  0  0  0
  188.4210  178.2700  148.4620 C   0  0  0  0  0  1  0  0  0  0  0  0
  189.0860  177.7490  147.2020 C   0  0  1  0  0  3  0  0  0  0  0  0
  191.6070  177.4070  145.8940 O   0  0  0  0  0  0  0  0  0  0  0  0
  190.0960  176.7610  147.5550 N   0  0  0  0  0  2  0  0  0  0  0  0
  192.3230  175.6170  147.2830 C   0  0  0  0  0  1  0  0  0  0  0  0
  191.3390  176.6470  146.8620 C   0  0  0  0  0  0  0  0  0  0  0  0
  1  7  1  0  0  0  0
  1 10  1  0  0  0  0
  2  8  2  0  0  0  0
  2  7  1  0  0  0  0
  3  6  2  0  0  0  0
  4  5  1  0  0  0  0
  4 11  2  0  0  0  0
  6 17  1  0  0  0  0
  6  9  1  0  0  0  0
  7  4  1  0  0  0  0
  8  5  1  0  0  0  0
 10  9  2  0  0  0  0
 10 11  1  0  0  0  0
 11 26  1  0  0  0  0
 12  3  1  0  0  0  0
 12  1  2  0  0  0  0
 13  3  1  0  0  0  0
 14 13  1  0  0  0  0
 15 13  2  0  0  0  0
 16 17  1  0  0  0  0
 18  8  1  0  0  0  0
 19 18  1  0  0  0  0
 20 21  1  0  0  0  0
 21 19  1  0  0  0  0
 22 21  2  0  0  0  0
 23 25  1  0  0  0  0
 23 24  2  0  0  0  0
 24 22  1  0  0  0  0
 25 20  2  0  0  0  0
 26 27  1  0  0  0  0
 27 28  1  0  0  0  0
 28 30  1  0  0  0  0
 30 32  1  0  0  0  0
 30 29  1  1  0  0  0
 31 34  2  0  0  0  0
 34 33  1  0  0  0  0
 34 32  1  0  0  0  0
M  END
>  <MODEL>
5

>  <REMARK>
 VINA RESULT:      -8.2      2.132      6.759
  Name = 
  9 active torsions:
  status: ('A' for Active; 'I' for Inactive)
    1  A    between atoms: N_1  and  C_23
    2  A    between atoms: C_2  and  C_15
    3  A    between atoms: C_2  and  N_31
    4  A    between atoms: C_3  and  C_11
    5  A    between atoms: N_7  and  C_26
    6  A    between atoms: C_15  and  C_26
    7  A    between atoms: C_21  and  O_33
    8  A    between atoms: C_23  and  C_27
    9  A    between atoms: N_31  and  C_32
                            x       y       z     vdW  Elec       q    Type
                         _______ _______ _______ _____ _____    ______ ____

>  <TORSDO>
F 9

$$$$
=
 OpenBabel10222418223D

 34 37  0  0  1  0  0  0  0  0999 V2000
  188.2310  178.0510  139.9170 C   0  0  0  0  0  0  0  0  0  0  0  0
  189.9760  177.2620  138.3070 C   0  0  0  0  0  3  0  0  0  0  0  0
  185.9710  178.6880  139.7920 C   0  0  0  0  0  0  0  0  0  0  0  0
  190.2290  177.5800  140.5410 C   0  0  0  0  0  0  0  0  0  0  0  0
  191.7710  177.0600  140.1410 S   0  0  0  0  0  0  0  0  0  0  0  0
  185.9690  178.9360  141.2020 C   0  0  0  0  0  0  0  0  0  0  0  0
  189.4250  177.6290  139.4850 N   0  0  0  0  0  0  0  0  0  0  0  0
  191.3210  176.9150  138.4920 C   0  0  0  0  0  0  0  0  0  0  0  0
  187.1490  178.7230  141.9500 C   0  0  0  0  0  3  0  0  0  0  0  0
  188.2740  178.2750  141.2740 C   0  0  0  0  0  0  0  0  0  0  0  0
  189.5720  177.9700  141.6950 C   0  0  0  0  0  0  0  0  0  0  0  0
  187.1130  178.2470  139.1790 N   0  0  0  0  0  0  0  0  0  0  0  0
  184.7680  178.8920  138.9560 C   0  0  0  0  0  0  0  0  0  0  0  0
  184.1730  180.1830  138.8740 N   0  0  0  0  0  1  0  0  0  0  0  0
  184.2540  177.9420  138.3090 O   0  0  0  0  0  0  0  0  0  0  0  0
  184.3000  178.8040  143.0310 C   0  0  0  0  0  1  0  0  0  0  0  0
  184.8040  179.3870  141.8380 O   0  0  0  0  0  0  0  0  0  0  0  0
  192.2190  176.4160  137.4180 C   0  0  0  0  0  2  0  0  0  0  0  0
  193.5660  176.2580  137.9410 N   0  0  0  0  0  2  0  0  0  0  0  0
  193.7060  173.8770  137.3180 C   0  0  0  0  0  3  0  0  0  0  0  0
  194.2820  175.0210  137.8890 C   0  0  0  0  0  0  0  0  0  0  0  0
  195.5400  174.9570  138.4030 N   0  0  0  0  0  0  0  0  0  0  0  0
  195.7240  172.6470  137.8190 C   0  0  0  0  0  3  0  0  0  0  0  0
  196.2650  173.8050  138.3800 C   0  0  0  0  0  3  0  0  0  0  0  0
  194.4350  172.6880  137.2850 C   0  0  0  0  0  3  0  0  0  0  0  0
  190.1310  178.0450  143.0070 N   0  0  0  0  0  2  0  0  0  0  0  0
  189.6840  177.1990  144.1030 C   0  0  0  0  0  2  0  0  0  0  0  0
  189.5630  178.0150  145.3800 C   0  0  0  0  0  2  0  0  0  0  0  0
  189.8300  177.0900  147.6580 C   0  0  0  0  0  1  0  0  0  0  0  0
  188.8840  177.2140  146.4790 C   0  0  1  0  0  3  0  0  0  0  0  0
  186.3580  177.0640  145.1450 O   0  0  0  0  0  0  0  0  0  0  0  0
  187.6620  177.8850  146.9010 N   0  0  0  0  0  2  0  0  0  0  0  0
  185.2230  178.4750  146.6840 C   0  0  0  0  0  1  0  0  0  0  0  0
  186.4300  177.7640  146.1900 C   0  0  0  0  0  0  0  0  0  0  0  0
  1 10  1  0  0  0  0
  2  8  2  0  0  0  0
  2  7  1  0  0  0  0
  3  6  2  0  0  0  0
  4 11  2  0  0  0  0
  5  4  1  0  0  0  0
  6 17  1  0  0  0  0
  6  9  1  0  0  0  0
  7  1  1  0  0  0  0
  7  4  1  0  0  0  0
  8  5  1  0  0  0  0
 10 11  1  0  0  0  0
 10  9  2  0  0  0  0
 11 26  1  0  0  0  0
 12  3  1  0  0  0  0
 12  1  2  0  0  0  0
 13  3  1  0  0  0  0
 14 13  1  0  0  0  0
 15 13  2  0  0  0  0
 17 16  1  0  0  0  0
 18 19  1  0  0  0  0
 18  8  1  0  0  0  0
 20 21  1  0  0  0  0
 21 19  1  0  0  0  0
 21 22  2  0  0  0  0
 23 24  2  0  0  0  0
 24 22  1  0  0  0  0
 25 20  2  0  0  0  0
 25 23  1  0  0  0  0
 26 27  1  0  0  0  0
 27 28  1  0  0  0  0
 28 30  1  0  0  0  0
 30 32  1  0  0  0  0
 30 29  1  1  0  0  0
 31 34  2  0  0  0  0
 34 33  1  0  0  0  0
 34 32  1  0  0  0  0
M  END
>  <MODEL>
6

>  <REMARK>
 VINA RESULT:      -8.2      3.068      6.067
  Name = 
  9 active torsions:
  status: ('A' for Active; 'I' for Inactive)
    1  A    between atoms: N_1  and  C_23
    2  A    between atoms: C_2  and  C_15
    3  A    between atoms: C_2  and  N_31
    4  A    between atoms: C_3  and  C_11
    5  A    between atoms: N_7  and  C_26
    6  A    between atoms: C_15  and  C_26
    7  A    between atoms: C_21  and  O_33
    8  A    between atoms: C_23  and  C_27
    9  A    between atoms: N_31  and  C_32
                            x       y       z     vdW  Elec       q    Type
                         _______ _______ _______ _____ _____    ______ ____

>  <TORSDO>
F 9

$$$$
=
 OpenBabel10222418223D

 34 37  0  0  1  0  0  0  0  0999 V2000
  189.8370  176.9990  144.0370 C   0  0  0  0  0  0  0  0  0  0  0  0
  190.9550  176.8990  141.8010 C   0  0  0  0  0  3  0  0  0  0  0  0
  190.5170  176.8480  146.2830 C   0  0  0  0  0  0  0  0  0  0  0  0
  188.7410  177.1950  142.2030 C   0  0  0  0  0  0  0  0  0  0  0  0
  188.7450  177.2370  140.5280 S   0  0  0  0  0  0  0  0  0  0  0  0
  189.1590  177.0250  146.7000 C   0  0  0  0  0  0  0  0  0  0  0  0
  189.9570  177.0140  142.7050 N   0  0  0  0  0  0  0  0  0  0  0  0
  190.4410  176.9910  140.5010 C   0  0  0  0  0  0  0  0  0  0  0  0
  188.1460  177.1900  145.7280 C   0  0  0  0  0  3  0  0  0  0  0  0
  188.5190  177.1730  144.3920 C   0  0  0  0  0  0  0  0  0  0  0  0
  187.7920  177.3050  143.2060 C   0  0  0  0  0  0  0  0  0  0  0  0
  190.8250  176.8390  144.9480 N   0  0  0  0  0  0  0  0  0  0  0  0
  191.6210  176.6710  147.2520 C   0  0  0  0  0  0  0  0  0  0  0  0
  192.4530  175.5180  147.1740 N   0  0  0  0  0  1  0  0  0  0  0  0
  191.8430  177.5240  148.1510 O   0  0  0  0  0  0  0  0  0  0  0  0
  188.1710  178.1230  148.6920 C   0  0  0  0  0  1  0  0  0  0  0  0
  188.8350  177.0350  148.0640 O   0  0  0  0  0  0  0  0  0  0  0  0
  191.2650  176.9550  139.2640 C   0  0  0  0  0  2  0  0  0  0  0  0
  190.9560  175.7530  138.5060 N   0  0  0  0  0  2  0  0  0  0  0  0
  193.2700  175.4650  137.7050 C   0  0  0  0  0  3  0  0  0  0  0  0
  191.9350  175.0360  137.7510 C   0  0  0  0  0  0  0  0  0  0  0  0
  191.5630  173.9200  137.0670 N   0  0  0  0  0  0  0  0  0  0  0  0
  193.7910  173.5970  136.2660 C   0  0  0  0  0  3  0  0  0  0  0  0
  192.4550  173.1990  136.3330 C   0  0  0  0  0  3  0  0  0  0  0  0
  194.1970  174.7380  136.9580 C   0  0  0  0  0  3  0  0  0  0  0  0
  186.3880  177.4960  143.0290 N   0  0  0  0  0  2  0  0  0  0  0  0
  185.8220  178.7270  142.5000 C   0  0  0  0  0  2  0  0  0  0  0  0
  184.3140  178.5920  142.3590 C   0  0  0  0  0  2  0  0  0  0  0  0
  182.1070  179.2740  143.2430 C   0  0  0  0  0  1  0  0  0  0  0  0
  183.5950  179.2340  143.5340 C   0  0  1  0  0  3  0  0  0  0  0  0
  185.3270  179.9980  145.6790 O   0  0  0  0  0  0  0  0  0  0  0  0
  183.8350  178.4620  144.7450 N   0  0  0  0  0  2  0  0  0  0  0  0
  184.9020  178.0640  146.9920 C   0  0  0  0  0  1  0  0  0  0  0  0
  184.7110  178.9050  145.7820 C   0  0  0  0  0  0  0  0  0  0  0  0
  1 10  2  0  0  0  0
  1 12  1  0  0  0  0
  2  7  1  0  0  0  0
  3  6  1  0  0  0  0
  3 13  1  0  0  0  0
  4  7  1  0  0  0  0
  4 11  2  0  0  0  0
  5  4  1  0  0  0  0
  6 17  1  0  0  0  0
  7  1  1  0  0  0  0
  8  5  1  0  0  0  0
  8  2  2  0  0  0  0
  9  6  2  0  0  0  0
 10  9  1  0  0  0  0
 11 10  1  0  0  0  0
 12  3  2  0  0  0  0
 13 15  2  0  0  0  0
 14 13  1  0  0  0  0
 17 16  1  0  0  0  0
 18  8  1  0  0  0  0
 19 18  1  0  0  0  0
 20 21  1  0  0  0  0
 21 19  1  0  0  0  0
 22 21  2  0  0  0  0
 23 24  2  0  0  0  0
 23 25  1  0  0  0  0
 24 22  1  0  0  0  0
 25 20  2  0  0  0  0
 26 11  1  0  0  0  0
 27 26  1  0  0  0  0
 28 27  1  0  0  0  0
 28 30  1  0  0  0  0
 30 29  1  6  0  0  0
 30 32  1  0  0  0  0
 31 34  2  0  0  0  0
 32 34  1  0  0  0  0
 34 33  1  0  0  0  0
M  END
>  <MODEL>
7

>  <REMARK>
 VINA RESULT:      -8.1      1.609      2.349
  Name = 
  9 active torsions:
  status: ('A' for Active; 'I' for Inactive)
    1  A    between atoms: N_1  and  C_23
    2  A    between atoms: C_2  and  C_15
    3  A    between atoms: C_2  and  N_31
    4  A    between atoms: C_3  and  C_11
    5  A    between atoms: N_7  and  C_26
    6  A    between atoms: C_15  and  C_26
    7  A    between atoms: C_21  and  O_33
    8  A    between atoms: C_23  and  C_27
    9  A    between atoms: N_31  and  C_32
                            x       y       z     vdW  Elec       q    Type
                         _______ _______ _______ _____ _____    ______ ____

>  <TORSDO>
F 9

$$$$
=
 OpenBabel10222418223D

 34 37  0  0  1  0  0  0  0  0999 V2000
  189.8270  177.1100  143.8520 C   0  0  0  0  0  0  0  0  0  0  0  0
  190.8730  176.9160  141.5870 C   0  0  0  0  0  3  0  0  0  0  0  0
  190.5210  176.7900  146.0750 C   0  0  0  0  0  0  0  0  0  0  0  0
  188.7350  177.5220  142.0510 C   0  0  0  0  0  0  0  0  0  0  0  0
  188.7120  177.6160  140.3780 S   0  0  0  0  0  0  0  0  0  0  0  0
  189.2130  177.1530  146.5300 C   0  0  0  0  0  0  0  0  0  0  0  0
  189.9210  177.1490  142.5170 N   0  0  0  0  0  0  0  0  0  0  0  0
  190.3530  177.1240  140.3030 C   0  0  0  0  0  0  0  0  0  0  0  0
  188.2160  177.4950  145.5880 C   0  0  0  0  0  3  0  0  0  0  0  0
  188.5560  177.4650  144.2430 C   0  0  0  0  0  0  0  0  0  0  0  0
  187.8330  177.7390  143.0790 C   0  0  0  0  0  0  0  0  0  0  0  0
  190.7980  176.7780  144.7340 N   0  0  0  0  0  0  0  0  0  0  0  0
  191.6050  176.4230  147.0120 C   0  0  0  0  0  0  0  0  0  0  0  0
  192.3800  175.2520  146.7730 N   0  0  0  0  0  1  0  0  0  0  0  0
  191.8620  177.1280  148.0230 O   0  0  0  0  0  0  0  0  0  0  0  0
  188.2620  178.2530  148.5380 C   0  0  0  0  0  1  0  0  0  0  0  0
  188.9210  177.1670  147.9000 O   0  0  0  0  0  0  0  0  0  0  0  0
  191.1370  177.0060  139.0460 C   0  0  0  0  0  2  0  0  0  0  0  0
  191.1430  175.6210  138.6020 N   0  0  0  0  0  2  0  0  0  0  0  0
  189.3450  175.9690  136.9520 C   0  0  0  0  0  3  0  0  0  0  0  0
  190.2700  175.1250  137.5850 C   0  0  0  0  0  0  0  0  0  0  0  0
  190.3380  173.8140  137.2280 N   0  0  0  0  0  0  0  0  0  0  0  0
  188.5990  174.1010  135.6140 C   0  0  0  0  0  3  0  0  0  0  0  0
  189.5310  173.2900  136.2660 C   0  0  0  0  0  3  0  0  0  0  0  0
  188.5090  175.4490  135.9630 C   0  0  0  0  0  3  0  0  0  0  0  0
  186.4690  178.1410  142.9420 N   0  0  0  0  0  2  0  0  0  0  0  0
  185.9510  178.7690  141.7370 C   0  0  0  0  0  2  0  0  0  0  0  0
  184.5190  178.3220  141.4880 C   0  0  0  0  0  2  0  0  0  0  0  0
  183.0750  179.3800  139.7800 C   0  0  0  0  0  1  0  0  0  0  0  0
  184.1810  178.3670  140.0060 C   0  0  1  0  0  3  0  0  0  0  0  0
  184.9300  177.3010  137.4590 O   0  0  0  0  0  0  0  0  0  0  0  0
  185.3590  178.7510  139.2400 N   0  0  0  0  0  2  0  0  0  0  0  0
  186.8900  178.6270  137.2440 C   0  0  0  0  0  1  0  0  0  0  0  0
  185.6720  178.1810  137.9690 C   0  0  0  0  0  0  0  0  0  0  0  0
  1 10  2  0  0  0  0
  1 12  1  0  0  0  0
  2  7  1  0  0  0  0
  3  6  1  0  0  0  0
  3 13  1  0  0  0  0
  4  7  1  0  0  0  0
  4 11  2  0  0  0  0
  5  4  1  0  0  0  0
  6 17  1  0  0  0  0
  7  1  1  0  0  0  0
  8  5  1  0  0  0  0
  8  2  2  0  0  0  0
  9  6  2  0  0  0  0
 10  9  1  0  0  0  0
 11 10  1  0  0  0  0
 12  3  2  0  0  0  0
 13 15  2  0  0  0  0
 14 13  1  0  0  0  0
 17 16  1  0  0  0  0
 18  8  1  0  0  0  0
 19 18  1  0  0  0  0
 20 21  1  0  0  0  0
 21 19  1  0  0  0  0
 22 21  2  0  0  0  0
 23 25  1  0  0  0  0
 23 24  2  0  0  0  0
 24 22  1  0  0  0  0
 25 20  2  0  0  0  0
 26 11  1  0  0  0  0
 27 26  1  0  0  0  0
 28 27  1  0  0  0  0
 30 29  1  1  0  0  0
 30 28  1  0  0  0  0
 31 34  2  0  0  0  0
 32 30  1  0  0  0  0
 33 34  1  0  0  0  0
 34 32  1  0  0  0  0
M  END
>  <MODEL>
8

>  <REMARK>
 VINA RESULT:      -8.1      1.767      2.691
  Name = 
  9 active torsions:
  status: ('A' for Active; 'I' for Inactive)
    1  A    between atoms: N_1  and  C_23
    2  A    between atoms: C_2  and  C_15
    3  A    between atoms: C_2  and  N_31
    4  A    between atoms: C_3  and  C_11
    5  A    between atoms: N_7  and  C_26
    6  A    between atoms: C_15  and  C_26
    7  A    between atoms: C_21  and  O_33
    8  A    between atoms: C_23  and  C_27
    9  A    between atoms: N_31  and  C_32
                            x       y       z     vdW  Elec       q    Type
                         _______ _______ _______ _____ _____    ______ ____

>  <TORSDO>
F 9

$$$$
=
 OpenBabel10222418223D

 34 37  0  0  1  0  0  0  0  0999 V2000
  186.9690  178.0010  142.2990 C   0  0  0  0  0  0  0  0  0  0  0  0
  188.0090  178.0420  140.0240 C   0  0  0  0  0  3  0  0  0  0  0  0
  184.8660  178.5220  143.2130 C   0  0  0  0  0  0  0  0  0  0  0  0
  189.0040  177.4100  141.9640 C   0  0  0  0  0  0  0  0  0  0  0  0
  190.2730  177.1800  140.8940 S   0  0  0  0  0  0  0  0  0  0  0  0
  185.3470  178.1580  144.5120 C   0  0  0  0  0  0  0  0  0  0  0  0
  187.9100  177.8560  141.3590 N   0  0  0  0  0  0  0  0  0  0  0  0
  189.3000  177.7140  139.5870 C   0  0  0  0  0  0  0  0  0  0  0  0
  186.6790  177.7090  144.6620 C   0  0  0  0  0  3  0  0  0  0  0  0
  187.4730  177.6400  143.5270 C   0  0  0  0  0  0  0  0  0  0  0  0
  188.8000  177.2500  143.3240 C   0  0  0  0  0  0  0  0  0  0  0  0
  185.6980  178.4330  142.1280 N   0  0  0  0  0  0  0  0  0  0  0  0
  183.4830  178.9980  142.9910 C   0  0  0  0  0  0  0  0  0  0  0  0
  182.8560  178.7860  141.7300 N   0  0  0  0  0  1  0  0  0  0  0  0
  182.8420  179.5890  143.8990 O   0  0  0  0  0  0  0  0  0  0  0  0
  184.9880  178.2860  146.9610 C   0  0  0  0  0  1  0  0  0  0  0  0
  184.5030  178.2460  145.6270 O   0  0  0  0  0  0  0  0  0  0  0  0
  189.7460  177.7540  138.1700 C   0  0  0  0  0  2  0  0  0  0  0  0
  189.8660  176.3980  137.6570 N   0  0  0  0  0  2  0  0  0  0  0  0
  192.3240  176.3700  137.8410 C   0  0  0  0  0  3  0  0  0  0  0  0
  191.1220  175.7340  137.5000 C   0  0  0  0  0  0  0  0  0  0  0  0
  191.1480  174.4640  137.0110 N   0  0  0  0  0  0  0  0  0  0  0  0
  193.5310  174.3870  137.1720 C   0  0  0  0  0  3  0  0  0  0  0  0
  192.3150  173.7850  136.8410 C   0  0  0  0  0  3  0  0  0  0  0  0
  193.5300  175.6890  137.6740 C   0  0  0  0  0  3  0  0  0  0  0  0
  189.7590  176.7970  144.2800 N   0  0  0  0  0  2  0  0  0  0  0  0
  190.7810  177.6650  144.8430 C   0  0  0  0  0  2  0  0  0  0  0  0
  191.7640  176.8510  145.6690 C   0  0  0  0  0  2  0  0  0  0  0  0
  192.2180  175.8990  147.9070 C   0  0  0  0  0  1  0  0  0  0  0  0
  191.1280  176.3770  146.9660 C   0  0  1  0  0  3  0  0  0  0  0  0
  188.3260  176.3760  147.5450 O   0  0  0  0  0  0  0  0  0  0  0  0
  190.3910  177.4690  147.5860 N   0  0  0  0  0  2  0  0  0  0  0  0
  188.3070  178.5550  148.4930 C   0  0  0  0  0  1  0  0  0  0  0  0
  188.9900  177.4010  147.8520 C   0  0  0  0  0  0  0  0  0  0  0  0
  1 10  1  0  0  0  0
  2  7  1  0  0  0  0
  3  6  2  0  0  0  0
  4 11  2  0  0  0  0
  5  4  1  0  0  0  0
  6  9  1  0  0  0  0
  6 17  1  0  0  0  0
  7  4  1  0  0  0  0
  7  1  1  0  0  0  0
  8  2  2  0  0  0  0
  8  5  1  0  0  0  0
 10  9  2  0  0  0  0
 11 10  1  0  0  0  0
 11 26  1  0  0  0  0
 12  1  2  0  0  0  0
 12  3  1  0  0  0  0
 13  3  1  0  0  0  0
 13 15  2  0  0  0  0
 14 13  1  0  0  0  0
 17 16  1  0  0  0  0
 18  8  1  0  0  0  0
 19 18  1  0  0  0  0
 21 19  1  0  0  0  0
 21 20  1  0  0  0  0
 22 21  2  0  0  0  0
 23 25  1  0  0  0  0
 24 22  1  0  0  0  0
 24 23  2  0  0  0  0
 25 20  2  0  0  0  0
 26 27  1  0  0  0  0
 27 28  1  0  0  0  0
 28 30  1  0  0  0  0
 30 32  1  0  0  0  0
 30 29  1  1  0  0  0
 31 34  2  0  0  0  0
 32 34  1  0  0  0  0
 34 33  1  0  0  0  0
M  END
>  <MODEL>
9

>  <REMARK>
 VINA RESULT:      -8.0      1.854      5.727
  Name = 
  9 active torsions:
  status: ('A' for Active; 'I' for Inactive)
    1  A    between atoms: N_1  and  C_23
    2  A    between atoms: C_2  and  C_15
    3  A    between atoms: C_2  and  N_31
    4  A    between atoms: C_3  and  C_11
    5  A    between atoms: N_7  and  C_26
    6  A    between atoms: C_15  and  C_26
    7  A    between atoms: C_21  and  O_33
    8  A    between atoms: C_23  and  C_27
    9  A    between atoms: N_31  and  C_32
                            x       y       z     vdW  Elec       q    Type
                         _______ _______ _______ _____ _____    ______ ____

>  <TORSDO>
F 9

$$$$
