=
 OpenBabel10222417433D

 60 63  0  0  1  0  0  0  0  0999 V2000
  184.6970  177.3000  138.2590 N   0  0  0  0  0  2  0  0  0  0  0  0
  184.5840  176.7270  136.9380 C   0  0  0  0  0  0  0  0  0  0  0  0
  185.4190  176.9910  135.9730 N   0  0  0  0  0  0  0  0  0  0  0  0
  183.4880  175.8620  136.6480 N   0  0  0  0  0  2  0  0  0  0  0  0
  187.9300  176.3230  134.9650 O   0  0  0  0  0  0  0  0  0  0  0  0
  188.9010  178.2590  135.6940 O   0  0  0  0  0  1  0  0  0  0  0  0
  187.8070  177.4190  135.5700 C   0  0  0  0  0  0  0  0  0  0  0  0
  186.5490  177.8050  136.1170 N   0  0  0  0  0  2  0  0  0  0  0  0
  185.7460  178.2000  138.7000 C   0  0  0  0  0  2  0  0  0  0  0  0
  185.3330  178.9280  139.9520 C   0  0  0  0  0  2  0  0  0  0  0  0
  183.8180  179.0360  140.0230 C   0  0  0  0  0  2  0  0  0  0  0  0
  182.2090  177.4640  140.8250 F   0  0  0  0  0  0  0  0  0  0  0  0
  183.2620  178.2670  141.2220 C   0  0  0  0  0  0  0  0  0  0  0  0
  184.2610  177.4730  141.7510 F   0  0  0  0  0  0  0  0  0  0  0  0
  181.4370  178.7970  142.8850 C   0  0  0  0  0  1  0  0  0  0  0  0
  182.7770  179.2430  142.2980 C   0  0  1  0  0  3  0  0  0  0  0  0
  183.7310  179.3750  143.3200 O   0  0  0  0  0  0  0  0  0  0  0  0
  183.0930  178.9380  144.4870 C   0  0  0  0  0  2  0  0  0  0  0  0
  184.1510  178.6620  145.5440 C   0  0  0  0  0  2  0  0  0  0  0  0
  185.2160  177.8920  145.0000 O   0  0  0  0  0  0  0  0  0  0  0  0
  186.5360  178.1050  145.3860 C   0  0  0  0  0  0  0  0  0  0  0  0
  186.8150  178.6220  146.5090 O   0  0  0  0  0  0  0  0  0  0  0  0
  187.6260  177.7450  144.4330 C   0  0  0  0  0  2  0  0  0  0  0  0
  191.9370  178.1580  145.0050 O   0  0  0  0  0  1  0  0  0  0  0  0
  190.0550  177.0640  147.0450 C   0  0  0  0  0  2  0  0  0  0  0  0
  188.9820  177.6610  145.1280 C   0  0  1  0  0  3  0  0  0  0  0  0
  188.8470  176.9440  146.3330 O   0  0  0  0  0  0  0  0  0  0  0  0
  192.3510  176.4120  147.0430 O   0  0  0  0  0  1  0  0  0  0  0  0
  191.3490  176.8880  144.9200 C   0  0  2  0  0  3  0  0  0  0  0  0
  190.0010  176.9730  144.2030 C   0  0  2  0  0  3  0  0  0  0  0  0
  191.1640  176.2990  146.3220 C   0  0  2  0  0  3  0  0  0  0  0  0
  190.1320  177.6830  143.0020 O   0  0  0  0  0  0  0  0  0  0  0  0
  190.7160  176.7760  142.1130 C   0  0  0  0  0  2  0  0  0  0  0  0
  191.3700  177.5120  140.9540 C   0  0  0  0  0  2  0  0  0  0  0  0
  189.5590  178.0270  139.0880 C   0  0  0  0  0  1  0  0  0  0  0  0
  190.7230  177.1960  139.6080 C   0  0  1  0  0  0  0  0  0  0  0  0
  191.5610  176.5060  138.6010 C   0  0  0  0  0  2  0  0  0  0  0  0
  190.5730  175.8230  139.3450 O   0  0  0  0  0  0  0  0  0  0  0  0
  182.4990  175.4580  137.6390 C   0  0  1  0  0  3  0  0  0  0  0  0
  180.3120  176.1440  138.2730 O   0  0  0  0  0  0  0  0  0  0  0  0
  181.2970  176.3330  137.5080 C   0  0  0  0  0  0  0  0  0  0  0  0
  181.2810  177.3990  136.5480 N   0  0  0  0  0  2  0  0  0  0  0  0
  178.9970  177.8640  136.6540 O   0  0  0  0  0  1  0  0  0  0  0  0
  180.2620  178.4470  136.5100 C   0  0  1  0  0  0  0  0  0  0  0  0
  181.4340  182.9310  137.6410 C   0  0  0  0  0  1  0  0  0  0  0  0
  179.4080  179.3600  138.7270 C   0  0  0  0  0  2  0  0  0  0  0  0
  181.1130  181.5550  138.2000 C   0  0  2  0  0  3  0  0  0  0  0  0
  180.6030  180.7530  137.1640 O   0  0  0  0  0  0  0  0  0  0  0  0
  180.0730  181.7020  139.3090 C   0  0  0  0  0  2  0  0  0  0  0  0
  179.7480  180.3200  139.8650 C   0  0  0  0  0  2  0  0  0  0  0  0
  180.5130  179.4350  137.6600 C   0  0  2  0  0  3  0  0  0  0  0  0
  181.3480  179.1260  134.5970 O   0  0  0  0  0  0  0  0  0  0  0  0
  180.3440  179.1390  135.2420 N   0  0  0  0  0  0  0  0  0  0  0  0
  182.1460  174.0540  137.4440 N   0  0  0  0  0  2  0  0  0  0  0  0
  182.5270  171.9950  136.1920 C   0  0  0  0  0  3  0  0  0  0  0  0
  183.3990  171.0570  135.6360 C   0  0  0  0  0  3  0  0  0  0  0  0
  183.0490  173.0770  136.9140 C   0  0  0  0  0  0  0  0  0  0  0  0
  184.4330  173.2130  137.0440 C   0  0  0  0  0  3  0  0  0  0  0  0
  185.2700  172.2570  136.4710 C   0  0  0  0  0  3  0  0  0  0  0  0
  184.7390  171.2090  135.7870 N   0  0  0  0  0  0  0  0  0  0  0  0
  1  9  1  0  0  0  0
  2  1  1  0  0  0  0
  3  8  1  0  0  0  0
  3  2  2  0  0  0  0
  4  2  1  0  0  0  0
  5  7  2  0  0  0  0
  7  6  1  0  0  0  0
  7  8  1  0  0  0  0
  9 10  1  0  0  0  0
 10 11  1  0  0  0  0
 11 13  1  0  0  0  0
 12 13  1  0  0  0  0
 13 14  1  0  0  0  0
 13 16  1  0  0  0  0
 16 15  1  1  0  0  0
 16 17  1  0  0  0  0
 17 18  1  0  0  0  0
 18 19  1  0  0  0  0
 20 21  1  0  0  0  0
 20 19  1  0  0  0  0
 21 22  2  0  0  0  0
 23 21  1  0  0  0  0
 26 23  1  6  0  0  0
 26 27  1  0  0  0  0
 27 25  1  0  0  0  0
 29 24  1  1  0  0  0
 29 31  1  0  0  0  0
 30 32  1  6  0  0  0
 30 29  1  0  0  0  0
 30 26  1  0  0  0  0
 31 28  1  1  0  0  0
 31 25  1  0  0  0  0
 33 32  1  0  0  0  0
 34 33  1  0  0  0  0
 36 35  1  6  0  0  0
 36 34  1  0  0  0  0
 37 38  1  0  0  0  0
 37 36  1  0  0  0  0
 38 36  1  0  0  0  0
 39  4  1  6  0  0  0
 41 39  1  0  0  0  0
 41 40  2  0  0  0  0
 42 41  1  0  0  0  0
 44 42  1  0  0  0  0
 44 43  1  1  0  0  0
 46 50  1  0  0  0  0
 47 45  1  6  0  0  0
 47 49  1  0  0  0  0
 48 51  1  0  0  0  0
 48 47  1  0  0  0  0
 49 50  1  0  0  0  0
 51 44  1  6  0  0  0
 51 46  1  0  0  0  0
 52 53  2  0  0  0  0
 53 44  1  0  0  0  0
 54 39  1  0  0  0  0
 55 57  1  0  0  0  0
 56 60  1  0  0  0  0
 56 55  2  0  0  0  0
 57 58  2  0  0  0  0
 57 54  1  0  0  0  0
 59 58  1  0  0  0  0
 60 59  2  0  0  0  0
M  END
>  <MODEL>
1

>  <REMARK>
 VINA RESULT:      -6.4      0.000      0.000
  Name = 
  24 active torsions:
  status: ('A' for Active; 'I' for Inactive)
    1  A    between atoms: O_3  and  C_5
    2  A    between atoms: O_3  and  C_51
    3  A    between atoms: C_5  and  C_55
    4  A    between atoms: N_7  and  C_12
    5  A    between atoms: C_10  and  C_34
    6  A    between atoms: C_10  and  C_50
    7  A    between atoms: C_11  and  C_55
    8  A    between atoms: C_12  and  C_50
    9  A    between atoms: C_15  and  O_45
   10  A    between atoms: C_15  and  C_51
   11  A    between atoms: C_16  and  C_31
   12  A    between atoms: N_17  and  C_27
   13  A    between atoms: C_19  and  C_36
   14  A    between atoms: N_22  and  C_27
   15  A    between atoms: C_26  and  C_34
   16  A    between atoms: C_26  and  O_45
   17  A    between atoms: C_27  and  C_52
   18  A    between atoms: C_31  and  C_38
   19  A    between atoms: C_33  and  N_56
   20  A    between atoms: N_35  and  N_59
   21  A    between atoms: C_36  and  N_56
   22  A    between atoms: C_36  and  N_58
   23  A    between atoms: C_38  and  O_48
   24  A    between atoms: O_48  and  C_49
                            x       y       z     vdW  Elec       q    Type
                         _______ _______ _______ _____ _____    ______ ____

>  <TORSDO>
F 24

$$$$
=
 OpenBabel10222417433D

 60 63  0  0  1  0  0  0  0  0999 V2000
  189.5050  177.1610  137.0310 N   0  0  0  0  0  2  0  0  0  0  0  0
  189.7530  175.8790  137.6500 C   0  0  0  0  0  0  0  0  0  0  0  0
  189.1320  174.7880  137.3020 N   0  0  0  0  0  0  0  0  0  0  0  0
  190.6900  175.7960  138.7220 N   0  0  0  0  0  2  0  0  0  0  0  0
  187.1470  172.8380  137.1440 O   0  0  0  0  0  1  0  0  0  0  0  0
  186.2700  173.6760  135.2080 O   0  0  0  0  0  0  0  0  0  0  0  0
  187.2010  173.7030  136.2340 C   0  0  0  0  0  0  0  0  0  0  0  0
  188.2030  174.7160  136.2570 N   0  0  0  0  0  2  0  0  0  0  0  0
  188.5790  177.4050  135.9420 C   0  0  0  0  0  2  0  0  0  0  0  0
  187.6600  178.5520  136.2700 C   0  0  0  0  0  2  0  0  0  0  0  0
  186.2590  178.0370  136.5610 C   0  0  0  0  0  2  0  0  0  0  0  0
  186.3510  176.2240  138.1130 F   0  0  0  0  0  0  0  0  0  0  0  0
  186.1250  177.5850  138.0150 C   0  0  0  0  0  0  0  0  0  0  0  0
  187.0580  178.2540  138.7840 F   0  0  0  0  0  0  0  0  0  0  0  0
  184.5400  179.4070  138.7550 C   0  0  0  0  0  1  0  0  0  0  0  0
  184.7220  177.9040  138.5420 C   0  0  1  0  0  3  0  0  0  0  0  0
  183.7370  177.4170  137.6670 O   0  0  0  0  0  0  0  0  0  0  0  0
  182.9730  176.5220  138.4260 C   0  0  0  0  0  2  0  0  0  0  0  0
  181.9450  175.8680  137.5140 C   0  0  0  0  0  2  0  0  0  0  0  0
  180.9750  176.8170  137.0870 O   0  0  0  0  0  0  0  0  0  0  0  0
  179.6550  176.7500  137.5200 C   0  0  0  0  0  0  0  0  0  0  0  0
  178.9330  175.7390  137.2660 O   0  0  0  0  0  0  0  0  0  0  0  0
  179.0860  177.9120  138.2630 C   0  0  0  0  0  2  0  0  0  0  0  0
  181.6220  181.4140  138.8830 O   0  0  0  0  0  1  0  0  0  0  0  0
  180.2810  180.7280  136.3070 C   0  0  0  0  0  2  0  0  0  0  0  0
  179.8240  179.2070  137.9380 C   0  0  1  0  0  3  0  0  0  0  0  0
  179.4370  179.6590  136.6610 O   0  0  0  0  0  0  0  0  0  0  0  0
  180.8200  182.9950  136.8250 O   0  0  0  0  0  1  0  0  0  0  0  0
  180.2450  181.5640  138.6570 C   0  0  2  0  0  3  0  0  0  0  0  0
  179.5070  180.2690  139.0050 C   0  0  2  0  0  3  0  0  0  0  0  0
  179.9890  181.9390  137.1940 C   0  0  2  0  0  3  0  0  0  0  0  0
  179.8870  179.8190  140.2760 O   0  0  0  0  0  0  0  0  0  0  0  0
  179.5300  180.8540  141.1440 C   0  0  0  0  0  2  0  0  0  0  0  0
  179.5950  180.3850  142.5890 C   0  0  0  0  0  2  0  0  0  0  0  0
  181.7380  178.8820  142.1660 C   0  0  0  0  0  1  0  0  0  0  0  0
  180.3450  179.0650  142.7530 C   0  0  1  0  0  0  0  0  0  0  0  0
  179.9900  178.2270  143.9200 C   0  0  0  0  0  2  0  0  0  0  0  0
  179.5410  177.9210  142.6170 O   0  0  0  0  0  0  0  0  0  0  0  0
  191.4760  176.9290  139.1920 C   0  0  1  0  0  3  0  0  0  0  0  0
  192.3270  177.2950  141.3830 O   0  0  0  0  0  0  0  0  0  0  0  0
  191.3150  177.0500  140.6710 C   0  0  0  0  0  0  0  0  0  0  0  0
  190.0160  176.9280  141.2680 N   0  0  0  0  0  2  0  0  0  0  0  0
  190.2900  178.5120  142.9590 O   0  0  0  0  0  1  0  0  0  0  0  0
  189.7230  177.2670  142.6590 C   0  0  1  0  0  0  0  0  0  0  0  0
  186.1890  177.7060  145.8350 C   0  0  0  0  0  1  0  0  0  0  0  0
  187.5360  178.2860  141.8490 C   0  0  0  0  0  2  0  0  0  0  0  0
  186.5170  177.4940  144.3660 C   0  0  2  0  0  3  0  0  0  0  0  0
  187.8880  177.7350  144.1690 O   0  0  0  0  0  0  0  0  0  0  0  0
  185.6890  178.4660  143.5290 C   0  0  0  0  0  2  0  0  0  0  0  0
  186.0240  178.2560  142.0570 C   0  0  0  0  0  2  0  0  0  0  0  0
  188.2000  177.3300  142.8530 C   0  0  2  0  0  3  0  0  0  0  0  0
  191.0090  176.5410  144.4260 O   0  0  0  0  0  0  0  0  0  0  0  0
  190.2860  176.2500  143.5210 N   0  0  0  0  0  0  0  0  0  0  0  0
  192.8800  176.7410  138.8350 N   0  0  0  0  0  2  0  0  0  0  0  0
  193.9520  174.7270  137.9710 C   0  0  0  0  0  3  0  0  0  0  0  0
  194.3450  173.9280  136.8960 C   0  0  0  0  0  3  0  0  0  0  0  0
  193.3140  175.9500  137.7220 C   0  0  0  0  0  0  0  0  0  0  0  0
  193.0600  176.3380  136.4050 C   0  0  0  0  0  3  0  0  0  0  0  0
  193.4650  175.5100  135.3590 C   0  0  0  0  0  3  0  0  0  0  0  0
  194.0940  174.3350  135.6250 N   0  0  0  0  0  0  0  0  0  0  0  0
  1  2  1  0  0  0  0
  2  4  1  0  0  0  0
  3  2  2  0  0  0  0
  6  7  2  0  0  0  0
  7  8  1  0  0  0  0
  7  5  1  0  0  0  0
  8  3  1  0  0  0  0
  9 10  1  0  0  0  0
  9  1  1  0  0  0  0
 10 11  1  0  0  0  0
 11 13  1  0  0  0  0
 13 12  1  0  0  0  0
 13 16  1  0  0  0  0
 13 14  1  0  0  0  0
 16 15  1  6  0  0  0
 17 18  1  0  0  0  0
 17 16  1  0  0  0  0
 19 18  1  0  0  0  0
 20 19  1  0  0  0  0
 20 21  1  0  0  0  0
 21 23  1  0  0  0  0
 22 21  2  0  0  0  0
 25 27  1  0  0  0  0
 25 31  1  0  0  0  0
 26 23  1  1  0  0  0
 26 30  1  0  0  0  0
 27 26  1  0  0  0  0
 29 24  1  6  0  0  0
 29 30  1  0  0  0  0
 30 32  1  1  0  0  0
 31 28  1  6  0  0  0
 31 29  1  0  0  0  0
 32 33  1  0  0  0  0
 33 34  1  0  0  0  0
 34 36  1  0  0  0  0
 36 35  1  6  0  0  0
 36 37  1  0  0  0  0
 38 36  1  0  0  0  0
 38 37  1  0  0  0  0
 39  4  1  1  0  0  0
 39 41  1  0  0  0  0
 41 42  1  0  0  0  0
 41 40  2  0  0  0  0
 42 44  1  0  0  0  0
 44 43  1  1  0  0  0
 44 53  1  0  0  0  0
 46 50  1  0  0  0  0
 46 51  1  0  0  0  0
 47 45  1  1  0  0  0
 48 47  1  0  0  0  0
 49 47  1  0  0  0  0
 50 49  1  0  0  0  0
 51 44  1  1  0  0  0
 51 48  1  0  0  0  0
 53 52  2  0  0  0  0
 54 39  1  0  0  0  0
 56 55  2  0  0  0  0
 57 55  1  0  0  0  0
 57 54  1  0  0  0  0
 58 57  2  0  0  0  0
 59 60  2  0  0  0  0
 59 58  1  0  0  0  0
 60 56  1  0  0  0  0
M  END
>  <MODEL>
2

>  <REMARK>
 VINA RESULT:      -6.3      3.145      9.933
  Name = 
  24 active torsions:
  status: ('A' for Active; 'I' for Inactive)
    1  A    between atoms: O_3  and  C_5
    2  A    between atoms: O_3  and  C_51
    3  A    between atoms: C_5  and  C_55
    4  A    between atoms: N_7  and  C_12
    5  A    between atoms: C_10  and  C_34
    6  A    between atoms: C_10  and  C_50
    7  A    between atoms: C_11  and  C_55
    8  A    between atoms: C_12  and  C_50
    9  A    between atoms: C_15  and  O_45
   10  A    between atoms: C_15  and  C_51
   11  A    between atoms: C_16  and  C_31
   12  A    between atoms: N_17  and  C_27
   13  A    between atoms: C_19  and  C_36
   14  A    between atoms: N_22  and  C_27
   15  A    between atoms: C_26  and  C_34
   16  A    between atoms: C_26  and  O_45
   17  A    between atoms: C_27  and  C_52
   18  A    between atoms: C_31  and  C_38
   19  A    between atoms: C_33  and  N_56
   20  A    between atoms: N_35  and  N_59
   21  A    between atoms: C_36  and  N_56
   22  A    between atoms: C_36  and  N_58
   23  A    between atoms: C_38  and  O_48
   24  A    between atoms: O_48  and  C_49
                            x       y       z     vdW  Elec       q    Type
                         _______ _______ _______ _____ _____    ______ ____

>  <TORSDO>
F 24

$$$$
=
 OpenBabel10222417433D

 60 63  0  0  1  0  0  0  0  0999 V2000
  185.6820  177.9770  143.1190 N   0  0  0  0  0  2  0  0  0  0  0  0
  184.5980  178.9240  143.2400 C   0  0  0  0  0  0  0  0  0  0  0  0
  184.4100  179.6600  144.3000 N   0  0  0  0  0  0  0  0  0  0  0  0
  183.6570  179.0410  142.1750 N   0  0  0  0  0  2  0  0  0  0  0  0
  184.0020  178.0700  146.5510 O   0  0  0  0  0  0  0  0  0  0  0  0
  185.8890  178.8140  147.6020 O   0  0  0  0  0  1  0  0  0  0  0  0
  185.0100  178.8190  146.5310 C   0  0  0  0  0  0  0  0  0  0  0  0
  185.2620  179.6640  145.4100 N   0  0  0  0  0  2  0  0  0  0  0  0
  186.7070  177.7390  144.1170 C   0  0  0  0  0  2  0  0  0  0  0  0
  188.0800  177.9540  143.5340 C   0  0  0  0  0  2  0  0  0  0  0  0
  189.0930  177.0570  144.2260 C   0  0  0  0  0  2  0  0  0  0  0  0
  190.2840  179.1240  144.1170 F   0  0  0  0  0  0  0  0  0  0  0  0
  190.3500  177.8360  144.6150 C   0  0  0  0  0  0  0  0  0  0  0  0
  190.4400  177.8870  145.9930 F   0  0  0  0  0  0  0  0  0  0  0  0
  191.3780  175.6330  143.9290 C   0  0  0  0  0  1  0  0  0  0  0  0
  191.5970  177.1410  144.0580 C   0  0  1  0  0  3  0  0  0  0  0  0
  191.9580  177.6850  142.8150 O   0  0  0  0  0  0  0  0  0  0  0  0
  191.5060  176.7660  141.8600 C   0  0  0  0  0  2  0  0  0  0  0  0
  191.3550  177.4860  140.5280 C   0  0  0  0  0  2  0  0  0  0  0  0
  191.8320  176.6750  139.4610 O   0  0  0  0  0  0  0  0  0  0  0  0
  193.1190  176.8260  138.9530 C   0  0  0  0  0  0  0  0  0  0  0  0
  194.0430  177.3370  139.6540 O   0  0  0  0  0  0  0  0  0  0  0  0
  193.3850  176.4080  137.5460 C   0  0  0  0  0  2  0  0  0  0  0  0
  191.1380  172.8900  136.2610 O   0  0  0  0  0  1  0  0  0  0  0  0
  190.1340  175.6940  136.0940 C   0  0  0  0  0  2  0  0  0  0  0  0
  192.2330  175.5900  136.9700 C   0  0  1  0  0  3  0  0  0  0  0  0
  191.2680  176.4590  136.4240 O   0  0  0  0  0  0  0  0  0  0  0  0
  189.3200  174.0260  134.5940 O   0  0  0  0  0  1  0  0  0  0  0  0
  191.5930  173.8250  135.3200 C   0  0  2  0  0  3  0  0  0  0  0  0
  192.7630  174.6280  135.8940 C   0  0  2  0  0  3  0  0  0  0  0  0
  190.4530  174.7680  134.9200 C   0  0  2  0  0  3  0  0  0  0  0  0
  193.7260  173.7660  136.4350 O   0  0  0  0  0  0  0  0  0  0  0  0
  194.7240  173.6870  135.4610 C   0  0  0  0  0  2  0  0  0  0  0  0
  195.4130  175.0320  135.2910 C   0  0  0  0  0  2  0  0  0  0  0  0
  196.8470  174.6130  137.4820 C   0  0  0  0  0  1  0  0  0  0  0  0
  196.7330  175.1240  136.0520 C   0  0  1  0  0  0  0  0  0  0  0  0
  197.9750  175.1560  135.2480 C   0  0  0  0  0  2  0  0  0  0  0  0
  197.4410  176.3200  135.8430 O   0  0  0  0  0  0  0  0  0  0  0  0
  183.7630  178.3040  140.9230 C   0  0  1  0  0  3  0  0  0  0  0  0
  181.5700  179.0380  140.3700 O   0  0  0  0  0  0  0  0  0  0  0  0
  182.3930  178.0820  140.3750 C   0  0  0  0  0  0  0  0  0  0  0  0
  182.0330  176.8060  139.8250 N   0  0  0  0  0  2  0  0  0  0  0  0
  180.3030  177.7900  138.6070 O   0  0  0  0  0  1  0  0  0  0  0  0
  180.8150  176.5650  139.0540 C   0  0  1  0  0  0  0  0  0  0  0  0
  183.8990  173.4000  137.2550 C   0  0  0  0  0  1  0  0  0  0  0  0
  179.9200  174.8810  137.3690 C   0  0  0  0  0  2  0  0  0  0  0  0
  182.6370  174.1990  136.9750 C   0  0  2  0  0  3  0  0  0  0  0  0
  182.1880  174.7750  138.1770 O   0  0  0  0  0  0  0  0  0  0  0  0
  181.5710  173.2600  136.4150 C   0  0  0  0  0  2  0  0  0  0  0  0
  180.3040  174.0620  136.1390 C   0  0  0  0  0  2  0  0  0  0  0  0
  181.1480  175.6710  137.8500 C   0  0  2  0  0  3  0  0  0  0  0  0
  179.0680  176.5380  140.5540 O   0  0  0  0  0  0  0  0  0  0  0  0
  179.8430  175.9070  139.9020 N   0  0  0  0  0  0  0  0  0  0  0  0
  184.5900  179.0490  139.9770 N   0  0  0  0  0  2  0  0  0  0  0  0
  185.4390  178.0310  137.9290 C   0  0  0  0  0  3  0  0  0  0  0  0
  186.4950  177.4960  137.1880 C   0  0  0  0  0  3  0  0  0  0  0  0
  185.6720  178.4650  139.2410 C   0  0  0  0  0  0  0  0  0  0  0  0
  186.9580  178.3810  139.7770 C   0  0  0  0  0  3  0  0  0  0  0  0
  187.9860  177.8440  139.0020 C   0  0  0  0  0  3  0  0  0  0  0  0
  187.7340  177.4170  137.7370 N   0  0  0  0  0  0  0  0  0  0  0  0
  1  2  1  0  0  0  0
  1  9  1  0  0  0  0
  2  3  2  0  0  0  0
  3  8  1  0  0  0  0
  4  2  1  0  0  0  0
  7  5  2  0  0  0  0
  7  6  1  0  0  0  0
  8  7  1  0  0  0  0
 10  9  1  0  0  0  0
 10 11  1  0  0  0  0
 11 13  1  0  0  0  0
 12 13  1  0  0  0  0
 13 14  1  0  0  0  0
 16 15  1  6  0  0  0
 16 13  1  0  0  0  0
 17 16  1  0  0  0  0
 18 17  1  0  0  0  0
 19 18  1  0  0  0  0
 20 19  1  0  0  0  0
 21 20  1  0  0  0  0
 21 22  2  0  0  0  0
 23 21  1  0  0  0  0
 25 27  1  0  0  0  0
 26 23  1  6  0  0  0
 27 26  1  0  0  0  0
 29 30  1  0  0  0  0
 29 24  1  1  0  0  0
 30 32  1  1  0  0  0
 30 26  1  0  0  0  0
 31 28  1  1  0  0  0
 31 29  1  0  0  0  0
 31 25  1  0  0  0  0
 33 32  1  0  0  0  0
 34 33  1  0  0  0  0
 34 36  1  0  0  0  0
 36 35  1  1  0  0  0
 37 38  1  0  0  0  0
 37 36  1  0  0  0  0
 38 36  1  0  0  0  0
 39 54  1  6  0  0  0
 39  4  1  0  0  0  0
 40 41  2  0  0  0  0
 41 39  1  0  0  0  0
 42 41  1  0  0  0  0
 44 43  1  6  0  0  0
 44 42  1  0  0  0  0
 44 53  1  0  0  0  0
 46 51  1  0  0  0  0
 47 45  1  1  0  0  0
 47 48  1  0  0  0  0
 49 47  1  0  0  0  0
 50 49  1  0  0  0  0
 50 46  1  0  0  0  0
 51 48  1  0  0  0  0
 51 44  1  1  0  0  0
 53 52  2  0  0  0  0
 55 57  1  0  0  0  0
 56 60  1  0  0  0  0
 56 55  2  0  0  0  0
 57 58  2  0  0  0  0
 57 54  1  0  0  0  0
 59 58  1  0  0  0  0
 60 59  2  0  0  0  0
M  END
>  <MODEL>
3

>  <REMARK>
 VINA RESULT:      -6.0      3.509      8.114
  Name = 
  24 active torsions:
  status: ('A' for Active; 'I' for Inactive)
    1  A    between atoms: O_3  and  C_5
    2  A    between atoms: O_3  and  C_51
    3  A    between atoms: C_5  and  C_55
    4  A    between atoms: N_7  and  C_12
    5  A    between atoms: C_10  and  C_34
    6  A    between atoms: C_10  and  C_50
    7  A    between atoms: C_11  and  C_55
    8  A    between atoms: C_12  and  C_50
    9  A    between atoms: C_15  and  O_45
   10  A    between atoms: C_15  and  C_51
   11  A    between atoms: C_16  and  C_31
   12  A    between atoms: N_17  and  C_27
   13  A    between atoms: C_19  and  C_36
   14  A    between atoms: N_22  and  C_27
   15  A    between atoms: C_26  and  C_34
   16  A    between atoms: C_26  and  O_45
   17  A    between atoms: C_27  and  C_52
   18  A    between atoms: C_31  and  C_38
   19  A    between atoms: C_33  and  N_56
   20  A    between atoms: N_35  and  N_59
   21  A    between atoms: C_36  and  N_56
   22  A    between atoms: C_36  and  N_58
   23  A    between atoms: C_38  and  O_48
   24  A    between atoms: O_48  and  C_49
                            x       y       z     vdW  Elec       q    Type
                         _______ _______ _______ _____ _____    ______ ____

>  <TORSDO>
F 24

$$$$
=
 OpenBabel10222417433D

 60 63  0  0  1  0  0  0  0  0999 V2000
  186.4120  178.7540  140.3720 N   0  0  0  0  0  2  0  0  0  0  0  0
  185.5900  178.6270  139.1910 C   0  0  0  0  0  0  0  0  0  0  0  0
  186.0780  178.3880  138.0060 N   0  0  0  0  0  0  0  0  0  0  0  0
  184.1800  178.8110  139.3040 N   0  0  0  0  0  2  0  0  0  0  0  0
  187.6050  180.0120  136.3350 O   0  0  0  0  0  0  0  0  0  0  0  0
  189.5230  178.8210  136.6850 O   0  0  0  0  0  1  0  0  0  0  0  0
  188.1720  179.0390  136.8940 C   0  0  0  0  0  0  0  0  0  0  0  0
  187.4360  178.1680  137.7490 N   0  0  0  0  0  2  0  0  0  0  0  0
  187.8540  178.6040  140.4140 C   0  0  0  0  0  2  0  0  0  0  0  0
  188.2610  177.6550  141.5110 C   0  0  0  0  0  2  0  0  0  0  0  0
  188.9160  178.4180  142.6520 C   0  0  0  0  0  2  0  0  0  0  0  0
  189.8700  178.0970  144.8170 F   0  0  0  0  0  0  0  0  0  0  0  0
  189.6470  177.4720  143.6040 C   0  0  0  0  0  0  0  0  0  0  0  0
  188.8690  176.3490  143.8100 F   0  0  0  0  0  0  0  0  0  0  0  0
  191.6770  175.9930  143.8710 C   0  0  0  0  0  1  0  0  0  0  0  0
  190.9890  177.0450  143.0000 C   0  0  1  0  0  3  0  0  0  0  0  0
  190.8170  176.5550  141.6960 O   0  0  0  0  0  0  0  0  0  0  0  0
  191.8100  177.1760  140.9290 C   0  0  0  0  0  2  0  0  0  0  0  0
  191.3100  177.2990  139.4970 C   0  0  0  0  0  2  0  0  0  0  0  0
  191.4770  176.0710  138.7990 O   0  0  0  0  0  0  0  0  0  0  0  0
  192.4550  175.9180  137.8210 C   0  0  0  0  0  0  0  0  0  0  0  0
  193.4120  176.7430  137.7180 O   0  0  0  0  0  0  0  0  0  0  0  0
  192.3370  174.7800  136.8640 C   0  0  0  0  0  2  0  0  0  0  0  0
  188.7070  172.4880  136.0600 O   0  0  0  0  0  1  0  0  0  0  0  0
  188.9060  175.4600  135.8900 C   0  0  0  0  0  2  0  0  0  0  0  0
  190.8850  174.5050  136.4860 C   0  0  1  0  0  3  0  0  0  0  0  0
  190.2860  175.6960  136.0290 O   0  0  0  0  0  0  0  0  0  0  0  0
  187.2870  174.2780  134.5940 O   0  0  0  0  0  1  0  0  0  0  0  0
  189.3630  173.1660  135.0230 C   0  0  2  0  0  3  0  0  0  0  0  0
  190.8250  173.4200  135.3980 C   0  0  2  0  0  3  0  0  0  0  0  0
  188.6560  174.4930  134.7310 C   0  0  2  0  0  3  0  0  0  0  0  0
  191.4250  172.2370  135.8490 O   0  0  0  0  0  0  0  0  0  0  0  0
  192.0750  171.7140  134.7280 C   0  0  0  0  0  2  0  0  0  0  0  0
  193.5400  172.1190  134.7240 C   0  0  0  0  0  2  0  0  0  0  0  0
  193.9100  169.8200  135.9910 C   0  0  0  0  0  1  0  0  0  0  0  0
  194.4170  171.1880  135.5570 C   0  0  1  0  0  0  0  0  0  0  0  0
  195.8830  171.3560  135.4400 C   0  0  0  0  0  2  0  0  0  0  0  0
  195.1640  171.8350  136.5570 O   0  0  0  0  0  0  0  0  0  0  0  0
  183.5000  179.0520  140.5690 C   0  0  1  0  0  3  0  0  0  0  0  0
  181.3790  179.9710  140.0080 O   0  0  0  0  0  0  0  0  0  0  0  0
  182.0270  178.9450  140.3550 C   0  0  0  0  0  0  0  0  0  0  0  0
  181.3660  177.6810  140.5040 N   0  0  0  0  0  2  0  0  0  0  0  0
  179.3090  178.6470  139.9740 O   0  0  0  0  0  1  0  0  0  0  0  0
  179.9880  177.4270  140.0850 C   0  0  1  0  0  0  0  0  0  0  0  0
  182.7300  175.5280  136.6730 C   0  0  0  0  0  1  0  0  0  0  0  0
  178.9870  175.5550  138.6800 C   0  0  0  0  0  2  0  0  0  0  0  0
  181.3020  175.8490  137.0810 C   0  0  2  0  0  3  0  0  0  0  0  0
  181.2900  176.2240  138.4360 O   0  0  0  0  0  0  0  0  0  0  0  0
  180.4370  174.6080  136.8730 C   0  0  0  0  0  2  0  0  0  0  0  0
  179.0060  174.9300  137.2870 C   0  0  0  0  0  2  0  0  0  0  0  0
  179.9980  176.7130  138.7240 C   0  0  2  0  0  3  0  0  0  0  0  0
  179.2690  176.9320  142.2150 O   0  0  0  0  0  0  0  0  0  0  0  0
  179.3410  176.5920  141.0740 N   0  0  0  0  0  0  0  0  0  0  0  0
  183.9530  178.0880  141.5690 N   0  0  0  0  0  2  0  0  0  0  0  0
  182.9780  178.9590  143.6280 C   0  0  0  0  0  3  0  0  0  0  0  0
  183.0680  179.2230  144.9960 C   0  0  0  0  0  3  0  0  0  0  0  0
  184.0730  178.3910  142.9640 C   0  0  0  0  0  0  0  0  0  0  0  0
  185.2260  178.0750  143.6840 C   0  0  0  0  0  3  0  0  0  0  0  0
  185.2760  178.3520  145.0500 C   0  0  0  0  0  3  0  0  0  0  0  0
  184.2050  178.9160  145.6700 N   0  0  0  0  0  0  0  0  0  0  0  0
  1  9  1  0  0  0  0
  2  4  1  0  0  0  0
  2  1  1  0  0  0  0
  3  2  2  0  0  0  0
  5  7  2  0  0  0  0
  6  7  1  0  0  0  0
  7  8  1  0  0  0  0
  8  3  1  0  0  0  0
  9 10  1  0  0  0  0
 10 11  1  0  0  0  0
 11 13  1  0  0  0  0
 13 14  1  0  0  0  0
 13 12  1  0  0  0  0
 16 13  1  0  0  0  0
 16 15  1  1  0  0  0
 17 16  1  0  0  0  0
 18 17  1  0  0  0  0
 19 18  1  0  0  0  0
 20 19  1  0  0  0  0
 21 20  1  0  0  0  0
 22 21  2  0  0  0  0
 23 21  1  0  0  0  0
 25 27  1  0  0  0  0
 26 23  1  6  0  0  0
 27 26  1  0  0  0  0
 29 30  1  0  0  0  0
 29 24  1  1  0  0  0
 30 32  1  1  0  0  0
 30 26  1  0  0  0  0
 31 28  1  1  0  0  0
 31 29  1  0  0  0  0
 31 25  1  0  0  0  0
 33 32  1  0  0  0  0
 34 33  1  0  0  0  0
 34 36  1  0  0  0  0
 36 35  1  1  0  0  0
 36 38  1  0  0  0  0
 37 36  1  0  0  0  0
 37 38  1  0  0  0  0
 39  4  1  6  0  0  0
 39 54  1  0  0  0  0
 40 41  2  0  0  0  0
 41 42  1  0  0  0  0
 41 39  1  0  0  0  0
 44 43  1  6  0  0  0
 44 42  1  0  0  0  0
 44 53  1  0  0  0  0
 46 51  1  0  0  0  0
 47 45  1  1  0  0  0
 47 48  1  0  0  0  0
 48 51  1  0  0  0  0
 49 47  1  0  0  0  0
 49 50  1  0  0  0  0
 50 46  1  0  0  0  0
 51 44  1  1  0  0  0
 53 52  2  0  0  0  0
 54 57  1  0  0  0  0
 55 56  1  0  0  0  0
 56 60  2  0  0  0  0
 57 55  2  0  0  0  0
 57 58  1  0  0  0  0
 58 59  2  0  0  0  0
 59 60  1  0  0  0  0
M  END
>  <MODEL>
4

>  <REMARK>
 VINA RESULT:      -5.7      3.498      7.860
  Name = 
  24 active torsions:
  status: ('A' for Active; 'I' for Inactive)
    1  A    between atoms: O_3  and  C_5
    2  A    between atoms: O_3  and  C_51
    3  A    between atoms: C_5  and  C_55
    4  A    between atoms: N_7  and  C_12
    5  A    between atoms: C_10  and  C_34
    6  A    between atoms: C_10  and  C_50
    7  A    between atoms: C_11  and  C_55
    8  A    between atoms: C_12  and  C_50
    9  A    between atoms: C_15  and  O_45
   10  A    between atoms: C_15  and  C_51
   11  A    between atoms: C_16  and  C_31
   12  A    between atoms: N_17  and  C_27
   13  A    between atoms: C_19  and  C_36
   14  A    between atoms: N_22  and  C_27
   15  A    between atoms: C_26  and  C_34
   16  A    between atoms: C_26  and  O_45
   17  A    between atoms: C_27  and  C_52
   18  A    between atoms: C_31  and  C_38
   19  A    between atoms: C_33  and  N_56
   20  A    between atoms: N_35  and  N_59
   21  A    between atoms: C_36  and  N_56
   22  A    between atoms: C_36  and  N_58
   23  A    between atoms: C_38  and  O_48
   24  A    between atoms: O_48  and  C_49
                            x       y       z     vdW  Elec       q    Type
                         _______ _______ _______ _____ _____    ______ ____

>  <TORSDO>
F 24

$$$$
=
 OpenBabel10222417433D

 60 63  0  0  1  0  0  0  0  0999 V2000
  186.4320  178.6400  140.3650 N   0  0  0  0  0  2  0  0  0  0  0  0
  185.6600  178.3890  139.1700 C   0  0  0  0  0  0  0  0  0  0  0  0
  186.1970  178.0470  138.0330 N   0  0  0  0  0  0  0  0  0  0  0  0
  184.2440  178.5600  139.2100 N   0  0  0  0  0  2  0  0  0  0  0  0
  187.8860  179.8570  136.7540 O   0  0  0  0  0  0  0  0  0  0  0  0
  189.7460  178.5670  137.0640 O   0  0  0  0  0  1  0  0  0  0  0  0
  188.3860  178.7930  137.1990 C   0  0  0  0  0  0  0  0  0  0  0  0
  187.5670  177.8260  137.8500 N   0  0  0  0  0  2  0  0  0  0  0  0
  187.8730  178.5180  140.4760 C   0  0  0  0  0  2  0  0  0  0  0  0
  188.2440  177.5640  141.5810 C   0  0  0  0  0  2  0  0  0  0  0  0
  188.8090  178.3260  142.7690 C   0  0  0  0  0  2  0  0  0  0  0  0
  189.6400  178.0190  144.9860 F   0  0  0  0  0  0  0  0  0  0  0  0
  189.4710  177.3810  143.7710 C   0  0  0  0  0  0  0  0  0  0  0  0
  188.6630  176.2750  143.9500 F   0  0  0  0  0  0  0  0  0  0  0  0
  191.4280  175.8250  144.1300 C   0  0  0  0  0  1  0  0  0  0  0  0
  190.8350  176.9230  143.2460 C   0  0  1  0  0  3  0  0  0  0  0  0
  190.7350  176.4740  141.9200 O   0  0  0  0  0  0  0  0  0  0  0  0
  191.7670  177.1190  141.2270 C   0  0  0  0  0  2  0  0  0  0  0  0
  191.3330  177.3120  139.7810 C   0  0  0  0  0  2  0  0  0  0  0  0
  191.5670  176.1310  139.0240 O   0  0  0  0  0  0  0  0  0  0  0  0
  192.5460  176.0830  138.0360 C   0  0  0  0  0  0  0  0  0  0  0  0
  193.3910  177.0200  137.9060 O   0  0  0  0  0  0  0  0  0  0  0  0
  192.5630  174.9210  137.1020 C   0  0  0  0  0  2  0  0  0  0  0  0
  189.1620  172.3240  136.2250 O   0  0  0  0  0  1  0  0  0  0  0  0
  189.1400  175.2950  135.9520 C   0  0  0  0  0  2  0  0  0  0  0  0
  191.1560  174.5200  136.6710 C   0  0  1  0  0  3  0  0  0  0  0  0
  190.4890  175.6430  136.1440 O   0  0  0  0  0  0  0  0  0  0  0  0
  187.6800  173.9460  134.6300 O   0  0  0  0  0  1  0  0  0  0  0  0
  189.8130  173.0160  135.1930 C   0  0  2  0  0  3  0  0  0  0  0  0
  191.2310  173.3970  135.6220 C   0  0  2  0  0  3  0  0  0  0  0  0
  189.0200  174.2730  134.8210 C   0  0  2  0  0  3  0  0  0  0  0  0
  191.8980  172.2810  136.1440 O   0  0  0  0  0  0  0  0  0  0  0  0
  192.9900  172.0860  135.2930 C   0  0  0  0  0  2  0  0  0  0  0  0
  193.7970  170.8740  135.7300 C   0  0  0  0  0  2  0  0  0  0  0  0
  195.3990  170.5610  137.8200 C   0  0  0  0  0  1  0  0  0  0  0  0
  195.0590  171.2480  136.5050 C   0  0  1  0  0  0  0  0  0  0  0  0
  196.1860  171.8110  135.7280 C   0  0  0  0  0  2  0  0  0  0  0  0
  195.3440  172.6240  136.5190 O   0  0  0  0  0  0  0  0  0  0  0  0
  183.5110  178.9090  140.4200 C   0  0  1  0  0  3  0  0  0  0  0  0
  181.3230  177.9980  140.6280 O   0  0  0  0  0  0  0  0  0  0  0  0
  182.0490  178.8970  140.1190 C   0  0  0  0  0  0  0  0  0  0  0  0
  181.4730  179.9190  139.2950 N   0  0  0  0  0  2  0  0  0  0  0  0
  179.4890  180.4900  140.3820 O   0  0  0  0  0  1  0  0  0  0  0  0
  180.0340  180.1300  139.1430 C   0  0  1  0  0  0  0  0  0  0  0  0
  179.3140  184.8110  138.5650 C   0  0  0  0  0  1  0  0  0  0  0  0
  180.7690  181.1680  136.9380 C   0  0  0  0  0  2  0  0  0  0  0  0
  179.4070  183.4730  137.8500 C   0  0  2  0  0  3  0  0  0  0  0  0
  179.9160  182.5160  138.7450 O   0  0  0  0  0  0  0  0  0  0  0  0
  180.3410  183.6170  136.6510 C   0  0  0  0  0  2  0  0  0  0  0  0
  180.4380  182.2730  135.9380 C   0  0  0  0  0  2  0  0  0  0  0  0
  179.7940  181.2550  138.1230 C   0  0  2  0  0  3  0  0  0  0  0  0
  179.9140  178.2720  137.7890 O   0  0  0  0  0  0  0  0  0  0  0  0
  179.4240  178.9040  138.6750 N   0  0  0  0  0  0  0  0  0  0  0  0
  183.8320  177.9630  141.4850 N   0  0  0  0  0  2  0  0  0  0  0  0
  185.2250  178.1320  143.4810 C   0  0  0  0  0  3  0  0  0  0  0  0
  185.4010  178.5310  144.8070 C   0  0  0  0  0  3  0  0  0  0  0  0
  183.9870  178.3400  142.8590 C   0  0  0  0  0  0  0  0  0  0  0  0
  182.9580  178.9660  143.5650 C   0  0  0  0  0  3  0  0  0  0  0  0
  183.1740  179.3530  144.8880 C   0  0  0  0  0  3  0  0  0  0  0  0
  184.3800  179.1290  145.4740 N   0  0  0  0  0  0  0  0  0  0  0  0
  1  9  1  0  0  0  0
  2  4  1  0  0  0  0
  2  1  1  0  0  0  0
  3  2  2  0  0  0  0
  5  7  2  0  0  0  0
  6  7  1  0  0  0  0
  7  8  1  0  0  0  0
  8  3  1  0  0  0  0
  9 10  1  0  0  0  0
 10 11  1  0  0  0  0
 11 13  1  0  0  0  0
 13 14  1  0  0  0  0
 13 12  1  0  0  0  0
 16 13  1  0  0  0  0
 16 15  1  1  0  0  0
 17 16  1  0  0  0  0
 18 17  1  0  0  0  0
 19 18  1  0  0  0  0
 20 19  1  0  0  0  0
 21 20  1  0  0  0  0
 22 21  2  0  0  0  0
 23 21  1  0  0  0  0
 25 27  1  0  0  0  0
 26 23  1  6  0  0  0
 27 26  1  0  0  0  0
 29 30  1  0  0  0  0
 29 24  1  1  0  0  0
 30 32  1  1  0  0  0
 30 26  1  0  0  0  0
 31 28  1  1  0  0  0
 31 29  1  0  0  0  0
 31 25  1  0  0  0  0
 33 34  1  0  0  0  0
 33 32  1  0  0  0  0
 34 36  1  0  0  0  0
 36 38  1  0  0  0  0
 36 35  1  1  0  0  0
 37 36  1  0  0  0  0
 37 38  1  0  0  0  0
 39  4  1  6  0  0  0
 39 54  1  0  0  0  0
 41 39  1  0  0  0  0
 41 40  2  0  0  0  0
 42 41  1  0  0  0  0
 44 42  1  0  0  0  0
 44 43  1  1  0  0  0
 46 51  1  0  0  0  0
 47 45  1  1  0  0  0
 47 48  1  0  0  0  0
 49 47  1  0  0  0  0
 50 49  1  0  0  0  0
 50 46  1  0  0  0  0
 51 48  1  0  0  0  0
 51 44  1  1  0  0  0
 52 53  2  0  0  0  0
 53 44  1  0  0  0  0
 54 57  1  0  0  0  0
 55 56  1  0  0  0  0
 56 60  2  0  0  0  0
 57 55  2  0  0  0  0
 57 58  1  0  0  0  0
 58 59  2  0  0  0  0
 59 60  1  0  0  0  0
M  END
>  <MODEL>
5

>  <REMARK>
 VINA RESULT:      -5.7      3.399      7.507
  Name = 
  24 active torsions:
  status: ('A' for Active; 'I' for Inactive)
    1  A    between atoms: O_3  and  C_5
    2  A    between atoms: O_3  and  C_51
    3  A    between atoms: C_5  and  C_55
    4  A    between atoms: N_7  and  C_12
    5  A    between atoms: C_10  and  C_34
    6  A    between atoms: C_10  and  C_50
    7  A    between atoms: C_11  and  C_55
    8  A    between atoms: C_12  and  C_50
    9  A    between atoms: C_15  and  O_45
   10  A    between atoms: C_15  and  C_51
   11  A    between atoms: C_16  and  C_31
   12  A    between atoms: N_17  and  C_27
   13  A    between atoms: C_19  and  C_36
   14  A    between atoms: N_22  and  C_27
   15  A    between atoms: C_26  and  C_34
   16  A    between atoms: C_26  and  O_45
   17  A    between atoms: C_27  and  C_52
   18  A    between atoms: C_31  and  C_38
   19  A    between atoms: C_33  and  N_56
   20  A    between atoms: N_35  and  N_59
   21  A    between atoms: C_36  and  N_56
   22  A    between atoms: C_36  and  N_58
   23  A    between atoms: C_38  and  O_48
   24  A    between atoms: O_48  and  C_49
                            x       y       z     vdW  Elec       q    Type
                         _______ _______ _______ _____ _____    ______ ____

>  <TORSDO>
F 24

$$$$
=
 OpenBabel10222417433D

 60 63  0  0  1  0  0  0  0  0999 V2000
  189.7990  177.1250  136.8920 N   0  0  0  0  0  2  0  0  0  0  0  0
  190.0260  175.8920  137.6090 C   0  0  0  0  0  0  0  0  0  0  0  0
  189.3310  174.8090  137.4010 N   0  0  0  0  0  0  0  0  0  0  0  0
  191.0250  175.8530  138.6260 N   0  0  0  0  0  2  0  0  0  0  0  0
  187.8200  172.4990  137.0130 O   0  0  0  0  0  1  0  0  0  0  0  0
  186.5760  173.4170  135.3320 O   0  0  0  0  0  0  0  0  0  0  0  0
  187.5830  173.4920  136.2800 C   0  0  0  0  0  0  0  0  0  0  0  0
  188.3330  174.6950  136.4250 N   0  0  0  0  0  2  0  0  0  0  0  0
  188.8170  177.3210  135.8430 C   0  0  0  0  0  2  0  0  0  0  0  0
  187.8350  178.3980  136.2260 C   0  0  0  0  0  2  0  0  0  0  0  0
  186.4240  177.8340  136.2720 C   0  0  0  0  0  2  0  0  0  0  0  0
  186.0400  176.1670  137.9380 F   0  0  0  0  0  0  0  0  0  0  0  0
  185.9940  177.5290  137.7060 C   0  0  0  0  0  0  0  0  0  0  0  0
  186.8540  178.1660  138.5800 F   0  0  0  0  0  0  0  0  0  0  0  0
  183.6020  177.4940  136.8960 C   0  0  0  0  0  1  0  0  0  0  0  0
  184.5690  178.0350  137.9500 C   0  0  1  0  0  3  0  0  0  0  0  0
  184.1280  177.6840  139.2360 O   0  0  0  0  0  0  0  0  0  0  0  0
  184.0420  178.8890  139.9450 C   0  0  0  0  0  2  0  0  0  0  0  0
  183.5200  178.5930  141.3430 C   0  0  0  0  0  2  0  0  0  0  0  0
  182.1600  178.1800  141.2950 O   0  0  0  0  0  0  0  0  0  0  0  0
  181.1350  179.0010  141.7550 C   0  0  0  0  0  0  0  0  0  0  0  0
  181.2830  179.7140  142.7930 O   0  0  0  0  0  0  0  0  0  0  0  0
  179.8350  179.0000  141.0230 C   0  0  0  0  0  2  0  0  0  0  0  0
  180.3110  178.3580  136.7290 O   0  0  0  0  0  1  0  0  0  0  0  0
  179.8950  176.1850  138.7300 C   0  0  0  0  0  2  0  0  0  0  0  0
  179.9300  178.2440  139.7010 C   0  0  1  0  0  3  0  0  0  0  0  0
  179.5980  176.8910  139.9100 O   0  0  0  0  0  0  0  0  0  0  0  0
  179.2250  175.8840  136.4590 O   0  0  0  0  0  1  0  0  0  0  0  0
  179.0820  178.1000  137.3540 C   0  0  2  0  0  3  0  0  0  0  0  0
  178.9830  178.8780  138.6680 C   0  0  2  0  0  3  0  0  0  0  0  0
  178.9310  176.5990  137.6180 C   0  0  2  0  0  3  0  0  0  0  0  0
  179.3100  180.2250  138.4630 O   0  0  0  0  0  0  0  0  0  0  0  0
  180.6930  180.2310  138.2620 C   0  0  0  0  0  2  0  0  0  0  0  0
  181.2440  181.6430  138.3870 C   0  0  0  0  0  2  0  0  0  0  0  0
  180.6730  182.0460  135.8290 C   0  0  0  0  0  1  0  0  0  0  0  0
  180.7860  182.5620  137.2570 C   0  0  1  0  0  0  0  0  0  0  0  0
  179.9320  183.7130  137.6270 C   0  0  0  0  0  2  0  0  0  0  0  0
  181.3030  183.8670  137.3260 O   0  0  0  0  0  0  0  0  0  0  0  0
  191.8950  176.9790  138.9410 C   0  0  1  0  0  3  0  0  0  0  0  0
  193.0620  177.4840  140.9510 O   0  0  0  0  0  0  0  0  0  0  0  0
  191.9710  177.1300  140.4240 C   0  0  0  0  0  0  0  0  0  0  0  0
  190.8070  176.9140  141.2330 N   0  0  0  0  0  2  0  0  0  0  0  0
  191.1930  178.5740  142.8260 O   0  0  0  0  0  1  0  0  0  0  0  0
  190.7200  177.2680  142.6490 C   0  0  1  0  0  0  0  0  0  0  0  0
  187.7590  177.3920  146.3880 C   0  0  0  0  0  1  0  0  0  0  0  0
  188.3350  178.0510  142.2320 C   0  0  0  0  0  2  0  0  0  0  0  0
  187.8490  177.1940  144.8830 C   0  0  2  0  0  3  0  0  0  0  0  0
  189.1350  177.5690  144.4540 O   0  0  0  0  0  0  0  0  0  0  0  0
  186.7960  178.0670  144.2050 C   0  0  0  0  0  2  0  0  0  0  0  0
  186.8920  177.8730  142.6970 C   0  0  0  0  0  2  0  0  0  0  0  0
  189.2550  177.1800  143.1020 C   0  0  2  0  0  3  0  0  0  0  0  0
  191.3060  175.1720  143.4000 O   0  0  0  0  0  0  0  0  0  0  0  0
  191.5280  176.3450  143.4170 N   0  0  0  0  0  0  0  0  0  0  0  0
  193.2210  176.7580  138.3700 N   0  0  0  0  0  2  0  0  0  0  0  0
  193.2580  174.9670  136.7140 C   0  0  0  0  0  3  0  0  0  0  0  0
  193.7440  173.7360  136.2710 C   0  0  0  0  0  3  0  0  0  0  0  0
  193.6950  175.4750  137.9450 C   0  0  0  0  0  0  0  0  0  0  0  0
  194.6280  174.7550  138.6950 C   0  0  0  0  0  3  0  0  0  0  0  0
  195.0910  173.5300  138.2150 C   0  0  0  0  0  3  0  0  0  0  0  0
  194.6420  173.0520  137.0240 N   0  0  0  0  0  0  0  0  0  0  0  0
  1  2  1  0  0  0  0
  2  4  1  0  0  0  0
  3  2  2  0  0  0  0
  4 39  1  0  0  0  0
  6  7  2  0  0  0  0
  7  8  1  0  0  0  0
  7  5  1  0  0  0  0
  8  3  1  0  0  0  0
  9 10  1  0  0  0  0
  9  1  1  0  0  0  0
 10 11  1  0  0  0  0
 11 13  1  0  0  0  0
 13 12  1  0  0  0  0
 13 16  1  0  0  0  0
 13 14  1  0  0  0  0
 16 15  1  6  0  0  0
 16 17  1  0  0  0  0
 17 18  1  0  0  0  0
 18 19  1  0  0  0  0
 20 19  1  0  0  0  0
 20 21  1  0  0  0  0
 21 22  2  0  0  0  0
 23 21  1  0  0  0  0
 25 27  1  0  0  0  0
 26 27  1  0  0  0  0
 26 23  1  1  0  0  0
 29 24  1  1  0  0  0
 29 31  1  0  0  0  0
 29 30  1  0  0  0  0
 30 32  1  6  0  0  0
 30 26  1  0  0  0  0
 31 28  1  6  0  0  0
 31 25  1  0  0  0  0
 33 34  1  0  0  0  0
 33 32  1  0  0  0  0
 36 35  1  6  0  0  0
 36 38  1  0  0  0  0
 36 37  1  0  0  0  0
 36 34  1  0  0  0  0
 38 37  1  0  0  0  0
 39 54  1  1  0  0  0
 39 41  1  0  0  0  0
 41 40  2  0  0  0  0
 41 42  1  0  0  0  0
 42 44  1  0  0  0  0
 44 43  1  1  0  0  0
 44 53  1  0  0  0  0
 46 50  1  0  0  0  0
 46 51  1  0  0  0  0
 47 45  1  1  0  0  0
 48 47  1  0  0  0  0
 49 47  1  0  0  0  0
 50 49  1  0  0  0  0
 51 44  1  6  0  0  0
 51 48  1  0  0  0  0
 52 53  2  0  0  0  0
 55 57  1  0  0  0  0
 56 55  2  0  0  0  0
 56 60  1  0  0  0  0
 57 54  1  0  0  0  0
 57 58  2  0  0  0  0
 59 58  1  0  0  0  0
 60 59  2  0  0  0  0
M  END
>  <MODEL>
6

>  <REMARK>
 VINA RESULT:      -5.7      3.231      9.914
  Name = 
  24 active torsions:
  status: ('A' for Active; 'I' for Inactive)
    1  A    between atoms: O_3  and  C_5
    2  A    between atoms: O_3  and  C_51
    3  A    between atoms: C_5  and  C_55
    4  A    between atoms: N_7  and  C_12
    5  A    between atoms: C_10  and  C_34
    6  A    between atoms: C_10  and  C_50
    7  A    between atoms: C_11  and  C_55
    8  A    between atoms: C_12  and  C_50
    9  A    between atoms: C_15  and  O_45
   10  A    between atoms: C_15  and  C_51
   11  A    between atoms: C_16  and  C_31
   12  A    between atoms: N_17  and  C_27
   13  A    between atoms: C_19  and  C_36
   14  A    between atoms: N_22  and  C_27
   15  A    between atoms: C_26  and  C_34
   16  A    between atoms: C_26  and  O_45
   17  A    between atoms: C_27  and  C_52
   18  A    between atoms: C_31  and  C_38
   19  A    between atoms: C_33  and  N_56
   20  A    between atoms: N_35  and  N_59
   21  A    between atoms: C_36  and  N_56
   22  A    between atoms: C_36  and  N_58
   23  A    between atoms: C_38  and  O_48
   24  A    between atoms: O_48  and  C_49
                            x       y       z     vdW  Elec       q    Type
                         _______ _______ _______ _____ _____    ______ ____

>  <TORSDO>
F 24

$$$$
=
 OpenBabel10222417433D

 60 63  0  0  1  0  0  0  0  0999 V2000
  189.6240  177.8160  140.7730 N   0  0  0  0  0  2  0  0  0  0  0  0
  190.9360  177.2150  140.7100 C   0  0  0  0  0  0  0  0  0  0  0  0
  191.7480  177.1680  141.7280 N   0  0  0  0  0  0  0  0  0  0  0  0
  191.3950  176.6790  139.4700 N   0  0  0  0  0  2  0  0  0  0  0  0
  191.8830  175.5870  144.0190 O   0  0  0  0  0  0  0  0  0  0  0  0
  191.2360  177.2830  145.4070 O   0  0  0  0  0  1  0  0  0  0  0  0
  191.5250  176.7850  144.1470 C   0  0  0  0  0  0  0  0  0  0  0  0
  191.4260  177.6360  143.0070 N   0  0  0  0  0  2  0  0  0  0  0  0
  189.0250  178.4080  141.9540 C   0  0  0  0  0  2  0  0  0  0  0  0
  187.6120  177.9190  142.1380 C   0  0  0  0  0  2  0  0  0  0  0  0
  186.7820  178.2280  140.9020 C   0  0  0  0  0  2  0  0  0  0  0  0
  184.7630  177.7600  142.0870 F   0  0  0  0  0  0  0  0  0  0  0  0
  185.3780  178.6980  141.2790 C   0  0  0  0  0  0  0  0  0  0  0  0
  185.4720  179.8940  141.9650 F   0  0  0  0  0  0  0  0  0  0  0  0
  185.3080  178.5110  138.7610 C   0  0  0  0  0  1  0  0  0  0  0  0
  184.5340  178.9110  140.0180 C   0  0  1  0  0  3  0  0  0  0  0  0
  183.3310  178.1910  140.0950 O   0  0  0  0  0  0  0  0  0  0  0  0
  183.0050  177.8660  138.7720 C   0  0  0  0  0  2  0  0  0  0  0  0
  182.0790  178.9420  138.2230 C   0  0  0  0  0  2  0  0  0  0  0  0
  180.9780  178.3570  137.5400 O   0  0  0  0  0  0  0  0  0  0  0  0
  179.9510  177.7180  138.2290 C   0  0  0  0  0  0  0  0  0  0  0  0
  179.8600  176.4540  138.2430 O   0  0  0  0  0  0  0  0  0  0  0  0
  178.9310  178.5530  138.9260 C   0  0  0  0  0  2  0  0  0  0  0  0
  178.9330  180.2450  142.9530 O   0  0  0  0  0  1  0  0  0  0  0  0
  180.1380  177.6160  142.2200 C   0  0  0  0  0  2  0  0  0  0  0  0
  179.2110  178.6600  140.4220 C   0  0  1  0  0  3  0  0  0  0  0  0
  180.0680  177.6140  140.8140 O   0  0  0  0  0  0  0  0  0  0  0  0
  180.9600  178.8440  144.0940 O   0  0  0  0  0  1  0  0  0  0  0  0
  180.1320  180.1100  142.2380 C   0  0  2  0  0  3  0  0  0  0  0  0
  179.8470  180.0250  140.7370 C   0  0  2  0  0  3  0  0  0  0  0  0
  180.8850  178.8590  142.7030 C   0  0  2  0  0  3  0  0  0  0  0  0
  178.9980  181.0670  140.3430 O   0  0  0  0  0  0  0  0  0  0  0  0
  179.8010  181.9110  139.5710 C   0  0  0  0  0  2  0  0  0  0  0  0
  179.1500  182.1840  138.2250 C   0  0  0  0  0  2  0  0  0  0  0  0
  180.3340  181.5310  135.9440 C   0  0  0  0  0  1  0  0  0  0  0  0
  180.1650  182.4790  137.1230 C   0  0  1  0  0  0  0  0  0  0  0  0
  180.5320  183.8970  136.9050 C   0  0  0  0  0  2  0  0  0  0  0  0
  181.3860  182.9990  137.5840 O   0  0  0  0  0  0  0  0  0  0  0  0
  190.5810  176.6370  138.2620 C   0  0  1  0  0  3  0  0  0  0  0  0
  191.1560  176.8110  135.9610 O   0  0  0  0  0  0  0  0  0  0  0  0
  191.4640  176.3490  137.0940 C   0  0  0  0  0  0  0  0  0  0  0  0
  192.6680  175.5880  137.2690 N   0  0  0  0  0  2  0  0  0  0  0  0
  194.0860  176.7370  135.8160 O   0  0  0  0  0  1  0  0  0  0  0  0
  193.7070  175.4600  136.2490 C   0  0  1  0  0  0  0  0  0  0  0  0
  198.4300  174.8380  135.9920 C   0  0  0  0  0  1  0  0  0  0  0  0
  194.9230  174.8100  138.3880 C   0  0  0  0  0  2  0  0  0  0  0  0
  197.1590  174.4030  136.7030 C   0  0  2  0  0  3  0  0  0  0  0  0
  196.1190  175.2810  136.3490 O   0  0  0  0  0  0  0  0  0  0  0  0
  197.3940  174.4520  138.2110 C   0  0  0  0  0  2  0  0  0  0  0  0
  196.1170  174.0220  138.9220 C   0  0  0  0  0  2  0  0  0  0  0  0
  194.9200  174.7350  136.8520 C   0  0  2  0  0  3  0  0  0  0  0  0
  193.5010  173.5620  134.9630 O   0  0  0  0  0  0  0  0  0  0  0  0
  193.1840  174.6990  135.1350 N   0  0  0  0  0  0  0  0  0  0  0  0
  189.5440  175.6180  138.3970 N   0  0  0  0  0  2  0  0  0  0  0  0
  189.3060  173.7380  136.8590 C   0  0  0  0  0  3  0  0  0  0  0  0
  188.6460  173.1160  135.7980 C   0  0  0  0  0  3  0  0  0  0  0  0
  188.8850  175.0070  137.2810 C   0  0  0  0  0  0  0  0  0  0  0  0
  187.7980  175.6160  136.6510 C   0  0  0  0  0  3  0  0  0  0  0  0
  187.1640  174.9600  135.5960 C   0  0  0  0  0  3  0  0  0  0  0  0
  187.5980  173.7350  135.1970 N   0  0  0  0  0  0  0  0  0  0  0  0
  1  9  1  0  0  0  0
  2  1  1  0  0  0  0
  2  3  2  0  0  0  0
  3  8  1  0  0  0  0
  4  2  1  0  0  0  0
  5  7  2  0  0  0  0
  7  6  1  0  0  0  0
  8  7  1  0  0  0  0
  9 10  1  0  0  0  0
 11 13  1  0  0  0  0
 11 10  1  0  0  0  0
 13 14  1  0  0  0  0
 13 12  1  0  0  0  0
 16 15  1  6  0  0  0
 16 17  1  0  0  0  0
 16 13  1  0  0  0  0
 18 17  1  0  0  0  0
 19 18  1  0  0  0  0
 20 19  1  0  0  0  0
 20 21  1  0  0  0  0
 21 22  2  0  0  0  0
 21 23  1  0  0  0  0
 25 31  1  0  0  0  0
 26 23  1  6  0  0  0
 26 30  1  0  0  0  0
 26 27  1  0  0  0  0
 27 25  1  0  0  0  0
 29 31  1  0  0  0  0
 29 24  1  1  0  0  0
 30 32  1  1  0  0  0
 30 29  1  0  0  0  0
 31 28  1  1  0  0  0
 33 32  1  0  0  0  0
 34 33  1  0  0  0  0
 36 35  1  6  0  0  0
 36 38  1  0  0  0  0
 36 34  1  0  0  0  0
 37 36  1  0  0  0  0
 37 38  1  0  0  0  0
 39 41  1  6  0  0  0
 39 54  1  0  0  0  0
 39  4  1  0  0  0  0
 40 41  2  0  0  0  0
 41 42  1  0  0  0  0
 44 43  1  6  0  0  0
 44 42  1  0  0  0  0
 46 50  1  0  0  0  0
 47 45  1  6  0  0  0
 47 49  1  0  0  0  0
 48 47  1  0  0  0  0
 48 51  1  0  0  0  0
 49 50  1  0  0  0  0
 51 44  1  6  0  0  0
 51 46  1  0  0  0  0
 52 53  2  0  0  0  0
 53 44  1  0  0  0  0
 55 57  1  0  0  0  0
 56 55  2  0  0  0  0
 57 54  1  0  0  0  0
 58 57  2  0  0  0  0
 59 58  1  0  0  0  0
 60 59  2  0  0  0  0
 60 56  1  0  0  0  0
M  END
>  <MODEL>
7

>  <REMARK>
 VINA RESULT:      -5.7      3.732     10.665
  Name = 
  24 active torsions:
  status: ('A' for Active; 'I' for Inactive)
    1  A    between atoms: O_3  and  C_5
    2  A    between atoms: O_3  and  C_51
    3  A    between atoms: C_5  and  C_55
    4  A    between atoms: N_7  and  C_12
    5  A    between atoms: C_10  and  C_34
    6  A    between atoms: C_10  and  C_50
    7  A    between atoms: C_11  and  C_55
    8  A    between atoms: C_12  and  C_50
    9  A    between atoms: C_15  and  O_45
   10  A    between atoms: C_15  and  C_51
   11  A    between atoms: C_16  and  C_31
   12  A    between atoms: N_17  and  C_27
   13  A    between atoms: C_19  and  C_36
   14  A    between atoms: N_22  and  C_27
   15  A    between atoms: C_26  and  C_34
   16  A    between atoms: C_26  and  O_45
   17  A    between atoms: C_27  and  C_52
   18  A    between atoms: C_31  and  C_38
   19  A    between atoms: C_33  and  N_56
   20  A    between atoms: N_35  and  N_59
   21  A    between atoms: C_36  and  N_56
   22  A    between atoms: C_36  and  N_58
   23  A    between atoms: C_38  and  O_48
   24  A    between atoms: O_48  and  C_49
                            x       y       z     vdW  Elec       q    Type
                         _______ _______ _______ _____ _____    ______ ____

>  <TORSDO>
F 24

$$$$
=
 OpenBabel10222417433D

 60 63  0  0  1  0  0  0  0  0999 V2000
  190.1500  176.4230  137.0560 N   0  0  0  0  0  2  0  0  0  0  0  0
  189.4490  176.5010  135.7950 C   0  0  0  0  0  0  0  0  0  0  0  0
  188.4210  177.2790  135.5990 N   0  0  0  0  0  0  0  0  0  0  0  0
  189.8620  175.6630  134.7180 N   0  0  0  0  0  2  0  0  0  0  0  0
  185.8570  177.0830  136.6730 O   0  0  0  0  0  0  0  0  0  0  0  0
  186.1390  178.8800  138.0560 O   0  0  0  0  0  1  0  0  0  0  0  0
  186.6010  178.0100  137.0810 C   0  0  0  0  0  0  0  0  0  0  0  0
  187.9170  178.1660  136.5570 N   0  0  0  0  0  2  0  0  0  0  0  0
  189.8420  177.2010  138.2400 C   0  0  0  0  0  2  0  0  0  0  0  0
  190.1730  176.4260  139.4890 C   0  0  0  0  0  2  0  0  0  0  0  0
  190.9170  177.3110  140.4760 C   0  0  0  0  0  2  0  0  0  0  0  0
  190.7740  178.3140  142.6390 F   0  0  0  0  0  0  0  0  0  0  0  0
  190.0210  177.7120  141.6480 C   0  0  0  0  0  0  0  0  0  0  0  0
  189.0660  178.6040  141.2000 F   0  0  0  0  0  0  0  0  0  0  0  0
  189.9970  176.0100  143.5140 C   0  0  0  0  0  1  0  0  0  0  0  0
  189.3200  176.4770  142.2250 C   0  0  1  0  0  3  0  0  0  0  0  0
  187.9610  176.7390  142.4600 O   0  0  0  0  0  0  0  0  0  0  0  0
  187.8710  177.0570  143.8210 C   0  0  0  0  0  2  0  0  0  0  0  0
  186.6910  177.9950  144.0230 C   0  0  0  0  0  2  0  0  0  0  0  0
  185.6320  177.6700  143.1310 O   0  0  0  0  0  0  0  0  0  0  0  0
  185.2050  178.5650  142.1550 C   0  0  0  0  0  0  0  0  0  0  0  0
  185.6660  179.7450  142.1020 O   0  0  0  0  0  0  0  0  0  0  0  0
  184.1620  178.1210  141.1860 C   0  0  0  0  0  2  0  0  0  0  0  0
  179.8030  177.9000  141.3810 O   0  0  0  0  0  1  0  0  0  0  0  0
  181.5470  178.9270  143.5730 C   0  0  0  0  0  2  0  0  0  0  0  0
  182.7560  178.2700  141.7590 C   0  0  1  0  0  3  0  0  0  0  0  0
  182.8160  178.9890  142.9690 O   0  0  0  0  0  0  0  0  0  0  0  0
  179.2910  179.6790  143.3680 O   0  0  0  0  0  1  0  0  0  0  0  0
  180.4520  179.1440  141.3430 C   0  0  2  0  0  3  0  0  0  0  0  0
  181.8530  178.9940  140.7460 C   0  0  2  0  0  3  0  0  0  0  0  0
  180.5400  179.7350  142.7530 C   0  0  2  0  0  3  0  0  0  0  0  0
  181.7950  178.2810  139.5410 O   0  0  0  0  0  0  0  0  0  0  0  0
  182.0680  179.2300  138.5520 C   0  0  0  0  0  2  0  0  0  0  0  0
  181.9740  178.6020  137.1700 C   0  0  0  0  0  2  0  0  0  0  0  0
  179.6550  179.8770  137.0060 C   0  0  0  0  0  1  0  0  0  0  0  0
  180.6020  178.7870  136.5250 C   0  0  1  0  0  0  0  0  0  0  0  0
  180.4460  178.3280  135.1270 C   0  0  0  0  0  2  0  0  0  0  0  0
  179.9400  177.5860  136.2170 O   0  0  0  0  0  0  0  0  0  0  0  0
  191.0120  174.7710  134.7890 C   0  0  1  0  0  3  0  0  0  0  0  0
  192.3620  176.7190  134.5940 O   0  0  0  0  0  0  0  0  0  0  0  0
  192.2290  175.5740  135.1070 C   0  0  0  0  0  0  0  0  0  0  0  0
  193.2140  175.0630  136.0160 N   0  0  0  0  0  2  0  0  0  0  0  0
  193.7970  176.6990  137.5730 O   0  0  0  0  0  1  0  0  0  0  0  0
  194.3050  175.8640  136.5700 C   0  0  1  0  0  0  0  0  0  0  0  0
  195.2570  171.4020  137.9670 C   0  0  0  0  0  1  0  0  0  0  0  0
  196.7280  175.0940  136.4690 C   0  0  0  0  0  2  0  0  0  0  0  0
  195.8070  172.8150  137.8700 C   0  0  2  0  0  3  0  0  0  0  0  0
  194.9480  173.5820  137.0640 O   0  0  0  0  0  0  0  0  0  0  0  0
  197.2000  172.7620  137.2450 C   0  0  0  0  0  2  0  0  0  0  0  0
  197.7490  174.1800  137.1430 C   0  0  0  0  0  2  0  0  0  0  0  0
  195.3670  174.9260  137.1640 C   0  0  2  0  0  3  0  0  0  0  0  0
  195.1150  177.8230  135.6740 O   0  0  0  0  0  0  0  0  0  0  0  0
  194.8880  176.6620  135.5140 N   0  0  0  0  0  0  0  0  0  0  0  0
  190.7830  173.7470  135.8050 N   0  0  0  0  0  2  0  0  0  0  0  0
  188.6700  173.0720  136.8210 C   0  0  0  0  0  3  0  0  0  0  0  0
  187.5270  172.2690  136.8250 C   0  0  0  0  0  3  0  0  0  0  0  0
  189.6340  172.8900  135.8210 C   0  0  0  0  0  0  0  0  0  0  0  0
  189.4250  171.9290  134.8300 C   0  0  0  0  0  3  0  0  0  0  0  0
  188.2690  171.1500  134.8670 C   0  0  0  0  0  3  0  0  0  0  0  0
  187.3550  171.3350  135.8550 N   0  0  0  0  0  0  0  0  0  0  0  0
  1  9  1  0  0  0  0
  2  1  1  0  0  0  0
  3  2  2  0  0  0  0
  3  8  1  0  0  0  0
  4  2  1  0  0  0  0
  5  7  2  0  0  0  0
  7  6  1  0  0  0  0
  8  7  1  0  0  0  0
  9 10  1  0  0  0  0
 10 11  1  0  0  0  0
 11 13  1  0  0  0  0
 13 16  1  0  0  0  0
 13 12  1  0  0  0  0
 14 13  1  0  0  0  0
 16 17  1  0  0  0  0
 16 15  1  1  0  0  0
 17 18  1  0  0  0  0
 18 19  1  0  0  0  0
 20 19  1  0  0  0  0
 21 20  1  0  0  0  0
 22 21  2  0  0  0  0
 23 21  1  0  0  0  0
 26 23  1  6  0  0  0
 26 27  1  0  0  0  0
 27 25  1  0  0  0  0
 29 24  1  1  0  0  0
 29 31  1  0  0  0  0
 30 32  1  6  0  0  0
 30 29  1  0  0  0  0
 30 26  1  0  0  0  0
 31 28  1  1  0  0  0
 31 25  1  0  0  0  0
 33 32  1  0  0  0  0
 34 33  1  0  0  0  0
 36 35  1  1  0  0  0
 36 34  1  0  0  0  0
 37 38  1  0  0  0  0
 37 36  1  0  0  0  0
 38 36  1  0  0  0  0
 39  4  1  1  0  0  0
 39 41  1  0  0  0  0
 39 54  1  0  0  0  0
 40 41  2  0  0  0  0
 41 42  1  0  0  0  0
 42 44  1  0  0  0  0
 44 43  1  1  0  0  0
 46 50  1  0  0  0  0
 46 51  1  0  0  0  0
 47 45  1  6  0  0  0
 48 51  1  0  0  0  0
 48 47  1  0  0  0  0
 49 47  1  0  0  0  0
 50 49  1  0  0  0  0
 51 44  1  6  0  0  0
 53 52  2  0  0  0  0
 53 44  1  0  0  0  0
 54 57  1  0  0  0  0
 55 56  1  0  0  0  0
 57 55  2  0  0  0  0
 58 59  2  0  0  0  0
 58 57  1  0  0  0  0
 59 60  1  0  0  0  0
 60 56  2  0  0  0  0
M  END
>  <MODEL>
8

>  <REMARK>
 VINA RESULT:      -5.6      3.703     10.062
  Name = 
  24 active torsions:
  status: ('A' for Active; 'I' for Inactive)
    1  A    between atoms: O_3  and  C_5
    2  A    between atoms: O_3  and  C_51
    3  A    between atoms: C_5  and  C_55
    4  A    between atoms: N_7  and  C_12
    5  A    between atoms: C_10  and  C_34
    6  A    between atoms: C_10  and  C_50
    7  A    between atoms: C_11  and  C_55
    8  A    between atoms: C_12  and  C_50
    9  A    between atoms: C_15  and  O_45
   10  A    between atoms: C_15  and  C_51
   11  A    between atoms: C_16  and  C_31
   12  A    between atoms: N_17  and  C_27
   13  A    between atoms: C_19  and  C_36
   14  A    between atoms: N_22  and  C_27
   15  A    between atoms: C_26  and  C_34
   16  A    between atoms: C_26  and  O_45
   17  A    between atoms: C_27  and  C_52
   18  A    between atoms: C_31  and  C_38
   19  A    between atoms: C_33  and  N_56
   20  A    between atoms: N_35  and  N_59
   21  A    between atoms: C_36  and  N_56
   22  A    between atoms: C_36  and  N_58
   23  A    between atoms: C_38  and  O_48
   24  A    between atoms: O_48  and  C_49
                            x       y       z     vdW  Elec       q    Type
                         _______ _______ _______ _____ _____    ______ ____

>  <TORSDO>
F 24

$$$$
=
 OpenBabel10222417433D

 60 63  0  0  1  0  0  0  0  0999 V2000
  189.9910  175.7050  138.7670 N   0  0  0  0  0  2  0  0  0  0  0  0
  191.1140  176.5420  139.1190 C   0  0  0  0  0  0  0  0  0  0  0  0
  192.1400  176.7240  138.3350 N   0  0  0  0  0  0  0  0  0  0  0  0
  191.1350  177.1740  140.3970 N   0  0  0  0  0  2  0  0  0  0  0  0
  193.8490  174.6190  137.6930 O   0  0  0  0  0  1  0  0  0  0  0  0
  193.1900  174.5560  135.5060 O   0  0  0  0  0  0  0  0  0  0  0  0
  193.1300  175.0980  136.7800 C   0  0  0  0  0  0  0  0  0  0  0  0
  192.2470  176.1840  137.0480 N   0  0  0  0  0  2  0  0  0  0  0  0
  189.8320  174.9920  137.5140 C   0  0  0  0  0  2  0  0  0  0  0  0
  188.8210  175.6810  136.6330 C   0  0  0  0  0  2  0  0  0  0  0  0
  187.7190  174.7100  136.2380 C   0  0  0  0  0  2  0  0  0  0  0  0
  186.3000  175.7200  134.6040 F   0  0  0  0  0  0  0  0  0  0  0  0
  186.4090  175.4440  135.9540 C   0  0  0  0  0  0  0  0  0  0  0  0
  185.3510  174.6440  136.3390 F   0  0  0  0  0  0  0  0  0  0  0  0
  187.1100  177.8700  136.0170 C   0  0  0  0  0  1  0  0  0  0  0  0
  186.3560  176.7560  136.7440 C   0  0  1  0  0  3  0  0  0  0  0  0
  185.0260  177.1460  136.9750 O   0  0  0  0  0  0  0  0  0  0  0  0
  184.3610  175.9810  137.3800 C   0  0  0  0  0  2  0  0  0  0  0  0
  183.2610  176.3660  138.3580 C   0  0  0  0  0  2  0  0  0  0  0  0
  181.9860  176.3000  137.7330 O   0  0  0  0  0  0  0  0  0  0  0  0
  180.8930  175.7230  138.3720 C   0  0  0  0  0  0  0  0  0  0  0  0
  180.9730  174.5690  138.8910 O   0  0  0  0  0  0  0  0  0  0  0  0
  179.6050  176.4740  138.4030 C   0  0  0  0  0  2  0  0  0  0  0  0
  179.1310  180.4200  140.2160 O   0  0  0  0  0  1  0  0  0  0  0  0
  179.9470  177.9620  141.6970 C   0  0  0  0  0  2  0  0  0  0  0  0
  179.6010  177.5490  139.4850 C   0  0  1  0  0  3  0  0  0  0  0  0
  180.1550  177.0240  140.6690 O   0  0  0  0  0  0  0  0  0  0  0  0
  180.6000  180.1200  142.4800 O   0  0  0  0  0  1  0  0  0  0  0  0
  180.4010  179.8330  140.1110 C   0  0  2  0  0  3  0  0  0  0  0  0
  180.4050  178.7710  139.0100 C   0  0  2  0  0  3  0  0  0  0  0  0
  180.8030  179.2050  141.4500 C   0  0  2  0  0  3  0  0  0  0  0  0
  179.8580  179.2910  137.8300 O   0  0  0  0  0  0  0  0  0  0  0  0
  180.9310  179.9030  137.1760 C   0  0  0  0  0  2  0  0  0  0  0  0
  180.4300  180.8400  136.0890 C   0  0  0  0  0  2  0  0  0  0  0  0
  181.0580  182.7250  137.8450 C   0  0  0  0  0  1  0  0  0  0  0  0
  180.5790  182.3140  136.4600 C   0  0  1  0  0  0  0  0  0  0  0  0
  180.8190  183.2670  135.3530 C   0  0  0  0  0  2  0  0  0  0  0  0
  179.5540  183.1410  135.9690 O   0  0  0  0  0  0  0  0  0  0  0  0
  190.0440  177.0820  141.3580 C   0  0  1  0  0  3  0  0  0  0  0  0
  191.6390  176.1110  142.8310 O   0  0  0  0  0  0  0  0  0  0  0  0
  190.6130  176.8370  142.7160 C   0  0  0  0  0  0  0  0  0  0  0  0
  190.0220  177.4540  143.8680 N   0  0  0  0  0  2  0  0  0  0  0  0
  191.7470  178.3330  145.1710 O   0  0  0  0  0  1  0  0  0  0  0  0
  190.6430  177.4710  145.1920 C   0  0  1  0  0  0  0  0  0  0  0  0
  186.0050  178.1040  146.1170 C   0  0  0  0  0  1  0  0  0  0  0  0
  189.9150  177.4210  147.6300 C   0  0  0  0  0  2  0  0  0  0  0  0
  187.4150  178.3080  146.6470 C   0  0  2  0  0  3  0  0  0  0  0  0
  188.3130  177.5910  145.8370 O   0  0  0  0  0  0  0  0  0  0  0  0
  187.4820  177.7950  148.0840 C   0  0  0  0  0  2  0  0  0  0  0  0
  188.8970  177.9960  148.6130 C   0  0  0  0  0  2  0  0  0  0  0  0
  189.6170  177.9660  146.2230 C   0  0  2  0  0  3  0  0  0  0  0  0
  192.0830  175.9430  146.1360 O   0  0  0  0  0  0  0  0  0  0  0  0
  191.0720  176.1310  145.5290 N   0  0  0  0  0  0  0  0  0  0  0  0
  189.2580  178.3130  141.3360 N   0  0  0  0  0  2  0  0  0  0  0  0
  186.9980  178.2420  142.2530 C   0  0  0  0  0  3  0  0  0  0  0  0
  185.6150  178.3090  142.0760 C   0  0  0  0  0  3  0  0  0  0  0  0
  187.8390  178.3420  141.1360 C   0  0  0  0  0  0  0  0  0  0  0  0
  187.2830  178.5330  139.8700 C   0  0  0  0  0  3  0  0  0  0  0  0
  185.8960  178.5980  139.7360 C   0  0  0  0  0  3  0  0  0  0  0  0
  185.1000  178.4850  140.8320 N   0  0  0  0  0  0  0  0  0  0  0  0
  1  2  1  0  0  0  0
  2  4  1  0  0  0  0
  3  2  2  0  0  0  0
  6  7  2  0  0  0  0
  7  8  1  0  0  0  0
  7  5  1  0  0  0  0
  8  3  1  0  0  0  0
  9  1  1  0  0  0  0
 10  9  1  0  0  0  0
 11 10  1  0  0  0  0
 12 13  1  0  0  0  0
 13 11  1  0  0  0  0
 13 14  1  0  0  0  0
 13 16  1  0  0  0  0
 16 15  1  6  0  0  0
 16 17  1  0  0  0  0
 17 18  1  0  0  0  0
 18 19  1  0  0  0  0
 20 19  1  0  0  0  0
 20 21  1  0  0  0  0
 21 23  1  0  0  0  0
 21 22  2  0  0  0  0
 26 23  1  6  0  0  0
 26 27  1  0  0  0  0
 27 25  1  0  0  0  0
 29 24  1  1  0  0  0
 29 31  1  0  0  0  0
 30 32  1  6  0  0  0
 30 26  1  0  0  0  0
 30 29  1  0  0  0  0
 31 25  1  0  0  0  0
 31 28  1  1  0  0  0
 33 32  1  0  0  0  0
 34 36  1  0  0  0  0
 34 33  1  0  0  0  0
 36 35  1  1  0  0  0
 37 38  1  0  0  0  0
 37 36  1  0  0  0  0
 38 36  1  0  0  0  0
 39  4  1  6  0  0  0
 39 41  1  0  0  0  0
 41 40  2  0  0  0  0
 41 42  1  0  0  0  0
 42 44  1  0  0  0  0
 44 43  1  6  0  0  0
 44 53  1  0  0  0  0
 46 50  1  0  0  0  0
 47 45  1  6  0  0  0
 47 49  1  0  0  0  0
 48 51  1  0  0  0  0
 48 47  1  0  0  0  0
 49 50  1  0  0  0  0
 51 44  1  6  0  0  0
 51 46  1  0  0  0  0
 53 52  2  0  0  0  0
 54 39  1  0  0  0  0
 56 55  1  0  0  0  0
 57 54  1  0  0  0  0
 57 55  2  0  0  0  0
 58 57  1  0  0  0  0
 59 58  2  0  0  0  0
 59 60  1  0  0  0  0
 60 56  2  0  0  0  0
M  END
>  <MODEL>
9

>  <REMARK>
 VINA RESULT:      -5.6      3.282     10.292
  Name = 
  24 active torsions:
  status: ('A' for Active; 'I' for Inactive)
    1  A    between atoms: O_3  and  C_5
    2  A    between atoms: O_3  and  C_51
    3  A    between atoms: C_5  and  C_55
    4  A    between atoms: N_7  and  C_12
    5  A    between atoms: C_10  and  C_34
    6  A    between atoms: C_10  and  C_50
    7  A    between atoms: C_11  and  C_55
    8  A    between atoms: C_12  and  C_50
    9  A    between atoms: C_15  and  O_45
   10  A    between atoms: C_15  and  C_51
   11  A    between atoms: C_16  and  C_31
   12  A    between atoms: N_17  and  C_27
   13  A    between atoms: C_19  and  C_36
   14  A    between atoms: N_22  and  C_27
   15  A    between atoms: C_26  and  C_34
   16  A    between atoms: C_26  and  O_45
   17  A    between atoms: C_27  and  C_52
   18  A    between atoms: C_31  and  C_38
   19  A    between atoms: C_33  and  N_56
   20  A    between atoms: N_35  and  N_59
   21  A    between atoms: C_36  and  N_56
   22  A    between atoms: C_36  and  N_58
   23  A    between atoms: C_38  and  O_48
   24  A    between atoms: O_48  and  C_49
                            x       y       z     vdW  Elec       q    Type
                         _______ _______ _______ _____ _____    ______ ____

>  <TORSDO>
F 24

$$$$
