=
 OpenBabel10222421063D

 29 32  0  0  1  0  0  0  0  0999 V2000
  188.6000  177.2940  144.6790 C   0  0  2  0  0  0  0  0  0  0  0  0
  189.3670  177.5360  143.3760 C   0  0  1  0  0  3  0  0  0  0  0  0
  188.7000  176.1940  143.6380 C   0  0  0  0  0  2  0  0  0  0  0  0
  185.6250  179.1140  146.1920 C   0  0  0  0  0  3  0  0  0  0  0  0
  187.2260  177.8770  144.8750 C   0  0  0  0  0  0  0  0  0  0  0  0
  184.7280  179.0310  145.1730 N   0  0  0  0  0  0  0  0  0  0  0  0
  186.8920  178.5440  146.0600 C   0  0  0  0  0  3  0  0  0  0  0  0
  185.0300  178.4010  144.0050 C   0  0  0  0  0  0  0  0  0  0  0  0
  186.2940  177.8210  143.8350 C   0  0  0  0  0  3  0  0  0  0  0  0
  184.0110  178.3500  142.9140 C   0  0  2  0  0  3  0  0  0  0  0  0
  184.4620  179.0600  141.7990 O   0  0  0  0  0  1  0  0  0  0  0  0
  182.6830  178.9130  143.3960 C   0  0  0  0  0  2  0  0  0  0  0  0
  181.6630  178.8860  142.2750 C   0  0  0  0  0  1  0  0  0  0  0  0
  188.8620  176.8490  147.0820 C   0  0  0  0  0  2  0  0  0  0  0  0
  189.4430  177.0560  145.8980 C   0  0  0  0  0  0  0  0  0  0  0  0
  190.9270  176.9310  145.7650 C   0  0  0  0  0  2  0  0  0  0  0  0
  191.5440  176.8850  147.0800 N   0  0  0  0  0  2  0  0  0  0  0  0
  192.3230  175.6620  147.1330 C   0  0  0  0  0  1  0  0  0  0  0  0
  188.4190  178.4290  142.0990 S   0  0  0  0  0  0  0  0  0  0  0  0
  191.0810  176.6400  139.6770 C   0  0  0  0  0  3  0  0  0  0  0  0
  190.2330  177.2060  137.3690 C   0  0  0  0  0  2  0  0  0  0  0  0
  187.2220  179.2260  136.6920 N   0  0  0  0  0  1  0  0  0  0  0  0
  190.5720  176.9840  140.9390 C   0  0  0  0  0  2  0  0  0  0  0  0
  188.2390  178.5440  137.4160 C   0  0  0  0  0  0  0  0  0  0  0  0
  190.2330  177.2100  138.7520 C   0  0  0  0  0  0  0  0  0  0  0  0
  189.2030  177.9040  139.4390 C   0  0  0  0  0  0  0  0  0  0  0  0
  189.2280  177.8790  136.7340 N   0  0  0  0  0  0  0  0  0  0  0  0
  189.4220  177.7560  140.7800 C   0  0  0  0  0  0  0  0  0  0  0  0
  188.2200  178.5610  138.7830 N   0  0  0  0  0  2  0  0  0  0  0  0
  1  5  1  0  0  0  0
  1 15  1  1  0  0  0
  2 19  1  6  0  0  0
  2  3  1  0  0  0  0
  2  1  1  0  0  0  0
  3  1  1  0  0  0  0
  5  7  2  0  0  0  0
  6  4  2  0  0  0  0
  7  4  1  0  0  0  0
  8  6  1  0  0  0  0
  9  8  2  0  0  0  0
  9  5  1  0  0  0  0
 10 11  1  6  0  0  0
 10 12  1  0  0  0  0
 10  8  1  0  0  0  0
 13 12  1  0  0  0  0
 15 14  2  0  0  0  0
 16 15  1  0  0  0  0
 16 17  1  0  0  0  0
 17 18  1  0  0  0  0
 20 23  1  0  0  0  0
 21 25  1  0  0  0  0
 22 24  1  0  0  0  0
 24 29  1  0  0  0  0
 25 26  1  0  0  0  0
 25 20  2  0  0  0  0
 26 28  2  0  0  0  0
 27 21  1  0  0  0  0
 27 24  2  0  0  0  0
 28 23  1  0  0  0  0
 28 19  1  0  0  0  0
 29 26  1  0  0  0  0
M  END
>  <MODEL>
1

>  <REMARK>
 VINA RESULT:      -8.7      0.000      0.000
  Name = 
  8 active torsions:
  status: ('A' for Active; 'I' for Inactive)
    1  A    between atoms: C_1  and  C_17
    2  A    between atoms: C_1  and  C_26
    3  A    between atoms: N_2  and  C_28
    4  A    between atoms: C_4  and  C_9
    5  A    between atoms: C_4  and  C_25
    6  A    between atoms: C_6  and  S_16
    7  A    between atoms: S_16  and  C_20
    8  A    between atoms: C_25  and  C_28
                            x       y       z     vdW  Elec       q    Type
                         _______ _______ _______ _____ _____    ______ ____

>  <TORSDO>
F 8

$$$$
=
 OpenBabel10222421063D

 29 32  0  0  1  0  0  0  0  0999 V2000
  189.8760  177.2830  143.3300 C   0  0  2  0  0  0  0  0  0  0  0  0
  190.2500  177.3120  141.8450 C   0  0  1  0  0  3  0  0  0  0  0  0
  190.0440  175.9860  142.5600 C   0  0  0  0  0  2  0  0  0  0  0  0
  186.1200  177.8670  143.2930 C   0  0  0  0  0  3  0  0  0  0  0  0
  188.4710  177.5980  143.7700 C   0  0  0  0  0  0  0  0  0  0  0  0
  185.8810  178.0770  144.6150 N   0  0  0  0  0  0  0  0  0  0  0  0
  187.4180  177.6180  142.8470 C   0  0  0  0  0  3  0  0  0  0  0  0
  186.8810  178.0490  145.5360 C   0  0  0  0  0  0  0  0  0  0  0  0
  188.1970  177.7970  145.1260 C   0  0  0  0  0  3  0  0  0  0  0  0
  186.5590  178.2750  146.9780 C   0  0  2  0  0  3  0  0  0  0  0  0
  185.6040  179.2860  147.1050 O   0  0  0  0  0  1  0  0  0  0  0  0
  187.8150  178.6350  147.7560 C   0  0  0  0  0  2  0  0  0  0  0  0
  188.0780  177.6010  148.8350 C   0  0  0  0  0  1  0  0  0  0  0  0
  191.4220  178.8230  144.4620 C   0  0  0  0  0  2  0  0  0  0  0  0
  190.9940  177.5710  144.2900 C   0  0  0  0  0  0  0  0  0  0  0  0
  191.5460  176.4720  145.1420 C   0  0  0  0  0  2  0  0  0  0  0  0
  191.7480  176.9480  146.5000 N   0  0  0  0  0  2  0  0  0  0  0  0
  192.1740  175.8030  147.2840 C   0  0  0  0  0  1  0  0  0  0  0  0
  188.8430  177.6030  140.7200 S   0  0  0  0  0  0  0  0  0  0  0  0
  191.5490  176.4790  137.9700 C   0  0  0  0  0  3  0  0  0  0  0  0
  190.2600  176.6150  135.8040 C   0  0  0  0  0  2  0  0  0  0  0  0
  186.7270  177.6390  135.5410 N   0  0  0  0  0  1  0  0  0  0  0  0
  191.1420  176.7520  139.2840 C   0  0  0  0  0  2  0  0  0  0  0  0
  187.9900  177.3290  136.1200 C   0  0  0  0  0  0  0  0  0  0  0  0
  190.4520  176.7170  137.1700 C   0  0  0  0  0  0  0  0  0  0  0  0
  189.3700  177.1350  137.9880 C   0  0  0  0  0  0  0  0  0  0  0  0
  189.0250  176.9260  135.3120 N   0  0  0  0  0  0  0  0  0  0  0  0
  189.8060  177.1510  139.2830 C   0  0  0  0  0  0  0  0  0  0  0  0
  188.1570  177.4370  137.4720 N   0  0  0  0  0  2  0  0  0  0  0  0
  1  5  1  0  0  0  0
  1 15  1  1  0  0  0
  2 19  1  6  0  0  0
  2  3  1  0  0  0  0
  2  1  1  0  0  0  0
  3  1  1  0  0  0  0
  4  6  1  0  0  0  0
  5  9  2  0  0  0  0
  6  8  2  0  0  0  0
  7  4  2  0  0  0  0
  7  5  1  0  0  0  0
  8 10  1  0  0  0  0
  9  8  1  0  0  0  0
 10 11  1  6  0  0  0
 10 12  1  0  0  0  0
 12 13  1  0  0  0  0
 15 14  2  0  0  0  0
 15 16  1  0  0  0  0
 16 17  1  0  0  0  0
 17 18  1  0  0  0  0
 20 23  1  0  0  0  0
 21 25  1  0  0  0  0
 22 24  1  0  0  0  0
 24 29  1  0  0  0  0
 25 20  2  0  0  0  0
 25 26  1  0  0  0  0
 26 28  2  0  0  0  0
 27 21  1  0  0  0  0
 27 24  2  0  0  0  0
 28 23  1  0  0  0  0
 28 19  1  0  0  0  0
 29 26  1  0  0  0  0
M  END
>  <MODEL>
2

>  <REMARK>
 VINA RESULT:      -8.6      1.935      3.157
  Name = 
  8 active torsions:
  status: ('A' for Active; 'I' for Inactive)
    1  A    between atoms: C_1  and  C_17
    2  A    between atoms: C_1  and  C_26
    3  A    between atoms: N_2  and  C_28
    4  A    between atoms: C_4  and  C_9
    5  A    between atoms: C_4  and  C_25
    6  A    between atoms: C_6  and  S_16
    7  A    between atoms: S_16  and  C_20
    8  A    between atoms: C_25  and  C_28
                            x       y       z     vdW  Elec       q    Type
                         _______ _______ _______ _____ _____    ______ ____

>  <TORSDO>
F 8

$$$$
=
 OpenBabel10222421063D

 29 32  0  0  1  0  0  0  0  0999 V2000
  189.9570  177.6740  143.5990 C   0  0  2  0  0  0  0  0  0  0  0  0
  188.8350  177.1270  144.4860 C   0  0  1  0  0  3  0  0  0  0  0  0
  188.9220  178.6150  144.1880 C   0  0  0  0  0  2  0  0  0  0  0  0
  190.7280  176.5310  140.0560 C   0  0  0  0  0  3  0  0  0  0  0  0
  189.8980  177.5030  142.1040 C   0  0  0  0  0  0  0  0  0  0  0  0
  189.7120  177.1190  139.3700 N   0  0  0  0  0  0  0  0  0  0  0  0
  190.8370  176.7070  141.4360 C   0  0  0  0  0  3  0  0  0  0  0  0
  188.7780  177.8860  139.9950 C   0  0  0  0  0  0  0  0  0  0  0  0
  188.8520  178.0810  141.3800 C   0  0  0  0  0  3  0  0  0  0  0  0
  187.6750  178.4980  139.1930 C   0  0  2  0  0  3  0  0  0  0  0  0
  186.5360  178.6580  139.9850 O   0  0  0  0  0  1  0  0  0  0  0  0
  187.3580  177.6410  137.9780 C   0  0  0  0  0  2  0  0  0  0  0  0
  187.5530  178.4410  136.7050 C   0  0  0  0  0  1  0  0  0  0  0  0
  191.9820  178.9250  144.2070 C   0  0  0  0  0  2  0  0  0  0  0  0
  191.3080  177.7730  144.2430 C   0  0  0  0  0  0  0  0  0  0  0  0
  191.8470  176.6200  145.0270 C   0  0  0  0  0  2  0  0  0  0  0  0
  191.8270  176.9300  146.4480 N   0  0  0  0  0  2  0  0  0  0  0  0
  192.1880  175.7100  147.1450 C   0  0  0  0  0  1  0  0  0  0  0  0
  187.4240  176.4220  143.5690 S   0  0  0  0  0  0  0  0  0  0  0  0
  185.2080  178.5550  146.1550 C   0  0  0  0  0  3  0  0  0  0  0  0
  183.3180  179.4170  144.7210 C   0  0  0  0  0  2  0  0  0  0  0  0
  182.9460  178.7120  141.1200 N   0  0  0  0  0  1  0  0  0  0  0  0
  186.3050  177.7480  145.8180 C   0  0  0  0  0  2  0  0  0  0  0  0
  183.4890  178.7020  142.4350 C   0  0  0  0  0  0  0  0  0  0  0  0
  184.4830  178.7230  144.9950 C   0  0  0  0  0  0  0  0  0  0  0  0
  185.1290  178.0200  143.9440 C   0  0  0  0  0  0  0  0  0  0  0  0
  182.8490  179.3870  143.4380 N   0  0  0  0  0  0  0  0  0  0  0  0
  186.2470  177.4280  144.4620 C   0  0  0  0  0  0  0  0  0  0  0  0
  184.6420  178.0100  142.6830 N   0  0  0  0  0  2  0  0  0  0  0  0
  1  3  1  0  0  0  0
  1 15  1  1  0  0  0
  1  2  1  0  0  0  0
  2 19  1  6  0  0  0
  3  2  1  0  0  0  0
  4  7  1  0  0  0  0
  5  1  1  0  0  0  0
  6  8  1  0  0  0  0
  6  4  2  0  0  0  0
  7  5  2  0  0  0  0
  8  9  2  0  0  0  0
  9  5  1  0  0  0  0
 10 11  1  1  0  0  0
 10  8  1  0  0  0  0
 12 10  1  0  0  0  0
 13 12  1  0  0  0  0
 14 15  2  0  0  0  0
 15 16  1  0  0  0  0
 16 17  1  0  0  0  0
 17 18  1  0  0  0  0
 19 28  1  0  0  0  0
 21 25  1  0  0  0  0
 22 24  1  0  0  0  0
 23 20  1  0  0  0  0
 24 29  1  0  0  0  0
 24 27  2  0  0  0  0
 25 20  2  0  0  0  0
 26 28  2  0  0  0  0
 26 25  1  0  0  0  0
 27 21  1  0  0  0  0
 28 23  1  0  0  0  0
 29 26  1  0  0  0  0
M  END
>  <MODEL>
3

>  <REMARK>
 VINA RESULT:      -8.6      1.738      5.874
  Name = 
  8 active torsions:
  status: ('A' for Active; 'I' for Inactive)
    1  A    between atoms: C_1  and  C_17
    2  A    between atoms: C_1  and  C_26
    3  A    between atoms: N_2  and  C_28
    4  A    between atoms: C_4  and  C_9
    5  A    between atoms: C_4  and  C_25
    6  A    between atoms: C_6  and  S_16
    7  A    between atoms: S_16  and  C_20
    8  A    between atoms: C_25  and  C_28
                            x       y       z     vdW  Elec       q    Type
                         _______ _______ _______ _____ _____    ______ ____

>  <TORSDO>
F 8

$$$$
=
 OpenBabel10222421063D

 29 32  0  0  1  0  0  0  0  0999 V2000
  189.8090  177.2040  143.7050 C   0  0  2  0  0  0  0  0  0  0  0  0
  189.9270  177.3220  142.1830 C   0  0  1  0  0  3  0  0  0  0  0  0
  189.8510  175.9550  142.8430 C   0  0  0  0  0  2  0  0  0  0  0  0
  187.1920  177.8200  146.3930 C   0  0  0  0  0  3  0  0  0  0  0  0
  188.4960  177.4730  144.3910 C   0  0  0  0  0  0  0  0  0  0  0  0
  186.0950  178.0710  145.6290 N   0  0  0  0  0  0  0  0  0  0  0  0
  188.4130  177.5220  145.7880 C   0  0  0  0  0  3  0  0  0  0  0  0
  186.1490  178.0450  144.2700 C   0  0  0  0  0  0  0  0  0  0  0  0
  187.3590  177.7540  143.6280 C   0  0  0  0  0  3  0  0  0  0  0  0
  184.9150  178.3410  143.4800 C   0  0  2  0  0  3  0  0  0  0  0  0
  185.2000  179.2620  142.4700 O   0  0  0  0  0  1  0  0  0  0  0  0
  183.8160  178.8730  144.3860 C   0  0  0  0  0  2  0  0  0  0  0  0
  182.5180  179.0070  143.6140 C   0  0  0  0  0  1  0  0  0  0  0  0
  191.6180  178.6680  144.4920 C   0  0  0  0  0  2  0  0  0  0  0  0
  191.0700  177.4520  144.4790 C   0  0  0  0  0  0  0  0  0  0  0  0
  191.6470  176.3680  145.3330 C   0  0  0  0  0  2  0  0  0  0  0  0
  191.8480  176.8530  146.6880 N   0  0  0  0  0  2  0  0  0  0  0  0
  192.3210  175.7250  147.4690 C   0  0  0  0  0  1  0  0  0  0  0  0
  188.3500  177.6560  141.3280 S   0  0  0  0  0  0  0  0  0  0  0  0
  190.6290  177.0210  138.0790 C   0  0  0  0  0  3  0  0  0  0  0  0
  188.9550  177.0220  136.1910 C   0  0  0  0  0  2  0  0  0  0  0  0
  185.3260  177.5170  136.6240 N   0  0  0  0  0  1  0  0  0  0  0  0
  190.4390  177.1950  139.4580 C   0  0  0  0  0  2  0  0  0  0  0  0
  186.7050  177.3830  136.9480 C   0  0  0  0  0  0  0  0  0  0  0  0
  189.3800  177.1140  137.5030 C   0  0  0  0  0  0  0  0  0  0  0  0
  188.4210  177.3460  138.5240 C   0  0  0  0  0  0  0  0  0  0  0  0
  187.6180  177.1600  135.9470 N   0  0  0  0  0  0  0  0  0  0  0  0
  189.0830  177.3910  139.7190 C   0  0  0  0  0  0  0  0  0  0  0  0
  187.1030  177.4770  138.2520 N   0  0  0  0  0  2  0  0  0  0  0  0
  1  5  1  0  0  0  0
  1 15  1  1  0  0  0
  2 19  1  6  0  0  0
  2  3  1  0  0  0  0
  2  1  1  0  0  0  0
  3  1  1  0  0  0  0
  5  7  2  0  0  0  0
  6  4  2  0  0  0  0
  7  4  1  0  0  0  0
  8  6  1  0  0  0  0
  9  8  2  0  0  0  0
  9  5  1  0  0  0  0
 10 11  1  6  0  0  0
 10  8  1  0  0  0  0
 10 12  1  0  0  0  0
 13 12  1  0  0  0  0
 15 14  2  0  0  0  0
 15 16  1  0  0  0  0
 16 17  1  0  0  0  0
 17 18  1  0  0  0  0
 20 23  1  0  0  0  0
 21 25  1  0  0  0  0
 22 24  1  0  0  0  0
 23 28  1  0  0  0  0
 24 29  1  0  0  0  0
 25 20  2  0  0  0  0
 25 26  1  0  0  0  0
 26 28  2  0  0  0  0
 27 21  1  0  0  0  0
 27 24  2  0  0  0  0
 28 19  1  0  0  0  0
 29 26  1  0  0  0  0
M  END
>  <MODEL>
4

>  <REMARK>
 VINA RESULT:      -8.6      1.282      1.701
  Name = 
  8 active torsions:
  status: ('A' for Active; 'I' for Inactive)
    1  A    between atoms: C_1  and  C_17
    2  A    between atoms: C_1  and  C_26
    3  A    between atoms: N_2  and  C_28
    4  A    between atoms: C_4  and  C_9
    5  A    between atoms: C_4  and  C_25
    6  A    between atoms: C_6  and  S_16
    7  A    between atoms: S_16  and  C_20
    8  A    between atoms: C_25  and  C_28
                            x       y       z     vdW  Elec       q    Type
                         _______ _______ _______ _____ _____    ______ ____

>  <TORSDO>
F 8

$$$$
=
 OpenBabel10222421063D

 29 32  0  0  1  0  0  0  0  0999 V2000
  189.9520  177.3920  141.0750 C   0  0  2  0  0  0  0  0  0  0  0  0
  189.9510  176.6110  142.3920 C   0  0  1  0  0  3  0  0  0  0  0  0
  190.3050  178.0900  142.3760 C   0  0  0  0  0  2  0  0  0  0  0  0
  187.2000  178.0020  138.5240 C   0  0  0  0  0  3  0  0  0  0  0  0
  188.6550  177.8210  140.4420 C   0  0  0  0  0  0  0  0  0  0  0  0
  186.2260  178.5210  139.3180 N   0  0  0  0  0  0  0  0  0  0  0  0
  188.4300  177.6370  139.0720 C   0  0  0  0  0  3  0  0  0  0  0  0
  186.4110  178.6980  140.6540 C   0  0  0  0  0  0  0  0  0  0  0  0
  187.6310  178.3380  141.2410 C   0  0  0  0  0  3  0  0  0  0  0  0
  185.3010  179.2620  141.4810 C   0  0  2  0  0  3  0  0  0  0  0  0
  185.8190  180.0660  142.4980 O   0  0  0  0  0  1  0  0  0  0  0  0
  184.4540  178.1450  142.0710 C   0  0  0  0  0  2  0  0  0  0  0  0
  184.0460  178.4900  143.4910 C   0  0  0  0  0  1  0  0  0  0  0  0
  192.3210  177.6640  140.4830 C   0  0  0  0  0  2  0  0  0  0  0  0
  191.1290  177.1520  140.1750 C   0  0  0  0  0  0  0  0  0  0  0  0
  190.9920  176.2400  138.9980 C   0  0  0  0  0  2  0  0  0  0  0  0
  192.2260  176.2280  138.2300 N   0  0  0  0  0  2  0  0  0  0  0  0
  191.8480  176.1080  136.8340 C   0  0  0  0  0  1  0  0  0  0  0  0
  188.3020  176.4040  143.1450 S   0  0  0  0  0  0  0  0  0  0  0  0
  190.3060  177.1120  146.5560 C   0  0  0  0  0  3  0  0  0  0  0  0
  188.5570  178.1550  148.0470 C   0  0  0  0  0  3  0  0  0  0  0  0
  185.0590  178.7600  147.0480 N   0  0  0  0  0  1  0  0  0  0  0  0
  190.2110  176.6480  145.2360 C   0  0  0  0  0  3  0  0  0  0  0  0
  186.4190  178.3510  146.9710 C   0  0  0  0  0  0  0  0  0  0  0  0
  189.0550  177.5840  146.8900 C   0  0  0  0  0  0  0  0  0  0  0  0
  188.1880  177.4110  145.7790 C   0  0  0  0  0  0  0  0  0  0  0  0
  187.2420  178.5260  148.0560 N   0  0  0  0  0  0  0  0  0  0  0  0
  188.9100  176.8380  144.7700 C   0  0  0  0  0  0  0  0  0  0  0  0
  186.8900  177.7890  145.8170 N   0  0  0  0  0  2  0  0  0  0  0  0
  1 15  1  6  0  0  0
  1  3  1  0  0  0  0
  1  2  1  0  0  0  0
  2 19  1  1  0  0  0
  3  2  1  0  0  0  0
  4  7  2  0  0  0  0
  4  6  1  0  0  0  0
  5  1  1  0  0  0  0
  5  9  2  0  0  0  0
  6  8  2  0  0  0  0
  7  5  1  0  0  0  0
  8  9  1  0  0  0  0
  8 10  1  0  0  0  0
 10 12  1  0  0  0  0
 10 11  1  1  0  0  0
 12 13  1  0  0  0  0
 15 14  2  0  0  0  0
 16 15  1  0  0  0  0
 17 16  1  0  0  0  0
 18 17  1  0  0  0  0
 19 28  1  0  0  0  0
 20 25  1  0  0  0  0
 21 27  1  0  0  0  0
 23 20  2  0  0  0  0
 24 22  1  0  0  0  0
 24 27  2  0  0  0  0
 25 21  2  0  0  0  0
 26 29  1  0  0  0  0
 26 25  1  0  0  0  0
 28 23  1  0  0  0  0
 28 26  2  0  0  0  0
 29 24  1  0  0  0  0
M  END
>  <MODEL>
5

>  <REMARK>
 VINA RESULT:      -8.5      1.916      6.621
  Name = 
  8 active torsions:
  status: ('A' for Active; 'I' for Inactive)
    1  A    between atoms: C_1  and  C_17
    2  A    between atoms: C_1  and  C_26
    3  A    between atoms: N_2  and  C_28
    4  A    between atoms: C_4  and  C_9
    5  A    between atoms: C_4  and  C_25
    6  A    between atoms: C_6  and  S_16
    7  A    between atoms: S_16  and  C_20
    8  A    between atoms: C_25  and  C_28
                            x       y       z     vdW  Elec       q    Type
                         _______ _______ _______ _____ _____    ______ ____

>  <TORSDO>
F 8

$$$$
=
 OpenBabel10222421063D

 29 32  0  0  1  0  0  0  0  0999 V2000
  188.4880  177.8260  142.5650 C   0  0  2  0  0  0  0  0  0  0  0  0
  188.7140  177.2570  141.1620 C   0  0  1  0  0  3  0  0  0  0  0  0
  188.5380  178.7530  141.3650 C   0  0  0  0  0  2  0  0  0  0  0  0
  191.6280  179.0760  144.3050 C   0  0  0  0  0  3  0  0  0  0  0  0
  189.6360  177.9540  143.5310 C   0  0  0  0  0  0  0  0  0  0  0  0
  191.6810  178.2360  145.3730 N   0  0  0  0  0  0  0  0  0  0  0  0
  190.6020  178.9540  143.3680 C   0  0  0  0  0  3  0  0  0  0  0  0
  190.7480  177.2650  145.5650 C   0  0  0  0  0  0  0  0  0  0  0  0
  189.7000  177.1160  144.6470 C   0  0  0  0  0  3  0  0  0  0  0  0
  190.8470  176.3780  146.7630 C   0  0  2  0  0  3  0  0  0  0  0  0
  190.7550  177.1350  147.9330 O   0  0  0  0  0  1  0  0  0  0  0  0
  192.1510  175.5950  146.7420 C   0  0  0  0  0  2  0  0  0  0  0  0
  192.8060  175.6280  148.1100 C   0  0  0  0  0  1  0  0  0  0  0  0
  186.9090  176.7670  144.1220 C   0  0  0  0  0  2  0  0  0  0  0  0
  187.1110  177.6390  143.1320 C   0  0  0  0  0  0  0  0  0  0  0  0
  185.9890  178.5140  142.6710 C   0  0  0  0  0  2  0  0  0  0  0  0
  184.8310  178.3360  143.5310 N   0  0  0  0  0  2  0  0  0  0  0  0
  183.6620  178.6280  142.7230 C   0  0  0  0  0  1  0  0  0  0  0  0
  190.4600  176.9140  140.7600 S   0  0  0  0  0  0  0  0  0  0  0  0
  188.9420  176.5440  137.0570 C   0  0  0  0  0  3  0  0  0  0  0  0
  190.9850  176.1300  135.6340 C   0  0  0  0  0  2  0  0  0  0  0  0
  194.4310  175.9590  136.9360 N   0  0  0  0  0  1  0  0  0  0  0  0
  188.8280  176.7520  138.4400 C   0  0  0  0  0  2  0  0  0  0  0  0
  193.0160  176.1020  136.9150 C   0  0  0  0  0  0  0  0  0  0  0  0
  190.2850  176.3670  136.8030 C   0  0  0  0  0  0  0  0  0  0  0  0
  190.9990  176.4650  138.0270 C   0  0  0  0  0  0  0  0  0  0  0  0
  192.3420  176.0030  135.7230 N   0  0  0  0  0  0  0  0  0  0  0  0
  190.0940  176.7040  139.0220 C   0  0  0  0  0  0  0  0  0  0  0  0
  192.3440  176.3360  138.0830 N   0  0  0  0  0  2  0  0  0  0  0  0
  1 15  1  1  0  0  0
  1  5  1  0  0  0  0
  2 19  1  1  0  0  0
  2  3  1  0  0  0  0
  2  1  1  0  0  0  0
  3  1  1  0  0  0  0
  4  6  1  0  0  0  0
  5  9  2  0  0  0  0
  6  8  2  0  0  0  0
  7  5  1  0  0  0  0
  7  4  2  0  0  0  0
  8 10  1  0  0  0  0
  9  8  1  0  0  0  0
 10 11  1  1  0  0  0
 12 10  1  0  0  0  0
 12 13  1  0  0  0  0
 15 14  2  0  0  0  0
 16 15  1  0  0  0  0
 16 17  1  0  0  0  0
 18 17  1  0  0  0  0
 20 23  1  0  0  0  0
 21 27  1  0  0  0  0
 21 25  1  0  0  0  0
 23 28  1  0  0  0  0
 24 22  1  0  0  0  0
 24 29  1  0  0  0  0
 25 20  2  0  0  0  0
 25 26  1  0  0  0  0
 26 29  1  0  0  0  0
 26 28  2  0  0  0  0
 27 24  2  0  0  0  0
 28 19  1  0  0  0  0
M  END
>  <MODEL>
6

>  <REMARK>
 VINA RESULT:      -8.1      2.786      5.930
  Name = 
  8 active torsions:
  status: ('A' for Active; 'I' for Inactive)
    1  A    between atoms: C_1  and  C_17
    2  A    between atoms: C_1  and  C_26
    3  A    between atoms: N_2  and  C_28
    4  A    between atoms: C_4  and  C_9
    5  A    between atoms: C_4  and  C_25
    6  A    between atoms: C_6  and  S_16
    7  A    between atoms: S_16  and  C_20
    8  A    between atoms: C_25  and  C_28
                            x       y       z     vdW  Elec       q    Type
                         _______ _______ _______ _____ _____    ______ ____

>  <TORSDO>
F 8

$$$$
=
 OpenBabel10222421063D

 29 32  0  0  1  0  0  0  0  0999 V2000
  189.9010  177.4470  141.1280 C   0  0  2  0  0  0  0  0  0  0  0  0
  190.0320  176.5670  142.3750 C   0  0  1  0  0  3  0  0  0  0  0  0
  190.3130  178.0590  142.4550 C   0  0  0  0  0  2  0  0  0  0  0  0
  186.4140  178.9480  140.9330 C   0  0  0  0  0  3  0  0  0  0  0  0
  188.5430  177.8540  140.6210 C   0  0  0  0  0  0  0  0  0  0  0  0
  186.0940  178.6840  139.6380 N   0  0  0  0  0  0  0  0  0  0  0  0
  187.6460  178.5430  141.4470 C   0  0  0  0  0  3  0  0  0  0  0  0
  186.9510  178.0300  138.8090 C   0  0  0  0  0  0  0  0  0  0  0  0
  188.2000  177.6130  139.2880 C   0  0  0  0  0  3  0  0  0  0  0  0
  186.5530  177.7780  137.3910 C   0  0  2  0  0  3  0  0  0  0  0  0
  185.1620  177.8170  137.2680 O   0  0  0  0  0  1  0  0  0  0  0  0
  187.0880  176.4360  136.9160 C   0  0  0  0  0  2  0  0  0  0  0  0
  185.9420  175.4890  136.6200 C   0  0  0  0  0  1  0  0  0  0  0  0
  192.2710  177.6200  140.5030 C   0  0  0  0  0  2  0  0  0  0  0  0
  191.0200  177.3400  140.1340 C   0  0  0  0  0  0  0  0  0  0  0  0
  190.7510  176.8030  138.7640 C   0  0  0  0  0  2  0  0  0  0  0  0
  190.9270  175.3600  138.7500 N   0  0  0  0  0  2  0  0  0  0  0  0
  190.6810  174.9240  137.3880 C   0  0  0  0  0  1  0  0  0  0  0  0
  188.4530  176.2160  143.2190 S   0  0  0  0  0  0  0  0  0  0  0  0
  190.5450  177.1340  146.5250 C   0  0  0  0  0  3  0  0  0  0  0  0
  188.8120  178.1790  148.0330 C   0  0  0  0  0  3  0  0  0  0  0  0
  185.2630  178.6240  147.1340 N   0  0  0  0  0  1  0  0  0  0  0  0
  190.4210  176.6110  145.2290 C   0  0  0  0  0  3  0  0  0  0  0  0
  186.6330  178.2580  147.0260 C   0  0  0  0  0  0  0  0  0  0  0  0
  189.2900  177.5770  146.8840 C   0  0  0  0  0  0  0  0  0  0  0  0
  188.3920  177.3280  145.8120 C   0  0  0  0  0  0  0  0  0  0  0  0
  187.4860  178.5060  148.0730 N   0  0  0  0  0  0  0  0  0  0  0  0
  189.0990  176.7380  144.8020 C   0  0  0  0  0  0  0  0  0  0  0  0
  187.0840  177.6640  145.8800 N   0  0  0  0  0  2  0  0  0  0  0  0
  1 15  1  6  0  0  0
  1  2  1  0  0  0  0
  1  3  1  0  0  0  0
  2  3  1  0  0  0  0
  2 19  1  1  0  0  0
  4  7  1  0  0  0  0
  5  1  1  0  0  0  0
  5  7  2  0  0  0  0
  6  4  2  0  0  0  0
  8  9  2  0  0  0  0
  8  6  1  0  0  0  0
  9  5  1  0  0  0  0
 10 11  1  1  0  0  0
 10  8  1  0  0  0  0
 12 10  1  0  0  0  0
 13 12  1  0  0  0  0
 15 14  2  0  0  0  0
 16 15  1  0  0  0  0
 17 16  1  0  0  0  0
 18 17  1  0  0  0  0
 19 28  1  0  0  0  0
 20 25  1  0  0  0  0
 21 27  1  0  0  0  0
 23 20  2  0  0  0  0
 24 22  1  0  0  0  0
 24 27  2  0  0  0  0
 25 21  2  0  0  0  0
 26 29  1  0  0  0  0
 26 25  1  0  0  0  0
 28 23  1  0  0  0  0
 28 26  2  0  0  0  0
 29 24  1  0  0  0  0
M  END
>  <MODEL>
7

>  <REMARK>
 VINA RESULT:      -8.1      2.519      6.922
  Name = 
  8 active torsions:
  status: ('A' for Active; 'I' for Inactive)
    1  A    between atoms: C_1  and  C_17
    2  A    between atoms: C_1  and  C_26
    3  A    between atoms: N_2  and  C_28
    4  A    between atoms: C_4  and  C_9
    5  A    between atoms: C_4  and  C_25
    6  A    between atoms: C_6  and  S_16
    7  A    between atoms: S_16  and  C_20
    8  A    between atoms: C_25  and  C_28
                            x       y       z     vdW  Elec       q    Type
                         _______ _______ _______ _____ _____    ______ ____

>  <TORSDO>
F 8

$$$$
=
 OpenBabel10222421063D

 29 32  0  0  1  0  0  0  0  0999 V2000
  187.9970  178.0280  140.7550 C   0  0  2  0  0  0  0  0  0  0  0  0
  188.8000  177.1270  141.6970 C   0  0  1  0  0  3  0  0  0  0  0  0
  189.0390  178.6280  141.6810 C   0  0  0  0  0  2  0  0  0  0  0  0
  184.3180  178.9070  140.3720 C   0  0  0  0  0  3  0  0  0  0  0  0
  186.5680  178.3820  141.0720 C   0  0  0  0  0  0  0  0  0  0  0  0
  183.9240  178.9300  141.6740 N   0  0  0  0  0  0  0  0  0  0  0  0
  185.6460  178.6280  140.0470 C   0  0  0  0  0  3  0  0  0  0  0  0
  184.7940  178.6810  142.6890 C   0  0  0  0  0  0  0  0  0  0  0  0
  186.1340  178.3910  142.4000 C   0  0  0  0  0  3  0  0  0  0  0  0
  184.3040  178.7070  144.1000 C   0  0  2  0  0  3  0  0  0  0  0  0
  183.3950  179.7530  144.2750 O   0  0  0  0  0  1  0  0  0  0  0  0
  185.4670  178.8520  145.0680 C   0  0  0  0  0  2  0  0  0  0  0  0
  185.0950  178.2870  146.4250 C   0  0  0  0  0  1  0  0  0  0  0  0
  189.0560  179.0360  138.7810 C   0  0  0  0  0  2  0  0  0  0  0  0
  188.4100  177.9970  139.3120 C   0  0  0  0  0  0  0  0  0  0  0  0
  188.2060  176.7550  138.5050 C   0  0  0  0  0  2  0  0  0  0  0  0
  189.2110  176.6690  137.4590 N   0  0  0  0  0  2  0  0  0  0  0  0
  189.4500  175.2570  137.2250 C   0  0  0  0  0  1  0  0  0  0  0  0
  187.9300  176.6820  143.2380 S   0  0  0  0  0  0  0  0  0  0  0  0
  191.6570  176.4840  144.7260 C   0  0  0  0  0  3  0  0  0  0  0  0
  191.3450  177.1110  147.1510 C   0  0  0  0  0  3  0  0  0  0  0  0
  188.0980  177.9600  148.6820 N   0  0  0  0  0  1  0  0  0  0  0  0
  190.7180  176.3750  143.6900 C   0  0  0  0  0  3  0  0  0  0  0  0
  189.0540  177.5820  147.6980 C   0  0  0  0  0  0  0  0  0  0  0  0
  190.9510  176.8560  145.8500 C   0  0  0  0  0  0  0  0  0  0  0  0
  189.5780  176.9770  145.5090 C   0  0  0  0  0  0  0  0  0  0  0  0
  190.3780  177.4700  148.0470 N   0  0  0  0  0  0  0  0  0  0  0  0
  189.4490  176.6810  144.1810 C   0  0  0  0  0  0  0  0  0  0  0  0
  188.6430  177.3350  146.4180 N   0  0  0  0  0  2  0  0  0  0  0  0
  1 15  1  6  0  0  0
  1  5  1  0  0  0  0
  1  3  1  0  0  0  0
  1  2  1  0  0  0  0
  2 19  1  1  0  0  0
  3  2  1  0  0  0  0
  4  6  1  0  0  0  0
  5  9  2  0  0  0  0
  6  8  2  0  0  0  0
  7  4  2  0  0  0  0
  7  5  1  0  0  0  0
  8 10  1  0  0  0  0
  9  8  1  0  0  0  0
 10 11  1  6  0  0  0
 10 12  1  0  0  0  0
 12 13  1  0  0  0  0
 14 15  2  0  0  0  0
 16 15  1  0  0  0  0
 17 16  1  0  0  0  0
 18 17  1  0  0  0  0
 19 28  1  0  0  0  0
 20 25  1  0  0  0  0
 21 27  1  0  0  0  0
 23 28  1  0  0  0  0
 23 20  2  0  0  0  0
 24 27  2  0  0  0  0
 24 22  1  0  0  0  0
 25 21  2  0  0  0  0
 26 25  1  0  0  0  0
 26 29  1  0  0  0  0
 28 26  2  0  0  0  0
 29 24  1  0  0  0  0
M  END
>  <MODEL>
8

>  <REMARK>
 VINA RESULT:      -8.0      1.961      6.560
  Name = 
  8 active torsions:
  status: ('A' for Active; 'I' for Inactive)
    1  A    between atoms: C_1  and  C_17
    2  A    between atoms: C_1  and  C_26
    3  A    between atoms: N_2  and  C_28
    4  A    between atoms: C_4  and  C_9
    5  A    between atoms: C_4  and  C_25
    6  A    between atoms: C_6  and  S_16
    7  A    between atoms: S_16  and  C_20
    8  A    between atoms: C_25  and  C_28
                            x       y       z     vdW  Elec       q    Type
                         _______ _______ _______ _____ _____    ______ ____

>  <TORSDO>
F 8

$$$$
=
 OpenBabel10222421063D

 29 32  0  0  1  0  0  0  0  0999 V2000
  189.5180  177.3780  143.0530 C   0  0  2  0  0  0  0  0  0  0  0  0
  190.3900  176.8040  141.9320 C   0  0  1  0  0  3  0  0  0  0  0  0
  189.6450  175.8750  142.8780 C   0  0  0  0  0  2  0  0  0  0  0  0
  186.6100  179.0080  141.2250 C   0  0  0  0  0  3  0  0  0  0  0  0
  188.1610  177.9520  142.7450 C   0  0  0  0  0  0  0  0  0  0  0  0
  185.6300  178.9090  142.1630 N   0  0  0  0  0  0  0  0  0  0  0  0
  187.8910  178.5270  141.4970 C   0  0  0  0  0  3  0  0  0  0  0  0
  185.8590  178.3430  143.3790 C   0  0  0  0  0  0  0  0  0  0  0  0
  187.1320  177.8430  143.6850 C   0  0  0  0  0  3  0  0  0  0  0  0
  184.7420  178.2490  144.3670 C   0  0  2  0  0  3  0  0  0  0  0  0
  183.5380  178.6290  143.7710 O   0  0  0  0  0  1  0  0  0  0  0  0
  185.0280  179.1190  145.5810 C   0  0  0  0  0  2  0  0  0  0  0  0
  185.3100  178.2540  146.7940 C   0  0  0  0  0  1  0  0  0  0  0  0
  190.8000  179.1340  144.1960 C   0  0  0  0  0  2  0  0  0  0  0  0
  190.2560  177.9170  144.2430 C   0  0  0  0  0  0  0  0  0  0  0  0
  190.2780  177.1410  145.5210 C   0  0  0  0  0  2  0  0  0  0  0  0
  191.6280  176.6830  145.8040 N   0  0  0  0  0  2  0  0  0  0  0  0
  191.6820  176.3980  147.2260 C   0  0  0  0  0  1  0  0  0  0  0  0
  189.5810  176.7570  140.2970 S   0  0  0  0  0  0  0  0  0  0  0  0
  193.3700  176.9960  138.9780 C   0  0  0  0  0  3  0  0  0  0  0  0
  193.2470  175.9620  136.6790 C   0  0  0  0  0  2  0  0  0  0  0  0
  190.1640  174.6310  135.1550 N   0  0  0  0  0  1  0  0  0  0  0  0
  192.3640  177.1990  139.9350 C   0  0  0  0  0  2  0  0  0  0  0  0
  191.0310  175.2350  136.1070 C   0  0  0  0  0  0  0  0  0  0  0  0
  192.7590  176.3940  137.8990 C   0  0  0  0  0  0  0  0  0  0  0  0
  191.3790  176.2250  138.1890 C   0  0  0  0  0  0  0  0  0  0  0  0
  192.3620  175.3900  135.8090 N   0  0  0  0  0  0  0  0  0  0  0  0
  191.1510  176.7210  139.4410 C   0  0  0  0  0  0  0  0  0  0  0  0
  190.5270  175.6540  137.3080 N   0  0  0  0  0  2  0  0  0  0  0  0
  1 15  1  1  0  0  0
  2 19  1  6  0  0  0
  2  3  1  0  0  0  0
  2  1  1  0  0  0  0
  3  1  1  0  0  0  0
  4  7  2  0  0  0  0
  4  6  1  0  0  0  0
  5  1  1  0  0  0  0
  5  9  2  0  0  0  0
  6  8  2  0  0  0  0
  7  5  1  0  0  0  0
  8  9  1  0  0  0  0
  8 10  1  0  0  0  0
 10 11  1  6  0  0  0
 10 12  1  0  0  0  0
 12 13  1  0  0  0  0
 14 15  2  0  0  0  0
 15 16  1  0  0  0  0
 16 17  1  0  0  0  0
 17 18  1  0  0  0  0
 20 23  1  0  0  0  0
 21 25  1  0  0  0  0
 22 24  1  0  0  0  0
 24 29  1  0  0  0  0
 25 26  1  0  0  0  0
 25 20  2  0  0  0  0
 26 28  2  0  0  0  0
 27 24  2  0  0  0  0
 27 21  1  0  0  0  0
 28 23  1  0  0  0  0
 28 19  1  0  0  0  0
 29 26  1  0  0  0  0
M  END
>  <MODEL>
9

>  <REMARK>
 VINA RESULT:      -8.0      2.208      3.144
  Name = 
  8 active torsions:
  status: ('A' for Active; 'I' for Inactive)
    1  A    between atoms: C_1  and  C_17
    2  A    between atoms: C_1  and  C_26
    3  A    between atoms: N_2  and  C_28
    4  A    between atoms: C_4  and  C_9
    5  A    between atoms: C_4  and  C_25
    6  A    between atoms: C_6  and  S_16
    7  A    between atoms: S_16  and  C_20
    8  A    between atoms: C_25  and  C_28
                            x       y       z     vdW  Elec       q    Type
                         _______ _______ _______ _____ _____    ______ ____

>  <TORSDO>
F 8

$$$$
