=
 OpenBabel10222420043D

 59 64  0  0  1  0  0  0  0  0999 V2000
  187.8820  177.7050  144.9070 C   0  0  0  0  0  0  0  0  0  0  0  0
  187.7390  177.1100  143.6560 C   0  0  0  0  0  0  0  0  0  0  0  0
  185.6860  178.1840  143.8270 C   0  0  0  0  0  0  0  0  0  0  0  0
  186.4730  178.5450  145.2740 S   0  0  0  0  0  0  0  0  0  0  0  0
  186.5020  177.3690  143.0410 C   0  0  0  0  0  3  0  0  0  0  0  0
  187.7080  177.5220  148.0110 C   0  0  0  0  0  1  0  0  0  0  0  0
  190.1350  177.0570  147.6600 N   0  0  0  0  0  0  0  0  0  0  0  0
  188.9230  177.3440  147.1580 C   0  0  0  0  0  0  0  0  0  0  0  0
  188.9700  177.4810  145.8200 N   0  0  0  0  0  0  0  0  0  0  0  0
  190.9250  177.0100  146.5610 C   0  0  0  0  0  3  0  0  0  0  0  0
  190.2210  177.2680  145.4440 N   0  0  0  0  0  0  0  0  0  0  0  0
  188.7630  176.3450  143.0220 N   0  0  0  0  0  2  0  0  0  0  0  0
  190.3040  176.0240  141.3240 O   0  0  0  0  0  0  0  0  0  0  0  0
  189.4930  176.8080  141.8850 C   0  0  0  0  0  0  0  0  0  0  0  0
  189.2610  178.1900  141.3360 C   0  0  0  0  0  2  0  0  0  0  0  0
  189.0410  177.6270  138.8810 N   0  0  0  0  0  2  0  0  0  0  0  0
  187.3230  178.7020  140.0480 O   0  0  0  0  0  0  0  0  0  0  0  0
  188.4720  178.1830  140.0680 C   0  0  0  0  0  0  0  0  0  0  0  0
  188.3480  177.7030  137.6050 C   0  0  0  0  0  2  0  0  0  0  0  0
  188.0830  176.3580  135.6720 O   0  0  0  0  0  0  0  0  0  0  0  0
  188.9530  175.2400  137.5430 N   0  0  0  0  0  2  0  0  0  0  0  0
  188.4270  176.4000  136.8820 C   0  0  0  0  0  0  0  0  0  0  0  0
  189.3210  173.9660  136.9180 C   0  0  2  0  0  3  0  0  0  0  0  0
  188.2590  172.8640  137.0100 C   0  0  0  0  0  2  0  0  0  0  0  0
  187.0300  173.2860  136.4910 O   0  0  0  0  0  1  0  0  0  0  0  0
  190.6760  173.5920  137.1040 O   0  0  0  0  0  0  0  0  0  0  0  0
  192.7540  172.2710  134.9150 C   0  0  2  0  0  3  0  0  0  0  0  0
  191.4250  172.7100  135.1260 O   0  0  0  0  0  0  0  0  0  0  0  0
  193.3450  171.7270  136.2070 C   0  0  0  0  0  2  0  0  0  0  0  0
  191.4310  173.8590  135.9460 C   0  0  2  0  0  3  0  0  0  0  0  0
  192.8760  174.2150  136.2790 C   0  0  2  0  0  3  0  0  0  0  0  0
  193.7270  173.1150  135.6990 C   0  0  2  0  0  3  0  0  0  0  0  0
  193.1140  174.3390  137.6600 O   0  0  0  0  0  0  0  0  0  0  0  0
  193.3440  176.0020  137.9430 P   0  0  0  0  0  0  0  0  0  0  0  0
  194.3490  176.1970  139.2940 O   0  0  0  0  0  1  0  0  0  0  0  0
  194.1010  176.7020  136.6000 O   0  0  0  0  0  0  0  0  0  0  0  0
  192.0210  176.6860  138.2030 O   0  0  0  0  0  1  0  0  0  0  0  0
  184.2510  178.5070  143.5670 C   0  0  0  0  0  2  0  0  0  0  0  0
  183.4770  178.7790  144.8430 C   0  0  0  0  0  2  0  0  0  0  0  0
  182.2260  179.3210  144.5370 O   0  0  0  0  0  0  0  0  0  0  0  0
  181.9510  178.8620  143.2460 C   0  0  0  0  0  2  0  0  0  0  0  0
  180.1350  177.8810  142.0080 O   0  0  0  0  0  0  0  0  0  0  0  0
  180.1400  178.4860  140.7350 C   0  0  1  0  0  3  0  0  0  0  0  0
  180.4430  178.8800  142.9540 C   0  0  2  0  0  0  0  0  0  0  0  0
  180.2930  179.9800  140.8850 C   0  0  2  0  0  3  0  0  0  0  0  0
  180.0700  180.2130  142.3480 C   0  0  0  0  0  2  0  0  0  0  0  0
  179.6220  177.2860  144.5700 O   0  0  0  0  0  1  0  0  0  0  0  0
  179.6230  178.6370  144.2230 C   0  0  0  0  0  2  0  0  0  0  0  0
  179.7690  180.9190  138.7520 O   0  0  0  0  0  1  0  0  0  0  0  0
  179.2640  180.7170  140.0370 C   0  0  0  0  0  2  0  0  0  0  0  0
  181.2890  177.9370  139.9030 C   0  0  0  0  0  2  0  0  0  0  0  0
  180.7520  177.1950  138.6890 C   0  0  0  0  0  2  0  0  0  0  0  0
  182.3350  173.1830  137.0020 C   0  0  0  0  0  1  0  0  0  0  0  0
  184.6750  175.8800  137.3680 C   0  0  0  0  0  1  0  0  0  0  0  0
  181.3410  175.8670  138.6440 N   0  0  0  0  0  0  0  0  0  0  0  0
  181.2570  175.3980  137.2630 C   0  0  0  0  0  2  0  0  0  0  0  0
  182.7640  176.0150  138.9330 C   0  0  0  0  0  2  0  0  0  0  0  0
  183.5300  175.1070  137.9930 C   0  0  1  0  0  3  0  0  0  0  0  0
  182.5470  174.6840  136.9230 C   0  0  1  0  0  3  0  0  0  0  0  0
  1  4  1  0  0  0  0
  1  9  1  0  0  0  0
  2  1  2  0  0  0  0
  3  4  1  0  0  0  0
  5  2  1  0  0  0  0
  5  3  2  0  0  0  0
  8  7  2  0  0  0  0
  8  6  1  0  0  0  0
  9  8  1  0  0  0  0
 10  7  1  0  0  0  0
 11  9  1  0  0  0  0
 11 10  2  0  0  0  0
 12  2  1  0  0  0  0
 13 14  2  0  0  0  0
 14 12  1  0  0  0  0
 15 14  1  0  0  0  0
 16 18  1  0  0  0  0
 17 18  2  0  0  0  0
 18 15  1  0  0  0  0
 19 16  1  0  0  0  0
 20 22  2  0  0  0  0
 22 21  1  0  0  0  0
 22 19  1  0  0  0  0
 23 24  1  1  0  0  0
 23 26  1  0  0  0  0
 23 21  1  0  0  0  0
 25 24  1  0  0  0  0
 27 28  1  0  0  0  0
 27 32  1  0  0  0  0
 27 29  1  1  0  0  0
 28 30  1  0  0  0  0
 30 31  1  0  0  0  0
 30 26  1  1  0  0  0
 31 33  1  1  0  0  0
 32 29  1  1  0  0  0
 32 31  1  0  0  0  0
 33 34  1  0  0  0  0
 34 37  1  0  0  0  0
 34 35  1  0  0  0  0
 36 34  2  0  0  0  0
 38  3  1  0  0  0  0
 38 39  1  0  0  0  0
 40 39  1  0  0  0  0
 41 40  1  0  0  0  0
 42 44  1  0  0  0  0
 43 51  1  6  0  0  0
 43 45  1  0  0  0  0
 43 42  1  0  0  0  0
 44 41  1  1  0  0  0
 44 48  1  0  0  0  0
 45 50  1  6  0  0  0
 45 46  1  0  0  0  0
 46 44  1  0  0  0  0
 48 47  1  0  0  0  0
 49 50  1  0  0  0  0
 52 51  1  0  0  0  0
 55 52  1  0  0  0  0
 55 57  1  0  0  0  0
 56 55  1  0  0  0  0
 58 54  1  6  0  0  0
 58 57  1  0  0  0  0
 59 53  1  1  0  0  0
 59 56  1  0  0  0  0
 59 58  1  0  0  0  0
M  END
>  <MODEL>
1

>  <REMARK>
 VINA RESULT:      -7.2      0.000      0.000
  Name = 
  22 active torsions:
  status: ('A' for Active; 'I' for Inactive)
    1  A    between atoms: C_2  and  C_25
    2  A    between atoms: C_3  and  N_33
    3  A    between atoms: P_6  and  O_19
    4  A    between atoms: N_7  and  C_47
    5  A    between atoms: C_8  and  N_17
    6  A    between atoms: C_15  and  O_34
    7  A    between atoms: C_15  and  C_49
    8  A    between atoms: N_18  and  C_41
    9  A    between atoms: O_19  and  C_48
   10  A    between atoms: C_20  and  C_23
   11  A    between atoms: C_21  and  O_51
   12  A    between atoms: C_22  and  C_23
   13  A    between atoms: C_22  and  O_34
   14  A    between atoms: C_25  and  N_39
   15  A    between atoms: C_25  and  O_51
   16  A    between atoms: C_28  and  C_50
   17  A    between atoms: C_28  and  C_56
   18  A    between atoms: C_29  and  C_55
   19  A    between atoms: C_31  and  C_49
   20  A    between atoms: C_40  and  C_46
   21  A    between atoms: C_41  and  C_46
   22  A    between atoms: C_43  and  C_47
                            x       y       z     vdW  Elec       q    Type
                         _______ _______ _______ _____ _____    ______ ____

>  <TORSDO>
F 22

$$$$
=
 OpenBabel10222420043D

 59 64  0  0  1  0  0  0  0  0999 V2000
  189.0380  174.8270  136.9340 C   0  0  0  0  0  0  0  0  0  0  0  0
  188.1240  175.8450  136.6780 C   0  0  0  0  0  0  0  0  0  0  0  0
  186.7430  173.9950  136.4250 C   0  0  0  0  0  0  0  0  0  0  0  0
  188.2570  173.3460  136.7830 S   0  0  0  0  0  0  0  0  0  0  0  0
  186.8290  175.3880  136.3840 C   0  0  0  0  0  3  0  0  0  0  0  0
  191.2130  174.7380  134.7060 C   0  0  0  0  0  1  0  0  0  0  0  0
  192.6160  175.2890  136.6950 N   0  0  0  0  0  0  0  0  0  0  0  0
  191.4150  175.0170  136.1610 C   0  0  0  0  0  0  0  0  0  0  0  0
  190.4550  174.9970  137.1050 N   0  0  0  0  0  0  0  0  0  0  0  0
  192.3430  175.4490  138.0120 C   0  0  0  0  0  3  0  0  0  0  0  0
  191.0330  175.2710  138.2630 N   0  0  0  0  0  0  0  0  0  0  0  0
  188.4470  177.2340  136.7500 N   0  0  0  0  0  2  0  0  0  0  0  0
  187.8770  179.4310  137.2040 O   0  0  0  0  0  0  0  0  0  0  0  0
  187.5530  178.2160  137.2770 C   0  0  0  0  0  0  0  0  0  0  0  0
  186.2270  177.8110  137.8620 C   0  0  0  0  0  2  0  0  0  0  0  0
  186.5230  178.5950  140.2470 N   0  0  0  0  0  2  0  0  0  0  0  0
  184.8180  179.4370  138.8850 O   0  0  0  0  0  0  0  0  0  0  0  0
  185.8150  178.6730  139.0100 C   0  0  0  0  0  0  0  0  0  0  0  0
  186.0810  179.3370  141.4170 C   0  0  0  0  0  2  0  0  0  0  0  0
  186.7320  177.3760  142.5810 O   0  0  0  0  0  0  0  0  0  0  0  0
  185.5360  178.9360  143.8620 N   0  0  0  0  0  2  0  0  0  0  0  0
  186.1220  178.4770  142.6360 C   0  0  0  0  0  0  0  0  0  0  0  0
  185.6960  178.3360  145.1900 C   0  0  2  0  0  3  0  0  0  0  0  0
  184.4700  178.4410  146.1050 C   0  0  0  0  0  2  0  0  0  0  0  0
  183.4070  179.0930  145.4710 O   0  0  0  0  0  1  0  0  0  0  0  0
  186.9720  178.5380  145.7740 O   0  0  0  0  0  0  0  0  0  0  0  0
  188.3360  177.1290  148.4210 C   0  0  2  0  0  3  0  0  0  0  0  0
  187.1530  177.2380  147.6530 O   0  0  0  0  0  0  0  0  0  0  0  0
  189.1200  178.4320  148.3780 C   0  0  0  0  0  2  0  0  0  0  0  0
  187.4850  177.3300  146.2830 C   0  0  2  0  0  3  0  0  0  0  0  0
  189.0010  177.2510  146.1410 C   0  0  2  0  0  3  0  0  0  0  0  0
  189.5570  177.2320  147.5410 C   0  0  2  0  0  3  0  0  0  0  0  0
  189.5480  178.3230  145.4130 O   0  0  0  0  0  0  0  0  0  0  0  0
  190.7790  177.6500  144.4500 P   0  0  0  0  0  0  0  0  0  0  0  0
  190.1020  176.4800  143.4270 O   0  0  0  0  0  0  0  0  0  0  0  0
  191.4760  178.8650  143.4980 O   0  0  0  0  0  1  0  0  0  0  0  0
  191.8390  177.0040  145.3150 O   0  0  0  0  0  1  0  0  0  0  0  0
  185.5750  173.1720  135.9920 C   0  0  0  0  0  2  0  0  0  0  0  0
  184.2920  173.9780  135.9160 C   0  0  0  0  0  2  0  0  0  0  0  0
  183.7170  174.0840  137.1850 O   0  0  0  0  0  0  0  0  0  0  0  0
  183.1840  175.3750  137.2220 C   0  0  0  0  0  2  0  0  0  0  0  0
  180.9540  176.2780  137.1840 O   0  0  0  0  0  0  0  0  0  0  0  0
  181.0100  177.5240  137.8400 C   0  0  1  0  0  3  0  0  0  0  0  0
  181.7980  175.3910  137.8840 C   0  0  2  0  0  0  0  0  0  0  0  0
  181.7990  177.3880  139.1190 C   0  0  2  0  0  3  0  0  0  0  0  0
  181.9290  175.9060  139.2980 C   0  0  0  0  0  2  0  0  0  0  0  0
  179.8790  174.0280  137.3530 O   0  0  0  0  0  1  0  0  0  0  0  0
  181.1650  173.9990  137.8930 C   0  0  0  0  0  2  0  0  0  0  0  0
  181.7100  179.1980  140.6760 O   0  0  0  0  0  1  0  0  0  0  0  0
  181.0550  178.0300  140.2840 C   0  0  0  0  0  2  0  0  0  0  0  0
  181.6740  178.5550  136.9400 C   0  0  0  0  0  2  0  0  0  0  0  0
  180.6370  179.5270  136.3980 C   0  0  0  0  0  2  0  0  0  0  0  0
  181.0140  184.1030  135.8000 C   0  0  0  0  0  1  0  0  0  0  0  0
  179.2820  182.9380  138.7210 C   0  0  0  0  0  1  0  0  0  0  0  0
  181.1600  180.8800  136.4890 N   0  0  0  0  0  0  0  0  0  0  0  0
  180.3160  181.7310  135.6550 C   0  0  0  0  0  2  0  0  0  0  0  0
  180.9560  181.3320  137.8610 C   0  0  0  0  0  2  0  0  0  0  0  0
  180.4880  182.7720  137.8160 C   0  0  1  0  0  3  0  0  0  0  0  0
  180.0970  183.0420  136.3790 C   0  0  1  0  0  3  0  0  0  0  0  0
  1  9  1  0  0  0  0
  2 12  1  0  0  0  0
  2  1  2  0  0  0  0
  3  4  1  0  0  0  0
  4  1  1  0  0  0  0
  5  3  2  0  0  0  0
  5  2  1  0  0  0  0
  6  8  1  0  0  0  0
  7 10  1  0  0  0  0
  8  7  2  0  0  0  0
  8  9  1  0  0  0  0
  9 11  1  0  0  0  0
 10 11  2  0  0  0  0
 12 14  1  0  0  0  0
 13 14  2  0  0  0  0
 14 15  1  0  0  0  0
 15 18  1  0  0  0  0
 16 19  1  0  0  0  0
 17 18  2  0  0  0  0
 18 16  1  0  0  0  0
 19 22  1  0  0  0  0
 20 22  2  0  0  0  0
 21 23  1  0  0  0  0
 22 21  1  0  0  0  0
 23 26  1  0  0  0  0
 23 24  1  1  0  0  0
 25 24  1  0  0  0  0
 27 29  1  1  0  0  0
 28 27  1  0  0  0  0
 30 26  1  1  0  0  0
 30 28  1  0  0  0  0
 31 33  1  6  0  0  0
 31 30  1  0  0  0  0
 31 32  1  0  0  0  0
 32 29  1  1  0  0  0
 32 27  1  0  0  0  0
 34 37  1  0  0  0  0
 34 33  1  0  0  0  0
 35 34  2  0  0  0  0
 36 34  1  0  0  0  0
 38  3  1  0  0  0  0
 39 38  1  0  0  0  0
 39 40  1  0  0  0  0
 40 41  1  0  0  0  0
 42 43  1  0  0  0  0
 42 44  1  0  0  0  0
 43 51  1  6  0  0  0
 43 45  1  0  0  0  0
 44 41  1  6  0  0  0
 44 48  1  0  0  0  0
 44 46  1  0  0  0  0
 45 46  1  0  0  0  0
 45 50  1  1  0  0  0
 47 48  1  0  0  0  0
 50 49  1  0  0  0  0
 52 55  1  0  0  0  0
 52 51  1  0  0  0  0
 55 57  1  0  0  0  0
 56 59  1  0  0  0  0
 56 55  1  0  0  0  0
 58 57  1  0  0  0  0
 58 54  1  1  0  0  0
 59 53  1  6  0  0  0
 59 58  1  0  0  0  0
M  END
>  <MODEL>
2

>  <REMARK>
 VINA RESULT:      -7.1      3.663      8.475
  Name = 
  22 active torsions:
  status: ('A' for Active; 'I' for Inactive)
    1  A    between atoms: C_2  and  C_25
    2  A    between atoms: C_3  and  N_33
    3  A    between atoms: P_6  and  O_19
    4  A    between atoms: N_7  and  C_47
    5  A    between atoms: C_8  and  N_17
    6  A    between atoms: C_15  and  O_34
    7  A    between atoms: C_15  and  C_49
    8  A    between atoms: N_18  and  C_41
    9  A    between atoms: O_19  and  C_48
   10  A    between atoms: C_20  and  C_23
   11  A    between atoms: C_21  and  O_51
   12  A    between atoms: C_22  and  C_23
   13  A    between atoms: C_22  and  O_34
   14  A    between atoms: C_25  and  N_39
   15  A    between atoms: C_25  and  O_51
   16  A    between atoms: C_28  and  C_50
   17  A    between atoms: C_28  and  C_56
   18  A    between atoms: C_29  and  C_55
   19  A    between atoms: C_31  and  C_49
   20  A    between atoms: C_40  and  C_46
   21  A    between atoms: C_41  and  C_46
   22  A    between atoms: C_43  and  C_47
                            x       y       z     vdW  Elec       q    Type
                         _______ _______ _______ _____ _____    ______ ____

>  <TORSDO>
F 22

$$$$
=
 OpenBabel10222420043D

 59 64  0  0  1  0  0  0  0  0999 V2000
  186.9620  177.9910  145.3180 C   0  0  0  0  0  0  0  0  0  0  0  0
  186.9780  177.1920  144.1780 C   0  0  0  0  0  0  0  0  0  0  0  0
  185.2410  178.6340  143.6310 C   0  0  0  0  0  0  0  0  0  0  0  0
  185.7350  179.1300  145.1650 S   0  0  0  0  0  0  0  0  0  0  0  0
  186.0090  177.5420  143.2230 C   0  0  0  0  0  3  0  0  0  0  0  0
  190.0510  178.2370  145.6270 C   0  0  0  0  0  1  0  0  0  0  0  0
  189.3980  177.6880  147.9730 N   0  0  0  0  0  0  0  0  0  0  0  0
  189.0550  177.9100  146.6940 C   0  0  0  0  0  0  0  0  0  0  0  0
  187.7300  177.7620  146.5120 N   0  0  0  0  0  0  0  0  0  0  0  0
  188.2140  177.4120  148.5690 C   0  0  0  0  0  3  0  0  0  0  0  0
  187.2010  177.4550  147.6850 N   0  0  0  0  0  0  0  0  0  0  0  0
  187.9200  176.1400  143.9620 N   0  0  0  0  0  2  0  0  0  0  0  0
  189.7520  175.2470  142.8660 O   0  0  0  0  0  0  0  0  0  0  0  0
  189.0340  176.2600  143.0770 C   0  0  0  0  0  0  0  0  0  0  0  0
  189.3160  177.5580  142.3700 C   0  0  0  0  0  2  0  0  0  0  0  0
  190.7330  177.2160  140.3060 N   0  0  0  0  0  2  0  0  0  0  0  0
  191.6800  177.8500  142.3480 O   0  0  0  0  0  0  0  0  0  0  0  0
  190.6430  177.5670  141.6860 C   0  0  0  0  0  0  0  0  0  0  0  0
  192.0200  177.1060  139.6370 C   0  0  0  0  0  2  0  0  0  0  0  0
  192.7270  176.6150  137.4280 O   0  0  0  0  0  0  0  0  0  0  0  0
  190.8400  175.4220  138.1520 N   0  0  0  0  0  2  0  0  0  0  0  0
  191.8810  176.3930  138.3340 C   0  0  0  0  0  0  0  0  0  0  0  0
  190.7110  174.4720  137.0420 C   0  0  2  0  0  3  0  0  0  0  0  0
  189.2720  174.1240  136.6470 C   0  0  0  0  0  2  0  0  0  0  0  0
  189.1640  172.8020  136.2000 O   0  0  0  0  0  1  0  0  0  0  0  0
  191.6630  173.4220  137.0570 O   0  0  0  0  0  0  0  0  0  0  0  0
  193.3700  171.6620  134.8570 C   0  0  2  0  0  3  0  0  0  0  0  0
  192.2230  172.4670  135.0500 O   0  0  0  0  0  0  0  0  0  0  0  0
  193.7000  170.8940  136.1280 C   0  0  0  0  0  2  0  0  0  0  0  0
  192.5260  173.5140  135.9490 C   0  0  2  0  0  3  0  0  0  0  0  0
  193.9910  173.4000  136.3570 C   0  0  2  0  0  3  0  0  0  0  0  0
  194.5060  172.1290  135.7320 C   0  0  2  0  0  3  0  0  0  0  0  0
  194.1780  173.3690  137.7510 O   0  0  0  0  0  0  0  0  0  0  0  0
  195.5720  174.2970  138.0520 P   0  0  0  0  0  0  0  0  0  0  0  0
  195.8760  175.2870  136.7100 O   0  0  0  0  0  0  0  0  0  0  0  0
  195.3110  175.2830  139.4040 O   0  0  0  0  0  1  0  0  0  0  0  0
  196.7670  173.4020  138.2930 O   0  0  0  0  0  1  0  0  0  0  0  0
  184.0170  179.1530  142.9520 C   0  0  0  0  0  2  0  0  0  0  0  0
  183.8250  178.5610  141.5690 C   0  0  0  0  0  2  0  0  0  0  0  0
  182.5080  178.7550  141.1430 O   0  0  0  0  0  0  0  0  0  0  0  0
  182.3720  177.9180  140.0320 C   0  0  0  0  0  2  0  0  0  0  0  0
  180.4130  176.8580  139.1210 O   0  0  0  0  0  0  0  0  0  0  0  0
  180.7400  176.4600  137.8100 C   0  0  1  0  0  3  0  0  0  0  0  0
  181.0110  178.1150  139.3460 C   0  0  2  0  0  0  0  0  0  0  0  0
  181.4440  177.5900  137.0990 C   0  0  2  0  0  3  0  0  0  0  0  0
  181.2230  178.7670  138.0000 C   0  0  0  0  0  2  0  0  0  0  0  0
  179.3980  179.9080  139.4140 O   0  0  0  0  0  1  0  0  0  0  0  0
  180.0720  178.9720  140.1980 C   0  0  0  0  0  2  0  0  0  0  0  0
  181.8360  177.7150  134.7460 O   0  0  0  0  0  1  0  0  0  0  0  0
  180.8410  177.8200  135.7180 C   0  0  0  0  0  2  0  0  0  0  0  0
  181.6480  175.2390  137.8480 C   0  0  0  0  0  2  0  0  0  0  0  0
  183.0940  175.6520  137.6220 C   0  0  0  0  0  2  0  0  0  0  0  0
  185.7320  172.1140  136.2190 C   0  0  0  0  0  1  0  0  0  0  0  0
  182.2970  171.4270  137.0040 C   0  0  0  0  0  1  0  0  0  0  0  0
  183.7330  174.6850  136.7440 N   0  0  0  0  0  0  0  0  0  0  0  0
  184.6490  173.8940  137.5600 C   0  0  0  0  0  2  0  0  0  0  0  0
  182.6970  173.7620  136.2910 C   0  0  0  0  0  2  0  0  0  0  0  0
  183.2740  172.3610  136.3170 C   0  0  1  0  0  3  0  0  0  0  0  0
  184.5560  172.4490  137.1180 C   0  0  1  0  0  3  0  0  0  0  0  0
  1  9  1  0  0  0  0
  2  1  2  0  0  0  0
  3  4  1  0  0  0  0
  4  1  1  0  0  0  0
  5  3  2  0  0  0  0
  5  2  1  0  0  0  0
  6  8  1  0  0  0  0
  7 10  1  0  0  0  0
  8  7  2  0  0  0  0
  9  8  1  0  0  0  0
  9 11  1  0  0  0  0
 11 10  2  0  0  0  0
 12  2  1  0  0  0  0
 13 14  2  0  0  0  0
 14 12  1  0  0  0  0
 15 14  1  0  0  0  0
 16 18  1  0  0  0  0
 18 17  2  0  0  0  0
 18 15  1  0  0  0  0
 19 16  1  0  0  0  0
 20 22  2  0  0  0  0
 21 22  1  0  0  0  0
 22 19  1  0  0  0  0
 23 24  1  1  0  0  0
 23 26  1  0  0  0  0
 23 21  1  0  0  0  0
 25 24  1  0  0  0  0
 27 28  1  0  0  0  0
 27 32  1  0  0  0  0
 27 29  1  1  0  0  0
 28 30  1  0  0  0  0
 30 31  1  0  0  0  0
 30 26  1  1  0  0  0
 31 33  1  1  0  0  0
 32 29  1  1  0  0  0
 32 31  1  0  0  0  0
 33 34  1  0  0  0  0
 34 37  1  0  0  0  0
 34 36  1  0  0  0  0
 35 34  2  0  0  0  0
 38  3  1  0  0  0  0
 39 38  1  0  0  0  0
 40 39  1  0  0  0  0
 41 40  1  0  0  0  0
 42 44  1  0  0  0  0
 43 51  1  1  0  0  0
 43 42  1  0  0  0  0
 44 41  1  1  0  0  0
 44 48  1  0  0  0  0
 45 50  1  6  0  0  0
 45 43  1  0  0  0  0
 45 46  1  0  0  0  0
 46 44  1  0  0  0  0
 47 48  1  0  0  0  0
 49 50  1  0  0  0  0
 52 51  1  0  0  0  0
 55 56  1  0  0  0  0
 55 52  1  0  0  0  0
 57 58  1  0  0  0  0
 57 55  1  0  0  0  0
 58 54  1  1  0  0  0
 58 59  1  0  0  0  0
 59 53  1  6  0  0  0
 59 56  1  0  0  0  0
M  END
>  <MODEL>
3

>  <REMARK>
 VINA RESULT:      -6.6      2.008      3.121
  Name = 
  22 active torsions:
  status: ('A' for Active; 'I' for Inactive)
    1  A    between atoms: C_2  and  C_25
    2  A    between atoms: C_3  and  N_33
    3  A    between atoms: P_6  and  O_19
    4  A    between atoms: N_7  and  C_47
    5  A    between atoms: C_8  and  N_17
    6  A    between atoms: C_15  and  O_34
    7  A    between atoms: C_15  and  C_49
    8  A    between atoms: N_18  and  C_41
    9  A    between atoms: O_19  and  C_48
   10  A    between atoms: C_20  and  C_23
   11  A    between atoms: C_21  and  O_51
   12  A    between atoms: C_22  and  C_23
   13  A    between atoms: C_22  and  O_34
   14  A    between atoms: C_25  and  N_39
   15  A    between atoms: C_25  and  O_51
   16  A    between atoms: C_28  and  C_50
   17  A    between atoms: C_28  and  C_56
   18  A    between atoms: C_29  and  C_55
   19  A    between atoms: C_31  and  C_49
   20  A    between atoms: C_40  and  C_46
   21  A    between atoms: C_41  and  C_46
   22  A    between atoms: C_43  and  C_47
                            x       y       z     vdW  Elec       q    Type
                         _______ _______ _______ _____ _____    ______ ____

>  <TORSDO>
F 22

$$$$
=
 OpenBabel10222420043D

 59 64  0  0  1  0  0  0  0  0999 V2000
  188.8690  175.0960  136.9000 C   0  0  0  0  0  0  0  0  0  0  0  0
  188.0840  176.0250  136.2210 C   0  0  0  0  0  0  0  0  0  0  0  0
  186.9330  174.0740  135.7060 C   0  0  0  0  0  0  0  0  0  0  0  0
  188.2320  173.5610  136.6500 S   0  0  0  0  0  0  0  0  0  0  0  0
  186.9940  175.4590  135.5400 C   0  0  0  0  0  3  0  0  0  0  0  0
  191.5870  173.6630  136.3870 C   0  0  0  0  0  1  0  0  0  0  0  0
  192.2850  175.3920  138.0480 N   0  0  0  0  0  0  0  0  0  0  0  0
  191.3260  174.8110  137.3100 C   0  0  0  0  0  0  0  0  0  0  0  0
  190.1250  175.3730  137.5440 N   0  0  0  0  0  0  0  0  0  0  0  0
  191.6150  176.3470  138.7350 C   0  0  0  0  0  3  0  0  0  0  0  0
  190.3050  176.3370  138.4320 N   0  0  0  0  0  0  0  0  0  0  0  0
  188.3250  177.4320  136.2450 N   0  0  0  0  0  2  0  0  0  0  0  0
  187.6040  179.6120  136.5420 O   0  0  0  0  0  0  0  0  0  0  0  0
  187.3420  178.3840  136.6530 C   0  0  0  0  0  0  0  0  0  0  0  0
  185.9990  177.9320  137.1600 C   0  0  0  0  0  2  0  0  0  0  0  0
  186.8920  178.3530  139.4860 N   0  0  0  0  0  2  0  0  0  0  0  0
  184.6020  178.4490  139.0190 O   0  0  0  0  0  0  0  0  0  0  0  0
  185.7780  178.2720  138.5970 C   0  0  0  0  0  0  0  0  0  0  0  0
  186.7050  178.5730  140.9110 C   0  0  0  0  0  2  0  0  0  0  0  0
  188.9760  178.8760  141.5190 O   0  0  0  0  0  0  0  0  0  0  0  0
  187.8870  177.1050  142.6090 N   0  0  0  0  0  2  0  0  0  0  0  0
  187.9300  178.1910  141.6720 C   0  0  0  0  0  0  0  0  0  0  0  0
  188.9120  176.7590  143.5980 C   0  0  2  0  0  3  0  0  0  0  0  0
  189.9380  175.7180  143.1360 C   0  0  0  0  0  2  0  0  0  0  0  0
  191.2340  176.2440  143.1120 O   0  0  0  0  0  1  0  0  0  0  0  0
  188.4340  176.6670  144.9300 O   0  0  0  0  0  0  0  0  0  0  0  0
  188.9790  178.0310  147.8780 C   0  0  2  0  0  3  0  0  0  0  0  0
  189.5600  177.7210  146.6250 O   0  0  0  0  0  0  0  0  0  0  0  0
  187.9390  176.9860  148.2550 C   0  0  0  0  0  2  0  0  0  0  0  0
  188.5980  177.8910  145.6050 C   0  0  2  0  0  3  0  0  0  0  0  0
  187.2950  178.3720  146.2350 C   0  0  2  0  0  3  0  0  0  0  0  0
  187.5150  178.3540  147.7250 C   0  0  2  0  0  3  0  0  0  0  0  0
  186.1870  177.5760  145.8950 O   0  0  0  0  0  0  0  0  0  0  0  0
  185.0610  178.6300  145.1760 P   0  0  0  0  0  0  0  0  0  0  0  0
  184.6010  178.0020  143.6700 O   0  0  0  0  0  0  0  0  0  0  0  0
  183.6870  178.7420  146.1590 O   0  0  0  0  0  1  0  0  0  0  0  0
  185.6660  180.0030  144.9810 O   0  0  0  0  0  1  0  0  0  0  0  0
  186.0210  173.1400  134.9820 C   0  0  0  0  0  2  0  0  0  0  0  0
  184.6230  173.7050  134.8170 C   0  0  0  0  0  2  0  0  0  0  0  0
  183.9790  173.7580  136.0560 O   0  0  0  0  0  0  0  0  0  0  0  0
  182.9080  174.6350  135.8570 C   0  0  0  0  0  2  0  0  0  0  0  0
  180.5020  174.6550  135.8770 O   0  0  0  0  0  0  0  0  0  0  0  0
  180.1130  175.8140  136.5780 C   0  0  1  0  0  3  0  0  0  0  0  0
  181.6290  174.1200  136.5340 C   0  0  2  0  0  0  0  0  0  0  0  0
  180.9270  175.9380  137.8430 C   0  0  2  0  0  3  0  0  0  0  0  0
  181.5960  174.6030  137.9650 C   0  0  0  0  0  2  0  0  0  0  0  0
  180.8830  172.0980  137.6190 O   0  0  0  0  0  1  0  0  0  0  0  0
  181.5510  172.5920  136.4990 C   0  0  0  0  0  2  0  0  0  0  0  0
  180.7870  176.7540  140.0840 O   0  0  0  0  0  1  0  0  0  0  0  0
  180.0270  176.2260  139.0390 C   0  0  0  0  0  2  0  0  0  0  0  0
  180.3310  177.0440  135.7100 C   0  0  0  0  0  2  0  0  0  0  0  0
  179.6210  178.2470  136.3130 C   0  0  0  0  0  2  0  0  0  0  0  0
  180.6670  182.6920  135.5450 C   0  0  0  0  0  1  0  0  0  0  0  0
  180.7540  181.5180  138.9360 C   0  0  0  0  0  1  0  0  0  0  0  0
  180.4050  179.4420  136.0530 N   0  0  0  0  0  0  0  0  0  0  0  0
  179.4690  180.5500  135.8800 C   0  0  0  0  0  2  0  0  0  0  0  0
  181.1590  179.7380  137.2660 C   0  0  0  0  0  2  0  0  0  0  0  0
  181.1180  181.2350  137.4910 C   0  0  1  0  0  3  0  0  0  0  0  0
  180.0390  181.7690  136.5730 C   0  0  1  0  0  3  0  0  0  0  0  0
  1  9  1  0  0  0  0
  2 12  1  0  0  0  0
  2  1  2  0  0  0  0
  3  4  1  0  0  0  0
  4  1  1  0  0  0  0
  5  3  2  0  0  0  0
  5  2  1  0  0  0  0
  6  8  1  0  0  0  0
  7 10  1  0  0  0  0
  8  9  1  0  0  0  0
  8  7  2  0  0  0  0
  9 11  1  0  0  0  0
 11 10  2  0  0  0  0
 12 14  1  0  0  0  0
 13 14  2  0  0  0  0
 14 15  1  0  0  0  0
 15 18  1  0  0  0  0
 16 19  1  0  0  0  0
 18 17  2  0  0  0  0
 18 16  1  0  0  0  0
 19 22  1  0  0  0  0
 20 22  2  0  0  0  0
 21 23  1  0  0  0  0
 22 21  1  0  0  0  0
 23 24  1  6  0  0  0
 23 26  1  0  0  0  0
 25 24  1  0  0  0  0
 27 29  1  1  0  0  0
 28 27  1  0  0  0  0
 30 26  1  1  0  0  0
 30 31  1  0  0  0  0
 30 28  1  0  0  0  0
 31 33  1  1  0  0  0
 31 32  1  0  0  0  0
 32 27  1  0  0  0  0
 32 29  1  1  0  0  0
 34 33  1  0  0  0  0
 34 36  1  0  0  0  0
 35 34  2  0  0  0  0
 37 34  1  0  0  0  0
 38  3  1  0  0  0  0
 39 38  1  0  0  0  0
 39 40  1  0  0  0  0
 41 40  1  0  0  0  0
 42 44  1  0  0  0  0
 42 43  1  0  0  0  0
 43 51  1  6  0  0  0
 43 45  1  0  0  0  0
 44 41  1  6  0  0  0
 44 46  1  0  0  0  0
 45 46  1  0  0  0  0
 45 50  1  1  0  0  0
 48 44  1  0  0  0  0
 48 47  1  0  0  0  0
 50 49  1  0  0  0  0
 51 52  1  0  0  0  0
 55 52  1  0  0  0  0
 55 57  1  0  0  0  0
 56 55  1  0  0  0  0
 56 59  1  0  0  0  0
 57 58  1  0  0  0  0
 58 54  1  1  0  0  0
 59 53  1  6  0  0  0
 59 58  1  0  0  0  0
M  END
>  <MODEL>
4

>  <REMARK>
 VINA RESULT:      -6.4      3.822      8.626
  Name = 
  22 active torsions:
  status: ('A' for Active; 'I' for Inactive)
    1  A    between atoms: C_2  and  C_25
    2  A    between atoms: C_3  and  N_33
    3  A    between atoms: P_6  and  O_19
    4  A    between atoms: N_7  and  C_47
    5  A    between atoms: C_8  and  N_17
    6  A    between atoms: C_15  and  O_34
    7  A    between atoms: C_15  and  C_49
    8  A    between atoms: N_18  and  C_41
    9  A    between atoms: O_19  and  C_48
   10  A    between atoms: C_20  and  C_23
   11  A    between atoms: C_21  and  O_51
   12  A    between atoms: C_22  and  C_23
   13  A    between atoms: C_22  and  O_34
   14  A    between atoms: C_25  and  N_39
   15  A    between atoms: C_25  and  O_51
   16  A    between atoms: C_28  and  C_50
   17  A    between atoms: C_28  and  C_56
   18  A    between atoms: C_29  and  C_55
   19  A    between atoms: C_31  and  C_49
   20  A    between atoms: C_40  and  C_46
   21  A    between atoms: C_41  and  C_46
   22  A    between atoms: C_43  and  C_47
                            x       y       z     vdW  Elec       q    Type
                         _______ _______ _______ _____ _____    ______ ____

>  <TORSDO>
F 22

$$$$
=
 OpenBabel10222420043D

 59 64  0  0  1  0  0  0  0  0999 V2000
  189.4050  177.2430  143.5720 C   0  0  0  0  0  0  0  0  0  0  0  0
  188.0280  177.4210  143.4700 C   0  0  0  0  0  0  0  0  0  0  0  0
  188.6550  177.8800  141.2800 C   0  0  0  0  0  0  0  0  0  0  0  0
  190.1040  177.5510  142.0750 S   0  0  0  0  0  0  0  0  0  0  0  0
  187.5950  177.7860  142.1840 C   0  0  0  0  0  3  0  0  0  0  0  0
  191.8230  175.3240  143.9870 C   0  0  0  0  0  1  0  0  0  0  0  0
  191.6680  176.3640  146.2520 N   0  0  0  0  0  0  0  0  0  0  0  0
  191.2110  176.2450  144.9950 C   0  0  0  0  0  0  0  0  0  0  0  0
  190.1320  177.0240  144.7920 N   0  0  0  0  0  0  0  0  0  0  0  0
  190.8240  177.2670  146.8060 C   0  0  0  0  0  3  0  0  0  0  0  0
  189.8910  177.6680  145.9230 N   0  0  0  0  0  0  0  0  0  0  0  0
  187.1200  177.2100  144.5510 N   0  0  0  0  0  2  0  0  0  0  0  0
  185.1820  177.7250  145.7080 O   0  0  0  0  0  0  0  0  0  0  0  0
  185.8720  177.8930  144.6670 C   0  0  0  0  0  0  0  0  0  0  0  0
  185.4100  178.8360  143.5880 C   0  0  0  0  0  2  0  0  0  0  0  0
  183.0170  178.5970  142.8110 N   0  0  0  0  0  2  0  0  0  0  0  0
  183.5950  180.0240  144.5710 O   0  0  0  0  0  0  0  0  0  0  0  0
  183.9630  179.1840  143.7050 C   0  0  0  0  0  0  0  0  0  0  0  0
  181.6180  178.9950  142.8240 C   0  0  0  0  0  2  0  0  0  0  0  0
  179.8870  179.4480  141.2690 O   0  0  0  0  0  0  0  0  0  0  0  0
  181.9900  179.0310  140.3150 N   0  0  0  0  0  2  0  0  0  0  0  0
  181.1000  179.1510  141.4340 C   0  0  0  0  0  0  0  0  0  0  0  0
  181.7020  179.3880  138.9220 C   0  0  2  0  0  3  0  0  0  0  0  0
  181.6200  180.8930  138.6390 C   0  0  0  0  0  2  0  0  0  0  0  0
  181.3010  181.1500  137.3010 O   0  0  0  0  0  1  0  0  0  0  0  0
  180.7570  178.5450  138.2850 O   0  0  0  0  0  0  0  0  0  0  0  0
  181.0160  176.9880  135.3940 C   0  0  2  0  0  3  0  0  0  0  0  0
  181.6550  177.8840  136.2830 O   0  0  0  0  0  0  0  0  0  0  0  0
  179.5040  177.1420  135.4810 C   0  0  0  0  0  2  0  0  0  0  0  0
  181.4020  177.4890  137.6150 C   0  0  2  0  0  3  0  0  0  0  0  0
  180.5510  176.2230  137.5970 C   0  0  2  0  0  3  0  0  0  0  0  0
  180.2090  175.9650  136.1520 C   0  0  2  0  0  3  0  0  0  0  0  0
  179.3770  176.3320  138.3640 O   0  0  0  0  0  0  0  0  0  0  0  0
  179.6630  175.4290  139.7780 P   0  0  0  0  0  0  0  0  0  0  0  0
  181.3350  175.3000  140.0220 O   0  0  0  0  0  1  0  0  0  0  0  0
  178.9820  176.2320  141.1050 O   0  0  0  0  0  1  0  0  0  0  0  0
  179.0670  174.0440  139.6560 O   0  0  0  0  0  0  0  0  0  0  0  0
  188.5810  178.4150  139.8890 C   0  0  0  0  0  2  0  0  0  0  0  0
  188.8590  177.3540  138.8420 C   0  0  0  0  0  2  0  0  0  0  0  0
  190.2080  177.3840  138.4770 O   0  0  0  0  0  0  0  0  0  0  0  0
  190.6110  176.0460  138.5130 C   0  0  0  0  0  2  0  0  0  0  0  0
  191.5000  176.2040  136.2820 O   0  0  0  0  0  0  0  0  0  0  0  0
  191.0480  175.0660  135.5850 C   0  0  1  0  0  3  0  0  0  0  0  0
  191.8180  175.7990  137.5950 C   0  0  2  0  0  0  0  0  0  0  0  0
  191.2420  173.8380  136.4400 C   0  0  2  0  0  3  0  0  0  0  0  0
  192.1180  174.3190  137.5560 C   0  0  0  0  0  2  0  0  0  0  0  0
  194.2130  175.8170  137.8890 O   0  0  0  0  0  1  0  0  0  0  0  0
  193.0520  176.5680  138.0710 C   0  0  0  0  0  2  0  0  0  0  0  0
  193.0640  172.2990  136.3020 O   0  0  0  0  0  1  0  0  0  0  0  0
  191.9100  172.7240  135.6430 C   0  0  0  0  0  2  0  0  0  0  0  0
  189.5740  175.2190  135.2410 C   0  0  0  0  0  2  0  0  0  0  0  0
  188.7760  174.0590  135.8170 C   0  0  0  0  0  2  0  0  0  0  0  0
  184.4800  175.3560  136.9580 C   0  0  0  0  0  1  0  0  0  0  0  0
  186.6710  177.8520  135.5950 C   0  0  0  0  0  1  0  0  0  0  0  0
  187.3580  174.3500  135.6960 N   0  0  0  0  0  0  0  0  0  0  0  0
  186.8720  174.7140  137.0240 C   0  0  0  0  0  2  0  0  0  0  0  0
  187.2310  175.5510  134.8770 C   0  0  0  0  0  2  0  0  0  0  0  0
  186.1600  176.4280  135.4930 C   0  0  1  0  0  3  0  0  0  0  0  0
  185.9050  175.8700  136.8780 C   0  0  1  0  0  3  0  0  0  0  0  0
  1  9  1  0  0  0  0
  2  1  2  0  0  0  0
  2 12  1  0  0  0  0
  3  4  1  0  0  0  0
  3  5  2  0  0  0  0
  4  1  1  0  0  0  0
  5  2  1  0  0  0  0
  6  8  1  0  0  0  0
  7 10  1  0  0  0  0
  8  7  2  0  0  0  0
  9  8  1  0  0  0  0
  9 11  1  0  0  0  0
 11 10  2  0  0  0  0
 12 14  1  0  0  0  0
 14 13  2  0  0  0  0
 15 18  1  0  0  0  0
 15 14  1  0  0  0  0
 16 19  1  0  0  0  0
 16 18  1  0  0  0  0
 18 17  2  0  0  0  0
 20 22  2  0  0  0  0
 21 22  1  0  0  0  0
 22 19  1  0  0  0  0
 23 24  1  1  0  0  0
 23 21  1  0  0  0  0
 25 24  1  0  0  0  0
 26 23  1  0  0  0  0
 27 29  1  6  0  0  0
 27 32  1  0  0  0  0
 27 28  1  0  0  0  0
 28 30  1  0  0  0  0
 30 26  1  1  0  0  0
 31 30  1  0  0  0  0
 31 33  1  1  0  0  0
 32 29  1  1  0  0  0
 32 31  1  0  0  0  0
 33 34  1  0  0  0  0
 34 35  1  0  0  0  0
 34 36  1  0  0  0  0
 37 34  2  0  0  0  0
 38  3  1  0  0  0  0
 39 38  1  0  0  0  0
 40 41  1  0  0  0  0
 40 39  1  0  0  0  0
 42 44  1  0  0  0  0
 43 51  1  1  0  0  0
 43 42  1  0  0  0  0
 43 45  1  0  0  0  0
 44 48  1  1  0  0  0
 44 41  1  0  0  0  0
 45 50  1  6  0  0  0
 45 46  1  0  0  0  0
 46 44  1  0  0  0  0
 47 48  1  0  0  0  0
 50 49  1  0  0  0  0
 51 52  1  0  0  0  0
 55 52  1  0  0  0  0
 55 56  1  0  0  0  0
 57 58  1  0  0  0  0
 57 55  1  0  0  0  0
 58 54  1  1  0  0  0
 58 59  1  0  0  0  0
 59 53  1  6  0  0  0
 59 56  1  0  0  0  0
M  END
>  <MODEL>
5

>  <REMARK>
 VINA RESULT:      -6.2      2.930      9.687
  Name = 
  22 active torsions:
  status: ('A' for Active; 'I' for Inactive)
    1  A    between atoms: C_2  and  C_25
    2  A    between atoms: C_3  and  N_33
    3  A    between atoms: P_6  and  O_19
    4  A    between atoms: N_7  and  C_47
    5  A    between atoms: C_8  and  N_17
    6  A    between atoms: C_15  and  O_34
    7  A    between atoms: C_15  and  C_49
    8  A    between atoms: N_18  and  C_41
    9  A    between atoms: O_19  and  C_48
   10  A    between atoms: C_20  and  C_23
   11  A    between atoms: C_21  and  O_51
   12  A    between atoms: C_22  and  C_23
   13  A    between atoms: C_22  and  O_34
   14  A    between atoms: C_25  and  N_39
   15  A    between atoms: C_25  and  O_51
   16  A    between atoms: C_28  and  C_50
   17  A    between atoms: C_28  and  C_56
   18  A    between atoms: C_29  and  C_55
   19  A    between atoms: C_31  and  C_49
   20  A    between atoms: C_40  and  C_46
   21  A    between atoms: C_41  and  C_46
   22  A    between atoms: C_43  and  C_47
                            x       y       z     vdW  Elec       q    Type
                         _______ _______ _______ _____ _____    ______ ____

>  <TORSDO>
F 22

$$$$
=
 OpenBabel10222420043D

 59 64  0  0  1  0  0  0  0  0999 V2000
  187.6040  177.8710  145.0880 C   0  0  0  0  0  0  0  0  0  0  0  0
  188.0710  177.0850  144.0380 C   0  0  0  0  0  0  0  0  0  0  0  0
  186.1080  177.8900  143.0920 C   0  0  0  0  0  0  0  0  0  0  0  0
  186.1380  178.5610  144.6390 S   0  0  0  0  0  0  0  0  0  0  0  0
  187.2330  177.0840  142.9110 C   0  0  0  0  0  3  0  0  0  0  0  0
  186.0700  178.2800  147.7680 C   0  0  0  0  0  1  0  0  0  0  0  0
  188.4000  177.9820  148.6140 N   0  0  0  0  0  0  0  0  0  0  0  0
  187.5370  178.0530  147.5870 C   0  0  0  0  0  0  0  0  0  0  0  0
  188.1730  177.9300  146.4070 N   0  0  0  0  0  0  0  0  0  0  0  0
  189.5950  177.7960  148.0040 C   0  0  0  0  0  3  0  0  0  0  0  0
  189.4600  177.7650  146.6660 N   0  0  0  0  0  0  0  0  0  0  0  0
  189.3110  176.3770  144.0710 N   0  0  0  0  0  2  0  0  0  0  0  0
  191.3980  175.8930  143.1960 O   0  0  0  0  0  0  0  0  0  0  0  0
  190.3820  176.6380  143.1640 C   0  0  0  0  0  0  0  0  0  0  0  0
  190.2800  177.7500  142.1550 C   0  0  0  0  0  2  0  0  0  0  0  0
  191.5160  177.1640  140.0300 N   0  0  0  0  0  2  0  0  0  0  0  0
  189.1930  176.9540  140.1910 O   0  0  0  0  0  0  0  0  0  0  0  0
  190.2850  177.2540  140.7470 C   0  0  0  0  0  0  0  0  0  0  0  0
  191.5460  176.7920  138.6250 C   0  0  0  0  0  2  0  0  0  0  0  0
  193.8730  176.5530  139.0080 O   0  0  0  0  0  0  0  0  0  0  0  0
  193.2250  176.4430  136.7560 N   0  0  0  0  0  2  0  0  0  0  0  0
  192.9510  176.6130  138.1540 C   0  0  0  0  0  0  0  0  0  0  0  0
  194.4950  176.0210  136.1560 C   0  0  2  0  0  3  0  0  0  0  0  0
  195.0950  177.0020  135.1430 C   0  0  0  0  0  2  0  0  0  0  0  0
  195.3980  178.2340  135.7330 O   0  0  0  0  0  1  0  0  0  0  0  0
  194.5700  174.6370  135.8570 O   0  0  0  0  0  0  0  0  0  0  0  0
  195.4320  171.8700  137.4220 C   0  0  2  0  0  3  0  0  0  0  0  0
  195.5620  173.2790  137.4140 O   0  0  0  0  0  0  0  0  0  0  0  0
  195.2880  171.3410  136.0030 C   0  0  0  0  0  2  0  0  0  0  0  0
  194.3410  173.8640  137.0100 C   0  0  2  0  0  3  0  0  0  0  0  0
  193.3260  172.7530  136.7580 C   0  0  2  0  0  3  0  0  0  0  0  0
  194.0720  171.4540  136.9200 C   0  0  2  0  0  3  0  0  0  0  0  0
  192.7340  172.8210  135.4850 O   0  0  0  0  0  0  0  0  0  0  0  0
  191.1510  173.3910  135.7400 P   0  0  0  0  0  0  0  0  0  0  0  0
  190.9240  174.8100  134.8410 O   0  0  0  0  0  0  0  0  0  0  0  0
  190.0410  172.2290  135.2060 O   0  0  0  0  0  1  0  0  0  0  0  0
  190.9200  173.6860  137.2050 O   0  0  0  0  0  1  0  0  0  0  0  0
  184.9300  177.9770  142.1790 C   0  0  0  0  0  2  0  0  0  0  0  0
  183.8400  178.8810  142.7220 C   0  0  0  0  0  2  0  0  0  0  0  0
  182.8720  179.1070  141.7400 O   0  0  0  0  0  0  0  0  0  0  0  0
  182.8710  177.9380  140.9730 C   0  0  0  0  0  2  0  0  0  0  0  0
  181.6370  176.6530  139.3550 O   0  0  0  0  0  0  0  0  0  0  0  0
  182.0090  177.1370  138.0850 C   0  0  1  0  0  3  0  0  0  0  0  0
  181.5430  177.7620  140.2210 C   0  0  2  0  0  0  0  0  0  0  0  0
  181.9920  178.6460  138.0930 C   0  0  2  0  0  3  0  0  0  0  0  0
  181.2870  178.9850  139.3710 C   0  0  0  0  0  2  0  0  0  0  0  0
  179.2100  177.2150  140.4980 O   0  0  0  0  0  1  0  0  0  0  0  0
  180.3760  177.5460  141.1870 C   0  0  0  0  0  2  0  0  0  0  0  0
  180.2160  178.3060  136.5320 O   0  0  0  0  0  1  0  0  0  0  0  0
  181.2420  179.1840  136.8800 C   0  0  0  0  0  2  0  0  0  0  0  0
  183.4050  176.6460  137.7310 C   0  0  0  0  0  2  0  0  0  0  0  0
  183.7870  177.1110  136.3340 C   0  0  0  0  0  2  0  0  0  0  0  0
  188.2130  175.8080  136.7380 C   0  0  0  0  0  1  0  0  0  0  0  0
  185.6810  173.3700  137.4690 C   0  0  0  0  0  1  0  0  0  0  0  0
  185.0890  176.5650  135.9900 N   0  0  0  0  0  0  0  0  0  0  0  0
  185.9740  176.7940  137.1290 C   0  0  0  0  0  2  0  0  0  0  0  0
  184.9370  175.1180  135.8840 C   0  0  0  0  0  2  0  0  0  0  0  0
  186.1430  174.4700  136.5330 C   0  0  1  0  0  3  0  0  0  0  0  0
  186.8330  175.5630  137.3220 C   0  0  1  0  0  3  0  0  0  0  0  0
  1  9  1  0  0  0  0
  2 12  1  0  0  0  0
  2  1  2  0  0  0  0
  3  4  1  0  0  0  0
  4  1  1  0  0  0  0
  5  3  2  0  0  0  0
  5  2  1  0  0  0  0
  8  6  1  0  0  0  0
  8  7  2  0  0  0  0
  9 11  1  0  0  0  0
  9  8  1  0  0  0  0
 10  7  1  0  0  0  0
 11 10  2  0  0  0  0
 14 13  2  0  0  0  0
 14 12  1  0  0  0  0
 15 14  1  0  0  0  0
 16 18  1  0  0  0  0
 17 18  2  0  0  0  0
 18 15  1  0  0  0  0
 19 16  1  0  0  0  0
 21 22  1  0  0  0  0
 22 19  1  0  0  0  0
 22 20  2  0  0  0  0
 23 24  1  6  0  0  0
 23 21  1  0  0  0  0
 24 25  1  0  0  0  0
 26 23  1  0  0  0  0
 27 29  1  6  0  0  0
 28 27  1  0  0  0  0
 30 26  1  6  0  0  0
 30 28  1  0  0  0  0
 31 33  1  6  0  0  0
 31 32  1  0  0  0  0
 31 30  1  0  0  0  0
 32 29  1  6  0  0  0
 32 27  1  0  0  0  0
 33 34  1  0  0  0  0
 34 37  1  0  0  0  0
 35 34  2  0  0  0  0
 36 34  1  0  0  0  0
 38 39  1  0  0  0  0
 38  3  1  0  0  0  0
 40 39  1  0  0  0  0
 41 40  1  0  0  0  0
 42 44  1  0  0  0  0
 43 51  1  1  0  0  0
 43 45  1  0  0  0  0
 43 42  1  0  0  0  0
 44 41  1  1  0  0  0
 44 48  1  0  0  0  0
 45 50  1  6  0  0  0
 45 46  1  0  0  0  0
 46 44  1  0  0  0  0
 47 48  1  0  0  0  0
 49 50  1  0  0  0  0
 52 51  1  0  0  0  0
 55 52  1  0  0  0  0
 55 56  1  0  0  0  0
 56 59  1  0  0  0  0
 57 55  1  0  0  0  0
 57 58  1  0  0  0  0
 58 59  1  0  0  0  0
 58 54  1  1  0  0  0
 59 53  1  6  0  0  0
M  END
>  <MODEL>
6

>  <REMARK>
 VINA RESULT:      -6.1      2.193      3.738
  Name = 
  22 active torsions:
  status: ('A' for Active; 'I' for Inactive)
    1  A    between atoms: C_2  and  C_25
    2  A    between atoms: C_3  and  N_33
    3  A    between atoms: P_6  and  O_19
    4  A    between atoms: N_7  and  C_47
    5  A    between atoms: C_8  and  N_17
    6  A    between atoms: C_15  and  O_34
    7  A    between atoms: C_15  and  C_49
    8  A    between atoms: N_18  and  C_41
    9  A    between atoms: O_19  and  C_48
   10  A    between atoms: C_20  and  C_23
   11  A    between atoms: C_21  and  O_51
   12  A    between atoms: C_22  and  C_23
   13  A    between atoms: C_22  and  O_34
   14  A    between atoms: C_25  and  N_39
   15  A    between atoms: C_25  and  O_51
   16  A    between atoms: C_28  and  C_50
   17  A    between atoms: C_28  and  C_56
   18  A    between atoms: C_29  and  C_55
   19  A    between atoms: C_31  and  C_49
   20  A    between atoms: C_40  and  C_46
   21  A    between atoms: C_41  and  C_46
   22  A    between atoms: C_43  and  C_47
                            x       y       z     vdW  Elec       q    Type
                         _______ _______ _______ _____ _____    ______ ____

>  <TORSDO>
F 22

$$$$
=
 OpenBabel10222420043D

 59 64  0  0  1  0  0  0  0  0999 V2000
  191.0340  176.6710  138.2890 C   0  0  0  0  0  0  0  0  0  0  0  0
  189.8570  177.1730  137.7400 C   0  0  0  0  0  0  0  0  0  0  0  0
  189.5570  177.7890  139.9590 C   0  0  0  0  0  0  0  0  0  0  0  0
  191.0380  176.9820  139.9410 S   0  0  0  0  0  0  0  0  0  0  0  0
  189.0150  177.8000  138.6730 C   0  0  0  0  0  3  0  0  0  0  0  0
  190.5890  173.7890  137.1950 C   0  0  0  0  0  1  0  0  0  0  0  0
  192.9270  174.2130  136.4310 N   0  0  0  0  0  0  0  0  0  0  0  0
  191.8220  174.6260  137.0720 C   0  0  0  0  0  0  0  0  0  0  0  0
  191.9950  175.8510  137.6030 N   0  0  0  0  0  0  0  0  0  0  0  0
  193.7820  175.2530  136.5830 C   0  0  0  0  0  3  0  0  0  0  0  0
  193.2200  176.2460  137.2940 N   0  0  0  0  0  0  0  0  0  0  0  0
  189.5430  177.1070  136.3480 N   0  0  0  0  0  2  0  0  0  0  0  0
  188.2330  176.3540  134.5950 O   0  0  0  0  0  0  0  0  0  0  0  0
  188.3760  176.4580  135.8420 C   0  0  0  0  0  0  0  0  0  0  0  0
  187.3610  175.8630  136.7810 C   0  0  0  0  0  2  0  0  0  0  0  0
  185.4360  174.6090  135.7270 N   0  0  0  0  0  2  0  0  0  0  0  0
  185.3330  176.9150  136.1080 O   0  0  0  0  0  0  0  0  0  0  0  0
  185.9840  175.8390  136.2030 C   0  0  0  0  0  0  0  0  0  0  0  0
  184.1450  174.5680  135.0590 C   0  0  0  0  0  2  0  0  0  0  0  0
  183.2100  173.4380  136.9210 O   0  0  0  0  0  0  0  0  0  0  0  0
  181.8650  175.1340  136.0150 N   0  0  0  0  0  2  0  0  0  0  0  0
  183.0480  174.3230  136.0400 C   0  0  0  0  0  0  0  0  0  0  0  0
  180.8170  175.1890  137.0390 C   0  0  2  0  0  3  0  0  0  0  0  0
  179.4030  174.8660  136.5420 C   0  0  0  0  0  2  0  0  0  0  0  0
  179.1130  175.5280  135.3440 O   0  0  0  0  0  1  0  0  0  0  0  0
  180.9620  176.2490  137.9700 O   0  0  0  0  0  0  0  0  0  0  0  0
  183.4090  177.9360  139.3900 C   0  0  2  0  0  3  0  0  0  0  0  0
  183.0640  176.7220  138.7510 O   0  0  0  0  0  0  0  0  0  0  0  0
  182.2200  178.4840  140.1660 C   0  0  0  0  0  2  0  0  0  0  0  0
  182.1380  176.9790  137.7160 C   0  0  2  0  0  3  0  0  0  0  0  0
  181.8740  178.4800  137.6570 C   0  0  2  0  0  3  0  0  0  0  0  0
  182.6170  179.0860  138.8200 C   0  0  2  0  0  3  0  0  0  0  0  0
  180.5080  178.8070  137.7270 O   0  0  0  0  0  0  0  0  0  0  0  0
  180.3670  180.3600  137.0460 P   0  0  0  0  0  0  0  0  0  0  0  0
  181.3870  181.4240  137.8830 O   0  0  0  0  0  1  0  0  0  0  0  0
  180.8510  180.3090  135.4240 O   0  0  0  0  0  0  0  0  0  0  0  0
  178.9420  180.8570  137.1410 O   0  0  0  0  0  1  0  0  0  0  0  0
  188.8590  178.2010  141.2130 C   0  0  0  0  0  2  0  0  0  0  0  0
  189.8200  178.6970  142.2760 C   0  0  0  0  0  2  0  0  0  0  0  0
  189.3370  178.3720  143.5470 O   0  0  0  0  0  0  0  0  0  0  0  0
  190.4820  178.2660  144.3410 C   0  0  0  0  0  2  0  0  0  0  0  0
  189.0310  176.6180  145.3250 O   0  0  0  0  0  0  0  0  0  0  0  0
  188.2070  177.3000  146.2430 C   0  0  1  0  0  3  0  0  0  0  0  0
  190.3220  177.1790  145.4140 C   0  0  2  0  0  0  0  0  0  0  0  0
  189.0470  178.2330  147.0810 C   0  0  2  0  0  3  0  0  0  0  0  0
  190.4520  177.8080  146.7820 C   0  0  0  0  0  2  0  0  0  0  0  0
  191.6720  175.8680  143.9050 O   0  0  0  0  0  1  0  0  0  0  0  0
  191.3620  176.0700  145.2500 C   0  0  0  0  0  2  0  0  0  0  0  0
  188.1920  176.8040  148.7940 O   0  0  0  0  0  1  0  0  0  0  0  0
  188.7170  178.0750  148.5610 C   0  0  0  0  0  2  0  0  0  0  0  0
  187.1500  178.1000  145.4970 C   0  0  0  0  0  2  0  0  0  0  0  0
  185.8390  178.0870  146.2670 C   0  0  0  0  0  2  0  0  0  0  0  0
  182.1450  179.0420  143.6430 C   0  0  0  0  0  1  0  0  0  0  0  0
  185.3880  179.3570  142.1380 C   0  0  0  0  0  1  0  0  0  0  0  0
  184.7400  177.9050  145.3340 N   0  0  0  0  0  0  0  0  0  0  0  0
  183.9920  179.1580  145.2900 C   0  0  0  0  0  2  0  0  0  0  0  0
  185.3220  177.7370  144.0070 C   0  0  0  0  0  2  0  0  0  0  0  0
  184.4810  178.5230  143.0230 C   0  0  1  0  0  3  0  0  0  0  0  0
  183.5970  179.4290  143.8540 C   0  0  1  0  0  3  0  0  0  0  0  0
  1  4  1  0  0  0  0
  2  1  2  0  0  0  0
  2  5  1  0  0  0  0
  3 38  1  0  0  0  0
  4  3  1  0  0  0  0
  5  3  2  0  0  0  0
  7 10  1  0  0  0  0
  7  8  2  0  0  0  0
  8  6  1  0  0  0  0
  8  9  1  0  0  0  0
  9  1  1  0  0  0  0
 10 11  2  0  0  0  0
 11  9  1  0  0  0  0
 12  2  1  0  0  0  0
 13 14  2  0  0  0  0
 14 12  1  0  0  0  0
 14 15  1  0  0  0  0
 16 18  1  0  0  0  0
 17 18  2  0  0  0  0
 18 15  1  0  0  0  0
 19 16  1  0  0  0  0
 19 22  1  0  0  0  0
 21 22  1  0  0  0  0
 21 23  1  0  0  0  0
 22 20  2  0  0  0  0
 23 24  1  6  0  0  0
 23 26  1  0  0  0  0
 25 24  1  0  0  0  0
 27 29  1  1  0  0  0
 28 27  1  0  0  0  0
 30 26  1  1  0  0  0
 30 28  1  0  0  0  0
 31 30  1  0  0  0  0
 31 33  1  1  0  0  0
 31 32  1  0  0  0  0
 32 27  1  0  0  0  0
 32 29  1  1  0  0  0
 34 37  1  0  0  0  0
 34 33  1  0  0  0  0
 34 35  1  0  0  0  0
 36 34  2  0  0  0  0
 38 39  1  0  0  0  0
 39 40  1  0  0  0  0
 40 41  1  0  0  0  0
 42 44  1  0  0  0  0
 42 43  1  0  0  0  0
 43 51  1  6  0  0  0
 43 45  1  0  0  0  0
 44 41  1  6  0  0  0
 44 46  1  0  0  0  0
 45 50  1  1  0  0  0
 46 45  1  0  0  0  0
 47 48  1  0  0  0  0
 48 44  1  0  0  0  0
 50 49  1  0  0  0  0
 51 52  1  0  0  0  0
 55 52  1  0  0  0  0
 56 55  1  0  0  0  0
 57 55  1  0  0  0  0
 58 54  1  6  0  0  0
 58 59  1  0  0  0  0
 58 57  1  0  0  0  0
 59 53  1  1  0  0  0
 59 56  1  0  0  0  0
M  END
>  <MODEL>
7

>  <REMARK>
 VINA RESULT:      -6.0      3.716      9.498
  Name = 
  22 active torsions:
  status: ('A' for Active; 'I' for Inactive)
    1  A    between atoms: C_2  and  C_25
    2  A    between atoms: C_3  and  N_33
    3  A    between atoms: P_6  and  O_19
    4  A    between atoms: N_7  and  C_47
    5  A    between atoms: C_8  and  N_17
    6  A    between atoms: C_15  and  O_34
    7  A    between atoms: C_15  and  C_49
    8  A    between atoms: N_18  and  C_41
    9  A    between atoms: O_19  and  C_48
   10  A    between atoms: C_20  and  C_23
   11  A    between atoms: C_21  and  O_51
   12  A    between atoms: C_22  and  C_23
   13  A    between atoms: C_22  and  O_34
   14  A    between atoms: C_25  and  N_39
   15  A    between atoms: C_25  and  O_51
   16  A    between atoms: C_28  and  C_50
   17  A    between atoms: C_28  and  C_56
   18  A    between atoms: C_29  and  C_55
   19  A    between atoms: C_31  and  C_49
   20  A    between atoms: C_40  and  C_46
   21  A    between atoms: C_41  and  C_46
   22  A    between atoms: C_43  and  C_47
                            x       y       z     vdW  Elec       q    Type
                         _______ _______ _______ _____ _____    ______ ____

>  <TORSDO>
F 22

$$$$
=
 OpenBabel10222420043D

 59 64  0  0  1  0  0  0  0  0999 V2000
  190.5450  176.6420  143.9000 C   0  0  0  0  0  0  0  0  0  0  0  0
  189.2250  176.7800  143.4780 C   0  0  0  0  0  0  0  0  0  0  0  0
  190.3240  177.0420  141.4480 C   0  0  0  0  0  0  0  0  0  0  0  0
  191.5610  176.8220  142.5730 S   0  0  0  0  0  0  0  0  0  0  0  0
  189.0890  177.0120  142.0990 C   0  0  0  0  0  3  0  0  0  0  0  0
  192.4330  174.4900  145.1260 C   0  0  0  0  0  1  0  0  0  0  0  0
  192.0710  175.9650  147.1080 N   0  0  0  0  0  0  0  0  0  0  0  0
  191.8360  175.6740  145.8180 C   0  0  0  0  0  0  0  0  0  0  0  0
  190.9820  176.5570  145.2670 N   0  0  0  0  0  0  0  0  0  0  0  0
  191.3290  177.0790  147.3160 C   0  0  0  0  0  3  0  0  0  0  0  0
  190.6670  177.4390  146.2010 N   0  0  0  0  0  0  0  0  0  0  0  0
  188.0990  176.6530  144.3470 N   0  0  0  0  0  2  0  0  0  0  0  0
  185.9920  177.3030  145.0500 O   0  0  0  0  0  0  0  0  0  0  0  0
  186.8940  177.3990  144.1750 C   0  0  0  0  0  0  0  0  0  0  0  0
  186.7230  178.3210  142.9990 C   0  0  0  0  0  2  0  0  0  0  0  0
  184.4760  177.9830  141.8920 N   0  0  0  0  0  2  0  0  0  0  0  0
  184.8570  179.7540  143.3720 O   0  0  0  0  0  0  0  0  0  0  0  0
  185.3020  178.7290  142.7860 C   0  0  0  0  0  0  0  0  0  0  0  0
  183.1240  178.4160  141.5760 C   0  0  0  0  0  2  0  0  0  0  0  0
  183.1520  178.9790  139.2740 O   0  0  0  0  0  0  0  0  0  0  0  0
  182.1640  176.9110  139.7740 N   0  0  0  0  0  2  0  0  0  0  0  0
  182.8010  178.1420  140.1460 C   0  0  0  0  0  0  0  0  0  0  0  0
  181.9990  176.3840  138.4160 C   0  0  2  0  0  3  0  0  0  0  0  0
  181.2070  177.2840  137.4600 C   0  0  0  0  0  2  0  0  0  0  0  0
  179.9790  177.6690  138.0100 O   0  0  0  0  0  1  0  0  0  0  0  0
  181.7610  174.9870  138.3540 O   0  0  0  0  0  0  0  0  0  0  0  0
  180.0600  172.8360  136.5300 C   0  0  2  0  0  3  0  0  0  0  0  0
  180.1280  174.1820  136.9630 O   0  0  0  0  0  0  0  0  0  0  0  0
  180.6070  171.9050  137.6010 C   0  0  0  0  0  2  0  0  0  0  0  0
  181.4790  174.5870  137.0350 C   0  0  2  0  0  3  0  0  0  0  0  0
  182.3630  173.4260  136.5910 C   0  0  2  0  0  3  0  0  0  0  0  0
  181.4410  172.2540  136.3710 C   0  0  2  0  0  3  0  0  0  0  0  0
  183.3580  173.0950  137.5290 O   0  0  0  0  0  0  0  0  0  0  0  0
  184.7690  172.8030  136.6240 P   0  0  0  0  0  0  0  0  0  0  0  0
  184.7790  171.1830  136.1250 O   0  0  0  0  0  1  0  0  0  0  0  0
  184.7710  173.7930  135.2500 O   0  0  0  0  0  0  0  0  0  0  0  0
  186.0020  173.0770  137.4560 O   0  0  0  0  0  1  0  0  0  0  0  0
  190.5620  177.4410  140.0290 C   0  0  0  0  0  2  0  0  0  0  0  0
  191.9730  177.1310  139.5680 C   0  0  0  0  0  2  0  0  0  0  0  0
  191.9550  176.0960  138.6300 O   0  0  0  0  0  0  0  0  0  0  0  0
  192.8390  176.5110  137.6310 C   0  0  0  0  0  2  0  0  0  0  0  0
  192.6730  175.8110  135.3340 O   0  0  0  0  0  0  0  0  0  0  0  0
  191.3580  175.3380  135.1500 C   0  0  1  0  0  3  0  0  0  0  0  0
  193.1000  175.3920  136.6110 C   0  0  2  0  0  0  0  0  0  0  0  0
  190.9820  174.4300  136.2940 C   0  0  2  0  0  3  0  0  0  0  0  0
  192.2850  174.1770  136.9880 C   0  0  0  0  0  2  0  0  0  0  0  0
  195.2100  175.6530  135.4710 O   0  0  0  0  0  1  0  0  0  0  0  0
  194.5840  175.0250  136.5480 C   0  0  0  0  0  2  0  0  0  0  0  0
  189.1440  172.9090  136.4180 O   0  0  0  0  0  1  0  0  0  0  0  0
  190.3620  173.1370  135.7780 C   0  0  0  0  0  2  0  0  0  0  0  0
  190.3880  176.5090  135.0890 C   0  0  0  0  0  2  0  0  0  0  0  0
  189.5710  176.5810  136.3690 C   0  0  0  0  0  2  0  0  0  0  0  0
  184.9900  177.1560  136.0000 C   0  0  0  0  0  1  0  0  0  0  0  0
  186.5730  178.2600  139.0270 C   0  0  0  0  0  1  0  0  0  0  0  0
  188.2880  177.2020  136.0800 N   0  0  0  0  0  0  0  0  0  0  0  0
  187.2530  176.2050  136.3360 C   0  0  0  0  0  2  0  0  0  0  0  0
  188.0860  178.2550  137.0690 C   0  0  0  0  0  2  0  0  0  0  0  0
  186.6380  178.2100  137.5130 C   0  0  1  0  0  3  0  0  0  0  0  0
  186.0870  176.8900  137.0150 C   0  0  1  0  0  3  0  0  0  0  0  0
  1  9  1  0  0  0  0
  2  1  2  0  0  0  0
  2 12  1  0  0  0  0
  3  5  2  0  0  0  0
  3  4  1  0  0  0  0
  4  1  1  0  0  0  0
  5  2  1  0  0  0  0
  6  8  1  0  0  0  0
  7 10  1  0  0  0  0
  8  7  2  0  0  0  0
  9  8  1  0  0  0  0
  9 11  1  0  0  0  0
 11 10  2  0  0  0  0
 14 12  1  0  0  0  0
 14 13  2  0  0  0  0
 15 14  1  0  0  0  0
 16 18  1  0  0  0  0
 18 15  1  0  0  0  0
 18 17  2  0  0  0  0
 19 16  1  0  0  0  0
 20 22  2  0  0  0  0
 21 22  1  0  0  0  0
 22 19  1  0  0  0  0
 23 24  1  1  0  0  0
 23 21  1  0  0  0  0
 24 25  1  0  0  0  0
 26 23  1  0  0  0  0
 27 28  1  0  0  0  0
 27 29  1  1  0  0  0
 28 30  1  0  0  0  0
 30 26  1  1  0  0  0
 31 30  1  0  0  0  0
 31 33  1  1  0  0  0
 32 27  1  0  0  0  0
 32 31  1  0  0  0  0
 32 29  1  1  0  0  0
 34 37  1  0  0  0  0
 34 33  1  0  0  0  0
 35 34  1  0  0  0  0
 36 34  2  0  0  0  0
 38  3  1  0  0  0  0
 39 38  1  0  0  0  0
 40 39  1  0  0  0  0
 41 40  1  0  0  0  0
 42 44  1  0  0  0  0
 43 51  1  1  0  0  0
 43 42  1  0  0  0  0
 43 45  1  0  0  0  0
 44 48  1  6  0  0  0
 44 46  1  0  0  0  0
 44 41  1  0  0  0  0
 45 50  1  6  0  0  0
 45 46  1  0  0  0  0
 47 48  1  0  0  0  0
 50 49  1  0  0  0  0
 51 52  1  0  0  0  0
 55 56  1  0  0  0  0
 55 52  1  0  0  0  0
 55 57  1  0  0  0  0
 56 59  1  0  0  0  0
 57 58  1  0  0  0  0
 58 54  1  1  0  0  0
 59 53  1  6  0  0  0
 59 58  1  0  0  0  0
M  END
>  <MODEL>
8

>  <REMARK>
 VINA RESULT:      -6.0      2.794      9.039
  Name = 
  22 active torsions:
  status: ('A' for Active; 'I' for Inactive)
    1  A    between atoms: C_2  and  C_25
    2  A    between atoms: C_3  and  N_33
    3  A    between atoms: P_6  and  O_19
    4  A    between atoms: N_7  and  C_47
    5  A    between atoms: C_8  and  N_17
    6  A    between atoms: C_15  and  O_34
    7  A    between atoms: C_15  and  C_49
    8  A    between atoms: N_18  and  C_41
    9  A    between atoms: O_19  and  C_48
   10  A    between atoms: C_20  and  C_23
   11  A    between atoms: C_21  and  O_51
   12  A    between atoms: C_22  and  C_23
   13  A    between atoms: C_22  and  O_34
   14  A    between atoms: C_25  and  N_39
   15  A    between atoms: C_25  and  O_51
   16  A    between atoms: C_28  and  C_50
   17  A    between atoms: C_28  and  C_56
   18  A    between atoms: C_29  and  C_55
   19  A    between atoms: C_31  and  C_49
   20  A    between atoms: C_40  and  C_46
   21  A    between atoms: C_41  and  C_46
   22  A    between atoms: C_43  and  C_47
                            x       y       z     vdW  Elec       q    Type
                         _______ _______ _______ _____ _____    ______ ____

>  <TORSDO>
F 22

$$$$
=
 OpenBabel10222420043D

 59 64  0  0  1  0  0  0  0  0999 V2000
  188.4900  177.6190  144.5730 C   0  0  0  0  0  0  0  0  0  0  0  0
  188.3590  177.4930  143.1930 C   0  0  0  0  0  0  0  0  0  0  0  0
  186.1870  178.1020  143.7480 C   0  0  0  0  0  0  0  0  0  0  0  0
  187.0000  178.0430  145.2240 S   0  0  0  0  0  0  0  0  0  0  0  0
  187.0640  177.7570  142.7180 C   0  0  0  0  0  3  0  0  0  0  0  0
  191.4060  178.6210  144.1310 C   0  0  0  0  0  1  0  0  0  0  0  0
  191.7100  177.2080  146.1670 N   0  0  0  0  0  0  0  0  0  0  0  0
  190.9130  177.7100  145.2100 C   0  0  0  0  0  0  0  0  0  0  0  0
  189.6520  177.2580  145.3400 N   0  0  0  0  0  0  0  0  0  0  0  0
  190.8720  176.4360  146.8980 C   0  0  0  0  0  3  0  0  0  0  0  0
  189.6230  176.4640  146.3980 N   0  0  0  0  0  0  0  0  0  0  0  0
  189.4430  177.1720  142.3210 N   0  0  0  0  0  2  0  0  0  0  0  0
  190.2990  176.7620  140.2100 O   0  0  0  0  0  0  0  0  0  0  0  0
  189.3220  177.1600  140.8980 C   0  0  0  0  0  0  0  0  0  0  0  0
  188.0340  177.5680  140.2340 C   0  0  0  0  0  2  0  0  0  0  0  0
  187.7260  177.2460  137.7460 N   0  0  0  0  0  2  0  0  0  0  0  0
  188.8730  179.0930  138.6080 O   0  0  0  0  0  0  0  0  0  0  0  0
  188.2300  178.0300  138.8280 C   0  0  0  0  0  0  0  0  0  0  0  0
  187.9940  177.6080  136.3630 C   0  0  0  0  0  2  0  0  0  0  0  0
  190.0890  177.6830  135.2560 O   0  0  0  0  0  0  0  0  0  0  0  0
  189.5470  175.6080  136.2070 N   0  0  0  0  0  2  0  0  0  0  0  0
  189.2590  176.9770  135.8860 C   0  0  0  0  0  0  0  0  0  0  0  0
  190.8270  174.9160  136.0310 C   0  0  2  0  0  3  0  0  0  0  0  0
  190.8150  173.7760  135.0050 C   0  0  0  0  0  2  0  0  0  0  0  0
  190.8940  172.5230  135.6240 O   0  0  0  0  0  1  0  0  0  0  0  0
  191.5550  174.7150  137.2310 O   0  0  0  0  0  0  0  0  0  0  0  0
  193.9240  176.2390  135.5240 C   0  0  2  0  0  3  0  0  0  0  0  0
  192.6640  176.4020  136.1460 O   0  0  0  0  0  0  0  0  0  0  0  0
  194.0700  174.8260  134.9800 C   0  0  0  0  0  2  0  0  0  0  0  0
  192.6180  175.6310  137.3290 C   0  0  2  0  0  3  0  0  0  0  0  0
  193.9600  174.9290  137.5080 C   0  0  2  0  0  3  0  0  0  0  0  0
  194.7670  175.2390  136.2740 C   0  0  2  0  0  3  0  0  0  0  0  0
  193.8410  173.5380  137.6770 O   0  0  0  0  0  0  0  0  0  0  0  0
  195.3310  173.0190  138.3140 P   0  0  0  0  0  0  0  0  0  0  0  0
  195.2190  171.3750  138.7110 O   0  0  0  0  0  1  0  0  0  0  0  0
  196.5410  173.2130  137.1450 O   0  0  0  0  0  0  0  0  0  0  0  0
  195.6840  173.8090  139.5550 O   0  0  0  0  0  1  0  0  0  0  0  0
  184.7080  178.2680  143.6280 C   0  0  0  0  0  2  0  0  0  0  0  0
  184.2620  178.4790  142.1940 C   0  0  0  0  0  2  0  0  0  0  0  0
  182.8850  178.7120  142.1500 O   0  0  0  0  0  0  0  0  0  0  0  0
  182.4520  178.0380  141.0050 C   0  0  0  0  0  2  0  0  0  0  0  0
  180.4730  177.5160  139.7380 O   0  0  0  0  0  0  0  0  0  0  0  0
  180.7240  177.9190  138.4120 C   0  0  1  0  0  3  0  0  0  0  0  0
  181.0420  178.4850  140.5910 C   0  0  2  0  0  0  0  0  0  0  0  0
  181.3370  179.2980  138.4090 C   0  0  2  0  0  3  0  0  0  0  0  0
  181.1370  179.7770  139.8140 C   0  0  0  0  0  2  0  0  0  0  0  0
  179.4310  177.5060  142.0980 O   0  0  0  0  0  1  0  0  0  0  0  0
  180.1340  178.6760  141.8080 C   0  0  0  0  0  2  0  0  0  0  0  0
  181.0430  181.5220  137.5880 O   0  0  0  0  0  1  0  0  0  0  0  0
  180.6330  180.2010  137.4030 C   0  0  0  0  0  2  0  0  0  0  0  0
  181.6730  176.9380  137.7410 C   0  0  0  0  0  2  0  0  0  0  0  0
  183.0780  177.5170  137.6910 C   0  0  0  0  0  2  0  0  0  0  0  0
  184.8950  173.2580  137.6210 C   0  0  0  0  0  1  0  0  0  0  0  0
  183.2190  174.4070  134.6620 C   0  0  0  0  0  1  0  0  0  0  0  0
  184.0310  176.4390  137.4820 N   0  0  0  0  0  0  0  0  0  0  0  0
  183.4310  175.2180  138.0120 C   0  0  0  0  0  2  0  0  0  0  0  0
  184.1480  176.2380  136.0420 C   0  0  0  0  0  2  0  0  0  0  0  0
  184.1870  174.7470  135.7780 C   0  0  1  0  0  3  0  0  0  0  0  0
  183.7470  174.0800  137.0650 C   0  0  1  0  0  3  0  0  0  0  0  0
  1  4  1  0  0  0  0
  1  9  1  0  0  0  0
  2  1  2  0  0  0  0
  3  4  1  0  0  0  0
  5  2  1  0  0  0  0
  5  3  2  0  0  0  0
  6  8  1  0  0  0  0
  7 10  1  0  0  0  0
  8  9  1  0  0  0  0
  8  7  2  0  0  0  0
  9 11  1  0  0  0  0
 11 10  2  0  0  0  0
 12  2  1  0  0  0  0
 13 14  2  0  0  0  0
 14 12  1  0  0  0  0
 15 14  1  0  0  0  0
 16 18  1  0  0  0  0
 17 18  2  0  0  0  0
 18 15  1  0  0  0  0
 19 16  1  0  0  0  0
 20 22  2  0  0  0  0
 22 21  1  0  0  0  0
 22 19  1  0  0  0  0
 23 24  1  1  0  0  0
 23 21  1  0  0  0  0
 23 26  1  0  0  0  0
 24 25  1  0  0  0  0
 27 29  1  6  0  0  0
 27 28  1  0  0  0  0
 27 32  1  0  0  0  0
 28 30  1  0  0  0  0
 30 26  1  6  0  0  0
 30 31  1  0  0  0  0
 31 33  1  6  0  0  0
 32 29  1  6  0  0  0
 32 31  1  0  0  0  0
 33 34  1  0  0  0  0
 34 35  1  0  0  0  0
 34 37  1  0  0  0  0
 36 34  2  0  0  0  0
 38  3  1  0  0  0  0
 39 38  1  0  0  0  0
 40 39  1  0  0  0  0
 41 40  1  0  0  0  0
 42 44  1  0  0  0  0
 43 51  1  1  0  0  0
 43 42  1  0  0  0  0
 44 41  1  1  0  0  0
 44 48  1  0  0  0  0
 45 50  1  6  0  0  0
 45 43  1  0  0  0  0
 45 46  1  0  0  0  0
 46 44  1  0  0  0  0
 48 47  1  0  0  0  0
 50 49  1  0  0  0  0
 52 51  1  0  0  0  0
 55 52  1  0  0  0  0
 55 56  1  0  0  0  0
 57 55  1  0  0  0  0
 58 54  1  6  0  0  0
 58 57  1  0  0  0  0
 58 59  1  0  0  0  0
 59 53  1  1  0  0  0
 59 56  1  0  0  0  0
M  END
>  <MODEL>
9

>  <REMARK>
 VINA RESULT:      -5.9      1.855      2.581
  Name = 
  22 active torsions:
  status: ('A' for Active; 'I' for Inactive)
    1  A    between atoms: C_2  and  C_25
    2  A    between atoms: C_3  and  N_33
    3  A    between atoms: P_6  and  O_19
    4  A    between atoms: N_7  and  C_47
    5  A    between atoms: C_8  and  N_17
    6  A    between atoms: C_15  and  O_34
    7  A    between atoms: C_15  and  C_49
    8  A    between atoms: N_18  and  C_41
    9  A    between atoms: O_19  and  C_48
   10  A    between atoms: C_20  and  C_23
   11  A    between atoms: C_21  and  O_51
   12  A    between atoms: C_22  and  C_23
   13  A    between atoms: C_22  and  O_34
   14  A    between atoms: C_25  and  N_39
   15  A    between atoms: C_25  and  O_51
   16  A    between atoms: C_28  and  C_50
   17  A    between atoms: C_28  and  C_56
   18  A    between atoms: C_29  and  C_55
   19  A    between atoms: C_31  and  C_49
   20  A    between atoms: C_40  and  C_46
   21  A    between atoms: C_41  and  C_46
   22  A    between atoms: C_43  and  C_47
                            x       y       z     vdW  Elec       q    Type
                         _______ _______ _______ _____ _____    ______ ____

>  <TORSDO>
F 22

$$$$
