=
 OpenBabel10222415563D

 58 64  0  0  1  0  0  0  0  0999 V2000
  191.1460  175.8710  137.2940 C   0  0  0  0  0  0  0  0  0  0  0  0
  192.4030  176.2400  137.0910 C   0  0  0  0  0  3  0  0  0  0  0  0
  193.1110  175.9940  135.8000 C   0  0  1  0  0  3  0  0  0  0  0  0
  194.7540  176.7570  135.8670 S   0  0  0  0  0  0  0  0  0  0  0  0
  193.5360  174.6060  135.7400 N   0  0  0  0  0  2  0  0  0  0  0  0
  194.9490  174.9390  135.8330 C   0  0  1  0  0  3  0  0  0  0  0  0
  195.6840  174.3970  134.5940 C   0  0  0  0  0  2  0  0  0  0  0  0
  199.0710  172.3450  135.0170 S   0  0  0  0  0  0  0  0  0  0  0  0
  196.5630  173.2750  134.9000 N   0  0  0  0  0  0  0  0  0  0  0  0
  197.9270  173.7700  135.0240 C   0  0  0  0  0  2  0  0  0  0  0  0
  196.8660  171.4390  136.4740 C   0  0  2  0  0  3  0  0  0  0  0  0
  199.0360  170.2080  136.6800 C   0  0  0  0  0  1  0  0  0  0  0  0
  196.1910  172.7810  136.2140 C   0  0  0  0  0  2  0  0  0  0  0  0
  196.2850  170.8550  137.7590 C   0  0  0  0  0  1  0  0  0  0  0  0
  198.4060  171.5850  136.5420 C   0  0  0  0  0  0  0  0  0  0  0  0
  198.8390  172.4360  137.7290 C   0  0  0  0  0  1  0  0  0  0  0  0
  189.7330  177.1710  138.8330 C   0  0  0  0  0  3  0  0  0  0  0  0
  190.5670  176.1740  138.6110 C   0  0  0  0  0  3  0  0  0  0  0  0
  189.2530  177.3970  140.1620 C   0  0  0  0  0  0  0  0  0  0  0  0
  188.8680  177.6050  141.2870 C   0  0  0  0  0  0  0  0  0  0  0  0
  188.4190  177.9120  142.6460 C   0  0  0  0  0  2  0  0  0  0  0  0
  190.4690  177.5430  144.0620 C   0  0  0  0  0  2  0  0  0  0  0  0
  189.1180  176.9730  143.6320 C   0  0  1  0  0  3  0  0  0  0  0  0
  188.6270  177.0530  145.0890 C   0  0  1  0  0  3  0  0  0  0  0  0
  189.9990  177.6120  145.4980 C   0  0  2  0  0  0  0  0  0  0  0  0
  189.9840  178.9260  145.9640 O   0  0  0  0  0  1  0  0  0  0  0  0
  185.0430  178.3760  144.6050 C   0  0  0  0  0  3  0  0  0  0  0  0
  187.4210  177.9660  145.3550 C   0  0  2  0  0  3  0  0  0  0  0  0
  186.7910  177.6290  146.7040 C   0  0  0  0  0  2  0  0  0  0  0  0
  185.6820  178.6300  146.9980 C   0  0  0  0  0  2  0  0  0  0  0  0
  186.3610  177.7180  144.2790 C   0  0  0  0  0  2  0  0  0  0  0  0
  184.7130  178.7430  145.8500 C   0  0  0  0  0  3  0  0  0  0  0  0
  191.9460  176.1060  145.9650 O   0  0  0  0  0  0  0  0  0  0  0  0
  190.3210  176.4160  147.5510 O   0  0  0  0  0  1  0  0  0  0  0  0
  190.7600  176.6910  146.4020 C   0  0  0  0  0  0  0  0  0  0  0  0
  190.4420  175.2350  136.2530 O   0  0  0  0  0  0  0  0  0  0  0  0
  189.7820  173.9870  136.3990 C   0  0  0  0  0  2  0  0  0  0  0  0
  188.2850  174.2010  136.3800 C   0  0  0  0  0  2  0  0  0  0  0  0
  187.7910  174.0810  134.9540 C   0  0  0  0  0  2  0  0  0  0  0  0
  186.3640  173.5720  134.9290 C   0  0  0  0  0  2  0  0  0  0  0  0
  185.6610  173.7540  136.5930 S   0  0  0  0  0  0  0  0  0  0  0  0
  184.0730  175.0400  135.9330 S   0  0  0  0  0  0  0  0  0  0  0  0
  182.6230  174.9120  138.2080 O   0  0  0  0  0  0  0  0  0  0  0  0
  181.9780  177.1410  138.3850 O   0  0  0  0  0  0  0  0  0  0  0  0
  183.0220  177.0920  137.4730 C   0  0  2  0  0  3  0  0  0  0  0  0
  183.5860  175.6990  137.5760 C   0  0  2  0  0  3  0  0  0  0  0  0
  181.5790  175.8020  138.5360 C   0  0  2  0  0  3  0  0  0  0  0  0
  183.8490  178.8260  139.1420 C   0  0  0  0  0  2  0  0  0  0  0  0
  185.4020  177.6250  137.7580 N   0  0  0  0  0  2  0  0  0  0  0  0
  186.1110  178.2040  138.8330 N   0  0  0  0  0  2  0  0  0  0  0  0
  184.0560  178.1830  137.7870 C   0  0  1  0  0  3  0  0  0  0  0  0
  185.5550  179.5900  140.6870 N   0  0  0  0  0  1  0  0  0  0  0  0
  185.1210  178.4760  139.8590 C   0  0  1  0  0  3  0  0  0  0  0  0
  179.9010  174.6290  139.9620 C   0  0  0  0  0  2  0  0  0  0  0  0
  179.7220  176.1050  140.2160 C   0  0  0  0  0  0  0  0  0  0  0  0
  179.3990  176.4400  141.5290 O   0  0  0  0  0  1  0  0  0  0  0  0
  181.1170  175.5590  139.9680 C   0  0  2  0  0  3  0  0  0  0  0  0
  179.0770  176.8050  139.1930 O   0  0  0  0  0  1  0  0  0  0  0  0
  1 18  1  0  0  0  0
  2  1  2  0  0  0  0
  3  4  1  0  0  0  0
  3  2  1  1  0  0  0
  5  3  1  0  0  0  0
  5  6  1  0  0  0  0
  6  7  1  6  0  0  0
  6  4  1  0  0  0  0
  7  9  1  0  0  0  0
  8 10  1  0  0  0  0
  8 15  1  0  0  0  0
  9 10  1  0  0  0  0
  9 13  1  0  0  0  0
 11 15  1  0  0  0  0
 11 14  1  1  0  0  0
 13 11  1  0  0  0  0
 15 12  1  0  0  0  0
 15 16  1  0  0  0  0
 17 19  1  0  0  0  0
 18 17  2  0  0  0  0
 19 20  3  0  0  0  0
 20 21  1  0  0  0  0
 22 25  1  0  0  0  0
 23 21  1  6  0  0  0
 23 22  1  0  0  0  0
 23 24  1  0  0  0  0
 24 28  1  6  0  0  0
 24 25  1  0  0  0  0
 25 26  1  1  0  0  0
 25 35  1  0  0  0  0
 27 32  2  0  0  0  0
 28 31  1  6  0  0  0
 28 29  1  0  0  0  0
 29 30  1  0  0  0  0
 31 27  1  0  0  0  0
 32 30  1  0  0  0  0
 33 35  2  0  0  0  0
 35 34  1  0  0  0  0
 36 37  1  0  0  0  0
 36  1  1  0  0  0  0
 38 37  1  0  0  0  0
 39 38  1  0  0  0  0
 40 39  1  0  0  0  0
 40 41  1  0  0  0  0
 42 41  1  0  0  0  0
 44 47  1  0  0  0  0
 45 46  1  0  0  0  0
 45 51  1  0  0  0  0
 45 44  1  1  0  0  0
 46 42  1  6  0  0  0
 46 43  1  0  0  0  0
 47 43  1  1  0  0  0
 47 57  1  0  0  0  0
 48 53  1  0  0  0  0
 49 51  1  0  0  0  0
 49 50  1  0  0  0  0
 50 53  1  0  0  0  0
 51 48  1  1  0  0  0
 53 52  1  1  0  0  0
 54 55  1  0  0  0  0
 55 56  1  0  0  0  0
 57 54  1  6  0  0  0
 57 55  1  0  0  0  0
 58 55  1  0  0  0  0
M  END
>  <MODEL>
1

>  <REMARK>
 VINA RESULT:      -7.0      0.000      0.000
  Name = 
  19 active torsions:
  status: ('A' for Active; 'I' for Inactive)
    1  A    between atoms: C_1  and  C_27
    2  A    between atoms: C_1  and  C_32
    3  A    between atoms: C_5  and  C_21
    4  A    between atoms: C_6  and  C_14
    5  A    between atoms: N_7  and  C_18
    6  A    between atoms: C_8  and  C_17
    7  A    between atoms: C_12  and  O_15
    8  A    between atoms: C_12  and  C_27
    9  A    between atoms: S_13  and  C_43
   10  A    between atoms: S_13  and  S_47
   11  A    between atoms: O_15  and  C_17
   12  A    between atoms: C_16  and  C_46
   13  A    between atoms: C_18  and  C_39
   14  A    between atoms: C_24  and  C_46
   15  A    between atoms: C_26  and  C_33
   16  A    between atoms: C_29  and  C_54
   17  A    between atoms: C_32  and  S_47
   18  A    between atoms: C_40  and  C_44
   19  A    between atoms: C_48  and  C_49
                            x       y       z     vdW  Elec       q    Type
                         _______ _______ _______ _____ _____    ______ ____

>  <TORSDO>
F 19

$$$$
=
 OpenBabel10222415563D

 58 64  0  0  1  0  0  0  0  0999 V2000
  191.2180  175.8180  137.4460 C   0  0  0  0  0  0  0  0  0  0  0  0
  192.5050  176.0140  137.1990 C   0  0  0  0  0  3  0  0  0  0  0  0
  193.1260  175.6910  135.8800 C   0  0  1  0  0  3  0  0  0  0  0  0
  194.7840  176.4190  135.8080 S   0  0  0  0  0  0  0  0  0  0  0  0
  193.5190  174.2920  135.8610 N   0  0  0  0  0  2  0  0  0  0  0  0
  194.9410  174.5980  135.8500 C   0  0  1  0  0  3  0  0  0  0  0  0
  195.5850  173.9810  134.5950 C   0  0  0  0  0  2  0  0  0  0  0  0
  198.7650  171.5880  134.7420 S   0  0  0  0  0  0  0  0  0  0  0  0
  196.3800  172.7950  134.8890 N   0  0  0  0  0  0  0  0  0  0  0  0
  197.7910  173.1330  134.7620 C   0  0  0  0  0  2  0  0  0  0  0  0
  196.7310  171.0840  136.5890 C   0  0  2  0  0  3  0  0  0  0  0  0
  198.7680  169.6280  136.6100 C   0  0  0  0  0  1  0  0  0  0  0  0
  196.1670  172.4680  136.2880 C   0  0  0  0  0  2  0  0  0  0  0  0
  196.2990  170.6910  137.9990 C   0  0  0  0  0  1  0  0  0  0  0  0
  198.2700  171.0520  136.4190 C   0  0  0  0  0  0  0  0  0  0  0  0
  198.9670  171.9490  137.4340 C   0  0  0  0  0  1  0  0  0  0  0  0
  190.0030  177.2470  139.0390 C   0  0  0  0  0  3  0  0  0  0  0  0
  190.7340  176.1780  138.7860 C   0  0  0  0  0  3  0  0  0  0  0  0
  189.6120  177.5220  140.3880 C   0  0  0  0  0  0  0  0  0  0  0  0
  189.3050  177.7680  141.5290 C   0  0  0  0  0  0  0  0  0  0  0  0
  188.9620  178.1140  142.9090 C   0  0  0  0  0  2  0  0  0  0  0  0
  190.8720  177.6020  144.4690 C   0  0  0  0  0  2  0  0  0  0  0  0
  189.5730  177.0790  143.8550 C   0  0  1  0  0  3  0  0  0  0  0  0
  188.9450  177.0080  145.2600 C   0  0  1  0  0  3  0  0  0  0  0  0
  190.2660  177.5220  145.8530 C   0  0  2  0  0  0  0  0  0  0  0  0
  190.1930  178.7820  146.4480 O   0  0  0  0  0  1  0  0  0  0  0  0
  185.2820  178.1180  144.8420 C   0  0  0  0  0  3  0  0  0  0  0  0
  187.7100  177.8880  145.5010 C   0  0  2  0  0  3  0  0  0  0  0  0
  187.1630  177.6570  146.9070 C   0  0  0  0  0  2  0  0  0  0  0  0
  186.0210  178.6320  147.1630 C   0  0  0  0  0  2  0  0  0  0  0  0
  186.6120  177.4910  144.5110 C   0  0  0  0  0  2  0  0  0  0  0  0
  184.9940  178.5900  146.0620 C   0  0  0  0  0  3  0  0  0  0  0  0
  190.1960  175.6890  147.5600 O   0  0  0  0  0  1  0  0  0  0  0  0
  192.2040  176.4190  146.7320 O   0  0  0  0  0  0  0  0  0  0  0  0
  190.9470  176.5130  146.7260 C   0  0  0  0  0  0  0  0  0  0  0  0
  190.3950  175.2980  136.4270 O   0  0  0  0  0  0  0  0  0  0  0  0
  189.9470  173.9520  136.3880 C   0  0  0  0  0  2  0  0  0  0  0  0
  188.5860  173.8540  137.0390 C   0  0  0  0  0  2  0  0  0  0  0  0
  187.5410  173.6560  135.9610 C   0  0  0  0  0  2  0  0  0  0  0  0
  186.5870  172.5450  136.3460 C   0  0  0  0  0  2  0  0  0  0  0  0
  185.5000  173.1540  137.6670 S   0  0  0  0  0  0  0  0  0  0  0  0
  183.8550  173.5210  136.3360 S   0  0  0  0  0  0  0  0  0  0  0  0
  185.2160  175.7530  135.6600 O   0  0  0  0  0  0  0  0  0  0  0  0
  184.8640  177.0200  137.5800 O   0  0  0  0  0  0  0  0  0  0  0  0
  183.9410  175.9850  137.6020 C   0  0  2  0  0  3  0  0  0  0  0  0
  184.0140  175.3470  136.2400 C   0  0  2  0  0  3  0  0  0  0  0  0
  185.7880  176.6460  136.5900 C   0  0  2  0  0  3  0  0  0  0  0  0
  182.1450  176.2900  139.3790 C   0  0  0  0  0  2  0  0  0  0  0  0
  182.4830  177.9600  137.6850 N   0  0  0  0  0  2  0  0  0  0  0  0
  181.7400  178.5320  138.7410 N   0  0  0  0  0  2  0  0  0  0  0  0
  182.5430  176.5250  137.9380 C   0  0  1  0  0  3  0  0  0  0  0  0
  180.8520  177.7600  140.8100 N   0  0  0  0  0  1  0  0  0  0  0  0
  181.9810  177.6900  139.8970 C   0  0  1  0  0  3  0  0  0  0  0  0
  187.8340  177.8570  135.8320 C   0  0  0  0  0  2  0  0  0  0  0  0
  187.1210  178.7780  136.7900 C   0  0  0  0  0  0  0  0  0  0  0  0
  187.1880  180.1310  136.4620 O   0  0  0  0  0  1  0  0  0  0  0  0
  186.3040  177.8880  135.8710 C   0  0  2  0  0  3  0  0  0  0  0  0
  187.2390  178.4330  138.1390 O   0  0  0  0  0  1  0  0  0  0  0  0
  1 18  1  0  0  0  0
  2  1  2  0  0  0  0
  3  2  1  1  0  0  0
  4  6  1  0  0  0  0
  4  3  1  0  0  0  0
  5  3  1  0  0  0  0
  6  7  1  6  0  0  0
  6  5  1  0  0  0  0
  7  9  1  0  0  0  0
  8 10  1  0  0  0  0
  8 15  1  0  0  0  0
  9 13  1  0  0  0  0
 10  9  1  0  0  0  0
 11 14  1  1  0  0  0
 13 11  1  0  0  0  0
 15 11  1  0  0  0  0
 15 12  1  0  0  0  0
 15 16  1  0  0  0  0
 17 19  1  0  0  0  0
 18 17  2  0  0  0  0
 19 20  3  0  0  0  0
 20 21  1  0  0  0  0
 22 25  1  0  0  0  0
 23 21  1  6  0  0  0
 23 22  1  0  0  0  0
 23 24  1  0  0  0  0
 24 28  1  6  0  0  0
 24 25  1  0  0  0  0
 25 26  1  1  0  0  0
 25 35  1  0  0  0  0
 27 32  2  0  0  0  0
 28 31  1  6  0  0  0
 28 29  1  0  0  0  0
 29 30  1  0  0  0  0
 31 27  1  0  0  0  0
 32 30  1  0  0  0  0
 35 34  2  0  0  0  0
 35 33  1  0  0  0  0
 36  1  1  0  0  0  0
 37 36  1  0  0  0  0
 37 38  1  0  0  0  0
 39 40  1  0  0  0  0
 39 38  1  0  0  0  0
 40 41  1  0  0  0  0
 42 41  1  0  0  0  0
 43 46  1  0  0  0  0
 45 44  1  6  0  0  0
 45 51  1  0  0  0  0
 46 42  1  1  0  0  0
 46 45  1  0  0  0  0
 47 43  1  6  0  0  0
 47 44  1  0  0  0  0
 48 53  1  0  0  0  0
 49 51  1  0  0  0  0
 49 50  1  0  0  0  0
 50 53  1  0  0  0  0
 51 48  1  1  0  0  0
 53 52  1  1  0  0  0
 54 55  1  0  0  0  0
 55 58  1  0  0  0  0
 56 55  1  0  0  0  0
 57 54  1  6  0  0  0
 57 47  1  0  0  0  0
 57 55  1  0  0  0  0
M  END
>  <MODEL>
2

>  <REMARK>
 VINA RESULT:      -6.6      1.856      3.044
  Name = 
  19 active torsions:
  status: ('A' for Active; 'I' for Inactive)
    1  A    between atoms: C_1  and  C_27
    2  A    between atoms: C_1  and  C_32
    3  A    between atoms: C_5  and  C_21
    4  A    between atoms: C_6  and  C_14
    5  A    between atoms: N_7  and  C_18
    6  A    between atoms: C_8  and  C_17
    7  A    between atoms: C_12  and  O_15
    8  A    between atoms: C_12  and  C_27
    9  A    between atoms: S_13  and  C_43
   10  A    between atoms: S_13  and  S_47
   11  A    between atoms: O_15  and  C_17
   12  A    between atoms: C_16  and  C_46
   13  A    between atoms: C_18  and  C_39
   14  A    between atoms: C_24  and  C_46
   15  A    between atoms: C_26  and  C_33
   16  A    between atoms: C_29  and  C_54
   17  A    between atoms: C_32  and  S_47
   18  A    between atoms: C_40  and  C_44
   19  A    between atoms: C_48  and  C_49
                            x       y       z     vdW  Elec       q    Type
                         _______ _______ _______ _____ _____    ______ ____

>  <TORSDO>
F 19

$$$$
=
 OpenBabel10222415563D

 58 64  0  0  1  0  0  0  0  0999 V2000
  190.3260  176.3290  137.1180 C   0  0  0  0  0  0  0  0  0  0  0  0
  191.4620  175.6490  137.0470 C   0  0  0  0  0  3  0  0  0  0  0  0
  192.2160  175.4810  135.7690 C   0  0  1  0  0  3  0  0  0  0  0  0
  193.8030  176.3470  135.8950 S   0  0  0  0  0  0  0  0  0  0  0  0
  192.7330  174.1250  135.6890 N   0  0  0  0  0  2  0  0  0  0  0  0
  194.1190  174.5480  135.8260 C   0  0  1  0  0  3  0  0  0  0  0  0
  194.9170  174.0840  134.5940 C   0  0  0  0  0  2  0  0  0  0  0  0
  198.1270  171.7260  134.5940 S   0  0  0  0  0  0  0  0  0  0  0  0
  195.7400  172.9100  134.8580 N   0  0  0  0  0  0  0  0  0  0  0  0
  197.1380  173.2620  134.6480 C   0  0  0  0  0  2  0  0  0  0  0  0
  196.2050  171.2290  136.5600 C   0  0  2  0  0  3  0  0  0  0  0  0
  198.2560  169.7940  136.4860 C   0  0  0  0  0  1  0  0  0  0  0  0
  195.6100  172.6020  136.2720 C   0  0  0  0  0  2  0  0  0  0  0  0
  195.8580  170.8510  137.9970 C   0  0  0  0  0  1  0  0  0  0  0  0
  197.7330  171.2100  136.3040 C   0  0  0  0  0  0  0  0  0  0  0  0
  198.4760  172.1280  137.2650 C   0  0  0  0  0  1  0  0  0  0  0  0
  189.9230  177.3860  139.3030 C   0  0  0  0  0  3  0  0  0  0  0  0
  189.6860  176.4190  138.4370 C   0  0  0  0  0  3  0  0  0  0  0  0
  189.2680  177.3600  140.5750 C   0  0  0  0  0  0  0  0  0  0  0  0
  188.6930  177.3330  141.6360 C   0  0  0  0  0  0  0  0  0  0  0  0
  187.9610  177.2590  142.9020 C   0  0  0  0  0  2  0  0  0  0  0  0
  190.2340  177.1160  143.9780 C   0  0  0  0  0  2  0  0  0  0  0  0
  188.8200  176.5350  143.9390 C   0  0  1  0  0  3  0  0  0  0  0  0
  188.6080  176.9700  145.4010 C   0  0  1  0  0  3  0  0  0  0  0  0
  190.0360  177.5350  145.4190 C   0  0  2  0  0  0  0  0  0  0  0  0
  190.1210  178.9200  145.5600 O   0  0  0  0  0  1  0  0  0  0  0  0
  184.9830  178.2720  145.3950 C   0  0  0  0  0  3  0  0  0  0  0  0
  187.4800  177.9810  145.6550 C   0  0  2  0  0  3  0  0  0  0  0  0
  187.1980  178.0930  147.1510 C   0  0  0  0  0  2  0  0  0  0  0  0
  186.1690  179.1920  147.3820 C   0  0  0  0  0  2  0  0  0  0  0  0
  186.1990  177.4810  144.9830 C   0  0  0  0  0  2  0  0  0  0  0  0
  184.9520  179.0090  146.5140 C   0  0  0  0  0  3  0  0  0  0  0  0
  190.7760  176.9420  147.7390 O   0  0  0  0  0  1  0  0  0  0  0  0
  191.8760  176.0830  145.9220 O   0  0  0  0  0  0  0  0  0  0  0  0
  190.9420  176.8050  146.3630 C   0  0  0  0  0  0  0  0  0  0  0  0
  189.8120  176.9280  135.9510 O   0  0  0  0  0  0  0  0  0  0  0  0
  188.6220  176.5010  135.3070 C   0  0  0  0  0  2  0  0  0  0  0  0
  187.4410  177.2540  135.8760 C   0  0  0  0  0  2  0  0  0  0  0  0
  186.2260  176.9820  135.0140 C   0  0  0  0  0  2  0  0  0  0  0  0
  184.9550  177.2950  135.7780 C   0  0  0  0  0  2  0  0  0  0  0  0
  185.2860  177.0890  137.5520 S   0  0  0  0  0  0  0  0  0  0  0  0
  183.6530  178.3530  138.1450 S   0  0  0  0  0  0  0  0  0  0  0  0
  182.8060  175.7900  138.0700 O   0  0  0  0  0  0  0  0  0  0  0  0
  180.5290  176.1430  137.7440 O   0  0  0  0  0  0  0  0  0  0  0  0
  181.0700  177.3480  138.1640 C   0  0  2  0  0  3  0  0  0  0  0  0
  182.4710  177.0300  138.6150 C   0  0  2  0  0  3  0  0  0  0  0  0
  181.6430  175.3580  137.3990 C   0  0  2  0  0  3  0  0  0  0  0  0
  180.5490  177.4380  140.6530 C   0  0  0  0  0  2  0  0  0  0  0  0
  180.3650  179.4110  139.2950 N   0  0  0  0  0  2  0  0  0  0  0  0
  180.4170  179.8000  140.6510 N   0  0  0  0  0  2  0  0  0  0  0  0
  180.2060  177.9620  139.2750 C   0  0  1  0  0  3  0  0  0  0  0  0
  180.5440  178.6690  142.7420 N   0  0  0  0  0  1  0  0  0  0  0  0
  181.0040  178.6810  141.3630 C   0  0  1  0  0  3  0  0  0  0  0  0
  182.1310  172.9980  136.7530 C   0  0  0  0  0  2  0  0  0  0  0  0
  180.6430  173.1860  136.5960 C   0  0  0  0  0  0  0  0  0  0  0  0
  179.8720  172.0750  136.9360 O   0  0  0  0  0  1  0  0  0  0  0  0
  181.3640  173.8950  137.7270 C   0  0  2  0  0  3  0  0  0  0  0  0
  180.2560  173.9220  135.4730 O   0  0  0  0  0  1  0  0  0  0  0  0
  1 18  1  0  0  0  0
  2  1  2  0  0  0  0
  3  4  1  0  0  0  0
  3  2  1  1  0  0  0
  5  3  1  0  0  0  0
  5  6  1  0  0  0  0
  6  7  1  6  0  0  0
  6  4  1  0  0  0  0
  7  9  1  0  0  0  0
  8 10  1  0  0  0  0
  8 15  1  0  0  0  0
  9 13  1  0  0  0  0
 10  9  1  0  0  0  0
 11 14  1  1  0  0  0
 13 11  1  0  0  0  0
 15 12  1  0  0  0  0
 15 11  1  0  0  0  0
 15 16  1  0  0  0  0
 17 19  1  0  0  0  0
 18 17  2  0  0  0  0
 19 20  3  0  0  0  0
 20 21  1  0  0  0  0
 22 25  1  0  0  0  0
 23 21  1  6  0  0  0
 23 22  1  0  0  0  0
 23 24  1  0  0  0  0
 24 25  1  0  0  0  0
 24 28  1  6  0  0  0
 25 26  1  1  0  0  0
 25 35  1  0  0  0  0
 27 32  2  0  0  0  0
 28 31  1  6  0  0  0
 28 29  1  0  0  0  0
 29 30  1  0  0  0  0
 31 27  1  0  0  0  0
 32 30  1  0  0  0  0
 34 35  2  0  0  0  0
 35 33  1  0  0  0  0
 36  1  1  0  0  0  0
 37 38  1  0  0  0  0
 37 36  1  0  0  0  0
 39 40  1  0  0  0  0
 39 38  1  0  0  0  0
 40 41  1  0  0  0  0
 41 42  1  0  0  0  0
 43 46  1  0  0  0  0
 45 44  1  1  0  0  0
 45 46  1  0  0  0  0
 45 51  1  0  0  0  0
 46 42  1  6  0  0  0
 47 57  1  0  0  0  0
 47 44  1  1  0  0  0
 47 43  1  0  0  0  0
 48 53  1  0  0  0  0
 49 50  1  0  0  0  0
 50 53  1  0  0  0  0
 51 49  1  0  0  0  0
 51 48  1  1  0  0  0
 53 52  1  1  0  0  0
 55 54  1  0  0  0  0
 55 56  1  0  0  0  0
 55 57  1  0  0  0  0
 57 54  1  6  0  0  0
 58 55  1  0  0  0  0
M  END
>  <MODEL>
3

>  <REMARK>
 VINA RESULT:      -6.4      2.074      2.577
  Name = 
  19 active torsions:
  status: ('A' for Active; 'I' for Inactive)
    1  A    between atoms: C_1  and  C_27
    2  A    between atoms: C_1  and  C_32
    3  A    between atoms: C_5  and  C_21
    4  A    between atoms: C_6  and  C_14
    5  A    between atoms: N_7  and  C_18
    6  A    between atoms: C_8  and  C_17
    7  A    between atoms: C_12  and  O_15
    8  A    between atoms: C_12  and  C_27
    9  A    between atoms: S_13  and  C_43
   10  A    between atoms: S_13  and  S_47
   11  A    between atoms: O_15  and  C_17
   12  A    between atoms: C_16  and  C_46
   13  A    between atoms: C_18  and  C_39
   14  A    between atoms: C_24  and  C_46
   15  A    between atoms: C_26  and  C_33
   16  A    between atoms: C_29  and  C_54
   17  A    between atoms: C_32  and  S_47
   18  A    between atoms: C_40  and  C_44
   19  A    between atoms: C_48  and  C_49
                            x       y       z     vdW  Elec       q    Type
                         _______ _______ _______ _____ _____    ______ ____

>  <TORSDO>
F 19

$$$$
=
 OpenBabel10222415563D

 58 64  0  0  1  0  0  0  0  0999 V2000
  183.3330  178.6540  141.2050 C   0  0  0  0  0  0  0  0  0  0  0  0
  182.3130  178.8180  142.0360 C   0  0  0  0  0  3  0  0  0  0  0  0
  180.8930  178.8080  141.5740 C   0  0  1  0  0  3  0  0  0  0  0  0
  180.7750  179.6870  139.9930 S   0  0  0  0  0  0  0  0  0  0  0  0
  180.5520  177.4800  141.0920 N   0  0  0  0  0  2  0  0  0  0  0  0
  180.4370  177.9130  139.7080 C   0  0  1  0  0  3  0  0  0  0  0  0
  179.0190  177.6060  139.1940 C   0  0  0  0  0  2  0  0  0  0  0  0
  179.5290  176.3620  135.4450 S   0  0  0  0  0  0  0  0  0  0  0  0
  179.0120  176.7030  138.0500 N   0  0  0  0  0  0  0  0  0  0  0  0
  179.8410  177.2740  136.9970 C   0  0  0  0  0  2  0  0  0  0  0  0
  179.4460  174.3890  137.4210 C   0  0  2  0  0  3  0  0  0  0  0  0
  179.7640  173.6950  135.0360 C   0  0  0  0  0  1  0  0  0  0  0  0
  179.6720  175.4770  138.4640 C   0  0  0  0  0  2  0  0  0  0  0  0
  179.9640  173.0700  137.9890 C   0  0  0  0  0  1  0  0  0  0  0  0
  180.1200  174.7490  136.0740 C   0  0  0  0  0  0  0  0  0  0  0  0
  181.6370  174.8100  136.2010 C   0  0  0  0  0  1  0  0  0  0  0  0
  185.7840  178.4760  141.0980 C   0  0  0  0  0  3  0  0  0  0  0  0
  184.6800  178.6840  141.7900 C   0  0  0  0  0  3  0  0  0  0  0  0
  187.0460  178.4960  141.7730 C   0  0  0  0  0  0  0  0  0  0  0  0
  188.1130  178.5370  142.3350 C   0  0  0  0  0  0  0  0  0  0  0  0
  189.3990  178.6430  143.0280 C   0  0  0  0  0  2  0  0  0  0  0  0
  191.4720  177.2750  143.4450 C   0  0  0  0  0  2  0  0  0  0  0  0
  189.9520  177.2400  143.2800 C   0  0  1  0  0  3  0  0  0  0  0  0
  189.8140  176.7200  144.7230 C   0  0  1  0  0  3  0  0  0  0  0  0
  191.3440  176.7510  144.8590 C   0  0  2  0  0  0  0  0  0  0  0  0
  191.8340  177.6710  145.7850 O   0  0  0  0  0  1  0  0  0  0  0  0
  186.6840  178.0830  146.5040 C   0  0  0  0  0  3  0  0  0  0  0  0
  189.0320  177.6110  145.6990 C   0  0  2  0  0  3  0  0  0  0  0  0
  189.2890  177.1720  147.1380 C   0  0  0  0  0  2  0  0  0  0  0  0
  188.6060  178.1480  148.0850 C   0  0  0  0  0  2  0  0  0  0  0  0
  187.5340  177.4500  145.4310 C   0  0  0  0  0  2  0  0  0  0  0  0
  187.1570  178.3530  147.7280 C   0  0  0  0  0  3  0  0  0  0  0  0
  192.3420  174.9510  146.2880 O   0  0  0  0  0  1  0  0  0  0  0  0
  192.1210  174.6410  144.0280 O   0  0  0  0  0  0  0  0  0  0  0  0
  191.9450  175.3890  145.0270 C   0  0  0  0  0  0  0  0  0  0  0  0
  183.0740  178.4500  139.8350 O   0  0  0  0  0  0  0  0  0  0  0  0
  183.6140  177.3730  139.0850 C   0  0  0  0  0  2  0  0  0  0  0  0
  184.0680  177.8760  137.7330 C   0  0  0  0  0  2  0  0  0  0  0  0
  185.4920  178.3760  137.8490 C   0  0  0  0  0  2  0  0  0  0  0  0
  186.4590  177.3570  137.2800 C   0  0  0  0  0  2  0  0  0  0  0  0
  186.9020  177.8660  135.5950 S   0  0  0  0  0  0  0  0  0  0  0  0
  189.0140  177.7860  135.9760 S   0  0  0  0  0  0  0  0  0  0  0  0
  188.2070  175.4180  134.9600 O   0  0  0  0  0  0  0  0  0  0  0  0
  188.6880  174.0340  136.7680 O   0  0  0  0  0  0  0  0  0  0  0  0
  189.3670  175.2250  136.9770 C   0  0  2  0  0  3  0  0  0  0  0  0
  189.2530  175.9890  135.6840 C   0  0  2  0  0  3  0  0  0  0  0  0
  187.7750  174.3250  135.7400 C   0  0  2  0  0  3  0  0  0  0  0  0
  191.8300  175.4980  136.4000 C   0  0  0  0  0  2  0  0  0  0  0  0
  191.1010  175.5310  138.6890 N   0  0  0  0  0  2  0  0  0  0  0  0
  192.3980  176.0870  138.6200 N   0  0  0  0  0  2  0  0  0  0  0  0
  190.8210  174.9450  137.3830 C   0  0  1  0  0  3  0  0  0  0  0  0
  193.9970  176.4660  136.8980 N   0  0  0  0  0  1  0  0  0  0  0  0
  192.5840  176.4890  137.2390 C   0  0  1  0  0  3  0  0  0  0  0  0
  186.0910  172.8750  134.6040 C   0  0  0  0  0  2  0  0  0  0  0  0
  186.8330  171.9910  135.5750 C   0  0  0  0  0  0  0  0  0  0  0  0
  187.0510  170.6870  135.1320 O   0  0  0  0  0  1  0  0  0  0  0  0
  187.5850  173.0960  134.8570 C   0  0  2  0  0  3  0  0  0  0  0  0
  186.4870  172.1680  136.9170 O   0  0  0  0  0  1  0  0  0  0  0  0
  1 18  1  0  0  0  0
  1  2  2  0  0  0  0
  3  2  1  6  0  0  0
  4  3  1  0  0  0  0
  5  3  1  0  0  0  0
  6  7  1  1  0  0  0
  6  4  1  0  0  0  0
  6  5  1  0  0  0  0
  8 15  1  0  0  0  0
  8 10  1  0  0  0  0
  9 13  1  0  0  0  0
  9  7  1  0  0  0  0
 10  9  1  0  0  0  0
 11 14  1  1  0  0  0
 11 13  1  0  0  0  0
 12 15  1  0  0  0  0
 15 16  1  0  0  0  0
 15 11  1  0  0  0  0
 17 19  1  0  0  0  0
 17 18  2  0  0  0  0
 19 20  3  0  0  0  0
 20 21  1  0  0  0  0
 22 25  1  0  0  0  0
 23 21  1  1  0  0  0
 23 22  1  0  0  0  0
 23 24  1  0  0  0  0
 24 25  1  0  0  0  0
 24 28  1  1  0  0  0
 25 35  1  0  0  0  0
 25 26  1  1  0  0  0
 27 32  2  0  0  0  0
 28 31  1  6  0  0  0
 28 29  1  0  0  0  0
 29 30  1  0  0  0  0
 31 27  1  0  0  0  0
 32 30  1  0  0  0  0
 34 35  2  0  0  0  0
 35 33  1  0  0  0  0
 36  1  1  0  0  0  0
 37 36  1  0  0  0  0
 38 39  1  0  0  0  0
 38 37  1  0  0  0  0
 40 39  1  0  0  0  0
 41 42  1  0  0  0  0
 41 40  1  0  0  0  0
 43 46  1  0  0  0  0
 45 44  1  6  0  0  0
 45 51  1  0  0  0  0
 46 42  1  1  0  0  0
 46 45  1  0  0  0  0
 47 43  1  6  0  0  0
 47 44  1  0  0  0  0
 48 53  1  0  0  0  0
 50 49  1  0  0  0  0
 51 48  1  6  0  0  0
 51 49  1  0  0  0  0
 53 52  1  6  0  0  0
 53 50  1  0  0  0  0
 54 55  1  0  0  0  0
 55 58  1  0  0  0  0
 56 55  1  0  0  0  0
 57 54  1  6  0  0  0
 57 55  1  0  0  0  0
 57 47  1  0  0  0  0
M  END
>  <MODEL>
4

>  <REMARK>
 VINA RESULT:      -6.4      3.837     10.037
  Name = 
  19 active torsions:
  status: ('A' for Active; 'I' for Inactive)
    1  A    between atoms: C_1  and  C_27
    2  A    between atoms: C_1  and  C_32
    3  A    between atoms: C_5  and  C_21
    4  A    between atoms: C_6  and  C_14
    5  A    between atoms: N_7  and  C_18
    6  A    between atoms: C_8  and  C_17
    7  A    between atoms: C_12  and  O_15
    8  A    between atoms: C_12  and  C_27
    9  A    between atoms: S_13  and  C_43
   10  A    between atoms: S_13  and  S_47
   11  A    between atoms: O_15  and  C_17
   12  A    between atoms: C_16  and  C_46
   13  A    between atoms: C_18  and  C_39
   14  A    between atoms: C_24  and  C_46
   15  A    between atoms: C_26  and  C_33
   16  A    between atoms: C_29  and  C_54
   17  A    between atoms: C_32  and  S_47
   18  A    between atoms: C_40  and  C_44
   19  A    between atoms: C_48  and  C_49
                            x       y       z     vdW  Elec       q    Type
                         _______ _______ _______ _____ _____    ______ ____

>  <TORSDO>
F 19

$$$$
=
 OpenBabel10222415563D

 58 64  0  0  1  0  0  0  0  0999 V2000
  183.4900  178.6710  141.3040 C   0  0  0  0  0  0  0  0  0  0  0  0
  182.4310  178.4570  142.0730 C   0  0  0  0  0  3  0  0  0  0  0  0
  181.0430  178.3910  141.5270 C   0  0  1  0  0  3  0  0  0  0  0  0
  180.0720  179.7650  142.1990 S   0  0  0  0  0  0  0  0  0  0  0  0
  181.0530  178.8120  140.1360 N   0  0  0  0  0  2  0  0  0  0  0  0
  180.3120  180.0350  140.4060 C   0  0  1  0  0  3  0  0  0  0  0  0
  179.0130  180.0380  139.5790 C   0  0  0  0  0  2  0  0  0  0  0  0
  178.9310  183.8210  138.3360 S   0  0  0  0  0  0  0  0  0  0  0  0
  178.9310  181.1630  138.6550 N   0  0  0  0  0  0  0  0  0  0  0  0
  179.3920  182.3640  139.3380 C   0  0  0  0  0  2  0  0  0  0  0  0
  179.6470  181.8950  136.4440 C   0  0  2  0  0  3  0  0  0  0  0  0
  179.5700  184.2990  135.7480 C   0  0  0  0  0  1  0  0  0  0  0  0
  179.8830  180.9140  137.5870 C   0  0  0  0  0  2  0  0  0  0  0  0
  180.5140  181.4660  135.2630 C   0  0  0  0  0  1  0  0  0  0  0  0
  179.9350  183.3520  136.8810 C   0  0  0  0  0  0  0  0  0  0  0  0
  181.4050  183.5560  137.2270 C   0  0  0  0  0  1  0  0  0  0  0  0
  185.8970  178.1860  141.4600 C   0  0  0  0  0  3  0  0  0  0  0  0
  184.7990  178.7120  141.9690 C   0  0  0  0  0  3  0  0  0  0  0  0
  187.1150  178.2550  142.2070 C   0  0  0  0  0  0  0  0  0  0  0  0
  188.1540  178.3280  142.8180 C   0  0  0  0  0  0  0  0  0  0  0  0
  189.4190  178.4700  143.5400 C   0  0  0  0  0  2  0  0  0  0  0  0
  191.4950  177.1160  143.9860 C   0  0  0  0  0  2  0  0  0  0  0  0
  189.9720  177.0810  143.8660 C   0  0  1  0  0  3  0  0  0  0  0  0
  189.8720  176.6550  145.3420 C   0  0  1  0  0  3  0  0  0  0  0  0
  191.4050  176.6840  145.4330 C   0  0  2  0  0  0  0  0  0  0  0  0
  191.9260  177.6570  146.2850 O   0  0  0  0  0  1  0  0  0  0  0  0
  186.7880  178.3230  146.9350 C   0  0  0  0  0  3  0  0  0  0  0  0
  189.1220  177.6130  146.2810 C   0  0  2  0  0  3  0  0  0  0  0  0
  189.2320  177.1320  147.7250 C   0  0  0  0  0  2  0  0  0  0  0  0
  188.5920  178.1640  148.6430 C   0  0  0  0  0  2  0  0  0  0  0  0
  187.6380  177.6160  145.9090 C   0  0  0  0  0  2  0  0  0  0  0  0
  187.2010  178.5260  148.1930 C   0  0  0  0  0  3  0  0  0  0  0  0
  192.4320  174.5560  144.5980 O   0  0  0  0  0  0  0  0  0  0  0  0
  192.0970  174.8730  146.8430 O   0  0  0  0  0  1  0  0  0  0  0  0
  192.0020  175.3310  145.6720 C   0  0  0  0  0  0  0  0  0  0  0  0
  183.3070  178.8290  139.9160 O   0  0  0  0  0  0  0  0  0  0  0  0
  183.7990  177.9130  138.9490 C   0  0  0  0  0  2  0  0  0  0  0  0
  184.7170  178.6370  137.9900 C   0  0  0  0  0  2  0  0  0  0  0  0
  186.1520  178.2880  138.3280 C   0  0  0  0  0  2  0  0  0  0  0  0
  186.6200  177.1120  137.4960 C   0  0  0  0  0  2  0  0  0  0  0  0
  186.7210  177.6390  135.7620 S   0  0  0  0  0  0  0  0  0  0  0  0
  188.8650  177.7660  135.7790 S   0  0  0  0  0  0  0  0  0  0  0  0
  188.3540  175.2580  134.9160 O   0  0  0  0  0  0  0  0  0  0  0  0
  188.5380  174.1090  136.9310 O   0  0  0  0  0  0  0  0  0  0  0  0
  189.1190  175.3540  137.1200 C   0  0  2  0  0  3  0  0  0  0  0  0
  189.2220  175.9660  135.7480 C   0  0  2  0  0  3  0  0  0  0  0  0
  187.8250  174.2330  135.7260 C   0  0  2  0  0  3  0  0  0  0  0  0
  191.6470  175.2320  136.8510 C   0  0  0  0  0  2  0  0  0  0  0  0
  190.6730  176.2820  138.7800 N   0  0  0  0  0  2  0  0  0  0  0  0
  192.0200  176.6900  138.6760 N   0  0  0  0  0  2  0  0  0  0  0  0
  190.4800  175.2060  137.8150 C   0  0  1  0  0  3  0  0  0  0  0  0
  193.8350  176.2140  137.2110 N   0  0  0  0  0  1  0  0  0  0  0  0
  192.4030  176.4500  137.2980 C   0  0  1  0  0  3  0  0  0  0  0  0
  186.5630  172.1300  135.2630 C   0  0  0  0  0  2  0  0  0  0  0  0
  187.8590  171.7180  135.9170 C   0  0  0  0  0  0  0  0  0  0  0  0
  188.4090  170.5320  135.4330 O   0  0  0  0  0  1  0  0  0  0  0  0
  187.8500  172.9070  134.9730 C   0  0  2  0  0  3  0  0  0  0  0  0
  187.9240  171.9450  137.2940 O   0  0  0  0  0  1  0  0  0  0  0  0
  1 18  1  0  0  0  0
  1  2  2  0  0  0  0
  3  2  1  1  0  0  0
  3  4  1  0  0  0  0
  5  6  1  0  0  0  0
  5  3  1  0  0  0  0
  6  7  1  6  0  0  0
  6  4  1  0  0  0  0
  8 10  1  0  0  0  0
  9 10  1  0  0  0  0
  9  7  1  0  0  0  0
 11 14  1  6  0  0  0
 11 15  1  0  0  0  0
 11 13  1  0  0  0  0
 12 15  1  0  0  0  0
 13  9  1  0  0  0  0
 15 16  1  0  0  0  0
 15  8  1  0  0  0  0
 17 18  2  0  0  0  0
 17 19  1  0  0  0  0
 19 20  3  0  0  0  0
 20 21  1  0  0  0  0
 22 25  1  0  0  0  0
 23 21  1  1  0  0  0
 23 22  1  0  0  0  0
 23 24  1  0  0  0  0
 24 25  1  0  0  0  0
 24 28  1  1  0  0  0
 25 35  1  0  0  0  0
 25 26  1  1  0  0  0
 27 32  2  0  0  0  0
 28 31  1  6  0  0  0
 28 29  1  0  0  0  0
 29 30  1  0  0  0  0
 31 27  1  0  0  0  0
 32 30  1  0  0  0  0
 33 35  2  0  0  0  0
 35 34  1  0  0  0  0
 36  1  1  0  0  0  0
 37 36  1  0  0  0  0
 38 39  1  0  0  0  0
 38 37  1  0  0  0  0
 40 39  1  0  0  0  0
 41 42  1  0  0  0  0
 41 40  1  0  0  0  0
 43 46  1  0  0  0  0
 45 44  1  6  0  0  0
 45 51  1  0  0  0  0
 46 42  1  1  0  0  0
 46 45  1  0  0  0  0
 47 43  1  6  0  0  0
 47 44  1  0  0  0  0
 48 53  1  0  0  0  0
 50 49  1  0  0  0  0
 51 48  1  6  0  0  0
 51 49  1  0  0  0  0
 53 52  1  1  0  0  0
 53 50  1  0  0  0  0
 54 55  1  0  0  0  0
 55 58  1  0  0  0  0
 56 55  1  0  0  0  0
 57 54  1  6  0  0  0
 57 47  1  0  0  0  0
 57 55  1  0  0  0  0
M  END
>  <MODEL>
5

>  <REMARK>
 VINA RESULT:      -6.1      3.913     10.933
  Name = 
  19 active torsions:
  status: ('A' for Active; 'I' for Inactive)
    1  A    between atoms: C_1  and  C_27
    2  A    between atoms: C_1  and  C_32
    3  A    between atoms: C_5  and  C_21
    4  A    between atoms: C_6  and  C_14
    5  A    between atoms: N_7  and  C_18
    6  A    between atoms: C_8  and  C_17
    7  A    between atoms: C_12  and  O_15
    8  A    between atoms: C_12  and  C_27
    9  A    between atoms: S_13  and  C_43
   10  A    between atoms: S_13  and  S_47
   11  A    between atoms: O_15  and  C_17
   12  A    between atoms: C_16  and  C_46
   13  A    between atoms: C_18  and  C_39
   14  A    between atoms: C_24  and  C_46
   15  A    between atoms: C_26  and  C_33
   16  A    between atoms: C_29  and  C_54
   17  A    between atoms: C_32  and  S_47
   18  A    between atoms: C_40  and  C_44
   19  A    between atoms: C_48  and  C_49
                            x       y       z     vdW  Elec       q    Type
                         _______ _______ _______ _____ _____    ______ ____

>  <TORSDO>
F 19

$$$$
=
 OpenBabel10222415563D

 58 64  0  0  1  0  0  0  0  0999 V2000
  186.5740  176.2370  135.9440 C   0  0  0  0  0  0  0  0  0  0  0  0
  186.4710  175.0430  135.3760 C   0  0  0  0  0  3  0  0  0  0  0  0
  187.5930  174.0570  135.3750 C   0  0  1  0  0  3  0  0  0  0  0  0
  189.0850  174.8540  134.7250 S   0  0  0  0  0  0  0  0  0  0  0  0
  188.0530  173.8480  136.7380 N   0  0  0  0  0  2  0  0  0  0  0  0
  189.3340  174.4960  136.5010 C   0  0  1  0  0  3  0  0  0  0  0  0
  190.4710  173.5030  136.8010 C   0  0  0  0  0  2  0  0  0  0  0  0
  193.6460  175.8720  137.2110 S   0  0  0  0  0  0  0  0  0  0  0  0
  191.7940  174.0580  136.5420 N   0  0  0  0  0  0  0  0  0  0  0  0
  192.1910  174.8730  137.6820 C   0  0  0  0  0  2  0  0  0  0  0  0
  194.0680  173.4170  135.9450 C   0  0  2  0  0  3  0  0  0  0  0  0
  196.0100  174.9700  136.2450 C   0  0  0  0  0  1  0  0  0  0  0  0
  192.7270  172.9460  136.4950 C   0  0  0  0  0  2  0  0  0  0  0  0
  194.9440  172.1900  135.7100 C   0  0  0  0  0  1  0  0  0  0  0  0
  194.7400  174.4410  136.8940 C   0  0  0  0  0  0  0  0  0  0  0  0
  195.1060  173.8120  138.2320 C   0  0  0  0  0  1  0  0  0  0  0  0
  184.2040  176.7050  135.4770 C   0  0  0  0  0  3  0  0  0  0  0  0
  185.3950  177.1110  135.8750 C   0  0  0  0  0  3  0  0  0  0  0  0
  183.1300  177.6480  135.4160 C   0  0  0  0  0  0  0  0  0  0  0  0
  182.2160  178.4340  135.3410 C   0  0  0  0  0  0  0  0  0  0  0  0
  181.0790  179.3480  135.2200 C   0  0  0  0  0  2  0  0  0  0  0  0
  181.0700  178.7430  137.6650 C   0  0  0  0  0  2  0  0  0  0  0  0
  180.2420  179.2820  136.4990 C   0  0  1  0  0  3  0  0  0  0  0  0
  180.0650  180.6150  137.2490 C   0  0  1  0  0  3  0  0  0  0  0  0
  180.8890  180.0450  138.4130 C   0  0  2  0  0  0  0  0  0  0  0  0
  182.1130  180.6770  138.6340 O   0  0  0  0  0  1  0  0  0  0  0  0
  180.0150  183.6970  134.9400 C   0  0  0  0  0  3  0  0  0  0  0  0
  180.6390  181.8650  136.5650 C   0  0  2  0  0  3  0  0  0  0  0  0
  180.7860  183.0000  137.5750 C   0  0  0  0  0  2  0  0  0  0  0  0
  181.4730  184.1790  136.9010 C   0  0  0  0  0  2  0  0  0  0  0  0
  179.6630  182.3350  135.4840 C   0  0  0  0  0  2  0  0  0  0  0  0
  180.7970  184.5560  135.6080 C   0  0  0  0  0  3  0  0  0  0  0  0
  180.6120  179.1630  140.7430 O   0  0  0  0  0  1  0  0  0  0  0  0
  178.9340  180.3760  139.7600 O   0  0  0  0  0  0  0  0  0  0  0  0
  180.0910  179.8840  139.6710 C   0  0  0  0  0  0  0  0  0  0  0  0
  187.7790  176.5910  136.5820 O   0  0  0  0  0  0  0  0  0  0  0  0
  188.3130  177.9060  136.5810 C   0  0  0  0  0  2  0  0  0  0  0  0
  188.1070  178.5350  137.9410 C   0  0  0  0  0  2  0  0  0  0  0  0
  188.4520  177.5180  139.0080 C   0  0  0  0  0  2  0  0  0  0  0  0
  189.9010  177.6650  139.4300 C   0  0  0  0  0  2  0  0  0  0  0  0
  190.0090  177.3780  141.2200 S   0  0  0  0  0  0  0  0  0  0  0  0
  187.9400  177.8410  141.5600 S   0  0  0  0  0  0  0  0  0  0  0  0
  189.2480  177.8860  143.9230 O   0  0  0  0  0  0  0  0  0  0  0  0
  187.4600  177.5100  145.3640 O   0  0  0  0  0  0  0  0  0  0  0  0
  186.9230  177.8750  144.1390 C   0  0  2  0  0  3  0  0  0  0  0  0
  188.0860  178.3610  143.3150 C   0  0  2  0  0  3  0  0  0  0  0  0
  188.8080  177.2220  145.0870 C   0  0  2  0  0  3  0  0  0  0  0  0
  184.7180  178.8400  143.3140 C   0  0  0  0  0  2  0  0  0  0  0  0
  185.2430  178.8240  145.6580 N   0  0  0  0  0  2  0  0  0  0  0  0
  183.8540  179.0290  145.5090 N   0  0  0  0  0  2  0  0  0  0  0  0
  185.8340  178.9410  144.3300 C   0  0  1  0  0  3  0  0  0  0  0  0
  182.3550  179.2540  143.6730 N   0  0  0  0  0  1  0  0  0  0  0  0
  183.5240  178.5530  144.1790 C   0  0  1  0  0  3  0  0  0  0  0  0
  189.8930  176.4050  147.1800 C   0  0  0  0  0  2  0  0  0  0  0  0
  188.9310  177.4920  147.5920 C   0  0  0  0  0  0  0  0  0  0  0  0
  189.3680  178.2940  148.6450 O   0  0  0  0  0  1  0  0  0  0  0  0
  189.6760  177.6210  146.2750 C   0  0  2  0  0  3  0  0  0  0  0  0
  187.5830  177.1250  147.5740 O   0  0  0  0  0  1  0  0  0  0  0  0
  1 36  1  0  0  0  0
  2  1  2  0  0  0  0
  3  2  1  1  0  0  0
  3  5  1  0  0  0  0
  4  3  1  0  0  0  0
  4  6  1  0  0  0  0
  6  5  1  0  0  0  0
  6  7  1  6  0  0  0
  8 10  1  0  0  0  0
  9  7  1  0  0  0  0
  9 10  1  0  0  0  0
 11 14  1  1  0  0  0
 11 13  1  0  0  0  0
 11 15  1  0  0  0  0
 12 15  1  0  0  0  0
 13  9  1  0  0  0  0
 15  8  1  0  0  0  0
 15 16  1  0  0  0  0
 17 18  2  0  0  0  0
 18  1  1  0  0  0  0
 19 17  1  0  0  0  0
 20 19  3  0  0  0  0
 21 20  1  0  0  0  0
 22 25  1  0  0  0  0
 23 21  1  6  0  0  0
 23 24  1  0  0  0  0
 23 22  1  0  0  0  0
 24 28  1  6  0  0  0
 24 25  1  0  0  0  0
 25 26  1  1  0  0  0
 25 35  1  0  0  0  0
 27 31  1  0  0  0  0
 27 32  2  0  0  0  0
 28 31  1  6  0  0  0
 28 29  1  0  0  0  0
 30 29  1  0  0  0  0
 32 30  1  0  0  0  0
 35 34  2  0  0  0  0
 35 33  1  0  0  0  0
 37 36  1  0  0  0  0
 37 38  1  0  0  0  0
 38 39  1  0  0  0  0
 39 40  1  0  0  0  0
 40 41  1  0  0  0  0
 41 42  1  0  0  0  0
 45 51  1  0  0  0  0
 45 44  1  1  0  0  0
 46 42  1  6  0  0  0
 46 43  1  0  0  0  0
 46 45  1  0  0  0  0
 47 43  1  6  0  0  0
 47 44  1  0  0  0  0
 47 57  1  0  0  0  0
 48 53  1  0  0  0  0
 50 49  1  0  0  0  0
 51 48  1  6  0  0  0
 51 49  1  0  0  0  0
 53 52  1  6  0  0  0
 53 50  1  0  0  0  0
 54 55  1  0  0  0  0
 55 56  1  0  0  0  0
 57 54  1  1  0  0  0
 57 55  1  0  0  0  0
 58 55  1  0  0  0  0
M  END
>  <MODEL>
6

>  <REMARK>
 VINA RESULT:      -5.8      3.486      8.723
  Name = 
  19 active torsions:
  status: ('A' for Active; 'I' for Inactive)
    1  A    between atoms: C_1  and  C_27
    2  A    between atoms: C_1  and  C_32
    3  A    between atoms: C_5  and  C_21
    4  A    between atoms: C_6  and  C_14
    5  A    between atoms: N_7  and  C_18
    6  A    between atoms: C_8  and  C_17
    7  A    between atoms: C_12  and  O_15
    8  A    between atoms: C_12  and  C_27
    9  A    between atoms: S_13  and  C_43
   10  A    between atoms: S_13  and  S_47
   11  A    between atoms: O_15  and  C_17
   12  A    between atoms: C_16  and  C_46
   13  A    between atoms: C_18  and  C_39
   14  A    between atoms: C_24  and  C_46
   15  A    between atoms: C_26  and  C_33
   16  A    between atoms: C_29  and  C_54
   17  A    between atoms: C_32  and  S_47
   18  A    between atoms: C_40  and  C_44
   19  A    between atoms: C_48  and  C_49
                            x       y       z     vdW  Elec       q    Type
                         _______ _______ _______ _____ _____    ______ ____

>  <TORSDO>
F 19

$$$$
=
 OpenBabel10222415563D

 58 64  0  0  1  0  0  0  0  0999 V2000
  182.7840  177.6280  139.9310 C   0  0  0  0  0  0  0  0  0  0  0  0
  181.5370  177.9090  140.2850 C   0  0  0  0  0  3  0  0  0  0  0  0
  180.4410  178.0860  139.2860 C   0  0  1  0  0  3  0  0  0  0  0  0
  179.0880  179.0210  140.0470 S   0  0  0  0  0  0  0  0  0  0  0  0
  180.8430  179.0770  138.3020 N   0  0  0  0  0  2  0  0  0  0  0  0
  179.8620  180.0540  138.7510 C   0  0  1  0  0  3  0  0  0  0  0  0
  178.9300  180.4170  137.5800 C   0  0  0  0  0  2  0  0  0  0  0  0
  178.9850  184.3670  138.0890 S   0  0  0  0  0  0  0  0  0  0  0  0
  178.9840  181.8310  137.2300 N   0  0  0  0  0  0  0  0  0  0  0  0
  179.2990  182.5990  138.4270 C   0  0  0  0  0  2  0  0  0  0  0  0
  180.0510  183.3960  135.6960 C   0  0  2  0  0  3  0  0  0  0  0  0
  180.0450  185.8670  136.0990 C   0  0  0  0  0  1  0  0  0  0  0  0
  180.1080  182.0100  136.3280 C   0  0  0  0  0  2  0  0  0  0  0  0
  181.1140  183.4650  134.6030 C   0  0  0  0  0  1  0  0  0  0  0  0
  180.2320  184.5090  136.7580 C   0  0  0  0  0  0  0  0  0  0  0  0
  181.6170  184.4640  137.3900 C   0  0  0  0  0  1  0  0  0  0  0  0
  183.9500  178.3740  141.9650 C   0  0  0  0  0  3  0  0  0  0  0  0
  183.7660  177.4790  141.0140 C   0  0  0  0  0  3  0  0  0  0  0  0
  184.9580  178.1450  142.9550 C   0  0  0  0  0  0  0  0  0  0  0  0
  185.8150  177.9300  143.7760 C   0  0  0  0  0  0  0  0  0  0  0  0
  186.8890  177.6480  144.7300 C   0  0  0  0  0  2  0  0  0  0  0  0
  188.4950  177.3120  142.8200 C   0  0  0  0  0  2  0  0  0  0  0  0
  187.9000  176.6970  144.0860 C   0  0  1  0  0  3  0  0  0  0  0  0
  189.2990  176.6790  144.7280 C   0  0  1  0  0  3  0  0  0  0  0  0
  189.8750  177.2840  143.4390 C   0  0  2  0  0  0  0  0  0  0  0  0
  190.3960  178.5710  143.5740 O   0  0  0  0  0  1  0  0  0  0  0  0
  188.2050  178.3420  148.0250 C   0  0  0  0  0  3  0  0  0  0  0  0
  189.4770  177.5150  146.0040 C   0  0  2  0  0  3  0  0  0  0  0  0
  190.3250  176.7550  147.0200 C   0  0  0  0  0  2  0  0  0  0  0  0
  190.5910  177.6560  148.2180 C   0  0  0  0  0  2  0  0  0  0  0  0
  188.1050  177.7560  146.6390 C   0  0  0  0  0  2  0  0  0  0  0  0
  189.3190  178.2510  148.7640 C   0  0  0  0  0  3  0  0  0  0  0  0
  192.1850  176.4510  142.9370 O   0  0  0  0  0  1  0  0  0  0  0  0
  190.3680  175.5060  141.9090 O   0  0  0  0  0  0  0  0  0  0  0  0
  190.8120  176.3580  142.7250 C   0  0  0  0  0  0  0  0  0  0  0  0
  183.0900  177.4780  138.5640 O   0  0  0  0  0  0  0  0  0  0  0  0
  184.1820  176.7080  138.0840 C   0  0  0  0  0  2  0  0  0  0  0  0
  183.7750  175.2540  137.9980 C   0  0  0  0  0  2  0  0  0  0  0  0
  184.3530  174.6580  136.7310 C   0  0  0  0  0  2  0  0  0  0  0  0
  185.0470  173.3450  137.0320 C   0  0  0  0  0  2  0  0  0  0  0  0
  186.5370  173.2340  136.0010 S   0  0  0  0  0  0  0  0  0  0  0  0
  187.0800  175.2870  136.3180 S   0  0  0  0  0  0  0  0  0  0  0  0
  189.1690  173.9930  135.1980 O   0  0  0  0  0  0  0  0  0  0  0  0
  190.7030  174.1500  136.9410 O   0  0  0  0  0  0  0  0  0  0  0  0
  189.6980  175.0700  137.2010 C   0  0  2  0  0  3  0  0  0  0  0  0
  188.8700  175.1330  135.9450 C   0  0  2  0  0  3  0  0  0  0  0  0
  190.1760  173.3290  135.9300 C   0  0  2  0  0  3  0  0  0  0  0  0
  189.7140  177.5850  136.8170 C   0  0  0  0  0  2  0  0  0  0  0  0
  190.0970  176.6820  139.0100 N   0  0  0  0  0  2  0  0  0  0  0  0
  189.7660  178.0490  139.1370 N   0  0  0  0  0  2  0  0  0  0  0  0
  190.3050  176.4260  137.5900 C   0  0  1  0  0  3  0  0  0  0  0  0
  189.2660  179.8250  137.6320 N   0  0  0  0  0  1  0  0  0  0  0  0
  189.0870  178.4080  137.9060 C   0  0  1  0  0  3  0  0  0  0  0  0
  191.7820  171.4920  135.4070 C   0  0  0  0  0  2  0  0  0  0  0  0
  192.6130  172.7110  135.7230 C   0  0  0  0  0  0  0  0  0  0  0  0
  193.7750  172.8420  134.9650 O   0  0  0  0  0  1  0  0  0  0  0  0
  191.2930  172.8830  134.9930 C   0  0  2  0  0  3  0  0  0  0  0  0
  192.6850  173.0410  137.0780 O   0  0  0  0  0  1  0  0  0  0  0  0
  1  2  2  0  0  0  0
  1 18  1  0  0  0  0
  3  4  1  0  0  0  0
  3  2  1  1  0  0  0
  5  6  1  0  0  0  0
  5  3  1  0  0  0  0
  6  7  1  6  0  0  0
  6  4  1  0  0  0  0
  8 10  1  0  0  0  0
  9  7  1  0  0  0  0
  9 10  1  0  0  0  0
 11 14  1  6  0  0  0
 11 13  1  0  0  0  0
 11 15  1  0  0  0  0
 12 15  1  0  0  0  0
 13  9  1  0  0  0  0
 15 16  1  0  0  0  0
 15  8  1  0  0  0  0
 17 19  1  0  0  0  0
 18 17  2  0  0  0  0
 19 20  3  0  0  0  0
 20 21  1  0  0  0  0
 22 25  1  0  0  0  0
 22 23  1  0  0  0  0
 23 24  1  0  0  0  0
 23 21  1  1  0  0  0
 24 28  1  1  0  0  0
 25 26  1  1  0  0  0
 25 24  1  0  0  0  0
 27 32  2  0  0  0  0
 28 31  1  1  0  0  0
 28 29  1  0  0  0  0
 29 30  1  0  0  0  0
 30 32  1  0  0  0  0
 31 27  1  0  0  0  0
 34 35  2  0  0  0  0
 35 33  1  0  0  0  0
 35 25  1  0  0  0  0
 36  1  1  0  0  0  0
 37 36  1  0  0  0  0
 38 37  1  0  0  0  0
 39 40  1  0  0  0  0
 39 38  1  0  0  0  0
 41 42  1  0  0  0  0
 41 40  1  0  0  0  0
 43 46  1  0  0  0  0
 45 44  1  6  0  0  0
 45 51  1  0  0  0  0
 46 42  1  1  0  0  0
 46 45  1  0  0  0  0
 47 43  1  6  0  0  0
 47 44  1  0  0  0  0
 48 53  1  0  0  0  0
 49 50  1  0  0  0  0
 51 48  1  6  0  0  0
 51 49  1  0  0  0  0
 53 52  1  6  0  0  0
 53 50  1  0  0  0  0
 54 55  1  0  0  0  0
 55 58  1  0  0  0  0
 56 55  1  0  0  0  0
 57 54  1  1  0  0  0
 57 55  1  0  0  0  0
 57 47  1  0  0  0  0
M  END
>  <MODEL>
7

>  <REMARK>
 VINA RESULT:      -5.7      3.840     11.340
  Name = 
  19 active torsions:
  status: ('A' for Active; 'I' for Inactive)
    1  A    between atoms: C_1  and  C_27
    2  A    between atoms: C_1  and  C_32
    3  A    between atoms: C_5  and  C_21
    4  A    between atoms: C_6  and  C_14
    5  A    between atoms: N_7  and  C_18
    6  A    between atoms: C_8  and  C_17
    7  A    between atoms: C_12  and  O_15
    8  A    between atoms: C_12  and  C_27
    9  A    between atoms: S_13  and  C_43
   10  A    between atoms: S_13  and  S_47
   11  A    between atoms: O_15  and  C_17
   12  A    between atoms: C_16  and  C_46
   13  A    between atoms: C_18  and  C_39
   14  A    between atoms: C_24  and  C_46
   15  A    between atoms: C_26  and  C_33
   16  A    between atoms: C_29  and  C_54
   17  A    between atoms: C_32  and  S_47
   18  A    between atoms: C_40  and  C_44
   19  A    between atoms: C_48  and  C_49
                            x       y       z     vdW  Elec       q    Type
                         _______ _______ _______ _____ _____    ______ ____

>  <TORSDO>
F 19

$$$$
=
 OpenBabel10222415563D

 58 64  0  0  1  0  0  0  0  0999 V2000
  190.5120  176.3260  137.5180 C   0  0  0  0  0  0  0  0  0  0  0  0
  191.7840  176.0020  137.3310 C   0  0  0  0  0  3  0  0  0  0  0  0
  192.3330  175.6580  135.9850 C   0  0  1  0  0  3  0  0  0  0  0  0
  194.0090  176.3310  135.8350 S   0  0  0  0  0  0  0  0  0  0  0  0
  192.6790  174.2470  135.9530 N   0  0  0  0  0  2  0  0  0  0  0  0
  194.1090  174.5060  135.8760 C   0  0  1  0  0  3  0  0  0  0  0  0
  194.6750  173.8670  134.5950 C   0  0  0  0  0  2  0  0  0  0  0  0
  198.2970  172.2210  134.7670 S   0  0  0  0  0  0  0  0  0  0  0  0
  195.7010  172.8670  134.8640 N   0  0  0  0  0  0  0  0  0  0  0  0
  197.0060  173.5130  134.8220 C   0  0  0  0  0  2  0  0  0  0  0  0
  196.3620  171.1740  136.4880 C   0  0  2  0  0  3  0  0  0  0  0  0
  198.6670  170.1990  136.5300 C   0  0  0  0  0  1  0  0  0  0  0  0
  195.5170  172.4170  136.2330 C   0  0  0  0  0  2  0  0  0  0  0  0
  195.9790  170.6110  137.8540 C   0  0  0  0  0  1  0  0  0  0  0  0
  197.8750  171.4890  136.3890 C   0  0  0  0  0  0  0  0  0  0  0  0
  198.3210  172.4530  137.4810 C   0  0  0  0  0  1  0  0  0  0  0  0
  189.8970  177.8710  139.3320 C   0  0  0  0  0  3  0  0  0  0  0  0
  190.1020  176.6440  138.8930 C   0  0  0  0  0  3  0  0  0  0  0  0
  189.5310  178.0710  140.7010 C   0  0  0  0  0  0  0  0  0  0  0  0
  189.2400  178.2590  141.8570 C   0  0  0  0  0  0  0  0  0  0  0  0
  188.9010  178.5420  143.2530 C   0  0  0  0  0  2  0  0  0  0  0  0
  190.7170  177.9380  144.8900 C   0  0  0  0  0  2  0  0  0  0  0  0
  189.4780  177.4410  144.1440 C   0  0  1  0  0  3  0  0  0  0  0  0
  188.7610  177.2300  145.4900 C   0  0  1  0  0  3  0  0  0  0  0  0
  190.0230  177.7200  146.2160 C   0  0  2  0  0  0  0  0  0  0  0  0
  189.8740  178.9190  146.9120 O   0  0  0  0  0  1  0  0  0  0  0  0
  185.1450  178.3790  144.8290 C   0  0  0  0  0  3  0  0  0  0  0  0
  187.4860  178.0560  145.7220 C   0  0  2  0  0  3  0  0  0  0  0  0
  186.7880  177.6020  147.0010 C   0  0  0  0  0  2  0  0  0  0  0  0
  185.6030  178.5180  147.2730 C   0  0  0  0  0  2  0  0  0  0  0  0
  186.5190  177.8170  144.5610 C   0  0  0  0  0  2  0  0  0  0  0  0
  184.7090  178.6490  146.0670 C   0  0  0  0  0  3  0  0  0  0  0  0
  189.8970  175.7940  147.8140 O   0  0  0  0  0  1  0  0  0  0  0  0
  191.9300  176.5410  147.0660 O   0  0  0  0  0  0  0  0  0  0  0  0
  190.6740  176.6530  147.0420 C   0  0  0  0  0  0  0  0  0  0  0  0
  189.6430  176.3610  136.4100 O   0  0  0  0  0  0  0  0  0  0  0  0
  188.8430  175.2620  136.0040 C   0  0  0  0  0  2  0  0  0  0  0  0
  187.3830  175.6540  136.0520 C   0  0  0  0  0  2  0  0  0  0  0  0
  187.1970  176.9430  135.2810 C   0  0  0  0  0  2  0  0  0  0  0  0
  185.7270  177.1900  135.0090 C   0  0  0  0  0  2  0  0  0  0  0  0
  184.7580  175.9740  135.9480 S   0  0  0  0  0  0  0  0  0  0  0  0
  182.8740  176.7080  135.2230 S   0  0  0  0  0  0  0  0  0  0  0  0
  181.7840  177.5290  137.5530 O   0  0  0  0  0  0  0  0  0  0  0  0
  182.3130  175.7030  138.8950 O   0  0  0  0  0  0  0  0  0  0  0  0
  182.4810  175.3010  137.5790 C   0  0  2  0  0  3  0  0  0  0  0  0
  181.8870  176.4010  136.7390 C   0  0  2  0  0  3  0  0  0  0  0  0
  182.2180  177.1030  138.8260 C   0  0  2  0  0  3  0  0  0  0  0  0
  180.7400  173.9770  136.2770 C   0  0  0  0  0  2  0  0  0  0  0  0
  182.8030  172.9480  136.9530 N   0  0  0  0  0  2  0  0  0  0  0  0
  182.2170  172.1590  135.9390 N   0  0  0  0  0  2  0  0  0  0  0  0
  181.8090  173.9390  137.3480 C   0  0  1  0  0  3  0  0  0  0  0  0
  180.2110  172.2480  134.6610 N   0  0  0  0  0  1  0  0  0  0  0  0
  181.2870  173.0310  135.2470 C   0  0  1  0  0  3  0  0  0  0  0  0
  180.9570  179.0890  139.6580 C   0  0  0  0  0  2  0  0  0  0  0  0
  181.8930  178.6800  140.7680 C   0  0  0  0  0  0  0  0  0  0  0  0
  181.3800  178.8350  142.0550 O   0  0  0  0  0  1  0  0  0  0  0  0
  181.2600  177.6080  139.9000 C   0  0  2  0  0  3  0  0  0  0  0  0
  183.2340  179.0150  140.5620 O   0  0  0  0  0  1  0  0  0  0  0  0
  1 18  1  0  0  0  0
  2  1  2  0  0  0  0
  3  2  1  1  0  0  0
  4  6  1  0  0  0  0
  4  3  1  0  0  0  0
  5  3  1  0  0  0  0
  6  7  1  6  0  0  0
  6  5  1  0  0  0  0
  7  9  1  0  0  0  0
  8 10  1  0  0  0  0
  8 15  1  0  0  0  0
  9 13  1  0  0  0  0
 10  9  1  0  0  0  0
 11 14  1  1  0  0  0
 13 11  1  0  0  0  0
 15 11  1  0  0  0  0
 15 12  1  0  0  0  0
 15 16  1  0  0  0  0
 17 19  1  0  0  0  0
 18 17  2  0  0  0  0
 19 20  3  0  0  0  0
 20 21  1  0  0  0  0
 22 25  1  0  0  0  0
 23 21  1  6  0  0  0
 23 22  1  0  0  0  0
 23 24  1  0  0  0  0
 24 28  1  6  0  0  0
 24 25  1  0  0  0  0
 25 26  1  1  0  0  0
 25 35  1  0  0  0  0
 27 32  2  0  0  0  0
 28 31  1  6  0  0  0
 28 29  1  0  0  0  0
 29 30  1  0  0  0  0
 31 27  1  0  0  0  0
 32 30  1  0  0  0  0
 35 34  2  0  0  0  0
 35 33  1  0  0  0  0
 36  1  1  0  0  0  0
 37 38  1  0  0  0  0
 37 36  1  0  0  0  0
 39 38  1  0  0  0  0
 40 39  1  0  0  0  0
 40 41  1  0  0  0  0
 42 41  1  0  0  0  0
 45 44  1  1  0  0  0
 46 42  1  6  0  0  0
 46 43  1  0  0  0  0
 46 45  1  0  0  0  0
 47 43  1  6  0  0  0
 47 44  1  0  0  0  0
 47 57  1  0  0  0  0
 49 51  1  0  0  0  0
 50 49  1  0  0  0  0
 51 48  1  6  0  0  0
 51 45  1  0  0  0  0
 53 52  1  1  0  0  0
 53 50  1  0  0  0  0
 53 48  1  0  0  0  0
 54 55  1  0  0  0  0
 55 56  1  0  0  0  0
 57 54  1  6  0  0  0
 57 55  1  0  0  0  0
 58 55  1  0  0  0  0
M  END
>  <MODEL>
8

>  <REMARK>
 VINA RESULT:      -5.7      2.158      2.933
  Name = 
  19 active torsions:
  status: ('A' for Active; 'I' for Inactive)
    1  A    between atoms: C_1  and  C_27
    2  A    between atoms: C_1  and  C_32
    3  A    between atoms: C_5  and  C_21
    4  A    between atoms: C_6  and  C_14
    5  A    between atoms: N_7  and  C_18
    6  A    between atoms: C_8  and  C_17
    7  A    between atoms: C_12  and  O_15
    8  A    between atoms: C_12  and  C_27
    9  A    between atoms: S_13  and  C_43
   10  A    between atoms: S_13  and  S_47
   11  A    between atoms: O_15  and  C_17
   12  A    between atoms: C_16  and  C_46
   13  A    between atoms: C_18  and  C_39
   14  A    between atoms: C_24  and  C_46
   15  A    between atoms: C_26  and  C_33
   16  A    between atoms: C_29  and  C_54
   17  A    between atoms: C_32  and  S_47
   18  A    between atoms: C_40  and  C_44
   19  A    between atoms: C_48  and  C_49
                            x       y       z     vdW  Elec       q    Type
                         _______ _______ _______ _____ _____    ______ ____

>  <TORSDO>
F 19

$$$$
=
 OpenBabel10222415563D

 58 64  0  0  1  0  0  0  0  0999 V2000
  188.1170  175.2710  135.8460 C   0  0  0  0  0  0  0  0  0  0  0  0
  188.1100  173.9500  135.7360 C   0  0  0  0  0  3  0  0  0  0  0  0
  189.3520  173.1300  135.8510 C   0  0  1  0  0  3  0  0  0  0  0  0
  190.6040  173.7830  134.7150 S   0  0  0  0  0  0  0  0  0  0  0  0
  190.0260  173.4490  137.0990 N   0  0  0  0  0  2  0  0  0  0  0  0
  191.1520  174.0870  136.4330 C   0  0  1  0  0  3  0  0  0  0  0  0
  192.4530  173.3650  136.8270 C   0  0  0  0  0  2  0  0  0  0  0  0
  195.0410  175.9140  135.1940 S   0  0  0  0  0  0  0  0  0  0  0  0
  193.6110  173.8280  136.0720 N   0  0  0  0  0  0  0  0  0  0  0  0
  193.8600  175.2240  136.4050 C   0  0  0  0  0  2  0  0  0  0  0  0
  195.9480  173.3060  135.6160 C   0  0  2  0  0  3  0  0  0  0  0  0
  197.5090  174.9750  134.5940 C   0  0  0  0  0  1  0  0  0  0  0  0
  194.7640  173.0860  136.5510 C   0  0  0  0  0  2  0  0  0  0  0  0
  197.0630  172.3490  136.0280 C   0  0  0  0  0  1  0  0  0  0  0  0
  196.4120  174.7830  135.6290 C   0  0  0  0  0  0  0  0  0  0  0  0
  196.9560  175.1910  136.9920 C   0  0  0  0  0  1  0  0  0  0  0  0
  185.9220  176.0140  136.6740 C   0  0  0  0  0  3  0  0  0  0  0  0
  186.8250  175.9580  135.7130 C   0  0  0  0  0  3  0  0  0  0  0  0
  184.6800  176.6810  136.4270 C   0  0  0  0  0  0  0  0  0  0  0  0
  183.6410  177.2650  136.2340 C   0  0  0  0  0  0  0  0  0  0  0  0
  182.4100  178.0220  136.0020 C   0  0  0  0  0  2  0  0  0  0  0  0
  182.4120  177.9540  138.5190 C   0  0  0  0  0  2  0  0  0  0  0  0
  181.5440  177.9740  137.2610 C   0  0  1  0  0  3  0  0  0  0  0  0
  180.9410  179.3180  137.7070 C   0  0  1  0  0  3  0  0  0  0  0  0
  181.8140  179.2680  138.9700 C   0  0  2  0  0  0  0  0  0  0  0  0
  182.7860  180.2640  139.0540 O   0  0  0  0  0  1  0  0  0  0  0  0
  180.3750  181.5140  134.5940 C   0  0  0  0  0  3  0  0  0  0  0  0
  181.1740  180.5150  136.7730 C   0  0  2  0  0  3  0  0  0  0  0  0
  180.6230  181.7920  137.4010 C   0  0  0  0  0  2  0  0  0  0  0  0
  180.9810  182.9770  136.5150 C   0  0  0  0  0  2  0  0  0  0  0  0
  180.4160  180.2830  135.4640 C   0  0  0  0  0  2  0  0  0  0  0  0
  180.5810  182.7440  135.0810 C   0  0  0  0  0  3  0  0  0  0  0  0
  181.6000  178.6190  141.3810 O   0  0  0  0  0  1  0  0  0  0  0  0
  179.7980  179.4720  140.2510 O   0  0  0  0  0  0  0  0  0  0  0  0
  181.0130  179.1380  140.2300 C   0  0  0  0  0  0  0  0  0  0  0  0
  189.3360  175.9320  136.0940 O   0  0  0  0  0  0  0  0  0  0  0  0
  189.4960  177.3410  136.0230 C   0  0  0  0  0  2  0  0  0  0  0  0
  189.3280  177.9390  137.4010 C   0  0  0  0  0  2  0  0  0  0  0  0
  189.4400  176.8340  138.4310 C   0  0  0  0  0  2  0  0  0  0  0  0
  190.2500  177.3020  139.6230 C   0  0  0  0  0  2  0  0  0  0  0  0
  189.1020  177.8810  140.9050 S   0  0  0  0  0  0  0  0  0  0  0  0
  190.0070  176.6940  142.4500 S   0  0  0  0  0  0  0  0  0  0  0  0
  187.3980  177.1000  143.0160 O   0  0  0  0  0  0  0  0  0  0  0  0
  187.6070  178.1300  145.0920 O   0  0  0  0  0  0  0  0  0  0  0  0
  188.8250  177.5300  144.8130 C   0  0  2  0  0  3  0  0  0  0  0  0
  188.5830  176.6610  143.6070 C   0  0  2  0  0  3  0  0  0  0  0  0
  186.9190  178.1190  143.8660 C   0  0  2  0  0  3  0  0  0  0  0  0
  190.8040  176.4400  145.9840 C   0  0  0  0  0  2  0  0  0  0  0  0
  189.0540  177.4840  147.2580 N   0  0  0  0  0  2  0  0  0  0  0  0
  190.1830  177.3240  148.0900 N   0  0  0  0  0  2  0  0  0  0  0  0
  189.3210  176.7390  146.0330 C   0  0  1  0  0  3  0  0  0  0  0  0
  192.3580  176.3870  147.8450 N   0  0  0  0  0  1  0  0  0  0  0  0
  191.3150  177.1650  147.1960 C   0  0  1  0  0  3  0  0  0  0  0  0
  184.6820  177.9370  142.7760 C   0  0  0  0  0  2  0  0  0  0  0  0
  184.6230  179.1450  143.6770 C   0  0  0  0  0  0  0  0  0  0  0  0
  183.3950  179.3480  144.3050 O   0  0  0  0  0  1  0  0  0  0  0  0
  185.4260  177.9330  144.1140 C   0  0  2  0  0  3  0  0  0  0  0  0
  185.2990  180.2710  143.2010 O   0  0  0  0  0  1  0  0  0  0  0  0
  1 36  1  0  0  0  0
  2  1  2  0  0  0  0
  3  2  1  1  0  0  0
  3  5  1  0  0  0  0
  4  3  1  0  0  0  0
  4  6  1  0  0  0  0
  6  7  1  6  0  0  0
  6  5  1  0  0  0  0
  8 15  1  0  0  0  0
  8 10  1  0  0  0  0
  9 10  1  0  0  0  0
  9 13  1  0  0  0  0
  9  7  1  0  0  0  0
 11 15  1  0  0  0  0
 11 14  1  1  0  0  0
 11 13  1  0  0  0  0
 12 15  1  0  0  0  0
 15 16  1  0  0  0  0
 18  1  1  0  0  0  0
 18 17  2  0  0  0  0
 19 17  1  0  0  0  0
 20 19  3  0  0  0  0
 21 20  1  0  0  0  0
 22 25  1  0  0  0  0
 23 21  1  6  0  0  0
 23 24  1  0  0  0  0
 23 22  1  0  0  0  0
 24 28  1  6  0  0  0
 24 25  1  0  0  0  0
 25 26  1  1  0  0  0
 25 35  1  0  0  0  0
 27 32  2  0  0  0  0
 27 31  1  0  0  0  0
 28 31  1  6  0  0  0
 28 29  1  0  0  0  0
 30 29  1  0  0  0  0
 32 30  1  0  0  0  0
 35 34  2  0  0  0  0
 35 33  1  0  0  0  0
 37 36  1  0  0  0  0
 37 38  1  0  0  0  0
 38 39  1  0  0  0  0
 39 40  1  0  0  0  0
 40 41  1  0  0  0  0
 41 42  1  0  0  0  0
 43 46  1  0  0  0  0
 45 44  1  1  0  0  0
 45 51  1  0  0  0  0
 46 42  1  6  0  0  0
 46 45  1  0  0  0  0
 47 43  1  6  0  0  0
 47 57  1  0  0  0  0
 47 44  1  0  0  0  0
 48 53  1  0  0  0  0
 49 50  1  0  0  0  0
 51 48  1  6  0  0  0
 51 49  1  0  0  0  0
 53 52  1  1  0  0  0
 53 50  1  0  0  0  0
 54 55  1  0  0  0  0
 55 57  1  0  0  0  0
 55 56  1  0  0  0  0
 57 54  1  6  0  0  0
 58 55  1  0  0  0  0
M  END
>  <MODEL>
9

>  <REMARK>
 VINA RESULT:      -5.5      3.679      7.952
  Name = 
  19 active torsions:
  status: ('A' for Active; 'I' for Inactive)
    1  A    between atoms: C_1  and  C_27
    2  A    between atoms: C_1  and  C_32
    3  A    between atoms: C_5  and  C_21
    4  A    between atoms: C_6  and  C_14
    5  A    between atoms: N_7  and  C_18
    6  A    between atoms: C_8  and  C_17
    7  A    between atoms: C_12  and  O_15
    8  A    between atoms: C_12  and  C_27
    9  A    between atoms: S_13  and  C_43
   10  A    between atoms: S_13  and  S_47
   11  A    between atoms: O_15  and  C_17
   12  A    between atoms: C_16  and  C_46
   13  A    between atoms: C_18  and  C_39
   14  A    between atoms: C_24  and  C_46
   15  A    between atoms: C_26  and  C_33
   16  A    between atoms: C_29  and  C_54
   17  A    between atoms: C_32  and  S_47
   18  A    between atoms: C_40  and  C_44
   19  A    between atoms: C_48  and  C_49
                            x       y       z     vdW  Elec       q    Type
                         _______ _______ _______ _____ _____    ______ ____

>  <TORSDO>
F 19

$$$$
