=
 OpenBabel10222418483D

 29 31  0  0  0  0  0  0  0  0999 V2000
  189.6770  176.8410  145.0380 C   0  0  0  0  0  0  0  0  0  0  0  0
  188.4280  176.9940  144.3940 C   0  0  0  0  0  0  0  0  0  0  0  0
  185.0760  178.4330  145.1370 C   0  0  0  0  0  0  0  0  0  0  0  0
  188.8450  178.0330  146.9820 C   0  0  0  0  0  0  0  0  0  0  0  0
  189.0780  178.5500  148.2520 O   0  0  0  0  0  1  0  0  0  0  0  0
  189.8730  177.3650  146.3180 C   0  0  0  0  0  3  0  0  0  0  0  0
  187.3770  177.6400  145.0740 C   0  0  0  0  0  0  0  0  0  0  0  0
  186.5440  178.8250  147.0330 C   0  0  0  0  0  3  0  0  0  0  0  0
  187.5900  178.1700  146.3710 C   0  0  0  0  0  0  0  0  0  0  0  0
  185.2950  178.9560  146.4210 C   0  0  0  0  0  3  0  0  0  0  0  0
  186.1180  177.7810  144.4730 C   0  0  0  0  0  3  0  0  0  0  0  0
  183.7760  178.5550  144.4650 C   0  0  0  0  0  3  0  0  0  0  0  0
  183.6560  178.6540  143.1470 C   0  0  0  0  0  3  0  0  0  0  0  0
  182.3070  178.7740  142.5280 C   0  0  0  0  0  2  0  0  0  0  0  0
  179.6670  177.6750  142.4310 O   0  0  0  0  0  0  0  0  0  0  0  0
  179.9860  178.3510  143.4450 C   0  0  0  0  0  0  0  0  0  0  0  0
  179.0380  178.5490  144.4870 N   0  0  0  0  0  1  0  0  0  0  0  0
  181.2930  178.9170  143.5620 N   0  0  0  0  0  2  0  0  0  0  0  0
  190.7550  176.0970  144.4390 C   0  0  0  0  0  0  0  0  0  0  0  0
  191.6570  175.4730  143.9390 C   0  0  0  0  0  3  0  0  0  0  0  0
  188.1930  176.4540  143.0810 N   0  0  0  0  0  2  0  0  0  0  0  0
  188.0400  178.6020  139.9990 N   0  0  0  0  0  0  0  0  0  0  0  0
  190.2270  177.8540  139.1970 C   0  0  0  0  0  3  0  0  0  0  0  0
  189.0310  179.6550  137.6910 Cl  0  0  0  0  0  0  0  0  0  0  0  0
  189.9130  176.5530  141.3330 C   0  0  0  0  0  3  0  0  0  0  0  0
  189.1360  178.6010  139.0840 C   0  0  0  0  0  0  0  0  0  0  0  0
  187.8220  177.9140  141.2330 C   0  0  0  0  0  2  0  0  0  0  0  0
  190.5820  176.8880  140.2360 C   0  0  0  0  0  3  0  0  0  0  0  0
  188.6260  177.0380  141.8440 C   0  0  0  0  0  0  0  0  0  0  0  0
  1  6  1  0  0  0  0
  2  1  2  0  0  0  0
  2  7  1  0  0  0  0
  3 10  1  0  0  0  0
  4  5  1  0  0  0  0
  6  4  2  0  0  0  0
  7  9  2  0  0  0  0
  9  4  1  0  0  0  0
  9  8  1  0  0  0  0
 10  8  2  0  0  0  0
 11  7  1  0  0  0  0
 11  3  2  0  0  0  0
 12  3  1  0  0  0  0
 13 12  2  0  0  0  0
 14 13  1  0  0  0  0
 14 18  1  0  0  0  0
 15 16  2  0  0  0  0
 16 18  1  0  0  0  0
 16 17  1  0  0  0  0
 19  1  1  0  0  0  0
 20 19  3  0  0  0  0
 21  2  1  0  0  0  0
 22 27  1  0  0  0  0
 23 28  2  0  0  0  0
 24 26  1  0  0  0  0
 25 29  2  0  0  0  0
 26 23  1  0  0  0  0
 26 22  2  0  0  0  0
 27 29  1  0  0  0  0
 28 25  1  0  0  0  0
 29 21  1  0  0  0  0
M  END
>  <MODEL>
1

>  <REMARK>
 VINA RESULT:      -9.6      0.000      0.000
  Name = 
  6 active torsions:
  status: ('A' for Active; 'I' for Inactive)
    1  A    between atoms: C_1  and  C_9
    2  A    between atoms: C_2  and  N_14
    3  A    between atoms: C_4  and  C_11
    4  A    between atoms: C_4  and  N_27
    5  A    between atoms: C_5  and  C_7
    6  A    between atoms: N_14  and  C_28
                            x       y       z     vdW  Elec       q    Type
                         _______ _______ _______ _____ _____    ______ ____

>  <TORSDO>
F 6

$$$$
=
 OpenBabel10222418483D

 29 31  0  0  0  0  0  0  0  0999 V2000
  189.9470  176.6690  145.1880 C   0  0  0  0  0  0  0  0  0  0  0  0
  188.7850  176.8150  144.3980 C   0  0  0  0  0  0  0  0  0  0  0  0
  185.4060  178.3530  144.6850 C   0  0  0  0  0  0  0  0  0  0  0  0
  188.9280  177.9680  146.9670 C   0  0  0  0  0  0  0  0  0  0  0  0
  189.0270  178.5400  148.2320 O   0  0  0  0  0  1  0  0  0  0  0  0
  190.0080  177.2500  146.4570 C   0  0  0  0  0  3  0  0  0  0  0  0
  187.6790  177.5130  144.9220 C   0  0  0  0  0  0  0  0  0  0  0  0
  186.6560  178.8050  146.7170 C   0  0  0  0  0  3  0  0  0  0  0  0
  187.7550  178.1000  146.2100 C   0  0  0  0  0  0  0  0  0  0  0  0
  185.4890  178.9310  145.9600 C   0  0  0  0  0  3  0  0  0  0  0  0
  186.5000  177.6500  144.1740 C   0  0  0  0  0  3  0  0  0  0  0  0
  184.1940  178.4680  143.8620 C   0  0  0  0  0  3  0  0  0  0  0  0
  184.2210  178.4300  142.5350 C   0  0  0  0  0  3  0  0  0  0  0  0
  182.9560  178.5510  141.7610 C   0  0  0  0  0  2  0  0  0  0  0  0
  184.5900  179.7640  139.7500 O   0  0  0  0  0  0  0  0  0  0  0  0
  183.9700  178.7100  139.4470 C   0  0  0  0  0  0  0  0  0  0  0  0
  184.0950  178.1710  138.1370 N   0  0  0  0  0  1  0  0  0  0  0  0
  183.1470  178.0480  140.4090 N   0  0  0  0  0  2  0  0  0  0  0  0
  191.0690  175.8770  144.7500 C   0  0  0  0  0  0  0  0  0  0  0  0
  192.0080  175.2150  144.3840 C   0  0  0  0  0  3  0  0  0  0  0  0
  188.6880  176.2190  143.0920 N   0  0  0  0  0  2  0  0  0  0  0  0
  188.1750  178.2590  139.9760 N   0  0  0  0  0  0  0  0  0  0  0  0
  190.4750  177.9270  139.2100 C   0  0  0  0  0  3  0  0  0  0  0  0
  188.9800  179.4500  137.6630 Cl  0  0  0  0  0  0  0  0  0  0  0  0
  190.3820  176.6190  141.3620 C   0  0  0  0  0  3  0  0  0  0  0  0
  189.2640  178.4530  139.0730 C   0  0  0  0  0  0  0  0  0  0  0  0
  188.0740  177.5580  141.2170 C   0  0  0  0  0  2  0  0  0  0  0  0
  190.9910  177.0600  140.2670 C   0  0  0  0  0  3  0  0  0  0  0  0
  189.0200  176.8580  141.8510 C   0  0  0  0  0  0  0  0  0  0  0  0
  1  6  1  0  0  0  0
  2  7  1  0  0  0  0
  2  1  2  0  0  0  0
  3 10  1  0  0  0  0
  4  5  1  0  0  0  0
  6  4  2  0  0  0  0
  7  9  2  0  0  0  0
  9  8  1  0  0  0  0
  9  4  1  0  0  0  0
 10  8  2  0  0  0  0
 11  3  2  0  0  0  0
 11  7  1  0  0  0  0
 12  3  1  0  0  0  0
 13 12  2  0  0  0  0
 14 13  1  0  0  0  0
 16 15  2  0  0  0  0
 16 18  1  0  0  0  0
 17 16  1  0  0  0  0
 18 14  1  0  0  0  0
 19  1  1  0  0  0  0
 20 19  3  0  0  0  0
 21  2  1  0  0  0  0
 22 27  1  0  0  0  0
 23 28  2  0  0  0  0
 24 26  1  0  0  0  0
 25 29  2  0  0  0  0
 26 23  1  0  0  0  0
 26 22  2  0  0  0  0
 27 29  1  0  0  0  0
 28 25  1  0  0  0  0
 29 21  1  0  0  0  0
M  END
>  <MODEL>
2

>  <REMARK>
 VINA RESULT:      -9.1      1.868      2.303
  Name = 
  6 active torsions:
  status: ('A' for Active; 'I' for Inactive)
    1  A    between atoms: C_1  and  C_9
    2  A    between atoms: C_2  and  N_14
    3  A    between atoms: C_4  and  C_11
    4  A    between atoms: C_4  and  N_27
    5  A    between atoms: C_5  and  C_7
    6  A    between atoms: N_14  and  C_28
                            x       y       z     vdW  Elec       q    Type
                         _______ _______ _______ _____ _____    ______ ____

>  <TORSDO>
F 6

$$$$
=
 OpenBabel10222418483D

 29 31  0  0  0  0  0  0  0  0999 V2000
  188.2900  177.5400  146.6460 C   0  0  0  0  0  0  0  0  0  0  0  0
  187.7820  177.3290  145.3450 C   0  0  0  0  0  0  0  0  0  0  0  0
  184.8480  178.3730  143.3040 C   0  0  0  0  0  0  0  0  0  0  0  0
  186.4500  179.0430  147.1440 C   0  0  0  0  0  0  0  0  0  0  0  0
  185.8190  179.8950  148.0450 O   0  0  0  0  0  1  0  0  0  0  0  0
  187.6240  178.3950  147.5270 C   0  0  0  0  0  3  0  0  0  0  0  0
  186.5790  177.9550  144.9650 C   0  0  0  0  0  0  0  0  0  0  0  0
  184.7280  179.4540  145.4750 C   0  0  0  0  0  3  0  0  0  0  0  0
  185.9150  178.8230  145.8670 C   0  0  0  0  0  0  0  0  0  0  0  0
  184.1970  179.2310  144.2030 C   0  0  0  0  0  3  0  0  0  0  0  0
  186.0340  177.7430  143.6900 C   0  0  0  0  0  3  0  0  0  0  0  0
  184.3180  178.1170  141.9580 C   0  0  0  0  0  3  0  0  0  0  0  0
  183.1150  178.5250  141.5710 C   0  0  0  0  0  3  0  0  0  0  0  0
  182.6380  178.2350  140.1910 C   0  0  0  0  0  2  0  0  0  0  0  0
  184.4400  180.1650  139.0890 O   0  0  0  0  0  0  0  0  0  0  0  0
  184.6240  178.9530  138.7960 C   0  0  0  0  0  0  0  0  0  0  0  0
  185.6970  178.5920  137.9360 N   0  0  0  0  0  1  0  0  0  0  0  0
  183.7680  177.9380  139.3230 N   0  0  0  0  0  2  0  0  0  0  0  0
  189.4560  176.8440  147.1290 C   0  0  0  0  0  0  0  0  0  0  0  0
  190.4320  176.2640  147.5330 C   0  0  0  0  0  3  0  0  0  0  0  0
  188.4390  176.4440  144.4200 N   0  0  0  0  0  2  0  0  0  0  0  0
  190.4410  176.4230  141.2370 N   0  0  0  0  0  0  0  0  0  0  0  0
  192.0240  178.0990  142.0550 C   0  0  0  0  0  3  0  0  0  0  0  0
  192.4350  177.2700  139.5880 Cl  0  0  0  0  0  0  0  0  0  0  0  0
  190.4560  177.7780  144.0030 C   0  0  0  0  0  3  0  0  0  0  0  0
  191.5690  177.2880  141.1080 C   0  0  0  0  0  0  0  0  0  0  0  0
  189.5040  176.2230  142.2980 C   0  0  0  0  0  2  0  0  0  0  0  0
  191.5160  178.3160  143.4090 C   0  0  0  0  0  3  0  0  0  0  0  0
  189.4750  176.8120  143.4970 C   0  0  0  0  0  0  0  0  0  0  0  0
  1 19  1  0  0  0  0
  1  6  1  0  0  0  0
  2  1  2  0  0  0  0
  3 11  2  0  0  0  0
  3 10  1  0  0  0  0
  4  6  2  0  0  0  0
  4  5  1  0  0  0  0
  7  2  1  0  0  0  0
  7  9  2  0  0  0  0
  8  9  1  0  0  0  0
  9  4  1  0  0  0  0
 10  8  2  0  0  0  0
 11  7  1  0  0  0  0
 12  3  1  0  0  0  0
 13 12  2  0  0  0  0
 14 13  1  0  0  0  0
 16 15  2  0  0  0  0
 16 18  1  0  0  0  0
 17 16  1  0  0  0  0
 18 14  1  0  0  0  0
 19 20  3  0  0  0  0
 21  2  1  0  0  0  0
 22 27  1  0  0  0  0
 23 28  2  0  0  0  0
 24 26  1  0  0  0  0
 26 22  2  0  0  0  0
 26 23  1  0  0  0  0
 27 29  1  0  0  0  0
 28 25  1  0  0  0  0
 29 25  2  0  0  0  0
 29 21  1  0  0  0  0
M  END
>  <MODEL>
3

>  <REMARK>
 VINA RESULT:      -8.9      2.786      3.620
  Name = 
  6 active torsions:
  status: ('A' for Active; 'I' for Inactive)
    1  A    between atoms: C_1  and  C_9
    2  A    between atoms: C_2  and  N_14
    3  A    between atoms: C_4  and  C_11
    4  A    between atoms: C_4  and  N_27
    5  A    between atoms: C_5  and  C_7
    6  A    between atoms: N_14  and  C_28
                            x       y       z     vdW  Elec       q    Type
                         _______ _______ _______ _____ _____    ______ ____

>  <TORSDO>
F 6

$$$$
=
 OpenBabel10222418483D

 29 31  0  0  0  0  0  0  0  0999 V2000
  188.1270  177.4910  146.1270 C   0  0  0  0  0  0  0  0  0  0  0  0
  187.5880  177.2660  144.8410 C   0  0  0  0  0  0  0  0  0  0  0  0
  184.6170  178.3050  142.8530 C   0  0  0  0  0  0  0  0  0  0  0  0
  186.3110  179.0150  146.6460 C   0  0  0  0  0  0  0  0  0  0  0  0
  185.7070  179.8840  147.5490 O   0  0  0  0  0  1  0  0  0  0  0  0
  187.4880  178.3640  147.0110 C   0  0  0  0  0  3  0  0  0  0  0  0
  186.3820  177.8970  144.4800 C   0  0  0  0  0  0  0  0  0  0  0  0
  184.5540  179.4180  145.0110 C   0  0  0  0  0  3  0  0  0  0  0  0
  185.7450  178.7820  145.3840 C   0  0  0  0  0  0  0  0  0  0  0  0
  183.9930  179.1810  143.7540 C   0  0  0  0  0  3  0  0  0  0  0  0
  185.8060  177.6710  143.2210 C   0  0  0  0  0  3  0  0  0  0  0  0
  184.0540  178.0360  141.5230 C   0  0  0  0  0  3  0  0  0  0  0  0
  184.3540  178.7650  140.4550 C   0  0  0  0  0  3  0  0  0  0  0  0
  183.7500  178.4380  139.1350 C   0  0  0  0  0  2  0  0  0  0  0  0
  186.2730  178.9340  137.8810 O   0  0  0  0  0  0  0  0  0  0  0  0
  185.8110  177.7630  137.8290 C   0  0  0  0  0  0  0  0  0  0  0  0
  186.5410  176.7470  137.1540 N   0  0  0  0  0  1  0  0  0  0  0  0
  184.5620  177.4460  138.4450 N   0  0  0  0  0  2  0  0  0  0  0  0
  189.2990  176.7920  146.5930 C   0  0  0  0  0  0  0  0  0  0  0  0
  190.2790  176.2080  146.9820 C   0  0  0  0  0  3  0  0  0  0  0  0
  188.2180  176.3640  143.9130 N   0  0  0  0  0  2  0  0  0  0  0  0
  191.5520  176.9410  142.2760 N   0  0  0  0  0  0  0  0  0  0  0  0
  190.5500  177.7350  140.1910 C   0  0  0  0  0  3  0  0  0  0  0  0
  193.1830  177.6250  140.2060 Cl  0  0  0  0  0  0  0  0  0  0  0  0
  188.5530  177.2560  141.6520 C   0  0  0  0  0  3  0  0  0  0  0  0
  191.6050  177.4200  140.9330 C   0  0  0  0  0  0  0  0  0  0  0  0
  190.4570  176.6240  143.1380 C   0  0  0  0  0  2  0  0  0  0  0  0
  189.1300  177.6740  140.5310 C   0  0  0  0  0  3  0  0  0  0  0  0
  189.1490  176.7300  142.8850 C   0  0  0  0  0  0  0  0  0  0  0  0
  1 19  1  0  0  0  0
  1  6  1  0  0  0  0
  2  1  2  0  0  0  0
  3 11  2  0  0  0  0
  3 10  1  0  0  0  0
  4  6  2  0  0  0  0
  4  5  1  0  0  0  0
  7  2  1  0  0  0  0
  7  9  2  0  0  0  0
  8  9  1  0  0  0  0
  9  4  1  0  0  0  0
 10  8  2  0  0  0  0
 11  7  1  0  0  0  0
 12  3  1  0  0  0  0
 13 12  2  0  0  0  0
 14 13  1  0  0  0  0
 16 15  2  0  0  0  0
 16 18  1  0  0  0  0
 17 16  1  0  0  0  0
 18 14  1  0  0  0  0
 19 20  3  0  0  0  0
 21  2  1  0  0  0  0
 22 27  1  0  0  0  0
 23 28  2  0  0  0  0
 23 26  1  0  0  0  0
 24 26  1  0  0  0  0
 25 29  2  0  0  0  0
 26 22  2  0  0  0  0
 28 25  1  0  0  0  0
 29 27  1  0  0  0  0
 29 21  1  0  0  0  0
M  END
>  <MODEL>
4

>  <REMARK>
 VINA RESULT:      -8.8      3.077      4.055
  Name = 
  6 active torsions:
  status: ('A' for Active; 'I' for Inactive)
    1  A    between atoms: C_1  and  C_9
    2  A    between atoms: C_2  and  N_14
    3  A    between atoms: C_4  and  C_11
    4  A    between atoms: C_4  and  N_27
    5  A    between atoms: C_5  and  C_7
    6  A    between atoms: N_14  and  C_28
                            x       y       z     vdW  Elec       q    Type
                         _______ _______ _______ _____ _____    ______ ____

>  <TORSDO>
F 6

$$$$
=
 OpenBabel10222418483D

 29 31  0  0  0  0  0  0  0  0999 V2000
  188.1210  177.5030  146.1660 C   0  0  0  0  0  0  0  0  0  0  0  0
  187.5590  177.2720  144.8900 C   0  0  0  0  0  0  0  0  0  0  0  0
  184.5230  178.2530  142.9710 C   0  0  0  0  0  0  0  0  0  0  0  0
  186.2840  178.9860  146.7290 C   0  0  0  0  0  0  0  0  0  0  0  0
  185.6800  179.8390  147.6480 O   0  0  0  0  0  1  0  0  0  0  0  0
  187.4820  178.3600  147.0660 C   0  0  0  0  0  3  0  0  0  0  0  0
  186.3320  177.8770  144.5570 C   0  0  0  0  0  0  0  0  0  0  0  0
  184.4830  179.3560  145.1340 C   0  0  0  0  0  3  0  0  0  0  0  0
  185.6960  178.7460  145.4790 C   0  0  0  0  0  0  0  0  0  0  0  0
  183.9010  179.1120  143.8890 C   0  0  0  0  0  3  0  0  0  0  0  0
  185.7340  177.6430  143.3100 C   0  0  0  0  0  3  0  0  0  0  0  0
  183.9380  177.9750  141.6520 C   0  0  0  0  0  3  0  0  0  0  0  0
  182.8240  178.5570  141.2250 C   0  0  0  0  0  3  0  0  0  0  0  0
  182.2840  178.2320  139.8760 C   0  0  0  0  0  2  0  0  0  0  0  0
  182.5630  175.5530  138.9140 O   0  0  0  0  0  0  0  0  0  0  0  0
  181.4750  175.8690  139.4660 C   0  0  0  0  0  0  0  0  0  0  0  0
  180.4380  174.9040  139.5830 N   0  0  0  0  0  1  0  0  0  0  0  0
  181.2760  177.1880  139.9790 N   0  0  0  0  0  2  0  0  0  0  0  0
  189.3170  176.8290  146.6040 C   0  0  0  0  0  0  0  0  0  0  0  0
  190.3180  176.2650  146.9690 C   0  0  0  0  0  3  0  0  0  0  0  0
  188.1880  176.3860  143.9460 N   0  0  0  0  0  2  0  0  0  0  0  0
  191.5150  176.9240  142.2810 N   0  0  0  0  0  0  0  0  0  0  0  0
  190.5100  177.8650  140.2590 C   0  0  0  0  0  3  0  0  0  0  0  0
  193.1370  177.6560  140.2190 Cl  0  0  0  0  0  0  0  0  0  0  0  0
  188.5200  177.3840  141.7290 C   0  0  0  0  0  3  0  0  0  0  0  0
  191.5640  177.4720  140.9630 C   0  0  0  0  0  0  0  0  0  0  0  0
  190.4220  176.6030  143.1450 C   0  0  0  0  0  2  0  0  0  0  0  0
  189.0940  177.8400  140.6210 C   0  0  0  0  0  3  0  0  0  0  0  0
  189.1150  176.7720  142.9220 C   0  0  0  0  0  0  0  0  0  0  0  0
  1 19  1  0  0  0  0
  1  6  1  0  0  0  0
  2  1  2  0  0  0  0
  3 11  2  0  0  0  0
  3 10  1  0  0  0  0
  4  6  2  0  0  0  0
  4  5  1  0  0  0  0
  7  2  1  0  0  0  0
  7  9  2  0  0  0  0
  8  9  1  0  0  0  0
  9  4  1  0  0  0  0
 10  8  2  0  0  0  0
 11  7  1  0  0  0  0
 12  3  1  0  0  0  0
 13 12  2  0  0  0  0
 14 18  1  0  0  0  0
 14 13  1  0  0  0  0
 15 16  2  0  0  0  0
 16 17  1  0  0  0  0
 16 18  1  0  0  0  0
 19 20  3  0  0  0  0
 21  2  1  0  0  0  0
 22 27  1  0  0  0  0
 23 28  2  0  0  0  0
 23 26  1  0  0  0  0
 24 26  1  0  0  0  0
 25 29  2  0  0  0  0
 26 22  2  0  0  0  0
 28 25  1  0  0  0  0
 29 27  1  0  0  0  0
 29 21  1  0  0  0  0
M  END
>  <MODEL>
5

>  <REMARK>
 VINA RESULT:      -8.6      2.460      3.140
  Name = 
  6 active torsions:
  status: ('A' for Active; 'I' for Inactive)
    1  A    between atoms: C_1  and  C_9
    2  A    between atoms: C_2  and  N_14
    3  A    between atoms: C_4  and  C_11
    4  A    between atoms: C_4  and  N_27
    5  A    between atoms: C_5  and  C_7
    6  A    between atoms: N_14  and  C_28
                            x       y       z     vdW  Elec       q    Type
                         _______ _______ _______ _____ _____    ______ ____

>  <TORSDO>
F 6

$$$$
=
 OpenBabel10222418483D

 29 31  0  0  0  0  0  0  0  0999 V2000
  182.8960  179.0080  143.4740 C   0  0  0  0  0  0  0  0  0  0  0  0
  183.9710  178.8600  142.5690 C   0  0  0  0  0  0  0  0  0  0  0  0
  187.6060  178.0640  142.6770 C   0  0  0  0  0  0  0  0  0  0  0  0
  184.3510  178.4280  145.3290 C   0  0  0  0  0  0  0  0  0  0  0  0
  184.5110  178.2060  146.6930 O   0  0  0  0  0  1  0  0  0  0  0  0
  183.0960  178.7860  144.8390 C   0  0  0  0  0  3  0  0  0  0  0  0
  185.2480  178.5300  143.0630 C   0  0  0  0  0  0  0  0  0  0  0  0
  186.7060  177.9610  144.9300 C   0  0  0  0  0  3  0  0  0  0  0  0
  185.4360  178.3040  144.4490 C   0  0  0  0  0  0  0  0  0  0  0  0
  187.7840  177.8410  144.0510 C   0  0  0  0  0  3  0  0  0  0  0  0
  186.3410  178.4050  142.1930 C   0  0  0  0  0  3  0  0  0  0  0  0
  188.7190  177.9450  141.7250 C   0  0  0  0  0  3  0  0  0  0  0  0
  188.5360  177.8920  140.4110 C   0  0  0  0  0  3  0  0  0  0  0  0
  189.7070  177.7730  139.5000 C   0  0  0  0  0  2  0  0  0  0  0  0
  188.9670  179.6350  137.4570 O   0  0  0  0  0  0  0  0  0  0  0  0
  188.8970  178.4060  137.1870 C   0  0  0  0  0  0  0  0  0  0  0  0
  188.4520  177.9920  135.9010 N   0  0  0  0  0  1  0  0  0  0  0  0
  189.2640  177.4250  138.1580 N   0  0  0  0  0  2  0  0  0  0  0  0
  181.5940  179.4490  143.0430 C   0  0  0  0  0  0  0  0  0  0  0  0
  180.5040  179.8160  142.6810 C   0  0  0  0  0  3  0  0  0  0  0  0
  183.7980  179.0940  141.1600 N   0  0  0  0  0  2  0  0  0  0  0  0
  182.6550  175.9310  139.4800 N   0  0  0  0  0  0  0  0  0  0  0  0
  184.0840  176.2840  137.5260 C   0  0  0  0  0  3  0  0  0  0  0  0
  182.5680  174.1300  137.4390 Cl  0  0  0  0  0  0  0  0  0  0  0  0
  184.6050  178.2640  138.9960 C   0  0  0  0  0  3  0  0  0  0  0  0
  183.1710  175.5890  138.1930 C   0  0  0  0  0  0  0  0  0  0  0  0
  182.8890  177.0480  140.3400 C   0  0  0  0  0  2  0  0  0  0  0  0
  184.7640  177.5210  137.9060 C   0  0  0  0  0  3  0  0  0  0  0  0
  183.7120  178.0830  140.1450 C   0  0  0  0  0  0  0  0  0  0  0  0
  1  6  1  0  0  0  0
  2  7  1  0  0  0  0
  2  1  2  0  0  0  0
  3 10  1  0  0  0  0
  4  5  1  0  0  0  0
  6  4  2  0  0  0  0
  7  9  2  0  0  0  0
  9  8  1  0  0  0  0
  9  4  1  0  0  0  0
 10  8  2  0  0  0  0
 11  3  2  0  0  0  0
 11  7  1  0  0  0  0
 12  3  1  0  0  0  0
 13 12  2  0  0  0  0
 14 13  1  0  0  0  0
 16 15  2  0  0  0  0
 16 18  1  0  0  0  0
 17 16  1  0  0  0  0
 18 14  1  0  0  0  0
 19  1  1  0  0  0  0
 20 19  3  0  0  0  0
 21  2  1  0  0  0  0
 22 27  1  0  0  0  0
 23 28  2  0  0  0  0
 23 26  1  0  0  0  0
 24 26  1  0  0  0  0
 25 29  2  0  0  0  0
 26 22  2  0  0  0  0
 28 25  1  0  0  0  0
 29 27  1  0  0  0  0
 29 21  1  0  0  0  0
M  END
>  <MODEL>
6

>  <REMARK>
 VINA RESULT:      -8.3      3.758      7.072
  Name = 
  6 active torsions:
  status: ('A' for Active; 'I' for Inactive)
    1  A    between atoms: C_1  and  C_9
    2  A    between atoms: C_2  and  N_14
    3  A    between atoms: C_4  and  C_11
    4  A    between atoms: C_4  and  N_27
    5  A    between atoms: C_5  and  C_7
    6  A    between atoms: N_14  and  C_28
                            x       y       z     vdW  Elec       q    Type
                         _______ _______ _______ _____ _____    ______ ____

>  <TORSDO>
F 6

$$$$
=
 OpenBabel10222418483D

 29 31  0  0  1  0  0  0  0  0999 V2000
  184.7050  178.6440  141.5130 C   0  0  0  0  0  0  0  0  0  0  0  0
  185.8290  178.5570  142.3650 C   0  0  0  0  0  0  0  0  0  0  0  0
  186.5410  178.3950  146.0160 C   0  0  0  0  0  0  0  0  0  0  0  0
  183.2180  178.5630  143.4290 C   0  0  0  0  0  0  0  0  0  0  0  0
  181.9200  178.5540  143.9300 O   0  0  0  0  0  1  0  0  0  0  0  0
  183.4160  178.6410  142.0520 C   0  0  0  0  0  3  0  0  0  0  0  0
  185.6340  178.5110  143.7590 C   0  0  0  0  0  0  0  0  0  0  0  0
  184.1370  178.4440  145.6800 C   0  0  0  0  0  3  0  0  0  0  0  0
  184.3210  178.5050  144.2930 C   0  0  0  0  0  0  0  0  0  0  0  0
  185.2380  178.3890  146.5360 C   0  0  0  0  0  3  0  0  0  0  0  0
  186.7300  178.4540  144.6330 C   0  0  0  0  0  3  0  0  0  0  0  0
  187.7220  178.3370  146.8880 C   0  0  0  0  0  3  0  0  0  0  0  0
  188.6760  177.4250  146.7450 C   0  0  0  0  0  3  0  0  0  0  0  0
  189.8480  177.4220  147.6620 C   0  0  0  0  0  2  0  0  0  0  0  0
  192.5270  177.1300  148.6250 O   0  0  0  0  0  0  0  0  0  0  0  0
  192.0990  176.2730  147.8060 C   0  0  0  0  0  0  0  0  0  0  0  0
  192.9490  175.2120  147.3890 N   0  0  0  0  0  1  0  0  0  0  0  0
  190.7670  176.3540  147.2970 N   0  0  0  0  0  2  0  0  0  0  0  0
  184.8430  178.8020  140.0870 C   0  0  0  0  0  0  0  0  0  0  0  0
  184.9560  178.9330  138.8940 C   0  0  0  0  0  3  0  0  0  0  0  0
  187.1680  178.5700  141.8400 N   0  0  0  0  0  2  0  0  0  0  0  0
  189.4180  175.8120  143.0500 N   0  0  0  0  0  0  0  0  0  0  0  0
  191.0770  177.3680  143.9510 C   0  0  0  0  0  3  0  0  0  0  0  0
  191.6810  174.8140  144.1910 Cl  0  0  0  0  0  0  0  0  0  0  0  0
  189.2870  178.8890  143.0370 C   0  0  0  0  0  3  0  0  0  0  0  0
  190.6520  176.1380  143.6910 C   0  0  1  0  0  3  0  0  0  0  0  0
  188.3870  176.6260  142.4880 C   0  0  0  0  0  3  0  0  0  0  0  0
  190.4350  178.6490  143.6610 C   0  0  0  0  0  3  0  0  0  0  0  0
  188.3150  177.9600  142.4490 C   0  0  0  0  0  0  0  0  0  0  0  0
  1  6  2  0  0  0  0
  1  2  1  0  0  0  0
  2  7  2  0  0  0  0
  3 10  1  0  0  0  0
  3 12  1  0  0  0  0
  4  5  1  0  0  0  0
  4  9  2  0  0  0  0
  6  4  1  0  0  0  0
  7  9  1  0  0  0  0
  7 11  1  0  0  0  0
  8 10  2  0  0  0  0
  9  8  1  0  0  0  0
 11  3  2  0  0  0  0
 13 12  2  0  0  0  0
 13 14  1  0  0  0  0
 16 15  2  0  0  0  0
 17 16  1  0  0  0  0
 18 14  1  0  0  0  0
 18 16  1  0  0  0  0
 19  1  1  0  0  0  0
 20 19  3  0  0  0  0
 21  2  1  0  0  0  0
 21 29  1  0  0  0  0
 22 26  1  0  0  0  0
 25 28  1  0  0  0  0
 26 23  1  0  0  0  0
 26 24  1  1  0  0  0
 27 22  2  0  0  0  0
 28 23  2  0  0  0  0
 29 27  1  0  0  0  0
 29 25  2  0  0  0  0
M  END
>  <MODEL>
7

>  <REMARK>
 VINA RESULT:      -8.2      3.125      7.021
  Name = 
  6 active torsions:
  status: ('A' for Active; 'I' for Inactive)
    1  A    between atoms: C_1  and  C_9
    2  A    between atoms: C_2  and  N_14
    3  A    between atoms: C_4  and  C_11
    4  A    between atoms: C_4  and  N_27
    5  A    between atoms: C_5  and  C_7
    6  A    between atoms: N_14  and  C_28
                            x       y       z     vdW  Elec       q    Type
                         _______ _______ _______ _____ _____    ______ ____

>  <TORSDO>
F 6

$$$$
=
 OpenBabel10222418483D

 29 31  0  0  0  0  0  0  0  0999 V2000
  187.9690  178.2060  141.3440 C   0  0  0  0  0  0  0  0  0  0  0  0
  186.6320  178.6280  141.5210 C   0  0  0  0  0  0  0  0  0  0  0  0
  184.0640  178.6710  144.2160 C   0  0  0  0  0  0  0  0  0  0  0  0
  188.0780  177.5110  143.6680 C   0  0  0  0  0  0  0  0  0  0  0  0
  188.8170  176.9700  144.7150 O   0  0  0  0  0  1  0  0  0  0  0  0
  188.6770  177.6590  142.4170 C   0  0  0  0  0  3  0  0  0  0  0  0
  186.0130  178.4510  142.7740 C   0  0  0  0  0  0  0  0  0  0  0  0
  186.1250  177.7390  145.1010 C   0  0  0  0  0  3  0  0  0  0  0  0
  186.7430  177.8970  143.8540 C   0  0  0  0  0  0  0  0  0  0  0  0
  184.7940  178.1230  145.2820 C   0  0  0  0  0  3  0  0  0  0  0  0
  184.6780  178.8330  142.9720 C   0  0  0  0  0  3  0  0  0  0  0  0
  182.6640  179.0870  144.3730 C   0  0  0  0  0  3  0  0  0  0  0  0
  181.7420  178.8720  143.4410 C   0  0  0  0  0  3  0  0  0  0  0  0
  180.3400  179.3170  143.6630 C   0  0  0  0  0  2  0  0  0  0  0  0
  179.0910  179.3220  141.0890 O   0  0  0  0  0  0  0  0  0  0  0  0
  179.4400  180.4310  141.5750 C   0  0  0  0  0  0  0  0  0  0  0  0
  179.2140  181.6260  140.8390 N   0  0  0  0  0  1  0  0  0  0  0  0
  180.0570  180.4990  142.8620 N   0  0  0  0  0  2  0  0  0  0  0  0
  188.6200  178.2630  140.0610 C   0  0  0  0  0  0  0  0  0  0  0  0
  189.1670  178.3080  138.9870 C   0  0  0  0  0  3  0  0  0  0  0  0
  185.8730  179.1850  140.4320 N   0  0  0  0  0  2  0  0  0  0  0  0
  184.9190  177.4810  137.2190 N   0  0  0  0  0  0  0  0  0  0  0  0
  182.7160  176.8250  138.0570 C   0  0  0  0  0  3  0  0  0  0  0  0
  183.2760  176.0240  135.6100 Cl  0  0  0  0  0  0  0  0  0  0  0  0
  183.7200  178.0940  139.9890 C   0  0  0  0  0  3  0  0  0  0  0  0
  183.6470  176.8410  137.1110 C   0  0  0  0  0  0  0  0  0  0  0  0
  185.5490  178.1840  138.2920 C   0  0  0  0  0  2  0  0  0  0  0  0
  182.7430  177.4220  139.3910 C   0  0  0  0  0  3  0  0  0  0  0  0
  185.0610  178.4440  139.5090 C   0  0  0  0  0  0  0  0  0  0  0  0
  1  2  2  0  0  0  0
  1  6  1  0  0  0  0
  2  7  1  0  0  0  0
  3 12  1  0  0  0  0
  3 10  1  0  0  0  0
  4  9  1  0  0  0  0
  4  5  1  0  0  0  0
  6  4  2  0  0  0  0
  7 11  1  0  0  0  0
  7  9  2  0  0  0  0
  8 10  2  0  0  0  0
  9  8  1  0  0  0  0
 11  3  2  0  0  0  0
 13 14  1  0  0  0  0
 13 12  2  0  0  0  0
 15 16  2  0  0  0  0
 16 18  1  0  0  0  0
 17 16  1  0  0  0  0
 18 14  1  0  0  0  0
 19  1  1  0  0  0  0
 20 19  3  0  0  0  0
 21  2  1  0  0  0  0
 22 27  1  0  0  0  0
 23 28  2  0  0  0  0
 24 26  1  0  0  0  0
 26 22  2  0  0  0  0
 26 23  1  0  0  0  0
 27 29  1  0  0  0  0
 28 25  1  0  0  0  0
 29 25  2  0  0  0  0
 29 21  1  0  0  0  0
M  END
>  <MODEL>
8

>  <REMARK>
 VINA RESULT:      -8.1      2.909      4.348
  Name = 
  6 active torsions:
  status: ('A' for Active; 'I' for Inactive)
    1  A    between atoms: C_1  and  C_9
    2  A    between atoms: C_2  and  N_14
    3  A    between atoms: C_4  and  C_11
    4  A    between atoms: C_4  and  N_27
    5  A    between atoms: C_5  and  C_7
    6  A    between atoms: N_14  and  C_28
                            x       y       z     vdW  Elec       q    Type
                         _______ _______ _______ _____ _____    ______ ____

>  <TORSDO>
F 6

$$$$
=
 OpenBabel10222418483D

 29 31  0  0  0  0  0  0  0  0999 V2000
  189.4220  177.3860  140.1780 C   0  0  0  0  0  0  0  0  0  0  0  0
  188.2350  177.9710  140.6720 C   0  0  0  0  0  0  0  0  0  0  0  0
  186.2620  178.0140  143.8290 C   0  0  0  0  0  0  0  0  0  0  0  0
  189.8420  176.3630  142.3390 C   0  0  0  0  0  0  0  0  0  0  0  0
  190.6580  175.5770  143.1460 O   0  0  0  0  0  1  0  0  0  0  0  0
  190.2130  176.5950  141.0150 C   0  0  0  0  0  3  0  0  0  0  0  0
  187.8400  177.7130  141.9990 C   0  0  0  0  0  0  0  0  0  0  0  0
  188.2590  176.6730  144.1620 C   0  0  0  0  0  3  0  0  0  0  0  0
  188.6520  176.9120  142.8390 C   0  0  0  0  0  0  0  0  0  0  0  0
  187.0730  177.2200  144.6540 C   0  0  0  0  0  3  0  0  0  0  0  0
  186.6520  178.2560  142.5090 C   0  0  0  0  0  3  0  0  0  0  0  0
  185.0090  178.6060  144.3160 C   0  0  0  0  0  3  0  0  0  0  0  0
  183.9880  178.8850  143.5140 C   0  0  0  0  0  3  0  0  0  0  0  0
  182.7440  179.4830  144.0720 C   0  0  0  0  0  2  0  0  0  0  0  0
  180.3090  180.3910  142.8770 O   0  0  0  0  0  0  0  0  0  0  0  0
  180.4040  179.1670  143.1600 C   0  0  0  0  0  0  0  0  0  0  0  0
  179.3140  178.2940  142.8890 N   0  0  0  0  0  1  0  0  0  0  0  0
  181.5980  178.6470  143.7470 N   0  0  0  0  0  2  0  0  0  0  0  0
  189.8230  177.5240  138.8010 C   0  0  0  0  0  0  0  0  0  0  0  0
  190.1570  177.6400  137.6480 C   0  0  0  0  0  3  0  0  0  0  0  0
  187.3950  178.7810  139.8300 N   0  0  0  0  0  2  0  0  0  0  0  0
  185.4790  177.1380  137.0430 N   0  0  0  0  0  0  0  0  0  0  0  0
  183.3060  177.6590  138.0390 C   0  0  0  0  0  3  0  0  0  0  0  0
  183.2160  176.2870  135.7910 Cl  0  0  0  0  0  0  0  0  0  0  0  0
  184.9490  178.6760  139.6580 C   0  0  0  0  0  3  0  0  0  0  0  0
  184.0530  177.1060  137.0910 C   0  0  0  0  0  0  0  0  0  0  0  0
  186.4560  177.6690  137.9410 C   0  0  0  0  0  2  0  0  0  0  0  0
  183.7230  178.4040  139.2260 C   0  0  0  0  0  3  0  0  0  0  0  0
  186.2540  178.3210  139.0910 C   0  0  0  0  0  0  0  0  0  0  0  0
  1  2  2  0  0  0  0
  1  6  1  0  0  0  0
  2  7  1  0  0  0  0
  3 12  1  0  0  0  0
  3 10  1  0  0  0  0
  4  9  1  0  0  0  0
  4  5  1  0  0  0  0
  6  4  2  0  0  0  0
  7 11  1  0  0  0  0
  7  9  2  0  0  0  0
  8 10  2  0  0  0  0
  9  8  1  0  0  0  0
 11  3  2  0  0  0  0
 13 14  1  0  0  0  0
 13 12  2  0  0  0  0
 15 16  2  0  0  0  0
 16 18  1  0  0  0  0
 17 16  1  0  0  0  0
 18 14  1  0  0  0  0
 19  1  1  0  0  0  0
 20 19  3  0  0  0  0
 21  2  1  0  0  0  0
 22 26  2  0  0  0  0
 22 27  1  0  0  0  0
 23 28  2  0  0  0  0
 24 26  1  0  0  0  0
 26 23  1  0  0  0  0
 27 29  1  0  0  0  0
 28 25  1  0  0  0  0
 29 25  2  0  0  0  0
 29 21  1  0  0  0  0
M  END
>  <MODEL>
9

>  <REMARK>
 VINA RESULT:      -8.1      2.794      4.395
  Name = 
  6 active torsions:
  status: ('A' for Active; 'I' for Inactive)
    1  A    between atoms: C_1  and  C_9
    2  A    between atoms: C_2  and  N_14
    3  A    between atoms: C_4  and  C_11
    4  A    between atoms: C_4  and  N_27
    5  A    between atoms: C_5  and  C_7
    6  A    between atoms: N_14  and  C_28
                            x       y       z     vdW  Elec       q    Type
                         _______ _______ _______ _____ _____    ______ ____

>  <TORSDO>
F 6

$$$$
