=
 OpenBabel10222415203D

 43 45  0  0  1  0  0  0  0  0999 V2000
  193.0110  175.2180  138.1750 C   0  0  0  0  0  3  0  0  0  0  0  0
  188.5540  178.2830  136.7750 C   0  0  0  0  0  2  0  0  0  0  0  0
  188.5820  177.1760  139.0910 C   0  0  0  0  0  0  0  0  0  0  0  0
  186.3330  174.8480  137.0280 C   0  0  0  0  0  3  0  0  0  0  0  0
  185.3180  177.0630  137.3740 C   0  0  0  0  0  0  0  0  0  0  0  0
  192.8040  175.7490  135.6720 C   0  0  0  0  0  0  0  0  0  0  0  0
  193.4140  175.9810  134.5940 O   0  0  0  0  0  0  0  0  0  0  0  0
  193.5550  175.5060  136.8780 N   0  0  0  0  0  0  0  0  0  0  0  0
  189.3730  177.2560  135.9720 C   0  0  0  0  0  2  0  0  0  0  0  0
  190.7400  176.7930  136.5650 C   0  0  2  0  0  3  0  0  0  0  0  0
  188.4190  173.5610  136.1320 C   0  0  0  0  0  3  0  0  0  0  0  0
  191.3160  175.7360  135.6300 C   0  0  2  0  0  3  0  0  0  0  0  0
  189.3630  174.2300  135.1960 C   0  0  0  0  0  2  0  0  0  0  0  0
  186.0860  179.3070  137.7430 O   0  0  0  0  0  1  0  0  0  0  0  0
  187.3710  174.2030  136.5720 C   0  0  0  0  0  0  0  0  0  0  0  0
  186.2970  177.9710  138.0970 C   0  0  2  0  0  3  0  0  0  0  0  0
  190.7450  174.3280  135.8210 C   0  0  0  0  0  2  0  0  0  0  0  0
  187.7610  177.5760  137.8940 C   0  0  1  0  0  3  0  0  0  0  0  0
  189.7120  176.6670  138.7280 C   0  0  0  0  0  0  0  0  0  0  0  0
  191.8120  175.5620  138.6590 C   0  0  0  0  0  3  0  0  0  0  0  0
  190.7330  176.3230  138.0130 C   0  0  0  0  0  0  0  0  0  0  0  0
  183.9900  177.0930  137.6740 C   0  0  0  0  0  0  0  0  0  0  0  0
  195.0000  175.3870  136.7740 C   0  0  0  0  0  1  0  0  0  0  0  0
  185.8650  176.0950  136.3550 C   0  0  0  0  0  2  0  0  0  0  0  0
  182.1760  176.9370  135.9720 O   0  0  0  0  0  0  0  0  0  0  0  0
  182.8460  175.0660  137.0900 O   0  0  0  0  0  1  0  0  0  0  0  0
  182.9810  176.3060  136.9140 C   0  0  0  0  0  0  0  0  0  0  0  0
  188.4360  177.7250  140.4470 C   0  0  0  0  0  3  0  0  0  0  0  0
  189.1370  177.2850  141.4830 C   0  0  0  0  0  3  0  0  0  0  0  0
  188.9250  177.8590  142.8370 C   0  0  0  0  0  2  0  0  0  0  0  0
  188.8330  176.7280  143.8430 C   0  0  0  0  0  2  0  0  0  0  0  0
  188.3420  177.2420  145.1500 C   0  0  0  0  0  0  0  0  0  0  0  0
  186.8330  177.8850  145.2360 S   0  0  0  0  0  0  0  0  0  0  0  0
  189.2340  177.2150  146.2760 N   0  0  0  0  0  2  0  0  0  0  0  0
  191.2620  176.6960  145.2090 O   0  0  0  0  0  0  0  0  0  0  0  0
  190.6270  176.8780  146.2810 C   0  0  0  0  0  0  0  0  0  0  0  0
  191.3480  176.7860  147.5810 C   0  0  0  0  0  2  0  0  0  0  0  0
  192.3890  175.6890  147.5160 C   0  0  0  0  0  1  0  0  0  0  0  0
  183.4740  177.9160  138.7970 C   0  0  0  0  0  0  0  0  0  0  0  0
  183.0370  179.0830  138.5870 O   0  0  0  0  0  0  0  0  0  0  0  0
  183.5080  177.4050  140.0990 O   0  0  0  0  0  0  0  0  0  0  0  0
  185.0400  178.6340  141.5010 C   0  0  0  0  0  1  0  0  0  0  0  0
  183.5980  178.2420  141.2460 C   0  0  0  0  0  2  0  0  0  0  0  0
  1 20  2  0  0  0  0
  3 28  1  0  0  0  0
  5 22  2  0  0  0  0
  5 16  1  0  0  0  0
  6  8  1  0  0  0  0
  7  6  2  0  0  0  0
  8  1  1  0  0  0  0
  9  2  1  0  0  0  0
 10  9  1  6  0  0  0
 10 21  1  0  0  0  0
 11 15  2  0  0  0  0
 12  6  1  0  0  0  0
 12 17  1  1  0  0  0
 12 10  1  0  0  0  0
 13 17  1  0  0  0  0
 13 11  1  0  0  0  0
 15  4  2  0  0  0  0
 16 14  1  6  0  0  0
 18  2  1  1  0  0  0
 18 16  1  0  0  0  0
 18  3  1  0  0  0  0
 19  3  2  0  0  0  0
 21 20  1  0  0  0  0
 21 19  2  0  0  0  0
 22 39  1  0  0  0  0
 23  8  1  0  0  0  0
 24  4  1  0  0  0  0
 24  5  1  0  0  0  0
 25 27  2  0  0  0  0
 27 26  1  0  0  0  0
 27 22  1  0  0  0  0
 28 29  2  0  0  0  0
 29 30  1  0  0  0  0
 30 31  1  0  0  0  0
 31 32  1  0  0  0  0
 32 33  2  0  0  0  0
 32 34  1  0  0  0  0
 34 36  1  0  0  0  0
 35 36  2  0  0  0  0
 36 37  1  0  0  0  0
 38 37  1  0  0  0  0
 39 41  1  0  0  0  0
 40 39  2  0  0  0  0
 41 43  1  0  0  0  0
 43 42  1  0  0  0  0
M  END
>  <MODEL>
1

>  <REMARK>
 VINA RESULT:      -7.2      0.000      0.000
  Name = 
  10 active torsions:
  status: ('A' for Active; 'I' for Inactive)
    1  A    between atoms: C_1  and  C_6
    2  A    between atoms: C_5  and  C_15
    3  A    between atoms: N_10  and  C_24
    4  A    between atoms: C_13  and  O_40
    5  A    between atoms: C_14  and  C_15
    6  A    between atoms: C_14  and  C_24
    7  A    between atoms: C_19  and  C_34
    8  A    between atoms: C_23  and  C_38
    9  A    between atoms: C_23  and  O_40
   10  A    between atoms: C_27  and  C_38
                            x       y       z     vdW  Elec       q    Type
                         _______ _______ _______ _____ _____    ______ ____

>  <TORSDO>
F 10

$$$$
=
 OpenBabel10222415203D

 43 45  0  0  1  0  0  0  0  0999 V2000
  193.0030  175.2990  138.2040 C   0  0  0  0  0  3  0  0  0  0  0  0
  188.5050  178.2430  136.6810 C   0  0  0  0  0  2  0  0  0  0  0  0
  188.5470  177.2300  139.0400 C   0  0  0  0  0  0  0  0  0  0  0  0
  186.3320  174.7900  137.0710 C   0  0  0  0  0  3  0  0  0  0  0  0
  185.2860  177.0020  137.3280 C   0  0  0  0  0  0  0  0  0  0  0  0
  192.7910  175.7270  135.6810 C   0  0  0  0  0  0  0  0  0  0  0  0
  193.3980  175.9240  134.5940 O   0  0  0  0  0  0  0  0  0  0  0  0
  193.5450  175.5430  136.8960 N   0  0  0  0  0  0  0  0  0  0  0  0
  189.3390  177.1960  135.9190 C   0  0  0  0  0  2  0  0  0  0  0  0
  190.7120  176.7760  136.5310 C   0  0  2  0  0  3  0  0  0  0  0  0
  188.4360  173.4980  136.2280 C   0  0  0  0  0  3  0  0  0  0  0  0
  191.3030  175.6910  135.6400 C   0  0  2  0  0  3  0  0  0  0  0  0
  189.3720  174.1420  135.2660 C   0  0  0  0  0  2  0  0  0  0  0  0
  186.0220  179.2700  137.6060 O   0  0  0  0  0  1  0  0  0  0  0  0
  187.3790  174.1410  136.6420 C   0  0  0  0  0  0  0  0  0  0  0  0
  186.2520  177.9530  138.0140 C   0  0  2  0  0  3  0  0  0  0  0  0
  190.7520  174.2840  135.8870 C   0  0  0  0  0  2  0  0  0  0  0  0
  187.7210  177.5700  137.8270 C   0  0  1  0  0  3  0  0  0  0  0  0
  189.6840  176.7230  138.6970 C   0  0  0  0  0  0  0  0  0  0  0  0
  191.8000  175.6450  138.6730 C   0  0  0  0  0  3  0  0  0  0  0  0
  190.7100  176.3650  137.9970 C   0  0  0  0  0  0  0  0  0  0  0  0
  183.9570  177.0260  137.6260 C   0  0  0  0  0  0  0  0  0  0  0  0
  194.9910  175.4400  136.7970 C   0  0  0  0  0  1  0  0  0  0  0  0
  185.8480  176.0030  136.3480 C   0  0  0  0  0  2  0  0  0  0  0  0
  182.6730  174.9090  137.3460 O   0  0  0  0  0  1  0  0  0  0  0  0
  182.3510  176.6320  135.8880 O   0  0  0  0  0  0  0  0  0  0  0  0
  182.9610  176.1940  136.8990 C   0  0  0  0  0  0  0  0  0  0  0  0
  188.3920  177.8300  140.3730 C   0  0  0  0  0  3  0  0  0  0  0  0
  188.8680  177.2700  141.4760 C   0  0  0  0  0  3  0  0  0  0  0  0
  188.6550  177.9100  142.8000 C   0  0  0  0  0  2  0  0  0  0  0  0
  189.2330  177.0150  143.8780 C   0  0  0  0  0  2  0  0  0  0  0  0
  190.0950  177.8080  144.7970 C   0  0  0  0  0  0  0  0  0  0  0  0
  191.6340  178.1570  144.3380 S   0  0  0  0  0  0  0  0  0  0  0  0
  189.5680  178.1850  146.0790 N   0  0  0  0  0  2  0  0  0  0  0  0
  190.2340  176.3430  147.3780 O   0  0  0  0  0  0  0  0  0  0  0  0
  189.5900  177.4220  147.2920 C   0  0  0  0  0  0  0  0  0  0  0  0
  188.8730  177.9410  148.4890 C   0  0  0  0  0  2  0  0  0  0  0  0
  187.4540  178.3160  148.1180 C   0  0  0  0  0  1  0  0  0  0  0  0
  183.4290  177.8860  138.7150 C   0  0  0  0  0  0  0  0  0  0  0  0
  183.2040  177.4020  139.8600 O   0  0  0  0  0  0  0  0  0  0  0  0
  183.1440  179.2310  138.4550 O   0  0  0  0  0  0  0  0  0  0  0  0
  181.1050  179.6740  137.2440 C   0  0  0  0  0  1  0  0  0  0  0  0
  181.8330  179.7710  138.5700 C   0  0  0  0  0  2  0  0  0  0  0  0
  1 20  2  0  0  0  0
  3 28  1  0  0  0  0
  5 22  2  0  0  0  0
  5 16  1  0  0  0  0
  6  8  1  0  0  0  0
  7  6  2  0  0  0  0
  8  1  1  0  0  0  0
  9  2  1  0  0  0  0
 10  9  1  6  0  0  0
 10 21  1  0  0  0  0
 11 15  2  0  0  0  0
 12  6  1  0  0  0  0
 12 17  1  1  0  0  0
 12 10  1  0  0  0  0
 13 17  1  0  0  0  0
 13 11  1  0  0  0  0
 15  4  2  0  0  0  0
 16 14  1  6  0  0  0
 18  2  1  1  0  0  0
 18 16  1  0  0  0  0
 18  3  1  0  0  0  0
 19  3  2  0  0  0  0
 21 20  1  0  0  0  0
 21 19  2  0  0  0  0
 22 39  1  0  0  0  0
 23  8  1  0  0  0  0
 24  4  1  0  0  0  0
 24  5  1  0  0  0  0
 26 27  2  0  0  0  0
 27 25  1  0  0  0  0
 27 22  1  0  0  0  0
 28 29  2  0  0  0  0
 29 30  1  0  0  0  0
 30 31  1  0  0  0  0
 31 32  1  0  0  0  0
 32 34  1  0  0  0  0
 33 32  2  0  0  0  0
 34 36  1  0  0  0  0
 36 35  2  0  0  0  0
 36 37  1  0  0  0  0
 38 37  1  0  0  0  0
 39 40  2  0  0  0  0
 41 43  1  0  0  0  0
 41 39  1  0  0  0  0
 42 43  1  0  0  0  0
M  END
>  <MODEL>
2

>  <REMARK>
 VINA RESULT:      -7.0      1.312      1.841
  Name = 
  10 active torsions:
  status: ('A' for Active; 'I' for Inactive)
    1  A    between atoms: C_1  and  C_6
    2  A    between atoms: C_5  and  C_15
    3  A    between atoms: N_10  and  C_24
    4  A    between atoms: C_13  and  O_40
    5  A    between atoms: C_14  and  C_15
    6  A    between atoms: C_14  and  C_24
    7  A    between atoms: C_19  and  C_34
    8  A    between atoms: C_23  and  C_38
    9  A    between atoms: C_23  and  O_40
   10  A    between atoms: C_27  and  C_38
                            x       y       z     vdW  Elec       q    Type
                         _______ _______ _______ _____ _____    ______ ____

>  <TORSDO>
F 10

$$$$
=
 OpenBabel10222415203D

 43 45  0  0  1  0  0  0  0  0999 V2000
  189.7070  178.3250  138.0690 C   0  0  0  0  0  3  0  0  0  0  0  0
  188.0340  175.8990  142.8160 C   0  0  0  0  0  2  0  0  0  0  0  0
  187.2790  178.3100  142.3570 C   0  0  0  0  0  0  0  0  0  0  0  0
  190.1860  178.7510  144.8240 C   0  0  0  0  0  3  0  0  0  0  0  0
  188.2460  177.6420  145.8550 C   0  0  0  0  0  0  0  0  0  0  0  0
  190.9950  176.1990  138.7120 C   0  0  0  0  0  0  0  0  0  0  0  0
  191.6070  175.1770  138.3000 O   0  0  0  0  0  0  0  0  0  0  0  0
  190.4200  177.1170  137.7610 N   0  0  0  0  0  0  0  0  0  0  0  0
  189.3990  175.9000  142.1020 C   0  0  0  0  0  2  0  0  0  0  0  0
  189.4520  176.4370  140.6380 C   0  0  2  0  0  3  0  0  0  0  0  0
  191.9110  178.6730  142.8670 C   0  0  0  0  0  3  0  0  0  0  0  0
  190.9060  176.4000  140.1840 C   0  0  2  0  0  3  0  0  0  0  0  0
  192.1360  177.4050  142.1200 C   0  0  0  0  0  2  0  0  0  0  0  0
  186.4210  176.2640  145.1270 O   0  0  0  0  0  1  0  0  0  0  0  0
  191.0550  178.7080  143.8520 C   0  0  0  0  0  0  0  0  0  0  0  0
  187.1760  177.3950  144.8060 C   0  0  2  0  0  3  0  0  0  0  0  0
  191.7580  177.5810  140.6590 C   0  0  0  0  0  2  0  0  0  0  0  0
  187.7270  177.3000  143.3820 C   0  0  1  0  0  3  0  0  0  0  0  0
  187.9930  178.2260  141.2850 C   0  0  0  0  0  0  0  0  0  0  0  0
  189.0260  178.6170  139.1830 C   0  0  0  0  0  3  0  0  0  0  0  0
  188.8140  177.7960  140.3840 C   0  0  0  0  0  0  0  0  0  0  0  0
  187.9080  178.0340  147.1150 C   0  0  0  0  0  0  0  0  0  0  0  0
  190.7010  176.9080  136.3500 C   0  0  0  0  0  1  0  0  0  0  0  0
  189.6900  177.4880  145.4470 C   0  0  0  0  0  2  0  0  0  0  0  0
  190.1580  177.5690  148.0800 O   0  0  0  0  0  0  0  0  0  0  0  0
  188.6710  178.8520  149.2370 O   0  0  0  0  0  1  0  0  0  0  0  0
  188.9130  178.1760  148.2030 C   0  0  0  0  0  0  0  0  0  0  0  0
  185.9470  178.9300  142.2960 C   0  0  0  0  0  3  0  0  0  0  0  0
  184.8490  178.2520  141.9940 C   0  0  0  0  0  3  0  0  0  0  0  0
  183.5340  178.9400  141.9190 C   0  0  0  0  0  2  0  0  0  0  0  0
  182.6180  178.1530  141.0020 C   0  0  0  0  0  2  0  0  0  0  0  0
  182.8260  178.5680  139.5880 C   0  0  0  0  0  0  0  0  0  0  0  0
  182.0340  179.8940  139.0250 S   0  0  0  0  0  0  0  0  0  0  0  0
  183.6630  177.7560  138.7500 N   0  0  0  0  0  2  0  0  0  0  0  0
  185.6220  179.0530  138.7090 O   0  0  0  0  0  0  0  0  0  0  0  0
  184.9860  178.0510  138.2860 C   0  0  0  0  0  0  0  0  0  0  0  0
  185.6390  177.1290  137.3160 C   0  0  0  0  0  2  0  0  0  0  0  0
  186.5360  177.9140  136.3820 C   0  0  0  0  0  1  0  0  0  0  0  0
  186.5030  178.3560  147.4690 C   0  0  0  0  0  0  0  0  0  0  0  0
  185.8090  177.5390  148.1370 O   0  0  0  0  0  0  0  0  0  0  0  0
  185.9370  179.5570  147.0250 O   0  0  0  0  0  0  0  0  0  0  0  0
  184.0730  178.8260  145.6790 C   0  0  0  0  0  1  0  0  0  0  0  0
  185.3200  179.6850  145.7510 C   0  0  0  0  0  2  0  0  0  0  0  0
  1 20  2  0  0  0  0
  3 18  1  0  0  0  0
  4 24  1  0  0  0  0
  5 22  2  0  0  0  0
  6 12  1  0  0  0  0
  7  6  2  0  0  0  0
  8  1  1  0  0  0  0
  8  6  1  0  0  0  0
  9  2  1  0  0  0  0
 10  9  1  1  0  0  0
 11 15  2  0  0  0  0
 12 10  1  0  0  0  0
 12 17  1  6  0  0  0
 13 11  1  0  0  0  0
 15  4  2  0  0  0  0
 16 14  1  1  0  0  0
 16  5  1  0  0  0  0
 17 13  1  0  0  0  0
 18  2  1  6  0  0  0
 18 16  1  0  0  0  0
 19  3  2  0  0  0  0
 20 21  1  0  0  0  0
 21 10  1  0  0  0  0
 21 19  2  0  0  0  0
 22 39  1  0  0  0  0
 22 27  1  0  0  0  0
 23  8  1  0  0  0  0
 24  5  1  0  0  0  0
 25 27  2  0  0  0  0
 27 26  1  0  0  0  0
 28  3  1  0  0  0  0
 29 28  2  0  0  0  0
 30 29  1  0  0  0  0
 31 30  1  0  0  0  0
 32 31  1  0  0  0  0
 33 32  2  0  0  0  0
 34 32  1  0  0  0  0
 36 35  2  0  0  0  0
 36 34  1  0  0  0  0
 37 36  1  0  0  0  0
 38 37  1  0  0  0  0
 39 40  2  0  0  0  0
 41 39  1  0  0  0  0
 42 43  1  0  0  0  0
 43 41  1  0  0  0  0
M  END
>  <MODEL>
3

>  <REMARK>
 VINA RESULT:      -6.4      3.263      7.946
  Name = 
  10 active torsions:
  status: ('A' for Active; 'I' for Inactive)
    1  A    between atoms: C_1  and  C_6
    2  A    between atoms: C_5  and  C_15
    3  A    between atoms: N_10  and  C_24
    4  A    between atoms: C_13  and  O_40
    5  A    between atoms: C_14  and  C_15
    6  A    between atoms: C_14  and  C_24
    7  A    between atoms: C_19  and  C_34
    8  A    between atoms: C_23  and  C_38
    9  A    between atoms: C_23  and  O_40
   10  A    between atoms: C_27  and  C_38
                            x       y       z     vdW  Elec       q    Type
                         _______ _______ _______ _____ _____    ______ ____

>  <TORSDO>
F 10

$$$$
=
 OpenBabel10222415203D

 43 45  0  0  1  0  0  0  0  0999 V2000
  189.4140  178.3000  138.0370 C   0  0  0  0  0  3  0  0  0  0  0  0
  188.2300  175.7980  142.8900 C   0  0  0  0  0  2  0  0  0  0  0  0
  187.3790  178.1920  142.5230 C   0  0  0  0  0  0  0  0  0  0  0  0
  190.4820  178.6880  144.7260 C   0  0  0  0  0  3  0  0  0  0  0  0
  188.6690  177.5240  145.9150 C   0  0  0  0  0  0  0  0  0  0  0  0
  190.8060  176.2020  138.5430 C   0  0  0  0  0  0  0  0  0  0  0  0
  191.4040  175.1990  138.0690 O   0  0  0  0  0  0  0  0  0  0  0  0
  190.1270  177.1130  137.6550 N   0  0  0  0  0  0  0  0  0  0  0  0
  189.5250  175.8380  142.0580 C   0  0  0  0  0  2  0  0  0  0  0  0
  189.4350  176.3870  140.6000 C   0  0  2  0  0  3  0  0  0  0  0  0
  192.0270  178.6680  142.6240 C   0  0  0  0  0  3  0  0  0  0  0  0
  190.8440  176.3910  140.0190 C   0  0  2  0  0  3  0  0  0  0  0  0
  192.2150  177.4120  141.8480 C   0  0  0  0  0  2  0  0  0  0  0  0
  186.8200  176.1060  145.3390 O   0  0  0  0  0  1  0  0  0  0  0  0
  191.2620  178.6750  143.6810 C   0  0  0  0  0  0  0  0  0  0  0  0
  187.5160  177.2580  144.9630 C   0  0  2  0  0  3  0  0  0  0  0  0
  191.7050  177.5890  140.4270 C   0  0  0  0  0  2  0  0  0  0  0  0
  187.9400  177.1870  143.4940 C   0  0  1  0  0  3  0  0  0  0  0  0
  187.9960  178.1350  141.3910 C   0  0  0  0  0  0  0  0  0  0  0  0
  188.8280  178.5660  139.2090 C   0  0  0  0  0  3  0  0  0  0  0  0
  188.7450  177.7320  140.4170 C   0  0  0  0  0  0  0  0  0  0  0  0
  188.4350  177.8980  147.2030 C   0  0  0  0  0  0  0  0  0  0  0  0
  190.2860  176.9210  136.2230 C   0  0  0  0  0  1  0  0  0  0  0  0
  190.0740  177.4090  145.3790 C   0  0  0  0  0  2  0  0  0  0  0  0
  190.6640  177.2590  148.1150 O   0  0  0  0  0  0  0  0  0  0  0  0
  189.4620  178.9160  149.1180 O   0  0  0  0  0  1  0  0  0  0  0  0
  189.5280  178.0580  148.2000 C   0  0  0  0  0  0  0  0  0  0  0  0
  186.0320  178.7790  142.5870 C   0  0  0  0  0  3  0  0  0  0  0  0
  184.9670  178.2000  142.0520 C   0  0  0  0  0  3  0  0  0  0  0  0
  183.6350  178.8550  142.1220 C   0  0  0  0  0  2  0  0  0  0  0  0
  183.1020  179.0410  140.7150 C   0  0  0  0  0  2  0  0  0  0  0  0
  181.6670  178.6510  140.6540 C   0  0  0  0  0  0  0  0  0  0  0  0
  181.0330  178.1780  139.2140 S   0  0  0  0  0  0  0  0  0  0  0  0
  180.8740  178.7640  141.8460 N   0  0  0  0  0  2  0  0  0  0  0  0
  179.8880  180.8710  141.5110 O   0  0  0  0  0  0  0  0  0  0  0  0
  180.0790  179.8810  142.2650 C   0  0  0  0  0  0  0  0  0  0  0  0
  179.4290  179.8480  143.6040 C   0  0  0  0  0  2  0  0  0  0  0  0
  179.7440  178.5400  144.2980 C   0  0  0  0  0  1  0  0  0  0  0  0
  187.0590  178.1820  147.6840 C   0  0  0  0  0  0  0  0  0  0  0  0
  186.6810  177.7760  148.8190 O   0  0  0  0  0  0  0  0  0  0  0  0
  186.1670  178.8710  146.8540 O   0  0  0  0  0  0  0  0  0  0  0  0
  184.1600  178.8580  145.5150 C   0  0  0  0  0  1  0  0  0  0  0  0
  184.7630  178.6490  146.8900 C   0  0  0  0  0  2  0  0  0  0  0  0
  1 20  2  0  0  0  0
  3 28  1  0  0  0  0
  3 18  1  0  0  0  0
  4 24  1  0  0  0  0
  5 22  2  0  0  0  0
  6 12  1  0  0  0  0
  7  6  2  0  0  0  0
  8  1  1  0  0  0  0
  8  6  1  0  0  0  0
  9  2  1  0  0  0  0
 10  9  1  1  0  0  0
 11 15  2  0  0  0  0
 12 17  1  6  0  0  0
 12 10  1  0  0  0  0
 13 11  1  0  0  0  0
 15  4  2  0  0  0  0
 16 14  1  1  0  0  0
 16  5  1  0  0  0  0
 17 13  1  0  0  0  0
 18  2  1  6  0  0  0
 18 16  1  0  0  0  0
 19  3  2  0  0  0  0
 20 21  1  0  0  0  0
 21 10  1  0  0  0  0
 21 19  2  0  0  0  0
 22 39  1  0  0  0  0
 22 27  1  0  0  0  0
 23  8  1  0  0  0  0
 24  5  1  0  0  0  0
 25 27  2  0  0  0  0
 27 26  1  0  0  0  0
 29 30  1  0  0  0  0
 29 28  2  0  0  0  0
 31 30  1  0  0  0  0
 32 31  1  0  0  0  0
 32 34  1  0  0  0  0
 33 32  2  0  0  0  0
 34 36  1  0  0  0  0
 35 36  2  0  0  0  0
 36 37  1  0  0  0  0
 37 38  1  0  0  0  0
 39 40  2  0  0  0  0
 41 43  1  0  0  0  0
 41 39  1  0  0  0  0
 42 43  1  0  0  0  0
M  END
>  <MODEL>
4

>  <REMARK>
 VINA RESULT:      -6.1      3.810      8.296
  Name = 
  10 active torsions:
  status: ('A' for Active; 'I' for Inactive)
    1  A    between atoms: C_1  and  C_6
    2  A    between atoms: C_5  and  C_15
    3  A    between atoms: N_10  and  C_24
    4  A    between atoms: C_13  and  O_40
    5  A    between atoms: C_14  and  C_15
    6  A    between atoms: C_14  and  C_24
    7  A    between atoms: C_19  and  C_34
    8  A    between atoms: C_23  and  C_38
    9  A    between atoms: C_23  and  O_40
   10  A    between atoms: C_27  and  C_38
                            x       y       z     vdW  Elec       q    Type
                         _______ _______ _______ _____ _____    ______ ____

>  <TORSDO>
F 10

$$$$
=
 OpenBabel10222415203D

 43 45  0  0  1  0  0  0  0  0999 V2000
  191.4770  176.2590  138.9610 C   0  0  0  0  0  3  0  0  0  0  0  0
  186.9060  177.4990  135.9950 C   0  0  0  0  0  2  0  0  0  0  0  0
  186.6840  177.3290  138.5470 C   0  0  0  0  0  0  0  0  0  0  0  0
  185.3060  173.9640  137.3170 C   0  0  0  0  0  3  0  0  0  0  0  0
  183.8770  175.8570  136.6600 C   0  0  0  0  0  0  0  0  0  0  0  0
  191.6620  175.7980  136.4420 C   0  0  0  0  0  0  0  0  0  0  0  0
  192.4160  175.7650  135.4330 O   0  0  0  0  0  0  0  0  0  0  0  0
  192.2000  176.1830  137.7230 N   0  0  0  0  0  0  0  0  0  0  0  0
  188.0290  176.4730  135.7500 C   0  0  0  0  0  2  0  0  0  0  0  0
  189.3170  176.5820  136.6240 C   0  0  2  0  0  3  0  0  0  0  0  0
  187.7150  172.9650  137.2280 C   0  0  0  0  0  3  0  0  0  0  0  0
  190.2340  175.4260  136.2440 C   0  0  2  0  0  3  0  0  0  0  0  0
  188.6900  173.4550  136.2160 C   0  0  0  0  0  2  0  0  0  0  0  0
  184.1600  178.1970  136.2090 O   0  0  0  0  0  1  0  0  0  0  0  0
  186.5070  173.4590  137.2660 C   0  0  0  0  0  0  0  0  0  0  0  0
  184.5280  177.1640  137.0750 C   0  0  2  0  0  3  0  0  0  0  0  0
  189.8890  174.0880  136.9030 C   0  0  0  0  0  2  0  0  0  0  0  0
  186.0500  177.0740  137.2050 C   0  0  1  0  0  3  0  0  0  0  0  0
  187.9330  177.0010  138.5370 C   0  0  0  0  0  0  0  0  0  0  0  0
  190.1670  176.4640  139.1370 C   0  0  0  0  0  3  0  0  0  0  0  0
  189.1150  176.6720  138.1310 C   0  0  0  0  0  0  0  0  0  0  0  0
  182.5310  175.6830  136.7740 C   0  0  0  0  0  0  0  0  0  0  0  0
  193.6370  176.3730  137.8340 C   0  0  0  0  0  1  0  0  0  0  0  0
  184.7670  174.7450  136.1640 C   0  0  0  0  0  2  0  0  0  0  0  0
  181.6570  173.3750  137.1190 O   0  0  0  0  0  1  0  0  0  0  0  0
  181.3890  174.3980  135.1000 O   0  0  0  0  0  0  0  0  0  0  0  0
  181.8370  174.4650  136.2740 C   0  0  0  0  0  0  0  0  0  0  0  0
  186.1900  178.2750  139.5580 C   0  0  0  0  0  3  0  0  0  0  0  0
  186.7220  178.3820  140.7680 C   0  0  0  0  0  3  0  0  0  0  0  0
  186.1610  179.3370  141.7580 C   0  0  0  0  0  2  0  0  0  0  0  0
  185.0140  178.6700  142.4910 C   0  0  0  0  0  2  0  0  0  0  0  0
  185.2320  178.7430  143.9620 C   0  0  0  0  0  0  0  0  0  0  0  0
  183.9460  179.0300  144.9430 S   0  0  0  0  0  0  0  0  0  0  0  0
  186.5730  178.6220  144.4630 N   0  0  0  0  0  2  0  0  0  0  0  0
  187.0810  176.4220  143.8100 O   0  0  0  0  0  0  0  0  0  0  0  0
  187.4160  177.4630  144.4360 C   0  0  0  0  0  0  0  0  0  0  0  0
  188.7340  177.5080  145.1260 C   0  0  0  0  0  2  0  0  0  0  0  0
  188.5350  177.4300  146.6250 C   0  0  0  0  0  1  0  0  0  0  0  0
  181.6760  176.7080  137.4240 C   0  0  0  0  0  0  0  0  0  0  0  0
  180.8390  177.3670  136.7450 O   0  0  0  0  0  0  0  0  0  0  0  0
  181.8280  176.9680  138.7910 O   0  0  0  0  0  0  0  0  0  0  0  0
  180.8300  178.7560  140.0680 C   0  0  0  0  0  1  0  0  0  0  0  0
  180.7320  177.3070  139.6310 C   0  0  0  0  0  2  0  0  0  0  0  0
  1 20  2  0  0  0  0
  3 28  1  0  0  0  0
  5 22  2  0  0  0  0
  5 16  1  0  0  0  0
  6  8  1  0  0  0  0
  7  6  2  0  0  0  0
  8 23  1  0  0  0  0
  8  1  1  0  0  0  0
  9  2  1  0  0  0  0
 10  9  1  6  0  0  0
 10 21  1  0  0  0  0
 11 15  2  0  0  0  0
 12  6  1  0  0  0  0
 12 10  1  0  0  0  0
 12 17  1  1  0  0  0
 13 17  1  0  0  0  0
 13 11  1  0  0  0  0
 15  4  2  0  0  0  0
 16 14  1  6  0  0  0
 16 18  1  0  0  0  0
 18  2  1  6  0  0  0
 18  3  1  0  0  0  0
 19  3  2  0  0  0  0
 21 19  2  0  0  0  0
 21 20  1  0  0  0  0
 22 39  1  0  0  0  0
 24  5  1  0  0  0  0
 24  4  1  0  0  0  0
 26 27  2  0  0  0  0
 27 22  1  0  0  0  0
 27 25  1  0  0  0  0
 28 29  2  0  0  0  0
 29 30  1  0  0  0  0
 30 31  1  0  0  0  0
 31 32  1  0  0  0  0
 32 34  1  0  0  0  0
 32 33  2  0  0  0  0
 35 36  2  0  0  0  0
 36 34  1  0  0  0  0
 36 37  1  0  0  0  0
 37 38  1  0  0  0  0
 39 41  1  0  0  0  0
 40 39  2  0  0  0  0
 41 43  1  0  0  0  0
 43 42  1  0  0  0  0
M  END
>  <MODEL>
5

>  <REMARK>
 VINA RESULT:      -5.5      1.942      2.650
  Name = 
  10 active torsions:
  status: ('A' for Active; 'I' for Inactive)
    1  A    between atoms: C_1  and  C_6
    2  A    between atoms: C_5  and  C_15
    3  A    between atoms: N_10  and  C_24
    4  A    between atoms: C_13  and  O_40
    5  A    between atoms: C_14  and  C_15
    6  A    between atoms: C_14  and  C_24
    7  A    between atoms: C_19  and  C_34
    8  A    between atoms: C_23  and  C_38
    9  A    between atoms: C_23  and  O_40
   10  A    between atoms: C_27  and  C_38
                            x       y       z     vdW  Elec       q    Type
                         _______ _______ _______ _____ _____    ______ ____

>  <TORSDO>
F 10

$$$$
=
 OpenBabel10222415203D

 43 45  0  0  1  0  0  0  0  0999 V2000
  182.1190  177.0410  138.8500 C   0  0  0  0  0  3  0  0  0  0  0  0
  187.1950  178.4490  136.9850 C   0  0  0  0  0  2  0  0  0  0  0  0
  186.7640  175.9900  137.5830 C   0  0  0  0  0  0  0  0  0  0  0  0
  188.6570  177.3220  140.6440 C   0  0  0  0  0  3  0  0  0  0  0  0
  190.0630  177.2690  138.6260 C   0  0  0  0  0  0  0  0  0  0  0  0
  182.6230  179.5590  138.8770 C   0  0  0  0  0  0  0  0  0  0  0  0
  182.1590  180.7240  138.7590 O   0  0  0  0  0  0  0  0  0  0  0  0
  181.7470  178.4240  138.7330 N   0  0  0  0  0  0  0  0  0  0  0  0
  186.2520  179.1430  137.9870 C   0  0  0  0  0  2  0  0  0  0  0  0
  184.7780  178.6370  138.0670 C   0  0  2  0  0  3  0  0  0  0  0  0
  186.4330  178.2050  141.6850 C   0  0  0  0  0  3  0  0  0  0  0  0
  184.0770  179.4250  139.1670 C   0  0  2  0  0  3  0  0  0  0  0  0
  185.7180  179.3500  141.0580 C   0  0  0  0  0  2  0  0  0  0  0  0
  189.7340  177.4050  136.2530 O   0  0  0  0  0  1  0  0  0  0  0  0
  187.5500  177.7710  141.1690 C   0  0  0  0  0  0  0  0  0  0  0  0
  189.2330  176.8410  137.4290 C   0  0  2  0  0  3  0  0  0  0  0  0
  184.3390  178.9170  140.5880 C   0  0  0  0  0  2  0  0  0  0  0  0
  187.7390  177.1370  137.5850 C   0  0  1  0  0  3  0  0  0  0  0  0
  185.5870  176.3840  137.9410 C   0  0  0  0  0  0  0  0  0  0  0  0
  183.3200  176.4920  138.6390 C   0  0  0  0  0  3  0  0  0  0  0  0
  184.5770  177.1370  138.2300 C   0  0  0  0  0  0  0  0  0  0  0  0
  191.3430  176.8280  138.7770 C   0  0  0  0  0  0  0  0  0  0  0  0
  180.3200  178.6710  138.6080 C   0  0  0  0  0  1  0  0  0  0  0  0
  189.4160  178.1520  139.6620 C   0  0  0  0  0  2  0  0  0  0  0  0
  191.7120  177.5110  141.1450 O   0  0  0  0  0  1  0  0  0  0  0  0
  193.4550  177.5290  139.6760 O   0  0  0  0  0  0  0  0  0  0  0  0
  192.2300  177.3110  139.8700 C   0  0  0  0  0  0  0  0  0  0  0  0
  186.9090  174.7480  136.8090 C   0  0  0  0  0  3  0  0  0  0  0  0
  186.3830  173.5940  137.1920 C   0  0  0  0  0  3  0  0  0  0  0  0
  186.5890  172.3640  136.3830 C   0  0  0  0  0  2  0  0  0  0  0  0
  185.8480  172.5090  135.0690 C   0  0  0  0  0  2  0  0  0  0  0  0
  184.5220  171.8380  135.1490 C   0  0  0  0  0  0  0  0  0  0  0  0
  184.4680  170.2090  135.3540 S   0  0  0  0  0  0  0  0  0  0  0  0
  183.3390  172.6340  134.9810 N   0  0  0  0  0  2  0  0  0  0  0  0
  182.9100  173.2480  137.2090 O   0  0  0  0  0  0  0  0  0  0  0  0
  182.5410  173.2450  136.0040 C   0  0  0  0  0  0  0  0  0  0  0  0
  181.2740  173.9280  135.6270 C   0  0  0  0  0  2  0  0  0  0  0  0
  180.5370  174.3720  136.8720 C   0  0  0  0  0  1  0  0  0  0  0  0
  191.9240  175.8210  137.8530 C   0  0  0  0  0  0  0  0  0  0  0  0
  192.7420  176.1720  136.9570 O   0  0  0  0  0  0  0  0  0  0  0  0
  191.5300  174.4830  137.9570 O   0  0  0  0  0  0  0  0  0  0  0  0
  190.2580  173.5460  136.1330 C   0  0  0  0  0  1  0  0  0  0  0  0
  191.5900  173.5820  136.8570 C   0  0  0  0  0  2  0  0  0  0  0  0
  2  9  1  0  0  0  0
  3 18  1  0  0  0  0
  3 19  2  0  0  0  0
  4 15  2  0  0  0  0
  5 22  2  0  0  0  0
  5 24  1  0  0  0  0
  6 12  1  0  0  0  0
  7  6  2  0  0  0  0
  8  1  1  0  0  0  0
  8  6  1  0  0  0  0
 10  9  1  1  0  0  0
 10 21  1  0  0  0  0
 10 12  1  0  0  0  0
 12 17  1  1  0  0  0
 13 11  1  0  0  0  0
 15 11  2  0  0  0  0
 16 14  1  6  0  0  0
 16 18  1  0  0  0  0
 16  5  1  0  0  0  0
 17 13  1  0  0  0  0
 18  2  1  6  0  0  0
 19 21  2  0  0  0  0
 20  1  2  0  0  0  0
 21 20  1  0  0  0  0
 22 27  1  0  0  0  0
 23  8  1  0  0  0  0
 24  4  1  0  0  0  0
 26 27  2  0  0  0  0
 27 25  1  0  0  0  0
 28 29  2  0  0  0  0
 28  3  1  0  0  0  0
 30 29  1  0  0  0  0
 31 32  1  0  0  0  0
 31 30  1  0  0  0  0
 32 33  2  0  0  0  0
 34 32  1  0  0  0  0
 34 36  1  0  0  0  0
 36 35  2  0  0  0  0
 37 36  1  0  0  0  0
 37 38  1  0  0  0  0
 39 41  1  0  0  0  0
 39 22  1  0  0  0  0
 40 39  2  0  0  0  0
 42 43  1  0  0  0  0
 43 41  1  0  0  0  0
M  END
>  <MODEL>
6

>  <REMARK>
 VINA RESULT:      -5.2      4.071      9.452
  Name = 
  10 active torsions:
  status: ('A' for Active; 'I' for Inactive)
    1  A    between atoms: C_1  and  C_6
    2  A    between atoms: C_5  and  C_15
    3  A    between atoms: N_10  and  C_24
    4  A    between atoms: C_13  and  O_40
    5  A    between atoms: C_14  and  C_15
    6  A    between atoms: C_14  and  C_24
    7  A    between atoms: C_19  and  C_34
    8  A    between atoms: C_23  and  C_38
    9  A    between atoms: C_23  and  O_40
   10  A    between atoms: C_27  and  C_38
                            x       y       z     vdW  Elec       q    Type
                         _______ _______ _______ _____ _____    ______ ____

>  <TORSDO>
F 10

$$$$
=
 OpenBabel10222415203D

 43 45  0  0  1  0  0  0  0  0999 V2000
  180.3630  178.1090  135.9550 C   0  0  0  0  0  3  0  0  0  0  0  0
  184.4820  180.2020  139.0970 C   0  0  0  0  0  2  0  0  0  0  0  0
  184.5000  177.6830  138.5980 C   0  0  0  0  0  0  0  0  0  0  0  0
  183.0910  177.8650  142.1640 C   0  0  0  0  0  3  0  0  0  0  0  0
  185.4450  178.5720  142.0520 C   0  0  0  0  0  0  0  0  0  0  0  0
  179.9230  180.4580  136.8940 C   0  0  0  0  0  0  0  0  0  0  0  0
  179.3750  181.5780  136.7080 O   0  0  0  0  0  0  0  0  0  0  0  0
  179.8080  179.4330  135.8880 N   0  0  0  0  0  0  0  0  0  0  0  0
  182.9650  180.4680  139.1020 C   0  0  0  0  0  2  0  0  0  0  0  0
  182.1300  179.9360  137.8960 C   0  0  2  0  0  3  0  0  0  0  0  0
  180.6850  178.2670  141.2350 C   0  0  0  0  0  3  0  0  0  0  0  0
  180.6660  180.2600  138.1690 C   0  0  2  0  0  3  0  0  0  0  0  0
  180.3540  179.5450  140.5480 C   0  0  0  0  0  2  0  0  0  0  0  0
  186.9100  179.5450  140.4200 O   0  0  0  0  0  1  0  0  0  0  0  0
  181.8860  178.0710  141.7080 C   0  0  0  0  0  0  0  0  0  0  0  0
  185.9120  178.5860  140.6080 C   0  0  2  0  0  3  0  0  0  0  0  0
  179.9540  179.2810  139.1060 C   0  0  0  0  0  2  0  0  0  0  0  0
  184.7750  178.7730  139.6000 C   0  0  1  0  0  3  0  0  0  0  0  0
  183.3880  177.8970  137.9780 C   0  0  0  0  0  0  0  0  0  0  0  0
  181.4290  177.6990  136.6500 C   0  0  0  0  0  3  0  0  0  0  0  0
  182.3250  178.4740  137.5220 C   0  0  0  0  0  0  0  0  0  0  0  0
  186.2690  178.1340  143.0450 C   0  0  0  0  0  0  0  0  0  0  0  0
  178.9310  179.6780  134.7550 C   0  0  0  0  0  1  0  0  0  0  0  0
  184.0320  179.0090  142.3480 C   0  0  0  0  0  2  0  0  0  0  0  0
  185.2320  179.3310  144.9690 O   0  0  0  0  0  0  0  0  0  0  0  0
  186.1520  177.2690  145.2800 O   0  0  0  0  0  1  0  0  0  0  0  0
  185.8960  178.2090  144.4830 C   0  0  0  0  0  0  0  0  0  0  0  0
  185.5130  176.8070  137.9920 C   0  0  0  0  0  3  0  0  0  0  0  0
  185.3990  176.3120  136.7680 C   0  0  0  0  0  3  0  0  0  0  0  0
  186.4420  175.4070  136.2190 C   0  0  0  0  0  2  0  0  0  0  0  0
  187.5770  175.2990  137.2170 C   0  0  0  0  0  2  0  0  0  0  0  0
  188.8000  175.9550  136.6780 C   0  0  0  0  0  0  0  0  0  0  0  0
  188.6650  177.4360  135.9790 S   0  0  0  0  0  0  0  0  0  0  0  0
  190.0430  175.2380  136.7330 N   0  0  0  0  0  2  0  0  0  0  0  0
  190.7470  175.7600  138.9130 O   0  0  0  0  0  0  0  0  0  0  0  0
  190.9970  175.2210  137.8030 C   0  0  0  0  0  0  0  0  0  0  0  0
  192.2910  174.5110  137.6110 C   0  0  0  0  0  2  0  0  0  0  0  0
  193.3410  175.4790  137.1090 C   0  0  0  0  0  1  0  0  0  0  0  0
  187.5940  177.5390  142.7380 C   0  0  0  0  0  0  0  0  0  0  0  0
  187.7530  176.2860  142.7570 O   0  0  0  0  0  0  0  0  0  0  0  0
  188.6800  178.3780  142.4630 O   0  0  0  0  0  0  0  0  0  0  0  0
  190.6200  178.9410  143.7830 C   0  0  0  0  0  1  0  0  0  0  0  0
  190.0230  178.0070  142.7480 C   0  0  0  0  0  2  0  0  0  0  0  0
  1 20  2  0  0  0  0
  2  9  1  0  0  0  0
  3 18  1  0  0  0  0
  4 24  1  0  0  0  0
  5 24  1  0  0  0  0
  5 22  2  0  0  0  0
  6 12  1  0  0  0  0
  7  6  2  0  0  0  0
  8  1  1  0  0  0  0
  8  6  1  0  0  0  0
 10 12  1  0  0  0  0
 10  9  1  1  0  0  0
 11 15  2  0  0  0  0
 12 17  1  6  0  0  0
 13 11  1  0  0  0  0
 15  4  2  0  0  0  0
 16 14  1  1  0  0  0
 16  5  1  0  0  0  0
 17 13  1  0  0  0  0
 18  2  1  6  0  0  0
 18 16  1  0  0  0  0
 19  3  2  0  0  0  0
 20 21  1  0  0  0  0
 21 10  1  0  0  0  0
 21 19  2  0  0  0  0
 22 27  1  0  0  0  0
 23  8  1  0  0  0  0
 27 25  2  0  0  0  0
 27 26  1  0  0  0  0
 28  3  1  0  0  0  0
 29 28  2  0  0  0  0
 30 29  1  0  0  0  0
 30 31  1  0  0  0  0
 32 34  1  0  0  0  0
 32 31  1  0  0  0  0
 33 32  2  0  0  0  0
 34 36  1  0  0  0  0
 36 35  2  0  0  0  0
 37 36  1  0  0  0  0
 38 37  1  0  0  0  0
 39 40  2  0  0  0  0
 39 22  1  0  0  0  0
 41 39  1  0  0  0  0
 41 43  1  0  0  0  0
 43 42  1  0  0  0  0
M  END
>  <MODEL>
7

>  <REMARK>
 VINA RESULT:      -4.8      3.853      9.000
  Name = 
  10 active torsions:
  status: ('A' for Active; 'I' for Inactive)
    1  A    between atoms: C_1  and  C_6
    2  A    between atoms: C_5  and  C_15
    3  A    between atoms: N_10  and  C_24
    4  A    between atoms: C_13  and  O_40
    5  A    between atoms: C_14  and  C_15
    6  A    between atoms: C_14  and  C_24
    7  A    between atoms: C_19  and  C_34
    8  A    between atoms: C_23  and  C_38
    9  A    between atoms: C_23  and  O_40
   10  A    between atoms: C_27  and  C_38
                            x       y       z     vdW  Elec       q    Type
                         _______ _______ _______ _____ _____    ______ ____

>  <TORSDO>
F 10

$$$$
=
 OpenBabel10222415203D

 43 45  0  0  1  0  0  0  0  0999 V2000
  187.3220  177.1370  147.7280 C   0  0  0  0  0  3  0  0  0  0  0  0
  189.4000  179.4080  143.0640 C   0  0  0  0  0  2  0  0  0  0  0  0
  187.4480  177.7550  142.8400 C   0  0  0  0  0  0  0  0  0  0  0  0
  190.5110  175.6290  141.9310 C   0  0  0  0  0  3  0  0  0  0  0  0
  190.0700  177.3910  140.2710 C   0  0  0  0  0  0  0  0  0  0  0  0
  189.6160  178.2590  147.9980 C   0  0  0  0  0  0  0  0  0  0  0  0
  190.3880  178.8990  148.7600 O   0  0  0  0  0  0  0  0  0  0  0  0
  188.3080  177.8740  148.4670 N   0  0  0  0  0  0  0  0  0  0  0  0
  190.0960  178.8390  144.3150 C   0  0  0  0  0  2  0  0  0  0  0  0
  189.2140  178.5460  145.5680 C   0  0  2  0  0  3  0  0  0  0  0  0
  190.9550  175.1200  144.4510 C   0  0  0  0  0  3  0  0  0  0  0  0
  190.1130  177.9310  146.6340 C   0  0  2  0  0  3  0  0  0  0  0  0
  191.4090  176.2050  145.3630 C   0  0  0  0  0  2  0  0  0  0  0  0
  189.0570  179.5670  140.2480 O   0  0  0  0  0  1  0  0  0  0  0  0
  190.7420  175.3730  143.1890 C   0  0  0  0  0  0  0  0  0  0  0  0
  188.9210  178.2660  140.7400 C   0  0  2  0  0  3  0  0  0  0  0  0
  190.3830  176.4340  146.4620 C   0  0  0  0  0  2  0  0  0  0  0  0
  188.7380  178.2710  142.2590 C   0  0  1  0  0  3  0  0  0  0  0  0
  187.5390  177.6240  144.1210 C   0  0  0  0  0  0  0  0  0  0  0  0
  187.1720  177.0670  146.4010 C   0  0  0  0  0  3  0  0  0  0  0  0
  187.9580  177.7170  145.3410 C   0  0  0  0  0  0  0  0  0  0  0  0
  190.1930  177.0480  138.9590 C   0  0  0  0  0  0  0  0  0  0  0  0
  187.9850  178.1070  149.8650 C   0  0  0  0  0  1  0  0  0  0  0  0
  191.0400  176.8770  141.3050 C   0  0  0  0  0  2  0  0  0  0  0  0
  191.2910  174.9070  138.3110 O   0  0  0  0  0  1  0  0  0  0  0  0
  192.4220  176.8740  138.0870 O   0  0  0  0  0  0  0  0  0  0  0  0
  191.3620  176.2900  138.4370 C   0  0  0  0  0  0  0  0  0  0  0  0
  186.1220  177.8760  142.2150 C   0  0  0  0  0  3  0  0  0  0  0  0
  185.1200  178.5420  142.7710 C   0  0  0  0  0  3  0  0  0  0  0  0
  183.7930  178.6050  142.1060 C   0  0  0  0  0  2  0  0  0  0  0  0
  182.7450  178.9860  143.1330 C   0  0  0  0  0  2  0  0  0  0  0  0
  181.3900  178.9650  142.5160 C   0  0  0  0  0  0  0  0  0  0  0  0
  180.0810  178.7390  143.4830 S   0  0  0  0  0  0  0  0  0  0  0  0
  181.2850  179.0790  141.0880 N   0  0  0  0  0  2  0  0  0  0  0  0
  179.9330  180.9930  140.9070 O   0  0  0  0  0  0  0  0  0  0  0  0
  180.5150  180.0290  140.3410 C   0  0  0  0  0  0  0  0  0  0  0  0
  180.4390  179.8990  138.8600 C   0  0  0  0  0  2  0  0  0  0  0  0
  181.7880  179.4920  138.3080 C   0  0  0  0  0  1  0  0  0  0  0  0
  189.1450  177.4060  137.9690 C   0  0  0  0  0  0  0  0  0  0  0  0
  189.3840  178.2540  137.0640 O   0  0  0  0  0  0  0  0  0  0  0  0
  187.8760  176.8260  138.0680 O   0  0  0  0  0  0  0  0  0  0  0  0
  185.9720  178.2530  138.4720 C   0  0  0  0  0  1  0  0  0  0  0  0
  186.7230  177.4030  137.4660 C   0  0  0  0  0  2  0  0  0  0  0  0
  1  8  1  0  0  0  0
  2  9  1  0  0  0  0
  3 19  2  0  0  0  0
  4 15  2  0  0  0  0
  5 16  1  0  0  0  0
  5 24  1  0  0  0  0
  6  8  1  0  0  0  0
  6  7  2  0  0  0  0
  8 23  1  0  0  0  0
 10  9  1  6  0  0  0
 10 12  1  0  0  0  0
 11 13  1  0  0  0  0
 12 17  1  6  0  0  0
 12  6  1  0  0  0  0
 13 17  1  0  0  0  0
 15 11  2  0  0  0  0
 16 14  1  1  0  0  0
 16 18  1  0  0  0  0
 18  3  1  0  0  0  0
 18  2  1  6  0  0  0
 19 21  2  0  0  0  0
 20  1  2  0  0  0  0
 21 10  1  0  0  0  0
 21 20  1  0  0  0  0
 22  5  2  0  0  0  0
 24  4  1  0  0  0  0
 25 27  1  0  0  0  0
 26 27  2  0  0  0  0
 27 22  1  0  0  0  0
 28 29  2  0  0  0  0
 28  3  1  0  0  0  0
 30 29  1  0  0  0  0
 30 31  1  0  0  0  0
 32 31  1  0  0  0  0
 32 33  2  0  0  0  0
 34 32  1  0  0  0  0
 36 35  2  0  0  0  0
 36 34  1  0  0  0  0
 37 36  1  0  0  0  0
 38 37  1  0  0  0  0
 39 41  1  0  0  0  0
 39 22  1  0  0  0  0
 40 39  2  0  0  0  0
 43 41  1  0  0  0  0
 43 42  1  0  0  0  0
M  END
>  <MODEL>
8

>  <REMARK>
 VINA RESULT:      -4.7      3.547      8.942
  Name = 
  10 active torsions:
  status: ('A' for Active; 'I' for Inactive)
    1  A    between atoms: C_1  and  C_6
    2  A    between atoms: C_5  and  C_15
    3  A    between atoms: N_10  and  C_24
    4  A    between atoms: C_13  and  O_40
    5  A    between atoms: C_14  and  C_15
    6  A    between atoms: C_14  and  C_24
    7  A    between atoms: C_19  and  C_34
    8  A    between atoms: C_23  and  C_38
    9  A    between atoms: C_23  and  O_40
   10  A    between atoms: C_27  and  C_38
                            x       y       z     vdW  Elec       q    Type
                         _______ _______ _______ _____ _____    ______ ____

>  <TORSDO>
F 10

$$$$
=
 OpenBabel10222415203D

 43 45  0  0  1  0  0  0  0  0999 V2000
  187.2710  177.1530  147.7220 C   0  0  0  0  0  3  0  0  0  0  0  0
  189.3840  179.3920  143.0590 C   0  0  0  0  0  2  0  0  0  0  0  0
  187.4230  177.7510  142.8330 C   0  0  0  0  0  0  0  0  0  0  0  0
  190.4760  175.6020  141.9460 C   0  0  0  0  0  3  0  0  0  0  0  0
  190.0550  177.3600  140.2770 C   0  0  0  0  0  0  0  0  0  0  0  0
  189.5700  178.2620  147.9980 C   0  0  0  0  0  0  0  0  0  0  0  0
  190.3440  178.9000  148.7620 O   0  0  0  0  0  0  0  0  0  0  0  0
  188.2590  177.8870  148.4630 N   0  0  0  0  0  0  0  0  0  0  0  0
  190.0720  178.8240  144.3150 C   0  0  0  0  0  2  0  0  0  0  0  0
  189.1820  178.5420  145.5660 C   0  0  2  0  0  3  0  0  0  0  0  0
  190.9060  175.1000  144.4700 C   0  0  0  0  0  3  0  0  0  0  0  0
  190.0720  177.9250  146.6380 C   0  0  2  0  0  3  0  0  0  0  0  0
  191.3620  176.1860  145.3800 C   0  0  0  0  0  2  0  0  0  0  0  0
  189.0560  179.5420  140.2410 O   0  0  0  0  0  1  0  0  0  0  0  0
  190.7010  175.3500  143.2060 C   0  0  0  0  0  0  0  0  0  0  0  0
  188.9090  178.2440  140.7370 C   0  0  2  0  0  3  0  0  0  0  0  0
  190.3330  176.4250  146.4730 C   0  0  0  0  0  2  0  0  0  0  0  0
  188.7190  178.2560  142.2550 C   0  0  1  0  0  3  0  0  0  0  0  0
  187.5070  177.6240  144.1150 C   0  0  0  0  0  0  0  0  0  0  0  0
  187.1270  177.0780  146.3940 C   0  0  0  0  0  3  0  0  0  0  0  0
  187.9210  177.7190  145.3360 C   0  0  0  0  0  0  0  0  0  0  0  0
  190.1810  177.0110  138.9670 C   0  0  0  0  0  0  0  0  0  0  0  0
  187.9310  178.1270  149.8590 C   0  0  0  0  0  1  0  0  0  0  0  0
  191.0160  176.8440  141.3180 C   0  0  0  0  0  2  0  0  0  0  0  0
  192.5260  176.9100  138.1300 O   0  0  0  0  0  0  0  0  0  0  0  0
  191.3060  174.9930  138.3180 O   0  0  0  0  0  1  0  0  0  0  0  0
  191.3480  176.2440  138.4530 C   0  0  0  0  0  0  0  0  0  0  0  0
  186.1010  177.8780  142.2010 C   0  0  0  0  0  3  0  0  0  0  0  0
  185.0960  178.5390  142.7570 C   0  0  0  0  0  3  0  0  0  0  0  0
  183.7730  178.6080  142.0850 C   0  0  0  0  0  2  0  0  0  0  0  0
  183.8150  177.7660  140.8260 C   0  0  0  0  0  2  0  0  0  0  0  0
  182.6690  178.1090  139.9400 C   0  0  0  0  0  0  0  0  0  0  0  0
  182.7050  179.5250  139.1070 S   0  0  0  0  0  0  0  0  0  0  0  0
  181.5450  177.2160  139.8960 N   0  0  0  0  0  2  0  0  0  0  0  0
  180.1450  178.2040  141.5050 O   0  0  0  0  0  0  0  0  0  0  0  0
  180.3690  177.2480  140.7150 C   0  0  0  0  0  0  0  0  0  0  0  0
  179.3710  176.1500  140.5960 C   0  0  0  0  0  2  0  0  0  0  0  0
  180.0310  174.9120  140.0280 C   0  0  0  0  0  1  0  0  0  0  0  0
  189.1410  177.3720  137.9710 C   0  0  0  0  0  0  0  0  0  0  0  0
  189.3210  178.3400  137.1800 O   0  0  0  0  0  0  0  0  0  0  0  0
  187.9390  176.6560  137.9380 O   0  0  0  0  0  0  0  0  0  0  0  0
  186.1350  178.2520  138.0820 C   0  0  0  0  0  1  0  0  0  0  0  0
  186.7780  177.1410  137.2750 C   0  0  0  0  0  2  0  0  0  0  0  0
  1  8  1  0  0  0  0
  2  9  1  0  0  0  0
  3 19  2  0  0  0  0
  4 15  2  0  0  0  0
  5 16  1  0  0  0  0
  5 24  1  0  0  0  0
  6  8  1  0  0  0  0
  6  7  2  0  0  0  0
  8 23  1  0  0  0  0
 10  9  1  6  0  0  0
 10 12  1  0  0  0  0
 11 13  1  0  0  0  0
 12 17  1  6  0  0  0
 12  6  1  0  0  0  0
 13 17  1  0  0  0  0
 15 11  2  0  0  0  0
 16 14  1  1  0  0  0
 16 18  1  0  0  0  0
 18  3  1  0  0  0  0
 18  2  1  6  0  0  0
 19 21  2  0  0  0  0
 20  1  2  0  0  0  0
 21 10  1  0  0  0  0
 21 20  1  0  0  0  0
 22  5  2  0  0  0  0
 24  4  1  0  0  0  0
 25 27  2  0  0  0  0
 26 27  1  0  0  0  0
 27 22  1  0  0  0  0
 28 29  2  0  0  0  0
 28  3  1  0  0  0  0
 30 29  1  0  0  0  0
 31 30  1  0  0  0  0
 32 31  1  0  0  0  0
 33 32  2  0  0  0  0
 34 32  1  0  0  0  0
 34 36  1  0  0  0  0
 36 35  2  0  0  0  0
 37 36  1  0  0  0  0
 38 37  1  0  0  0  0
 39 22  1  0  0  0  0
 40 39  2  0  0  0  0
 41 39  1  0  0  0  0
 43 41  1  0  0  0  0
 43 42  1  0  0  0  0
M  END
>  <MODEL>
9

>  <REMARK>
 VINA RESULT:      -4.5      3.468      8.892
  Name = 
  10 active torsions:
  status: ('A' for Active; 'I' for Inactive)
    1  A    between atoms: C_1  and  C_6
    2  A    between atoms: C_5  and  C_15
    3  A    between atoms: N_10  and  C_24
    4  A    between atoms: C_13  and  O_40
    5  A    between atoms: C_14  and  C_15
    6  A    between atoms: C_14  and  C_24
    7  A    between atoms: C_19  and  C_34
    8  A    between atoms: C_23  and  C_38
    9  A    between atoms: C_23  and  O_40
   10  A    between atoms: C_27  and  C_38
                            x       y       z     vdW  Elec       q    Type
                         _______ _______ _______ _____ _____    ______ ____

>  <TORSDO>
F 10

$$$$
