=
 OpenBabel10222415113D

 69 76  0  0  1  0  0  0  0  0999 V2000
  180.5700  177.1130  138.2550 N   0  0  0  0  0  0  0  0  0  0  0  0
  184.7350  176.7280  137.8730 N   0  0  0  0  0  0  0  0  0  0  0  0
  183.3180  177.6190  139.5060 N   0  0  0  0  0  0  0  0  0  0  0  0
  182.5760  175.7170  137.9780 C   0  0  0  0  0  0  0  0  0  0  0  0
  180.2980  174.8450  137.5200 C   0  0  0  0  0  2  0  0  0  0  0  0
  185.1320  175.8050  136.8450 C   0  0  0  0  0  0  0  0  0  0  0  0
  178.9340  175.5210  137.5760 C   0  0  0  0  0  2  0  0  0  0  0  0
  187.1250  173.6610  135.9620 N   0  0  0  0  0  0  0  0  0  0  0  0
  185.9390  173.2880  135.2930 N   0  0  0  0  0  0  0  0  0  0  0  0
  179.1810  176.9960  137.8540 C   0  0  0  0  0  2  0  0  0  0  0  0
  183.1640  174.4410  137.4260 C   0  0  0  0  0  2  0  0  0  0  0  0
  183.6330  173.1580  134.7110 C   0  0  0  0  0  1  0  0  0  0  0  0
  181.2430  175.8810  138.0090 C   0  0  0  0  0  0  0  0  0  0  0  0
  182.2240  179.1790  140.9010 N   0  0  0  0  0  2  0  0  0  0  0  0
  187.3690  175.0070  136.3870 C   0  0  0  0  0  0  0  0  0  0  0  0
  183.5490  176.7460  138.4020 C   0  0  0  0  0  0  0  0  0  0  0  0
  181.0680  178.2990  138.8860 C   0  0  0  0  0  0  0  0  0  0  0  0
  183.1290  180.0670  142.8480 O   0  0  0  0  0  0  0  0  0  0  0  0
  186.3760  176.0680  136.0610 C   0  0  2  0  0  3  0  0  0  0  0  0
  184.3920  174.7070  136.5960 C   0  0  0  0  0  0  0  0  0  0  0  0
  180.4220  179.3750  138.7570 O   0  0  0  0  0  0  0  0  0  0  0  0
  183.0570  179.0840  142.0630 C   0  0  0  0  0  0  0  0  0  0  0  0
  184.7380  173.7340  135.5230 C   0  0  0  0  0  0  0  0  0  0  0  0
  188.3860  175.2740  137.0840 O   0  0  0  0  0  0  0  0  0  0  0  0
  182.2380  178.2830  139.7830 C   0  0  0  0  0  0  0  0  0  0  0  0
  186.9010  177.4650  136.2310 C   0  0  0  0  0  3  0  0  0  0  0  0
  187.6840  178.0140  135.3050 C   0  0  0  0  0  2  0  0  0  0  0  0
  188.2480  172.7360  135.9370 C   0  0  0  0  0  2  0  0  0  0  0  0
  189.0530  172.9090  134.6630 C   0  0  0  0  0  2  0  0  0  0  0  0
  190.1790  171.9060  134.6430 C   0  0  0  0  0  2  0  0  0  0  0  0
  191.5160  172.6320  134.6550 C   0  0  0  0  0  2  0  0  0  0  0  0
  191.7570  173.2470  136.0180 C   0  0  0  0  0  2  0  0  0  0  0  0
  193.0680  172.7440  136.5970 C   0  0  0  0  0  2  0  0  0  0  0  0
  193.8490  173.8260  137.0120 O   0  0  0  0  0  0  0  0  0  0  0  0
  195.2120  173.1440  137.7660 P   0  0  0  0  0  0  0  0  0  0  0  0
  196.5800  173.4320  136.8160 O   0  0  0  0  0  0  0  0  0  0  0  0
  195.0020  171.4660  137.9130 O   0  0  0  0  0  1  0  0  0  0  0  0
  195.4190  173.7540  139.1360 O   0  0  0  0  0  1  0  0  0  0  0  0
  183.7410  177.8090  142.4260 C   0  0  0  0  0  2  0  0  0  0  0  0
  185.9640  177.3910  143.4750 C   0  0  0  0  0  3  0  0  0  0  0  0
  185.8510  178.7540  141.4760 C   0  0  0  0  0  3  0  0  0  0  0  0
  187.2310  178.9610  141.5390 C   0  0  0  0  0  3  0  0  0  0  0  0
  185.2180  177.9680  142.4440 C   0  0  0  0  0  0  0  0  0  0  0  0
  187.3460  177.5900  143.5360 C   0  0  0  0  0  3  0  0  0  0  0  0
  187.9890  178.3770  142.5660 C   0  0  0  0  0  0  0  0  0  0  0  0
  189.4000  178.6600  142.6360 N   0  0  0  0  0  2  0  0  0  0  0  0
  190.1870  178.8760  143.8500 C   0  0  2  0  0  3  0  0  0  0  0  0
  191.5000  176.8910  142.8630 C   0  0  1  0  0  0  0  0  0  0  0  0
  191.5220  178.1570  143.7300 C   0  0  1  0  0  3  0  0  0  0  0  0
  192.0620  178.1810  142.2990 C   0  0  0  0  0  2  0  0  0  0  0  0
  192.5080  175.9620  143.1070 O   0  0  0  0  0  1  0  0  0  0  0  0
  189.8080  175.2520  142.6130 O   0  0  0  0  0  1  0  0  0  0  0  0
  190.3430  176.3850  142.0870 N   0  0  0  0  0  0  0  0  0  0  0  0
  190.7090  176.1370  140.6900 C   0  0  0  0  0  2  0  0  0  0  0  0
  189.5580  177.5670  139.0320 C   0  0  0  0  0  2  0  0  0  0  0  0
  190.8110  177.4180  139.8650 C   0  0  0  0  0  3  0  0  0  0  0  0
  190.8300  177.0570  138.3950 C   0  0  0  0  0  2  0  0  0  0  0  0
  189.4430  177.2070  145.5190 C   0  0  0  0  0  3  0  0  0  0  0  0
  189.4330  178.4650  145.0870 C   0  0  0  0  0  3  0  0  0  0  0  0
  187.8250  178.0000  147.2490 C   0  0  0  0  0  1  0  0  0  0  0  0
  188.6900  176.8510  146.7550 C   0  0  2  0  0  3  0  0  0  0  0  0
  189.5270  176.3370  147.7600 O   0  0  0  0  0  0  0  0  0  0  0  0
  190.3700  177.3010  148.0900 O   0  0  0  0  0  0  0  0  0  0  0  0
  191.5590  176.9580  147.4400 C   0  0  0  0  0  2  0  0  0  0  0  0
  191.9290  175.5260  147.7770 C   0  0  0  0  0  2  0  0  0  0  0  0
  192.8130  175.5100  149.0130 C   0  0  0  0  0  2  0  0  0  0  0  0
  193.5700  176.8200  149.1210 C   0  0  0  0  0  3  0  0  0  0  0  0
  192.9860  177.6380  150.2510 C   0  0  0  0  0  2  0  0  0  0  0  0
  194.2850  176.8860  150.4550 C   0  0  0  0  0  2  0  0  0  0  0  0
  1 17  1  0  0  0  0
  2 16  2  0  0  0  0
  3 25  2  0  0  0  0
  4 13  2  0  0  0  0
  4 16  1  0  0  0  0
  5  7  1  0  0  0  0
  5 13  1  0  0  0  0
  6  2  1  0  0  0  0
  7 10  1  0  0  0  0
  8 15  1  0  0  0  0
  9 23  2  0  0  0  0
  9  8  1  0  0  0  0
 10  1  1  0  0  0  0
 11  4  1  0  0  0  0
 12 23  1  0  0  0  0
 13  1  1  0  0  0  0
 14 22  1  0  0  0  0
 15 24  2  0  0  0  0
 16  3  1  0  0  0  0
 17 25  1  0  0  0  0
 19 26  1  1  0  0  0
 19 15  1  0  0  0  0
 19  6  1  0  0  0  0
 20  6  2  0  0  0  0
 20 11  1  0  0  0  0
 21 17  2  0  0  0  0
 22 39  1  0  0  0  0
 22 18  2  0  0  0  0
 23 20  1  0  0  0  0
 25 14  1  0  0  0  0
 27 26  2  0  0  0  0
 28  8  1  0  0  0  0
 29 28  1  0  0  0  0
 30 31  1  0  0  0  0
 30 29  1  0  0  0  0
 31 32  1  0  0  0  0
 32 33  1  0  0  0  0
 33 34  1  0  0  0  0
 34 35  1  0  0  0  0
 35 37  1  0  0  0  0
 35 38  1  0  0  0  0
 36 35  2  0  0  0  0
 39 43  1  0  0  0  0
 40 44  1  0  0  0  0
 41 42  2  0  0  0  0
 41 43  1  0  0  0  0
 42 45  1  0  0  0  0
 43 40  2  0  0  0  0
 45 46  1  0  0  0  0
 45 44  2  0  0  0  0
 46 47  1  0  0  0  0
 47 59  1  1  0  0  0
 48 51  1  1  0  0  0
 48 49  1  0  0  0  0
 49 47  1  6  0  0  0
 50 48  1  0  0  0  0
 50 49  1  0  0  0  0
 53 52  1  0  0  0  0
 53 48  1  0  0  0  0
 54 53  1  0  0  0  0
 55 56  1  0  0  0  0
 56 54  1  0  0  0  0
 57 55  1  0  0  0  0
 57 56  1  0  0  0  0
 58 61  1  0  0  0  0
 59 58  2  0  0  0  0
 61 60  1  1  0  0  0
 61 62  1  0  0  0  0
 62 63  1  0  0  0  0
 64 65  1  0  0  0  0
 64 63  1  0  0  0  0
 65 66  1  0  0  0  0
 66 67  1  0  0  0  0
 67 68  1  0  0  0  0
 67 69  1  0  0  0  0
 68 69  1  0  0  0  0
M  END
>  <MODEL>
1

>  <REMARK>
 VINA RESULT:      -4.5      0.000      0.000
  Name = 
  25 active torsions:
  status: ('A' for Active; 'I' for Inactive)
    1  A    between atoms: C_2  and  C_10
    2  A    between atoms: C_2  and  C_28
    3  A    between atoms: C_5  and  C_65
    4  A    between atoms: C_6  and  N_59
    5  A    between atoms: C_7  and  C_18
    6  A    between atoms: P_9  and  O_20
    7  A    between atoms: C_10  and  C_12
    8  A    between atoms: C_18  and  N_37
    9  A    between atoms: C_18  and  C_43
   10  A    between atoms: O_20  and  C_45
   11  A    between atoms: C_21  and  C_50
   12  A    between atoms: N_22  and  C_56
   13  A    between atoms: O_23  and  O_24
   14  A    between atoms: O_23  and  C_28
   15  A    between atoms: O_24  and  C_65
   16  A    between atoms: C_25  and  C_69
   17  A    between atoms: C_31  and  C_47
   18  A    between atoms: C_31  and  C_57
   19  A    between atoms: C_34  and  C_55
   20  A    between atoms: C_34  and  C_60
   21  A    between atoms: N_37  and  C_64
   22  A    between atoms: C_45  and  C_57
   23  A    between atoms: C_47  and  C_48
   24  A    between atoms: C_48  and  C_56
   25  A    between atoms: N_59  and  C_69
                            x       y       z     vdW  Elec       q    Type
                         _______ _______ _______ _____ _____    ______ ____

>  <TORSDO>
F 25

$$$$
=
 OpenBabel10222415113D

 69 76  0  0  1  0  0  0  0  0999 V2000
  187.5090  178.6020  137.7350 N   0  0  0  0  0  0  0  0  0  0  0  0
  189.0150  174.8170  136.7100 N   0  0  0  0  0  0  0  0  0  0  0  0
  189.5470  176.4000  138.3470 N   0  0  0  0  0  0  0  0  0  0  0  0
  187.1870  176.1860  137.4040 C   0  0  0  0  0  0  0  0  0  0  0  0
  185.2710  177.7560  137.5470 C   0  0  0  0  0  2  0  0  0  0  0  0
  188.1450  174.0710  135.8430 C   0  0  0  0  0  0  0  0  0  0  0  0
  185.2230  179.2710  137.7020 C   0  0  0  0  0  2  0  0  0  0  0  0
  187.0230  171.3290  135.0860 N   0  0  0  0  0  0  0  0  0  0  0  0
  185.9790  172.2100  134.7300 N   0  0  0  0  0  0  0  0  0  0  0  0
  186.6580  179.7700  137.6190 C   0  0  0  0  0  2  0  0  0  0  0  0
  186.2350  175.0740  137.0340 C   0  0  0  0  0  2  0  0  0  0  0  0
  184.6420  174.1770  134.6060 C   0  0  0  0  0  1  0  0  0  0  0  0
  186.7150  177.4220  137.6350 C   0  0  0  0  0  0  0  0  0  0  0  0
  190.7300  178.0460  139.5590 N   0  0  0  0  0  2  0  0  0  0  0  0
  188.3860  171.7590  135.1720 C   0  0  0  0  0  0  0  0  0  0  0  0
  188.6210  175.8270  137.4250 C   0  0  0  0  0  0  0  0  0  0  0  0
  188.9110  178.7220  138.0080 C   0  0  0  0  0  0  0  0  0  0  0  0
  192.4210  177.5960  141.0860 O   0  0  0  0  0  0  0  0  0  0  0  0
  188.7340  173.1620  134.8130 C   0  0  2  0  0  3  0  0  0  0  0  0
  186.8080  174.1840  135.9630 C   0  0  0  0  0  0  0  0  0  0  0  0
  189.4850  179.8210  137.7740 O   0  0  0  0  0  0  0  0  0  0  0  0
  191.3480  177.2140  140.5480 C   0  0  0  0  0  0  0  0  0  0  0  0
  185.8590  173.4600  135.0720 C   0  0  0  0  0  0  0  0  0  0  0  0
  189.2710  170.9720  135.6070 O   0  0  0  0  0  0  0  0  0  0  0  0
  189.6800  177.6510  138.6660 C   0  0  0  0  0  0  0  0  0  0  0  0
  190.2030  173.3870  134.5940 C   0  0  0  0  0  3  0  0  0  0  0  0
  191.0800  173.1390  135.5630 C   0  0  0  0  0  2  0  0  0  0  0  0
  186.7570  169.8990  135.0550 C   0  0  0  0  0  2  0  0  0  0  0  0
  185.2640  169.6340  135.0270 C   0  0  0  0  0  2  0  0  0  0  0  0
  184.6110  170.3250  136.1970 C   0  0  0  0  0  2  0  0  0  0  0  0
  183.1080  170.0950  136.1600 C   0  0  0  0  0  2  0  0  0  0  0  0
  182.4620  171.0610  135.1890 C   0  0  0  0  0  2  0  0  0  0  0  0
  182.1910  172.3900  135.8710 C   0  0  0  0  0  2  0  0  0  0  0  0
  180.8910  172.4040  136.3860 O   0  0  0  0  0  0  0  0  0  0  0  0
  180.4720  174.0450  136.5260 P   0  0  0  0  0  0  0  0  0  0  0  0
  180.0590  174.6500  135.0040 O   0  0  0  0  0  0  0  0  0  0  0  0
  181.8000  174.9250  137.1140 O   0  0  0  0  0  1  0  0  0  0  0  0
  179.2950  174.2110  137.4650 O   0  0  0  0  0  1  0  0  0  0  0  0
  190.6860  175.9710  141.0420 C   0  0  0  0  0  2  0  0  0  0  0  0
  189.1670  175.4290  142.9420 C   0  0  0  0  0  3  0  0  0  0  0  0
  188.6960  177.3820  141.5880 C   0  0  0  0  0  3  0  0  0  0  0  0
  187.5460  177.6280  142.3430 C   0  0  0  0  0  3  0  0  0  0  0  0
  189.5060  176.2820  141.8880 C   0  0  0  0  0  0  0  0  0  0  0  0
  188.0210  175.6780  143.7030 C   0  0  0  0  0  3  0  0  0  0  0  0
  187.2030  176.7820  143.4080 C   0  0  0  0  0  0  0  0  0  0  0  0
  185.9800  177.0290  144.1270 N   0  0  0  0  0  2  0  0  0  0  0  0
  185.6480  178.2270  144.8980 C   0  0  2  0  0  3  0  0  0  0  0  0
  184.6840  179.4600  142.8520 C   0  0  1  0  0  0  0  0  0  0  0  0
  185.7060  179.4500  143.9970 C   0  0  1  0  0  3  0  0  0  0  0  0
  184.4350  180.2950  144.0920 C   0  0  0  0  0  2  0  0  0  0  0  0
  184.9970  180.2580  141.7550 O   0  0  0  0  0  1  0  0  0  0  0  0
  183.9500  177.5490  141.6580 O   0  0  0  0  0  1  0  0  0  0  0  0
  183.6230  178.4500  142.6210 N   0  0  0  0  0  0  0  0  0  0  0  0
  182.3520  179.0880  142.2670 C   0  0  0  0  0  2  0  0  0  0  0  0
  181.1440  177.8520  140.4990 C   0  0  0  0  0  2  0  0  0  0  0  0
  181.2380  178.0820  141.9900 C   0  0  0  0  0  3  0  0  0  0  0  0
  180.1500  178.7600  141.1840 C   0  0  0  0  0  2  0  0  0  0  0  0
  186.7140  177.3690  146.9600 C   0  0  0  0  0  3  0  0  0  0  0  0
  186.5300  178.3750  146.1100 C   0  0  0  0  0  3  0  0  0  0  0  0
  187.9360  179.0250  148.3740 C   0  0  0  0  0  1  0  0  0  0  0  0
  187.6040  177.5600  148.1400 C   0  0  2  0  0  3  0  0  0  0  0  0
  188.7520  176.7520  148.0780 O   0  0  0  0  0  0  0  0  0  0  0  0
  189.7890  177.5630  147.9460 O   0  0  0  0  0  0  0  0  0  0  0  0
  190.7670  176.7770  147.3310 C   0  0  0  0  0  2  0  0  0  0  0  0
  190.5310  176.7520  145.8330 C   0  0  0  0  0  2  0  0  0  0  0  0
  191.8180  177.1200  145.1120 C   0  0  0  0  0  2  0  0  0  0  0  0
  191.5560  178.2550  144.1400 C   0  0  0  0  0  3  0  0  0  0  0  0
  190.2230  178.8900  144.4670 C   0  0  0  0  0  2  0  0  0  0  0  0
  191.5080  179.5680  144.8940 C   0  0  0  0  0  2  0  0  0  0  0  0
  1 17  1  0  0  0  0
  2 16  2  0  0  0  0
  3 25  2  0  0  0  0
  4 16  1  0  0  0  0
  4 13  2  0  0  0  0
  5 13  1  0  0  0  0
  5  7  1  0  0  0  0
  6 20  2  0  0  0  0
  6  2  1  0  0  0  0
  8 15  1  0  0  0  0
  9 23  2  0  0  0  0
  9  8  1  0  0  0  0
 10  7  1  0  0  0  0
 10  1  1  0  0  0  0
 11  4  1  0  0  0  0
 12 23  1  0  0  0  0
 13  1  1  0  0  0  0
 14 22  1  0  0  0  0
 15 24  2  0  0  0  0
 16  3  1  0  0  0  0
 17 25  1  0  0  0  0
 19 26  1  1  0  0  0
 19 15  1  0  0  0  0
 19  6  1  0  0  0  0
 20 11  1  0  0  0  0
 21 17  2  0  0  0  0
 22 39  1  0  0  0  0
 22 18  2  0  0  0  0
 23 20  1  0  0  0  0
 25 14  1  0  0  0  0
 26 27  2  0  0  0  0
 28  8  1  0  0  0  0
 29 28  1  0  0  0  0
 29 30  1  0  0  0  0
 31 30  1  0  0  0  0
 32 33  1  0  0  0  0
 32 31  1  0  0  0  0
 33 34  1  0  0  0  0
 34 35  1  0  0  0  0
 35 37  1  0  0  0  0
 35 38  1  0  0  0  0
 36 35  2  0  0  0  0
 39 43  1  0  0  0  0
 40 44  1  0  0  0  0
 41 43  1  0  0  0  0
 41 42  2  0  0  0  0
 42 45  1  0  0  0  0
 43 40  2  0  0  0  0
 45 44  2  0  0  0  0
 45 46  1  0  0  0  0
 46 47  1  0  0  0  0
 47 59  1  1  0  0  0
 48 51  1  6  0  0  0
 48 49  1  0  0  0  0
 48 50  1  0  0  0  0
 49 50  1  0  0  0  0
 49 47  1  1  0  0  0
 52 53  1  0  0  0  0
 53 48  1  0  0  0  0
 54 53  1  0  0  0  0
 55 57  1  0  0  0  0
 55 56  1  0  0  0  0
 56 54  1  0  0  0  0
 57 56  1  0  0  0  0
 58 61  1  0  0  0  0
 59 58  2  0  0  0  0
 61 60  1  6  0  0  0
 62 61  1  0  0  0  0
 63 62  1  0  0  0  0
 64 63  1  0  0  0  0
 65 64  1  0  0  0  0
 66 65  1  0  0  0  0
 67 68  1  0  0  0  0
 67 69  1  0  0  0  0
 67 66  1  0  0  0  0
 68 69  1  0  0  0  0
M  END
>  <MODEL>
2

>  <REMARK>
 VINA RESULT:      -3.7      3.263      7.072
  Name = 
  25 active torsions:
  status: ('A' for Active; 'I' for Inactive)
    1  A    between atoms: C_2  and  C_10
    2  A    between atoms: C_2  and  C_28
    3  A    between atoms: C_5  and  C_65
    4  A    between atoms: C_6  and  N_59
    5  A    between atoms: C_7  and  C_18
    6  A    between atoms: P_9  and  O_20
    7  A    between atoms: C_10  and  C_12
    8  A    between atoms: C_18  and  N_37
    9  A    between atoms: C_18  and  C_43
   10  A    between atoms: O_20  and  C_45
   11  A    between atoms: C_21  and  C_50
   12  A    between atoms: N_22  and  C_56
   13  A    between atoms: O_23  and  O_24
   14  A    between atoms: O_23  and  C_28
   15  A    between atoms: O_24  and  C_65
   16  A    between atoms: C_25  and  C_69
   17  A    between atoms: C_31  and  C_47
   18  A    between atoms: C_31  and  C_57
   19  A    between atoms: C_34  and  C_55
   20  A    between atoms: C_34  and  C_60
   21  A    between atoms: N_37  and  C_64
   22  A    between atoms: C_45  and  C_57
   23  A    between atoms: C_47  and  C_48
   24  A    between atoms: C_48  and  C_56
   25  A    between atoms: N_59  and  C_69
                            x       y       z     vdW  Elec       q    Type
                         _______ _______ _______ _____ _____    ______ ____

>  <TORSDO>
F 25

$$$$
=
 OpenBabel10222415113D

 69 76  0  0  1  0  0  0  0  0999 V2000
  181.0020  177.4640  138.7380 N   0  0  0  0  0  0  0  0  0  0  0  0
  185.1240  177.0830  138.0230 N   0  0  0  0  0  0  0  0  0  0  0  0
  183.8400  177.8620  139.8150 N   0  0  0  0  0  0  0  0  0  0  0  0
  182.9670  176.0790  138.2150 C   0  0  0  0  0  0  0  0  0  0  0  0
  180.6520  175.2560  137.8650 C   0  0  0  0  0  2  0  0  0  0  0  0
  185.4340  176.2350  136.9050 C   0  0  0  0  0  0  0  0  0  0  0  0
  179.3030  175.9340  138.0690 C   0  0  0  0  0  2  0  0  0  0  0  0
  187.3330  174.1470  135.7270 N   0  0  0  0  0  0  0  0  0  0  0  0
  186.0970  173.8310  135.1230 N   0  0  0  0  0  0  0  0  0  0  0  0
  179.5860  177.3840  138.4330 C   0  0  0  0  0  2  0  0  0  0  0  0
  183.4980  174.8430  137.5310 C   0  0  0  0  0  2  0  0  0  0  0  0
  183.7540  173.7560  134.7050 C   0  0  0  0  0  1  0  0  0  0  0  0
  181.6410  176.2490  138.3550 C   0  0  0  0  0  0  0  0  0  0  0  0
  182.8680  179.3240  141.3950 N   0  0  0  0  0  2  0  0  0  0  0  0
  187.6220  175.4580  136.2270 C   0  0  0  0  0  0  0  0  0  0  0  0
  183.9800  177.0700  138.6370 C   0  0  0  0  0  0  0  0  0  0  0  0
  181.5580  178.5990  139.4140 C   0  0  0  0  0  0  0  0  0  0  0  0
  183.9240  180.0640  143.3280 O   0  0  0  0  0  0  0  0  0  0  0  0
  186.6200  176.5460  136.0520 C   0  0  2  0  0  3  0  0  0  0  0  0
  184.6650  175.1620  136.6340 C   0  0  0  0  0  0  0  0  0  0  0  0
  180.9160  179.6850  139.4100 O   0  0  0  0  0  0  0  0  0  0  0  0
  183.7840  179.1410  142.4830 C   0  0  0  0  0  0  0  0  0  0  0  0
  184.9210  174.2660  135.4720 C   0  0  0  0  0  0  0  0  0  0  0  0
  188.6900  175.6680  136.8650 O   0  0  0  0  0  0  0  0  0  0  0  0
  182.7910  178.5110  140.2180 C   0  0  0  0  0  0  0  0  0  0  0  0
  187.1720  177.9230  136.2820 C   0  0  0  0  0  3  0  0  0  0  0  0
  187.2430  178.8020  135.2850 C   0  0  0  0  0  2  0  0  0  0  0  0
  188.4410  173.2200  135.5520 C   0  0  0  0  0  2  0  0  0  0  0  0
  189.4720  173.7940  134.5990 C   0  0  0  0  0  2  0  0  0  0  0  0
  190.8490  173.3560  135.0300 C   0  0  0  0  0  2  0  0  0  0  0  0
  191.0290  171.8720  134.7480 C   0  0  0  0  0  2  0  0  0  0  0  0
  192.4990  171.5100  134.8110 C   0  0  0  0  0  2  0  0  0  0  0  0
  193.1250  172.0710  136.0750 C   0  0  0  0  0  2  0  0  0  0  0  0
  193.9640  173.1420  135.7540 O   0  0  0  0  0  0  0  0  0  0  0  0
  195.2260  173.0910  136.8920 P   0  0  0  0  0  0  0  0  0  0  0  0
  196.0730  174.5530  136.8540 O   0  0  0  0  0  1  0  0  0  0  0  0
  196.3000  171.8360  136.4980 O   0  0  0  0  0  0  0  0  0  0  0  0
  194.6730  172.8710  138.2850 O   0  0  0  0  0  1  0  0  0  0  0  0
  184.4780  177.8390  142.7030 C   0  0  0  0  0  2  0  0  0  0  0  0
  186.8450  177.1880  143.1380 C   0  0  0  0  0  3  0  0  0  0  0  0
  186.3790  178.8260  141.4150 C   0  0  0  0  0  3  0  0  0  0  0  0
  187.7490  178.9670  141.1790 C   0  0  0  0  0  3  0  0  0  0  0  0
  185.9280  177.9360  142.3940 C   0  0  0  0  0  0  0  0  0  0  0  0
  188.2150  177.3220  142.8980 C   0  0  0  0  0  3  0  0  0  0  0  0
  188.6770  178.2140  141.9150 C   0  0  0  0  0  0  0  0  0  0  0  0
  190.0830  178.4270  141.6890 N   0  0  0  0  0  2  0  0  0  0  0  0
  191.1260  178.5240  142.7090 C   0  0  2  0  0  3  0  0  0  0  0  0
  192.3800  177.0170  141.0370 C   0  0  1  0  0  0  0  0  0  0  0  0
  192.4630  178.1040  142.1180 C   0  0  1  0  0  3  0  0  0  0  0  0
  192.5760  178.4660  140.6360 C   0  0  0  0  0  2  0  0  0  0  0  0
  193.5360  176.2710  140.8260 O   0  0  0  0  0  1  0  0  0  0  0  0
  190.5730  175.5080  141.3000 O   0  0  0  0  0  1  0  0  0  0  0  0
  191.1360  176.4340  140.4800 N   0  0  0  0  0  0  0  0  0  0  0  0
  191.3760  175.8280  139.1680 C   0  0  0  0  0  2  0  0  0  0  0  0
  191.4460  176.2280  136.7280 C   0  0  0  0  0  2  0  0  0  0  0  0
  191.6800  176.8580  138.0830 C   0  0  0  0  0  3  0  0  0  0  0  0
  192.8540  176.3720  137.2580 C   0  0  0  0  0  2  0  0  0  0  0  0
  191.4200  177.9220  145.0910 C   0  0  0  0  0  3  0  0  0  0  0  0
  190.7790  177.7310  143.9420 C   0  0  0  0  0  3  0  0  0  0  0  0
  191.4590  175.6660  146.1620 C   0  0  0  0  0  1  0  0  0  0  0  0
  191.0340  177.1200  146.2880 C   0  0  2  0  0  3  0  0  0  0  0  0
  189.6720  177.2570  146.6050 O   0  0  0  0  0  0  0  0  0  0  0  0
  189.5890  178.1560  147.5710 O   0  0  0  0  0  0  0  0  0  0  0  0
  188.8200  177.5340  148.5580 C   0  0  0  0  0  2  0  0  0  0  0  0
  187.6780  176.7740  147.9110 C   0  0  0  0  0  2  0  0  0  0  0  0
  187.1260  177.5850  146.7500 C   0  0  0  0  0  2  0  0  0  0  0  0
  186.0690  178.5490  147.2540 C   0  0  0  0  0  3  0  0  0  0  0  0
  185.8290  179.6140  146.2070 C   0  0  0  0  0  2  0  0  0  0  0  0
  184.8450  178.4730  146.3660 C   0  0  0  0  0  2  0  0  0  0  0  0
  1 17  1  0  0  0  0
  2 16  2  0  0  0  0
  3 25  2  0  0  0  0
  4 13  2  0  0  0  0
  4 16  1  0  0  0  0
  5  7  1  0  0  0  0
  5 13  1  0  0  0  0
  6  2  1  0  0  0  0
  7 10  1  0  0  0  0
  8 15  1  0  0  0  0
  9 23  2  0  0  0  0
  9  8  1  0  0  0  0
 10  1  1  0  0  0  0
 11  4  1  0  0  0  0
 12 23  1  0  0  0  0
 13  1  1  0  0  0  0
 14 22  1  0  0  0  0
 15 24  2  0  0  0  0
 16  3  1  0  0  0  0
 17 25  1  0  0  0  0
 19 15  1  0  0  0  0
 19 26  1  1  0  0  0
 19  6  1  0  0  0  0
 20  6  2  0  0  0  0
 20 11  1  0  0  0  0
 21 17  2  0  0  0  0
 22 39  1  0  0  0  0
 22 18  2  0  0  0  0
 23 20  1  0  0  0  0
 25 14  1  0  0  0  0
 27 26  2  0  0  0  0
 28  8  1  0  0  0  0
 29 30  1  0  0  0  0
 29 28  1  0  0  0  0
 31 32  1  0  0  0  0
 31 30  1  0  0  0  0
 32 33  1  0  0  0  0
 34 33  1  0  0  0  0
 34 35  1  0  0  0  0
 35 38  1  0  0  0  0
 36 35  1  0  0  0  0
 37 35  2  0  0  0  0
 41 43  1  0  0  0  0
 42 41  2  0  0  0  0
 42 45  1  0  0  0  0
 43 39  1  0  0  0  0
 43 40  2  0  0  0  0
 44 40  1  0  0  0  0
 45 44  2  0  0  0  0
 46 45  1  0  0  0  0
 46 47  1  0  0  0  0
 47 59  1  1  0  0  0
 48 51  1  6  0  0  0
 48 49  1  0  0  0  0
 49 47  1  6  0  0  0
 50 48  1  0  0  0  0
 50 49  1  0  0  0  0
 53 48  1  0  0  0  0
 53 52  1  0  0  0  0
 54 53  1  0  0  0  0
 55 57  1  0  0  0  0
 55 56  1  0  0  0  0
 56 54  1  0  0  0  0
 57 56  1  0  0  0  0
 58 61  1  0  0  0  0
 59 58  2  0  0  0  0
 61 60  1  6  0  0  0
 61 62  1  0  0  0  0
 62 63  1  0  0  0  0
 63 64  1  0  0  0  0
 65 64  1  0  0  0  0
 66 67  1  0  0  0  0
 66 65  1  0  0  0  0
 68 69  1  0  0  0  0
 68 67  1  0  0  0  0
 69 67  1  0  0  0  0
M  END
>  <MODEL>
3

>  <REMARK>
 VINA RESULT:      -3.5      1.487      2.522
  Name = 
  25 active torsions:
  status: ('A' for Active; 'I' for Inactive)
    1  A    between atoms: C_2  and  C_10
    2  A    between atoms: C_2  and  C_28
    3  A    between atoms: C_5  and  C_65
    4  A    between atoms: C_6  and  N_59
    5  A    between atoms: C_7  and  C_18
    6  A    between atoms: P_9  and  O_20
    7  A    between atoms: C_10  and  C_12
    8  A    between atoms: C_18  and  N_37
    9  A    between atoms: C_18  and  C_43
   10  A    between atoms: O_20  and  C_45
   11  A    between atoms: C_21  and  C_50
   12  A    between atoms: N_22  and  C_56
   13  A    between atoms: O_23  and  O_24
   14  A    between atoms: O_23  and  C_28
   15  A    between atoms: O_24  and  C_65
   16  A    between atoms: C_25  and  C_69
   17  A    between atoms: C_31  and  C_47
   18  A    between atoms: C_31  and  C_57
   19  A    between atoms: C_34  and  C_55
   20  A    between atoms: C_34  and  C_60
   21  A    between atoms: N_37  and  C_64
   22  A    between atoms: C_45  and  C_57
   23  A    between atoms: C_47  and  C_48
   24  A    between atoms: C_48  and  C_56
   25  A    between atoms: N_59  and  C_69
                            x       y       z     vdW  Elec       q    Type
                         _______ _______ _______ _____ _____    ______ ____

>  <TORSDO>
F 25

$$$$
