=
 OpenBabel10222418313D

 65 71  0  0  1  0  0  0  0  0999 V2000
  186.3040  177.5610  135.0390 S   0  0  0  0  0  0  0  0  0  0  0  0
  189.3750  178.0720  141.8280 N   0  0  0  0  0  0  0  0  0  0  0  0
  185.1730  178.8980  139.2390 O   0  0  0  0  0  0  0  0  0  0  0  0
  187.9260  178.1990  139.8980 C   0  0  0  0  0  0  0  0  0  0  0  0
  187.0630  177.5550  144.5070 C   0  0  0  0  0  0  0  0  0  0  0  0
  187.1040  177.8020  145.8210 N   0  0  0  0  0  0  0  0  0  0  0  0
  185.3880  177.8840  140.1790 C   0  0  0  0  0  2  0  0  0  0  0  0
  187.8320  178.5420  138.4400 C   0  0  0  0  0  2  0  0  0  0  0  0
  186.7870  177.9610  140.7170 C   0  0  0  0  0  0  0  0  0  0  0  0
  184.1420  178.4740  138.4600 N   0  0  2  0  0  0  0  0  0  0  0  0
  187.1210  177.4630  137.6450 C   0  0  2  0  0  3  0  0  0  0  0  0
  187.0050  177.7660  142.0830 C   0  0  0  0  0  0  0  0  0  0  0  0
  188.4020  178.0250  146.0520 N   0  0  0  0  0  0  0  0  0  0  0  0
  187.3320  176.1850  135.6060 C   0  0  2  0  0  3  0  0  0  0  0  0
  184.6470  177.6460  137.3320 C   0  0  2  0  0  3  0  0  0  0  0  0
  189.2050  178.2580  140.4880 C   0  0  0  0  0  3  0  0  0  0  0  0
  188.1130  176.7180  136.7740 C   0  0  0  0  0  2  0  0  0  0  0  0
  185.8450  177.6100  143.3430 S   0  0  0  0  0  0  0  0  0  0  0  0
  188.2810  177.6880  143.9810 C   0  0  0  0  0  0  0  0  0  0  0  0
  188.2990  177.8140  142.6070 C   0  0  0  0  0  0  0  0  0  0  0  0
  189.1540  178.0010  144.9460 N   0  0  0  0  0  0  0  0  0  0  0  0
  186.0240  178.0820  136.7760 C   0  0  2  0  0  3  0  0  0  0  0  0
  183.4810  179.6820  137.9690 C   0  0  2  0  0  3  0  0  0  0  0  0
  182.0850  179.7310  138.4700 C   0  0  2  0  0  3  0  0  0  0  0  0
  182.3870  179.3100  137.1630 O   0  0  0  0  0  0  0  0  0  0  0  0
  181.5330  181.1420  138.4110 C   0  0  2  0  0  3  0  0  0  0  0  0
  180.5770  181.3730  139.5650 C   0  0  0  0  0  1  0  0  0  0  0  0
  180.7860  181.3230  137.0950 C   0  0  0  0  0  2  0  0  0  0  0  0
  180.8510  182.7590  136.5740 C   0  0  1  0  0  3  0  0  0  0  0  0
  180.5810  182.7990  135.2020 O   0  0  0  0  0  0  0  0  0  0  0  0
  179.4840  181.9440  135.0270 C   0  0  0  0  0  1  0  0  0  0  0  0
  179.8860  183.6590  137.3340 C   0  0  0  0  0  2  0  0  0  0  0  0
  180.6300  184.8450  137.9070 C   0  0  0  0  0  2  0  0  0  0  0  0
  181.9890  184.8580  137.3920 N   0  0  0  0  0  1  0  0  0  0  0  0
  183.5670  177.4200  136.2670 C   0  0  0  0  0  2  0  0  0  0  0  0
  183.3070  176.0560  136.1120 O   0  0  0  0  0  0  0  0  0  0  0  0
  182.3060  173.7240  135.5730 O   0  0  0  0  0  1  0  0  0  0  0  0
  182.1350  174.7170  137.7670 C   0  0  1  0  0  0  0  0  0  0  0  0
  181.4720  174.4650  136.4170 C   0  0  1  0  0  3  0  0  0  0  0  0
  183.5030  174.0910  138.0390 C   0  0  0  0  0  1  0  0  0  0  0  0
  182.0710  175.8470  136.7450 C   0  0  2  0  0  3  0  0  0  0  0  0
  181.1810  174.9080  138.9390 C   0  0  0  0  0  2  0  0  0  0  0  0
  179.9120  175.6490  138.5290 C   0  0  0  0  0  2  0  0  0  0  0  0
  180.8840  177.2110  140.0450 F   0  0  0  0  0  0  0  0  0  0  0  0
  179.8660  177.0500  139.1200 C   0  0  0  0  0  2  0  0  0  0  0  0
  188.2000  175.7740  134.5940 O   0  0  0  0  0  0  0  0  0  0  0  0
  188.1020  174.3810  134.5940 C   0  0  0  0  0  2  0  0  0  0  0  0
  188.2610  172.6140  136.1890 O   0  0  0  0  0  1  0  0  0  0  0  0
  188.8820  173.7870  135.7630 C   0  0  1  0  0  3  0  0  0  0  0  0
  190.5230  172.2250  134.9310 O   0  0  0  0  0  1  0  0  0  0  0  0
  190.3560  173.5140  135.4510 C   0  0  2  0  0  3  0  0  0  0  0  0
  192.3550  172.8510  136.6370 O   0  0  0  0  0  1  0  0  0  0  0  0
  191.2940  173.7660  136.6360 C   0  0  1  0  0  3  0  0  0  0  0  0
  191.9570  175.4580  136.5600 P   0  0  0  0  0  0  0  0  0  0  0  0
  191.5460  176.2990  137.9700 O   0  0  0  0  0  1  0  0  0  0  0  0
  193.6410  175.3970  136.4090 O   0  0  0  0  0  1  0  0  0  0  0  0
  191.3710  176.1750  135.3650 O   0  0  0  0  0  0  0  0  0  0  0  0
  188.9180  178.3850  147.3660 C   0  0  2  0  0  3  0  0  0  0  0  0
  189.8080  177.3360  147.8530 N   0  0  0  0  0  2  0  0  0  0  0  0
  191.0980  177.1000  147.2880 C   0  0  0  0  0  0  0  0  0  0  0  0
  191.5540  177.8580  146.3910 O   0  0  0  0  0  0  0  0  0  0  0  0
  192.3920  175.1230  146.6060 C   0  0  0  0  0  1  0  0  0  0  0  0
  191.9180  175.9580  147.7770 C   0  0  0  0  0  2  0  0  0  0  0  0
  187.5190  177.3370  149.1430 C   0  0  0  0  0  1  0  0  0  0  0  0
  187.7680  178.5950  148.3350 C   0  0  0  0  0  2  0  0  0  0  0  0
  1 14  1  0  0  0  0
  2 20  1  0  0  0  0
  3  7  1  0  0  0  0
  4 16  1  0  0  0  0
  4  9  2  0  0  0  0
  5  6  2  0  0  0  0
  6 13  1  0  0  0  0
  7  9  1  0  0  0  0
  8  4  1  0  0  0  0
  9 12  1  0  0  0  0
 10  3  1  1  0  0  0
 11 17  1  6  0  0  0
 11  8  1  0  0  0  0
 12 20  2  0  0  0  0
 12 18  1  0  0  0  0
 13 58  1  0  0  0  0
 14 46  1  6  0  0  0
 14 17  1  0  0  0  0
 15 35  1  6  0  0  0
 15 10  1  0  0  0  0
 16  2  2  0  0  0  0
 18  5  1  0  0  0  0
 19  5  1  0  0  0  0
 19 21  2  0  0  0  0
 20 19  1  0  0  0  0
 21 13  1  0  0  0  0
 22  1  1  6  0  0  0
 22 15  1  0  0  0  0
 22 11  1  0  0  0  0
 23 25  1  6  0  0  0
 23 10  1  0  0  0  0
 23 24  1  0  0  0  0
 24 26  1  6  0  0  0
 25 24  1  0  0  0  0
 26 27  1  1  0  0  0
 28 26  1  0  0  0  0
 29 28  1  1  0  0  0
 29 32  1  0  0  0  0
 30 29  1  0  0  0  0
 31 30  1  0  0  0  0
 32 33  1  0  0  0  0
 34 33  1  0  0  0  0
 36 35  1  0  0  0  0
 38 40  1  1  0  0  0
 38 42  1  0  0  0  0
 39 37  1  6  0  0  0
 39 41  1  0  0  0  0
 39 38  1  0  0  0  0
 41 36  1  6  0  0  0
 41 38  1  0  0  0  0
 43 42  1  0  0  0  0
 43 45  1  0  0  0  0
 45 44  1  0  0  0  0
 47 46  1  0  0  0  0
 47 49  1  0  0  0  0
 49 48  1  6  0  0  0
 51 50  1  1  0  0  0
 51 49  1  0  0  0  0
 51 53  1  0  0  0  0
 53 52  1  6  0  0  0
 54 53  1  0  0  0  0
 54 55  1  0  0  0  0
 56 54  1  0  0  0  0
 57 54  2  0  0  0  0
 58 59  1  0  0  0  0
 58 65  1  1  0  0  0
 60 63  1  0  0  0  0
 60 59  1  0  0  0  0
 61 60  2  0  0  0  0
 62 63  1  0  0  0  0
 65 64  1  0  0  0  0
M  END
>  <MODEL>
1

>  <REMARK>
 VINA RESULT:      -4.7      0.000      0.000
  Name = 
  23 active torsions:
  status: ('A' for Active; 'I' for Inactive)
    1  A    between atoms: C_1  and  C_58
    2  A    between atoms: C_4  and  C_5
    3  A    between atoms: C_4  and  C_41
    4  A    between atoms: C_5  and  C_32
    5  A    between atoms: C_8  and  O_10
    6  A    between atoms: C_8  and  C_45
    7  A    between atoms: O_10  and  C_65
    8  A    between atoms: P_11  and  C_55
    9  A    between atoms: C_13  and  C_60
   10  A    between atoms: N_15  and  C_44
   11  A    between atoms: C_17  and  N_36
   12  A    between atoms: O_19  and  C_41
   13  A    between atoms: C_22  and  O_24
   14  A    between atoms: C_22  and  C_54
   15  A    between atoms: O_24  and  C_43
   16  A    between atoms: C_27  and  C_52
   17  A    between atoms: C_29  and  C_54
   18  A    between atoms: C_29  and  C_55
   19  A    between atoms: C_37  and  C_51
   20  A    between atoms: C_37  and  C_60
   21  A    between atoms: C_41  and  C_58
   22  A    between atoms: N_42  and  C_44
   23  A    between atoms: C_44  and  C_49
                            x       y       z     vdW  Elec       q    Type
                         _______ _______ _______ _____ _____    ______ ____

>  <TORSDO>
F 23

$$$$
=
 OpenBabel10222418313D

 65 71  0  0  1  0  0  0  0  0999 V2000
  186.4160  177.5540  135.0860 S   0  0  0  0  0  0  0  0  0  0  0  0
  189.4790  178.2860  141.8580 N   0  0  0  0  0  0  0  0  0  0  0  0
  185.2250  178.8480  139.2830 O   0  0  0  0  0  0  0  0  0  0  0  0
  188.0170  178.3160  139.9340 C   0  0  0  0  0  0  0  0  0  0  0  0
  187.2130  177.6520  144.5500 C   0  0  0  0  0  0  0  0  0  0  0  0
  187.2440  177.9090  145.8630 N   0  0  0  0  0  0  0  0  0  0  0  0
  185.5030  177.8550  140.2270 C   0  0  0  0  0  2  0  0  0  0  0  0
  187.8970  178.6440  138.4740 C   0  0  0  0  0  2  0  0  0  0  0  0
  186.8970  178.0170  140.7590 C   0  0  0  0  0  0  0  0  0  0  0  0
  184.2180  178.3600  138.5110 N   0  0  2  0  0  0  0  0  0  0  0  0
  187.2480  177.5200  137.6890 C   0  0  2  0  0  3  0  0  0  0  0  0
  187.1320  177.8430  142.1250 C   0  0  0  0  0  0  0  0  0  0  0  0
  188.5280  178.2090  146.0860 N   0  0  0  0  0  0  0  0  0  0  0  0
  187.5240  176.2440  135.6570 C   0  0  2  0  0  3  0  0  0  0  0  0
  184.7650  177.5560  137.3860 C   0  0  2  0  0  3  0  0  0  0  0  0
  189.2930  178.4540  140.5180 C   0  0  0  0  0  3  0  0  0  0  0  0
  188.2780  176.8290  136.8180 C   0  0  0  0  0  2  0  0  0  0  0  0
  185.9880  177.6280  143.3910 S   0  0  0  0  0  0  0  0  0  0  0  0
  188.4180  177.8520  144.0180 C   0  0  0  0  0  0  0  0  0  0  0  0
  188.4230  177.9710  142.6430 C   0  0  0  0  0  0  0  0  0  0  0  0
  189.2760  178.2220  144.9770 N   0  0  0  0  0  0  0  0  0  0  0  0
  186.1120  178.0680  136.8210 C   0  0  2  0  0  3  0  0  0  0  0  0
  183.4850  179.5230  138.0150 C   0  0  2  0  0  3  0  0  0  0  0  0
  182.1720  179.6210  138.6990 C   0  0  2  0  0  3  0  0  0  0  0  0
  182.2920  179.0880  137.4040 O   0  0  0  0  0  0  0  0  0  0  0  0
  181.6050  181.0240  138.5980 C   0  0  2  0  0  3  0  0  0  0  0  0
  180.6180  181.2660  139.7230 C   0  0  0  0  0  1  0  0  0  0  0  0
  180.8900  181.1690  137.2600 C   0  0  0  0  0  2  0  0  0  0  0  0
  180.8540  182.6150  136.7660 C   0  0  1  0  0  3  0  0  0  0  0  0
  180.7840  182.6580  135.3690 O   0  0  0  0  0  0  0  0  0  0  0  0
  179.7110  181.8180  135.0380 C   0  0  0  0  0  1  0  0  0  0  0  0
  179.6870  183.3740  137.3810 C   0  0  0  0  0  2  0  0  0  0  0  0
  179.5690  184.7430  136.7460 C   0  0  0  0  0  2  0  0  0  0  0  0
  179.3300  185.7350  137.7800 N   0  0  0  0  0  1  0  0  0  0  0  0
  183.6970  177.2600  136.3270 C   0  0  0  0  0  2  0  0  0  0  0  0
  182.8110  176.2790  136.7820 O   0  0  0  0  0  0  0  0  0  0  0  0
  181.8290  175.1900  138.9220 O   0  0  0  0  0  1  0  0  0  0  0  0
  182.9440  173.8930  137.2180 C   0  0  1  0  0  0  0  0  0  0  0  0
  183.0500  174.6130  138.5580 C   0  0  1  0  0  3  0  0  0  0  0  0
  181.5810  173.8240  136.5310 C   0  0  0  0  0  1  0  0  0  0  0  0
  183.6300  175.2540  137.2820 C   0  0  2  0  0  3  0  0  0  0  0  0
  183.9150  172.7360  137.0180 C   0  0  0  0  0  2  0  0  0  0  0  0
  183.5160  171.8530  135.8400 C   0  0  0  0  0  2  0  0  0  0  0  0
  185.6850  170.9050  136.1240 F   0  0  0  0  0  0  0  0  0  0  0  0
  184.7320  171.2270  135.1730 C   0  0  0  0  0  2  0  0  0  0  0  0
  188.4110  175.8780  134.6430 O   0  0  0  0  0  0  0  0  0  0  0  0
  188.3420  174.4840  134.6050 C   0  0  0  0  0  2  0  0  0  0  0  0
  189.0920  172.5060  135.7080 O   0  0  0  0  0  1  0  0  0  0  0  0
  189.3500  173.8680  135.5700 C   0  0  1  0  0  3  0  0  0  0  0  0
  191.3460  172.9240  134.5960 O   0  0  0  0  0  1  0  0  0  0  0  0
  190.8110  174.0850  135.1650 C   0  0  2  0  0  3  0  0  0  0  0  0
  191.2830  174.0910  137.5350 O   0  0  0  0  0  1  0  0  0  0  0  0
  191.6940  174.6110  136.3010 C   0  0  1  0  0  3  0  0  0  0  0  0
  193.4300  174.1580  136.0050 P   0  0  0  0  0  0  0  0  0  0  0  0
  194.4310  174.9730  137.0990 O   0  0  0  0  0  1  0  0  0  0  0  0
  193.6180  172.4880  136.2030 O   0  0  0  0  0  1  0  0  0  0  0  0
  193.8180  174.5440  134.5950 O   0  0  0  0  0  0  0  0  0  0  0  0
  189.0270  178.6070  147.3960 C   0  0  2  0  0  3  0  0  0  0  0  0
  190.3060  177.9540  147.6570 N   0  0  0  0  0  2  0  0  0  0  0  0
  190.4690  176.5370  147.6040 C   0  0  0  0  0  0  0  0  0  0  0  0
  189.5180  175.7940  147.2390 O   0  0  0  0  0  0  0  0  0  0  0  0
  192.5030  175.4790  146.7140 C   0  0  0  0  0  1  0  0  0  0  0  0
  191.7800  175.9330  147.9650 C   0  0  0  0  0  2  0  0  0  0  0  0
  186.8070  179.1490  148.3910 C   0  0  0  0  0  1  0  0  0  0  0  0
  188.0170  178.2410  148.4690 C   0  0  0  0  0  2  0  0  0  0  0  0
  1 14  1  0  0  0  0
  2 20  1  0  0  0  0
  3  7  1  0  0  0  0
  4 16  1  0  0  0  0
  4  9  2  0  0  0  0
  5  6  2  0  0  0  0
  6 13  1  0  0  0  0
  7  9  1  0  0  0  0
  8  4  1  0  0  0  0
  9 12  1  0  0  0  0
 10  3  1  1  0  0  0
 11 17  1  6  0  0  0
 11  8  1  0  0  0  0
 12 20  2  0  0  0  0
 12 18  1  0  0  0  0
 13 58  1  0  0  0  0
 14 46  1  6  0  0  0
 14 17  1  0  0  0  0
 15 35  1  6  0  0  0
 15 10  1  0  0  0  0
 16  2  2  0  0  0  0
 18  5  1  0  0  0  0
 19  5  1  0  0  0  0
 19 21  2  0  0  0  0
 20 19  1  0  0  0  0
 21 13  1  0  0  0  0
 22  1  1  6  0  0  0
 22 15  1  0  0  0  0
 22 11  1  0  0  0  0
 23 25  1  6  0  0  0
 23 10  1  0  0  0  0
 23 24  1  0  0  0  0
 24 26  1  6  0  0  0
 25 24  1  0  0  0  0
 26 27  1  1  0  0  0
 28 26  1  0  0  0  0
 29 28  1  1  0  0  0
 29 32  1  0  0  0  0
 30 29  1  0  0  0  0
 31 30  1  0  0  0  0
 33 32  1  0  0  0  0
 33 34  1  0  0  0  0
 35 36  1  0  0  0  0
 38 40  1  6  0  0  0
 38 41  1  0  0  0  0
 38 39  1  0  0  0  0
 39 37  1  6  0  0  0
 41 36  1  6  0  0  0
 41 39  1  0  0  0  0
 42 38  1  0  0  0  0
 43 42  1  0  0  0  0
 45 43  1  0  0  0  0
 45 44  1  0  0  0  0
 47 46  1  0  0  0  0
 47 49  1  0  0  0  0
 49 48  1  6  0  0  0
 51 50  1  1  0  0  0
 51 49  1  0  0  0  0
 51 53  1  0  0  0  0
 53 52  1  1  0  0  0
 54 56  1  0  0  0  0
 54 53  1  0  0  0  0
 54 55  1  0  0  0  0
 57 54  2  0  0  0  0
 58 59  1  0  0  0  0
 58 65  1  1  0  0  0
 60 59  1  0  0  0  0
 60 63  1  0  0  0  0
 61 60  2  0  0  0  0
 62 63  1  0  0  0  0
 64 65  1  0  0  0  0
M  END
>  <MODEL>
2

>  <REMARK>
 VINA RESULT:      -3.6      1.613      2.155
  Name = 
  23 active torsions:
  status: ('A' for Active; 'I' for Inactive)
    1  A    between atoms: C_1  and  C_58
    2  A    between atoms: C_4  and  C_5
    3  A    between atoms: C_4  and  C_41
    4  A    between atoms: C_5  and  C_32
    5  A    between atoms: C_8  and  O_10
    6  A    between atoms: C_8  and  C_45
    7  A    between atoms: O_10  and  C_65
    8  A    between atoms: P_11  and  C_55
    9  A    between atoms: C_13  and  C_60
   10  A    between atoms: N_15  and  C_44
   11  A    between atoms: C_17  and  N_36
   12  A    between atoms: O_19  and  C_41
   13  A    between atoms: C_22  and  O_24
   14  A    between atoms: C_22  and  C_54
   15  A    between atoms: O_24  and  C_43
   16  A    between atoms: C_27  and  C_52
   17  A    between atoms: C_29  and  C_54
   18  A    between atoms: C_29  and  C_55
   19  A    between atoms: C_37  and  C_51
   20  A    between atoms: C_37  and  C_60
   21  A    between atoms: C_41  and  C_58
   22  A    between atoms: N_42  and  C_44
   23  A    between atoms: C_44  and  C_49
                            x       y       z     vdW  Elec       q    Type
                         _______ _______ _______ _____ _____    ______ ____

>  <TORSDO>
F 23

$$$$
=
 OpenBabel10222418313D

 65 71  0  0  1  0  0  0  0  0999 V2000
  187.9740  177.5780  134.9830 S   0  0  0  0  0  0  0  0  0  0  0  0
  190.3580  178.4430  142.0070 N   0  0  0  0  0  0  0  0  0  0  0  0
  186.2580  178.2470  139.1430 O   0  0  0  0  0  0  0  0  0  0  0  0
  189.0520  178.2970  139.9790 C   0  0  0  0  0  0  0  0  0  0  0  0
  188.1290  177.1150  144.4680 C   0  0  0  0  0  0  0  0  0  0  0  0
  188.0180  177.2700  145.7920 N   0  0  0  0  0  0  0  0  0  0  0  0
  186.6940  177.2690  140.0440 C   0  0  0  0  0  2  0  0  0  0  0  0
  188.9530  178.7030  138.5370 C   0  0  0  0  0  2  0  0  0  0  0  0
  187.9790  177.6950  140.6930 C   0  0  0  0  0  0  0  0  0  0  0  0
  185.4390  177.6090  138.2660 N   0  0  2  0  0  0  0  0  0  0  0  0
  188.6260  177.5270  137.6360 C   0  0  2  0  0  3  0  0  0  0  0  0
  188.1600  177.4720  142.0600 C   0  0  0  0  0  0  0  0  0  0  0  0
  189.1840  177.8290  146.1350 N   0  0  0  0  0  0  0  0  0  0  0  0
  189.3120  176.5050  135.5570 C   0  0  2  0  0  3  0  0  0  0  0  0
  186.2240  177.0360  137.1400 C   0  0  2  0  0  3  0  0  0  0  0  0
  190.2240  178.6690  140.6690 C   0  0  0  0  0  3  0  0  0  0  0  0
  189.8390  177.1510  136.8080 C   0  0  0  0  0  2  0  0  0  0  0  0
  187.0170  176.9110  143.2170 S   0  0  0  0  0  0  0  0  0  0  0  0
  189.2880  177.6180  144.0460 C   0  0  0  0  0  0  0  0  0  0  0  0
  189.3540  177.8410  142.6850 C   0  0  0  0  0  0  0  0  0  0  0  0
  189.9780  178.0930  145.0900 N   0  0  0  0  0  0  0  0  0  0  0  0
  187.4530  177.8760  136.7160 C   0  0  2  0  0  3  0  0  0  0  0  0
  184.4940  178.6170  137.7860 C   0  0  2  0  0  3  0  0  0  0  0  0
  183.2290  178.5270  138.5560 C   0  0  2  0  0  3  0  0  0  0  0  0
  183.3540  177.9680  137.2720 O   0  0  0  0  0  0  0  0  0  0  0  0
  182.4330  179.8140  138.4510 C   0  0  2  0  0  3  0  0  0  0  0  0
  183.2420  180.9700  139.0060 C   0  0  0  0  0  1  0  0  0  0  0  0
  181.1490  179.6650  139.2580 C   0  0  0  0  0  2  0  0  0  0  0  0
  181.3210  178.7560  140.4750 C   0  0  1  0  0  3  0  0  0  0  0  0
  181.3320  179.5080  141.6550 O   0  0  0  0  0  0  0  0  0  0  0  0
  182.0370  178.7210  142.5750 C   0  0  0  0  0  1  0  0  0  0  0  0
  180.2250  177.7000  140.5270 C   0  0  0  0  0  2  0  0  0  0  0  0
  179.8080  177.3200  139.1220 C   0  0  0  0  0  2  0  0  0  0  0  0
  180.1420  175.9260  138.8800 N   0  0  0  0  0  1  0  0  0  0  0  0
  185.3190  176.5940  135.9840 C   0  0  0  0  0  2  0  0  0  0  0  0
  185.6240  175.2880  135.5930 O   0  0  0  0  0  0  0  0  0  0  0  0
  185.8610  172.8170  134.8390 O   0  0  0  0  0  1  0  0  0  0  0  0
  184.2510  173.5020  136.5030 C   0  0  1  0  0  0  0  0  0  0  0  0
  184.5230  173.1730  135.0390 C   0  0  1  0  0  3  0  0  0  0  0  0
  185.3830  173.3240  137.5150 C   0  0  0  0  0  1  0  0  0  0  0  0
  184.3830  174.6390  135.4950 C   0  0  2  0  0  3  0  0  0  0  0  0
  182.8200  173.2710  136.9700 C   0  0  0  0  0  2  0  0  0  0  0  0
  181.8350  173.2490  135.8050 C   0  0  0  0  0  2  0  0  0  0  0  0
  179.5340  173.4190  135.2050 F   0  0  0  0  0  0  0  0  0  0  0  0
  180.4130  173.5300  136.2690 C   0  0  0  0  0  2  0  0  0  0  0  0
  190.3210  176.4250  134.5960 O   0  0  0  0  0  0  0  0  0  0  0  0
  190.8500  175.1420  134.7520 C   0  0  0  0  0  2  0  0  0  0  0  0
  189.6800  173.3960  135.8800 O   0  0  0  0  0  1  0  0  0  0  0  0
  190.4340  174.5480  136.0940 C   0  0  1  0  0  3  0  0  0  0  0  0
  191.3220  174.6380  138.3370 O   0  0  0  0  0  1  0  0  0  0  0  0
  191.6090  174.2370  137.0270 C   0  0  2  0  0  3  0  0  0  0  0  0
  193.3510  175.8810  137.3540 O   0  0  0  0  0  1  0  0  0  0  0  0
  192.9470  174.8110  136.5450 C   0  0  1  0  0  3  0  0  0  0  0  0
  194.2260  173.5190  136.5710 P   0  0  0  0  0  0  0  0  0  0  0  0
  194.6020  173.1160  138.1710 O   0  0  0  0  0  1  0  0  0  0  0  0
  193.6570  172.1460  135.7620 O   0  0  0  0  0  0  0  0  0  0  0  0
  195.4710  174.0280  135.8820 O   0  0  0  0  0  1  0  0  0  0  0  0
  189.4970  178.2250  147.5020 C   0  0  2  0  0  3  0  0  0  0  0  0
  190.2620  177.1710  148.1590 N   0  0  0  0  0  2  0  0  0  0  0  0
  191.4750  176.6490  147.6150 C   0  0  0  0  0  0  0  0  0  0  0  0
  191.9780  177.1490  146.5730 O   0  0  0  0  0  0  0  0  0  0  0  0
  193.4560  175.9920  148.9150 C   0  0  0  0  0  1  0  0  0  0  0  0
  192.1590  175.5160  148.2940 C   0  0  0  0  0  2  0  0  0  0  0  0
  187.8060  177.2890  149.0770 C   0  0  0  0  0  1  0  0  0  0  0  0
  188.2140  178.5030  148.2670 C   0  0  0  0  0  2  0  0  0  0  0  0
  1 14  1  0  0  0  0
  2 20  1  0  0  0  0
  3  7  1  0  0  0  0
  4 16  1  0  0  0  0
  4  9  2  0  0  0  0
  5  6  2  0  0  0  0
  6 13  1  0  0  0  0
  7  9  1  0  0  0  0
  8  4  1  0  0  0  0
  9 12  1  0  0  0  0
 10  3  1  1  0  0  0
 11 17  1  6  0  0  0
 11  8  1  0  0  0  0
 12 20  2  0  0  0  0
 12 18  1  0  0  0  0
 13 58  1  0  0  0  0
 14 46  1  6  0  0  0
 14 17  1  0  0  0  0
 15 35  1  6  0  0  0
 15 10  1  0  0  0  0
 16  2  2  0  0  0  0
 18  5  1  0  0  0  0
 19  5  1  0  0  0  0
 19 21  2  0  0  0  0
 20 19  1  0  0  0  0
 21 13  1  0  0  0  0
 22  1  1  6  0  0  0
 22 15  1  0  0  0  0
 22 11  1  0  0  0  0
 23 25  1  6  0  0  0
 23 10  1  0  0  0  0
 23 24  1  0  0  0  0
 24 26  1  6  0  0  0
 25 24  1  0  0  0  0
 26 27  1  1  0  0  0
 26 28  1  0  0  0  0
 29 28  1  6  0  0  0
 29 32  1  0  0  0  0
 29 30  1  0  0  0  0
 30 31  1  0  0  0  0
 33 32  1  0  0  0  0
 34 33  1  0  0  0  0
 36 35  1  0  0  0  0
 38 42  1  0  0  0  0
 38 40  1  1  0  0  0
 39 37  1  1  0  0  0
 39 41  1  0  0  0  0
 39 38  1  0  0  0  0
 41 36  1  1  0  0  0
 41 38  1  0  0  0  0
 43 45  1  0  0  0  0
 43 42  1  0  0  0  0
 44 45  1  0  0  0  0
 46 47  1  0  0  0  0
 47 49  1  0  0  0  0
 49 48  1  6  0  0  0
 49 51  1  0  0  0  0
 51 50  1  1  0  0  0
 53 54  1  0  0  0  0
 53 51  1  0  0  0  0
 53 52  1  1  0  0  0
 54 55  1  0  0  0  0
 56 54  2  0  0  0  0
 57 54  1  0  0  0  0
 58 59  1  0  0  0  0
 58 65  1  1  0  0  0
 60 59  1  0  0  0  0
 60 63  1  0  0  0  0
 61 60  2  0  0  0  0
 63 62  1  0  0  0  0
 65 64  1  0  0  0  0
M  END
>  <MODEL>
3

>  <REMARK>
 VINA RESULT:      -3.3      2.373      3.244
  Name = 
  23 active torsions:
  status: ('A' for Active; 'I' for Inactive)
    1  A    between atoms: C_1  and  C_58
    2  A    between atoms: C_4  and  C_5
    3  A    between atoms: C_4  and  C_41
    4  A    between atoms: C_5  and  C_32
    5  A    between atoms: C_8  and  O_10
    6  A    between atoms: C_8  and  C_45
    7  A    between atoms: O_10  and  C_65
    8  A    between atoms: P_11  and  C_55
    9  A    between atoms: C_13  and  C_60
   10  A    between atoms: N_15  and  C_44
   11  A    between atoms: C_17  and  N_36
   12  A    between atoms: O_19  and  C_41
   13  A    between atoms: C_22  and  O_24
   14  A    between atoms: C_22  and  C_54
   15  A    between atoms: O_24  and  C_43
   16  A    between atoms: C_27  and  C_52
   17  A    between atoms: C_29  and  C_54
   18  A    between atoms: C_29  and  C_55
   19  A    between atoms: C_37  and  C_51
   20  A    between atoms: C_37  and  C_60
   21  A    between atoms: C_41  and  C_58
   22  A    between atoms: N_42  and  C_44
   23  A    between atoms: C_44  and  C_49
                            x       y       z     vdW  Elec       q    Type
                         _______ _______ _______ _____ _____    ______ ____

>  <TORSDO>
F 23

$$$$
=
 OpenBabel10222418313D

 65 71  0  0  1  0  0  0  0  0999 V2000
  184.4700  178.6240  140.8220 S   0  0  0  0  0  0  0  0  0  0  0  0
  191.3220  176.2330  139.0590 N   0  0  0  0  0  0  0  0  0  0  0  0
  186.6570  176.7250  137.3140 O   0  0  0  0  0  0  0  0  0  0  0  0
  188.9630  176.7580  139.0990 C   0  0  0  0  0  0  0  0  0  0  0  0
  192.1530  176.6350  135.6040 C   0  0  0  0  0  0  0  0  0  0  0  0
  193.1150  176.1320  134.8220 N   0  0  0  0  0  0  0  0  0  0  0  0
  187.7740  177.4770  136.9330 C   0  0  0  0  0  2  0  0  0  0  0  0
  187.7010  176.7300  139.9110 C   0  0  0  0  0  2  0  0  0  0  0  0
  188.9840  177.0370  137.7040 C   0  0  0  0  0  0  0  0  0  0  0  0
  185.5720  177.4760  136.9910 N   0  0  2  0  0  0  0  0  0  0  0  0
  186.9670  178.0570  139.8680 C   0  0  2  0  0  3  0  0  0  0  0  0
  190.2090  176.9180  137.0420 C   0  0  0  0  0  0  0  0  0  0  0  0
  193.9920  175.6320  135.6980 N   0  0  0  0  0  0  0  0  0  0  0  0
  185.8750  179.6480  141.3210 C   0  0  2  0  0  3  0  0  0  0  0  0
  185.2270  178.4010  138.1040 C   0  0  2  0  0  3  0  0  0  0  0  0
  190.1480  176.3480  139.7430 C   0  0  0  0  0  3  0  0  0  0  0  0
  187.0830  178.7610  141.2060 C   0  0  0  0  0  2  0  0  0  0  0  0
  190.5340  177.0360  135.3570 S   0  0  0  0  0  0  0  0  0  0  0  0
  192.4290  176.3840  136.8840 C   0  0  0  0  0  0  0  0  0  0  0  0
  191.3550  176.5290  137.7390 C   0  0  0  0  0  0  0  0  0  0  0  0
  193.5940  175.7320  136.9720 N   0  0  0  0  0  0  0  0  0  0  0  0
  185.4930  177.8350  139.5200 C   0  0  2  0  0  3  0  0  0  0  0  0
  184.4840  176.5320  136.7390 C   0  0  2  0  0  3  0  0  0  0  0  0
  184.9230  175.1560  137.0760 C   0  0  2  0  0  3  0  0  0  0  0  0
  184.8910  175.6170  135.7480 O   0  0  0  0  0  0  0  0  0  0  0  0
  183.7340  174.2420  137.3030 C   0  0  2  0  0  3  0  0  0  0  0  0
  184.2110  172.8280  137.5710 C   0  0  0  0  0  1  0  0  0  0  0  0
  182.8620  174.2520  136.0530 C   0  0  0  0  0  2  0  0  0  0  0  0
  181.3990  174.5690  136.3590 C   0  0  1  0  0  3  0  0  0  0  0  0
  180.7400  175.0190  135.2090 O   0  0  0  0  0  0  0  0  0  0  0  0
  181.5610  176.0340  134.7000 C   0  0  0  0  0  1  0  0  0  0  0  0
  180.6870  173.3550  136.9400 C   0  0  0  0  0  2  0  0  0  0  0  0
  179.5700  173.8020  137.8590 C   0  0  0  0  0  2  0  0  0  0  0  0
  180.0310  173.7530  139.2360 N   0  0  0  0  0  1  0  0  0  0  0  0
  183.8410  179.0280  137.9140 C   0  0  0  0  0  2  0  0  0  0  0  0
  182.8480  178.1970  138.4400 O   0  0  0  0  0  0  0  0  0  0  0  0
  180.7540  176.9440  139.3200 O   0  0  0  0  0  1  0  0  0  0  0  0
  180.6360  179.1990  138.4660 C   0  0  1  0  0  0  0  0  0  0  0  0
  180.4630  177.7100  138.1870 C   0  0  1  0  0  3  0  0  0  0  0  0
  180.9940  179.6410  139.8850 C   0  0  0  0  0  1  0  0  0  0  0  0
  181.7060  178.4620  137.6680 C   0  0  2  0  0  3  0  0  0  0  0  0
  179.7800  180.1280  137.6140 C   0  0  0  0  0  2  0  0  0  0  0  0
  178.9320  181.0670  138.4660 C   0  0  0  0  0  2  0  0  0  0  0  0
  180.5380  182.6990  137.8040 F   0  0  0  0  0  0  0  0  0  0  0  0
  179.2050  182.5260  138.1330 C   0  0  0  0  0  2  0  0  0  0  0  0
  185.7210  180.0810  142.6390 O   0  0  0  0  0  0  0  0  0  0  0  0
  185.1660  178.9850  143.3040 C   0  0  0  0  0  2  0  0  0  0  0  0
  184.1970  178.7320  145.4690 O   0  0  0  0  0  1  0  0  0  0  0  0
  185.3640  179.1150  144.8110 C   0  0  1  0  0  3  0  0  0  0  0  0
  186.3650  176.9450  145.1480 O   0  0  0  0  0  1  0  0  0  0  0  0
  186.5540  178.3170  145.3520 C   0  0  2  0  0  3  0  0  0  0  0  0
  185.8230  178.2790  147.6550 O   0  0  0  0  0  1  0  0  0  0  0  0
  186.8900  178.6250  146.8150 C   0  0  1  0  0  3  0  0  0  0  0  0
  188.3780  177.7110  147.3210 P   0  0  0  0  0  0  0  0  0  0  0  0
  189.3340  177.3760  145.9660 O   0  0  0  0  0  0  0  0  0  0  0  0
  189.2650  178.6420  148.4210 O   0  0  0  0  0  1  0  0  0  0  0  0
  187.9710  176.4100  147.9760 O   0  0  0  0  0  1  0  0  0  0  0  0
  195.2030  174.9320  135.2880 C   0  0  2  0  0  3  0  0  0  0  0  0
  195.3970  173.7500  136.1220 N   0  0  0  0  0  2  0  0  0  0  0  0
  194.7470  172.5070  135.8560 C   0  0  0  0  0  0  0  0  0  0  0  0
  194.0370  172.3620  134.8240 O   0  0  0  0  0  0  0  0  0  0  0  0
  196.2290  170.6550  136.5060 C   0  0  0  0  0  1  0  0  0  0  0  0
  194.9240  171.3670  136.7960 C   0  0  0  0  0  2  0  0  0  0  0  0
  197.5280  175.1840  136.1520 C   0  0  0  0  0  1  0  0  0  0  0  0
  196.4000  175.8600  135.3980 C   0  0  0  0  0  2  0  0  0  0  0  0
  1 14  1  0  0  0  0
  2 16  1  0  0  0  0
  4 16  2  0  0  0  0
  4  8  1  0  0  0  0
  5 19  1  0  0  0  0
  6  5  2  0  0  0  0
  6 13  1  0  0  0  0
  7  3  1  0  0  0  0
  7  9  1  0  0  0  0
  9  4  1  0  0  0  0
 10  3  1  1  0  0  0
 10 15  1  0  0  0  0
 11  8  1  1  0  0  0
 11 17  1  0  0  0  0
 12  9  2  0  0  0  0
 12 20  1  0  0  0  0
 13 21  1  0  0  0  0
 14 46  1  1  0  0  0
 15 35  1  1  0  0  0
 15 22  1  0  0  0  0
 17 14  1  0  0  0  0
 18  5  1  0  0  0  0
 18 12  1  0  0  0  0
 19 21  2  0  0  0  0
 19 20  1  0  0  0  0
 20  2  2  0  0  0  0
 22 11  1  0  0  0  0
 22  1  1  1  0  0  0
 23 25  1  6  0  0  0
 23 10  1  0  0  0  0
 23 24  1  0  0  0  0
 24 26  1  6  0  0  0
 25 24  1  0  0  0  0
 26 27  1  6  0  0  0
 28 26  1  0  0  0  0
 29 28  1  6  0  0  0
 29 32  1  0  0  0  0
 30 29  1  0  0  0  0
 31 30  1  0  0  0  0
 32 33  1  0  0  0  0
 33 34  1  0  0  0  0
 35 36  1  0  0  0  0
 38 40  1  1  0  0  0
 39 38  1  0  0  0  0
 39 37  1  1  0  0  0
 41 39  1  0  0  0  0
 41 36  1  1  0  0  0
 41 38  1  0  0  0  0
 42 38  1  0  0  0  0
 42 43  1  0  0  0  0
 44 45  1  0  0  0  0
 45 43  1  0  0  0  0
 46 47  1  0  0  0  0
 47 49  1  0  0  0  0
 49 51  1  0  0  0  0
 49 48  1  1  0  0  0
 51 50  1  1  0  0  0
 51 53  1  0  0  0  0
 53 54  1  0  0  0  0
 53 52  1  1  0  0  0
 54 57  1  0  0  0  0
 54 56  1  0  0  0  0
 55 54  2  0  0  0  0
 58 65  1  1  0  0  0
 58 13  1  0  0  0  0
 58 59  1  0  0  0  0
 60 59  1  0  0  0  0
 60 63  1  0  0  0  0
 61 60  2  0  0  0  0
 62 63  1  0  0  0  0
 65 64  1  0  0  0  0
M  END
>  <MODEL>
4

>  <REMARK>
 VINA RESULT:      -2.9      3.884      8.879
  Name = 
  23 active torsions:
  status: ('A' for Active; 'I' for Inactive)
    1  A    between atoms: C_1  and  C_58
    2  A    between atoms: C_4  and  C_5
    3  A    between atoms: C_4  and  C_41
    4  A    between atoms: C_5  and  C_32
    5  A    between atoms: C_8  and  O_10
    6  A    between atoms: C_8  and  C_45
    7  A    between atoms: O_10  and  C_65
    8  A    between atoms: P_11  and  C_55
    9  A    between atoms: C_13  and  C_60
   10  A    between atoms: N_15  and  C_44
   11  A    between atoms: C_17  and  N_36
   12  A    between atoms: O_19  and  C_41
   13  A    between atoms: C_22  and  O_24
   14  A    between atoms: C_22  and  C_54
   15  A    between atoms: O_24  and  C_43
   16  A    between atoms: C_27  and  C_52
   17  A    between atoms: C_29  and  C_54
   18  A    between atoms: C_29  and  C_55
   19  A    between atoms: C_37  and  C_51
   20  A    between atoms: C_37  and  C_60
   21  A    between atoms: C_41  and  C_58
   22  A    between atoms: N_42  and  C_44
   23  A    between atoms: C_44  and  C_49
                            x       y       z     vdW  Elec       q    Type
                         _______ _______ _______ _____ _____    ______ ____

>  <TORSDO>
F 23

$$$$
=
 OpenBabel10222418313D

 65 71  0  0  1  0  0  0  0  0999 V2000
  183.6140  178.0290  135.9810 S   0  0  0  0  0  0  0  0  0  0  0  0
  188.6500  178.4220  141.4830 N   0  0  0  0  0  0  0  0  0  0  0  0
  183.8230  179.1580  140.3840 O   0  0  0  0  0  0  0  0  0  0  0  0
  186.6640  178.5570  140.1130 C   0  0  0  0  0  0  0  0  0  0  0  0
  187.3170  177.7060  144.7230 C   0  0  0  0  0  0  0  0  0  0  0  0
  187.7610  177.9060  145.9680 N   0  0  0  0  0  0  0  0  0  0  0  0
  184.3540  178.1210  141.1580 C   0  0  0  0  0  2  0  0  0  0  0  0
  186.1050  178.9500  138.7760 C   0  0  0  0  0  2  0  0  0  0  0  0
  185.8480  178.2400  141.2340 C   0  0  0  0  0  0  0  0  0  0  0  0
  182.6130  178.7190  139.9480 N   0  0  2  0  0  0  0  0  0  0  0  0
  185.2130  177.8700  138.1920 C   0  0  2  0  0  3  0  0  0  0  0  0
  186.4910  178.0030  142.4520 C   0  0  0  0  0  0  0  0  0  0  0  0
  189.0590  178.1760  145.7910 N   0  0  0  0  0  0  0  0  0  0  0  0
  184.8090  176.6790  136.1300 C   0  0  2  0  0  3  0  0  0  0  0  0
  182.7610  177.9570  138.6790 C   0  0  2  0  0  3  0  0  0  0  0  0
  188.0610  178.6500  140.2740 C   0  0  0  0  0  3  0  0  0  0  0  0
  185.9020  177.2020  137.0190 C   0  0  0  0  0  2  0  0  0  0  0  0
  185.7920  177.7500  144.0030 S   0  0  0  0  0  0  0  0  0  0  0  0
  188.3020  177.9110  143.8490 C   0  0  0  0  0  0  0  0  0  0  0  0
  187.8820  178.0890  142.5450 C   0  0  0  0  0  0  0  0  0  0  0  0
  189.4250  178.2270  144.5050 N   0  0  0  0  0  0  0  0  0  0  0  0
  183.8800  178.4720  137.7420 C   0  0  2  0  0  3  0  0  0  0  0  0
  181.7950  179.9140  139.7480 C   0  0  2  0  0  3  0  0  0  0  0  0
  181.5830  180.1420  138.2970 C   0  0  2  0  0  3  0  0  0  0  0  0
  182.5420  180.8660  139.0260 O   0  0  0  0  0  0  0  0  0  0  0  0
  180.3800  181.0340  138.0540 C   0  0  2  0  0  3  0  0  0  0  0  0
  179.4120  180.3520  137.1080 C   0  0  0  0  0  1  0  0  0  0  0  0
  180.8560  182.3410  137.4320 C   0  0  0  0  0  2  0  0  0  0  0  0
  179.8310  183.4660  137.5690 C   0  0  1  0  0  3  0  0  0  0  0  0
  179.1780  183.3910  138.8040 O   0  0  0  0  0  0  0  0  0  0  0  0
  179.1690  184.7080  139.2850 C   0  0  0  0  0  1  0  0  0  0  0  0
  180.4890  184.8280  137.3960 C   0  0  0  0  0  2  0  0  0  0  0  0
  180.7320  185.1010  135.9270 C   0  0  0  0  0  2  0  0  0  0  0  0
  179.4580  185.1780  135.2330 N   0  0  0  0  0  1  0  0  0  0  0  0
  181.4090  177.7220  137.9960 C   0  0  0  0  0  2  0  0  0  0  0  0
  181.4680  176.6080  137.1560 O   0  0  0  0  0  0  0  0  0  0  0  0
  181.2310  174.5310  135.6190 O   0  0  0  0  0  1  0  0  0  0  0  0
  180.3950  174.5540  137.8840 C   0  0  1  0  0  0  0  0  0  0  0  0
  180.0890  174.7320  136.4010 C   0  0  1  0  0  3  0  0  0  0  0  0
  181.8020  174.1180  138.2940 C   0  0  0  0  0  1  0  0  0  0  0  0
  180.2330  175.9620  137.3210 C   0  0  2  0  0  3  0  0  0  0  0  0
  179.2200  174.1100  138.7470 C   0  0  0  0  0  2  0  0  0  0  0  0
  179.0010  175.0390  139.9370 C   0  0  0  0  0  2  0  0  0  0  0  0
  179.2040  173.2340  141.4810 F   0  0  0  0  0  0  0  0  0  0  0  0
  179.6720  174.5050  141.1940 C   0  0  0  0  0  2  0  0  0  0  0  0
  185.3260  176.3440  134.8780 O   0  0  0  0  0  0  0  0  0  0  0  0
  186.2390  175.3200  135.1390 C   0  0  0  0  0  2  0  0  0  0  0  0
  187.8410  177.0480  134.7650 O   0  0  0  0  0  1  0  0  0  0  0  0
  187.6200  175.6810  134.6030 C   0  0  1  0  0  3  0  0  0  0  0  0
  188.2630  173.9270  136.1310 O   0  0  0  0  0  1  0  0  0  0  0  0
  188.7630  174.8880  135.2450 C   0  0  2  0  0  3  0  0  0  0  0  0
  189.5010  176.0130  137.2530 O   0  0  0  0  0  1  0  0  0  0  0  0
  189.8260  175.7680  135.9120 C   0  0  1  0  0  3  0  0  0  0  0  0
  191.4520  174.9600  135.8230 P   0  0  0  0  0  0  0  0  0  0  0  0
  191.9900  174.5820  137.3830 O   0  0  0  0  0  1  0  0  0  0  0  0
  191.3270  173.5400  134.9100 O   0  0  0  0  0  0  0  0  0  0  0  0
  192.4440  175.8940  135.1680 O   0  0  0  0  0  1  0  0  0  0  0  0
  189.9520  178.5100  146.8930 C   0  0  2  0  0  3  0  0  0  0  0  0
  190.7460  177.3420  147.2570 N   0  0  0  0  0  2  0  0  0  0  0  0
  191.6760  176.7350  146.3590 C   0  0  0  0  0  0  0  0  0  0  0  0
  191.9070  177.2480  145.2310 O   0  0  0  0  0  0  0  0  0  0  0  0
  192.8200  175.5970  148.2140 C   0  0  0  0  0  1  0  0  0  0  0  0
  192.3900  175.4940  146.7660 C   0  0  0  0  0  2  0  0  0  0  0  0
  188.7190  177.8220  148.9480 C   0  0  0  0  0  1  0  0  0  0  0  0
  189.1450  178.9930  148.0860 C   0  0  0  0  0  2  0  0  0  0  0  0
  1 14  1  0  0  0  0
  2 20  1  0  0  0  0
  3  7  1  0  0  0  0
  4 16  1  0  0  0  0
  4  9  2  0  0  0  0
  5  6  2  0  0  0  0
  7  9  1  0  0  0  0
  8  4  1  0  0  0  0
  9 12  1  0  0  0  0
 10  3  1  6  0  0  0
 11 17  1  6  0  0  0
 11  8  1  0  0  0  0
 12 20  2  0  0  0  0
 12 18  1  0  0  0  0
 13  6  1  0  0  0  0
 13 58  1  0  0  0  0
 14 46  1  6  0  0  0
 14 17  1  0  0  0  0
 15 35  1  6  0  0  0
 15 10  1  0  0  0  0
 16  2  2  0  0  0  0
 18  5  1  0  0  0  0
 19 21  2  0  0  0  0
 19  5  1  0  0  0  0
 20 19  1  0  0  0  0
 21 13  1  0  0  0  0
 22  1  1  6  0  0  0
 22 11  1  0  0  0  0
 22 15  1  0  0  0  0
 23 25  1  6  0  0  0
 23 10  1  0  0  0  0
 24 26  1  1  0  0  0
 24 25  1  0  0  0  0
 24 23  1  0  0  0  0
 26 27  1  6  0  0  0
 28 29  1  0  0  0  0
 28 26  1  0  0  0  0
 29 32  1  1  0  0  0
 29 30  1  0  0  0  0
 30 31  1  0  0  0  0
 33 32  1  0  0  0  0
 34 33  1  0  0  0  0
 36 35  1  0  0  0  0
 38 40  1  1  0  0  0
 38 42  1  0  0  0  0
 39 37  1  6  0  0  0
 39 41  1  0  0  0  0
 39 38  1  0  0  0  0
 41 36  1  6  0  0  0
 41 38  1  0  0  0  0
 42 43  1  0  0  0  0
 43 45  1  0  0  0  0
 45 44  1  0  0  0  0
 46 47  1  0  0  0  0
 49 48  1  1  0  0  0
 49 47  1  0  0  0  0
 49 51  1  0  0  0  0
 51 53  1  0  0  0  0
 51 50  1  1  0  0  0
 53 52  1  1  0  0  0
 54 53  1  0  0  0  0
 54 55  1  0  0  0  0
 56 54  2  0  0  0  0
 57 54  1  0  0  0  0
 58 59  1  0  0  0  0
 58 65  1  1  0  0  0
 60 63  1  0  0  0  0
 60 59  1  0  0  0  0
 61 60  2  0  0  0  0
 63 62  1  0  0  0  0
 65 64  1  0  0  0  0
M  END
>  <MODEL>
5

>  <REMARK>
 VINA RESULT:      -2.7      1.648      2.211
  Name = 
  23 active torsions:
  status: ('A' for Active; 'I' for Inactive)
    1  A    between atoms: C_1  and  C_58
    2  A    between atoms: C_4  and  C_5
    3  A    between atoms: C_4  and  C_41
    4  A    between atoms: C_5  and  C_32
    5  A    between atoms: C_8  and  O_10
    6  A    between atoms: C_8  and  C_45
    7  A    between atoms: O_10  and  C_65
    8  A    between atoms: P_11  and  C_55
    9  A    between atoms: C_13  and  C_60
   10  A    between atoms: N_15  and  C_44
   11  A    between atoms: C_17  and  N_36
   12  A    between atoms: O_19  and  C_41
   13  A    between atoms: C_22  and  O_24
   14  A    between atoms: C_22  and  C_54
   15  A    between atoms: O_24  and  C_43
   16  A    between atoms: C_27  and  C_52
   17  A    between atoms: C_29  and  C_54
   18  A    between atoms: C_29  and  C_55
   19  A    between atoms: C_37  and  C_51
   20  A    between atoms: C_37  and  C_60
   21  A    between atoms: C_41  and  C_58
   22  A    between atoms: N_42  and  C_44
   23  A    between atoms: C_44  and  C_49
                            x       y       z     vdW  Elec       q    Type
                         _______ _______ _______ _____ _____    ______ ____

>  <TORSDO>
F 23

$$$$
=
 OpenBabel10222418313D

 65 71  0  0  1  0  0  0  0  0999 V2000
  187.0830  177.7830  135.4480 S   0  0  0  0  0  0  0  0  0  0  0  0
  190.0950  178.2130  142.2680 N   0  0  0  0  0  0  0  0  0  0  0  0
  185.8270  178.7550  139.7120 O   0  0  0  0  0  0  0  0  0  0  0  0
  188.6380  178.3030  140.3420 C   0  0  0  0  0  0  0  0  0  0  0  0
  187.8530  177.3120  144.9030 C   0  0  0  0  0  0  0  0  0  0  0  0
  187.8700  177.4860  146.2290 N   0  0  0  0  0  0  0  0  0  0  0  0
  186.1460  177.7160  140.5930 C   0  0  0  0  0  2  0  0  0  0  0  0
  188.5080  178.7180  138.9050 C   0  0  0  0  0  2  0  0  0  0  0  0
  187.5300  177.9040  141.1400 C   0  0  0  0  0  0  0  0  0  0  0  0
  184.8440  178.2740  138.9060 N   0  0  2  0  0  0  0  0  0  0  0  0
  187.9090  177.6190  138.0470 C   0  0  2  0  0  3  0  0  0  0  0  0
  187.7700  177.6540  142.4940 C   0  0  0  0  0  0  0  0  0  0  0  0
  189.1390  177.8250  146.4780 N   0  0  0  0  0  0  0  0  0  0  0  0
  188.2450  176.4880  135.9390 C   0  0  2  0  0  3  0  0  0  0  0  0
  185.4280  177.5680  137.7340 C   0  0  2  0  0  3  0  0  0  0  0  0
  189.9060  178.4580  140.9400 C   0  0  0  0  0  3  0  0  0  0  0  0
  188.9710  177.0300  137.1390 C   0  0  0  0  0  2  0  0  0  0  0  0
  186.6330  177.3090  143.7380 S   0  0  0  0  0  0  0  0  0  0  0  0
  189.0490  177.5970  144.3910 C   0  0  0  0  0  0  0  0  0  0  0  0
  189.0530  177.8030  143.0250 C   0  0  0  0  0  0  0  0  0  0  0  0
  189.8880  177.9420  145.3750 N   0  0  0  0  0  0  0  0  0  0  0  0
  186.7530  178.1720  137.2100 C   0  0  2  0  0  3  0  0  0  0  0  0
  184.0630  179.4340  138.4810 C   0  0  2  0  0  3  0  0  0  0  0  0
  182.7410  179.4250  139.1550 C   0  0  2  0  0  3  0  0  0  0  0  0
  182.8960  178.9880  137.8280 O   0  0  0  0  0  0  0  0  0  0  0  0
  182.1110  180.8050  139.1430 C   0  0  2  0  0  3  0  0  0  0  0  0
  180.6230  180.6980  139.4110 C   0  0  0  0  0  1  0  0  0  0  0  0
  182.3330  181.4330  137.7710 C   0  0  0  0  0  2  0  0  0  0  0  0
  181.5780  182.7510  137.5990 C   0  0  1  0  0  3  0  0  0  0  0  0
  182.3890  183.8350  137.9550 O   0  0  0  0  0  0  0  0  0  0  0  0
  181.5670  184.9600  137.8100 C   0  0  0  0  0  1  0  0  0  0  0  0
  181.0750  182.9090  136.1710 C   0  0  0  0  0  2  0  0  0  0  0  0
  180.5810  181.5770  135.6480 C   0  0  0  0  0  2  0  0  0  0  0  0
  179.1570  181.6640  135.3750 N   0  0  0  0  0  1  0  0  0  0  0  0
  184.3760  177.2940  136.6530 C   0  0  0  0  0  2  0  0  0  0  0  0
  184.3600  175.9390  136.3140 O   0  0  0  0  0  0  0  0  0  0  0  0
  184.0190  173.5180  135.4460 O   0  0  0  0  0  1  0  0  0  0  0  0
  182.5280  174.5260  137.0540 C   0  0  1  0  0  0  0  0  0  0  0  0
  182.8040  174.1930  135.5920 C   0  0  1  0  0  3  0  0  0  0  0  0
  183.5100  174.0300  138.1150 C   0  0  0  0  0  1  0  0  0  0  0  0
  183.0050  175.6290  136.1160 C   0  0  2  0  0  3  0  0  0  0  0  0
  181.0570  174.6480  137.4310 C   0  0  0  0  0  2  0  0  0  0  0  0
  180.8050  174.2580  138.8850 C   0  0  0  0  0  2  0  0  0  0  0  0
  181.0970  176.6130  139.1110 F   0  0  0  0  0  0  0  0  0  0  0  0
  180.6520  175.4820  139.7750 C   0  0  0  0  0  2  0  0  0  0  0  0
  189.1490  176.2260  134.9090 O   0  0  0  0  0  0  0  0  0  0  0  0
  190.3970  176.2060  135.5360 C   0  0  0  0  0  2  0  0  0  0  0  0
  190.9830  174.0740  134.6420 O   0  0  0  0  0  1  0  0  0  0  0  0
  190.8260  174.7730  135.8360 C   0  0  1  0  0  3  0  0  0  0  0  0
  192.1060  175.6270  137.6960 O   0  0  0  0  0  1  0  0  0  0  0  0
  192.1040  174.6700  136.6740 C   0  0  2  0  0  3  0  0  0  0  0  0
  194.0920  175.9190  136.0980 O   0  0  0  0  0  1  0  0  0  0  0  0
  193.3910  174.7320  135.8450 C   0  0  1  0  0  3  0  0  0  0  0  0
  194.4550  173.3100  136.2340 P   0  0  0  0  0  0  0  0  0  0  0  0
  193.8360  171.9140  135.5040 O   0  0  0  0  0  0  0  0  0  0  0  0
  196.0190  173.6010  135.6590 O   0  0  0  0  0  1  0  0  0  0  0  0
  194.4980  173.1080  137.7320 O   0  0  0  0  0  1  0  0  0  0  0  0
  189.6180  178.1600  147.8130 C   0  0  2  0  0  3  0  0  0  0  0  0
  190.7490  177.3080  148.1610 N   0  0  0  0  0  2  0  0  0  0  0  0
  191.8280  177.7590  148.9800 C   0  0  0  0  0  0  0  0  0  0  0  0
  191.7960  178.9020  149.5100 O   0  0  0  0  0  0  0  0  0  0  0  0
  193.7800  177.3550  150.4210 C   0  0  0  0  0  1  0  0  0  0  0  0
  192.9910  176.8640  149.2250 C   0  0  0  0  0  2  0  0  0  0  0  0
  187.3560  178.9390  148.5140 C   0  0  0  0  0  1  0  0  0  0  0  0
  188.4970  177.9910  148.8230 C   0  0  0  0  0  2  0  0  0  0  0  0
  1 14  1  0  0  0  0
  2 20  1  0  0  0  0
  3  7  1  0  0  0  0
  4 16  1  0  0  0  0
  4  9  2  0  0  0  0
  5  6  2  0  0  0  0
  6 13  1  0  0  0  0
  7  9  1  0  0  0  0
  8  4  1  0  0  0  0
  9 12  1  0  0  0  0
 10  3  1  1  0  0  0
 11 17  1  6  0  0  0
 11  8  1  0  0  0  0
 12 20  2  0  0  0  0
 12 18  1  0  0  0  0
 13 58  1  0  0  0  0
 14 46  1  6  0  0  0
 14 17  1  0  0  0  0
 15 35  1  6  0  0  0
 15 10  1  0  0  0  0
 16  2  2  0  0  0  0
 18  5  1  0  0  0  0
 19  5  1  0  0  0  0
 19 21  2  0  0  0  0
 20 19  1  0  0  0  0
 21 13  1  0  0  0  0
 22  1  1  6  0  0  0
 22 15  1  0  0  0  0
 22 11  1  0  0  0  0
 23 25  1  6  0  0  0
 23 10  1  0  0  0  0
 23 24  1  0  0  0  0
 24 26  1  6  0  0  0
 25 24  1  0  0  0  0
 26 27  1  6  0  0  0
 28 26  1  0  0  0  0
 29 32  1  6  0  0  0
 29 28  1  0  0  0  0
 29 30  1  0  0  0  0
 31 30  1  0  0  0  0
 33 32  1  0  0  0  0
 34 33  1  0  0  0  0
 36 35  1  0  0  0  0
 38 42  1  0  0  0  0
 38 40  1  1  0  0  0
 39 37  1  1  0  0  0
 39 41  1  0  0  0  0
 39 38  1  0  0  0  0
 41 36  1  1  0  0  0
 41 38  1  0  0  0  0
 42 43  1  0  0  0  0
 43 45  1  0  0  0  0
 44 45  1  0  0  0  0
 46 47  1  0  0  0  0
 47 49  1  0  0  0  0
 49 48  1  6  0  0  0
 49 51  1  0  0  0  0
 51 50  1  1  0  0  0
 53 52  1  1  0  0  0
 53 54  1  0  0  0  0
 53 51  1  0  0  0  0
 54 57  1  0  0  0  0
 55 54  2  0  0  0  0
 56 54  1  0  0  0  0
 58 59  1  0  0  0  0
 58 65  1  1  0  0  0
 59 60  1  0  0  0  0
 60 63  1  0  0  0  0
 60 61  2  0  0  0  0
 63 62  1  0  0  0  0
 64 65  1  0  0  0  0
M  END
>  <MODEL>
6

>  <REMARK>
 VINA RESULT:      -2.6      1.586      2.202
  Name = 
  23 active torsions:
  status: ('A' for Active; 'I' for Inactive)
    1  A    between atoms: C_1  and  C_58
    2  A    between atoms: C_4  and  C_5
    3  A    between atoms: C_4  and  C_41
    4  A    between atoms: C_5  and  C_32
    5  A    between atoms: C_8  and  O_10
    6  A    between atoms: C_8  and  C_45
    7  A    between atoms: O_10  and  C_65
    8  A    between atoms: P_11  and  C_55
    9  A    between atoms: C_13  and  C_60
   10  A    between atoms: N_15  and  C_44
   11  A    between atoms: C_17  and  N_36
   12  A    between atoms: O_19  and  C_41
   13  A    between atoms: C_22  and  O_24
   14  A    between atoms: C_22  and  C_54
   15  A    between atoms: O_24  and  C_43
   16  A    between atoms: C_27  and  C_52
   17  A    between atoms: C_29  and  C_54
   18  A    between atoms: C_29  and  C_55
   19  A    between atoms: C_37  and  C_51
   20  A    between atoms: C_37  and  C_60
   21  A    between atoms: C_41  and  C_58
   22  A    between atoms: N_42  and  C_44
   23  A    between atoms: C_44  and  C_49
                            x       y       z     vdW  Elec       q    Type
                         _______ _______ _______ _____ _____    ______ ____

>  <TORSDO>
F 23

$$$$
=
 OpenBabel10222418313D

 65 71  0  0  1  0  0  0  0  0999 V2000
  185.3070  179.0460  140.3550 S   0  0  0  0  0  0  0  0  0  0  0  0
  190.8790  177.3040  135.6970 N   0  0  0  0  0  0  0  0  0  0  0  0
  189.6280  177.6310  140.5310 O   0  0  0  0  0  0  0  0  0  0  0  0
  189.5050  177.7970  137.6230 C   0  0  0  0  0  0  0  0  0  0  0  0
  193.0340  174.7240  136.9150 C   0  0  0  0  0  0  0  0  0  0  0  0
  194.2510  174.2950  136.5620 N   0  0  0  0  0  0  0  0  0  0  0  0
  189.8170  176.4560  139.7960 C   0  0  0  0  0  2  0  0  0  0  0  0
  188.5030  178.7420  138.2210 C   0  0  0  0  0  2  0  0  0  0  0  0
  190.1620  176.7830  138.3730 C   0  0  0  0  0  0  0  0  0  0  0  0
  188.8540  177.2880  141.5950 N   0  0  2  0  0  0  0  0  0  0  0  0
  187.3180  178.0090  138.8230 C   0  0  2  0  0  3  0  0  0  0  0  0
  191.1580  176.0470  137.7250 C   0  0  0  0  0  0  0  0  0  0  0  0
  194.4340  174.8470  135.3580 N   0  0  0  0  0  0  0  0  0  0  0  0
  184.9040  178.0720  138.8850 C   0  0  2  0  0  3  0  0  0  0  0  0
  187.4120  177.3740  141.2400 C   0  0  2  0  0  3  0  0  0  0  0  0
  189.8950  178.0390  136.2900 C   0  0  0  0  0  3  0  0  0  0  0  0
  186.0850  178.2190  137.9670 C   0  0  0  0  0  2  0  0  0  0  0  0
  192.2270  174.8740  138.3880 S   0  0  0  0  0  0  0  0  0  0  0  0
  192.5510  175.5430  135.9810 C   0  0  0  0  0  0  0  0  0  0  0  0
  191.4860  176.3170  136.3950 C   0  0  0  0  0  0  0  0  0  0  0  0
  193.4320  175.6500  134.9790 N   0  0  0  0  0  0  0  0  0  0  0  0
  187.0570  178.5060  140.2470 C   0  0  2  0  0  3  0  0  0  0  0  0
  189.1880  178.2300  142.6620 C   0  0  2  0  0  3  0  0  0  0  0  0
  190.0080  177.5510  143.6950 C   0  0  2  0  0  3  0  0  0  0  0  0
  188.6310  177.7690  143.8710 O   0  0  0  0  0  0  0  0  0  0  0  0
  190.7730  178.5560  144.5350 C   0  0  2  0  0  3  0  0  0  0  0  0
  191.9520  179.0970  143.7500 C   0  0  0  0  0  1  0  0  0  0  0  0
  191.2800  177.8610  145.7930 C   0  0  0  0  0  2  0  0  0  0  0  0
  190.1660  177.1550  146.5650 C   0  0  1  0  0  3  0  0  0  0  0  0
  190.6650  176.0340  147.2380 O   0  0  0  0  0  0  0  0  0  0  0  0
  191.9810  176.3750  147.5760 C   0  0  0  0  0  1  0  0  0  0  0  0
  189.4920  178.1080  147.5430 C   0  0  0  0  0  2  0  0  0  0  0  0
  188.4130  177.3770  148.3140 C   0  0  0  0  0  2  0  0  0  0  0  0
  187.3280  178.2950  148.6120 N   0  0  0  0  0  1  0  0  0  0  0  0
  186.5170  177.3060  142.4830 C   0  0  0  0  0  2  0  0  0  0  0  0
  185.8340  178.5120  142.6640 O   0  0  0  0  0  0  0  0  0  0  0  0
  186.3330  178.4180  145.2080 O   0  0  0  0  0  1  0  0  0  0  0  0
  184.2670  179.3130  144.3380 C   0  0  1  0  0  0  0  0  0  0  0  0
  184.9970  178.1130  144.9290 C   0  0  1  0  0  3  0  0  0  0  0  0
  185.0170  180.6400  144.2180 C   0  0  0  0  0  1  0  0  0  0  0  0
  184.6980  178.1770  143.4180 C   0  0  2  0  0  3  0  0  0  0  0  0
  182.7640  179.3530  144.5860 C   0  0  0  0  0  2  0  0  0  0  0  0
  181.9710  178.9090  143.3610 C   0  0  0  0  0  2  0  0  0  0  0  0
  179.9670  177.8280  142.6530 F   0  0  0  0  0  0  0  0  0  0  0  0
  180.5770  178.4320  143.7400 C   0  0  0  0  0  2  0  0  0  0  0  0
  183.7530  178.5670  138.2710 O   0  0  0  0  0  0  0  0  0  0  0  0
  182.7640  177.6310  138.5770 C   0  0  0  0  0  2  0  0  0  0  0  0
  182.1290  179.1450  140.3070 O   0  0  0  0  0  1  0  0  0  0  0  0
  181.6160  178.2900  139.3350 C   0  0  1  0  0  3  0  0  0  0  0  0
  179.8640  178.1590  137.6790 O   0  0  0  0  0  1  0  0  0  0  0  0
  180.6340  179.0490  138.4370 C   0  0  2  0  0  3  0  0  0  0  0  0
  181.4810  179.6270  136.2480 O   0  0  0  0  0  1  0  0  0  0  0  0
  181.3010  180.1080  137.5510 C   0  0  1  0  0  3  0  0  0  0  0  0
  180.2830  181.6130  137.5030 P   0  0  0  0  0  0  0  0  0  0  0  0
  179.7700  181.9080  135.9180 O   0  0  0  0  0  0  0  0  0  0  0  0
  178.9340  181.4140  138.5050 O   0  0  0  0  0  1  0  0  0  0  0  0
  181.1000  182.7900  137.9870 O   0  0  0  0  0  1  0  0  0  0  0  0
  195.6660  174.6870  134.5960 C   0  0  2  0  0  3  0  0  0  0  0  0
  196.0690  173.2850  134.5970 N   0  0  0  0  0  2  0  0  0  0  0  0
  195.1250  172.2140  134.6420 C   0  0  0  0  0  0  0  0  0  0  0  0
  193.8870  172.4480  134.5960 O   0  0  0  0  0  0  0  0  0  0  0  0
  195.3390  170.2520  136.1090 C   0  0  0  0  0  1  0  0  0  0  0  0
  195.6090  170.8100  134.7270 C   0  0  0  0  0  2  0  0  0  0  0  0
  197.8660  174.6890  135.7670 C   0  0  0  0  0  1  0  0  0  0  0  0
  196.7610  175.5530  135.1950 C   0  0  0  0  0  2  0  0  0  0  0  0
  2 16  2  0  0  0  0
  2 20  1  0  0  0  0
  4  8  1  0  0  0  0
  4  9  2  0  0  0  0
  5 18  1  0  0  0  0
  6  5  2  0  0  0  0
  7  3  1  0  0  0  0
  8 11  1  0  0  0  0
  9  7  1  0  0  0  0
 10  3  1  6  0  0  0
 10 23  1  0  0  0  0
 11 17  1  6  0  0  0
 11 22  1  0  0  0  0
 12  9  1  0  0  0  0
 12 18  1  0  0  0  0
 13  6  1  0  0  0  0
 14 46  1  6  0  0  0
 14  1  1  0  0  0  0
 15 10  1  0  0  0  0
 15 35  1  1  0  0  0
 16  4  1  0  0  0  0
 17 14  1  0  0  0  0
 19 20  1  0  0  0  0
 19  5  1  0  0  0  0
 20 12  2  0  0  0  0
 21 13  1  0  0  0  0
 21 19  2  0  0  0  0
 22  1  1  6  0  0  0
 22 15  1  0  0  0  0
 23 24  1  0  0  0  0
 23 25  1  1  0  0  0
 24 25  1  0  0  0  0
 24 26  1  1  0  0  0
 26 27  1  6  0  0  0
 26 28  1  0  0  0  0
 29 28  1  1  0  0  0
 29 30  1  0  0  0  0
 29 32  1  0  0  0  0
 30 31  1  0  0  0  0
 32 33  1  0  0  0  0
 33 34  1  0  0  0  0
 35 36  1  0  0  0  0
 38 40  1  6  0  0  0
 38 42  1  0  0  0  0
 38 39  1  0  0  0  0
 39 37  1  6  0  0  0
 41 36  1  6  0  0  0
 41 38  1  0  0  0  0
 41 39  1  0  0  0  0
 43 45  1  0  0  0  0
 43 42  1  0  0  0  0
 44 45  1  0  0  0  0
 46 47  1  0  0  0  0
 47 49  1  0  0  0  0
 49 48  1  1  0  0  0
 51 50  1  6  0  0  0
 51 49  1  0  0  0  0
 53 52  1  6  0  0  0
 53 51  1  0  0  0  0
 54 53  1  0  0  0  0
 54 57  1  0  0  0  0
 54 56  1  0  0  0  0
 55 54  2  0  0  0  0
 58 59  1  0  0  0  0
 58 65  1  1  0  0  0
 58 13  1  0  0  0  0
 59 60  1  0  0  0  0
 60 63  1  0  0  0  0
 61 60  2  0  0  0  0
 63 62  1  0  0  0  0
 65 64  1  0  0  0  0
M  END
>  <MODEL>
7

>  <REMARK>
 VINA RESULT:      -2.5      4.191     10.602
  Name = 
  23 active torsions:
  status: ('A' for Active; 'I' for Inactive)
    1  A    between atoms: C_1  and  C_58
    2  A    between atoms: C_4  and  C_5
    3  A    between atoms: C_4  and  C_41
    4  A    between atoms: C_5  and  C_32
    5  A    between atoms: C_8  and  O_10
    6  A    between atoms: C_8  and  C_45
    7  A    between atoms: O_10  and  C_65
    8  A    between atoms: P_11  and  C_55
    9  A    between atoms: C_13  and  C_60
   10  A    between atoms: N_15  and  C_44
   11  A    between atoms: C_17  and  N_36
   12  A    between atoms: O_19  and  C_41
   13  A    between atoms: C_22  and  O_24
   14  A    between atoms: C_22  and  C_54
   15  A    between atoms: O_24  and  C_43
   16  A    between atoms: C_27  and  C_52
   17  A    between atoms: C_29  and  C_54
   18  A    between atoms: C_29  and  C_55
   19  A    between atoms: C_37  and  C_51
   20  A    between atoms: C_37  and  C_60
   21  A    between atoms: C_41  and  C_58
   22  A    between atoms: N_42  and  C_44
   23  A    between atoms: C_44  and  C_49
                            x       y       z     vdW  Elec       q    Type
                         _______ _______ _______ _____ _____    ______ ____

>  <TORSDO>
F 23

$$$$
=
 OpenBabel10222418313D

 65 71  0  0  1  0  0  0  0  0999 V2000
  188.2300  177.2270  135.1670 S   0  0  0  0  0  0  0  0  0  0  0  0
  190.6580  178.1170  142.1740 N   0  0  0  0  0  0  0  0  0  0  0  0
  186.5480  178.0260  139.3190 O   0  0  0  0  0  0  0  0  0  0  0  0
  189.3440  177.9870  140.1500 C   0  0  0  0  0  0  0  0  0  0  0  0
  188.3860  176.9130  144.6590 C   0  0  0  0  0  0  0  0  0  0  0  0
  188.2830  177.0930  145.9810 N   0  0  0  0  0  0  0  0  0  0  0  0
  186.9490  177.0480  140.2350 C   0  0  0  0  0  2  0  0  0  0  0  0
  189.2570  178.3720  138.7020 C   0  0  0  0  0  2  0  0  0  0  0  0
  188.2500  177.4360  140.8750 C   0  0  0  0  0  0  0  0  0  0  0  0
  185.7040  177.4050  138.4530 N   0  0  2  0  0  0  0  0  0  0  0  0
  188.8850  177.1950  137.8200 C   0  0  2  0  0  3  0  0  0  0  0  0
  188.4260  177.2290  142.2460 C   0  0  0  0  0  0  0  0  0  0  0  0
  189.4700  177.6140  146.3120 N   0  0  0  0  0  0  0  0  0  0  0  0
  189.5290  176.1150  135.7580 C   0  0  2  0  0  3  0  0  0  0  0  0
  186.4660  176.7860  137.3360 C   0  0  2  0  0  3  0  0  0  0  0  0
  190.5300  178.3260  140.8320 C   0  0  0  0  0  3  0  0  0  0  0  0
  190.0820  176.7610  136.9970 C   0  0  0  0  0  2  0  0  0  0  0  0
  187.2650  176.7290  143.4130 S   0  0  0  0  0  0  0  0  0  0  0  0
  189.5630  177.3660  144.2270 C   0  0  0  0  0  0  0  0  0  0  0  0
  189.6330  177.5640  142.8630 C   0  0  0  0  0  0  0  0  0  0  0  0
  190.2710  177.8320  145.2630 N   0  0  0  0  0  0  0  0  0  0  0  0
  187.7240  177.5720  136.8970 C   0  0  2  0  0  3  0  0  0  0  0  0
  184.7970  178.4390  137.9590 C   0  0  2  0  0  3  0  0  0  0  0  0
  183.5060  178.3660  138.6860 C   0  0  2  0  0  3  0  0  0  0  0  0
  183.6600  177.8220  137.4000 O   0  0  0  0  0  0  0  0  0  0  0  0
  182.7410  179.6710  138.5750 C   0  0  2  0  0  3  0  0  0  0  0  0
  182.1410  180.0370  139.9190 C   0  0  0  0  0  1  0  0  0  0  0  0
  181.6220  179.4990  137.5540 C   0  0  0  0  0  2  0  0  0  0  0  0
  181.3700  180.7660  136.7380 C   0  0  1  0  0  3  0  0  0  0  0  0
  180.2430  180.6130  135.9220 O   0  0  0  0  0  0  0  0  0  0  0  0
  179.6150  179.4520  136.3940 C   0  0  0  0  0  1  0  0  0  0  0  0
  181.2080  181.9770  137.6470 C   0  0  0  0  0  2  0  0  0  0  0  0
  180.3890  183.0410  136.9480 C   0  0  0  0  0  2  0  0  0  0  0  0
  179.1180  183.2010  137.6340 N   0  0  0  0  0  1  0  0  0  0  0  0
  185.5430  176.3580  136.1880 C   0  0  0  0  0  2  0  0  0  0  0  0
  185.6660  174.9880  135.9420 O   0  0  0  0  0  0  0  0  0  0  0  0
  185.7420  172.6450  134.8320 O   0  0  0  0  0  1  0  0  0  0  0  0
  183.8650  173.3730  136.1650 C   0  0  1  0  0  0  0  0  0  0  0  0
  184.4630  173.2060  134.7720 C   0  0  1  0  0  3  0  0  0  0  0  0
  184.6550  172.8530  137.3660 C   0  0  0  0  0  1  0  0  0  0  0  0
  184.4150  174.5960  135.4390 C   0  0  2  0  0  3  0  0  0  0  0  0
  182.3440  173.3430  136.2320 C   0  0  0  0  0  2  0  0  0  0  0  0
  181.7590  174.7160  136.5530 C   0  0  0  0  0  2  0  0  0  0  0  0
  180.1240  175.8570  137.8580 F   0  0  0  0  0  0  0  0  0  0  0  0
  180.7890  174.6510  137.7230 C   0  0  0  0  0  2  0  0  0  0  0  0
  190.5320  175.9820  134.7970 O   0  0  0  0  0  0  0  0  0  0  0  0
  191.5630  175.3120  135.4590 C   0  0  0  0  0  2  0  0  0  0  0  0
  190.0850  173.5310  134.8800 O   0  0  0  0  0  1  0  0  0  0  0  0
  191.2260  173.8330  135.6200 C   0  0  1  0  0  3  0  0  0  0  0  0
  191.8710  171.7460  134.5940 O   0  0  0  0  0  1  0  0  0  0  0  0
  192.3680  172.8900  135.2290 C   0  0  2  0  0  3  0  0  0  0  0  0
  193.5180  171.1440  136.4420 O   0  0  0  0  0  1  0  0  0  0  0  0
  193.2950  172.5260  136.3940 C   0  0  1  0  0  3  0  0  0  0  0  0
  194.8860  173.3880  136.2200 P   0  0  0  0  0  0  0  0  0  0  0  0
  195.2720  174.1770  137.6670 O   0  0  0  0  0  1  0  0  0  0  0  0
  196.0970  172.2670  135.8480 O   0  0  0  0  0  1  0  0  0  0  0  0
  194.7870  174.4090  135.1090 O   0  0  0  0  0  0  0  0  0  0  0  0
  189.8000  178.0200  147.6720 C   0  0  2  0  0  3  0  0  0  0  0  0
  190.8250  177.1370  148.2170 N   0  0  0  0  0  2  0  0  0  0  0  0
  191.9000  176.6280  147.4270 C   0  0  0  0  0  0  0  0  0  0  0  0
  192.0500  177.0000  146.2320 O   0  0  0  0  0  0  0  0  0  0  0  0
  193.5480  176.2920  149.2210 C   0  0  0  0  0  1  0  0  0  0  0  0
  192.8620  175.6640  148.0260 C   0  0  0  0  0  2  0  0  0  0  0  0
  187.6980  179.2090  148.2910 C   0  0  0  0  0  1  0  0  0  0  0  0
  188.5540  177.9840  148.5400 C   0  0  0  0  0  2  0  0  0  0  0  0
  1 14  1  0  0  0  0
  2 20  1  0  0  0  0
  3  7  1  0  0  0  0
  4 16  1  0  0  0  0
  4  9  2  0  0  0  0
  5  6  2  0  0  0  0
  6 13  1  0  0  0  0
  7  9  1  0  0  0  0
  8  4  1  0  0  0  0
  9 12  1  0  0  0  0
 10  3  1  1  0  0  0
 11 17  1  6  0  0  0
 11  8  1  0  0  0  0
 12 20  2  0  0  0  0
 12 18  1  0  0  0  0
 13 58  1  0  0  0  0
 14 46  1  6  0  0  0
 14 17  1  0  0  0  0
 15 35  1  6  0  0  0
 15 10  1  0  0  0  0
 16  2  2  0  0  0  0
 18  5  1  0  0  0  0
 19  5  1  0  0  0  0
 19 21  2  0  0  0  0
 20 19  1  0  0  0  0
 21 13  1  0  0  0  0
 22  1  1  6  0  0  0
 22 15  1  0  0  0  0
 22 11  1  0  0  0  0
 23 25  1  6  0  0  0
 23 10  1  0  0  0  0
 23 24  1  0  0  0  0
 24 26  1  6  0  0  0
 25 24  1  0  0  0  0
 26 27  1  1  0  0  0
 28 26  1  0  0  0  0
 29 28  1  1  0  0  0
 29 32  1  0  0  0  0
 30 31  1  0  0  0  0
 30 29  1  0  0  0  0
 33 34  1  0  0  0  0
 33 32  1  0  0  0  0
 36 35  1  0  0  0  0
 38 42  1  0  0  0  0
 38 40  1  1  0  0  0
 39 37  1  1  0  0  0
 39 41  1  0  0  0  0
 39 38  1  0  0  0  0
 41 36  1  1  0  0  0
 41 38  1  0  0  0  0
 42 43  1  0  0  0  0
 43 45  1  0  0  0  0
 45 44  1  0  0  0  0
 46 47  1  0  0  0  0
 47 49  1  0  0  0  0
 49 48  1  6  0  0  0
 51 50  1  1  0  0  0
 51 49  1  0  0  0  0
 51 53  1  0  0  0  0
 53 52  1  6  0  0  0
 54 53  1  0  0  0  0
 54 55  1  0  0  0  0
 56 54  1  0  0  0  0
 57 54  2  0  0  0  0
 58 59  1  0  0  0  0
 58 65  1  1  0  0  0
 60 63  1  0  0  0  0
 60 59  1  0  0  0  0
 61 60  2  0  0  0  0
 63 62  1  0  0  0  0
 64 65  1  0  0  0  0
M  END
>  <MODEL>
8

>  <REMARK>
 VINA RESULT:      -2.4      1.781      2.294
  Name = 
  23 active torsions:
  status: ('A' for Active; 'I' for Inactive)
    1  A    between atoms: C_1  and  C_58
    2  A    between atoms: C_4  and  C_5
    3  A    between atoms: C_4  and  C_41
    4  A    between atoms: C_5  and  C_32
    5  A    between atoms: C_8  and  O_10
    6  A    between atoms: C_8  and  C_45
    7  A    between atoms: O_10  and  C_65
    8  A    between atoms: P_11  and  C_55
    9  A    between atoms: C_13  and  C_60
   10  A    between atoms: N_15  and  C_44
   11  A    between atoms: C_17  and  N_36
   12  A    between atoms: O_19  and  C_41
   13  A    between atoms: C_22  and  O_24
   14  A    between atoms: C_22  and  C_54
   15  A    between atoms: O_24  and  C_43
   16  A    between atoms: C_27  and  C_52
   17  A    between atoms: C_29  and  C_54
   18  A    between atoms: C_29  and  C_55
   19  A    between atoms: C_37  and  C_51
   20  A    between atoms: C_37  and  C_60
   21  A    between atoms: C_41  and  C_58
   22  A    between atoms: N_42  and  C_44
   23  A    between atoms: C_44  and  C_49
                            x       y       z     vdW  Elec       q    Type
                         _______ _______ _______ _____ _____    ______ ____

>  <TORSDO>
F 23

$$$$
=
 OpenBabel10222418313D

 65 71  0  0  1  0  0  0  0  0999 V2000
  183.4620  178.9410  143.0260 S   0  0  0  0  0  0  0  0  0  0  0  0
  190.2490  176.6800  140.8820 N   0  0  0  0  0  0  0  0  0  0  0  0
  185.5750  177.4660  139.2760 O   0  0  0  0  0  0  0  0  0  0  0  0
  187.9010  177.2340  141.0200 C   0  0  0  0  0  0  0  0  0  0  0  0
  191.0490  177.5030  137.4950 C   0  0  0  0  0  0  0  0  0  0  0  0
  191.9920  177.0880  136.6430 N   0  0  0  0  0  0  0  0  0  0  0  0
  186.7010  178.2410  138.9790 C   0  0  0  0  0  2  0  0  0  0  0  0
  186.6480  177.1250  141.8390 C   0  0  0  0  0  2  0  0  0  0  0  0
  187.9120  177.6880  139.6720 C   0  0  0  0  0  0  0  0  0  0  0  0
  184.5000  178.2700  139.0660 N   0  0  2  0  0  0  0  0  0  0  0  0
  185.9370  178.4580  141.9740 C   0  0  2  0  0  3  0  0  0  0  0  0
  189.1270  177.6330  138.9830 C   0  0  0  0  0  0  0  0  0  0  0  0
  192.8710  176.4660  137.4370 N   0  0  0  0  0  0  0  0  0  0  0  0
  184.8900  179.8700  143.6310 C   0  0  2  0  0  3  0  0  0  0  0  0
  184.1840  179.0510  140.2920 C   0  0  2  0  0  3  0  0  0  0  0  0
  189.0850  176.7260  141.5910 C   0  0  0  0  0  3  0  0  0  0  0  0
  186.0810  178.9850  143.3890 C   0  0  0  0  0  2  0  0  0  0  0  0
  189.4350  177.9590  137.3230 S   0  0  0  0  0  0  0  0  0  0  0  0
  191.3350  177.0880  138.7290 C   0  0  0  0  0  0  0  0  0  0  0  0
  190.2730  177.1400  139.6100 C   0  0  0  0  0  0  0  0  0  0  0  0
  192.4890  176.4100  138.7180 N   0  0  0  0  0  0  0  0  0  0  0  0
  184.4560  178.3060  141.6210 C   0  0  2  0  0  3  0  0  0  0  0  0
  183.3920  177.3840  138.7110 C   0  0  2  0  0  3  0  0  0  0  0  0
  183.8850  176.2830  137.8460 C   0  0  2  0  0  3  0  0  0  0  0  0
  183.2210  177.4010  137.3130 O   0  0  0  0  0  0  0  0  0  0  0  0
  182.9270  175.1070  137.8580 C   0  0  2  0  0  3  0  0  0  0  0  0
  182.4640  174.8310  139.2750 C   0  0  0  0  0  1  0  0  0  0  0  0
  183.6500  173.8800  137.3150 C   0  0  0  0  0  2  0  0  0  0  0  0
  185.1410  174.1270  137.0880 C   0  0  1  0  0  3  0  0  0  0  0  0
  185.9100  173.2300  137.8370 O   0  0  0  0  0  0  0  0  0  0  0  0
  187.2140  173.3770  137.3440 C   0  0  0  0  0  1  0  0  0  0  0  0
  185.4920  174.0250  135.6110 C   0  0  0  0  0  2  0  0  0  0  0  0
  185.9300  175.3780  135.0890 C   0  0  0  0  0  2  0  0  0  0  0  0
  184.7630  176.1320  134.6650 N   0  0  0  0  0  1  0  0  0  0  0  0
  182.8080  179.7200  140.2000 C   0  0  0  0  0  2  0  0  0  0  0  0
  182.7920  180.6780  139.1830 O   0  0  0  0  0  0  0  0  0  0  0  0
  180.3990  181.4220  139.8530 O   0  0  0  0  0  1  0  0  0  0  0  0
  181.1340  181.3830  137.5540 C   0  0  1  0  0  0  0  0  0  0  0  0
  180.3980  180.6640  138.6780 C   0  0  1  0  0  3  0  0  0  0  0  0
  181.6680  182.7910  137.8130 C   0  0  0  0  0  1  0  0  0  0  0  0
  181.8210  180.2280  138.2750 C   0  0  2  0  0  3  0  0  0  0  0  0
  180.6800  181.0300  136.1430 C   0  0  0  0  0  2  0  0  0  0  0  0
  179.6090  179.9430  136.1430 C   0  0  0  0  0  2  0  0  0  0  0  0
  179.5490  177.7300  135.2600 F   0  0  0  0  0  0  0  0  0  0  0  0
  179.7090  179.0590  134.9080 C   0  0  0  0  0  2  0  0  0  0  0  0
  184.7590  180.1350  144.9950 O   0  0  0  0  0  0  0  0  0  0  0  0
  185.9810  179.7440  145.5470 C   0  0  0  0  0  2  0  0  0  0  0  0
  184.5580  178.2000  146.6800 O   0  0  0  0  0  1  0  0  0  0  0  0
  185.7610  178.8950  146.7950 C   0  0  1  0  0  3  0  0  0  0  0  0
  186.8230  177.4450  148.4060 O   0  0  0  0  0  1  0  0  0  0  0  0
  186.9030  177.9190  147.0910 C   0  0  2  0  0  3  0  0  0  0  0  0
  189.0500  178.6150  147.9550 O   0  0  0  0  0  1  0  0  0  0  0  0
  188.2940  178.4850  146.7830 C   0  0  1  0  0  3  0  0  0  0  0  0
  189.1680  177.3950  145.6190 P   0  0  0  0  0  0  0  0  0  0  0  0
  189.9500  178.3240  144.4410 O   0  0  0  0  0  0  0  0  0  0  0  0
  190.3100  176.4720  146.4600 O   0  0  0  0  0  1  0  0  0  0  0  0
  188.1740  176.4750  144.9470 O   0  0  0  0  0  1  0  0  0  0  0  0
  194.0640  175.8030  136.9250 C   0  0  2  0  0  3  0  0  0  0  0  0
  194.8820  175.3320  138.0370 N   0  0  0  0  0  2  0  0  0  0  0  0
  196.1070  174.6230  137.8420 C   0  0  0  0  0  0  0  0  0  0  0  0
  196.5730  174.4540  136.6830 O   0  0  0  0  0  0  0  0  0  0  0  0
  196.7280  175.0630  140.1810 C   0  0  0  0  0  1  0  0  0  0  0  0
  196.8480  174.0970  139.0200 C   0  0  0  0  0  2  0  0  0  0  0  0
  194.4570  176.6130  134.6000 C   0  0  0  0  0  1  0  0  0  0  0  0
  194.8560  176.7630  136.0550 C   0  0  0  0  0  2  0  0  0  0  0  0
  1 14  1  0  0  0  0
  2 16  1  0  0  0  0
  4 16  2  0  0  0  0
  4  8  1  0  0  0  0
  5 19  1  0  0  0  0
  6 13  1  0  0  0  0
  6  5  2  0  0  0  0
  7  3  1  0  0  0  0
  7  9  1  0  0  0  0
  9  4  1  0  0  0  0
 10  3  1  1  0  0  0
 10 15  1  0  0  0  0
 11  8  1  1  0  0  0
 11 17  1  0  0  0  0
 12 20  1  0  0  0  0
 12  9  2  0  0  0  0
 13 21  1  0  0  0  0
 14 46  1  1  0  0  0
 15 35  1  6  0  0  0
 15 22  1  0  0  0  0
 17 14  1  0  0  0  0
 18  5  1  0  0  0  0
 18 12  1  0  0  0  0
 19 20  1  0  0  0  0
 20  2  2  0  0  0  0
 21 19  2  0  0  0  0
 22 11  1  0  0  0  0
 22  1  1  1  0  0  0
 23 25  1  6  0  0  0
 23 10  1  0  0  0  0
 24 26  1  1  0  0  0
 24 23  1  0  0  0  0
 25 24  1  0  0  0  0
 26 27  1  1  0  0  0
 28 26  1  0  0  0  0
 29 32  1  6  0  0  0
 29 28  1  0  0  0  0
 29 30  1  0  0  0  0
 31 30  1  0  0  0  0
 33 32  1  0  0  0  0
 34 33  1  0  0  0  0
 36 35  1  0  0  0  0
 38 40  1  1  0  0  0
 38 41  1  0  0  0  0
 38 39  1  0  0  0  0
 39 37  1  1  0  0  0
 41 39  1  0  0  0  0
 41 36  1  1  0  0  0
 42 43  1  0  0  0  0
 42 38  1  0  0  0  0
 45 44  1  0  0  0  0
 45 43  1  0  0  0  0
 46 47  1  0  0  0  0
 47 49  1  0  0  0  0
 49 48  1  6  0  0  0
 49 51  1  0  0  0  0
 51 50  1  1  0  0  0
 53 51  1  0  0  0  0
 53 52  1  1  0  0  0
 54 56  1  0  0  0  0
 54 53  1  0  0  0  0
 55 54  2  0  0  0  0
 57 54  1  0  0  0  0
 58 65  1  1  0  0  0
 58 13  1  0  0  0  0
 58 59  1  0  0  0  0
 60 59  1  0  0  0  0
 60 63  1  0  0  0  0
 61 60  2  0  0  0  0
 63 62  1  0  0  0  0
 64 65  1  0  0  0  0
M  END
>  <MODEL>
9

>  <REMARK>
 VINA RESULT:      -2.2      3.472      8.650
  Name = 
  23 active torsions:
  status: ('A' for Active; 'I' for Inactive)
    1  A    between atoms: C_1  and  C_58
    2  A    between atoms: C_4  and  C_5
    3  A    between atoms: C_4  and  C_41
    4  A    between atoms: C_5  and  C_32
    5  A    between atoms: C_8  and  O_10
    6  A    between atoms: C_8  and  C_45
    7  A    between atoms: O_10  and  C_65
    8  A    between atoms: P_11  and  C_55
    9  A    between atoms: C_13  and  C_60
   10  A    between atoms: N_15  and  C_44
   11  A    between atoms: C_17  and  N_36
   12  A    between atoms: O_19  and  C_41
   13  A    between atoms: C_22  and  O_24
   14  A    between atoms: C_22  and  C_54
   15  A    between atoms: O_24  and  C_43
   16  A    between atoms: C_27  and  C_52
   17  A    between atoms: C_29  and  C_54
   18  A    between atoms: C_29  and  C_55
   19  A    between atoms: C_37  and  C_51
   20  A    between atoms: C_37  and  C_60
   21  A    between atoms: C_41  and  C_58
   22  A    between atoms: N_42  and  C_44
   23  A    between atoms: C_44  and  C_49
                            x       y       z     vdW  Elec       q    Type
                         _______ _______ _______ _____ _____    ______ ____

>  <TORSDO>
F 23

$$$$
