=
 OpenBabel10222417083D

 25 29  0  0  1  0  0  0  0  0999 V2000
  189.4610  178.7260  137.0750 O   0  0  0  0  0  0  0  0  0  0  0  0
  186.5000  179.0800  147.3830 C   0  0  0  0  0  0  0  0  0  0  0  0
  187.9650  177.7600  146.4300 C   0  0  0  0  0  3  0  0  0  0  0  0
  189.0520  178.4570  138.2350 C   0  0  0  0  0  0  0  0  0  0  0  0
  187.0400  177.8760  142.1010 C   0  0  0  0  0  0  0  0  0  0  0  0
  184.8450  179.1190  145.5850 N   0  0  0  0  0  2  0  0  0  0  0  0
  188.2540  176.7730  143.6300 C   0  0  0  0  0  2  0  0  0  0  0  0
  186.9140  177.0820  144.2540 C   0  0  2  0  0  3  0  0  0  0  0  0
  189.7720  177.8000  139.1270 O   0  0  0  0  0  0  0  0  0  0  0  0
  186.7820  178.4620  140.8470 C   0  0  0  0  0  3  0  0  0  0  0  0
  186.2510  177.8580  143.1640 C   0  0  2  0  0  3  0  0  0  0  0  0
  185.8510  179.9210  148.3310 N   0  0  0  0  0  1  0  0  0  0  0  0
  187.8180  178.3620  139.9120 C   0  0  0  0  0  0  0  0  0  0  0  0
  187.0280  177.9060  145.4920 C   0  0  0  0  0  0  0  0  0  0  0  0
  187.6460  178.5250  147.5990 N   0  0  0  0  0  2  0  0  0  0  0  0
  189.0100  177.7340  140.1890 C   0  0  0  0  0  0  0  0  0  0  0  0
  189.2770  177.1490  141.4310 C   0  0  0  0  0  0  0  0  0  0  0  0
  185.9960  178.7510  146.0690 C   0  0  0  0  0  0  0  0  0  0  0  0
  187.8610  178.8130  138.6860 O   0  0  0  0  0  0  0  0  0  0  0  0
  184.8850  178.3840  143.2090 C   0  0  0  0  0  3  0  0  0  0  0  0
  184.2740  178.8950  144.2820 C   0  0  0  0  0  3  0  0  0  0  0  0
  188.2440  177.2400  142.3880 C   0  0  0  0  0  0  0  0  0  0  0  0
  190.5610  176.4300  141.6950 C   0  0  0  0  0  2  0  0  0  0  0  0
  191.6460  177.3910  141.8240 N   0  0  0  0  0  2  0  0  0  0  0  0
  191.7520  177.6890  143.2410 C   0  0  0  0  0  1  0  0  0  0  0  0
  1  4  2  0  0  0  0
  2 15  1  0  0  0  0
  2 12  1  0  0  0  0
  3 15  1  0  0  0  0
  4 19  1  0  0  0  0
  4  9  1  0  0  0  0
  5 22  1  0  0  0  0
  5 11  1  0  0  0  0
  6 18  1  0  0  0  0
  8  7  1  6  0  0  0
  8 14  1  0  0  0  0
  9 16  1  0  0  0  0
 10  5  2  0  0  0  0
 11 20  1  6  0  0  0
 11  8  1  0  0  0  0
 13 16  2  0  0  0  0
 13 10  1  0  0  0  0
 14 18  1  0  0  0  0
 14  3  2  0  0  0  0
 16 17  1  0  0  0  0
 17 23  1  0  0  0  0
 17 22  2  0  0  0  0
 18  2  2  0  0  0  0
 19 13  1  0  0  0  0
 20 21  2  0  0  0  0
 21  6  1  0  0  0  0
 22  7  1  0  0  0  0
 23 24  1  0  0  0  0
 24 25  1  0  0  0  0
M  END
>  <MODEL>
1

>  <REMARK>
 VINA RESULT:      -8.6      0.000      0.000
  Name = 
  2 active torsions:
  status: ('A' for Active; 'I' for Inactive)
    1  A    between atoms: N_3  and  C_17
    2  A    between atoms: C_17  and  C_19
                            x       y       z     vdW  Elec       q    Type
                         _______ _______ _______ _____ _____    ______ ____

>  <TORSDO>
F 2

$$$$
=
 OpenBabel10222417083D

 25 29  0  0  1  0  0  0  0  0999 V2000
  188.6730  177.0950  148.0310 O   0  0  0  0  0  0  0  0  0  0  0  0
  181.4170  177.2210  140.1270 C   0  0  0  0  0  0  0  0  0  0  0  0
  183.5960  177.3910  139.9810 C   0  0  0  0  0  3  0  0  0  0  0  0
  187.9640  177.3870  147.0330 C   0  0  0  0  0  0  0  0  0  0  0  0
  184.9780  178.5540  144.0230 C   0  0  0  0  0  0  0  0  0  0  0  0
  181.1010  178.5390  142.1610 N   0  0  0  0  0  0  0  0  0  0  0  0
  185.6670  178.3550  141.8990 C   0  0  0  0  0  2  0  0  0  0  0  0
  184.2600  178.9050  141.8680 C   0  0  2  0  0  3  0  0  0  0  0  0
  188.3810  177.2740  145.7850 O   0  0  0  0  0  0  0  0  0  0  0  0
  185.0990  178.4730  145.4230 C   0  0  0  0  0  3  0  0  0  0  0  0
  183.9180  178.9220  143.3210 C   0  0  2  0  0  3  0  0  0  0  0  0
  180.0640  176.8780  139.8460 N   0  0  0  0  0  1  0  0  0  0  0  0
  186.3330  178.0120  145.8950 C   0  0  0  0  0  0  0  0  0  0  0  0
  183.3130  178.0330  141.1150 C   0  0  0  0  0  0  0  0  0  0  0  0
  182.4070  176.8560  139.3840 N   0  0  0  0  0  0  0  0  0  0  0  0
  187.3650  177.6610  145.0560 C   0  0  0  0  0  0  0  0  0  0  0  0
  187.2550  177.7370  143.6630 C   0  0  0  0  0  0  0  0  0  0  0  0
  181.8680  177.9910  141.2640 C   0  0  0  0  0  0  0  0  0  0  0  0
  186.7220  177.8320  147.1300 O   0  0  0  0  0  0  0  0  0  0  0  0
  182.6610  179.4150  143.8890 C   0  0  0  0  0  3  0  0  0  0  0  0
  181.4460  179.2720  143.3510 C   0  0  0  0  0  3  0  0  0  0  0  0
  186.0180  178.1990  143.1680 C   0  0  0  0  0  0  0  0  0  0  0  0
  188.4050  177.3960  142.7710 C   0  0  0  0  0  2  0  0  0  0  0  0
  188.6330  175.9590  142.7890 N   0  0  0  0  0  2  0  0  0  0  0  0
  190.0730  175.7800  142.8250 C   0  0  0  0  0  1  0  0  0  0  0  0
  2 18  1  0  0  0  0
  3 14  2  0  0  0  0
  4 19  1  0  0  0  0
  4  1  2  0  0  0  0
  5 10  1  0  0  0  0
  6 21  1  0  0  0  0
  7 22  1  0  0  0  0
  8  7  1  1  0  0  0
  8 11  1  0  0  0  0
  9  4  1  0  0  0  0
 10 13  2  0  0  0  0
 11 20  1  1  0  0  0
 11  5  1  0  0  0  0
 12  2  1  0  0  0  0
 13 19  1  0  0  0  0
 14 18  1  0  0  0  0
 14  8  1  0  0  0  0
 15  3  1  0  0  0  0
 15  2  2  0  0  0  0
 16  9  1  0  0  0  0
 16 13  1  0  0  0  0
 17 16  2  0  0  0  0
 18  6  2  0  0  0  0
 21 20  2  0  0  0  0
 22 17  1  0  0  0  0
 22  5  2  0  0  0  0
 23 24  1  0  0  0  0
 23 17  1  0  0  0  0
 24 25  1  0  0  0  0
M  END
>  <MODEL>
2

>  <REMARK>
 VINA RESULT:      -8.6      4.141      6.218
  Name = 
  2 active torsions:
  status: ('A' for Active; 'I' for Inactive)
    1  A    between atoms: N_3  and  C_17
    2  A    between atoms: C_17  and  C_19
                            x       y       z     vdW  Elec       q    Type
                         _______ _______ _______ _____ _____    ______ ____

>  <TORSDO>
F 2

$$$$
=
 OpenBabel10222417083D

 25 29  0  0  1  0  0  0  0  0999 V2000
  187.2580  178.2380  148.1300 O   0  0  0  0  0  0  0  0  0  0  0  0
  180.6840  176.5120  139.8260 C   0  0  0  0  0  0  0  0  0  0  0  0
  182.8490  176.8470  139.8050 C   0  0  0  0  0  3  0  0  0  0  0  0
  186.6130  178.3110  147.0520 C   0  0  0  0  0  0  0  0  0  0  0  0
  183.8040  178.7340  143.6950 C   0  0  0  0  0  0  0  0  0  0  0  0
  180.1040  178.0950  141.5960 N   0  0  0  0  0  0  0  0  0  0  0  0
  184.6770  178.2720  141.6820 C   0  0  0  0  0  2  0  0  0  0  0  0
  183.2400  178.6850  141.4680 C   0  0  2  0  0  3  0  0  0  0  0  0
  187.1380  178.0430  145.8690 O   0  0  0  0  0  0  0  0  0  0  0  0
  183.8150  178.8810  145.0950 C   0  0  0  0  0  3  0  0  0  0  0  0
  182.7800  178.8960  142.8720 C   0  0  2  0  0  3  0  0  0  0  0  0
  179.3880  176.0120  139.5110 N   0  0  0  0  0  1  0  0  0  0  0  0
  185.0380  178.6080  145.7180 C   0  0  0  0  0  0  0  0  0  0  0  0
  182.4270  177.6290  140.8000 C   0  0  0  0  0  0  0  0  0  0  0  0
  181.7570  176.1240  139.2220 N   0  0  0  0  0  0  0  0  0  0  0  0
  186.1580  178.2230  145.0200 C   0  0  0  0  0  0  0  0  0  0  0  0
  186.1580  178.0740  143.6280 C   0  0  0  0  0  0  0  0  0  0  0  0
  180.9810  177.4840  140.8540 C   0  0  0  0  0  0  0  0  0  0  0  0
  185.3370  178.6540  146.9900 O   0  0  0  0  0  0  0  0  0  0  0  0
  181.4470  179.3590  143.2660 C   0  0  0  0  0  3  0  0  0  0  0  0
  180.2940  179.0290  142.6750 C   0  0  0  0  0  3  0  0  0  0  0  0
  184.9340  178.3450  142.9820 C   0  0  0  0  0  0  0  0  0  0  0  0
  187.4000  177.7010  142.8840 C   0  0  0  0  0  2  0  0  0  0  0  0
  187.7880  176.3410  143.2250 N   0  0  0  0  0  2  0  0  0  0  0  0
  189.2400  176.3240  143.2160 C   0  0  0  0  0  1  0  0  0  0  0  0
  2 18  1  0  0  0  0
  3 14  2  0  0  0  0
  4  1  2  0  0  0  0
  5 10  1  0  0  0  0
  6 21  1  0  0  0  0
  7 22  1  0  0  0  0
  8  7  1  1  0  0  0
  8 11  1  0  0  0  0
  9  4  1  0  0  0  0
 10 13  2  0  0  0  0
 11 20  1  6  0  0  0
 11  5  1  0  0  0  0
 12  2  1  0  0  0  0
 13 19  1  0  0  0  0
 14 18  1  0  0  0  0
 14  8  1  0  0  0  0
 15  3  1  0  0  0  0
 15  2  2  0  0  0  0
 16 13  1  0  0  0  0
 16  9  1  0  0  0  0
 17 16  2  0  0  0  0
 18  6  2  0  0  0  0
 19  4  1  0  0  0  0
 21 20  2  0  0  0  0
 22 17  1  0  0  0  0
 22  5  2  0  0  0  0
 23 24  1  0  0  0  0
 23 17  1  0  0  0  0
 25 24  1  0  0  0  0
M  END
>  <MODEL>
3

>  <REMARK>
 VINA RESULT:      -8.5      4.646      6.804
  Name = 
  2 active torsions:
  status: ('A' for Active; 'I' for Inactive)
    1  A    between atoms: N_3  and  C_17
    2  A    between atoms: C_17  and  C_19
                            x       y       z     vdW  Elec       q    Type
                         _______ _______ _______ _____ _____    ______ ____

>  <TORSDO>
F 2

$$$$
=
 OpenBabel10222417083D

 25 29  0  0  1  0  0  0  0  0999 V2000
  188.9310  179.2710  136.8980 O   0  0  0  0  0  0  0  0  0  0  0  0
  188.7090  177.9810  147.5480 C   0  0  0  0  0  0  0  0  0  0  0  0
  189.9430  176.9330  146.0730 C   0  0  0  0  0  3  0  0  0  0  0  0
  188.8490  178.8150  138.0680 C   0  0  0  0  0  0  0  0  0  0  0  0
  187.9310  177.5480  142.1770 C   0  0  0  0  0  0  0  0  0  0  0  0
  186.6480  178.1180  146.2430 N   0  0  0  0  0  2  0  0  0  0  0  0
  189.5500  176.3590  143.1720 C   0  0  0  0  0  2  0  0  0  0  0  0
  188.4020  176.4650  144.1480 C   0  0  2  0  0  3  0  0  0  0  0  0
  189.8050  178.1090  138.6430 O   0  0  0  0  0  0  0  0  0  0  0  0
  187.3300  178.2730  141.1300 C   0  0  0  0  0  3  0  0  0  0  0  0
  187.4440  177.3200  143.3870 C   0  0  2  0  0  3  0  0  0  0  0  0
  188.2850  178.6280  148.7440 N   0  0  0  0  0  1  0  0  0  0  0  0
  188.0940  178.3890  139.9640 C   0  0  0  0  0  0  0  0  0  0  0  0
  188.7900  177.1220  145.4300 C   0  0  0  0  0  0  0  0  0  0  0  0
  189.8980  177.5040  147.3870 N   0  0  0  0  0  2  0  0  0  0  0  0
  189.3470  177.8350  139.8380 C   0  0  0  0  0  0  0  0  0  0  0  0
  189.9530  177.1140  140.8730 C   0  0  0  0  0  0  0  0  0  0  0  0
  187.9000  177.7900  146.3660 C   0  0  0  0  0  0  0  0  0  0  0  0
  187.7970  179.0030  138.8490 O   0  0  0  0  0  0  0  0  0  0  0  0
  186.1110  177.7150  143.8480 C   0  0  0  0  0  3  0  0  0  0  0  0
  185.7720  178.0220  145.1040 C   0  0  0  0  0  3  0  0  0  0  0  0
  189.1980  176.9860  142.0570 C   0  0  0  0  0  0  0  0  0  0  0  0
  191.2960  176.4800  140.6980 C   0  0  0  0  0  2  0  0  0  0  0  0
  192.3310  177.5030  140.7280 N   0  0  0  0  0  2  0  0  0  0  0  0
  193.2680  177.1560  139.6750 C   0  0  0  0  0  1  0  0  0  0  0  0
  1  4  2  0  0  0  0
  2 12  1  0  0  0  0
  3 15  1  0  0  0  0
  4  9  1  0  0  0  0
  4 19  1  0  0  0  0
  5 11  1  0  0  0  0
  6 18  1  0  0  0  0
  8  7  1  6  0  0  0
  8 14  1  0  0  0  0
  9 16  1  0  0  0  0
 10  5  2  0  0  0  0
 11 20  1  6  0  0  0
 11  8  1  0  0  0  0
 13 10  1  0  0  0  0
 14  3  2  0  0  0  0
 14 18  1  0  0  0  0
 15  2  1  0  0  0  0
 16 13  2  0  0  0  0
 16 17  1  0  0  0  0
 17 22  2  0  0  0  0
 18  2  2  0  0  0  0
 19 13  1  0  0  0  0
 20 21  2  0  0  0  0
 21  6  1  0  0  0  0
 22  5  1  0  0  0  0
 22  7  1  0  0  0  0
 23 24  1  0  0  0  0
 23 17  1  0  0  0  0
 25 24  1  0  0  0  0
M  END
>  <MODEL>
4

>  <REMARK>
 VINA RESULT:      -8.3      1.320      1.715
  Name = 
  2 active torsions:
  status: ('A' for Active; 'I' for Inactive)
    1  A    between atoms: N_3  and  C_17
    2  A    between atoms: C_17  and  C_19
                            x       y       z     vdW  Elec       q    Type
                         _______ _______ _______ _____ _____    ______ ____

>  <TORSDO>
F 2

$$$$
=
 OpenBabel10222417083D

 25 29  0  0  1  0  0  0  0  0999 V2000
  180.5060  179.9030  143.5240 O   0  0  0  0  0  0  0  0  0  0  0  0
  191.1540  178.6670  144.0160 C   0  0  0  0  0  0  0  0  0  0  0  0
  189.7890  178.1040  142.3980 C   0  0  0  0  0  3  0  0  0  0  0  0
  181.6810  179.4520  143.5240 C   0  0  0  0  0  0  0  0  0  0  0  0
  185.7590  177.9650  144.2270 C   0  0  0  0  0  0  0  0  0  0  0  0
  189.7190  178.0740  145.9040 N   0  0  0  0  0  0  0  0  0  0  0  0
  186.8860  177.4160  142.3690 C   0  0  0  0  0  2  0  0  0  0  0  0
  187.7850  177.1220  143.5470 C   0  0  2  0  0  3  0  0  0  0  0  0
  182.3350  179.1240  142.4240 O   0  0  0  0  0  0  0  0  0  0  0  0
  184.6560  178.4320  144.9680 C   0  0  0  0  0  3  0  0  0  0  0  0
  186.9420  177.5880  144.6870 C   0  0  2  0  0  3  0  0  0  0  0  0
  192.3020  179.1320  144.7190 N   0  0  0  0  0  1  0  0  0  0  0  0
  183.5370  178.8000  144.2130 C   0  0  0  0  0  0  0  0  0  0  0  0
  189.0700  177.8790  143.4990 C   0  0  0  0  0  0  0  0  0  0  0  0
  191.0810  178.6300  142.7280 N   0  0  0  0  0  0  0  0  0  0  0  0
  183.5060  178.7140  142.8400 C   0  0  0  0  0  0  0  0  0  0  0  0
  184.5960  178.2530  142.0950 C   0  0  0  0  0  0  0  0  0  0  0  0
  189.9290  178.2010  144.6260 C   0  0  0  0  0  0  0  0  0  0  0  0
  182.3890  179.2680  144.6260 O   0  0  0  0  0  0  0  0  0  0  0  0
  187.3070  177.4990  146.1020 C   0  0  0  0  0  3  0  0  0  0  0  0
  188.5300  177.6760  146.6120 C   0  0  0  0  0  3  0  0  0  0  0  0
  185.7340  177.8770  142.8380 C   0  0  0  0  0  0  0  0  0  0  0  0
  184.5250  178.1220  140.6070 C   0  0  0  0  0  2  0  0  0  0  0  0
  184.9000  179.3820  139.9840 N   0  0  0  0  0  2  0  0  0  0  0  0
  183.8080  179.7310  139.0940 C   0  0  0  0  0  1  0  0  0  0  0  0
  1  4  2  0  0  0  0
  2 18  1  0  0  0  0
  2 12  1  0  0  0  0
  3 15  1  0  0  0  0
  3 14  2  0  0  0  0
  4 19  1  0  0  0  0
  5 11  1  0  0  0  0
  5 10  1  0  0  0  0
  6 21  1  0  0  0  0
  7 22  1  0  0  0  0
  8  7  1  6  0  0  0
  8 11  1  0  0  0  0
  9 16  1  0  0  0  0
  9  4  1  0  0  0  0
 11 20  1  1  0  0  0
 13 19  1  0  0  0  0
 13 10  2  0  0  0  0
 14  8  1  0  0  0  0
 14 18  1  0  0  0  0
 15  2  2  0  0  0  0
 16 13  1  0  0  0  0
 17 22  1  0  0  0  0
 17 16  2  0  0  0  0
 18  6  2  0  0  0  0
 20 21  2  0  0  0  0
 22  5  2  0  0  0  0
 23 17  1  0  0  0  0
 24 23  1  0  0  0  0
 25 24  1  0  0  0  0
M  END
>  <MODEL>
5

>  <REMARK>
 VINA RESULT:      -8.0      3.508      5.979
  Name = 
  2 active torsions:
  status: ('A' for Active; 'I' for Inactive)
    1  A    between atoms: N_3  and  C_17
    2  A    between atoms: C_17  and  C_19
                            x       y       z     vdW  Elec       q    Type
                         _______ _______ _______ _____ _____    ______ ____

>  <TORSDO>
F 2

$$$$
=
 OpenBabel10222417083D

 25 29  0  0  1  0  0  0  0  0999 V2000
  183.9900  180.3400  139.0490 O   0  0  0  0  0  0  0  0  0  0  0  0
  190.8950  177.4390  146.7330 C   0  0  0  0  0  0  0  0  0  0  0  0
  190.9440  176.9470  144.5990 C   0  0  0  0  0  3  0  0  0  0  0  0
  184.7310  179.7060  139.8440 C   0  0  0  0  0  0  0  0  0  0  0  0
  186.8330  177.6520  143.1150 C   0  0  0  0  0  0  0  0  0  0  0  0
  188.4800  177.2800  147.0710 N   0  0  0  0  0  0  0  0  0  0  0  0
  188.7980  176.7420  142.5370 C   0  0  0  0  0  2  0  0  0  0  0  0
  188.5650  176.4250  143.9950 C   0  0  2  0  0  3  0  0  0  0  0  0
  185.8850  179.1670  139.4920 O   0  0  0  0  0  0  0  0  0  0  0  0
  185.6360  178.3630  142.9030 C   0  0  0  0  0  3  0  0  0  0  0  0
  187.2760  177.1340  144.2500 C   0  0  2  0  0  3  0  0  0  0  0  0
  191.3050  177.7780  148.0540 N   0  0  0  0  0  1  0  0  0  0  0  0
  185.4390  178.8320  141.6000 C   0  0  0  0  0  0  0  0  0  0  0  0
  189.6410  176.9540  144.8830 C   0  0  0  0  0  0  0  0  0  0  0  0
  191.7230  177.2850  145.7540 N   0  0  0  0  0  0  0  0  0  0  0  0
  186.3440  178.6160  140.5870 C   0  0  0  0  0  0  0  0  0  0  0  0
  187.5360  177.9100  140.7870 C   0  0  0  0  0  0  0  0  0  0  0  0
  189.5290  177.2420  146.3030 C   0  0  0  0  0  0  0  0  0  0  0  0
  184.4360  179.5200  141.1200 O   0  0  0  0  0  0  0  0  0  0  0  0
  186.5430  177.1280  145.5180 C   0  0  0  0  0  3  0  0  0  0  0  0
  187.0840  177.1540  146.7390 C   0  0  0  0  0  3  0  0  0  0  0  0
  187.7530  177.4300  142.0950 C   0  0  0  0  0  0  0  0  0  0  0  0
  188.4830  177.6450  139.6620 C   0  0  0  0  0  2  0  0  0  0  0  0
  188.9460  178.9060  139.1000 N   0  0  0  0  0  2  0  0  0  0  0  0
  189.0550  178.6920  137.6690 C   0  0  0  0  0  1  0  0  0  0  0  0
  1  4  2  0  0  0  0
  2 12  1  0  0  0  0
  3 14  2  0  0  0  0
  3 15  1  0  0  0  0
  4 19  1  0  0  0  0
  5 11  1  0  0  0  0
  8  7  1  6  0  0  0
  8 11  1  0  0  0  0
  8 14  1  0  0  0  0
  9  4  1  0  0  0  0
  9 16  1  0  0  0  0
 10  5  1  0  0  0  0
 11 20  1  6  0  0  0
 13 10  2  0  0  0  0
 14 18  1  0  0  0  0
 15  2  2  0  0  0  0
 16 17  2  0  0  0  0
 16 13  1  0  0  0  0
 17 22  1  0  0  0  0
 18  2  1  0  0  0  0
 18  6  2  0  0  0  0
 19 13  1  0  0  0  0
 20 21  2  0  0  0  0
 21  6  1  0  0  0  0
 22  7  1  0  0  0  0
 22  5  2  0  0  0  0
 23 17  1  0  0  0  0
 24 23  1  0  0  0  0
 25 24  1  0  0  0  0
M  END
>  <MODEL>
6

>  <REMARK>
 VINA RESULT:      -8.0      2.222      3.772
  Name = 
  2 active torsions:
  status: ('A' for Active; 'I' for Inactive)
    1  A    between atoms: N_3  and  C_17
    2  A    between atoms: C_17  and  C_19
                            x       y       z     vdW  Elec       q    Type
                         _______ _______ _______ _____ _____    ______ ____

>  <TORSDO>
F 2

$$$$
=
 OpenBabel10222417083D

 25 29  0  0  1  0  0  0  0  0999 V2000
  191.7460  175.4340  143.8470 O   0  0  0  0  0  0  0  0  0  0  0  0
  181.7190  178.3900  141.4270 C   0  0  0  0  0  0  0  0  0  0  0  0
  183.5660  178.8030  140.3250 C   0  0  0  0  0  3  0  0  0  0  0  0
  190.7010  176.0730  143.5590 C   0  0  0  0  0  0  0  0  0  0  0  0
  186.8540  178.1750  143.2240 C   0  0  0  0  0  0  0  0  0  0  0  0
  182.6030  178.6350  143.6920 N   0  0  0  0  0  0  0  0  0  0  0  0
  186.4150  179.0020  141.1870 C   0  0  0  0  0  2  0  0  0  0  0  0
  185.2610  179.3780  142.0850 C   0  0  2  0  0  3  0  0  0  0  0  0
  190.4550  176.5630  142.3570 O   0  0  0  0  0  0  0  0  0  0  0  0
  187.6100  177.4940  144.1960 C   0  0  0  0  0  3  0  0  0  0  0  0
  185.6550  178.7180  143.3650 C   0  0  2  0  0  3  0  0  0  0  0  0
  180.3610  178.0850  141.7260 N   0  0  0  0  0  1  0  0  0  0  0  0
  188.8370  176.9860  143.7560 C   0  0  0  0  0  0  0  0  0  0  0  0
  183.9530  178.8480  141.6010 C   0  0  0  0  0  0  0  0  0  0  0  0
  182.1730  178.4830  140.2220 N   0  0  0  0  0  0  0  0  0  0  0  0
  189.2840  177.1380  142.4640 C   0  0  0  0  0  0  0  0  0  0  0  0
  188.5400  177.8130  141.4900 C   0  0  0  0  0  0  0  0  0  0  0  0
  182.7630  178.6130  142.4010 C   0  0  0  0  0  0  0  0  0  0  0  0
  189.7340  176.3130  144.4280 O   0  0  0  0  0  0  0  0  0  0  0  0
  184.9050  178.7920  144.6210 C   0  0  0  0  0  3  0  0  0  0  0  0
  183.5740  178.7920  144.7440 C   0  0  0  0  0  3  0  0  0  0  0  0
  187.2990  178.3320  141.9140 C   0  0  0  0  0  0  0  0  0  0  0  0
  189.0650  178.0090  140.1040 C   0  0  0  0  0  2  0  0  0  0  0  0
  188.6810  176.8810  139.2680 N   0  0  0  0  0  2  0  0  0  0  0  0
  187.9840  177.4460  138.1270 C   0  0  0  0  0  1  0  0  0  0  0  0
  2 12  1  0  0  0  0
  2 18  1  0  0  0  0
  3 14  2  0  0  0  0
  4  1  2  0  0  0  0
  4 19  1  0  0  0  0
  5 11  1  0  0  0  0
  5 10  1  0  0  0  0
  6 21  1  0  0  0  0
  7 22  1  0  0  0  0
  8  7  1  6  0  0  0
  8 11  1  0  0  0  0
  9 16  1  0  0  0  0
  9  4  1  0  0  0  0
 11 20  1  1  0  0  0
 13 10  2  0  0  0  0
 13 19  1  0  0  0  0
 14  8  1  0  0  0  0
 14 18  1  0  0  0  0
 15  3  1  0  0  0  0
 15  2  2  0  0  0  0
 16 13  1  0  0  0  0
 17 22  1  0  0  0  0
 17 16  2  0  0  0  0
 18  6  2  0  0  0  0
 20 21  2  0  0  0  0
 22  5  2  0  0  0  0
 23 17  1  0  0  0  0
 24 23  1  0  0  0  0
 25 24  1  0  0  0  0
M  END
>  <MODEL>
7

>  <REMARK>
 VINA RESULT:      -8.0      2.955      5.001
  Name = 
  2 active torsions:
  status: ('A' for Active; 'I' for Inactive)
    1  A    between atoms: N_3  and  C_17
    2  A    between atoms: C_17  and  C_19
                            x       y       z     vdW  Elec       q    Type
                         _______ _______ _______ _____ _____    ______ ____

>  <TORSDO>
F 2

$$$$
=
 OpenBabel10222417083D

 25 29  0  0  1  0  0  0  0  0999 V2000
  179.8890  176.6330  138.6180 O   0  0  0  0  0  0  0  0  0  0  0  0
  187.0070  177.7610  146.5670 C   0  0  0  0  0  0  0  0  0  0  0  0
  185.0530  178.7230  146.3400 C   0  0  0  0  0  3  0  0  0  0  0  0
  180.6970  177.0750  139.4750 C   0  0  0  0  0  0  0  0  0  0  0  0
  184.0270  178.3480  142.0490 C   0  0  0  0  0  0  0  0  0  0  0  0
  187.7010  177.8230  144.2250 N   0  0  0  0  0  2  0  0  0  0  0  0
  183.4050  179.3770  143.9410 C   0  0  0  0  0  2  0  0  0  0  0  0
  184.9140  179.3540  143.9150 C   0  0  2  0  0  3  0  0  0  0  0  0
  180.3210  177.6870  140.5830 O   0  0  0  0  0  0  0  0  0  0  0  0
  183.8260  177.6950  140.8180 C   0  0  0  0  0  3  0  0  0  0  0  0
  185.1770  178.5970  142.6550 C   0  0  2  0  0  3  0  0  0  0  0  0
  188.1480  177.1330  147.1430 N   0  0  0  0  0  1  0  0  0  0  0  0
  182.4900  177.5330  140.4340 C   0  0  0  0  0  0  0  0  0  0  0  0
  185.5040  178.6450  145.0870 C   0  0  0  0  0  0  0  0  0  0  0  0
  185.9840  178.1370  147.2590 N   0  0  0  0  0  2  0  0  0  0  0  0
  181.4380  177.9790  141.2000 C   0  0  0  0  0  0  0  0  0  0  0  0
  181.6270  178.6280  142.4250 C   0  0  0  0  0  0  0  0  0  0  0  0
  186.8240  178.0410  145.1610 C   0  0  0  0  0  0  0  0  0  0  0  0
  182.0110  176.9650  139.3590 O   0  0  0  0  0  0  0  0  0  0  0  0
  186.5020  178.3110  142.1000 C   0  0  0  0  0  3  0  0  0  0  0  0
  187.6000  178.0120  142.8010 C   0  0  0  0  0  3  0  0  0  0  0  0
  182.9670  178.8010  142.8290 C   0  0  0  0  0  0  0  0  0  0  0  0
  180.4710  179.1470  143.2180 C   0  0  0  0  0  2  0  0  0  0  0  0
  180.2150  180.5350  142.8640 N   0  0  0  0  0  2  0  0  0  0  0  0
  178.9930  180.5310  142.0800 C   0  0  0  0  0  1  0  0  0  0  0  0
  1  4  2  0  0  0  0
  2 12  1  0  0  0  0
  2 15  1  0  0  0  0
  3 15  1  0  0  0  0
  4  9  1  0  0  0  0
  5 11  1  0  0  0  0
  5 22  1  0  0  0  0
  6 18  1  0  0  0  0
  8  7  1  1  0  0  0
  8 14  1  0  0  0  0
  9 16  1  0  0  0  0
 10  5  2  0  0  0  0
 11 20  1  6  0  0  0
 11  8  1  0  0  0  0
 13 10  1  0  0  0  0
 13 16  2  0  0  0  0
 14 18  1  0  0  0  0
 14  3  2  0  0  0  0
 16 17  1  0  0  0  0
 17 22  2  0  0  0  0
 17 23  1  0  0  0  0
 18  2  2  0  0  0  0
 19  4  1  0  0  0  0
 19 13  1  0  0  0  0
 20 21  2  0  0  0  0
 21  6  1  0  0  0  0
 22  7  1  0  0  0  0
 24 23  1  0  0  0  0
 25 24  1  0  0  0  0
M  END
>  <MODEL>
8

>  <REMARK>
 VINA RESULT:      -7.9      3.801      6.422
  Name = 
  2 active torsions:
  status: ('A' for Active; 'I' for Inactive)
    1  A    between atoms: N_3  and  C_17
    2  A    between atoms: C_17  and  C_19
                            x       y       z     vdW  Elec       q    Type
                         _______ _______ _______ _____ _____    ______ ____

>  <TORSDO>
F 2

$$$$
=
 OpenBabel10222417083D

 25 29  0  0  1  0  0  0  0  0999 V2000
  187.5920  177.0650  148.8280 O   0  0  0  0  0  0  0  0  0  0  0  0
  189.7140  176.1590  138.3490 C   0  0  0  0  0  0  0  0  0  0  0  0
  191.1060  176.5570  139.9920 C   0  0  0  0  0  3  0  0  0  0  0  0
  187.9710  177.2480  147.6420 C   0  0  0  0  0  0  0  0  0  0  0  0
  188.6070  177.9900  143.3550 C   0  0  0  0  0  0  0  0  0  0  0  0
  187.8350  177.5000  139.1510 N   0  0  0  0  0  0  0  0  0  0  0  0
  190.7360  177.7990  142.6790 C   0  0  0  0  0  2  0  0  0  0  0  0
  189.9140  178.1930  141.4750 C   0  0  2  0  0  3  0  0  0  0  0  0
  189.2290  177.1400  147.2550 O   0  0  0  0  0  0  0  0  0  0  0  0
  187.5490  177.9680  144.2830 C   0  0  0  0  0  3  0  0  0  0  0  0
  188.5370  178.2200  142.0530 C   0  0  2  0  0  3  0  0  0  0  0  0
  189.1590  175.6630  137.1340 N   0  0  0  0  0  1  0  0  0  0  0  0
  187.9090  177.6570  145.5990 C   0  0  0  0  0  0  0  0  0  0  0  0
  189.9990  177.2010  140.3650 C   0  0  0  0  0  0  0  0  0  0  0  0
  190.9100  175.8780  138.7450 N   0  0  0  0  0  0  0  0  0  0  0  0
  189.2070  177.3920  145.9700 C   0  0  0  0  0  0  0  0  0  0  0  0
  190.2660  177.4110  145.0560 C   0  0  0  0  0  0  0  0  0  0  0  0
  189.0310  177.0090  139.2980 C   0  0  0  0  0  0  0  0  0  0  0  0
  187.1460  177.5590  146.6550 O   0  0  0  0  0  0  0  0  0  0  0  0
  187.3210  178.5920  141.3260 C   0  0  0  0  0  3  0  0  0  0  0  0
  187.0470  178.3030  140.0510 C   0  0  0  0  0  3  0  0  0  0  0  0
  189.9220  177.7220  143.7240 C   0  0  0  0  0  0  0  0  0  0  0  0
  191.6750  177.1670  145.4900 C   0  0  0  0  0  2  0  0  0  0  0  0
  191.8910  175.7410  145.6820 N   0  0  0  0  0  2  0  0  0  0  0  0
  192.3360  175.5830  147.0550 C   0  0  0  0  0  1  0  0  0  0  0  0
  2 15  2  0  0  0  0
  2 18  1  0  0  0  0
  3 14  2  0  0  0  0
  4  1  2  0  0  0  0
  5 22  2  0  0  0  0
  5 10  1  0  0  0  0
  6 18  2  0  0  0  0
  6 21  1  0  0  0  0
  7 22  1  0  0  0  0
  8 11  1  0  0  0  0
  8  7  1  1  0  0  0
  9  4  1  0  0  0  0
 10 13  2  0  0  0  0
 11 20  1  1  0  0  0
 11  5  1  0  0  0  0
 12  2  1  0  0  0  0
 13 16  1  0  0  0  0
 13 19  1  0  0  0  0
 14  8  1  0  0  0  0
 15  3  1  0  0  0  0
 16  9  1  0  0  0  0
 17 23  1  0  0  0  0
 17 16  2  0  0  0  0
 18 14  1  0  0  0  0
 19  4  1  0  0  0  0
 21 20  2  0  0  0  0
 22 17  1  0  0  0  0
 23 24  1  0  0  0  0
 24 25  1  0  0  0  0
M  END
>  <MODEL>
9

>  <REMARK>
 VINA RESULT:      -7.9      4.171      6.758
  Name = 
  2 active torsions:
  status: ('A' for Active; 'I' for Inactive)
    1  A    between atoms: N_3  and  C_17
    2  A    between atoms: C_17  and  C_19
                            x       y       z     vdW  Elec       q    Type
                         _______ _______ _______ _____ _____    ______ ____

>  <TORSDO>
F 2

$$$$
