=
 OpenBabel10222415533D

 29 35  0  0  1  0  0  0  0  0999 V2000
  188.3680  176.7520  143.1140 C   0  0  0  0  0  3  0  0  0  0  0  0
  185.5350  178.6900  138.9490 N   0  0  0  0  0  0  0  0  0  0  0  0
  183.1390  178.1920  139.1270 C   0  0  0  0  0  0  0  0  0  0  0  0
  181.5300  176.8530  139.7110 O   0  0  0  0  0  0  0  0  0  0  0  0
  184.2700  178.9910  139.6320 C   0  0  1  0  0  3  0  0  0  0  0  0
  189.8810  177.5170  140.3170 C   0  0  1  0  0  3  0  0  0  0  0  0
  181.3550  177.1790  138.4360 C   0  0  0  0  0  3  0  0  0  0  0  0
  189.3520  175.7030  143.0720 N   0  0  0  0  0  0  0  0  0  0  0  0
  186.6440  178.6280  139.6340 C   0  0  0  0  0  0  0  0  0  0  0  0
  188.7700  177.7170  142.3000 C   0  0  1  0  0  3  0  0  0  0  0  0
  188.6900  178.3720  140.1410 C   0  0  2  0  0  3  0  0  0  0  0  0
  189.9140  177.2020  141.6150 C   0  0  1  0  0  3  0  0  0  0  0  0
  185.5870  178.5670  141.8130 C   0  0  0  0  0  0  0  0  0  0  0  0
  184.3130  178.4630  141.0650 C   0  0  2  0  0  3  0  0  0  0  0  0
  183.3340  177.5840  141.3470 C   0  0  0  0  0  2  0  0  0  0  0  0
  182.3590  178.0650  138.0020 C   0  0  0  0  0  3  0  0  0  0  0  0
  190.2310  175.9430  142.1790 N   0  0  0  0  0  2  0  0  0  0  0  0
  188.0270  178.5110  141.3350 C   0  0  1  0  0  3  0  0  0  0  0  0
  182.5960  177.4850  140.1060 C   0  0  0  0  0  0  0  0  0  0  0  0
  186.6870  178.6390  141.0310 C   0  0  0  0  0  0  0  0  0  0  0  0
  187.8560  178.3990  139.0780 N   0  0  0  0  0  2  0  0  0  0  0  0
  186.0290  177.4300  144.0070 C   0  0  0  0  0  3  0  0  0  0  0  0
  185.6360  178.5750  143.2970 C   0  0  0  0  0  0  0  0  0  0  0  0
  185.2680  179.7210  145.4120 C   0  0  0  0  0  3  0  0  0  0  0  0
  185.6750  178.5790  146.1060 C   0  0  0  0  0  3  0  0  0  0  0  0
  185.2450  179.7170  144.0140 C   0  0  0  0  0  3  0  0  0  0  0  0
  186.0530  177.4330  145.4040 C   0  0  0  0  0  3  0  0  0  0  0  0
  191.9310  176.9060  139.1310 C   0  0  0  0  0  2  0  0  0  0  0  0
  190.6170  176.7940  139.2710 C   0  0  0  0  0  3  0  0  0  0  0  0
  2  9  2  0  0  0  0
  3  5  1  0  0  0  0
  3 19  2  0  0  0  0
  4 19  1  0  0  0  0
  5  2  1  6  0  0  0
  5 14  1  0  0  0  0
  6 29  1  6  0  0  0
  6 12  1  0  0  0  0
  7  4  1  0  0  0  0
  8  1  2  0  0  0  0
  9 20  1  0  0  0  0
 10  1  1  6  0  0  0
 11 21  1  6  0  0  0
 11  6  1  0  0  0  0
 11 18  1  0  0  0  0
 12 17  1  6  0  0  0
 12 10  1  0  0  0  0
 13 23  1  0  0  0  0
 14 15  1  6  0  0  0
 14 13  1  0  0  0  0
 16  7  2  0  0  0  0
 16  3  1  0  0  0  0
 17  8  1  0  0  0  0
 18 20  1  6  0  0  0
 18 10  1  0  0  0  0
 19 15  1  0  0  0  0
 20 13  2  0  0  0  0
 21  9  1  0  0  0  0
 22 27  1  0  0  0  0
 23 22  2  0  0  0  0
 23 26  1  0  0  0  0
 24 25  1  0  0  0  0
 26 24  2  0  0  0  0
 27 25  2  0  0  0  0
 28 29  2  0  0  0  0
M  END
>  <MODEL>
1

>  <REMARK>
 VINA RESULT:      -8.8      0.000      0.000
  Name = 
  2 active torsions:
  status: ('A' for Active; 'I' for Inactive)
    1  A    between atoms: C_7  and  C_27
    2  A    between atoms: C_11  and  C_18
                            x       y       z     vdW  Elec       q    Type
                         _______ _______ _______ _____ _____    ______ ____

>  <TORSDO>
F 2

$$$$
=
 OpenBabel10222415533D

 29 35  0  0  1  0  0  0  0  0999 V2000
  186.3780  175.8620  136.9870 C   0  0  0  0  0  3  0  0  0  0  0  0
  187.4960  178.7150  141.4290 N   0  0  0  0  0  0  0  0  0  0  0  0
  189.4240  177.8240  142.6600 C   0  0  0  0  0  0  0  0  0  0  0  0
  190.6080  176.1340  143.3410 O   0  0  0  0  0  0  0  0  0  0  0  0
  188.9560  178.5500  141.4650 C   0  0  1  0  0  3  0  0  0  0  0  0
  184.1020  177.8090  138.2990 C   0  0  1  0  0  3  0  0  0  0  0  0
  190.2870  176.8690  144.4000 C   0  0  0  0  0  3  0  0  0  0  0  0
  185.2040  175.0640  136.7490 N   0  0  0  0  0  0  0  0  0  0  0  0
  186.8550  178.5800  140.3010 C   0  0  0  0  0  0  0  0  0  0  0  0
  185.9820  177.1060  137.2150 C   0  0  1  0  0  3  0  0  0  0  0  0
  185.2890  178.4770  138.8700 C   0  0  2  0  0  3  0  0  0  0  0  0
  184.5550  177.0560  137.2950 C   0  0  1  0  0  3  0  0  0  0  0  0
  188.6950  177.5730  139.0880 C   0  0  0  0  0  0  0  0  0  0  0  0
  189.3940  177.5520  140.3940 C   0  0  2  0  0  3  0  0  0  0  0  0
  190.0620  176.4920  140.8830 C   0  0  0  0  0  2  0  0  0  0  0  0
  189.5330  177.9940  144.0190 C   0  0  0  0  0  3  0  0  0  0  0  0
  184.1450  175.7430  136.9610 N   0  0  0  0  0  2  0  0  0  0  0  0
  186.4230  178.0700  138.2090 C   0  0  1  0  0  3  0  0  0  0  0  0
  190.0930  176.7370  142.3100 C   0  0  0  0  0  0  0  0  0  0  0  0
  187.4480  178.0910  139.1320 C   0  0  0  0  0  0  0  0  0  0  0  0
  185.5200  178.7580  140.1720 N   0  0  0  0  0  2  0  0  0  0  0  0
  189.4250  177.8570  136.7030 C   0  0  0  0  0  3  0  0  0  0  0  0
  189.3210  177.0510  137.8470 C   0  0  0  0  0  0  0  0  0  0  0  0
  190.3490  175.2230  136.6130 C   0  0  0  0  0  3  0  0  0  0  0  0
  190.4590  176.0400  135.4850 C   0  0  0  0  0  3  0  0  0  0  0  0
  189.7790  175.7250  137.7870 C   0  0  0  0  0  3  0  0  0  0  0  0
  189.9950  177.3570  135.5300 C   0  0  0  0  0  3  0  0  0  0  0  0
  182.6050  176.7980  139.9480 C   0  0  0  0  0  2  0  0  0  0  0  0
  182.7890  177.6360  138.9380 C   0  0  0  0  0  3  0  0  0  0  0  0
  3 16  1  0  0  0  0
  4  7  1  0  0  0  0
  5  2  1  1  0  0  0
  5  3  1  0  0  0  0
  6 11  1  0  0  0  0
  6 29  1  1  0  0  0
  8 17  1  0  0  0  0
  8  1  2  0  0  0  0
  9  2  2  0  0  0  0
 10  1  1  1  0  0  0
 10 12  1  0  0  0  0
 10 18  1  0  0  0  0
 11 21  1  1  0  0  0
 12 17  1  1  0  0  0
 12  6  1  0  0  0  0
 13 20  2  0  0  0  0
 13 14  1  0  0  0  0
 14 15  1  1  0  0  0
 14  5  1  0  0  0  0
 15 19  1  0  0  0  0
 16  7  2  0  0  0  0
 18 11  1  0  0  0  0
 18 20  1  1  0  0  0
 19  3  2  0  0  0  0
 19  4  1  0  0  0  0
 20  9  1  0  0  0  0
 21  9  1  0  0  0  0
 22 23  1  0  0  0  0
 23 13  1  0  0  0  0
 24 26  1  0  0  0  0
 25 27  1  0  0  0  0
 25 24  2  0  0  0  0
 26 23  2  0  0  0  0
 27 22  2  0  0  0  0
 29 28  2  0  0  0  0
M  END
>  <MODEL>
2

>  <REMARK>
 VINA RESULT:      -8.1      3.042      7.370
  Name = 
  2 active torsions:
  status: ('A' for Active; 'I' for Inactive)
    1  A    between atoms: C_7  and  C_27
    2  A    between atoms: C_11  and  C_18
                            x       y       z     vdW  Elec       q    Type
                         _______ _______ _______ _____ _____    ______ ____

>  <TORSDO>
F 2

$$$$
=
 OpenBabel10222415533D

 29 35  0  0  1  0  0  0  0  0999 V2000
  183.1080  178.6310  143.9650 C   0  0  0  0  0  3  0  0  0  0  0  0
  182.7130  176.8150  138.8980 N   0  0  0  0  0  0  0  0  0  0  0  0
  180.8450  175.2510  138.6020 C   0  0  0  0  0  0  0  0  0  0  0  0
  179.5830  173.6550  139.3650 O   0  0  0  0  0  0  0  0  0  0  0  0
  181.2560  176.6520  138.8090 C   0  0  1  0  0  3  0  0  0  0  0  0
  185.6760  178.8270  141.9500 C   0  0  1  0  0  3  0  0  0  0  0  0
  180.0760  173.2690  138.1940 C   0  0  0  0  0  3  0  0  0  0  0  0
  184.1720  178.3620  144.8950 N   0  0  0  0  0  0  0  0  0  0  0  0
  183.2220  177.6440  139.7680 C   0  0  0  0  0  0  0  0  0  0  0  0
  183.6390  179.2160  142.9010 C   0  0  1  0  0  3  0  0  0  0  0  0
  184.6190  178.7530  140.9200 C   0  0  2  0  0  3  0  0  0  0  0  0
  185.0550  179.1560  143.0850 C   0  0  1  0  0  3  0  0  0  0  0  0
  181.1830  177.9500  141.0420 C   0  0  0  0  0  0  0  0  0  0  0  0
  180.6210  176.8840  140.1790 C   0  0  2  0  0  3  0  0  0  0  0  0
  179.9100  175.8350  140.6320 C   0  0  0  0  0  2  0  0  0  0  0  0
  180.8900  174.2730  137.6370 C   0  0  0  0  0  3  0  0  0  0  0  0
  185.3060  178.6320  144.3760 N   0  0  0  0  0  2  0  0  0  0  0  0
  183.3920  179.0020  141.4850 C   0  0  1  0  0  3  0  0  0  0  0  0
  180.0460  174.8520  139.5780 C   0  0  0  0  0  0  0  0  0  0  0  0
  182.4710  178.2590  140.7750 C   0  0  0  0  0  0  0  0  0  0  0  0
  184.5470  177.8850  139.8860 N   0  0  0  0  0  2  0  0  0  0  0  0
  179.9100  179.9110  141.9540 C   0  0  0  0  0  3  0  0  0  0  0  0
  180.3900  178.6020  142.1130 C   0  0  0  0  0  0  0  0  0  0  0  0
  179.4170  178.5520  144.3430 C   0  0  0  0  0  3  0  0  0  0  0  0
  178.9330  179.8500  144.1660 C   0  0  0  0  0  3  0  0  0  0  0  0
  180.1450  177.9320  143.3240 C   0  0  0  0  0  3  0  0  0  0  0  0
  179.1810  180.5300  142.9720 C   0  0  0  0  0  3  0  0  0  0  0  0
  187.9060  178.6280  140.9660 C   0  0  0  0  0  2  0  0  0  0  0  0
  187.0240  178.2470  141.8800 C   0  0  0  0  0  3  0  0  0  0  0  0
  1  8  2  0  0  0  0
  2  9  2  0  0  0  0
  3 19  2  0  0  0  0
  4 19  1  0  0  0  0
  5  3  1  1  0  0  0
  5  2  1  0  0  0  0
  5 14  1  0  0  0  0
  6 29  1  1  0  0  0
  6 12  1  0  0  0  0
  7  4  1  0  0  0  0
  9 21  1  0  0  0  0
  9 20  1  0  0  0  0
 10 12  1  0  0  0  0
 10  1  1  1  0  0  0
 11 21  1  1  0  0  0
 11 18  1  0  0  0  0
 11  6  1  0  0  0  0
 12 17  1  1  0  0  0
 13 23  1  0  0  0  0
 14 15  1  1  0  0  0
 14 13  1  0  0  0  0
 16  7  2  0  0  0  0
 16  3  1  0  0  0  0
 17  8  1  0  0  0  0
 18 20  1  1  0  0  0
 18 10  1  0  0  0  0
 19 15  1  0  0  0  0
 20 13  2  0  0  0  0
 22 23  2  0  0  0  0
 22 27  1  0  0  0  0
 23 26  1  0  0  0  0
 25 24  1  0  0  0  0
 26 24  2  0  0  0  0
 27 25  2  0  0  0  0
 28 29  2  0  0  0  0
M  END
>  <MODEL>
3

>  <REMARK>
 VINA RESULT:      -7.8      3.155      4.996
  Name = 
  2 active torsions:
  status: ('A' for Active; 'I' for Inactive)
    1  A    between atoms: C_7  and  C_27
    2  A    between atoms: C_11  and  C_18
                            x       y       z     vdW  Elec       q    Type
                         _______ _______ _______ _____ _____    ______ ____

>  <TORSDO>
F 2

$$$$
=
 OpenBabel10222415533D

 29 35  0  0  1  0  0  0  0  0999 V2000
  185.9250  176.3630  137.2390 C   0  0  0  0  0  3  0  0  0  0  0  0
  184.6560  179.0970  141.7160 N   0  0  0  0  0  0  0  0  0  0  0  0
  186.1140  178.5330  143.6080 C   0  0  0  0  0  0  0  0  0  0  0  0
  187.2760  177.0740  144.7240 O   0  0  0  0  0  0  0  0  0  0  0  0
  185.9930  179.2250  142.3120 C   0  0  1  0  0  3  0  0  0  0  0  0
  182.9700  177.7300  137.5410 C   0  0  1  0  0  3  0  0  0  0  0  0
  186.4320  177.6620  145.5640 C   0  0  0  0  0  3  0  0  0  0  0  0
  185.1230  175.3630  136.5850 N   0  0  0  0  0  0  0  0  0  0  0  0
  184.5340  178.9080  140.4310 C   0  0  0  0  0  0  0  0  0  0  0  0
  185.2230  177.4860  137.2740 C   0  0  1  0  0  3  0  0  0  0  0  0
  183.6860  178.5840  138.5110 C   0  0  2  0  0  3  0  0  0  0  0  0
  183.9160  177.1470  136.8020 C   0  0  1  0  0  3  0  0  0  0  0  0
  186.8630  178.3670  140.0350 C   0  0  0  0  0  0  0  0  0  0  0  0
  187.0020  178.4040  141.5100 C   0  0  2  0  0  3  0  0  0  0  0  0
  187.6400  177.4690  142.2380 C   0  0  0  0  0  2  0  0  0  0  0  0
  185.6620  178.6360  144.9020 C   0  0  0  0  0  3  0  0  0  0  0  0
  183.9460  175.8020  136.3610 N   0  0  0  0  0  2  0  0  0  0  0  0
  185.0420  178.4540  138.3440 C   0  0  1  0  0  3  0  0  0  0  0  0
  187.0760  177.6250  143.5620 C   0  0  0  0  0  0  0  0  0  0  0  0
  185.6130  178.6220  139.5890 C   0  0  0  0  0  0  0  0  0  0  0  0
  183.3420  178.8230  139.7960 N   0  0  0  0  0  2  0  0  0  0  0  0
  188.3670  178.9420  138.1110 C   0  0  0  0  0  3  0  0  0  0  0  0
  188.0050  178.0590  139.1400 C   0  0  0  0  0  0  0  0  0  0  0  0
  189.7780  176.5520  138.4260 C   0  0  0  0  0  3  0  0  0  0  0  0
  190.1370  177.4470  137.4150 C   0  0  0  0  0  3  0  0  0  0  0  0
  188.7150  176.8550  139.2820 C   0  0  0  0  0  3  0  0  0  0  0  0
  189.4300  178.6400  137.2560 C   0  0  0  0  0  3  0  0  0  0  0  0
  181.2020  176.3570  138.5250 C   0  0  0  0  0  2  0  0  0  0  0  0
  181.5810  177.2590  137.6310 C   0  0  0  0  0  3  0  0  0  0  0  0
  3 16  1  0  0  0  0
  4  7  1  0  0  0  0
  5  2  1  6  0  0  0
  5  3  1  0  0  0  0
  6 29  1  1  0  0  0
  6 11  1  0  0  0  0
  8  1  2  0  0  0  0
  9  2  2  0  0  0  0
 10  1  1  1  0  0  0
 10 18  1  0  0  0  0
 11 21  1  1  0  0  0
 12 17  1  1  0  0  0
 12 10  1  0  0  0  0
 12  6  1  0  0  0  0
 13 14  1  0  0  0  0
 14 15  1  1  0  0  0
 14  5  1  0  0  0  0
 15 19  1  0  0  0  0
 16  7  2  0  0  0  0
 17  8  1  0  0  0  0
 18 11  1  0  0  0  0
 18 20  1  1  0  0  0
 19  3  2  0  0  0  0
 19  4  1  0  0  0  0
 20 13  2  0  0  0  0
 20  9  1  0  0  0  0
 21  9  1  0  0  0  0
 22 23  1  0  0  0  0
 23 26  2  0  0  0  0
 23 13  1  0  0  0  0
 24 26  1  0  0  0  0
 25 24  2  0  0  0  0
 27 25  1  0  0  0  0
 27 22  2  0  0  0  0
 29 28  2  0  0  0  0
M  END
>  <MODEL>
4

>  <REMARK>
 VINA RESULT:      -7.7      2.628      6.620
  Name = 
  2 active torsions:
  status: ('A' for Active; 'I' for Inactive)
    1  A    between atoms: C_7  and  C_27
    2  A    between atoms: C_11  and  C_18
                            x       y       z     vdW  Elec       q    Type
                         _______ _______ _______ _____ _____    ______ ____

>  <TORSDO>
F 2

$$$$
=
 OpenBabel10222415533D

 29 35  0  0  1  0  0  0  0  0999 V2000
  185.7760  178.4440  141.0850 C   0  0  0  0  0  3  0  0  0  0  0  0
  180.6560  180.0930  141.5160 N   0  0  0  0  0  0  0  0  0  0  0  0
  179.9110  181.3710  139.5570 C   0  0  0  0  0  0  0  0  0  0  0  0
  180.3240  182.7860  137.9610 O   0  0  0  0  0  0  0  0  0  0  0  0
  180.2640  180.0470  140.1010 C   0  0  1  0  0  3  0  0  0  0  0  0
  184.3390  178.5760  144.0200 C   0  0  1  0  0  3  0  0  0  0  0  0
  179.2620  183.2170  138.6310 C   0  0  0  0  0  3  0  0  0  0  0  0
  186.8910  178.8770  141.8850 N   0  0  0  0  0  0  0  0  0  0  0  0
  181.6500  179.3610  141.9390 C   0  0  0  0  0  0  0  0  0  0  0  0
  184.8720  177.9200  141.9000 C   0  0  1  0  0  3  0  0  0  0  0  0
  183.1140  178.4820  143.2010 C   0  0  2  0  0  3  0  0  0  0  0  0
  185.3390  178.1840  143.2260 C   0  0  1  0  0  3  0  0  0  0  0  0
  182.4930  178.7920  139.7390 C   0  0  0  0  0  0  0  0  0  0  0  0
  181.4850  179.7520  139.2310 C   0  0  2  0  0  3  0  0  0  0  0  0
  181.7320  180.6970  138.3060 C   0  0  0  0  0  2  0  0  0  0  0  0
  178.9310  182.3280  139.6710 C   0  0  0  0  0  3  0  0  0  0  0  0
  186.6270  178.7610  143.1280 N   0  0  0  0  0  2  0  0  0  0  0  0
  183.4260  178.0710  141.9280 C   0  0  1  0  0  3  0  0  0  0  0  0
  180.6840  181.6710  138.5260 C   0  0  0  0  0  0  0  0  0  0  0  0
  182.5090  178.6630  141.0840 C   0  0  0  0  0  0  0  0  0  0  0  0
  182.0470  179.3110  143.2310 N   0  0  0  0  0  2  0  0  0  0  0  0
  184.5720  178.6630  138.3400 C   0  0  0  0  0  3  0  0  0  0  0  0
  183.4090  178.0530  138.8350 C   0  0  0  0  0  0  0  0  0  0  0  0
  183.9520  176.0550  137.5560 C   0  0  0  0  0  3  0  0  0  0  0  0
  185.1130  176.6690  137.0820 C   0  0  0  0  0  3  0  0  0  0  0  0
  183.1020  176.7460  138.4250 C   0  0  0  0  0  3  0  0  0  0  0  0
  185.4230  177.9740  137.4720 C   0  0  0  0  0  3  0  0  0  0  0  0
  185.3640  178.9540  146.2080 C   0  0  0  0  0  2  0  0  0  0  0  0
  184.5190  179.3400  145.2620 C   0  0  0  0  0  3  0  0  0  0  0  0
  1  8  2  0  0  0  0
  2  9  2  0  0  0  0
  3 16  1  0  0  0  0
  4 19  1  0  0  0  0
  4  7  1  0  0  0  0
  5  3  1  6  0  0  0
  5  2  1  0  0  0  0
  6 29  1  6  0  0  0
  7 16  2  0  0  0  0
  8 17  1  0  0  0  0
  9 21  1  0  0  0  0
 10  1  1  6  0  0  0
 10 18  1  0  0  0  0
 10 12  1  0  0  0  0
 11 21  1  6  0  0  0
 11  6  1  0  0  0  0
 12 17  1  6  0  0  0
 12  6  1  0  0  0  0
 13 20  2  0  0  0  0
 14 15  1  1  0  0  0
 14 13  1  0  0  0  0
 14  5  1  0  0  0  0
 15 19  1  0  0  0  0
 18 20  1  6  0  0  0
 18 11  1  0  0  0  0
 19  3  2  0  0  0  0
 20  9  1  0  0  0  0
 22 23  1  0  0  0  0
 23 13  1  0  0  0  0
 24 26  1  0  0  0  0
 25 27  1  0  0  0  0
 25 24  2  0  0  0  0
 26 23  2  0  0  0  0
 27 22  2  0  0  0  0
 29 28  2  0  0  0  0
M  END
>  <MODEL>
5

>  <REMARK>
 VINA RESULT:      -7.5      3.245      6.060
  Name = 
  2 active torsions:
  status: ('A' for Active; 'I' for Inactive)
    1  A    between atoms: C_7  and  C_27
    2  A    between atoms: C_11  and  C_18
                            x       y       z     vdW  Elec       q    Type
                         _______ _______ _______ _____ _____    ______ ____

>  <TORSDO>
F 2

$$$$
=
 OpenBabel10222415533D

 29 35  0  0  1  0  0  0  0  0999 V2000
  188.4960  175.3110  136.9550 C   0  0  0  0  0  3  0  0  0  0  0  0
  188.1120  178.5730  141.2370 N   0  0  0  0  0  0  0  0  0  0  0  0
  189.3380  177.7190  143.1840 C   0  0  0  0  0  0  0  0  0  0  0  0
  190.0140  176.0530  144.4040 O   0  0  0  0  0  0  0  0  0  0  0  0
  189.4270  178.3340  141.8470 C   0  0  1  0  0  3  0  0  0  0  0  0
  186.0850  177.5140  137.1250 C   0  0  1  0  0  3  0  0  0  0  0  0
  189.3860  176.9170  145.1940 C   0  0  0  0  0  3  0  0  0  0  0  0
  187.4310  174.5570  136.3490 N   0  0  0  0  0  0  0  0  0  0  0  0
  187.9360  178.3500  139.9640 C   0  0  0  0  0  0  0  0  0  0  0  0
  188.1620  176.5920  136.9110 C   0  0  1  0  0  3  0  0  0  0  0  0
  187.0260  178.1740  138.0530 C   0  0  2  0  0  3  0  0  0  0  0  0
  186.8130  176.6300  136.4380 C   0  0  1  0  0  3  0  0  0  0  0  0
  189.9960  177.1150  139.6410 C   0  0  0  0  0  0  0  0  0  0  0  0
  190.1430  177.2010  141.1130 C   0  0  2  0  0  3  0  0  0  0  0  0
  190.4740  176.1660  141.9060 C   0  0  0  0  0  2  0  0  0  0  0  0
  188.9400  178.0330  144.4610 C   0  0  0  0  0  3  0  0  0  0  0  0
  186.4390  175.3130  136.0800 N   0  0  0  0  0  2  0  0  0  0  0  0
  188.2810  177.6350  137.9170 C   0  0  1  0  0  3  0  0  0  0  0  0
  189.9860  176.5650  143.2090 C   0  0  0  0  0  0  0  0  0  0  0  0
  188.8790  177.7030  139.1590 C   0  0  0  0  0  0  0  0  0  0  0  0
  186.7720  178.5850  139.3160 N   0  0  0  0  0  2  0  0  0  0  0  0
  190.7900  175.0980  138.3760 C   0  0  0  0  0  3  0  0  0  0  0  0
  190.9930  176.4250  138.7840 C   0  0  0  0  0  0  0  0  0  0  0  0
  193.1290  176.4240  137.6180 C   0  0  0  0  0  3  0  0  0  0  0  0
  192.9080  175.1070  137.2070 C   0  0  0  0  0  3  0  0  0  0  0  0
  192.1770  177.0780  138.4060 C   0  0  0  0  0  3  0  0  0  0  0  0
  191.7400  174.4440  137.5880 C   0  0  0  0  0  3  0  0  0  0  0  0
  183.9900  176.7980  138.1620 C   0  0  0  0  0  2  0  0  0  0  0  0
  184.6190  177.4850  137.2190 C   0  0  0  0  0  3  0  0  0  0  0  0
  3 19  2  0  0  0  0
  3 16  1  0  0  0  0
  4  7  1  0  0  0  0
  5  2  1  6  0  0  0
  5  3  1  0  0  0  0
  6 29  1  1  0  0  0
  6 11  1  0  0  0  0
  8  1  2  0  0  0  0
  9  2  2  0  0  0  0
 10  1  1  1  0  0  0
 10 18  1  0  0  0  0
 11 21  1  1  0  0  0
 12 17  1  1  0  0  0
 12 10  1  0  0  0  0
 12  6  1  0  0  0  0
 13 14  1  0  0  0  0
 14  5  1  0  0  0  0
 14 15  1  1  0  0  0
 15 19  1  0  0  0  0
 16  7  2  0  0  0  0
 17  8  1  0  0  0  0
 18 11  1  0  0  0  0
 18 20  1  1  0  0  0
 19  4  1  0  0  0  0
 20 13  2  0  0  0  0
 20  9  1  0  0  0  0
 21  9  1  0  0  0  0
 22 23  1  0  0  0  0
 23 13  1  0  0  0  0
 24 26  1  0  0  0  0
 25 27  1  0  0  0  0
 25 24  2  0  0  0  0
 26 23  2  0  0  0  0
 27 22  2  0  0  0  0
 29 28  2  0  0  0  0
M  END
>  <MODEL>
6

>  <REMARK>
 VINA RESULT:      -7.4      3.072      7.238
  Name = 
  2 active torsions:
  status: ('A' for Active; 'I' for Inactive)
    1  A    between atoms: C_7  and  C_27
    2  A    between atoms: C_11  and  C_18
                            x       y       z     vdW  Elec       q    Type
                         _______ _______ _______ _____ _____    ______ ____

>  <TORSDO>
F 2

$$$$
=
 OpenBabel10222415533D

 29 35  0  0  1  0  0  0  0  0999 V2000
  187.6020  175.6880  137.9460 C   0  0  0  0  0  3  0  0  0  0  0  0
  184.5200  179.1870  140.6620 N   0  0  0  0  0  0  0  0  0  0  0  0
  184.9020  179.0940  143.0850 C   0  0  0  0  0  0  0  0  0  0  0  0
  185.3440  177.9540  144.8820 O   0  0  0  0  0  0  0  0  0  0  0  0
  185.4300  179.5060  141.7720 C   0  0  1  0  0  3  0  0  0  0  0  0
  184.9120  176.9230  136.5570 C   0  0  1  0  0  3  0  0  0  0  0  0
  184.2340  178.6500  145.0960 C   0  0  0  0  0  3  0  0  0  0  0  0
  187.1540  174.5350  137.2110 N   0  0  0  0  0  0  0  0  0  0  0  0
  185.0020  178.7390  139.5360 C   0  0  0  0  0  0  0  0  0  0  0  0
  187.0160  176.7550  137.4220 C   0  0  1  0  0  3  0  0  0  0  0  0
  185.1320  177.9920  137.5520 C   0  0  2  0  0  3  0  0  0  0  0  0
  186.0660  176.2570  136.4770 C   0  0  1  0  0  3  0  0  0  0  0  0
  187.2200  178.2590  140.3860 C   0  0  0  0  0  0  0  0  0  0  0  0
  186.6580  178.5980  141.7150 C   0  0  2  0  0  3  0  0  0  0  0  0
  186.8410  177.8640  142.8280 C   0  0  0  0  0  2  0  0  0  0  0  0
  183.9050  179.4280  143.9700 C   0  0  0  0  0  3  0  0  0  0  0  0
  186.2370  174.8550  136.3830 N   0  0  0  0  0  2  0  0  0  0  0  0
  186.4030  177.9060  138.0640 C   0  0  1  0  0  3  0  0  0  0  0  0
  185.7330  178.2500  143.6760 C   0  0  0  0  0  0  0  0  0  0  0  0
  186.3350  178.3510  139.3690 C   0  0  0  0  0  0  0  0  0  0  0  0
  184.2400  178.4630  138.4520 N   0  0  0  0  0  2  0  0  0  0  0  0
  189.2790  177.0650  141.1800 C   0  0  0  0  0  3  0  0  0  0  0  0
  188.6330  177.8430  140.2070 C   0  0  0  0  0  0  0  0  0  0  0  0
  190.6970  177.8860  138.9180 C   0  0  0  0  0  3  0  0  0  0  0  0
  191.3240  177.1010  139.8880 C   0  0  0  0  0  3  0  0  0  0  0  0
  189.3590  178.2590  139.0790 C   0  0  0  0  0  3  0  0  0  0  0  0
  190.6160  176.6920  141.0200 C   0  0  0  0  0  3  0  0  0  0  0  0
  182.8080  175.7180  136.8750 C   0  0  0  0  0  2  0  0  0  0  0  0
  183.6210  176.4030  136.0840 C   0  0  0  0  0  3  0  0  0  0  0  0
  3 19  2  0  0  0  0
  3 16  1  0  0  0  0
  4  7  1  0  0  0  0
  5  2  1  6  0  0  0
  5  3  1  0  0  0  0
  6 29  1  1  0  0  0
  6 11  1  0  0  0  0
  8  1  2  0  0  0  0
  9  2  2  0  0  0  0
 10  1  1  1  0  0  0
 10 18  1  0  0  0  0
 11 18  1  0  0  0  0
 11 21  1  1  0  0  0
 12 17  1  1  0  0  0
 12  6  1  0  0  0  0
 12 10  1  0  0  0  0
 13 14  1  0  0  0  0
 14  5  1  0  0  0  0
 14 15  1  6  0  0  0
 15 19  1  0  0  0  0
 16  7  2  0  0  0  0
 17  8  1  0  0  0  0
 18 20  1  1  0  0  0
 19  4  1  0  0  0  0
 20  9  1  0  0  0  0
 20 13  2  0  0  0  0
 21  9  1  0  0  0  0
 23 13  1  0  0  0  0
 23 22  2  0  0  0  0
 24 26  2  0  0  0  0
 24 25  1  0  0  0  0
 25 27  2  0  0  0  0
 26 23  1  0  0  0  0
 27 22  1  0  0  0  0
 29 28  2  0  0  0  0
M  END
>  <MODEL>
7

>  <REMARK>
 VINA RESULT:      -7.3      2.596      5.618
  Name = 
  2 active torsions:
  status: ('A' for Active; 'I' for Inactive)
    1  A    between atoms: C_7  and  C_27
    2  A    between atoms: C_11  and  C_18
                            x       y       z     vdW  Elec       q    Type
                         _______ _______ _______ _____ _____    ______ ____

>  <TORSDO>
F 2

$$$$
=
 OpenBabel10222415533D

 29 35  0  0  1  0  0  0  0  0999 V2000
  182.3520  178.6280  141.8470 C   0  0  0  0  0  3  0  0  0  0  0  0
  187.2730  178.0210  139.7170 N   0  0  0  0  0  0  0  0  0  0  0  0
  187.2340  176.7890  137.5950 C   0  0  0  0  0  0  0  0  0  0  0  0
  186.4020  175.2240  136.3380 O   0  0  0  0  0  0  0  0  0  0  0  0
  186.9280  178.0530  138.2890 C   0  0  1  0  0  3  0  0  0  0  0  0
  185.0040  178.9580  143.7320 C   0  0  1  0  0  3  0  0  0  0  0  0
  187.7160  175.0480  136.4020 C   0  0  0  0  0  3  0  0  0  0  0  0
  181.8620  178.0400  143.0660 N   0  0  0  0  0  0  0  0  0  0  0  0
  186.4760  178.5740  140.5910 C   0  0  0  0  0  0  0  0  0  0  0  0
  183.4100  179.3650  142.1500 C   0  0  1  0  0  3  0  0  0  0  0  0
  185.6470  179.2340  142.4310 C   0  0  2  0  0  3  0  0  0  0  0  0
  183.6920  179.1010  143.5270 C   0  0  1  0  0  3  0  0  0  0  0  0
  184.5960  178.8320  139.0840 C   0  0  0  0  0  0  0  0  0  0  0  0
  185.4090  178.0530  138.1210 C   0  0  2  0  0  3  0  0  0  0  0  0
  184.9450  177.0220  137.3920 C   0  0  0  0  0  2  0  0  0  0  0  0
  188.3180  176.0470  137.1900 C   0  0  0  0  0  3  0  0  0  0  0  0
  182.6560  178.2820  144.0350 N   0  0  0  0  0  2  0  0  0  0  0  0
  184.6930  179.4960  141.4790 C   0  0  1  0  0  3  0  0  0  0  0  0
  186.1410  176.2830  137.0470 C   0  0  0  0  0  0  0  0  0  0  0  0
  185.1950  179.0390  140.2770 C   0  0  0  0  0  0  0  0  0  0  0  0
  186.7400  178.6280  141.9160 N   0  0  0  0  0  2  0  0  0  0  0  0
  182.2060  178.4230  138.4350 C   0  0  0  0  0  3  0  0  0  0  0  0
  183.2340  179.3230  138.7560 C   0  0  0  0  0  0  0  0  0  0  0  0
  181.6900  181.1680  138.3880 C   0  0  0  0  0  3  0  0  0  0  0  0
  180.6720  180.2610  138.0850 C   0  0  0  0  0  3  0  0  0  0  0  0
  182.9660  180.7010  138.7190 C   0  0  0  0  0  3  0  0  0  0  0  0
  180.9310  178.8880  138.1060 C   0  0  0  0  0  3  0  0  0  0  0  0
  185.6720  178.8110  146.0790 C   0  0  0  0  0  2  0  0  0  0  0  0
  185.5910  178.2530  144.8790 C   0  0  0  0  0  3  0  0  0  0  0  0
  1  8  2  0  0  0  0
  2  9  2  0  0  0  0
  4  7  1  0  0  0  0
  4 19  1  0  0  0  0
  5  3  1  6  0  0  0
  5  2  1  0  0  0  0
  6 29  1  6  0  0  0
  7 16  2  0  0  0  0
  8 17  1  0  0  0  0
  9 21  1  0  0  0  0
 10  1  1  6  0  0  0
 10 12  1  0  0  0  0
 11 21  1  6  0  0  0
 11  6  1  0  0  0  0
 12  6  1  0  0  0  0
 12 17  1  6  0  0  0
 13 20  2  0  0  0  0
 14 15  1  1  0  0  0
 14  5  1  0  0  0  0
 14 13  1  0  0  0  0
 16  3  1  0  0  0  0
 18 20  1  6  0  0  0
 18 10  1  0  0  0  0
 18 11  1  0  0  0  0
 19 15  1  0  0  0  0
 19  3  2  0  0  0  0
 20  9  1  0  0  0  0
 22 23  1  0  0  0  0
 23 13  1  0  0  0  0
 24 26  1  0  0  0  0
 25 27  1  0  0  0  0
 25 24  2  0  0  0  0
 26 23  2  0  0  0  0
 27 22  2  0  0  0  0
 29 28  2  0  0  0  0
M  END
>  <MODEL>
8

>  <REMARK>
 VINA RESULT:      -7.1      2.751      5.997
  Name = 
  2 active torsions:
  status: ('A' for Active; 'I' for Inactive)
    1  A    between atoms: C_7  and  C_27
    2  A    between atoms: C_11  and  C_18
                            x       y       z     vdW  Elec       q    Type
                         _______ _______ _______ _____ _____    ______ ____

>  <TORSDO>
F 2

$$$$
=
 OpenBabel10222415533D

 29 35  0  0  1  0  0  0  0  0999 V2000
  189.3040  173.1210  135.8820 C   0  0  0  0  0  3  0  0  0  0  0  0
  187.5560  177.5010  138.5050 N   0  0  0  0  0  0  0  0  0  0  0  0
  188.8700  177.9770  140.5230 C   0  0  0  0  0  0  0  0  0  0  0  0
  189.9900  177.2820  142.2510 O   0  0  0  0  0  0  0  0  0  0  0  0
  188.8310  177.9870  139.0490 C   0  0  1  0  0  3  0  0  0  0  0  0
  186.2820  174.2530  135.3480 C   0  0  1  0  0  3  0  0  0  0  0  0
  189.0560  178.1260  142.6740 C   0  0  0  0  0  3  0  0  0  0  0  0
  188.6000  171.8770  135.7190 N   0  0  0  0  0  0  0  0  0  0  0  0
  187.5500  176.7360  137.4480 C   0  0  0  0  0  0  0  0  0  0  0  0
  188.5580  174.0800  135.3530 C   0  0  1  0  0  3  0  0  0  0  0  0
  186.8800  175.5070  135.8520 C   0  0  2  0  0  3  0  0  0  0  0  0
  187.3100  173.4670  135.0180 C   0  0  1  0  0  3  0  0  0  0  0  0
  189.9230  176.2470  137.4810 C   0  0  0  0  0  0  0  0  0  0  0  0
  189.9360  176.9660  138.7770 C   0  0  2  0  0  3  0  0  0  0  0  0
  190.5460  176.5200  139.8890 C   0  0  0  0  0  2  0  0  0  0  0  0
  188.3060  178.6280  141.5940 C   0  0  0  0  0  3  0  0  0  0  0  0
  187.4300  172.0760  135.2520 N   0  0  0  0  0  2  0  0  0  0  0  0
  188.2500  175.4140  135.8410 C   0  0  1  0  0  3  0  0  0  0  0  0
  189.8670  177.2230  140.9570 C   0  0  0  0  0  0  0  0  0  0  0  0
  188.7060  176.1760  136.8970 C   0  0  0  0  0  0  0  0  0  0  0  0
  186.4200  176.2820  136.8590 N   0  0  0  0  0  2  0  0  0  0  0  0
  191.8700  174.6680  137.5930 C   0  0  0  0  0  3  0  0  0  0  0  0
  191.1480  175.6490  136.8960 C   0  0  0  0  0  0  0  0  0  0  0  0
  192.7960  175.5420  135.1080 C   0  0  0  0  0  3  0  0  0  0  0  0
  193.4970  174.5560  135.8060 C   0  0  0  0  0  3  0  0  0  0  0  0
  191.6300  176.0890  135.6520 C   0  0  0  0  0  3  0  0  0  0  0  0
  193.0350  174.1210  137.0500 C   0  0  0  0  0  3  0  0  0  0  0  0
  184.5110  173.2970  136.7370 C   0  0  0  0  0  2  0  0  0  0  0  0
  184.9100  173.7740  135.5660 C   0  0  0  0  0  3  0  0  0  0  0  0
  3 19  2  0  0  0  0
  3 16  1  0  0  0  0
  4  7  1  0  0  0  0
  5  2  1  1  0  0  0
  5  3  1  0  0  0  0
  6 29  1  1  0  0  0
  6 11  1  0  0  0  0
  8  1  2  0  0  0  0
  9  2  2  0  0  0  0
 10 18  1  0  0  0  0
 10  1  1  1  0  0  0
 11 21  1  1  0  0  0
 12 17  1  1  0  0  0
 12  6  1  0  0  0  0
 12 10  1  0  0  0  0
 13 14  1  0  0  0  0
 14  5  1  0  0  0  0
 14 15  1  1  0  0  0
 15 19  1  0  0  0  0
 16  7  2  0  0  0  0
 17  8  1  0  0  0  0
 18 11  1  0  0  0  0
 18 20  1  1  0  0  0
 19  4  1  0  0  0  0
 20  9  1  0  0  0  0
 20 13  2  0  0  0  0
 21  9  1  0  0  0  0
 23 13  1  0  0  0  0
 23 22  2  0  0  0  0
 24 26  2  0  0  0  0
 24 25  1  0  0  0  0
 25 27  2  0  0  0  0
 26 23  1  0  0  0  0
 27 22  1  0  0  0  0
 29 28  2  0  0  0  0
M  END
>  <MODEL>
9

>  <REMARK>
 VINA RESULT:      -7.1      4.306      8.021
  Name = 
  2 active torsions:
  status: ('A' for Active; 'I' for Inactive)
    1  A    between atoms: C_7  and  C_27
    2  A    between atoms: C_11  and  C_18
                            x       y       z     vdW  Elec       q    Type
                         _______ _______ _______ _____ _____    ______ ____

>  <TORSDO>
F 2

$$$$
