=
 OpenBabel10222420103D

 46 48  0  0  1  0  0  0  0  0999 V2000
  189.0470  176.7530  143.1410 C   0  0  1  0  0  3  0  0  0  0  0  0
  188.9940  177.9920  140.7700 C   0  0  0  0  0  0  0  0  0  0  0  0
  189.0120  177.4520  141.8490 C   0  0  0  0  0  0  0  0  0  0  0  0
  188.9860  178.6080  139.4390 C   0  0  0  0  0  2  0  0  0  0  0  0
  190.1010  174.7830  137.1560 C   0  0  0  0  0  0  0  0  0  0  0  0
  189.0460  174.2240  136.6150 N   0  0  0  0  0  0  0  0  0  0  0  0
  188.2030  177.8100  138.5010 N   0  0  0  0  0  0  0  0  0  0  0  0
  188.6470  176.7320  137.8250 C   0  0  0  0  0  0  0  0  0  0  0  0
  186.8590  177.8300  138.3230 C   0  0  0  0  0  0  0  0  0  0  0  0
  187.6080  176.0980  137.2160 C   0  0  0  0  0  0  0  0  0  0  0  0
  191.3470  174.0770  137.0820 N   0  0  0  0  0  2  0  0  0  0  0  0
  187.7650  174.8170  136.6210 N   0  0  0  0  0  2  0  0  0  0  0  0
  186.4510  176.7760  137.5140 C   0  0  0  0  0  0  0  0  0  0  0  0
  192.7380  175.6390  138.1520 O   0  0  0  0  0  0  0  0  0  0  0  0
  192.6170  174.5240  137.5750 C   0  0  0  0  0  0  0  0  0  0  0  0
  190.0240  176.1440  137.8570 C   0  0  0  0  0  2  0  0  0  0  0  0
  185.9770  178.7220  138.9970 N   0  0  0  0  0  1  0  0  0  0  0  0
  185.0550  176.3630  137.1980 C   0  0  0  0  0  1  0  0  0  0  0  0
  194.9910  174.2530  138.1550 C   0  0  0  0  0  1  0  0  0  0  0  0
  193.8240  173.6520  137.3730 C   0  0  2  0  0  3  0  0  0  0  0  0
  194.6530  174.7880  135.4490 C   0  0  0  0  0  1  0  0  0  0  0  0
  195.2580  172.5900  135.8000 C   0  0  0  0  0  1  0  0  0  0  0  0
  194.1420  173.5150  135.9410 N   0  0  0  0  0  0  0  0  0  0  0  0
  189.8750  177.5690  144.1290 C   0  0  0  0  0  2  0  0  0  0  0  0
  190.9230  176.7110  144.8270 C   0  0  0  0  0  2  0  0  0  0  0  0
  191.0900  177.1350  146.2130 N   0  0  0  0  0  0  0  0  0  0  0  0
  192.2160  176.5550  146.6970 O   0  0  0  0  0  1  0  0  0  0  0  0
  189.3860  177.7390  147.9330 C   0  0  0  0  0  1  0  0  0  0  0  0
  189.9480  176.6650  146.9990 C   0  0  0  0  0  2  0  0  0  0  0  0
  187.6290  176.5630  143.6720 C   0  0  0  0  0  2  0  0  0  0  0  0
  187.3650  177.4630  144.8420 C   0  0  0  0  0  2  0  0  0  0  0  0
  186.2340  178.1460  144.9720 C   0  0  0  0  0  3  0  0  0  0  0  0
  185.2130  178.1000  143.9740 N   0  0  0  0  0  0  0  0  0  0  0  0
  183.9330  178.7100  144.1740 C   0  0  0  0  0  0  0  0  0  0  0  0
  183.6110  179.1600  145.3100 O   0  0  0  0  0  0  0  0  0  0  0  0
  182.9910  178.8130  143.0540 C   0  0  0  0  0  0  0  0  0  0  0  0
  181.1870  179.0350  141.9650 C   0  0  1  0  0  3  0  0  0  0  0  0
  179.7410  179.1880  141.6350 C   0  0  0  0  0  1  0  0  0  0  0  0
  181.6710  179.0520  143.2190 N   0  0  0  0  0  0  0  0  0  0  0  0
  183.3590  178.6470  141.7620 N   0  0  0  0  0  0  0  0  0  0  0  0
  182.2160  178.7960  141.0790 C   0  0  0  0  0  0  0  0  0  0  0  0
  182.1250  178.6520  139.5880 C   0  0  0  0  0  2  0  0  0  0  0  0
  182.6350  179.8700  138.8770 C   0  0  0  0  0  3  0  0  0  0  0  0
  181.8440  180.7890  138.3040 C   0  0  0  0  0  3  0  0  0  0  0  0
  180.3500  180.7000  138.3210 C   0  0  0  0  0  2  0  0  0  0  0  0
  179.7760  181.9150  139.0240 C   0  0  0  0  0  1  0  0  0  0  0  0
  1  3  1  6  0  0  0
  1 30  1  0  0  0  0
  1 24  1  0  0  0  0
  2  3  3  0  0  0  0
  4  2  1  0  0  0  0
  5 16  1  0  0  0  0
  6 12  1  0  0  0  0
  6  5  2  0  0  0  0
  7  4  1  0  0  0  0
  8 16  1  0  0  0  0
  8  7  1  0  0  0  0
  9  7  1  0  0  0  0
  9 17  1  0  0  0  0
 10 13  1  0  0  0  0
 10  8  2  0  0  0  0
 11  5  1  0  0  0  0
 11 15  1  0  0  0  0
 12 10  1  0  0  0  0
 13  9  2  0  0  0  0
 15 14  2  0  0  0  0
 18 13  1  0  0  0  0
 20 15  1  0  0  0  0
 20 19  1  1  0  0  0
 21 23  1  0  0  0  0
 22 23  1  0  0  0  0
 23 20  1  0  0  0  0
 24 25  1  0  0  0  0
 25 26  1  0  0  0  0
 26 27  1  0  0  0  0
 26 29  1  0  0  0  0
 29 28  1  0  0  0  0
 30 31  1  0  0  0  0
 31 32  1  0  0  0  0
 33 34  1  0  0  0  0
 33 32  2  0  0  0  0
 34 35  2  0  0  0  0
 36 39  2  0  0  0  0
 36 34  1  0  0  0  0
 37 38  1  1  0  0  0
 37 39  1  0  0  0  0
 40 36  1  0  0  0  0
 41 40  2  0  0  0  0
 41 37  1  0  0  0  0
 42 41  1  0  0  0  0
 43 42  1  0  0  0  0
 44 45  1  0  0  0  0
 44 43  2  0  0  0  0
 45 46  1  0  0  0  0
M  END
>  <MODEL>
1

>  <REMARK>
 VINA RESULT:      -7.9      0.000      0.000
  Name = 
  16 active torsions:
  status: ('A' for Active; 'I' for Inactive)
    1  A    between atoms: N_2  and  C_28
    2  A    between atoms: N_2  and  C_45
    3  A    between atoms: C_3  and  C_19
    4  A    between atoms: C_4  and  C_27
    5  A    between atoms: C_5  and  C_25
    6  A    between atoms: N_9  and  C_14
    7  A    between atoms: N_12  and  C_46
    8  A    between atoms: C_13  and  C_15
    9  A    between atoms: C_17  and  C_46
   10  A    between atoms: C_18  and  C_20
   11  A    between atoms: C_18  and  C_28
   12  A    between atoms: C_19  and  C_20
   13  A    between atoms: C_20  and  C_41
   14  A    between atoms: C_21  and  N_34
   15  A    between atoms: C_21  and  C_38
   16  A    between atoms: C_27  and  C_32
                            x       y       z     vdW  Elec       q    Type
                         _______ _______ _______ _____ _____    ______ ____

>  <TORSDO>
F 16

$$$$
=
 OpenBabel10222420103D

 46 48  0  0  1  0  0  0  0  0999 V2000
  189.3840  176.6740  143.0950 C   0  0  1  0  0  3  0  0  0  0  0  0
  189.2960  177.9180  140.7280 C   0  0  0  0  0  0  0  0  0  0  0  0
  189.3170  177.3670  141.8020 C   0  0  0  0  0  0  0  0  0  0  0  0
  189.3100  178.5670  139.4130 C   0  0  0  0  0  2  0  0  0  0  0  0
  191.1960  175.0180  137.1910 C   0  0  0  0  0  0  0  0  0  0  0  0
  190.2930  174.3230  136.5450 N   0  0  0  0  0  0  0  0  0  0  0  0
  188.7460  177.6880  138.3930 N   0  0  0  0  0  0  0  0  0  0  0  0
  189.4090  176.7080  137.7470 C   0  0  0  0  0  0  0  0  0  0  0  0
  187.4370  177.5120  138.0880 C   0  0  0  0  0  0  0  0  0  0  0  0
  188.5380  175.9440  137.0330 C   0  0  0  0  0  0  0  0  0  0  0  0
  192.5370  174.5080  137.2260 N   0  0  0  0  0  2  0  0  0  0  0  0
  188.9410  174.7180  136.4370 N   0  0  0  0  0  2  0  0  0  0  0  0
  187.2700  176.4330  137.2290 C   0  0  0  0  0  0  0  0  0  0  0  0
  193.5710  176.2290  138.4460 O   0  0  0  0  0  0  0  0  0  0  0  0
  193.6730  175.1250  137.8440 C   0  0  0  0  0  0  0  0  0  0  0  0
  190.8500  176.3320  137.9010 C   0  0  0  0  0  2  0  0  0  0  0  0
  186.3730  178.2430  138.6880 N   0  0  0  0  0  1  0  0  0  0  0  0
  185.9880  175.8250  136.7760 C   0  0  0  0  0  1  0  0  0  0  0  0
  195.5630  174.2600  139.1580 C   0  0  0  0  0  1  0  0  0  0  0  0
  195.0120  174.4490  137.7450 C   0  0  2  0  0  3  0  0  0  0  0  0
  197.2650  174.6430  136.9950 C   0  0  0  0  0  1  0  0  0  0  0  0
  195.5500  175.0520  135.5080 C   0  0  0  0  0  1  0  0  0  0  0  0
  195.9350  175.2280  136.9020 N   0  0  0  0  0  0  0  0  0  0  0  0
  190.2470  177.4860  144.0540 C   0  0  0  0  0  2  0  0  0  0  0  0
  191.4080  176.6640  144.6000 C   0  0  0  0  0  2  0  0  0  0  0  0
  191.1120  176.1940  145.9490 N   0  0  0  0  0  0  0  0  0  0  0  0
  190.8050  177.2720  146.7120 O   0  0  0  0  0  1  0  0  0  0  0  0
  192.4560  175.7800  148.0110 C   0  0  0  0  0  1  0  0  0  0  0  0
  192.3040  175.5520  146.5050 C   0  0  0  0  0  2  0  0  0  0  0  0
  187.9800  176.4990  143.6680 C   0  0  0  0  0  2  0  0  0  0  0  0
  187.7700  177.3820  144.8610 C   0  0  0  0  0  2  0  0  0  0  0  0
  186.6300  178.0280  145.0760 C   0  0  0  0  0  3  0  0  0  0  0  0
  185.5430  177.9550  144.1500 N   0  0  0  0  0  0  0  0  0  0  0  0
  184.3260  178.6800  144.3560 C   0  0  0  0  0  0  0  0  0  0  0  0
  184.1120  179.2720  145.4520 O   0  0  0  0  0  0  0  0  0  0  0  0
  183.3210  178.7350  143.2880 C   0  0  0  0  0  0  0  0  0  0  0  0
  181.4610  178.9400  142.2950 C   0  0  1  0  0  3  0  0  0  0  0  0
  180.0020  179.1150  142.0400 C   0  0  0  0  0  1  0  0  0  0  0  0
  182.0200  179.0260  143.5140 N   0  0  0  0  0  0  0  0  0  0  0  0
  183.6050  178.4700  141.9930 N   0  0  0  0  0  0  0  0  0  0  0  0
  182.4270  178.6080  141.3680 C   0  0  0  0  0  0  0  0  0  0  0  0
  182.2420  178.3650  139.8990 C   0  0  0  0  0  2  0  0  0  0  0  0
  182.8870  177.0840  139.4610 C   0  0  0  0  0  3  0  0  0  0  0  0
  182.2460  175.9070  139.3920 C   0  0  0  0  0  3  0  0  0  0  0  0
  180.8000  175.7480  139.7430 C   0  0  0  0  0  2  0  0  0  0  0  0
  180.2110  174.5880  138.9620 C   0  0  0  0  0  1  0  0  0  0  0  0
  1  3  1  6  0  0  0
  1 30  1  0  0  0  0
  1 24  1  0  0  0  0
  2  3  3  0  0  0  0
  4  2  1  0  0  0  0
  5 11  1  0  0  0  0
  5 16  1  0  0  0  0
  6  5  2  0  0  0  0
  7  4  1  0  0  0  0
  8 16  1  0  0  0  0
  8  7  1  0  0  0  0
  9  7  1  0  0  0  0
  9 17  1  0  0  0  0
 10 13  1  0  0  0  0
 10  8  2  0  0  0  0
 11 15  1  0  0  0  0
 12  6  1  0  0  0  0
 12 10  1  0  0  0  0
 13  9  2  0  0  0  0
 15 14  2  0  0  0  0
 18 13  1  0  0  0  0
 20 15  1  0  0  0  0
 20 19  1  1  0  0  0
 22 23  1  0  0  0  0
 23 21  1  0  0  0  0
 23 20  1  0  0  0  0
 24 25  1  0  0  0  0
 25 26  1  0  0  0  0
 26 29  1  0  0  0  0
 26 27  1  0  0  0  0
 29 28  1  0  0  0  0
 30 31  1  0  0  0  0
 31 32  1  0  0  0  0
 33 34  1  0  0  0  0
 33 32  2  0  0  0  0
 34 35  2  0  0  0  0
 36 39  2  0  0  0  0
 36 34  1  0  0  0  0
 37 38  1  1  0  0  0
 37 39  1  0  0  0  0
 40 36  1  0  0  0  0
 41 40  2  0  0  0  0
 41 37  1  0  0  0  0
 42 41  1  0  0  0  0
 43 42  1  0  0  0  0
 44 43  2  0  0  0  0
 44 45  1  0  0  0  0
 46 45  1  0  0  0  0
M  END
>  <MODEL>
2

>  <REMARK>
 VINA RESULT:      -7.8      1.425      1.986
  Name = 
  16 active torsions:
  status: ('A' for Active; 'I' for Inactive)
    1  A    between atoms: N_2  and  C_28
    2  A    between atoms: N_2  and  C_45
    3  A    between atoms: C_3  and  C_19
    4  A    between atoms: C_4  and  C_27
    5  A    between atoms: C_5  and  C_25
    6  A    between atoms: N_9  and  C_14
    7  A    between atoms: N_12  and  C_46
    8  A    between atoms: C_13  and  C_15
    9  A    between atoms: C_17  and  C_46
   10  A    between atoms: C_18  and  C_20
   11  A    between atoms: C_18  and  C_28
   12  A    between atoms: C_19  and  C_20
   13  A    between atoms: C_20  and  C_41
   14  A    between atoms: C_21  and  N_34
   15  A    between atoms: C_21  and  C_38
   16  A    between atoms: C_27  and  C_32
                            x       y       z     vdW  Elec       q    Type
                         _______ _______ _______ _____ _____    ______ ____

>  <TORSDO>
F 16

$$$$
=
 OpenBabel10222420103D

 46 48  0  0  1  0  0  0  0  0999 V2000
  184.0580  179.3800  144.1490 C   0  0  1  0  0  3  0  0  0  0  0  0
  181.7200  179.0170  142.9010 C   0  0  0  0  0  0  0  0  0  0  0  0
  182.7640  179.1890  143.4810 C   0  0  0  0  0  0  0  0  0  0  0  0
  180.4740  178.7910  142.1590 C   0  0  0  0  0  2  0  0  0  0  0  0
  181.5860  177.9170  137.7910 C   0  0  0  0  0  0  0  0  0  0  0  0
  181.1420  178.8520  136.9880 N   0  0  0  0  0  0  0  0  0  0  0  0
  180.4070  179.6500  140.9820 N   0  0  0  0  0  0  0  0  0  0  0  0
  180.8250  179.3190  139.7440 C   0  0  0  0  0  0  0  0  0  0  0  0
  179.7090  180.8040  140.8400 C   0  0  0  0  0  0  0  0  0  0  0  0
  180.4150  180.2550  138.8440 C   0  0  0  0  0  0  0  0  0  0  0  0
  182.1870  176.7550  137.2010 N   0  0  0  0  0  2  0  0  0  0  0  0
  180.5320  180.0410  137.4440 N   0  0  0  0  0  2  0  0  0  0  0  0
  179.7010  181.2180  139.5140 C   0  0  0  0  0  0  0  0  0  0  0  0
  182.7780  175.5940  139.1560 O   0  0  0  0  0  0  0  0  0  0  0  0
  182.7620  175.6410  137.8960 C   0  0  0  0  0  0  0  0  0  0  0  0
  181.4690  178.0370  139.3150 C   0  0  0  0  0  2  0  0  0  0  0  0
  178.9630  181.4180  141.8860 N   0  0  0  0  0  1  0  0  0  0  0  0
  178.9310  182.3470  138.9210 C   0  0  0  0  0  1  0  0  0  0  0  0
  182.3530  173.3980  136.9720 C   0  0  0  0  0  1  0  0  0  0  0  0
  183.3780  174.5260  137.0980 C   0  0  2  0  0  3  0  0  0  0  0  0
  184.7080  172.6090  137.5860 C   0  0  0  0  0  1  0  0  0  0  0  0
  185.7510  174.5650  136.9500 C   0  0  0  0  0  1  0  0  0  0  0  0
  184.6260  174.0570  137.7230 N   0  0  0  0  0  0  0  0  0  0  0  0
  184.0500  178.6340  145.4790 C   0  0  0  0  0  2  0  0  0  0  0  0
  185.3940  177.9720  145.7610 C   0  0  0  0  0  2  0  0  0  0  0  0
  185.8570  178.3080  147.1030 N   0  0  0  0  0  0  0  0  0  0  0  0
  185.6400  179.6310  147.3040 O   0  0  0  0  0  1  0  0  0  0  0  0
  187.9020  177.5960  145.8630 C   0  0  0  0  0  1  0  0  0  0  0  0
  187.2950  178.0520  147.1910 C   0  0  0  0  0  2  0  0  0  0  0  0
  185.1860  178.8620  143.2610 C   0  0  0  0  0  2  0  0  0  0  0  0
  184.9090  179.1450  141.8150 C   0  0  0  0  0  2  0  0  0  0  0  0
  185.7980  178.9000  140.8590 C   0  0  0  0  0  3  0  0  0  0  0  0
  187.0980  178.3910  141.1610 N   0  0  0  0  0  0  0  0  0  0  0  0
  188.1000  178.2340  140.1500 C   0  0  0  0  0  0  0  0  0  0  0  0
  187.8060  178.3810  138.9300 O   0  0  0  0  0  0  0  0  0  0  0  0
  189.4770  177.9000  140.5330 C   0  0  0  0  0  0  0  0  0  0  0  0
  191.5320  177.4040  140.3960 C   0  0  1  0  0  3  0  0  0  0  0  0
  192.8680  177.0430  139.8420 C   0  0  0  0  0  1  0  0  0  0  0  0
  190.4690  177.7160  139.6350 N   0  0  0  0  0  0  0  0  0  0  0  0
  189.8620  177.7200  141.8180 N   0  0  0  0  0  0  0  0  0  0  0  0
  191.1640  177.4140  141.7250 C   0  0  0  0  0  0  0  0  0  0  0  0
  192.0170  177.0820  142.9140 C   0  0  0  0  0  2  0  0  0  0  0  0
  191.4920  175.8920  143.6620 C   0  0  0  0  0  3  0  0  0  0  0  0
  191.3220  175.8590  144.9920 C   0  0  0  0  0  3  0  0  0  0  0  0
  191.6320  177.0230  145.8800 C   0  0  0  0  0  2  0  0  0  0  0  0
  191.1840  176.7160  147.2970 C   0  0  0  0  0  1  0  0  0  0  0  0
  1 30  1  6  0  0  0
  1 24  1  0  0  0  0
  2  3  3  0  0  0  0
  3  1  1  0  0  0  0
  4  2  1  0  0  0  0
  5 16  1  0  0  0  0
  6 12  1  0  0  0  0
  6  5  2  0  0  0  0
  7  4  1  0  0  0  0
  8  7  1  0  0  0  0
  9  7  1  0  0  0  0
  9 17  1  0  0  0  0
 10 13  1  0  0  0  0
 10  8  2  0  0  0  0
 11  5  1  0  0  0  0
 11 15  1  0  0  0  0
 12 10  1  0  0  0  0
 13  9  2  0  0  0  0
 15 14  2  0  0  0  0
 16  8  1  0  0  0  0
 18 13  1  0  0  0  0
 20 19  1  1  0  0  0
 20 23  1  0  0  0  0
 20 15  1  0  0  0  0
 21 23  1  0  0  0  0
 22 23  1  0  0  0  0
 24 25  1  0  0  0  0
 25 26  1  0  0  0  0
 26 29  1  0  0  0  0
 26 27  1  0  0  0  0
 28 29  1  0  0  0  0
 31 30  1  0  0  0  0
 32 33  2  0  0  0  0
 32 31  1  0  0  0  0
 34 36  1  0  0  0  0
 34 33  1  0  0  0  0
 35 34  2  0  0  0  0
 36 40  1  0  0  0  0
 37 38  1  6  0  0  0
 37 41  1  0  0  0  0
 39 37  1  0  0  0  0
 39 36  2  0  0  0  0
 41 40  2  0  0  0  0
 41 42  1  0  0  0  0
 42 43  1  0  0  0  0
 43 44  2  0  0  0  0
 44 45  1  0  0  0  0
 45 46  1  0  0  0  0
M  END
>  <MODEL>
3

>  <REMARK>
 VINA RESULT:      -7.8      3.205      8.823
  Name = 
  16 active torsions:
  status: ('A' for Active; 'I' for Inactive)
    1  A    between atoms: N_2  and  C_28
    2  A    between atoms: N_2  and  C_45
    3  A    between atoms: C_3  and  C_19
    4  A    between atoms: C_4  and  C_27
    5  A    between atoms: C_5  and  C_25
    6  A    between atoms: N_9  and  C_14
    7  A    between atoms: N_12  and  C_46
    8  A    between atoms: C_13  and  C_15
    9  A    between atoms: C_17  and  C_46
   10  A    between atoms: C_18  and  C_20
   11  A    between atoms: C_18  and  C_28
   12  A    between atoms: C_19  and  C_20
   13  A    between atoms: C_20  and  C_41
   14  A    between atoms: C_21  and  N_34
   15  A    between atoms: C_21  and  C_38
   16  A    between atoms: C_27  and  C_32
                            x       y       z     vdW  Elec       q    Type
                         _______ _______ _______ _____ _____    ______ ____

>  <TORSDO>
F 16

$$$$
=
 OpenBabel10222420103D

 46 48  0  0  1  0  0  0  0  0999 V2000
  183.0810  179.1750  143.0060 C   0  0  1  0  0  3  0  0  0  0  0  0
  180.5150  178.7210  142.3990 C   0  0  0  0  0  0  0  0  0  0  0  0
  181.6660  178.9330  142.6930 C   0  0  0  0  0  0  0  0  0  0  0  0
  179.1300  178.4490  142.0000 C   0  0  0  0  0  2  0  0  0  0  0  0
  179.5920  179.5970  137.5790 C   0  0  0  0  0  0  0  0  0  0  0  0
  179.7530  178.5380  136.8240 N   0  0  0  0  0  0  0  0  0  0  0  0
  179.0870  177.6160  140.8030 N   0  0  0  0  0  0  0  0  0  0  0  0
  179.1670  178.0620  139.5330 C   0  0  0  0  0  0  0  0  0  0  0  0
  179.2150  176.2680  140.7310 C   0  0  0  0  0  0  0  0  0  0  0  0
  179.3200  177.0150  138.6770 C   0  0  0  0  0  0  0  0  0  0  0  0
  179.7260  180.8860  136.9640 N   0  0  0  0  0  2  0  0  0  0  0  0
  179.6460  177.2160  137.3090 N   0  0  0  0  0  2  0  0  0  0  0  0
  179.3540  175.8550  139.4110 C   0  0  0  0  0  0  0  0  0  0  0  0
  179.2640  182.2480  138.8220 O   0  0  0  0  0  0  0  0  0  0  0  0
  179.5560  182.1610  137.5980 C   0  0  0  0  0  0  0  0  0  0  0  0
  179.2780  179.4830  139.0750 C   0  0  0  0  0  2  0  0  0  0  0  0
  179.3400  175.4170  141.8640 N   0  0  0  0  0  1  0  0  0  0  0  0
  179.6620  174.4830  138.9190 C   0  0  0  0  0  1  0  0  0  0  0  0
  180.6620  183.1140  135.6190 C   0  0  0  0  0  1  0  0  0  0  0  0
  179.7060  183.4080  136.7740 C   0  0  2  0  0  3  0  0  0  0  0  0
  181.6090  184.7130  137.3710 C   0  0  0  0  0  1  0  0  0  0  0  0
  179.5700  185.7590  137.1110 C   0  0  0  0  0  1  0  0  0  0  0  0
  180.1820  184.5310  137.6000 N   0  0  0  0  0  0  0  0  0  0  0  0
  183.3560  178.7440  144.4430 C   0  0  0  0  0  2  0  0  0  0  0  0
  184.8070  178.9940  144.8360 C   0  0  0  0  0  2  0  0  0  0  0  0
  185.1170  178.3250  146.0950 N   0  0  0  0  0  0  0  0  0  0  0  0
  185.2750  179.2760  147.0490 O   0  0  0  0  0  1  0  0  0  0  0  0
  186.9030  177.5890  144.5150 C   0  0  0  0  0  1  0  0  0  0  0  0
  186.3780  177.5940  145.9520 C   0  0  0  0  0  2  0  0  0  0  0  0
  183.9710  178.3960  142.0420 C   0  0  0  0  0  2  0  0  0  0  0  0
  184.0130  179.0530  140.6950 C   0  0  0  0  0  2  0  0  0  0  0  0
  185.1150  179.0860  139.9550 C   0  0  0  0  0  3  0  0  0  0  0  0
  186.3460  178.5330  140.4220 N   0  0  0  0  0  0  0  0  0  0  0  0
  187.4460  178.2860  139.5390 C   0  0  0  0  0  0  0  0  0  0  0  0
  187.2970  178.3910  138.2880 O   0  0  0  0  0  0  0  0  0  0  0  0
  188.7530  177.9080  140.0890 C   0  0  0  0  0  0  0  0  0  0  0  0
  190.8180  177.4510  140.2180 C   0  0  1  0  0  3  0  0  0  0  0  0
  192.2360  177.1850  139.8440 C   0  0  0  0  0  1  0  0  0  0  0  0
  189.8820  177.8660  139.3470 N   0  0  0  0  0  0  0  0  0  0  0  0
  188.9320  177.5410  141.3790 N   0  0  0  0  0  0  0  0  0  0  0  0
  190.2410  177.2610  141.4560 C   0  0  0  0  0  0  0  0  0  0  0  0
  190.9020  176.7620  142.7080 C   0  0  0  0  0  2  0  0  0  0  0  0
  191.3340  177.8890  143.5980 C   0  0  0  0  0  3  0  0  0  0  0  0
  191.1680  177.8980  144.9290 C   0  0  0  0  0  3  0  0  0  0  0  0
  190.5340  176.7670  145.6770 C   0  0  0  0  0  2  0  0  0  0  0  0
  189.9630  177.2780  146.9860 C   0  0  0  0  0  1  0  0  0  0  0  0
  1 30  1  6  0  0  0
  1 24  1  0  0  0  0
  2  3  3  0  0  0  0
  3  1  1  0  0  0  0
  4  2  1  0  0  0  0
  5 16  1  0  0  0  0
  6 12  1  0  0  0  0
  6  5  2  0  0  0  0
  7  4  1  0  0  0  0
  8  7  1  0  0  0  0
  9  7  1  0  0  0  0
  9 17  1  0  0  0  0
 10 13  1  0  0  0  0
 10  8  2  0  0  0  0
 11  5  1  0  0  0  0
 11 15  1  0  0  0  0
 12 10  1  0  0  0  0
 13  9  2  0  0  0  0
 15 14  2  0  0  0  0
 16  8  1  0  0  0  0
 18 13  1  0  0  0  0
 20 19  1  6  0  0  0
 20 15  1  0  0  0  0
 20 23  1  0  0  0  0
 21 23  1  0  0  0  0
 22 23  1  0  0  0  0
 24 25  1  0  0  0  0
 25 26  1  0  0  0  0
 26 27  1  0  0  0  0
 28 29  1  0  0  0  0
 29 26  1  0  0  0  0
 31 30  1  0  0  0  0
 32 33  2  0  0  0  0
 32 31  1  0  0  0  0
 34 36  1  0  0  0  0
 34 33  1  0  0  0  0
 35 34  2  0  0  0  0
 36 40  1  0  0  0  0
 37 38  1  6  0  0  0
 37 41  1  0  0  0  0
 39 36  2  0  0  0  0
 39 37  1  0  0  0  0
 40 41  2  0  0  0  0
 41 42  1  0  0  0  0
 42 43  1  0  0  0  0
 43 44  2  0  0  0  0
 44 45  1  0  0  0  0
 45 46  1  0  0  0  0
M  END
>  <MODEL>
4

>  <REMARK>
 VINA RESULT:      -7.6      3.353     10.433
  Name = 
  16 active torsions:
  status: ('A' for Active; 'I' for Inactive)
    1  A    between atoms: N_2  and  C_28
    2  A    between atoms: N_2  and  C_45
    3  A    between atoms: C_3  and  C_19
    4  A    between atoms: C_4  and  C_27
    5  A    between atoms: C_5  and  C_25
    6  A    between atoms: N_9  and  C_14
    7  A    between atoms: N_12  and  C_46
    8  A    between atoms: C_13  and  C_15
    9  A    between atoms: C_17  and  C_46
   10  A    between atoms: C_18  and  C_20
   11  A    between atoms: C_18  and  C_28
   12  A    between atoms: C_19  and  C_20
   13  A    between atoms: C_20  and  C_41
   14  A    between atoms: C_21  and  N_34
   15  A    between atoms: C_21  and  C_38
   16  A    between atoms: C_27  and  C_32
                            x       y       z     vdW  Elec       q    Type
                         _______ _______ _______ _____ _____    ______ ____

>  <TORSDO>
F 16

$$$$
=
 OpenBabel10222420103D

 46 48  0  0  1  0  0  0  0  0999 V2000
  185.4160  178.9300  140.4850 C   0  0  1  0  0  3  0  0  0  0  0  0
  185.5070  177.9230  138.0080 C   0  0  0  0  0  0  0  0  0  0  0  0
  185.4870  178.3690  139.1290 C   0  0  0  0  0  0  0  0  0  0  0  0
  185.4890  177.3960  136.6390 C   0  0  0  0  0  2  0  0  0  0  0  0
  188.6410  174.0590  136.7420 C   0  0  0  0  0  0  0  0  0  0  0  0
  188.0970  172.8940  136.9950 N   0  0  0  0  0  0  0  0  0  0  0  0
  185.3240  175.9470  136.6410 N   0  0  0  0  0  0  0  0  0  0  0  0
  186.3230  175.0430  136.6030 C   0  0  0  0  0  0  0  0  0  0  0  0
  184.2010  175.2450  136.9300 C   0  0  0  0  0  0  0  0  0  0  0  0
  185.8360  173.7940  136.8430 C   0  0  0  0  0  0  0  0  0  0  0  0
  190.0730  174.1330  136.6860 N   0  0  0  0  0  2  0  0  0  0  0  0
  186.7020  172.6910  137.0750 N   0  0  0  0  0  2  0  0  0  0  0  0
  184.4830  173.8890  137.0550 C   0  0  0  0  0  0  0  0  0  0  0  0
  190.3200  176.4070  136.1500 O   0  0  0  0  0  0  0  0  0  0  0  0
  190.8610  175.2930  136.3910 C   0  0  0  0  0  0  0  0  0  0  0  0
  187.7930  175.3160  136.5170 C   0  0  0  0  0  2  0  0  0  0  0  0
  182.9390  175.8390  137.2140 N   0  0  0  0  0  1  0  0  0  0  0  0
  183.5610  172.8100  137.5050 C   0  0  0  0  0  1  0  0  0  0  0  0
  192.7660  173.9720  137.2110 C   0  0  0  0  0  1  0  0  0  0  0  0
  192.3570  175.1640  136.3460 C   0  0  2  0  0  3  0  0  0  0  0  0
  193.1780  176.3570  138.2400 C   0  0  0  0  0  1  0  0  0  0  0  0
  194.3640  176.4390  136.2640 C   0  0  0  0  0  1  0  0  0  0  0  0
  193.0080  176.4080  136.7940 N   0  0  0  0  0  0  0  0  0  0  0  0
  184.0800  178.5520  141.1140 C   0  0  0  0  0  2  0  0  0  0  0  0
  184.1700  178.4960  142.6340 C   0  0  0  0  0  2  0  0  0  0  0  0
  183.0040  179.1300  143.2390 N   0  0  0  0  0  0  0  0  0  0  0  0
  182.8000  178.5640  144.4540 O   0  0  0  0  0  1  0  0  0  0  0  0
  180.5240  178.8540  143.1980 C   0  0  0  0  0  1  0  0  0  0  0  0
  181.8300  178.8730  142.4020 C   0  0  0  0  0  2  0  0  0  0  0  0
  186.5680  178.3970  141.3320 C   0  0  0  0  0  2  0  0  0  0  0  0
  187.8540  178.4060  140.5620 C   0  0  0  0  0  3  0  0  0  0  0  0
  189.0070  178.0240  141.0990 C   0  0  0  0  0  3  0  0  0  0  0  0
  189.0980  177.6230  142.4680 N   0  0  0  0  0  2  0  0  0  0  0  0
  190.3400  177.2240  143.0560 C   0  0  0  0  0  0  0  0  0  0  0  0
  191.3630  177.0500  142.3340 O   0  0  0  0  0  0  0  0  0  0  0  0
  190.4270  177.0140  144.5060 C   0  0  0  0  0  0  0  0  0  0  0  0
  191.2040  176.5520  146.4220 C   0  0  1  0  0  3  0  0  0  0  0  0
  192.1250  176.1160  147.5100 C   0  0  0  0  0  1  0  0  0  0  0  0
  191.5720  176.6690  145.1350 N   0  0  0  0  0  0  0  0  0  0  0  0
  189.3600  177.1200  145.3320 N   0  0  0  0  0  0  0  0  0  0  0  0
  189.8590  176.8350  146.5430 C   0  0  0  0  0  0  0  0  0  0  0  0
  189.0210  176.7850  147.7860 C   0  0  0  0  0  2  0  0  0  0  0  0
  188.6080  178.1550  148.2360 C   0  0  0  0  0  3  0  0  0  0  0  0
  187.4330  178.7230  147.9260 C   0  0  0  0  0  3  0  0  0  0  0  0
  186.3940  178.0380  147.0940 C   0  0  0  0  0  2  0  0  0  0  0  0
  185.6750  179.0610  146.2350 C   0  0  0  0  0  1  0  0  0  0  0  0
  1  3  1  6  0  0  0
  1 24  1  0  0  0  0
  1 30  1  0  0  0  0
  2  3  3  0  0  0  0
  4  7  1  0  0  0  0
  4  2  1  0  0  0  0
  5  6  2  0  0  0  0
  6 12  1  0  0  0  0
  7  9  1  0  0  0  0
  8  7  1  0  0  0  0
  8 10  2  0  0  0  0
  9 13  2  0  0  0  0
  9 17  1  0  0  0  0
 10 13  1  0  0  0  0
 10 12  1  0  0  0  0
 11  5  1  0  0  0  0
 13 18  1  0  0  0  0
 14 15  2  0  0  0  0
 15 11  1  0  0  0  0
 16  8  1  0  0  0  0
 16  5  1  0  0  0  0
 20 15  1  0  0  0  0
 20 23  1  0  0  0  0
 20 19  1  1  0  0  0
 22 23  1  0  0  0  0
 23 21  1  0  0  0  0
 24 25  1  0  0  0  0
 25 26  1  0  0  0  0
 26 27  1  0  0  0  0
 29 28  1  0  0  0  0
 29 26  1  0  0  0  0
 31 32  2  0  0  0  0
 31 30  1  0  0  0  0
 32 33  1  0  0  0  0
 33 34  1  0  0  0  0
 34 36  1  0  0  0  0
 35 34  2  0  0  0  0
 36 39  2  0  0  0  0
 36 40  1  0  0  0  0
 37 41  1  0  0  0  0
 37 38  1  6  0  0  0
 39 37  1  0  0  0  0
 40 41  2  0  0  0  0
 41 42  1  0  0  0  0
 42 43  1  0  0  0  0
 44 43  2  0  0  0  0
 45 44  1  0  0  0  0
 46 45  1  0  0  0  0
M  END
>  <MODEL>
5

>  <REMARK>
 VINA RESULT:      -7.4      2.298      6.834
  Name = 
  16 active torsions:
  status: ('A' for Active; 'I' for Inactive)
    1  A    between atoms: N_2  and  C_28
    2  A    between atoms: N_2  and  C_45
    3  A    between atoms: C_3  and  C_19
    4  A    between atoms: C_4  and  C_27
    5  A    between atoms: C_5  and  C_25
    6  A    between atoms: N_9  and  C_14
    7  A    between atoms: N_12  and  C_46
    8  A    between atoms: C_13  and  C_15
    9  A    between atoms: C_17  and  C_46
   10  A    between atoms: C_18  and  C_20
   11  A    between atoms: C_18  and  C_28
   12  A    between atoms: C_19  and  C_20
   13  A    between atoms: C_20  and  C_41
   14  A    between atoms: C_21  and  N_34
   15  A    between atoms: C_21  and  C_38
   16  A    between atoms: C_27  and  C_32
                            x       y       z     vdW  Elec       q    Type
                         _______ _______ _______ _____ _____    ______ ____

>  <TORSDO>
F 16

$$$$
=
 OpenBabel10222420103D

 46 48  0  0  1  0  0  0  0  0999 V2000
  190.6070  176.3240  139.1180 C   0  0  1  0  0  3  0  0  0  0  0  0
  188.4650  176.4840  137.5240 C   0  0  0  0  0  0  0  0  0  0  0  0
  189.4240  176.4300  138.2540 C   0  0  0  0  0  0  0  0  0  0  0  0
  187.3150  176.5130  136.6140 C   0  0  0  0  0  2  0  0  0  0  0  0
  182.8780  176.0660  137.7080 C   0  0  0  0  0  0  0  0  0  0  0  0
  182.4520  174.8460  137.4920 N   0  0  0  0  0  0  0  0  0  0  0  0
  186.5000  175.3120  136.7680 N   0  0  0  0  0  0  0  0  0  0  0  0
  185.2110  175.2820  137.1620 C   0  0  0  0  0  0  0  0  0  0  0  0
  186.7780  174.0630  136.3190 C   0  0  0  0  0  0  0  0  0  0  0  0
  184.6940  174.0360  136.9840 C   0  0  0  0  0  0  0  0  0  0  0  0
  181.9120  177.0560  138.0890 N   0  0  0  0  0  2  0  0  0  0  0  0
  183.3020  173.7840  137.1130 N   0  0  0  0  0  2  0  0  0  0  0  0
  185.6710  173.2330  136.4480 C   0  0  0  0  0  0  0  0  0  0  0  0
  183.3400  178.9020  138.3570 O   0  0  0  0  0  0  0  0  0  0  0  0
  182.1710  178.4310  138.4020 C   0  0  0  0  0  0  0  0  0  0  0  0
  184.3550  176.4460  137.5540 C   0  0  0  0  0  2  0  0  0  0  0  0
  187.9910  173.7010  135.6680 N   0  0  0  0  0  1  0  0  0  0  0  0
  185.5190  171.8400  135.9430 C   0  0  0  0  0  1  0  0  0  0  0  0
  180.9500  180.4930  137.8500 C   0  0  0  0  0  1  0  0  0  0  0  0
  181.0250  179.3110  138.8160 C   0  0  2  0  0  3  0  0  0  0  0  0
  180.0310  180.5760  140.5740 C   0  0  0  0  0  1  0  0  0  0  0  0
  181.0970  178.5960  141.0830 C   0  0  0  0  0  1  0  0  0  0  0  0
  181.1800  179.7590  140.2100 N   0  0  0  0  0  0  0  0  0  0  0  0
  191.8370  176.7860  138.3430 C   0  0  0  0  0  2  0  0  0  0  0  0
  192.3470  175.7040  137.4000 C   0  0  0  0  0  2  0  0  0  0  0  0
  193.8050  175.7180  137.3460 N   0  0  0  0  0  0  0  0  0  0  0  0
  194.1950  176.9150  136.8420 O   0  0  0  0  0  1  0  0  0  0  0  0
  193.2670  173.5030  136.3300 C   0  0  0  0  0  1  0  0  0  0  0  0
  194.2610  174.6600  136.4430 C   0  0  0  0  0  2  0  0  0  0  0  0
  190.4200  177.1780  140.3680 C   0  0  0  0  0  2  0  0  0  0  0  0
  191.7370  177.4890  141.0130 C   0  0  0  0  0  3  0  0  0  0  0  0
  191.8510  177.7440  142.3110 C   0  0  0  0  0  3  0  0  0  0  0  0
  190.7090  177.7840  143.1680 N   0  0  0  0  0  2  0  0  0  0  0  0
  190.7030  177.1420  144.4480 C   0  0  0  0  0  0  0  0  0  0  0  0
  191.6510  176.3750  144.7820 O   0  0  0  0  0  0  0  0  0  0  0  0
  189.5900  177.3740  145.3760 C   0  0  0  0  0  0  0  0  0  0  0  0
  188.5110  177.7140  147.1670 C   0  0  1  0  0  3  0  0  0  0  0  0
  188.1810  177.8940  148.6090 C   0  0  0  0  0  1  0  0  0  0  0  0
  189.7640  177.5790  146.7000 N   0  0  0  0  0  0  0  0  0  0  0  0
  188.2940  177.3740  144.9880 N   0  0  0  0  0  0  0  0  0  0  0  0
  187.6170  177.5970  146.1230 C   0  0  0  0  0  0  0  0  0  0  0  0
  186.1190  177.6390  146.1920 C   0  0  0  0  0  2  0  0  0  0  0  0
  185.5820  178.9990  145.8560 C   0  0  0  0  0  3  0  0  0  0  0  0
  184.9070  179.2800  144.7310 C   0  0  0  0  0  3  0  0  0  0  0  0
  184.6070  178.2540  143.6850 C   0  0  0  0  0  2  0  0  0  0  0  0
  185.6130  178.3700  142.5550 C   0  0  0  0  0  1  0  0  0  0  0  0
  1  3  1  6  0  0  0
  1 30  1  0  0  0  0
  2  3  3  0  0  0  0
  4  7  1  0  0  0  0
  4  2  1  0  0  0  0
  5 11  1  0  0  0  0
  6  5  2  0  0  0  0
  7  8  1  0  0  0  0
  8 16  1  0  0  0  0
  9 13  2  0  0  0  0
  9  7  1  0  0  0  0
 10 12  1  0  0  0  0
 10  8  2  0  0  0  0
 11 15  1  0  0  0  0
 12  6  1  0  0  0  0
 13 10  1  0  0  0  0
 14 15  2  0  0  0  0
 15 20  1  0  0  0  0
 16  5  1  0  0  0  0
 17  9  1  0  0  0  0
 18 13  1  0  0  0  0
 20 19  1  6  0  0  0
 20 23  1  0  0  0  0
 23 21  1  0  0  0  0
 23 22  1  0  0  0  0
 24  1  1  0  0  0  0
 25 24  1  0  0  0  0
 26 25  1  0  0  0  0
 27 26  1  0  0  0  0
 28 29  1  0  0  0  0
 29 26  1  0  0  0  0
 30 31  1  0  0  0  0
 31 32  2  0  0  0  0
 32 33  1  0  0  0  0
 33 34  1  0  0  0  0
 34 35  2  0  0  0  0
 34 36  1  0  0  0  0
 36 39  2  0  0  0  0
 37 38  1  1  0  0  0
 39 37  1  0  0  0  0
 40 36  1  0  0  0  0
 40 41  2  0  0  0  0
 41 42  1  0  0  0  0
 41 37  1  0  0  0  0
 43 42  1  0  0  0  0
 44 43  2  0  0  0  0
 45 44  1  0  0  0  0
 46 45  1  0  0  0  0
M  END
>  <MODEL>
6

>  <REMARK>
 VINA RESULT:      -7.1      2.444      8.610
  Name = 
  16 active torsions:
  status: ('A' for Active; 'I' for Inactive)
    1  A    between atoms: N_2  and  C_28
    2  A    between atoms: N_2  and  C_45
    3  A    between atoms: C_3  and  C_19
    4  A    between atoms: C_4  and  C_27
    5  A    between atoms: C_5  and  C_25
    6  A    between atoms: N_9  and  C_14
    7  A    between atoms: N_12  and  C_46
    8  A    between atoms: C_13  and  C_15
    9  A    between atoms: C_17  and  C_46
   10  A    between atoms: C_18  and  C_20
   11  A    between atoms: C_18  and  C_28
   12  A    between atoms: C_19  and  C_20
   13  A    between atoms: C_20  and  C_41
   14  A    between atoms: C_21  and  N_34
   15  A    between atoms: C_21  and  C_38
   16  A    between atoms: C_27  and  C_32
                            x       y       z     vdW  Elec       q    Type
                         _______ _______ _______ _____ _____    ______ ____

>  <TORSDO>
F 16

$$$$
=
 OpenBabel10222420103D

 46 48  0  0  1  0  0  0  0  0999 V2000
  183.0010  175.5480  138.2290 C   0  0  1  0  0  3  0  0  0  0  0  0
  183.7790  177.5760  139.7910 C   0  0  0  0  0  0  0  0  0  0  0  0
  183.4410  176.6690  139.0700 C   0  0  0  0  0  0  0  0  0  0  0  0
  184.1630  178.6610  140.7000 C   0  0  0  0  0  2  0  0  0  0  0  0
  185.4830  178.4500  145.0930 C   0  0  0  0  0  0  0  0  0  0  0  0
  184.4840  178.6950  145.9050 N   0  0  0  0  0  0  0  0  0  0  0  0
  183.3650  178.6220  141.9220 N   0  0  0  0  0  0  0  0  0  0  0  0
  183.8500  178.4910  143.1720 C   0  0  0  0  0  0  0  0  0  0  0  0
  182.0590  178.9550  142.0640 C   0  0  0  0  0  0  0  0  0  0  0  0
  182.8640  178.7160  144.0840 C   0  0  0  0  0  0  0  0  0  0  0  0
  186.7920  178.3080  145.6630 N   0  0  0  0  0  2  0  0  0  0  0  0
  183.1510  178.8550  145.4690 N   0  0  0  0  0  2  0  0  0  0  0  0
  181.7070  179.0140  143.4070 C   0  0  0  0  0  0  0  0  0  0  0  0
  188.0110  177.8380  143.7110 O   0  0  0  0  0  0  0  0  0  0  0  0
  188.0050  178.0060  144.9610 C   0  0  0  0  0  0  0  0  0  0  0  0
  185.2810  178.3230  143.5790 C   0  0  0  0  0  2  0  0  0  0  0  0
  181.2110  179.3380  140.9870 N   0  0  0  0  0  1  0  0  0  0  0  0
  180.4170  179.4830  143.9870 C   0  0  0  0  0  1  0  0  0  0  0  0
  190.3060  177.1450  144.8650 C   0  0  0  0  0  1  0  0  0  0  0  0
  189.2810  177.8630  145.7410 C   0  0  2  0  0  3  0  0  0  0  0  0
  190.2450  176.3850  147.3430 C   0  0  0  0  0  1  0  0  0  0  0  0
  188.9170  178.1220  148.0780 C   0  0  0  0  0  1  0  0  0  0  0  0
  189.0480  177.1450  147.0060 N   0  0  0  0  0  0  0  0  0  0  0  0
  181.6000  175.8380  137.7010 C   0  0  0  0  0  2  0  0  0  0  0  0
  180.5900  175.9790  138.8330 C   0  0  0  0  0  2  0  0  0  0  0  0
  179.6000  174.9090  138.7710 N   0  0  0  0  0  0  0  0  0  0  0  0
  179.8790  174.0210  139.7570 O   0  0  0  0  0  1  0  0  0  0  0  0
  179.5080  172.7140  137.5890 C   0  0  0  0  0  1  0  0  0  0  0  0
  179.7120  174.2260  137.4820 C   0  0  0  0  0  2  0  0  0  0  0  0
  183.9720  175.3530  137.0680 C   0  0  0  0  0  2  0  0  0  0  0  0
  183.9300  176.5190  136.1270 C   0  0  0  0  0  3  0  0  0  0  0  0
  185.0140  177.2210  135.8170 C   0  0  0  0  0  3  0  0  0  0  0  0
  186.2840  176.9330  136.4040 N   0  0  0  0  0  2  0  0  0  0  0  0
  186.8410  177.7520  137.4380 C   0  0  0  0  0  0  0  0  0  0  0  0
  186.3010  178.8530  137.7430 O   0  0  0  0  0  0  0  0  0  0  0  0
  188.0470  177.3100  138.1490 C   0  0  0  0  0  0  0  0  0  0  0  0
  189.5110  177.0810  139.6630 C   0  0  1  0  0  3  0  0  0  0  0  0
  190.2690  177.2420  140.9370 C   0  0  0  0  0  1  0  0  0  0  0  0
  188.3240  177.6650  139.4230 N   0  0  0  0  0  0  0  0  0  0  0  0
  188.9970  176.5340  137.5780 N   0  0  0  0  0  0  0  0  0  0  0  0
  189.9160  176.3860  138.5430 C   0  0  0  0  0  0  0  0  0  0  0  0
  191.1940  175.6250  138.3500 C   0  0  0  0  0  2  0  0  0  0  0  0
  192.1740  176.3840  137.5050 C   0  0  0  0  0  3  0  0  0  0  0  0
  193.3870  175.9210  137.1660 C   0  0  0  0  0  3  0  0  0  0  0  0
  193.8940  174.5800  137.5930 C   0  0  0  0  0  2  0  0  0  0  0  0
  195.0630  174.1740  136.7150 C   0  0  0  0  0  1  0  0  0  0  0  0
  1 30  1  6  0  0  0
  1  3  1  0  0  0  0
  2  4  1  0  0  0  0
  3  2  3  0  0  0  0
  4  7  1  0  0  0  0
  5 11  1  0  0  0  0
  5  6  2  0  0  0  0
  7  9  1  0  0  0  0
  7  8  1  0  0  0  0
  8 16  1  0  0  0  0
  8 10  2  0  0  0  0
  9 13  2  0  0  0  0
 10 12  1  0  0  0  0
 12  6  1  0  0  0  0
 13 18  1  0  0  0  0
 13 10  1  0  0  0  0
 14 15  2  0  0  0  0
 15 11  1  0  0  0  0
 15 20  1  0  0  0  0
 16  5  1  0  0  0  0
 17  9  1  0  0  0  0
 20 19  1  6  0  0  0
 20 23  1  0  0  0  0
 23 21  1  0  0  0  0
 23 22  1  0  0  0  0
 24  1  1  0  0  0  0
 24 25  1  0  0  0  0
 26 25  1  0  0  0  0
 26 27  1  0  0  0  0
 29 28  1  0  0  0  0
 29 26  1  0  0  0  0
 31 30  1  0  0  0  0
 32 31  2  0  0  0  0
 32 33  1  0  0  0  0
 33 34  1  0  0  0  0
 34 35  2  0  0  0  0
 34 36  1  0  0  0  0
 36 39  2  0  0  0  0
 37 38  1  6  0  0  0
 39 37  1  0  0  0  0
 40 36  1  0  0  0  0
 40 41  2  0  0  0  0
 41 37  1  0  0  0  0
 42 41  1  0  0  0  0
 43 42  1  0  0  0  0
 44 43  2  0  0  0  0
 44 45  1  0  0  0  0
 46 45  1  0  0  0  0
M  END
>  <MODEL>
7

>  <REMARK>
 VINA RESULT:      -7.0      2.874     10.132
  Name = 
  16 active torsions:
  status: ('A' for Active; 'I' for Inactive)
    1  A    between atoms: N_2  and  C_28
    2  A    between atoms: N_2  and  C_45
    3  A    between atoms: C_3  and  C_19
    4  A    between atoms: C_4  and  C_27
    5  A    between atoms: C_5  and  C_25
    6  A    between atoms: N_9  and  C_14
    7  A    between atoms: N_12  and  C_46
    8  A    between atoms: C_13  and  C_15
    9  A    between atoms: C_17  and  C_46
   10  A    between atoms: C_18  and  C_20
   11  A    between atoms: C_18  and  C_28
   12  A    between atoms: C_19  and  C_20
   13  A    between atoms: C_20  and  C_41
   14  A    between atoms: C_21  and  N_34
   15  A    between atoms: C_21  and  C_38
   16  A    between atoms: C_27  and  C_32
                            x       y       z     vdW  Elec       q    Type
                         _______ _______ _______ _____ _____    ______ ____

>  <TORSDO>
F 16

$$$$
=
 OpenBabel10222420103D

 46 48  0  0  1  0  0  0  0  0999 V2000
  188.3670  176.8230  144.9360 C   0  0  1  0  0  3  0  0  0  0  0  0
  188.3400  177.6420  142.3890 C   0  0  0  0  0  0  0  0  0  0  0  0
  188.3300  177.2700  143.5370 C   0  0  0  0  0  0  0  0  0  0  0  0
  188.3980  178.1010  140.9970 C   0  0  0  0  0  2  0  0  0  0  0  0
  188.3210  176.1940  136.8210 C   0  0  0  0  0  0  0  0  0  0  0  0
  189.5290  175.8940  136.4090 N   0  0  0  0  0  0  0  0  0  0  0  0
  189.4480  177.4030  140.2620 N   0  0  0  0  0  0  0  0  0  0  0  0
  189.3050  176.8140  139.0580 C   0  0  0  0  0  0  0  0  0  0  0  0
  190.7810  177.4260  140.5070 C   0  0  0  0  0  0  0  0  0  0  0  0
  190.5220  176.4550  138.5640 C   0  0  0  0  0  0  0  0  0  0  0  0
  187.2370  176.0270  135.8970 N   0  0  0  0  0  2  0  0  0  0  0  0
  190.6770  176.0140  137.2220 N   0  0  0  0  0  2  0  0  0  0  0  0
  191.4860  176.8310  139.4670 C   0  0  0  0  0  0  0  0  0  0  0  0
  185.4500  176.6650  137.2830 O   0  0  0  0  0  0  0  0  0  0  0  0
  185.8460  176.2630  136.1550 C   0  0  0  0  0  0  0  0  0  0  0  0
  188.0570  176.7150  138.2380 C   0  0  0  0  0  2  0  0  0  0  0  0
  191.3790  178.1020  141.6080 N   0  0  0  0  0  1  0  0  0  0  0  0
  192.9630  176.7840  139.2830 C   0  0  0  0  0  1  0  0  0  0  0  0
  183.8180  177.1260  135.0650 C   0  0  0  0  0  1  0  0  0  0  0  0
  184.8490  175.9970  135.0630 C   0  0  2  0  0  3  0  0  0  0  0  0
  185.1230  173.8100  135.9690 C   0  0  0  0  0  1  0  0  0  0  0  0
  183.0630  174.8350  136.1190 C   0  0  0  0  0  1  0  0  0  0  0  0
  184.2120  174.6810  135.2380 N   0  0  0  0  0  0  0  0  0  0  0  0
  189.3720  177.6720  145.7060 C   0  0  0  0  0  2  0  0  0  0  0  0
  190.2240  176.8240  146.6420 C   0  0  0  0  0  2  0  0  0  0  0  0
  191.6110  176.8000  146.1890 N   0  0  0  0  0  0  0  0  0  0  0  0
  191.6110  176.6520  144.8410 O   0  0  0  0  0  1  0  0  0  0  0  0
  192.5930  175.8380  148.2720 C   0  0  0  0  0  1  0  0  0  0  0  0
  192.2900  175.6480  146.7850 C   0  0  0  0  0  2  0  0  0  0  0  0
  186.9810  176.9500  145.5620 C   0  0  0  0  0  2  0  0  0  0  0  0
  186.8050  178.2840  146.2210 C   0  0  0  0  0  3  0  0  0  0  0  0
  185.9480  179.1930  145.7700 C   0  0  0  0  0  3  0  0  0  0  0  0
  185.1690  178.9670  144.5930 N   0  0  0  0  0  2  0  0  0  0  0  0
  183.7390  178.9380  144.6290 C   0  0  0  0  0  0  0  0  0  0  0  0
  183.1260  178.9400  145.7350 O   0  0  0  0  0  0  0  0  0  0  0  0
  182.9780  178.9040  143.3740 C   0  0  0  0  0  0  0  0  0  0  0  0
  181.3690  179.0220  142.0020 C   0  0  1  0  0  3  0  0  0  0  0  0
  179.9980  179.1720  141.4350 C   0  0  0  0  0  1  0  0  0  0  0  0
  181.6640  179.2090  143.3000 N   0  0  0  0  0  0  0  0  0  0  0  0
  183.5220  178.5350  142.1910 N   0  0  0  0  0  0  0  0  0  0  0  0
  182.5020  178.6200  141.3260 C   0  0  0  0  0  0  0  0  0  0  0  0
  182.6230  178.2580  139.8750 C   0  0  0  0  0  2  0  0  0  0  0  0
  182.9710  176.8100  139.6880 C   0  0  0  0  0  3  0  0  0  0  0  0
  182.0630  175.8390  139.5110 C   0  0  0  0  0  3  0  0  0  0  0  0
  180.5900  176.1000  139.4720 C   0  0  0  0  0  2  0  0  0  0  0  0
  179.8550  174.9740  140.1750 C   0  0  0  0  0  1  0  0  0  0  0  0
  1  3  1  6  0  0  0
  1 30  1  0  0  0  0
  1 24  1  0  0  0  0
  2  3  3  0  0  0  0
  4  2  1  0  0  0  0
  5 16  1  0  0  0  0
  6  5  2  0  0  0  0
  6 12  1  0  0  0  0
  7  9  1  0  0  0  0
  7  4  1  0  0  0  0
  8  7  1  0  0  0  0
  9 17  1  0  0  0  0
 10  8  2  0  0  0  0
 10 13  1  0  0  0  0
 11 15  1  0  0  0  0
 11  5  1  0  0  0  0
 12 10  1  0  0  0  0
 13  9  2  0  0  0  0
 15 14  2  0  0  0  0
 16  8  1  0  0  0  0
 18 13  1  0  0  0  0
 20 19  1  1  0  0  0
 20 23  1  0  0  0  0
 20 15  1  0  0  0  0
 23 21  1  0  0  0  0
 23 22  1  0  0  0  0
 24 25  1  0  0  0  0
 26 25  1  0  0  0  0
 26 29  1  0  0  0  0
 27 26  1  0  0  0  0
 29 28  1  0  0  0  0
 30 31  1  0  0  0  0
 32 31  2  0  0  0  0
 33 34  1  0  0  0  0
 33 32  1  0  0  0  0
 34 35  2  0  0  0  0
 36 34  1  0  0  0  0
 37 38  1  1  0  0  0
 37 39  1  0  0  0  0
 39 36  2  0  0  0  0
 40 36  1  0  0  0  0
 41 37  1  0  0  0  0
 41 40  2  0  0  0  0
 42 41  1  0  0  0  0
 43 42  1  0  0  0  0
 44 43  2  0  0  0  0
 45 44  1  0  0  0  0
 45 46  1  0  0  0  0
M  END
>  <MODEL>
8

>  <REMARK>
 VINA RESULT:      -7.0      2.405      4.814
  Name = 
  16 active torsions:
  status: ('A' for Active; 'I' for Inactive)
    1  A    between atoms: N_2  and  C_28
    2  A    between atoms: N_2  and  C_45
    3  A    between atoms: C_3  and  C_19
    4  A    between atoms: C_4  and  C_27
    5  A    between atoms: C_5  and  C_25
    6  A    between atoms: N_9  and  C_14
    7  A    between atoms: N_12  and  C_46
    8  A    between atoms: C_13  and  C_15
    9  A    between atoms: C_17  and  C_46
   10  A    between atoms: C_18  and  C_20
   11  A    between atoms: C_18  and  C_28
   12  A    between atoms: C_19  and  C_20
   13  A    between atoms: C_20  and  C_41
   14  A    between atoms: C_21  and  N_34
   15  A    between atoms: C_21  and  C_38
   16  A    between atoms: C_27  and  C_32
                            x       y       z     vdW  Elec       q    Type
                         _______ _______ _______ _____ _____    ______ ____

>  <TORSDO>
F 16

$$$$
=
 OpenBabel10222420103D

 46 48  0  0  1  0  0  0  0  0999 V2000
  182.0920  177.5620  141.0380 C   0  0  1  0  0  3  0  0  0  0  0  0
  183.8150  178.8250  142.6500 C   0  0  0  0  0  0  0  0  0  0  0  0
  183.0300  178.2440  141.9410 C   0  0  0  0  0  0  0  0  0  0  0  0
  184.7850  179.5530  143.4750 C   0  0  0  0  0  2  0  0  0  0  0  0
  188.6760  177.5650  142.0670 C   0  0  0  0  0  0  0  0  0  0  0  0
  189.3180  177.0080  143.0650 N   0  0  0  0  0  0  0  0  0  0  0  0
  185.6740  178.6290  144.1700 N   0  0  0  0  0  0  0  0  0  0  0  0
  186.7660  178.0420  143.6420 C   0  0  0  0  0  0  0  0  0  0  0  0
  185.7300  178.3830  145.5030 C   0  0  0  0  0  0  0  0  0  0  0  0
  187.4850  177.4230  144.6180 C   0  0  0  0  0  0  0  0  0  0  0  0
  189.3230  177.5950  140.7860 N   0  0  0  0  0  2  0  0  0  0  0  0
  188.7890  176.9150  144.3700 N   0  0  0  0  0  2  0  0  0  0  0  0
  186.8490  177.6210  145.8180 C   0  0  0  0  0  0  0  0  0  0  0  0
  187.6340  178.6350  139.5270 O   0  0  0  0  0  0  0  0  0  0  0  0
  188.7860  178.1220  139.5660 C   0  0  0  0  0  0  0  0  0  0  0  0
  187.2820  178.1770  142.2430 C   0  0  0  0  0  2  0  0  0  0  0  0
  184.8460  178.9580  146.4580 N   0  0  0  0  0  1  0  0  0  0  0  0
  187.3490  177.2630  147.1750 C   0  0  0  0  0  1  0  0  0  0  0  0
  189.0300  179.0060  137.2840 C   0  0  0  0  0  1  0  0  0  0  0  0
  189.6070  178.0320  138.3110 C   0  0  2  0  0  3  0  0  0  0  0  0
  189.1540  176.6530  136.4210 C   0  0  0  0  0  1  0  0  0  0  0  0
  191.0230  176.2200  137.7010 C   0  0  0  0  0  1  0  0  0  0  0  0
  189.6350  176.6530  137.7960 N   0  0  0  0  0  0  0  0  0  0  0  0
  180.9960  178.5390  140.6250 C   0  0  0  0  0  2  0  0  0  0  0  0
  179.7210  178.3270  141.4320 C   0  0  0  0  0  2  0  0  0  0  0  0
  179.2750  179.5850  142.0230 N   0  0  0  0  0  0  0  0  0  0  0  0
  180.2810  180.4860  141.9010 O   0  0  0  0  0  1  0  0  0  0  0  0
  180.0390  178.4750  144.1240 C   0  0  0  0  0  1  0  0  0  0  0  0
  179.0050  179.3760  143.4460 C   0  0  0  0  0  2  0  0  0  0  0  0
  182.8310  177.0480  139.8070 C   0  0  0  0  0  2  0  0  0  0  0  0
  183.3780  178.1810  138.9920 C   0  0  0  0  0  3  0  0  0  0  0  0
  183.9330  177.9960  137.8000 C   0  0  0  0  0  3  0  0  0  0  0  0
  184.0850  176.6910  137.2400 N   0  0  0  0  0  2  0  0  0  0  0  0
  185.0900  176.4010  136.2630 C   0  0  0  0  0  0  0  0  0  0  0  0
  185.7630  177.3350  135.7410 O   0  0  0  0  0  0  0  0  0  0  0  0
  185.3420  175.0100  135.8650 C   0  0  0  0  0  0  0  0  0  0  0  0
  186.3320  173.2740  135.1640 C   0  0  1  0  0  3  0  0  0  0  0  0
  187.3710  172.3660  134.5990 C   0  0  0  0  0  1  0  0  0  0  0  0
  186.5510  174.5680  135.4530 N   0  0  0  0  0  0  0  0  0  0  0  0
  184.3770  174.0620  135.8490 N   0  0  0  0  0  0  0  0  0  0  0  0
  185.0110  172.9640  135.4120 C   0  0  0  0  0  0  0  0  0  0  0  0
  184.3210  171.6510  135.1880 C   0  0  0  0  0  2  0  0  0  0  0  0
  183.8110  171.0630  136.4710 C   0  0  0  0  0  3  0  0  0  0  0  0
  182.5460  171.1880  136.9010 C   0  0  0  0  0  3  0  0  0  0  0  0
  181.4960  171.9280  136.1340 C   0  0  0  0  0  2  0  0  0  0  0  0
  180.2920  171.0290  135.9230 C   0  0  0  0  0  1  0  0  0  0  0  0
  1 30  1  6  0  0  0
  1  3  1  0  0  0  0
  2  4  1  0  0  0  0
  3  2  3  0  0  0  0
  4  7  1  0  0  0  0
  5 16  1  0  0  0  0
  5  6  2  0  0  0  0
  6 12  1  0  0  0  0
  7  9  1  0  0  0  0
  8  7  1  0  0  0  0
  8 10  2  0  0  0  0
  9 13  2  0  0  0  0
  9 17  1  0  0  0  0
 10 13  1  0  0  0  0
 11  5  1  0  0  0  0
 12 10  1  0  0  0  0
 13 18  1  0  0  0  0
 14 15  2  0  0  0  0
 15 11  1  0  0  0  0
 16  8  1  0  0  0  0
 20 19  1  6  0  0  0
 20 15  1  0  0  0  0
 21 23  1  0  0  0  0
 22 23  1  0  0  0  0
 23 20  1  0  0  0  0
 24  1  1  0  0  0  0
 24 25  1  0  0  0  0
 25 26  1  0  0  0  0
 26 29  1  0  0  0  0
 27 26  1  0  0  0  0
 29 28  1  0  0  0  0
 31 30  1  0  0  0  0
 32 31  2  0  0  0  0
 33 32  1  0  0  0  0
 34 33  1  0  0  0  0
 35 34  2  0  0  0  0
 36 34  1  0  0  0  0
 37 38  1  6  0  0  0
 37 41  1  0  0  0  0
 37 39  1  0  0  0  0
 39 36  2  0  0  0  0
 40 36  1  0  0  0  0
 41 40  2  0  0  0  0
 42 41  1  0  0  0  0
 42 43  1  0  0  0  0
 43 44  2  0  0  0  0
 45 44  1  0  0  0  0
 46 45  1  0  0  0  0
M  END
>  <MODEL>
9

>  <REMARK>
 VINA RESULT:      -6.9      3.206      8.426
  Name = 
  16 active torsions:
  status: ('A' for Active; 'I' for Inactive)
    1  A    between atoms: N_2  and  C_28
    2  A    between atoms: N_2  and  C_45
    3  A    between atoms: C_3  and  C_19
    4  A    between atoms: C_4  and  C_27
    5  A    between atoms: C_5  and  C_25
    6  A    between atoms: N_9  and  C_14
    7  A    between atoms: N_12  and  C_46
    8  A    between atoms: C_13  and  C_15
    9  A    between atoms: C_17  and  C_46
   10  A    between atoms: C_18  and  C_20
   11  A    between atoms: C_18  and  C_28
   12  A    between atoms: C_19  and  C_20
   13  A    between atoms: C_20  and  C_41
   14  A    between atoms: C_21  and  N_34
   15  A    between atoms: C_21  and  C_38
   16  A    between atoms: C_27  and  C_32
                            x       y       z     vdW  Elec       q    Type
                         _______ _______ _______ _____ _____    ______ ____

>  <TORSDO>
F 16

$$$$
