=
 OpenBabel10222420273D

 31 34  0  0  1  0  0  0  0  0999 V2000
  187.0740  177.8540  143.6130 C   0  0  0  0  0  0  0  0  0  0  0  0
  184.8710  178.8770  145.5510 O   0  0  0  0  0  0  0  0  0  0  0  0
  184.6460  179.0910  143.1790 C   0  0  1  0  0  0  0  0  0  0  0  0
  188.4030  177.4730  145.7240 C   0  0  0  0  0  0  0  0  0  0  0  0
  191.6970  176.0530  144.6890 C   0  0  0  0  0  1  0  0  0  0  0  0
  190.7480  176.6570  146.9560 C   0  0  0  0  0  0  0  0  0  0  0  0
  184.0910  178.4650  144.4290 C   0  0  2  0  0  3  0  0  0  0  0  0
  186.3560  178.4780  147.3350 C   0  0  0  0  0  3  0  0  0  0  0  0
  185.9390  178.4100  142.9900 N   0  0  0  0  0  0  0  0  0  0  0  0
  184.8150  178.3810  141.9990 C   0  0  2  0  0  3  0  0  0  0  0  0
  188.5600  177.5540  147.1240 C   0  0  0  0  0  0  0  0  0  0  0  0
  189.7210  177.1460  147.6980 N   0  0  0  0  0  0  0  0  0  0  0  0
  190.6060  176.5760  145.5630 C   0  0  0  0  0  0  0  0  0  0  0  0
  184.8290  180.4790  143.1880 O   0  0  0  0  0  1  0  0  0  0  0  0
  187.5430  178.0590  147.9170 C   0  0  0  0  0  3  0  0  0  0  0  0
  187.9310  177.2730  142.8950 O   0  0  0  0  0  0  0  0  0  0  0  0
  187.1920  177.9020  145.1040 C   0  0  0  0  0  0  0  0  0  0  0  0
  186.1390  178.4030  145.9560 C   0  0  0  0  0  0  0  0  0  0  0  0
  189.4430  176.9860  144.9910 N   0  0  0  0  0  0  0  0  0  0  0  0
  182.7100  178.8860  144.6100 N   0  0  0  0  0  2  0  0  0  0  0  0
  181.6910  178.5960  143.6510 C   0  0  0  0  0  0  0  0  0  0  0  0
  181.9660  177.9750  142.5890 O   0  0  0  0  0  0  0  0  0  0  0  0
  180.2980  179.0630  143.8930 C   0  0  0  0  0  2  0  0  0  0  0  0
  179.7350  179.6640  142.6520 C   0  0  0  0  0  0  0  0  0  0  0  0
  178.9310  178.9030  141.8140 O   0  0  0  0  0  0  0  0  0  0  0  0
  179.9580  180.8720  142.3790 O   0  0  0  0  0  1  0  0  0  0  0  0
  184.0010  179.3800  139.7310 C   0  0  0  0  0  1  0  0  0  0  0  0
  185.1420  179.1930  140.7260 C   0  0  2  0  0  3  0  0  0  0  0  0
  186.3130  178.6530  140.0550 N   0  0  0  0  0  1  0  0  0  0  0  0
  192.9260  175.9000  148.1530 N   0  0  0  0  0  0  0  0  0  0  0  0
  191.9560  176.2370  147.6200 C   0  0  0  0  0  0  0  0  0  0  0  0
  1 17  1  0  0  0  0
  2 18  1  0  0  0  0
  3 14  1  6  0  0  0
  3  7  1  0  0  0  0
  4 11  1  0  0  0  0
  5 13  1  0  0  0  0
  6 31  1  0  0  0  0
  6 12  1  0  0  0  0
  7 20  1  1  0  0  0
  7  2  1  0  0  0  0
  8 15  2  0  0  0  0
  9  3  1  0  0  0  0
  9  1  1  0  0  0  0
 10 28  1  6  0  0  0
 10  9  1  0  0  0  0
 10  3  1  0  0  0  0
 11 12  2  0  0  0  0
 11 15  1  0  0  0  0
 13  6  2  0  0  0  0
 16  1  2  0  0  0  0
 17  4  1  0  0  0  0
 17 18  2  0  0  0  0
 18  8  1  0  0  0  0
 19 13  1  0  0  0  0
 19  4  2  0  0  0  0
 21 23  1  0  0  0  0
 21 20  1  0  0  0  0
 22 21  2  0  0  0  0
 24 23  1  0  0  0  0
 25 24  2  0  0  0  0
 26 24  1  0  0  0  0
 28 27  1  6  0  0  0
 29 28  1  0  0  0  0
 31 30  3  0  0  0  0
M  END
>  <MODEL>
1

>  <REMARK>
 VINA RESULT:      -8.9      0.000      0.000
  Name = 
  5 active torsions:
  status: ('A' for Active; 'I' for Inactive)
    1  A    between atoms: N_3  and  C_9
    2  A    between atoms: C_8  and  C_26
    3  A    between atoms: C_10  and  C_15
    4  A    between atoms: C_13  and  C_28
    5  A    between atoms: C_15  and  C_17
                            x       y       z     vdW  Elec       q    Type
                         _______ _______ _______ _____ _____    ______ ____

>  <TORSDO>
F 5

$$$$
=
 OpenBabel10222420273D

 31 34  0  0  1  0  0  0  0  0999 V2000
  186.6580  178.2220  142.1940 C   0  0  0  0  0  0  0  0  0  0  0  0
  187.6110  177.8640  145.1300 O   0  0  0  0  0  0  0  0  0  0  0  0
  189.0690  177.4370  143.2820 C   0  0  1  0  0  0  0  0  0  0  0  0
  184.3880  178.5700  143.2370 C   0  0  0  0  0  0  0  0  0  0  0  0
  181.9970  179.2040  140.4410 C   0  0  0  0  0  1  0  0  0  0  0  0
  181.6730  179.0490  142.9460 C   0  0  0  0  0  0  0  0  0  0  0  0
  188.8150  178.2930  144.4930 C   0  0  2  0  0  3  0  0  0  0  0  0
  185.3780  178.1630  145.8160 C   0  0  0  0  0  3  0  0  0  0  0  0
  188.0040  177.8300  142.3440 N   0  0  0  0  0  0  0  0  0  0  0  0
  189.4700  177.9670  142.0640 C   0  0  2  0  0  3  0  0  0  0  0  0
  183.5290  178.6150  144.3550 C   0  0  0  0  0  0  0  0  0  0  0  0
  182.2030  178.8520  144.1800 N   0  0  0  0  0  0  0  0  0  0  0  0
  182.5160  179.0010  141.8250 C   0  0  0  0  0  0  0  0  0  0  0  0
  189.0600  176.0490  143.4690 O   0  0  0  0  0  1  0  0  0  0  0  0
  184.0250  178.4070  145.6320 C   0  0  0  0  0  3  0  0  0  0  0  0
  186.2500  178.5440  141.0470 O   0  0  0  0  0  0  0  0  0  0  0  0
  185.7820  178.3170  143.4030 C   0  0  0  0  0  0  0  0  0  0  0  0
  186.2770  178.1260  144.7460 C   0  0  0  0  0  0  0  0  0  0  0  0
  183.8420  178.7630  142.0040 N   0  0  0  0  0  0  0  0  0  0  0  0
  189.9310  178.1680  145.4180 N   0  0  0  0  0  2  0  0  0  0  0  0
  189.8820  177.3160  146.5640 C   0  0  0  0  0  0  0  0  0  0  0  0
  188.8450  176.6510  146.8260 O   0  0  0  0  0  0  0  0  0  0  0  0
  191.0570  177.2410  147.4760 C   0  0  0  0  0  2  0  0  0  0  0  0
  191.9620  176.1330  147.0590 C   0  0  0  0  0  0  0  0  0  0  0  0
  192.0200  175.7470  145.7260 O   0  0  0  0  0  0  0  0  0  0  0  0
  192.6980  175.5670  147.9090 O   0  0  0  0  0  1  0  0  0  0  0  0
  191.4330  177.0190  140.6300 C   0  0  0  0  0  1  0  0  0  0  0  0
  189.9500  176.9710  140.9840 C   0  0  2  0  0  3  0  0  0  0  0  0
  189.1400  177.0820  139.7830 N   0  0  0  0  0  1  0  0  0  0  0  0
  179.1240  179.4970  142.7200 N   0  0  0  0  0  0  0  0  0  0  0  0
  180.2590  179.2980  142.8200 C   0  0  0  0  0  0  0  0  0  0  0  0
  1  9  1  0  0  0  0
  1 17  1  0  0  0  0
  3 14  1  1  0  0  0
  3  7  1  0  0  0  0
  4 17  1  0  0  0  0
  4 11  1  0  0  0  0
  5 13  1  0  0  0  0
  6 12  1  0  0  0  0
  7  2  1  0  0  0  0
  7 20  1  1  0  0  0
  9  3  1  0  0  0  0
 10 28  1  6  0  0  0
 10  9  1  0  0  0  0
 10  3  1  0  0  0  0
 11 15  1  0  0  0  0
 12 11  2  0  0  0  0
 13 19  1  0  0  0  0
 13  6  2  0  0  0  0
 15  8  2  0  0  0  0
 16  1  2  0  0  0  0
 17 18  2  0  0  0  0
 18  2  1  0  0  0  0
 18  8  1  0  0  0  0
 19  4  2  0  0  0  0
 20 21  1  0  0  0  0
 21 22  2  0  0  0  0
 21 23  1  0  0  0  0
 24 23  1  0  0  0  0
 24 26  1  0  0  0  0
 25 24  2  0  0  0  0
 28 27  1  6  0  0  0
 29 28  1  0  0  0  0
 30 31  3  0  0  0  0
 31  6  1  0  0  0  0
M  END
>  <MODEL>
2

>  <REMARK>
 VINA RESULT:      -8.7      2.730      8.174
  Name = 
  5 active torsions:
  status: ('A' for Active; 'I' for Inactive)
    1  A    between atoms: N_3  and  C_9
    2  A    between atoms: C_8  and  C_26
    3  A    between atoms: C_10  and  C_15
    4  A    between atoms: C_13  and  C_28
    5  A    between atoms: C_15  and  C_17
                            x       y       z     vdW  Elec       q    Type
                         _______ _______ _______ _____ _____    ______ ____

>  <TORSDO>
F 5

$$$$
=
 OpenBabel10222420273D

 31 34  0  0  1  0  0  0  0  0999 V2000
  187.9870  177.8980  141.1820 C   0  0  0  0  0  0  0  0  0  0  0  0
  190.5820  176.3960  140.3640 O   0  0  0  0  0  0  0  0  0  0  0  0
  188.9740  177.0900  138.7350 C   0  0  1  0  0  0  0  0  0  0  0  0
  188.7240  177.3740  143.5370 C   0  0  0  0  0  0  0  0  0  0  0  0
  186.1580  178.8280  145.8250 C   0  0  0  0  0  1  0  0  0  0  0  0
  188.2670  177.5020  146.2680 C   0  0  0  0  0  0  0  0  0  0  0  0
  190.3830  177.2500  139.2370 C   0  0  2  0  0  3  0  0  0  0  0  0
  190.9870  175.9980  142.6500 C   0  0  0  0  0  3  0  0  0  0  0  0
  188.1510  177.6960  139.7970 N   0  0  0  0  0  0  0  0  0  0  0  0
  188.1820  178.1720  138.3760 C   0  0  2  0  0  3  0  0  0  0  0  0
  189.6080  176.7700  144.4560 C   0  0  0  0  0  0  0  0  0  0  0  0
  189.3570  176.8510  145.7890 N   0  0  0  0  0  0  0  0  0  0  0  0
  187.3770  178.1020  145.3640 C   0  0  0  0  0  0  0  0  0  0  0  0
  188.5350  175.7870  138.4690 O   0  0  0  0  0  1  0  0  0  0  0  0
  190.7260  176.0840  144.0100 C   0  0  0  0  0  3  0  0  0  0  0  0
  187.0460  178.6380  141.5740 O   0  0  0  0  0  0  0  0  0  0  0  0
  188.9700  177.2930  142.1350 C   0  0  0  0  0  0  0  0  0  0  0  0
  190.1550  176.5930  141.6970 C   0  0  0  0  0  0  0  0  0  0  0  0
  187.6310  178.0190  144.0310 N   0  0  0  0  0  0  0  0  0  0  0  0
  191.3170  176.8940  138.1810 N   0  0  0  0  0  2  0  0  0  0  0  0
  192.7280  176.8280  138.4000 C   0  0  0  0  0  0  0  0  0  0  0  0
  193.2170  177.1020  139.5280 O   0  0  0  0  0  0  0  0  0  0  0  0
  193.6310  176.4660  137.2720 C   0  0  0  0  0  2  0  0  0  0  0  0
  194.2550  175.1360  137.5200 C   0  0  0  0  0  0  0  0  0  0  0  0
  195.6330  175.0270  137.6450 O   0  0  0  0  0  0  0  0  0  0  0  0
  193.5310  174.1140  137.6490 O   0  0  0  0  0  1  0  0  0  0  0  0
  186.9180  177.9060  136.1090 C   0  0  0  0  0  1  0  0  0  0  0  0
  186.8620  177.8650  137.6330 C   0  0  2  0  0  3  0  0  0  0  0  0
  185.7850  178.7100  138.1220 N   0  0  0  0  0  1  0  0  0  0  0  0
  187.8790  177.6010  148.8350 N   0  0  0  0  0  0  0  0  0  0  0  0
  188.0520  177.5570  147.6920 C   0  0  0  0  0  0  0  0  0  0  0  0
  1 16  2  0  0  0  0
  1 17  1  0  0  0  0
  2 18  1  0  0  0  0
  3 14  1  6  0  0  0
  3  7  1  0  0  0  0
  3  9  1  0  0  0  0
  4 19  2  0  0  0  0
  4 11  1  0  0  0  0
  6 31  1  0  0  0  0
  7 20  1  6  0  0  0
  7  2  1  0  0  0  0
  8 15  2  0  0  0  0
  9  1  1  0  0  0  0
 10 28  1  6  0  0  0
 10  3  1  0  0  0  0
 10  9  1  0  0  0  0
 11 12  2  0  0  0  0
 12  6  1  0  0  0  0
 13  5  1  0  0  0  0
 13  6  2  0  0  0  0
 15 11  1  0  0  0  0
 17  4  1  0  0  0  0
 18 17  2  0  0  0  0
 18  8  1  0  0  0  0
 19 13  1  0  0  0  0
 20 21  1  0  0  0  0
 21 22  2  0  0  0  0
 23 24  1  0  0  0  0
 23 21  1  0  0  0  0
 24 25  2  0  0  0  0
 24 26  1  0  0  0  0
 28 27  1  6  0  0  0
 28 29  1  0  0  0  0
 31 30  3  0  0  0  0
M  END
>  <MODEL>
3

>  <REMARK>
 VINA RESULT:      -8.4      4.377      8.118
  Name = 
  5 active torsions:
  status: ('A' for Active; 'I' for Inactive)
    1  A    between atoms: N_3  and  C_9
    2  A    between atoms: C_8  and  C_26
    3  A    between atoms: C_10  and  C_15
    4  A    between atoms: C_13  and  C_28
    5  A    between atoms: C_15  and  C_17
                            x       y       z     vdW  Elec       q    Type
                         _______ _______ _______ _____ _____    ______ ____

>  <TORSDO>
F 5

$$$$
=
 OpenBabel10222420273D

 31 34  0  0  1  0  0  0  0  0999 V2000
  187.9290  177.8220  139.7870 C   0  0  0  0  0  0  0  0  0  0  0  0
  190.5490  176.1720  140.0500 O   0  0  0  0  0  0  0  0  0  0  0  0
  189.5860  176.6560  137.9140 C   0  0  1  0  0  0  0  0  0  0  0  0
  187.8490  177.6270  142.3010 C   0  0  0  0  0  0  0  0  0  0  0  0
  184.7870  179.4390  143.4310 C   0  0  0  0  0  1  0  0  0  0  0  0
  186.5590  178.1520  144.6970 C   0  0  0  0  0  0  0  0  0  0  0  0
  190.7710  176.8600  138.8190 C   0  0  2  0  0  3  0  0  0  0  0  0
  190.1840  176.0980  142.3750 C   0  0  0  0  0  3  0  0  0  0  0  0
  188.5100  177.4210  138.5670 N   0  0  0  0  0  0  0  0  0  0  0  0
  189.0190  177.6890  137.1820 C   0  0  2  0  0  3  0  0  0  0  0  0
  188.3560  177.1450  143.5250 C   0  0  0  0  0  0  0  0  0  0  0  0
  187.7020  177.4190  144.6830 N   0  0  0  0  0  0  0  0  0  0  0  0
  186.0410  178.6320  143.4860 C   0  0  0  0  0  0  0  0  0  0  0  0
  189.1730  175.3370  137.6920 O   0  0  0  0  0  1  0  0  0  0  0  0
  189.5120  176.3820  143.5550 C   0  0  0  0  0  3  0  0  0  0  0  0
  186.9610  178.6270  139.7550 O   0  0  0  0  0  0  0  0  0  0  0  0
  188.5200  177.3420  141.0750 C   0  0  0  0  0  0  0  0  0  0  0  0
  189.7350  176.5650  141.1370 C   0  0  0  0  0  0  0  0  0  0  0  0
  186.6980  178.3550  142.3280 N   0  0  0  0  0  0  0  0  0  0  0  0
  191.9680  176.3400  138.1750 N   0  0  0  0  0  2  0  0  0  0  0  0
  193.2780  176.5770  138.6940 C   0  0  0  0  0  0  0  0  0  0  0  0
  193.4430  177.2750  139.7300 O   0  0  0  0  0  0  0  0  0  0  0  0
  194.4630  176.0230  137.9810 C   0  0  0  0  0  2  0  0  0  0  0  0
  194.9940  174.8380  138.7110 C   0  0  0  0  0  0  0  0  0  0  0  0
  195.8110  175.0140  139.8190 O   0  0  0  0  0  1  0  0  0  0  0  0
  194.6760  173.6770  138.3430 O   0  0  0  0  0  0  0  0  0  0  0  0
  188.5400  177.0040  134.7110 C   0  0  0  0  0  1  0  0  0  0  0  0
  187.9850  177.3030  136.0990 C   0  0  2  0  0  3  0  0  0  0  0  0
  186.9280  178.2970  136.0180 N   0  0  0  0  0  1  0  0  0  0  0  0
  185.3860  178.6230  146.9670 N   0  0  0  0  0  0  0  0  0  0  0  0
  185.9090  178.4130  145.9560 C   0  0  0  0  0  0  0  0  0  0  0  0
  1 17  1  0  0  0  0
  2 18  1  0  0  0  0
  3 14  1  6  0  0  0
  3  9  1  0  0  0  0
  3  7  1  0  0  0  0
  4 19  2  0  0  0  0
  4 11  1  0  0  0  0
  5 13  1  0  0  0  0
  6 31  1  0  0  0  0
  7 20  1  6  0  0  0
  7  2  1  0  0  0  0
  8 15  2  0  0  0  0
  9  1  1  0  0  0  0
 10 28  1  6  0  0  0
 10  3  1  0  0  0  0
 10  9  1  0  0  0  0
 11 15  1  0  0  0  0
 11 12  2  0  0  0  0
 12  6  1  0  0  0  0
 13  6  2  0  0  0  0
 16  1  2  0  0  0  0
 17 18  2  0  0  0  0
 17  4  1  0  0  0  0
 18  8  1  0  0  0  0
 19 13  1  0  0  0  0
 20 21  1  0  0  0  0
 21 22  2  0  0  0  0
 23 21  1  0  0  0  0
 23 24  1  0  0  0  0
 24 25  1  0  0  0  0
 26 24  2  0  0  0  0
 28 27  1  6  0  0  0
 29 28  1  0  0  0  0
 31 30  3  0  0  0  0
M  END
>  <MODEL>
4

>  <REMARK>
 VINA RESULT:      -8.0      4.815      8.854
  Name = 
  5 active torsions:
  status: ('A' for Active; 'I' for Inactive)
    1  A    between atoms: N_3  and  C_9
    2  A    between atoms: C_8  and  C_26
    3  A    between atoms: C_10  and  C_15
    4  A    between atoms: C_13  and  C_28
    5  A    between atoms: C_15  and  C_17
                            x       y       z     vdW  Elec       q    Type
                         _______ _______ _______ _____ _____    ______ ____

>  <TORSDO>
F 5

$$$$
=
 OpenBabel10222420273D

 31 34  0  0  1  0  0  0  0  0999 V2000
  186.3250  178.1230  141.6260 C   0  0  0  0  0  0  0  0  0  0  0  0
  183.2990  178.8230  141.5360 O   0  0  0  0  0  0  0  0  0  0  0  0
  184.6220  178.7390  139.5450 C   0  0  1  0  0  0  0  0  0  0  0  0
  186.0280  178.2630  144.1270 C   0  0  0  0  0  0  0  0  0  0  0  0
  189.3490  177.5130  145.6570 C   0  0  0  0  0  1  0  0  0  0  0  0
  187.1120  178.1180  146.6740 C   0  0  0  0  0  0  0  0  0  0  0  0
  183.4670  178.1360  140.2960 C   0  0  2  0  0  3  0  0  0  0  0  0
  183.3310  178.9460  143.8880 C   0  0  0  0  0  3  0  0  0  0  0  0
  185.8000  178.3470  140.3380 N   0  0  0  0  0  0  0  0  0  0  0  0
  185.5810  177.9680  138.9040 C   0  0  2  0  0  3  0  0  0  0  0  0
  185.2440  178.5180  145.2720 C   0  0  0  0  0  0  0  0  0  0  0  0
  185.8040  178.4390  146.5060 N   0  0  0  0  0  0  0  0  0  0  0  0
  187.9040  177.8660  145.5430 C   0  0  0  0  0  0  0  0  0  0  0  0
  184.6060  180.1270  139.3580 O   0  0  0  0  0  1  0  0  0  0  0  0
  183.9080  178.8630  145.1460 C   0  0  0  0  0  3  0  0  0  0  0  0
  187.4990  177.6770  141.7270 O   0  0  0  0  0  0  0  0  0  0  0  0
  185.4560  178.3480  142.8230 C   0  0  0  0  0  0  0  0  0  0  0  0
  184.0560  178.6850  142.7210 C   0  0  0  0  0  0  0  0  0  0  0  0
  187.3400  177.9470  144.3090 N   0  0  0  0  0  0  0  0  0  0  0  0
  182.2550  178.2560  139.5000 N   0  0  0  0  0  2  0  0  0  0  0  0
  181.4320  177.1300  139.1870 C   0  0  0  0  0  0  0  0  0  0  0  0
  181.7480  175.9750  139.5780 O   0  0  0  0  0  0  0  0  0  0  0  0
  180.2080  177.3210  138.3610 C   0  0  0  0  0  2  0  0  0  0  0  0
  179.3490  178.3850  138.9510 C   0  0  0  0  0  0  0  0  0  0  0  0
  178.9310  178.2880  140.2710 O   0  0  0  0  0  1  0  0  0  0  0  0
  179.0300  179.3900  138.2640 O   0  0  0  0  0  0  0  0  0  0  0  0
  186.5330  178.2640  136.4930 C   0  0  0  0  0  1  0  0  0  0  0  0
  186.5570  178.6990  137.9540 C   0  0  2  0  0  3  0  0  0  0  0  0
  187.9140  178.6530  138.4730 N   0  0  0  0  0  1  0  0  0  0  0  0
  188.0860  177.9890  149.0790 N   0  0  0  0  0  0  0  0  0  0  0  0
  187.6530  178.0460  148.0080 C   0  0  0  0  0  0  0  0  0  0  0  0
  1 16  2  0  0  0  0
  1 17  1  0  0  0  0
  2 18  1  0  0  0  0
  3 14  1  6  0  0  0
  3  7  1  0  0  0  0
  3  9  1  0  0  0  0
  4 19  2  0  0  0  0
  4 11  1  0  0  0  0
  6 31  1  0  0  0  0
  7 20  1  6  0  0  0
  7  2  1  0  0  0  0
  8 15  2  0  0  0  0
  9  1  1  0  0  0  0
 10 28  1  6  0  0  0
 10  3  1  0  0  0  0
 10  9  1  0  0  0  0
 11 12  2  0  0  0  0
 12  6  1  0  0  0  0
 13  5  1  0  0  0  0
 13  6  2  0  0  0  0
 15 11  1  0  0  0  0
 17  4  1  0  0  0  0
 18 17  2  0  0  0  0
 18  8  1  0  0  0  0
 19 13  1  0  0  0  0
 21 20  1  0  0  0  0
 21 22  2  0  0  0  0
 23 24  1  0  0  0  0
 23 21  1  0  0  0  0
 24 25  1  0  0  0  0
 26 24  2  0  0  0  0
 28 27  1  6  0  0  0
 28 29  1  0  0  0  0
 31 30  3  0  0  0  0
M  END
>  <MODEL>
5

>  <REMARK>
 VINA RESULT:      -7.9      2.465      3.823
  Name = 
  5 active torsions:
  status: ('A' for Active; 'I' for Inactive)
    1  A    between atoms: N_3  and  C_9
    2  A    between atoms: C_8  and  C_26
    3  A    between atoms: C_10  and  C_15
    4  A    between atoms: C_13  and  C_28
    5  A    between atoms: C_15  and  C_17
                            x       y       z     vdW  Elec       q    Type
                         _______ _______ _______ _____ _____    ______ ____

>  <TORSDO>
F 5

$$$$
=
 OpenBabel10222420273D

 31 34  0  0  1  0  0  0  0  0999 V2000
  186.8120  177.7570  143.8230 C   0  0  0  0  0  0  0  0  0  0  0  0
  188.5720  177.9540  141.2700 O   0  0  0  0  0  0  0  0  0  0  0  0
  189.5390  177.6060  143.4300 C   0  0  1  0  0  0  0  0  0  0  0  0
  184.9350  178.4320  142.2780 C   0  0  0  0  0  0  0  0  0  0  0  0
  181.8290  178.5690  144.3440 C   0  0  0  0  0  1  0  0  0  0  0  0
  182.2610  179.0520  141.8980 C   0  0  0  0  0  0  0  0  0  0  0  0
  189.3210  177.0290  142.0580 C   0  0  2  0  0  3  0  0  0  0  0  0
  186.6520  178.6280  140.0850 C   0  0  0  0  0  3  0  0  0  0  0  0
  188.1960  177.5920  144.0350 N   0  0  0  0  0  0  0  0  0  0  0  0
  189.3810  176.8590  144.5880 C   0  0  2  0  0  3  0  0  0  0  0  0
  184.4490  178.8280  141.0150 C   0  0  0  0  0  0  0  0  0  0  0  0
  183.1330  179.1250  140.8600 N   0  0  0  0  0  0  0  0  0  0  0  0
  182.7330  178.6650  143.1610 C   0  0  0  0  0  0  0  0  0  0  0  0
  190.0870  178.8930  143.5000 O   0  0  0  0  0  1  0  0  0  0  0  0
  185.3070  178.9290  139.9320 C   0  0  0  0  0  3  0  0  0  0  0  0
  186.0270  177.5290  144.7810 O   0  0  0  0  0  0  0  0  0  0  0  0
  186.3160  178.1230  142.4600 C   0  0  0  0  0  0  0  0  0  0  0  0
  187.1840  178.2130  141.3090 C   0  0  0  0  0  0  0  0  0  0  0  0
  184.0510  178.3690  143.3130 N   0  0  0  0  0  0  0  0  0  0  0  0
  190.6080  176.7760  141.4280 N   0  0  0  0  0  2  0  0  0  0  0  0
  190.8890  177.1640  140.0820 C   0  0  0  0  0  0  0  0  0  0  0  0
  190.0080  177.7270  139.3790 O   0  0  0  0  0  0  0  0  0  0  0  0
  192.2250  176.8680  139.4940 C   0  0  0  0  0  2  0  0  0  0  0  0
  192.0740  176.0290  138.2720 C   0  0  0  0  0  0  0  0  0  0  0  0
  191.2970  174.8790  138.3100 O   0  0  0  0  0  1  0  0  0  0  0  0
  192.6230  176.3790  137.1950 O   0  0  0  0  0  0  0  0  0  0  0  0
  191.3050  177.1210  146.3310 C   0  0  0  0  0  1  0  0  0  0  0  0
  189.8860  177.4860  145.9080 C   0  0  2  0  0  3  0  0  0  0  0  0
  188.9540  177.2280  146.9920 N   0  0  0  0  0  1  0  0  0  0  0  0
  179.7620  179.6390  141.4950 N   0  0  0  0  0  0  0  0  0  0  0  0
  180.8750  179.3770  141.6740 C   0  0  0  0  0  0  0  0  0  0  0  0
  1  9  1  0  0  0  0
  1 16  2  0  0  0  0
  2 18  1  0  0  0  0
  2  7  1  0  0  0  0
  3 14  1  1  0  0  0
  3  9  1  0  0  0  0
  3 10  1  0  0  0  0
  4 17  1  0  0  0  0
  4 19  1  0  0  0  0
  6 13  1  0  0  0  0
  7 20  1  6  0  0  0
  7  3  1  0  0  0  0
  8 18  1  0  0  0  0
  9 10  1  0  0  0  0
 10 28  1  1  0  0  0
 11  4  2  0  0  0  0
 12 11  1  0  0  0  0
 12  6  2  0  0  0  0
 13 19  2  0  0  0  0
 13  5  1  0  0  0  0
 15  8  2  0  0  0  0
 15 11  1  0  0  0  0
 17  1  1  0  0  0  0
 18 17  2  0  0  0  0
 21 20  1  0  0  0  0
 22 21  2  0  0  0  0
 23 21  1  0  0  0  0
 24 25  1  0  0  0  0
 24 23  1  0  0  0  0
 26 24  2  0  0  0  0
 28 27  1  1  0  0  0
 28 29  1  0  0  0  0
 30 31  3  0  0  0  0
 31  6  1  0  0  0  0
M  END
>  <MODEL>
6

>  <REMARK>
 VINA RESULT:      -7.7      3.153      8.820
  Name = 
  5 active torsions:
  status: ('A' for Active; 'I' for Inactive)
    1  A    between atoms: N_3  and  C_9
    2  A    between atoms: C_8  and  C_26
    3  A    between atoms: C_10  and  C_15
    4  A    between atoms: C_13  and  C_28
    5  A    between atoms: C_15  and  C_17
                            x       y       z     vdW  Elec       q    Type
                         _______ _______ _______ _____ _____    ______ ____

>  <TORSDO>
F 5

$$$$
=
 OpenBabel10222420273D

 31 34  0  0  1  0  0  0  0  0999 V2000
  183.7890  178.3760  142.6040 C   0  0  0  0  0  0  0  0  0  0  0  0
  184.2410  178.9060  139.5760 O   0  0  0  0  0  0  0  0  0  0  0  0
  182.0460  178.6010  140.4770 C   0  0  1  0  0  0  0  0  0  0  0  0
  186.3040  178.2010  142.6930 C   0  0  0  0  0  0  0  0  0  0  0  0
  187.2170  177.5100  146.2460 C   0  0  0  0  0  1  0  0  0  0  0  0
  188.6170  177.7510  144.1530 C   0  0  0  0  0  0  0  0  0  0  0  0
  182.9870  179.5540  139.7910 C   0  0  2  0  0  3  0  0  0  0  0  0
  186.5500  178.6280  139.9450 C   0  0  0  0  0  3  0  0  0  0  0  0
  182.6160  178.4560  141.8280 N   0  0  0  0  0  0  0  0  0  0  0  0
  181.2410  178.9820  141.5410 C   0  0  2  0  0  3  0  0  0  0  0  0
  187.5710  178.1940  142.0730 C   0  0  0  0  0  0  0  0  0  0  0  0
  188.6860  177.9710  142.8150 N   0  0  0  0  0  0  0  0  0  0  0  0
  187.3630  177.7500  144.7810 C   0  0  0  0  0  0  0  0  0  0  0  0
  181.8730  177.3420  139.8880 O   0  0  0  0  0  1  0  0  0  0  0  0
  187.6860  178.4010  140.7080 C   0  0  0  0  0  3  0  0  0  0  0  0
  183.6780  178.3270  143.8580 O   0  0  0  0  0  0  0  0  0  0  0  0
  185.1220  178.4270  141.9270 C   0  0  0  0  0  0  0  0  0  0  0  0
  185.2730  178.6640  140.5110 C   0  0  0  0  0  0  0  0  0  0  0  0
  186.2490  177.9730  144.0350 N   0  0  0  0  0  0  0  0  0  0  0  0
  182.4200  179.9630  138.5160 N   0  0  0  0  0  2  0  0  0  0  0  0
  181.3850  180.9430  138.4200 C   0  0  0  0  0  0  0  0  0  0  0  0
  180.9060  181.4770  139.4560 O   0  0  0  0  0  0  0  0  0  0  0  0
  180.8410  181.3100  137.0820 C   0  0  0  0  0  2  0  0  0  0  0  0
  180.3660  182.7220  137.0910 C   0  0  0  0  0  0  0  0  0  0  0  0
  181.2830  183.7640  137.0470 O   0  0  0  0  0  0  0  0  0  0  0  0
  179.1330  182.9730  137.1030 O   0  0  0  0  0  1  0  0  0  0  0  0
  178.9320  177.8680  141.0550 C   0  0  0  0  0  1  0  0  0  0  0  0
  180.1380  177.9930  141.9810 C   0  0  2  0  0  3  0  0  0  0  0  0
  179.7040  178.2760  143.3390 N   0  0  0  0  0  1  0  0  0  0  0  0
  190.8110  177.3370  145.4820 N   0  0  0  0  0  0  0  0  0  0  0  0
  189.8340  177.5220  144.8900 C   0  0  0  0  0  0  0  0  0  0  0  0
  1 16  2  0  0  0  0
  2  7  1  0  0  0  0
  2 18  1  0  0  0  0
  3 14  1  6  0  0  0
  3 10  1  0  0  0  0
  3  9  1  0  0  0  0
  4 19  1  0  0  0  0
  6 13  1  0  0  0  0
  6 31  1  0  0  0  0
  7 20  1  6  0  0  0
  7  3  1  0  0  0  0
  8 18  2  0  0  0  0
  8 15  1  0  0  0  0
  9  1  1  0  0  0  0
 10  9  1  0  0  0  0
 10 28  1  1  0  0  0
 11  4  1  0  0  0  0
 11 12  1  0  0  0  0
 12  6  2  0  0  0  0
 13  5  1  0  0  0  0
 15 11  2  0  0  0  0
 17  1  1  0  0  0  0
 17  4  2  0  0  0  0
 18 17  1  0  0  0  0
 19 13  2  0  0  0  0
 21 20  1  0  0  0  0
 21 22  2  0  0  0  0
 23 24  1  0  0  0  0
 23 21  1  0  0  0  0
 24 26  1  0  0  0  0
 25 24  2  0  0  0  0
 28 27  1  6  0  0  0
 28 29  1  0  0  0  0
 31 30  3  0  0  0  0
M  END
>  <MODEL>
7

>  <REMARK>
 VINA RESULT:      -7.6      2.907      5.250
  Name = 
  5 active torsions:
  status: ('A' for Active; 'I' for Inactive)
    1  A    between atoms: N_3  and  C_9
    2  A    between atoms: C_8  and  C_26
    3  A    between atoms: C_10  and  C_15
    4  A    between atoms: C_13  and  C_28
    5  A    between atoms: C_15  and  C_17
                            x       y       z     vdW  Elec       q    Type
                         _______ _______ _______ _____ _____    ______ ____

>  <TORSDO>
F 5

$$$$
=
 OpenBabel10222420273D

 31 34  0  0  1  0  0  0  0  0999 V2000
  185.9670  178.5260  141.6430 C   0  0  0  0  0  0  0  0  0  0  0  0
  185.6230  177.8910  144.6650 O   0  0  0  0  0  0  0  0  0  0  0  0
  187.6910  177.4890  143.5310 C   0  0  1  0  0  0  0  0  0  0  0  0
  183.4840  178.9670  141.7080 C   0  0  0  0  0  0  0  0  0  0  0  0
  182.4710  179.9730  138.2590 C   0  0  0  0  0  1  0  0  0  0  0  0
  181.1460  179.6650  140.3930 C   0  0  0  0  0  0  0  0  0  0  0  0
  186.9970  178.2730  144.6120 C   0  0  2  0  0  3  0  0  0  0  0  0
  183.3180  178.3060  144.4160 C   0  0  0  0  0  3  0  0  0  0  0  0
  187.1170  178.0260  142.2850 N   0  0  0  0  0  0  0  0  0  0  0  0
  188.5740  178.0720  142.6350 C   0  0  2  0  0  3  0  0  0  0  0  0
  182.2460  178.9960  142.3830 C   0  0  0  0  0  0  0  0  0  0  0  0
  181.1180  179.3430  141.7110 N   0  0  0  0  0  0  0  0  0  0  0  0
  182.3700  179.6350  139.7090 C   0  0  0  0  0  0  0  0  0  0  0  0
  187.5520  176.0960  143.5650 O   0  0  0  0  0  1  0  0  0  0  0  0
  182.1690  178.6610  143.7250 C   0  0  0  0  0  3  0  0  0  0  0  0
  186.0760  178.9570  140.4640 O   0  0  0  0  0  0  0  0  0  0  0  0
  184.6770  178.5990  142.3980 C   0  0  0  0  0  0  0  0  0  0  0  0
  184.5730  178.2780  143.8010 C   0  0  0  0  0  0  0  0  0  0  0  0
  183.4980  179.2870  140.3840 N   0  0  0  0  0  0  0  0  0  0  0  0
  187.6320  178.0010  145.8920 N   0  0  0  0  0  2  0  0  0  0  0  0
  187.0080  178.3190  147.1370 C   0  0  0  0  0  0  0  0  0  0  0  0
  185.8780  178.8760  147.1660 O   0  0  0  0  0  0  0  0  0  0  0  0
  187.7160  178.0220  148.4130 C   0  0  0  0  0  2  0  0  0  0  0  0
  189.1420  177.6840  148.1420 C   0  0  0  0  0  0  0  0  0  0  0  0
  190.1520  178.5270  148.5880 O   0  0  0  0  0  1  0  0  0  0  0  0
  189.4340  176.6190  147.5390 O   0  0  0  0  0  0  0  0  0  0  0  0
  190.7870  176.7340  142.2900 C   0  0  0  0  0  1  0  0  0  0  0  0
  189.4150  177.1230  141.7510 C   0  0  2  0  0  3  0  0  0  0  0  0
  189.5320  177.6440  140.4000 N   0  0  0  0  0  1  0  0  0  0  0  0
  178.9310  180.3170  139.2020 N   0  0  0  0  0  0  0  0  0  0  0  0
  179.9180  180.0270  139.7320 C   0  0  0  0  0  0  0  0  0  0  0  0
  1  9  1  0  0  0  0
  1 17  1  0  0  0  0
  3 14  1  1  0  0  0
  3  7  1  0  0  0  0
  4 11  1  0  0  0  0
  4 17  1  0  0  0  0
  5 13  1  0  0  0  0
  6 12  1  0  0  0  0
  7  2  1  0  0  0  0
  7 20  1  1  0  0  0
  9 10  1  0  0  0  0
  9  3  1  0  0  0  0
 10 28  1  6  0  0  0
 10  3  1  0  0  0  0
 11 15  1  0  0  0  0
 12 11  2  0  0  0  0
 13 19  1  0  0  0  0
 13  6  2  0  0  0  0
 15  8  2  0  0  0  0
 16  1  2  0  0  0  0
 17 18  2  0  0  0  0
 18  8  1  0  0  0  0
 18  2  1  0  0  0  0
 19  4  2  0  0  0  0
 20 21  1  0  0  0  0
 21 22  2  0  0  0  0
 21 23  1  0  0  0  0
 24 23  1  0  0  0  0
 24 25  1  0  0  0  0
 26 24  2  0  0  0  0
 28 27  1  1  0  0  0
 29 28  1  0  0  0  0
 30 31  3  0  0  0  0
 31  6  1  0  0  0  0
M  END
>  <MODEL>
8

>  <REMARK>
 VINA RESULT:      -7.6      2.885      8.176
  Name = 
  5 active torsions:
  status: ('A' for Active; 'I' for Inactive)
    1  A    between atoms: N_3  and  C_9
    2  A    between atoms: C_8  and  C_26
    3  A    between atoms: C_10  and  C_15
    4  A    between atoms: C_13  and  C_28
    5  A    between atoms: C_15  and  C_17
                            x       y       z     vdW  Elec       q    Type
                         _______ _______ _______ _____ _____    ______ ____

>  <TORSDO>
F 5

$$$$
=
 OpenBabel10222420273D

 31 34  0  0  1  0  0  0  0  0999 V2000
  188.7130  177.4650  142.9970 C   0  0  0  0  0  0  0  0  0  0  0  0
  191.7030  177.3590  143.8340 O   0  0  0  0  0  0  0  0  0  0  0  0
  189.9640  177.6540  145.4490 C   0  0  1  0  0  0  0  0  0  0  0  0
  189.6290  177.4830  140.6470 C   0  0  0  0  0  0  0  0  0  0  0  0
  186.6960  177.5930  138.3410 C   0  0  0  0  0  1  0  0  0  0  0  0
  189.1900  177.5820  137.9120 C   0  0  0  0  0  0  0  0  0  0  0  0
  191.0720  176.7600  144.9650 C   0  0  2  0  0  3  0  0  0  0  0  0
  192.2710  177.4490  141.5500 C   0  0  0  0  0  3  0  0  0  0  0  0
  188.9510  177.5670  144.3820 N   0  0  0  0  0  0  0  0  0  0  0  0
  188.7150  177.1670  145.8080 C   0  0  2  0  0  3  0  0  0  0  0  0
  190.7040  177.5080  139.7340 C   0  0  0  0  0  0  0  0  0  0  0  0
  190.4560  177.5560  138.3990 N   0  0  0  0  0  0  0  0  0  0  0  0
  188.1120  177.5620  138.8100 C   0  0  0  0  0  0  0  0  0  0  0  0
  190.2870  178.9930  145.6990 O   0  0  0  0  0  1  0  0  0  0  0  0
  192.0130  177.4970  140.1880 C   0  0  0  0  0  3  0  0  0  0  0  0
  187.5240  177.3370  142.6000 O   0  0  0  0  0  0  0  0  0  0  0  0
  189.8720  177.4380  142.0520 C   0  0  0  0  0  0  0  0  0  0  0  0
  191.2450  177.4040  142.4980 C   0  0  0  0  0  0  0  0  0  0  0  0
  188.3630  177.5150  140.1450 N   0  0  0  0  0  0  0  0  0  0  0  0
  192.0460  176.5750  146.0300 N   0  0  0  0  0  2  0  0  0  0  0  0
  191.7680  175.7910  147.1920 C   0  0  0  0  0  0  0  0  0  0  0  0
  190.6430  175.2440  147.3440 O   0  0  0  0  0  0  0  0  0  0  0  0
  192.8070  175.6480  148.2500 C   0  0  0  0  0  2  0  0  0  0  0  0
  192.9230  176.9130  149.0290 C   0  0  0  0  0  0  0  0  0  0  0  0
  194.0260  177.1260  149.8460 O   0  0  0  0  0  1  0  0  0  0  0  0
  192.0400  177.8030  148.9220 O   0  0  0  0  0  0  0  0  0  0  0  0
  187.9060  178.2330  148.0480 C   0  0  0  0  0  1  0  0  0  0  0  0
  187.7580  178.1420  146.5330 C   0  0  2  0  0  3  0  0  0  0  0  0
  186.3760  177.8700  146.1750 N   0  0  0  0  0  1  0  0  0  0  0  0
  188.8250  177.6710  135.3410 N   0  0  0  0  0  0  0  0  0  0  0  0
  188.9870  177.6310  136.4860 C   0  0  0  0  0  0  0  0  0  0  0  0
  1  9  1  0  0  0  0
  2  7  1  0  0  0  0
  3 14  1  1  0  0  0
  3 10  1  0  0  0  0
  4 17  1  0  0  0  0
  5 13  1  0  0  0  0
  6 12  2  0  0  0  0
  6 13  1  0  0  0  0
  7  3  1  0  0  0  0
  7 20  1  1  0  0  0
  8 18  1  0  0  0  0
  9  3  1  0  0  0  0
  9 10  1  0  0  0  0
 10 28  1  1  0  0  0
 11 15  1  0  0  0  0
 11  4  2  0  0  0  0
 12 11  1  0  0  0  0
 13 19  2  0  0  0  0
 15  8  2  0  0  0  0
 16  1  2  0  0  0  0
 17 18  2  0  0  0  0
 17  1  1  0  0  0  0
 18  2  1  0  0  0  0
 19  4  1  0  0  0  0
 20 21  1  0  0  0  0
 21 22  2  0  0  0  0
 21 23  1  0  0  0  0
 23 24  1  0  0  0  0
 24 25  1  0  0  0  0
 26 24  2  0  0  0  0
 28 27  1  1  0  0  0
 29 28  1  0  0  0  0
 30 31  3  0  0  0  0
 31  6  1  0  0  0  0
M  END
>  <MODEL>
9

>  <REMARK>
 VINA RESULT:      -7.5      4.160      9.056
  Name = 
  5 active torsions:
  status: ('A' for Active; 'I' for Inactive)
    1  A    between atoms: N_3  and  C_9
    2  A    between atoms: C_8  and  C_26
    3  A    between atoms: C_10  and  C_15
    4  A    between atoms: C_13  and  C_28
    5  A    between atoms: C_15  and  C_17
                            x       y       z     vdW  Elec       q    Type
                         _______ _______ _______ _____ _____    ______ ____

>  <TORSDO>
F 5

$$$$
