=
 OpenBabel10222418203D

 34 37  0  0  1  0  0  0  0  0999 V2000
  188.3010  178.2860  143.3200 C   0  0  1  0  0  3  0  0  0  0  0  0
  186.2170  178.9510  138.9120 C   0  0  0  0  0  1  0  0  0  0  0  0
  188.8330  177.9920  137.8950 C   0  0  2  0  0  3  0  0  0  0  0  0
  190.7990  176.3910  138.3450 C   0  0  0  0  0  0  0  0  0  0  0  0
  188.9050  176.7850  141.6010 C   0  0  1  0  0  3  0  0  0  0  0  0
  189.7810  177.8900  143.4080 C   0  0  2  0  0  0  0  0  0  0  0  0
  187.1910  178.3270  139.8640 C   0  0  0  0  0  0  0  0  0  0  0  0
  189.2550  179.3740  137.7400 N   0  0  0  0  0  1  0  0  0  0  0  0
  186.9550  178.3410  141.1890 C   0  0  0  0  0  0  0  0  0  0  0  0
  192.0160  175.6700  137.8790 C   0  0  0  0  0  1  0  0  0  0  0  0
  190.0950  176.9550  136.1510 O   0  0  0  0  0  0  0  0  0  0  0  0
  190.4950  176.3830  139.6400 C   0  0  0  0  0  3  0  0  0  0  0  0
  188.4540  177.7340  139.3410 C   0  0  0  0  0  0  0  0  0  0  0  0
  190.6090  179.1030  143.0080 C   0  0  0  0  0  1  0  0  0  0  0  0
  187.8970  177.7160  142.0690 N   0  0  0  0  0  0  0  0  0  0  0  0
  189.2840  177.0470  140.1650 C   0  0  0  0  0  0  0  0  0  0  0  0
  187.4150  177.7220  144.4290 C   0  0  0  0  0  1  0  0  0  0  0  0
  189.9180  177.0830  137.3930 C   0  0  0  0  0  0  0  0  0  0  0  0
  190.0290  176.8680  142.4550 O   0  0  0  0  0  0  0  0  0  0  0  0
  189.5180  177.8710  145.9320 C   0  0  0  0  0  3  0  0  0  0  0  0
  190.2140  177.4450  144.7910 C   0  0  0  0  0  0  0  0  0  0  0  0
  189.9610  177.4780  147.1940 C   0  0  0  0  0  0  0  0  0  0  0  0
  191.3260  176.6690  144.9390 N   0  0  0  0  0  0  0  0  0  0  0  0
  191.7720  176.2760  146.1630 C   0  0  0  0  0  3  0  0  0  0  0  0
  191.0930  176.6740  147.3160 C   0  0  0  0  0  3  0  0  0  0  0  0
  189.0970  177.9970  148.6260 Cl  0  0  0  0  0  0  0  0  0  0  0  0
  185.7320  178.9920  141.7600 C   0  0  0  0  0  2  0  0  0  0  0  0
  184.6850  177.9380  142.0690 C   0  0  0  0  0  2  0  0  0  0  0  0
  183.4420  178.5890  142.6540 C   0  0  0  0  0  2  0  0  0  0  0  0
  183.3520  178.3380  144.0530 O   0  0  0  0  0  0  0  0  0  0  0  0
  184.6090  180.1660  144.6250 O   0  0  0  0  0  0  0  0  0  0  0  0
  184.0550  179.0940  144.9910 C   0  0  0  0  0  0  0  0  0  0  0  0
  185.3790  178.6580  147.0210 C   0  0  0  0  0  1  0  0  0  0  0  0
  184.1460  178.6660  146.3180 O   0  0  0  0  0  0  0  0  0  0  0  0
  1  6  1  0  0  0  0
  1 17  1  1  0  0  0
  2  7  1  0  0  0  0
  3  8  1  1  0  0  0
  3 13  1  0  0  0  0
  4 12  2  0  0  0  0
  5 16  1  6  0  0  0
  5 15  1  0  0  0  0
  5 19  1  0  0  0  0
  6 14  1  6  0  0  0
  6 21  1  0  0  0  0
  7  9  2  0  0  0  0
  9 27  1  0  0  0  0
  9 15  1  0  0  0  0
 10  4  1  0  0  0  0
 11 18  2  0  0  0  0
 12 16  1  0  0  0  0
 13  7  1  0  0  0  0
 13 16  2  0  0  0  0
 15  1  1  0  0  0  0
 18  3  1  0  0  0  0
 18  4  1  0  0  0  0
 19  6  1  0  0  0  0
 20 22  1  0  0  0  0
 21 23  1  0  0  0  0
 21 20  2  0  0  0  0
 22 25  2  0  0  0  0
 22 26  1  0  0  0  0
 23 24  2  0  0  0  0
 24 25  1  0  0  0  0
 27 28  1  0  0  0  0
 28 29  1  0  0  0  0
 29 30  1  0  0  0  0
 30 32  1  0  0  0  0
 31 32  2  0  0  0  0
 32 34  1  0  0  0  0
 34 33  1  0  0  0  0
M  END
>  <MODEL>
1

>  <REMARK>
 VINA RESULT:      -8.2      0.000      0.000
  Name = 
  7 active torsions:
  status: ('A' for Active; 'I' for Inactive)
    1  A    between atoms: O_1  and  C_18
    2  A    between atoms: O_1  and  C_29
    3  A    between atoms: C_2  and  C_15
    4  A    between atoms: C_2  and  C_33
    5  A    between atoms: C_9  and  C_13
    6  A    between atoms: C_18  and  O_30
    7  A    between atoms: C_29  and  C_33
                            x       y       z     vdW  Elec       q    Type
                         _______ _______ _______ _____ _____    ______ ____

>  <TORSDO>
F 7

$$$$
=
 OpenBabel10222418203D

 34 37  0  0  1  0  0  0  0  0999 V2000
  188.1200  178.2690  143.4500 C   0  0  1  0  0  3  0  0  0  0  0  0
  186.0700  178.9050  139.0220 C   0  0  0  0  0  1  0  0  0  0  0  0
  188.7450  178.0930  138.0300 C   0  0  2  0  0  3  0  0  0  0  0  0
  190.7820  176.5850  138.4840 C   0  0  0  0  0  0  0  0  0  0  0  0
  188.8230  176.8290  141.7160 C   0  0  1  0  0  3  0  0  0  0  0  0
  189.6170  177.9450  143.5540 C   0  0  2  0  0  0  0  0  0  0  0  0
  187.0600  178.3140  139.9790 C   0  0  0  0  0  0  0  0  0  0  0  0
  189.1000  179.4980  137.9040 N   0  0  0  0  0  1  0  0  0  0  0  0
  186.8040  178.2930  141.3000 C   0  0  0  0  0  0  0  0  0  0  0  0
  192.0400  175.9340  138.0250 C   0  0  0  0  0  1  0  0  0  0  0  0
  190.0830  177.1500  136.2890 O   0  0  0  0  0  0  0  0  0  0  0  0
  190.4600  176.5390  139.7740 C   0  0  0  0  0  3  0  0  0  0  0  0
  188.3580  177.7930  139.4650 C   0  0  0  0  0  0  0  0  0  0  0  0
  190.3890  179.2040  143.1870 C   0  0  0  0  0  1  0  0  0  0  0  0
  187.7640  177.7010  142.1840 N   0  0  0  0  0  0  0  0  0  0  0  0
  189.2100  177.1340  140.2910 C   0  0  0  0  0  0  0  0  0  0  0  0
  187.2480  177.6430  144.5360 C   0  0  0  0  0  1  0  0  0  0  0  0
  189.8810  177.2490  137.5290 C   0  0  0  0  0  0  0  0  0  0  0  0
  189.9290  176.9530  142.5890 O   0  0  0  0  0  0  0  0  0  0  0  0
  189.3410  177.9020  146.0760 C   0  0  0  0  0  3  0  0  0  0  0  0
  190.0520  177.4990  144.9360 C   0  0  0  0  0  0  0  0  0  0  0  0
  189.7840  177.5080  147.3390 C   0  0  0  0  0  0  0  0  0  0  0  0
  191.1780  176.7440  145.0840 N   0  0  0  0  0  0  0  0  0  0  0  0
  191.6260  176.3510  146.3080 C   0  0  0  0  0  3  0  0  0  0  0  0
  190.9330  176.7270  147.4610 C   0  0  0  0  0  3  0  0  0  0  0  0
  188.9030  177.9990  148.7690 Cl  0  0  0  0  0  0  0  0  0  0  0  0
  185.5430  178.8730  141.8630 C   0  0  0  0  0  2  0  0  0  0  0  0
  184.3900  177.9110  141.6400 C   0  0  0  0  0  2  0  0  0  0  0  0
  183.1650  178.6660  141.1500 C   0  0  0  0  0  2  0  0  0  0  0  0
  182.0230  178.3370  141.9350 O   0  0  0  0  0  0  0  0  0  0  0  0
  180.9610  180.0740  142.9870 O   0  0  0  0  0  0  0  0  0  0  0  0
  181.6840  179.0460  143.0870 C   0  0  0  0  0  0  0  0  0  0  0  0
  183.3770  179.0750  144.8760 C   0  0  0  0  0  1  0  0  0  0  0  0
  182.1440  178.6230  144.3380 O   0  0  0  0  0  0  0  0  0  0  0  0
  1  6  1  0  0  0  0
  1 17  1  1  0  0  0
  2  7  1  0  0  0  0
  3  8  1  1  0  0  0
  3 13  1  0  0  0  0
  4 12  2  0  0  0  0
  5 16  1  6  0  0  0
  5 15  1  0  0  0  0
  5 19  1  0  0  0  0
  6 14  1  6  0  0  0
  6 21  1  0  0  0  0
  7  9  2  0  0  0  0
  9 27  1  0  0  0  0
  9 15  1  0  0  0  0
 10  4  1  0  0  0  0
 11 18  2  0  0  0  0
 12 16  1  0  0  0  0
 13  7  1  0  0  0  0
 13 16  2  0  0  0  0
 15  1  1  0  0  0  0
 18  3  1  0  0  0  0
 18  4  1  0  0  0  0
 19  6  1  0  0  0  0
 20 22  1  0  0  0  0
 21 23  1  0  0  0  0
 21 20  2  0  0  0  0
 22 25  2  0  0  0  0
 22 26  1  0  0  0  0
 23 24  2  0  0  0  0
 24 25  1  0  0  0  0
 28 27  1  0  0  0  0
 29 28  1  0  0  0  0
 29 30  1  0  0  0  0
 30 32  1  0  0  0  0
 31 32  2  0  0  0  0
 32 34  1  0  0  0  0
 34 33  1  0  0  0  0
M  END
>  <MODEL>
2

>  <REMARK>
 VINA RESULT:      -8.0      0.959      1.238
  Name = 
  7 active torsions:
  status: ('A' for Active; 'I' for Inactive)
    1  A    between atoms: O_1  and  C_18
    2  A    between atoms: O_1  and  C_29
    3  A    between atoms: C_2  and  C_15
    4  A    between atoms: C_2  and  C_33
    5  A    between atoms: C_9  and  C_13
    6  A    between atoms: C_18  and  O_30
    7  A    between atoms: C_29  and  C_33
                            x       y       z     vdW  Elec       q    Type
                         _______ _______ _______ _____ _____    ______ ____

>  <TORSDO>
F 7

$$$$
=
 OpenBabel10222418203D

 34 37  0  0  1  0  0  0  0  0999 V2000
  188.4800  177.6070  142.4940 C   0  0  1  0  0  3  0  0  0  0  0  0
  185.7080  178.6310  138.5580 C   0  0  0  0  0  1  0  0  0  0  0  0
  183.4610  178.3360  140.4720 C   0  0  2  0  0  3  0  0  0  0  0  0
  182.7190  178.7120  142.9090 C   0  0  0  0  0  0  0  0  0  0  0  0
  186.5030  178.8460  142.8560 C   0  0  1  0  0  3  0  0  0  0  0  0
  187.8050  177.2240  143.8180 C   0  0  2  0  0  0  0  0  0  0  0  0
  185.9980  178.5720  140.0280 C   0  0  0  0  0  0  0  0  0  0  0  0
  183.3030  176.9570  140.0410 N   0  0  0  0  0  1  0  0  0  0  0  0
  187.2660  178.4960  140.4710 C   0  0  0  0  0  0  0  0  0  0  0  0
  181.6440  178.8110  143.9350 C   0  0  0  0  0  1  0  0  0  0  0  0
  181.2120  178.8590  141.0830 O   0  0  0  0  0  0  0  0  0  0  0  0
  183.9900  178.6910  143.3000 C   0  0  0  0  0  3  0  0  0  0  0  0
  184.8680  178.5470  140.9990 C   0  0  0  0  0  0  0  0  0  0  0  0
  187.2200  175.8280  143.6530 C   0  0  0  0  0  1  0  0  0  0  0  0
  187.5070  178.4630  141.8830 N   0  0  0  0  0  0  0  0  0  0  0  0
  185.1060  178.6300  142.3320 C   0  0  0  0  0  0  0  0  0  0  0  0
  189.7930  178.3730  142.6370 C   0  0  0  0  0  1  0  0  0  0  0  0
  182.3940  178.6660  141.4750 C   0  0  0  0  0  0  0  0  0  0  0  0
  186.7260  178.1170  144.0470 O   0  0  0  0  0  0  0  0  0  0  0  0
  188.3280  177.6770  146.2600 C   0  0  0  0  0  3  0  0  0  0  0  0
  188.7490  177.2130  145.0050 C   0  0  0  0  0  0  0  0  0  0  0  0
  189.2280  177.6920  147.3250 C   0  0  0  0  0  0  0  0  0  0  0  0
  190.0390  176.8030  144.8430 N   0  0  0  0  0  0  0  0  0  0  0  0
  190.9310  176.8100  145.8710 C   0  0  0  0  0  3  0  0  0  0  0  0
  190.5390  177.2550  147.1350 C   0  0  0  0  0  3  0  0  0  0  0  0
  188.7140  178.2620  148.8980 Cl  0  0  0  0  0  0  0  0  0  0  0  0
  188.4260  178.4460  139.5240 C   0  0  0  0  0  2  0  0  0  0  0  0
  188.7480  177.0030  139.1810 C   0  0  0  0  0  2  0  0  0  0  0  0
  189.1260  176.8840  137.7140 C   0  0  0  0  0  2  0  0  0  0  0  0
  190.5370  176.9680  137.5470 O   0  0  0  0  0  0  0  0  0  0  0  0
  191.2230  174.8630  138.1380 O   0  0  0  0  0  0  0  0  0  0  0  0
  191.4160  176.1070  138.2060 C   0  0  0  0  0  0  0  0  0  0  0  0
  192.3070  177.4470  140.0690 C   0  0  0  0  0  1  0  0  0  0  0  0
  192.4950  176.6190  138.9320 O   0  0  0  0  0  0  0  0  0  0  0  0
  1 17  1  1  0  0  0
  1  6  1  0  0  0  0
  2  7  1  0  0  0  0
  3  8  1  1  0  0  0
  3 13  1  0  0  0  0
  3 18  1  0  0  0  0
  4 12  2  0  0  0  0
  4 10  1  0  0  0  0
  5 16  1  6  0  0  0
  5 19  1  0  0  0  0
  6 14  1  6  0  0  0
  6 19  1  0  0  0  0
  6 21  1  0  0  0  0
  7  9  2  0  0  0  0
  7 13  1  0  0  0  0
  9 15  1  0  0  0  0
 11 18  2  0  0  0  0
 13 16  2  0  0  0  0
 15  1  1  0  0  0  0
 15  5  1  0  0  0  0
 16 12  1  0  0  0  0
 18  4  1  0  0  0  0
 20 22  1  0  0  0  0
 21 20  2  0  0  0  0
 22 26  1  0  0  0  0
 23 21  1  0  0  0  0
 23 24  2  0  0  0  0
 24 25  1  0  0  0  0
 25 22  2  0  0  0  0
 27  9  1  0  0  0  0
 28 27  1  0  0  0  0
 29 28  1  0  0  0  0
 30 29  1  0  0  0  0
 30 32  1  0  0  0  0
 31 32  2  0  0  0  0
 32 34  1  0  0  0  0
 34 33  1  0  0  0  0
M  END
>  <MODEL>
3

>  <REMARK>
 VINA RESULT:      -7.9      1.843      6.257
  Name = 
  7 active torsions:
  status: ('A' for Active; 'I' for Inactive)
    1  A    between atoms: O_1  and  C_18
    2  A    between atoms: O_1  and  C_29
    3  A    between atoms: C_2  and  C_15
    4  A    between atoms: C_2  and  C_33
    5  A    between atoms: C_9  and  C_13
    6  A    between atoms: C_18  and  O_30
    7  A    between atoms: C_29  and  C_33
                            x       y       z     vdW  Elec       q    Type
                         _______ _______ _______ _____ _____    ______ ____

>  <TORSDO>
F 7

$$$$
=
 OpenBabel10222418203D

 34 37  0  0  1  0  0  0  0  0999 V2000
  188.2340  178.2820  143.5060 C   0  0  1  0  0  3  0  0  0  0  0  0
  186.0910  178.9690  139.1300 C   0  0  0  0  0  1  0  0  0  0  0  0
  188.7160  178.0790  138.0720 C   0  0  2  0  0  3  0  0  0  0  0  0
  190.7190  176.5130  138.4790 C   0  0  0  0  0  0  0  0  0  0  0  0
  188.8510  176.8200  141.7590 C   0  0  1  0  0  3  0  0  0  0  0  0
  189.7230  177.9160  143.5730 C   0  0  2  0  0  0  0  0  0  0  0  0
  187.0880  178.3510  140.0630 C   0  0  0  0  0  0  0  0  0  0  0  0
  189.1070  179.4720  137.9330 N   0  0  0  0  0  1  0  0  0  0  0  0
  186.8650  178.3410  141.3900 C   0  0  0  0  0  0  0  0  0  0  0  0
  191.9460  175.8250  137.9890 C   0  0  0  0  0  1  0  0  0  0  0  0
  189.9800  177.0940  136.3010 O   0  0  0  0  0  0  0  0  0  0  0  0
  190.4290  176.4790  139.7770 C   0  0  0  0  0  3  0  0  0  0  0  0
  188.3570  177.7920  139.5180 C   0  0  0  0  0  0  0  0  0  0  0  0
  190.5220  179.1510  143.1830 C   0  0  0  0  0  1  0  0  0  0  0  0
  187.8300  177.7230  142.2510 N   0  0  0  0  0  0  0  0  0  0  0  0
  189.2100  177.1100  140.3230 C   0  0  0  0  0  0  0  0  0  0  0  0
  187.3720  177.6840  144.6150 C   0  0  0  0  0  1  0  0  0  0  0  0
  189.8130  177.2010  137.5450 C   0  0  0  0  0  0  0  0  0  0  0  0
  189.9820  176.9140  142.6020 O   0  0  0  0  0  0  0  0  0  0  0  0
  189.5060  177.8800  146.1010 C   0  0  0  0  0  3  0  0  0  0  0  0
  190.1800  177.4600  144.9450 C   0  0  0  0  0  0  0  0  0  0  0  0
  189.9700  177.4770  147.3530 C   0  0  0  0  0  0  0  0  0  0  0  0
  191.2910  176.6780  145.0670 N   0  0  0  0  0  0  0  0  0  0  0  0
  191.7580  176.2750  146.2800 C   0  0  0  0  0  3  0  0  0  0  0  0
  191.1020  176.6680  147.4480 C   0  0  0  0  0  3  0  0  0  0  0  0
  189.1350  177.9890  148.8030 Cl  0  0  0  0  0  0  0  0  0  0  0  0
  185.6360  178.9580  141.9830 C   0  0  0  0  0  2  0  0  0  0  0  0
  184.5310  177.9210  142.0720 C   0  0  0  0  0  2  0  0  0  0  0  0
  183.1810  178.6040  142.2150 C   0  0  0  0  0  2  0  0  0  0  0  0
  182.2880  178.1790  141.1910 O   0  0  0  0  0  0  0  0  0  0  0  0
  182.4570  179.5490  139.3610 O   0  0  0  0  0  0  0  0  0  0  0  0
  182.5580  178.3860  139.8380 C   0  0  0  0  0  0  0  0  0  0  0  0
  182.5720  175.9780  139.3230 C   0  0  0  0  0  1  0  0  0  0  0  0
  182.9350  177.3160  139.0210 O   0  0  0  0  0  0  0  0  0  0  0  0
  1  6  1  0  0  0  0
  1 17  1  1  0  0  0
  2  7  1  0  0  0  0
  3  8  1  1  0  0  0
  3 13  1  0  0  0  0
  4 12  2  0  0  0  0
  5 16  1  6  0  0  0
  5 15  1  0  0  0  0
  5 19  1  0  0  0  0
  6 14  1  6  0  0  0
  6 21  1  0  0  0  0
  7  9  2  0  0  0  0
  9 27  1  0  0  0  0
  9 15  1  0  0  0  0
 10  4  1  0  0  0  0
 11 18  2  0  0  0  0
 12 16  1  0  0  0  0
 13  7  1  0  0  0  0
 13 16  2  0  0  0  0
 15  1  1  0  0  0  0
 18  3  1  0  0  0  0
 18  4  1  0  0  0  0
 19  6  1  0  0  0  0
 20 22  1  0  0  0  0
 21 23  1  0  0  0  0
 21 20  2  0  0  0  0
 22 25  2  0  0  0  0
 22 26  1  0  0  0  0
 23 24  2  0  0  0  0
 24 25  1  0  0  0  0
 27 28  1  0  0  0  0
 28 29  1  0  0  0  0
 30 29  1  0  0  0  0
 31 32  2  0  0  0  0
 32 30  1  0  0  0  0
 34 33  1  0  0  0  0
 34 32  1  0  0  0  0
M  END
>  <MODEL>
4

>  <REMARK>
 VINA RESULT:      -7.8      1.591      2.447
  Name = 
  7 active torsions:
  status: ('A' for Active; 'I' for Inactive)
    1  A    between atoms: O_1  and  C_18
    2  A    between atoms: O_1  and  C_29
    3  A    between atoms: C_2  and  C_15
    4  A    between atoms: C_2  and  C_33
    5  A    between atoms: C_9  and  C_13
    6  A    between atoms: C_18  and  O_30
    7  A    between atoms: C_29  and  C_33
                            x       y       z     vdW  Elec       q    Type
                         _______ _______ _______ _____ _____    ______ ____

>  <TORSDO>
F 7

$$$$
=
 OpenBabel10222418203D

 34 37  0  0  1  0  0  0  0  0999 V2000
  189.7110  177.2990  143.4130 C   0  0  1  0  0  3  0  0  0  0  0  0
  186.3720  177.6610  147.0110 C   0  0  0  0  0  1  0  0  0  0  0  0
  184.6380  178.7160  144.8470 C   0  0  2  0  0  3  0  0  0  0  0  0
  184.0610  178.5340  142.3450 C   0  0  0  0  0  0  0  0  0  0  0  0
  187.4530  176.9220  142.8350 C   0  0  1  0  0  3  0  0  0  0  0  0
  189.3840  177.8450  142.0170 C   0  0  2  0  0  0  0  0  0  0  0  0
  186.8100  177.5230  145.5840 C   0  0  0  0  0  0  0  0  0  0  0  0
  184.9980  180.0660  145.2470 N   0  0  0  0  0  1  0  0  0  0  0  0
  188.0430  177.0690  145.2900 C   0  0  0  0  0  0  0  0  0  0  0  0
  183.1480  178.8120  141.2020 C   0  0  0  0  0  1  0  0  0  0  0  0
  182.4410  179.0900  143.9850 O   0  0  0  0  0  0  0  0  0  0  0  0
  185.2690  178.0310  142.1030 C   0  0  0  0  0  3  0  0  0  0  0  0
  185.8900  177.9400  144.4890 C   0  0  0  0  0  0  0  0  0  0  0  0
  189.3890  179.3650  142.1030 C   0  0  0  0  0  1  0  0  0  0  0  0
  188.4210  176.9290  143.9150 N   0  0  0  0  0  0  0  0  0  0  0  0
  186.2110  177.6990  143.1920 C   0  0  0  0  0  0  0  0  0  0  0  0
  190.6180  176.0700  143.4290 C   0  0  0  0  0  1  0  0  0  0  0  0
  183.6360  178.7800  143.7310 C   0  0  0  0  0  0  0  0  0  0  0  0
  188.0690  177.4400  141.6720 O   0  0  0  0  0  0  0  0  0  0  0  0
  189.9500  176.6610  139.8450 C   0  0  0  0  0  3  0  0  0  0  0  0
  190.3710  177.4200  140.9480 C   0  0  0  0  0  0  0  0  0  0  0  0
  190.8860  176.2510  138.8950 C   0  0  0  0  0  0  0  0  0  0  0  0
  191.6930  177.7260  141.0810 N   0  0  0  0  0  0  0  0  0  0  0  0
  192.6190  177.3340  140.1650 C   0  0  0  0  0  3  0  0  0  0  0  0
  192.2300  176.5880  139.0510 C   0  0  0  0  0  3  0  0  0  0  0  0
  190.3730  175.3090  137.5120 Cl  0  0  0  0  0  0  0  0  0  0  0  0
  189.0220  176.7080  146.3640 C   0  0  0  0  0  2  0  0  0  0  0  0
  189.5540  177.9690  147.0210 C   0  0  0  0  0  2  0  0  0  0  0  0
  190.6110  177.6170  148.0540 C   0  0  0  0  0  2  0  0  0  0  0  0
  191.8250  177.2260  147.4220 O   0  0  0  0  0  0  0  0  0  0  0  0
  192.3310  175.1330  146.6380 O   0  0  0  0  0  0  0  0  0  0  0  0
  192.3760  175.9560  147.5920 C   0  0  0  0  0  0  0  0  0  0  0  0
  193.5980  176.5590  149.6430 C   0  0  0  0  0  1  0  0  0  0  0  0
  192.9700  175.6000  148.8070 O   0  0  0  0  0  0  0  0  0  0  0  0
  1 17  1  6  0  0  0
  1 15  1  0  0  0  0
  3  8  1  6  0  0  0
  4 18  1  0  0  0  0
  5 19  1  6  0  0  0
  5 16  1  0  0  0  0
  5 15  1  0  0  0  0
  6 14  1  1  0  0  0
  6  1  1  0  0  0  0
  7  2  1  0  0  0  0
  9  7  2  0  0  0  0
  9 27  1  0  0  0  0
 10  4  1  0  0  0  0
 12  4  2  0  0  0  0
 12 16  1  0  0  0  0
 13  3  1  0  0  0  0
 13  7  1  0  0  0  0
 15  9  1  0  0  0  0
 16 13  2  0  0  0  0
 18 11  2  0  0  0  0
 18  3  1  0  0  0  0
 19  6  1  0  0  0  0
 20 21  1  0  0  0  0
 21 23  2  0  0  0  0
 21  6  1  0  0  0  0
 22 25  1  0  0  0  0
 22 20  2  0  0  0  0
 24 23  1  0  0  0  0
 25 24  2  0  0  0  0
 26 22  1  0  0  0  0
 27 28  1  0  0  0  0
 28 29  1  0  0  0  0
 30 32  1  0  0  0  0
 30 29  1  0  0  0  0
 31 32  2  0  0  0  0
 32 34  1  0  0  0  0
 34 33  1  0  0  0  0
M  END
>  <MODEL>
5

>  <REMARK>
 VINA RESULT:      -7.5      3.167      7.145
  Name = 
  7 active torsions:
  status: ('A' for Active; 'I' for Inactive)
    1  A    between atoms: O_1  and  C_18
    2  A    between atoms: O_1  and  C_29
    3  A    between atoms: C_2  and  C_15
    4  A    between atoms: C_2  and  C_33
    5  A    between atoms: C_9  and  C_13
    6  A    between atoms: C_18  and  O_30
    7  A    between atoms: C_29  and  C_33
                            x       y       z     vdW  Elec       q    Type
                         _______ _______ _______ _____ _____    ______ ____

>  <TORSDO>
F 7

$$$$
=
 OpenBabel10222418203D

 34 37  0  0  1  0  0  0  0  0999 V2000
  190.7100  176.9990  142.2380 C   0  0  1  0  0  3  0  0  0  0  0  0
  189.6960  177.8580  137.5000 C   0  0  0  0  0  1  0  0  0  0  0  0
  186.8960  178.0140  138.4660 C   0  0  2  0  0  3  0  0  0  0  0  0
  185.3910  178.7350  140.4270 C   0  0  0  0  0  0  0  0  0  0  0  0
  188.9250  178.4690  141.7640 C   0  0  1  0  0  3  0  0  0  0  0  0
  189.5610  176.8390  143.2430 C   0  0  2  0  0  0  0  0  0  0  0  0
  189.4310  177.9340  138.9730 C   0  0  0  0  0  0  0  0  0  0  0  0
  186.7150  176.6190  138.0990 N   0  0  0  0  0  1  0  0  0  0  0  0
  190.4330  177.7770  139.8560 C   0  0  0  0  0  0  0  0  0  0  0  0
  184.0450  179.0590  140.9770 C   0  0  0  0  0  1  0  0  0  0  0  0
  184.6710  178.8330  138.1690 O   0  0  0  0  0  0  0  0  0  0  0  0
  186.4240  178.6260  141.2590 C   0  0  0  0  0  3  0  0  0  0  0  0
  188.0360  178.1350  139.4590 C   0  0  0  0  0  0  0  0  0  0  0  0
  188.8880  175.5010  142.9670 C   0  0  0  0  0  1  0  0  0  0  0  0
  190.1470  177.8780  141.2570 N   0  0  0  0  0  0  0  0  0  0  0  0
  187.7910  178.3420  140.7770 C   0  0  0  0  0  0  0  0  0  0  0  0
  191.9770  177.6360  142.8040 C   0  0  0  0  0  1  0  0  0  0  0  0
  185.5970  178.5630  138.9810 C   0  0  0  0  0  0  0  0  0  0  0  0
  188.6050  177.8580  142.9980 O   0  0  0  0  0  0  0  0  0  0  0  0
  189.2110  177.4650  145.6770 C   0  0  0  0  0  3  0  0  0  0  0  0
  190.0070  176.8630  144.6910 C   0  0  0  0  0  0  0  0  0  0  0  0
  189.6640  177.5060  146.9960 C   0  0  0  0  0  0  0  0  0  0  0  0
  191.2210  176.3460  145.0380 N   0  0  0  0  0  0  0  0  0  0  0  0
  191.6790  176.3780  146.3190 C   0  0  0  0  0  3  0  0  0  0  0  0
  190.9040  176.9600  147.3240 C   0  0  0  0  0  3  0  0  0  0  0  0
  188.6770  178.2490  148.2370 Cl  0  0  0  0  0  0  0  0  0  0  0  0
  191.8360  177.5010  139.4080 C   0  0  0  0  0  2  0  0  0  0  0  0
  191.9010  176.1480  138.7250 C   0  0  0  0  0  2  0  0  0  0  0  0
  193.1400  176.0610  137.8490 C   0  0  0  0  0  2  0  0  0  0  0  0
  194.2810  175.7000  138.6210 O   0  0  0  0  0  0  0  0  0  0  0  0
  194.6730  173.4590  138.3480 O   0  0  0  0  0  0  0  0  0  0  0  0
  195.1120  174.6380  138.2660 C   0  0  0  0  0  0  0  0  0  0  0  0
  196.7670  174.8210  136.4510 C   0  0  0  0  0  1  0  0  0  0  0  0
  196.4170  174.8790  137.8250 O   0  0  0  0  0  0  0  0  0  0  0  0
  1 17  1  1  0  0  0
  1  6  1  0  0  0  0
  2  7  1  0  0  0  0
  3  8  1  1  0  0  0
  3 18  1  0  0  0  0
  3 13  1  0  0  0  0
  4 10  1  0  0  0  0
  4 12  2  0  0  0  0
  5 16  1  6  0  0  0
  5 19  1  0  0  0  0
  6 14  1  6  0  0  0
  6 21  1  0  0  0  0
  7 13  1  0  0  0  0
  7  9  2  0  0  0  0
  9 15  1  0  0  0  0
 11 18  2  0  0  0  0
 13 16  2  0  0  0  0
 15  5  1  0  0  0  0
 15  1  1  0  0  0  0
 16 12  1  0  0  0  0
 18  4  1  0  0  0  0
 19  6  1  0  0  0  0
 20 22  1  0  0  0  0
 21 23  1  0  0  0  0
 21 20  2  0  0  0  0
 22 25  2  0  0  0  0
 22 26  1  0  0  0  0
 23 24  2  0  0  0  0
 24 25  1  0  0  0  0
 27  9  1  0  0  0  0
 28 27  1  0  0  0  0
 29 30  1  0  0  0  0
 29 28  1  0  0  0  0
 32 31  2  0  0  0  0
 32 30  1  0  0  0  0
 33 34  1  0  0  0  0
 34 32  1  0  0  0  0
M  END
>  <MODEL>
6

>  <REMARK>
 VINA RESULT:      -7.5      2.657      6.831
  Name = 
  7 active torsions:
  status: ('A' for Active; 'I' for Inactive)
    1  A    between atoms: O_1  and  C_18
    2  A    between atoms: O_1  and  C_29
    3  A    between atoms: C_2  and  C_15
    4  A    between atoms: C_2  and  C_33
    5  A    between atoms: C_9  and  C_13
    6  A    between atoms: C_18  and  O_30
    7  A    between atoms: C_29  and  C_33
                            x       y       z     vdW  Elec       q    Type
                         _______ _______ _______ _____ _____    ______ ____

>  <TORSDO>
F 7

$$$$
=
 OpenBabel10222418203D

 34 37  0  0  1  0  0  0  0  0999 V2000
  188.5160  177.6400  142.4810 C   0  0  1  0  0  3  0  0  0  0  0  0
  185.7180  178.7180  138.5780 C   0  0  0  0  0  1  0  0  0  0  0  0
  183.4820  178.3410  140.4900 C   0  0  2  0  0  3  0  0  0  0  0  0
  182.7400  178.6460  142.9370 C   0  0  0  0  0  0  0  0  0  0  0  0
  186.5220  178.8400  142.8780 C   0  0  1  0  0  3  0  0  0  0  0  0
  187.8510  177.2140  143.7970 C   0  0  2  0  0  0  0  0  0  0  0  0
  186.0130  178.6280  140.0450 C   0  0  0  0  0  0  0  0  0  0  0  0
  183.3440  176.9710  140.0250 N   0  0  0  0  0  1  0  0  0  0  0  0
  187.2830  178.5600  140.4830 C   0  0  0  0  0  0  0  0  0  0  0  0
  181.6670  178.7030  143.9680 C   0  0  0  0  0  1  0  0  0  0  0  0
  181.2260  178.8150  141.1190 O   0  0  0  0  0  0  0  0  0  0  0  0
  184.0130  178.6350  143.3240 C   0  0  0  0  0  3  0  0  0  0  0  0
  184.8870  178.5610  141.0180 C   0  0  0  0  0  0  0  0  0  0  0  0
  187.2880  175.8150  143.5980 C   0  0  0  0  0  1  0  0  0  0  0  0
  187.5290  178.4960  141.8940 N   0  0  0  0  0  0  0  0  0  0  0  0
  185.1270  178.6150  142.3530 C   0  0  0  0  0  0  0  0  0  0  0  0
  189.8180  178.4230  142.6390 C   0  0  0  0  0  1  0  0  0  0  0  0
  182.4120  178.6310  141.5030 C   0  0  0  0  0  0  0  0  0  0  0  0
  186.7600  178.0850  144.0500 O   0  0  0  0  0  0  0  0  0  0  0  0
  188.3910  177.6660  146.2350 C   0  0  0  0  0  3  0  0  0  0  0  0
  188.7990  177.1890  144.9800 C   0  0  0  0  0  0  0  0  0  0  0  0
  189.2950  177.6660  147.2970 C   0  0  0  0  0  0  0  0  0  0  0  0
  190.0800  176.7520  144.8160 N   0  0  0  0  0  0  0  0  0  0  0  0
  190.9750  176.7450  145.8410 C   0  0  0  0  0  3  0  0  0  0  0  0
  190.5960  177.2030  147.1050 C   0  0  0  0  0  3  0  0  0  0  0  0
  188.7980  178.2520  148.8700 Cl  0  0  0  0  0  0  0  0  0  0  0  0
  188.4410  178.5510  139.5320 C   0  0  0  0  0  2  0  0  0  0  0  0
  188.7050  177.1340  139.0560 C   0  0  0  0  0  2  0  0  0  0  0  0
  189.5260  177.1550  137.7770 C   0  0  0  0  0  2  0  0  0  0  0  0
  189.0310  178.1390  136.8750 O   0  0  0  0  0  0  0  0  0  0  0  0
  189.4100  177.5140  134.7030 O   0  0  0  0  0  0  0  0  0  0  0  0
  188.5730  177.8130  135.5980 C   0  0  0  0  0  0  0  0  0  0  0  0
  186.3870  176.6810  135.5400 C   0  0  0  0  0  1  0  0  0  0  0  0
  187.2050  177.8190  135.3150 O   0  0  0  0  0  0  0  0  0  0  0  0
  1 17  1  1  0  0  0
  1  6  1  0  0  0  0
  2  7  1  0  0  0  0
  3  8  1  1  0  0  0
  3 13  1  0  0  0  0
  3 18  1  0  0  0  0
  4 12  2  0  0  0  0
  4 10  1  0  0  0  0
  5 16  1  6  0  0  0
  5 19  1  0  0  0  0
  6 14  1  6  0  0  0
  6 19  1  0  0  0  0
  6 21  1  0  0  0  0
  7  9  2  0  0  0  0
  7 13  1  0  0  0  0
  9 15  1  0  0  0  0
 11 18  2  0  0  0  0
 13 16  2  0  0  0  0
 15  1  1  0  0  0  0
 15  5  1  0  0  0  0
 16 12  1  0  0  0  0
 18  4  1  0  0  0  0
 20 22  1  0  0  0  0
 21 20  2  0  0  0  0
 22 26  1  0  0  0  0
 23 21  1  0  0  0  0
 23 24  2  0  0  0  0
 24 25  1  0  0  0  0
 25 22  2  0  0  0  0
 27  9  1  0  0  0  0
 28 27  1  0  0  0  0
 29 28  1  0  0  0  0
 30 29  1  0  0  0  0
 31 32  2  0  0  0  0
 32 30  1  0  0  0  0
 34 33  1  0  0  0  0
 34 32  1  0  0  0  0
M  END
>  <MODEL>
7

>  <REMARK>
 VINA RESULT:      -7.4      1.892      6.361
  Name = 
  7 active torsions:
  status: ('A' for Active; 'I' for Inactive)
    1  A    between atoms: O_1  and  C_18
    2  A    between atoms: O_1  and  C_29
    3  A    between atoms: C_2  and  C_15
    4  A    between atoms: C_2  and  C_33
    5  A    between atoms: C_9  and  C_13
    6  A    between atoms: C_18  and  O_30
    7  A    between atoms: C_29  and  C_33
                            x       y       z     vdW  Elec       q    Type
                         _______ _______ _______ _____ _____    ______ ____

>  <TORSDO>
F 7

$$$$
=
 OpenBabel10222418203D

 34 37  0  0  1  0  0  0  0  0999 V2000
  185.9220  178.7470  141.6200 C   0  0  1  0  0  3  0  0  0  0  0  0
  190.7810  178.0230  141.3180 C   0  0  0  0  0  1  0  0  0  0  0  0
  190.6120  177.8790  144.2760 C   0  0  2  0  0  3  0  0  0  0  0  0
  189.1530  177.1280  146.2600 C   0  0  0  0  0  0  0  0  0  0  0  0
  186.9030  177.3130  143.2190 C   0  0  1  0  0  3  0  0  0  0  0  0
  185.2620  178.8970  142.9980 C   0  0  2  0  0  0  0  0  0  0  0  0
  189.4370  177.9130  141.9730 C   0  0  0  0  0  0  0  0  0  0  0  0
  190.9750  179.2860  144.3430 N   0  0  0  0  0  1  0  0  0  0  0  0
  188.3110  178.0340  141.2460 C   0  0  0  0  0  0  0  0  0  0  0  0
  188.9980  176.8070  147.7060 C   0  0  0  0  0  1  0  0  0  0  0  0
  191.5230  177.0980  146.3420 O   0  0  0  0  0  0  0  0  0  0  0  0
  188.0700  177.2020  145.4910 C   0  0  0  0  0  3  0  0  0  0  0  0
  189.3520  177.7180  143.4480 C   0  0  0  0  0  0  0  0  0  0  0  0
  185.6720  180.2490  143.5630 C   0  0  0  0  0  1  0  0  0  0  0  0
  187.0440  177.9010  141.9010 N   0  0  0  0  0  0  0  0  0  0  0  0
  188.1560  177.4800  144.0420 C   0  0  0  0  0  0  0  0  0  0  0  0
  185.0530  178.0790  140.5570 C   0  0  0  0  0  1  0  0  0  0  0  0
  190.4840  177.3340  145.6690 C   0  0  0  0  0  0  0  0  0  0  0  0
  185.7840  177.8960  143.8570 O   0  0  0  0  0  0  0  0  0  0  0  0
  183.0680  178.6490  141.7470 C   0  0  0  0  0  3  0  0  0  0  0  0
  183.7480  178.8290  142.9600 C   0  0  0  0  0  0  0  0  0  0  0  0
  181.6730  178.6280  141.7360 C   0  0  0  0  0  0  0  0  0  0  0  0
  183.0300  179.0030  144.1070 N   0  0  0  0  0  0  0  0  0  0  0  0
  181.6700  178.9860  144.1150 C   0  0  0  0  0  3  0  0  0  0  0  0
  180.9650  178.7960  142.9250 C   0  0  0  0  0  3  0  0  0  0  0  0
  180.8130  178.3970  140.2290 Cl  0  0  0  0  0  0  0  0  0  0  0  0
  188.3550  178.3030  139.7730 C   0  0  0  0  0  2  0  0  0  0  0  0
  188.3920  176.9910  139.0110 C   0  0  0  0  0  2  0  0  0  0  0  0
  189.1790  177.1560  137.7210 C   0  0  0  0  0  2  0  0  0  0  0  0
  190.5720  177.2720  137.9900 O   0  0  0  0  0  0  0  0  0  0  0  0
  192.6680  176.3640  137.8080 O   0  0  0  0  0  0  0  0  0  0  0  0
  191.4300  176.1730  137.9510 C   0  0  0  0  0  0  0  0  0  0  0  0
  190.9290  173.9680  136.9760 C   0  0  0  0  0  1  0  0  0  0  0  0
  190.9220  174.8750  138.0670 O   0  0  0  0  0  0  0  0  0  0  0  0
  1 17  1  6  0  0  0
  1 15  1  0  0  0  0
  1  6  1  0  0  0  0
  2  7  1  0  0  0  0
  3  8  1  1  0  0  0
  3 18  1  0  0  0  0
  4 10  1  0  0  0  0
  5 19  1  1  0  0  0
  5 16  1  0  0  0  0
  6 14  1  1  0  0  0
  6 19  1  0  0  0  0
  7 13  1  0  0  0  0
  9 15  1  0  0  0  0
  9  7  2  0  0  0  0
 12  4  2  0  0  0  0
 13 16  2  0  0  0  0
 13  3  1  0  0  0  0
 15  5  1  0  0  0  0
 16 12  1  0  0  0  0
 18  4  1  0  0  0  0
 18 11  2  0  0  0  0
 20 21  1  0  0  0  0
 21  6  1  0  0  0  0
 21 23  2  0  0  0  0
 22 20  2  0  0  0  0
 22 25  1  0  0  0  0
 23 24  1  0  0  0  0
 25 24  2  0  0  0  0
 26 22  1  0  0  0  0
 27  9  1  0  0  0  0
 28 27  1  0  0  0  0
 29 30  1  0  0  0  0
 29 28  1  0  0  0  0
 31 32  2  0  0  0  0
 32 30  1  0  0  0  0
 32 34  1  0  0  0  0
 33 34  1  0  0  0  0
M  END
>  <MODEL>
8

>  <REMARK>
 VINA RESULT:      -7.2      2.829      7.715
  Name = 
  7 active torsions:
  status: ('A' for Active; 'I' for Inactive)
    1  A    between atoms: O_1  and  C_18
    2  A    between atoms: O_1  and  C_29
    3  A    between atoms: C_2  and  C_15
    4  A    between atoms: C_2  and  C_33
    5  A    between atoms: C_9  and  C_13
    6  A    between atoms: C_18  and  O_30
    7  A    between atoms: C_29  and  C_33
                            x       y       z     vdW  Elec       q    Type
                         _______ _______ _______ _____ _____    ______ ____

>  <TORSDO>
F 7

$$$$
=
 OpenBabel10222418203D

 34 37  0  0  1  0  0  0  0  0999 V2000
  189.4740  177.2490  143.1800 C   0  0  1  0  0  3  0  0  0  0  0  0
  186.3860  177.7950  146.9740 C   0  0  0  0  0  1  0  0  0  0  0  0
  184.5350  178.8200  144.8950 C   0  0  2  0  0  3  0  0  0  0  0  0
  183.7920  178.5740  142.4420 C   0  0  0  0  0  0  0  0  0  0  0  0
  187.1760  176.9040  142.7630 C   0  0  1  0  0  3  0  0  0  0  0  0
  189.0670  177.7600  141.7910 C   0  0  2  0  0  0  0  0  0  0  0  0
  186.7270  177.6030  145.5270 C   0  0  0  0  0  0  0  0  0  0  0  0
  184.9470  180.1740  145.2270 N   0  0  0  0  0  1  0  0  0  0  0  0
  187.9280  177.1140  145.1680 C   0  0  0  0  0  0  0  0  0  0  0  0
  182.8110  178.8370  141.3530 C   0  0  0  0  0  1  0  0  0  0  0  0
  182.2950  179.2160  144.1660 O   0  0  0  0  0  0  0  0  0  0  0  0
  184.9710  178.0380  142.1390 C   0  0  0  0  0  3  0  0  0  0  0  0
  185.7460  178.0060  144.4810 C   0  0  0  0  0  0  0  0  0  0  0  0
  189.1080  179.2810  141.8280 C   0  0  0  0  0  1  0  0  0  0  0  0
  188.2120  176.9230  143.7760 N   0  0  0  0  0  0  0  0  0  0  0  0
  185.9760  177.7180  143.1750 C   0  0  0  0  0  0  0  0  0  0  0  0
  190.3550  176.0020  143.1770 C   0  0  0  0  0  1  0  0  0  0  0  0
  183.4640  178.8720  143.8450 C   0  0  0  0  0  0  0  0  0  0  0  0
  187.7240  177.3720  141.5460 O   0  0  0  0  0  0  0  0  0  0  0  0
  191.3620  177.4590  140.7500 C   0  0  0  0  0  3  0  0  0  0  0  0
  189.9720  177.2800  140.6740 C   0  0  0  0  0  0  0  0  0  0  0  0
  192.1680  177.0420  139.6910 C   0  0  0  0  0  0  0  0  0  0  0  0
  189.4320  176.7180  139.5540 N   0  0  0  0  0  0  0  0  0  0  0  0
  190.2040  176.3060  138.5120 C   0  0  0  0  0  3  0  0  0  0  0  0
  191.5910  176.4600  138.5630 C   0  0  0  0  0  3  0  0  0  0  0  0
  193.9040  177.2530  139.7770 Cl  0  0  0  0  0  0  0  0  0  0  0  0
  188.9690  176.7650  146.1870 C   0  0  0  0  0  2  0  0  0  0  0  0
  189.9670  177.9020  146.3130 C   0  0  0  0  0  2  0  0  0  0  0  0
  191.3870  177.3620  146.2620 C   0  0  0  0  0  2  0  0  0  0  0  0
  191.8640  177.0680  147.5710 O   0  0  0  0  0  0  0  0  0  0  0  0
  192.5950  174.9700  147.0110 O   0  0  0  0  0  0  0  0  0  0  0  0
  192.5770  175.9040  147.8580 C   0  0  0  0  0  0  0  0  0  0  0  0
  193.5910  176.9010  149.8670 C   0  0  0  0  0  1  0  0  0  0  0  0
  193.2610  175.7750  149.0700 O   0  0  0  0  0  0  0  0  0  0  0  0
  1 17  1  6  0  0  0
  1 15  1  0  0  0  0
  3  8  1  6  0  0  0
  4 18  1  0  0  0  0
  5 19  1  6  0  0  0
  5 16  1  0  0  0  0
  5 15  1  0  0  0  0
  6 14  1  1  0  0  0
  6  1  1  0  0  0  0
  7  2  1  0  0  0  0
  9  7  2  0  0  0  0
  9 27  1  0  0  0  0
 10  4  1  0  0  0  0
 12  4  2  0  0  0  0
 12 16  1  0  0  0  0
 13  3  1  0  0  0  0
 13  7  1  0  0  0  0
 15  9  1  0  0  0  0
 16 13  2  0  0  0  0
 18 11  2  0  0  0  0
 18  3  1  0  0  0  0
 19  6  1  0  0  0  0
 21 20  1  0  0  0  0
 21  6  1  0  0  0  0
 22 26  1  0  0  0  0
 22 20  2  0  0  0  0
 23 21  2  0  0  0  0
 24 25  2  0  0  0  0
 24 23  1  0  0  0  0
 25 22  1  0  0  0  0
 27 28  1  0  0  0  0
 29 28  1  0  0  0  0
 29 30  1  0  0  0  0
 30 32  1  0  0  0  0
 31 32  2  0  0  0  0
 32 34  1  0  0  0  0
 34 33  1  0  0  0  0
M  END
>  <MODEL>
9

>  <REMARK>
 VINA RESULT:      -7.2      3.063      7.230
  Name = 
  7 active torsions:
  status: ('A' for Active; 'I' for Inactive)
    1  A    between atoms: O_1  and  C_18
    2  A    between atoms: O_1  and  C_29
    3  A    between atoms: C_2  and  C_15
    4  A    between atoms: C_2  and  C_33
    5  A    between atoms: C_9  and  C_13
    6  A    between atoms: C_18  and  O_30
    7  A    between atoms: C_29  and  C_33
                            x       y       z     vdW  Elec       q    Type
                         _______ _______ _______ _____ _____    ______ ____

>  <TORSDO>
F 7

$$$$
