=
 OpenBabel10222421163D

 37 43  0  0  1  0  0  0  0  0999 V2000
  189.4520  176.2510  141.8130 C   0  0  0  0  0  2  0  0  0  0  0  0
  191.6520  175.8060  147.3710 C   0  0  0  0  0  2  0  0  0  0  0  0
  187.7860  177.8340  145.9870 C   0  0  0  0  0  0  0  0  0  0  0  0
  190.5590  176.8310  140.9130 C   0  0  1  0  0  3  0  0  0  0  0  0
  185.9920  177.6640  142.6380 O   0  0  0  0  0  0  0  0  0  0  0  0
  189.8440  177.5560  147.3430 C   0  0  0  0  0  0  0  0  0  0  0  0
  187.3920  177.7540  144.5820 C   0  0  0  0  0  0  0  0  0  0  0  0
  189.1000  177.4350  146.0760 C   0  0  0  0  0  0  0  0  0  0  0  0
  186.1390  177.9720  143.9950 C   0  0  0  0  0  0  0  0  0  0  0  0
  189.2400  178.0620  148.3770 N   0  0  0  0  0  0  0  0  0  0  0  0
  190.3180  178.2880  140.4800 C   0  0  0  0  0  2  0  0  0  0  0  0
  189.5700  177.1340  144.8060 C   0  0  0  0  0  0  0  0  0  0  0  0
  191.3510  175.4340  144.9220 C   0  0  0  0  0  2  0  0  0  0  0  0
  185.7900  178.7560  147.0670 C   0  0  0  0  0  3  0  0  0  0  0  0
  187.8170  178.4360  148.4190 C   0  0  0  0  0  2  0  0  0  0  0  0
  190.9830  176.8250  144.4460 C   0  0  0  0  0  2  0  0  0  0  0  0
  188.8340  178.6060  140.3260 C   0  0  2  0  0  3  0  0  0  0  0  0
  186.6060  178.4190  141.5990 C   0  0  0  0  0  2  0  0  0  0  0  0
  187.1080  178.3400  147.0870 C   0  0  0  0  0  0  0  0  0  0  0  0
  188.5300  177.3200  143.9020 C   0  0  0  0  0  0  0  0  0  0  0  0
  191.2220  177.1940  147.4530 N   0  0  0  0  0  2  0  0  0  0  0  0
  184.9910  178.4200  144.6740 C   0  0  0  0  0  0  0  0  0  0  0  0
  192.3570  175.5340  146.0530 C   0  0  0  0  0  2  0  0  0  0  0  0
  188.1350  178.4280  141.6920 C   0  0  1  0  0  3  0  0  0  0  0  0
  188.6720  177.3040  142.4700 N   0  0  0  0  0  0  0  0  0  0  0  0
  184.8790  178.7750  146.0210 C   0  0  0  0  0  3  0  0  0  0  0  0
  182.5180  178.6810  144.5640 C   0  0  0  0  0  3  0  0  0  0  0  0
  183.7520  178.5900  143.9010 C   0  0  0  0  0  0  0  0  0  0  0  0
  183.7990  178.6480  142.5030 C   0  0  0  0  0  3  0  0  0  0  0  0
  182.6670  178.8480  140.3860 O   0  0  0  0  0  1  0  0  0  0  0  0
  181.3900  178.8820  142.4320 C   0  0  0  0  0  3  0  0  0  0  0  0
  182.6180  178.7930  141.7700 C   0  0  0  0  0  0  0  0  0  0  0  0
  181.3390  178.8260  143.8290 C   0  0  0  0  0  3  0  0  0  0  0  0
  188.2210  177.7640  139.2060 C   0  0  0  0  0  2  0  0  0  0  0  0
  187.7100  178.5930  138.2080 O   0  0  0  0  0  1  0  0  0  0  0  0
  192.6690  177.4870  140.7640 C   0  0  0  0  0  1  0  0  0  0  0  0
  191.7960  176.7280  141.5480 O   0  0  0  0  0  0  0  0  0  0  0  0
  1 25  1  0  0  0  0
  2 21  1  0  0  0  0
  3  8  1  0  0  0  0
  3 19  2  0  0  0  0
  4 37  1  1  0  0  0
  4  1  1  0  0  0  0
  5  9  1  0  0  0  0
  6 21  1  0  0  0  0
  6 10  2  0  0  0  0
  7  3  1  0  0  0  0
  8  6  1  0  0  0  0
  9  7  1  0  0  0  0
  9 22  2  0  0  0  0
 10 15  1  0  0  0  0
 11  4  1  0  0  0  0
 12  8  2  0  0  0  0
 13 23  1  0  0  0  0
 14 19  1  0  0  0  0
 16 12  1  0  0  0  0
 16 13  1  0  0  0  0
 17 34  1  6  0  0  0
 17 11  1  0  0  0  0
 17 24  1  0  0  0  0
 18  5  1  0  0  0  0
 19 15  1  0  0  0  0
 20  7  2  0  0  0  0
 20 12  1  0  0  0  0
 22 26  1  0  0  0  0
 23  2  1  0  0  0  0
 24 18  1  6  0  0  0
 24 25  1  0  0  0  0
 25 20  1  0  0  0  0
 26 14  2  0  0  0  0
 28 27  1  0  0  0  0
 28 22  1  0  0  0  0
 29 28  2  0  0  0  0
 30 32  1  0  0  0  0
 31 33  1  0  0  0  0
 32 31  2  0  0  0  0
 32 29  1  0  0  0  0
 33 27  2  0  0  0  0
 35 34  1  0  0  0  0
 36 37  1  0  0  0  0
M  END
>  <MODEL>
1

>  <REMARK>
 VINA RESULT:     -11.9      0.000      0.000
  Name = 
  3 active torsions:
  status: ('A' for Active; 'I' for Inactive)
    1  A    between atoms: C_5  and  O_23
    2  A    between atoms: C_6  and  C_31
    3  A    between atoms: C_11  and  C_26
                            x       y       z     vdW  Elec       q    Type
                         _______ _______ _______ _____ _____    ______ ____

>  <TORSDO>
F 3

$$$$
=
 OpenBabel10222421163D

 37 43  0  0  1  0  0  0  0  0999 V2000
  189.3620  178.6290  142.9880 C   0  0  0  0  0  2  0  0  0  0  0  0
  192.8780  176.8690  138.4640 C   0  0  0  0  0  2  0  0  0  0  0  0
  188.3110  177.1940  138.5670 C   0  0  0  0  0  0  0  0  0  0  0  0
  189.7390  177.7970  144.2280 C   0  0  1  0  0  3  0  0  0  0  0  0
  186.0290  178.8490  141.1190 O   0  0  0  0  0  0  0  0  0  0  0  0
  190.5030  176.2050  137.9620 C   0  0  0  0  0  0  0  0  0  0  0  0
  187.6530  177.7290  139.7570 C   0  0  0  0  0  0  0  0  0  0  0  0
  189.6150  176.9100  138.9030 C   0  0  0  0  0  0  0  0  0  0  0  0
  186.3570  178.2420  139.9030 C   0  0  0  0  0  0  0  0  0  0  0  0
  190.0290  175.8400  136.8080 N   0  0  0  0  0  0  0  0  0  0  0  0
  188.6890  176.7400  144.6170 C   0  0  0  0  0  2  0  0  0  0  0  0
  189.8130  177.2090  140.2440 C   0  0  0  0  0  0  0  0  0  0  0  0
  192.1640  177.8240  140.6560 C   0  0  0  0  0  2  0  0  0  0  0  0
  186.4960  177.1070  136.9250 C   0  0  0  0  0  3  0  0  0  0  0  0
  188.6830  176.1690  136.3110 C   0  0  0  0  0  2  0  0  0  0  0  0
  191.0330  176.8910  141.0400 C   0  0  0  0  0  2  0  0  0  0  0  0
  187.2700  177.1860  144.2820 C   0  0  2  0  0  3  0  0  0  0  0  0
  185.8750  178.1240  142.3340 C   0  0  0  0  0  2  0  0  0  0  0  0
  187.7930  176.8500  137.3270 C   0  0  0  0  0  0  0  0  0  0  0  0
  188.6240  177.7130  140.7580 C   0  0  0  0  0  0  0  0  0  0  0  0
  191.8470  175.8550  138.3010 N   0  0  0  0  0  2  0  0  0  0  0  0
  185.3690  178.2510  138.9000 C   0  0  0  0  0  0  0  0  0  0  0  0
  193.2410  177.0430  139.9280 C   0  0  0  0  0  2  0  0  0  0  0  0
  187.1500  177.3880  142.7550 C   0  0  1  0  0  3  0  0  0  0  0  0
  188.3660  177.9500  142.1530 N   0  0  0  0  0  0  0  0  0  0  0  0
  185.4590  177.7250  137.6090 C   0  0  0  0  0  3  0  0  0  0  0  0
  183.1500  178.1210  140.0170 C   0  0  0  0  0  3  0  0  0  0  0  0
  184.0600  178.8360  139.2240 C   0  0  0  0  0  0  0  0  0  0  0  0
  183.7130  180.0990  138.7310 C   0  0  0  0  0  3  0  0  0  0  0  0
  182.1210  181.8960  138.5360 O   0  0  0  0  0  1  0  0  0  0  0  0
  181.5560  179.9310  139.8170 C   0  0  0  0  0  3  0  0  0  0  0  0
  182.4630  180.6460  139.0280 C   0  0  0  0  0  0  0  0  0  0  0  0
  181.9000  178.6690  140.3130 C   0  0  0  0  0  3  0  0  0  0  0  0
  186.8920  178.4230  145.0990 C   0  0  0  0  0  2  0  0  0  0  0  0
  186.8250  178.1010  146.4530 O   0  0  0  0  0  1  0  0  0  0  0  0
  191.3850  176.7890  145.3130 C   0  0  0  0  0  1  0  0  0  0  0  0
  190.9750  177.1840  144.0360 O   0  0  0  0  0  0  0  0  0  0  0  0
  1  4  1  0  0  0  0
  2 23  1  0  0  0  0
  3  8  2  0  0  0  0
  3  7  1  0  0  0  0
  4 37  1  6  0  0  0
  4 11  1  0  0  0  0
  5 18  1  0  0  0  0
  6 21  1  0  0  0  0
  6  8  1  0  0  0  0
  7  9  2  0  0  0  0
  7 20  1  0  0  0  0
  8 12  1  0  0  0  0
  9  5  1  0  0  0  0
 10  6  2  0  0  0  0
 12 20  2  0  0  0  0
 12 16  1  0  0  0  0
 13 16  1  0  0  0  0
 14 19  2  0  0  0  0
 14 26  1  0  0  0  0
 15 10  1  0  0  0  0
 15 19  1  0  0  0  0
 17 11  1  0  0  0  0
 17 34  1  1  0  0  0
 19  3  1  0  0  0  0
 20 25  1  0  0  0  0
 21  2  1  0  0  0  0
 22 28  1  0  0  0  0
 22  9  1  0  0  0  0
 23 13  1  0  0  0  0
 24 18  1  1  0  0  0
 24 17  1  0  0  0  0
 25 24  1  0  0  0  0
 25  1  1  0  0  0  0
 26 22  2  0  0  0  0
 27 33  1  0  0  0  0
 28 27  2  0  0  0  0
 29 32  2  0  0  0  0
 29 28  1  0  0  0  0
 30 32  1  0  0  0  0
 31 33  2  0  0  0  0
 32 31  1  0  0  0  0
 34 35  1  0  0  0  0
 37 36  1  0  0  0  0
M  END
>  <MODEL>
2

>  <REMARK>
 VINA RESULT:      -9.5      2.492      6.209
  Name = 
  3 active torsions:
  status: ('A' for Active; 'I' for Inactive)
    1  A    between atoms: C_5  and  O_23
    2  A    between atoms: C_6  and  C_31
    3  A    between atoms: C_11  and  C_26
                            x       y       z     vdW  Elec       q    Type
                         _______ _______ _______ _____ _____    ______ ____

>  <TORSDO>
F 3

$$$$
=
 OpenBabel10222421163D

 37 43  0  0  1  0  0  0  0  0999 V2000
  184.8120  177.5810  143.2290 C   0  0  0  0  0  2  0  0  0  0  0  0
  185.6170  177.9820  137.3030 C   0  0  0  0  0  2  0  0  0  0  0  0
  188.7840  177.7270  140.6010 C   0  0  0  0  0  0  0  0  0  0  0  0
  183.8720  178.7250  143.6550 C   0  0  1  0  0  3  0  0  0  0  0  0
  188.4200  176.8670  144.2870 O   0  0  0  0  0  0  0  0  0  0  0  0
  187.7910  178.4930  138.4610 C   0  0  0  0  0  0  0  0  0  0  0  0
  188.3660  177.5500  141.9900 C   0  0  0  0  0  0  0  0  0  0  0  0
  187.6730  178.0850  139.8730 C   0  0  0  0  0  0  0  0  0  0  0  0
  189.1080  177.1060  143.0930 C   0  0  0  0  0  0  0  0  0  0  0  0
  188.9710  178.5230  137.9160 N   0  0  0  0  0  0  0  0  0  0  0  0
  184.5720  179.8550  144.4320 C   0  0  0  0  0  2  0  0  0  0  0  0
  186.5810  178.1730  140.7250 C   0  0  0  0  0  0  0  0  0  0  0  0
  184.4930  177.6830  139.5110 C   0  0  0  0  0  2  0  0  0  0  0  0
  191.2040  177.3610  140.7020 C   0  0  0  0  0  3  0  0  0  0  0  0
  190.2110  178.0760  138.5710 C   0  0  0  0  0  2  0  0  0  0  0  0
  185.2310  178.6930  140.3660 C   0  0  0  0  0  2  0  0  0  0  0  0
  185.7350  179.3420  145.2740 C   0  0  2  0  0  3  0  0  0  0  0  0
  187.8610  177.9040  145.0850 C   0  0  0  0  0  2  0  0  0  0  0  0
  190.0480  177.7130  140.0300 C   0  0  0  0  0  0  0  0  0  0  0  0
  187.0020  177.8400  142.0080 C   0  0  0  0  0  0  0  0  0  0  0  0
  186.6620  178.9150  137.6940 N   0  0  0  0  0  2  0  0  0  0  0  0
  190.4860  176.8230  143.0840 C   0  0  0  0  0  0  0  0  0  0  0  0
  184.3470  178.2230  138.1000 C   0  0  0  0  0  2  0  0  0  0  0  0
  186.7990  178.7210  144.3420 C   0  0  1  0  0  3  0  0  0  0  0  0
  186.2150  178.0050  143.2000 N   0  0  0  0  0  0  0  0  0  0  0  0
  191.3810  176.9660  142.0210 C   0  0  0  0  0  3  0  0  0  0  0  0
  191.8160  175.1510  144.3600 C   0  0  0  0  0  3  0  0  0  0  0  0
  191.1050  176.3610  144.3350 C   0  0  0  0  0  0  0  0  0  0  0  0
  190.9750  177.1180  145.5050 C   0  0  0  0  0  3  0  0  0  0  0  0
  191.4200  177.4180  147.8540 O   0  0  0  0  0  1  0  0  0  0  0  0
  192.2580  175.4610  146.7200 C   0  0  0  0  0  3  0  0  0  0  0  0
  191.5510  176.6680  146.6960 C   0  0  0  0  0  0  0  0  0  0  0  0
  192.3910  174.7030  145.5510 C   0  0  0  0  0  3  0  0  0  0  0  0
  185.2300  178.3860  146.3560 C   0  0  0  0  0  2  0  0  0  0  0  0
  185.5000  178.9070  147.6200 O   0  0  0  0  0  1  0  0  0  0  0  0
  181.8620  179.0510  142.7850 C   0  0  0  0  0  1  0  0  0  0  0  0
  183.2240  179.2520  142.5400 O   0  0  0  0  0  0  0  0  0  0  0  0
  1  4  1  0  0  0  0
  2 21  1  0  0  0  0
  2 23  1  0  0  0  0
  3  7  1  0  0  0  0
  4 37  1  6  0  0  0
  4 11  1  0  0  0  0
  5 18  1  0  0  0  0
  6  8  1  0  0  0  0
  7 20  1  0  0  0  0
  7  9  2  0  0  0  0
  8  3  2  0  0  0  0
  8 12  1  0  0  0  0
  9  5  1  0  0  0  0
 10  6  2  0  0  0  0
 10 15  1  0  0  0  0
 11 17  1  0  0  0  0
 12 20  2  0  0  0  0
 13 16  1  0  0  0  0
 14 26  1  0  0  0  0
 15 19  1  0  0  0  0
 16 12  1  0  0  0  0
 17 34  1  1  0  0  0
 19  3  1  0  0  0  0
 19 14  2  0  0  0  0
 20 25  1  0  0  0  0
 21  6  1  0  0  0  0
 22  9  1  0  0  0  0
 22 28  1  0  0  0  0
 23 13  1  0  0  0  0
 24 18  1  1  0  0  0
 24 17  1  0  0  0  0
 25  1  1  0  0  0  0
 25 24  1  0  0  0  0
 26 22  2  0  0  0  0
 27 33  1  0  0  0  0
 28 27  2  0  0  0  0
 28 29  1  0  0  0  0
 29 32  2  0  0  0  0
 32 31  1  0  0  0  0
 32 30  1  0  0  0  0
 33 31  2  0  0  0  0
 34 35  1  0  0  0  0
 37 36  1  0  0  0  0
M  END
>  <MODEL>
3

>  <REMARK>
 VINA RESULT:      -9.3      2.379      8.212
  Name = 
  3 active torsions:
  status: ('A' for Active; 'I' for Inactive)
    1  A    between atoms: C_5  and  O_23
    2  A    between atoms: C_6  and  C_31
    3  A    between atoms: C_11  and  C_26
                            x       y       z     vdW  Elec       q    Type
                         _______ _______ _______ _____ _____    ______ ____

>  <TORSDO>
F 3

$$$$
=
 OpenBabel10222421163D

 37 43  0  0  1  0  0  0  0  0999 V2000
  184.2870  179.6780  142.6680 C   0  0  0  0  0  2  0  0  0  0  0  0
  187.4070  178.5650  147.6630 C   0  0  0  0  0  2  0  0  0  0  0  0
  188.4570  177.4730  143.3410 C   0  0  0  0  0  0  0  0  0  0  0  0
  182.8530  179.1570  142.8820 C   0  0  1  0  0  3  0  0  0  0  0  0
  186.8990  178.6340  140.0720 O   0  0  0  0  0  0  0  0  0  0  0  0
  188.3170  177.1450  145.7950 C   0  0  0  0  0  0  0  0  0  0  0  0
  187.5880  177.9170  142.2530 C   0  0  0  0  0  0  0  0  0  0  0  0
  187.7720  177.6480  144.5210 C   0  0  0  0  0  0  0  0  0  0  0  0
  187.8580  178.0180  140.8820 C   0  0  0  0  0  0  0  0  0  0  0  0
  189.4550  176.5170  145.7840 N   0  0  0  0  0  0  0  0  0  0  0  0
  182.5240  177.8810  142.0850 C   0  0  0  0  0  2  0  0  0  0  0  0
  186.5090  178.1510  144.2430 C   0  0  0  0  0  0  0  0  0  0  0  0
  185.6800  179.5060  146.1270 C   0  0  0  0  0  2  0  0  0  0  0  0
  190.4340  176.6360  142.1610 C   0  0  0  0  0  3  0  0  0  0  0  0
  190.3120  176.3530  144.5990 C   0  0  0  0  0  2  0  0  0  0  0  0
  185.3990  178.3230  145.2240 C   0  0  0  0  0  2  0  0  0  0  0  0
  183.2680  177.8230  140.7550 C   0  0  2  0  0  3  0  0  0  0  0  0
  185.6370  178.0460  139.7760 C   0  0  0  0  0  2  0  0  0  0  0  0
  189.6920  176.8410  143.3100 C   0  0  0  0  0  0  0  0  0  0  0  0
  186.4020  178.3210  142.8670 C   0  0  0  0  0  0  0  0  0  0  0  0
  187.6070  177.2710  147.0290 N   0  0  0  0  0  2  0  0  0  0  0  0
  189.0490  177.6020  140.2570 C   0  0  0  0  0  0  0  0  0  0  0  0
  185.9620  179.0150  147.5340 C   0  0  0  0  0  2  0  0  0  0  0  0
  184.7880  177.7950  141.0260 C   0  0  1  0  0  3  0  0  0  0  0  0
  185.1830  178.6310  142.1690 N   0  0  0  0  0  0  0  0  0  0  0  0
  190.1510  176.9800  140.8470 C   0  0  0  0  0  3  0  0  0  0  0  0
  188.9800  179.0600  138.2420 C   0  0  0  0  0  3  0  0  0  0  0  0
  189.1670  177.7880  138.8030 C   0  0  0  0  0  0  0  0  0  0  0  0
  189.4520  176.6950  137.9760 C   0  0  0  0  0  3  0  0  0  0  0  0
  189.8300  175.7890  135.7760 O   0  0  0  0  0  1  0  0  0  0  0  0
  189.3600  178.1410  136.0350 C   0  0  0  0  0  3  0  0  0  0  0  0
  189.5490  176.8720  136.5940 C   0  0  0  0  0  0  0  0  0  0  0  0
  189.0760  179.2350  136.8590 C   0  0  0  0  0  3  0  0  0  0  0  0
  182.8250  178.9710  139.8460 C   0  0  0  0  0  2  0  0  0  0  0  0
  181.4520  178.8980  139.6160 O   0  0  0  0  0  1  0  0  0  0  0  0
  181.2630  178.6160  144.3250 C   0  0  0  0  0  1  0  0  0  0  0  0
  182.6210  178.9370  144.2380 O   0  0  0  0  0  0  0  0  0  0  0  0
  1  4  1  0  0  0  0
  3  8  2  0  0  0  0
  4 37  1  1  0  0  0
  5  9  1  0  0  0  0
  6 21  1  0  0  0  0
  7 20  1  0  0  0  0
  7  3  1  0  0  0  0
  8  6  1  0  0  0  0
  9  7  2  0  0  0  0
 10  6  2  0  0  0  0
 11  4  1  0  0  0  0
 12  8  1  0  0  0  0
 12 16  1  0  0  0  0
 13 23  1  0  0  0  0
 14 19  2  0  0  0  0
 15 10  1  0  0  0  0
 16 13  1  0  0  0  0
 17 34  1  6  0  0  0
 17 24  1  0  0  0  0
 17 11  1  0  0  0  0
 18  5  1  0  0  0  0
 19  3  1  0  0  0  0
 19 15  1  0  0  0  0
 20 12  2  0  0  0  0
 21  2  1  0  0  0  0
 22 26  2  0  0  0  0
 22  9  1  0  0  0  0
 23  2  1  0  0  0  0
 24 18  1  6  0  0  0
 24 25  1  0  0  0  0
 25  1  1  0  0  0  0
 25 20  1  0  0  0  0
 26 14  1  0  0  0  0
 27 28  1  0  0  0  0
 28 22  1  0  0  0  0
 29 28  2  0  0  0  0
 30 32  1  0  0  0  0
 31 32  2  0  0  0  0
 31 33  1  0  0  0  0
 32 29  1  0  0  0  0
 33 27  2  0  0  0  0
 35 34  1  0  0  0  0
 37 36  1  0  0  0  0
M  END
>  <MODEL>
4

>  <REMARK>
 VINA RESULT:      -9.0      1.897      6.483
  Name = 
  3 active torsions:
  status: ('A' for Active; 'I' for Inactive)
    1  A    between atoms: C_5  and  O_23
    2  A    between atoms: C_6  and  C_31
    3  A    between atoms: C_11  and  C_26
                            x       y       z     vdW  Elec       q    Type
                         _______ _______ _______ _____ _____    ______ ____

>  <TORSDO>
F 3

$$$$
=
 OpenBabel10222421163D

 37 43  0  0  1  0  0  0  0  0999 V2000
  186.7730  178.8210  137.6490 C   0  0  0  0  0  2  0  0  0  0  0  0
  181.3620  180.1070  139.8860 C   0  0  0  0  0  2  0  0  0  0  0  0
  185.0480  178.5020  142.0800 C   0  0  0  0  0  0  0  0  0  0  0  0
  186.5730  177.8800  136.4470 C   0  0  1  0  0  3  0  0  0  0  0  0
  188.6610  178.2270  140.9250 O   0  0  0  0  0  0  0  0  0  0  0  0
  182.6330  178.7230  141.5600 C   0  0  0  0  0  0  0  0  0  0  0  0
  186.3040  178.3350  141.3520 C   0  0  0  0  0  0  0  0  0  0  0  0
  184.0490  178.6850  141.1520 C   0  0  0  0  0  0  0  0  0  0  0  0
  187.6090  178.2070  141.8470 C   0  0  0  0  0  0  0  0  0  0  0  0
  182.3400  178.5670  142.8170 N   0  0  0  0  0  0  0  0  0  0  0  0
  187.0000  176.4250  136.7120 C   0  0  0  0  0  2  0  0  0  0  0  0
  184.5940  178.6150  139.8780 C   0  0  0  0  0  0  0  0  0  0  0  0
  183.2810  179.9740  138.2960 C   0  0  0  0  0  2  0  0  0  0  0  0
  185.7170  178.1900  144.4150 C   0  0  0  0  0  3  0  0  0  0  0  0
  183.3290  178.4560  143.9020 C   0  0  0  0  0  2  0  0  0  0  0  0
  183.8300  178.5950  138.5980 C   0  0  0  0  0  2  0  0  0  0  0  0
  188.1690  176.3350  137.6870 C   0  0  2  0  0  3  0  0  0  0  0  0
  188.9090  177.1690  140.0050 C   0  0  0  0  0  2  0  0  0  0  0  0
  184.7630  178.3730  143.4320 C   0  0  0  0  0  0  0  0  0  0  0  0
  185.9650  178.4110  140.0020 C   0  0  0  0  0  0  0  0  0  0  0  0
  181.5720  178.8650  140.6140 N   0  0  0  0  0  2  0  0  0  0  0  0
  187.9570  178.1180  143.2080 C   0  0  0  0  0  0  0  0  0  0  0  0
  181.7700  179.9590  138.4310 C   0  0  0  0  0  2  0  0  0  0  0  0
  187.7390  176.9240  139.0480 C   0  0  1  0  0  3  0  0  0  0  0  0
  186.8490  178.0860  138.9150 N   0  0  0  0  0  0  0  0  0  0  0  0
  187.0970  178.0940  144.3090 C   0  0  0  0  0  3  0  0  0  0  0  0
  190.1540  179.1430  143.7700 C   0  0  0  0  0  3  0  0  0  0  0  0
  189.3810  177.9920  143.5510 C   0  0  0  0  0  0  0  0  0  0  0  0
  189.9710  176.7260  143.6470 C   0  0  0  0  0  3  0  0  0  0  0  0
  191.9110  175.3560  144.0500 O   0  0  0  0  0  1  0  0  0  0  0  0
  192.0980  177.7580  144.1730 C   0  0  0  0  0  3  0  0  0  0  0  0
  191.3280  176.6110  143.9580 C   0  0  0  0  0  0  0  0  0  0  0  0
  191.5100  179.0250  144.0800 C   0  0  0  0  0  3  0  0  0  0  0  0
  189.4120  176.9990  137.0920 C   0  0  0  0  0  2  0  0  0  0  0  0
  190.4110  176.0490  136.8870 O   0  0  0  0  0  1  0  0  0  0  0  0
  184.9580  176.6010  135.6340 C   0  0  0  0  0  1  0  0  0  0  0  0
  185.2440  177.9120  136.0290 O   0  0  0  0  0  0  0  0  0  0  0  0
  1 25  1  0  0  0  0
  2 21  1  0  0  0  0
  3 19  2  0  0  0  0
  4 37  1  1  0  0  0
  4 11  1  0  0  0  0
  4  1  1  0  0  0  0
  5  9  1  0  0  0  0
  6 10  2  0  0  0  0
  7  9  1  0  0  0  0
  7  3  1  0  0  0  0
  8  6  1  0  0  0  0
  8  3  1  0  0  0  0
  9 22  2  0  0  0  0
 10 15  1  0  0  0  0
 11 17  1  0  0  0  0
 12 20  1  0  0  0  0
 12  8  2  0  0  0  0
 13 23  1  0  0  0  0
 13 16  1  0  0  0  0
 16 12  1  0  0  0  0
 17 34  1  6  0  0  0
 17 24  1  0  0  0  0
 18  5  1  0  0  0  0
 19 15  1  0  0  0  0
 19 14  1  0  0  0  0
 20  7  2  0  0  0  0
 21  6  1  0  0  0  0
 22 28  1  0  0  0  0
 22 26  1  0  0  0  0
 23  2  1  0  0  0  0
 24 18  1  6  0  0  0
 25 24  1  0  0  0  0
 25 20  1  0  0  0  0
 26 14  2  0  0  0  0
 27 33  1  0  0  0  0
 28 29  1  0  0  0  0
 28 27  2  0  0  0  0
 29 32  2  0  0  0  0
 32 30  1  0  0  0  0
 32 31  1  0  0  0  0
 33 31  2  0  0  0  0
 35 34  1  0  0  0  0
 36 37  1  0  0  0  0
M  END
>  <MODEL>
5

>  <REMARK>
 VINA RESULT:      -9.0      3.139      7.429
  Name = 
  3 active torsions:
  status: ('A' for Active; 'I' for Inactive)
    1  A    between atoms: C_5  and  O_23
    2  A    between atoms: C_6  and  C_31
    3  A    between atoms: C_11  and  C_26
                            x       y       z     vdW  Elec       q    Type
                         _______ _______ _______ _____ _____    ______ ____

>  <TORSDO>
F 3

$$$$
=
 OpenBabel10222421163D

 37 43  0  0  1  0  0  0  0  0999 V2000
  189.5680  176.3690  142.5320 C   0  0  0  0  0  2  0  0  0  0  0  0
  188.2020  177.0560  148.3280 C   0  0  0  0  0  2  0  0  0  0  0  0
  185.7690  178.3100  144.6560 C   0  0  0  0  0  0  0  0  0  0  0  0
  190.9750  176.9550  142.3070 C   0  0  1  0  0  3  0  0  0  0  0  0
  186.2210  177.4030  140.9900 O   0  0  0  0  0  0  0  0  0  0  0  0
  186.6870  178.5190  146.9500 C   0  0  0  0  0  0  0  0  0  0  0  0
  186.2530  177.9700  143.3190 C   0  0  0  0  0  0  0  0  0  0  0  0
  186.8060  178.1110  145.5380 C   0  0  0  0  0  0  0  0  0  0  0  0
  185.5560  177.9240  142.1050 C   0  0  0  0  0  0  0  0  0  0  0  0
  185.5870  179.0840  147.3470 N   0  0  0  0  0  0  0  0  0  0  0  0
  190.9840  178.2860  141.5320 C   0  0  0  0  0  2  0  0  0  0  0  0
  187.9270  177.6930  144.8360 C   0  0  0  0  0  0  0  0  0  0  0  0
  189.3680  176.2880  146.2590 C   0  0  0  0  0  2  0  0  0  0  0  0
  183.4900  179.0990  144.2330 C   0  0  0  0  0  3  0  0  0  0  0  0
  184.3860  179.2630  146.5150 C   0  0  0  0  0  2  0  0  0  0  0  0
  189.3000  177.5300  145.3940 C   0  0  0  0  0  2  0  0  0  0  0  0
  189.8470  178.3710  140.5190 C   0  0  2  0  0  3  0  0  0  0  0  0
  187.2980  178.0720  140.3430 C   0  0  0  0  0  2  0  0  0  0  0  0
  184.5700  178.8750  145.0650 C   0  0  0  0  0  0  0  0  0  0  0  0
  187.5870  177.5990  143.4900 C   0  0  0  0  0  0  0  0  0  0  0  0
  187.7630  178.3680  147.8780 N   0  0  0  0  0  2  0  0  0  0  0  0
  184.2140  178.3080  141.9240 C   0  0  0  0  0  0  0  0  0  0  0  0
  189.5410  176.6910  147.7110 C   0  0  0  0  0  2  0  0  0  0  0  0
  188.4970  178.3040  141.2670 C   0  0  1  0  0  3  0  0  0  0  0  0
  188.5230  177.3910  142.4180 N   0  0  0  0  0  0  0  0  0  0  0  0
  183.3410  178.8390  142.8780 C   0  0  0  0  0  3  0  0  0  0  0  0
  183.6990  179.2760  139.6910 C   0  0  0  0  0  3  0  0  0  0  0  0
  183.6360  178.1900  140.5770 C   0  0  0  0  0  0  0  0  0  0  0  0
  183.0120  177.0010  140.1820 C   0  0  0  0  0  3  0  0  0  0  0  0
  181.8310  175.7210  138.5180 O   0  0  0  0  0  1  0  0  0  0  0  0
  182.5120  177.9820  138.0250 C   0  0  0  0  0  3  0  0  0  0  0  0
  182.4510  176.8980  138.9070 C   0  0  0  0  0  0  0  0  0  0  0  0
  183.1370  179.1710  138.4160 C   0  0  0  0  0  3  0  0  0  0  0  0
  190.0100  177.2970  139.4420 C   0  0  0  0  0  2  0  0  0  0  0  0
  189.9920  177.8810  138.1770 O   0  0  0  0  0  1  0  0  0  0  0  0
  191.9210  178.4820  143.6020 C   0  0  0  0  0  1  0  0  0  0  0  0
  191.6270  177.1180  143.5280 O   0  0  0  0  0  0  0  0  0  0  0  0
  3 19  1  0  0  0  0
  3  8  2  0  0  0  0
  4  1  1  0  0  0  0
  4 37  1  1  0  0  0
  5  9  1  0  0  0  0
  6 10  2  0  0  0  0
  6 21  1  0  0  0  0
  7 20  1  0  0  0  0
  7  3  1  0  0  0  0
  8  6  1  0  0  0  0
  9  7  2  0  0  0  0
 11  4  1  0  0  0  0
 12 16  1  0  0  0  0
 12  8  1  0  0  0  0
 13 23  1  0  0  0  0
 14 19  2  0  0  0  0
 15 10  1  0  0  0  0
 16 13  1  0  0  0  0
 17 34  1  6  0  0  0
 17 24  1  0  0  0  0
 17 11  1  0  0  0  0
 18  5  1  0  0  0  0
 19 15  1  0  0  0  0
 20 12  2  0  0  0  0
 21  2  1  0  0  0  0
 22  9  1  0  0  0  0
 22 26  2  0  0  0  0
 23  2  1  0  0  0  0
 24 18  1  6  0  0  0
 24 25  1  0  0  0  0
 25  1  1  0  0  0  0
 25 20  1  0  0  0  0
 26 14  1  0  0  0  0
 27 28  1  0  0  0  0
 28 22  1  0  0  0  0
 29 28  2  0  0  0  0
 30 32  1  0  0  0  0
 31 33  1  0  0  0  0
 31 32  2  0  0  0  0
 32 29  1  0  0  0  0
 33 27  2  0  0  0  0
 35 34  1  0  0  0  0
 37 36  1  0  0  0  0
M  END
>  <MODEL>
6

>  <REMARK>
 VINA RESULT:      -8.9      1.831      2.940
  Name = 
  3 active torsions:
  status: ('A' for Active; 'I' for Inactive)
    1  A    between atoms: C_5  and  O_23
    2  A    between atoms: C_6  and  C_31
    3  A    between atoms: C_11  and  C_26
                            x       y       z     vdW  Elec       q    Type
                         _______ _______ _______ _____ _____    ______ ____

>  <TORSDO>
F 3

$$$$
