=
 OpenBabel10222419403D

 36 40  0  0  0  0  0  0  0  0999 V2000
  183.9060  177.3990  138.2860 C   0  0  0  0  0  2  0  0  0  0  0  0
  185.5460  178.9130  141.1010 C   0  0  0  0  0  0  0  0  0  0  0  0
  184.2450  178.6250  141.4880 C   0  0  0  0  0  0  0  0  0  0  0  0
  182.7190  176.8300  139.0370 C   0  0  0  0  0  0  0  0  0  0  0  0
  182.5630  177.3360  140.2210 N   0  0  0  0  0  0  0  0  0  0  0  0
  185.6170  178.7540  139.7150 C   0  0  0  0  0  0  0  0  0  0  0  0
  186.6090  179.1460  141.9640 O   0  0  0  0  0  1  0  0  0  0  0  0
  184.3520  178.3560  139.3320 C   0  0  0  0  0  0  0  0  0  0  0  0
  183.5480  178.3050  140.3820 N   0  0  0  0  0  0  0  0  0  0  0  0
  181.8710  175.7970  138.5360 N   0  0  0  0  0  2  0  0  0  0  0  0
  189.1560  177.6900  138.5340 C   0  0  0  0  0  0  0  0  0  0  0  0
  189.6580  177.2970  140.5770 C   0  0  0  0  0  0  0  0  0  0  0  0
  190.1920  177.2480  139.3940 N   0  0  0  0  0  0  0  0  0  0  0  0
  186.7980  178.6050  138.9190 N   0  0  0  0  0  2  0  0  0  0  0  0
  189.3380  178.0590  137.2950 C   0  0  0  0  0  0  0  0  0  0  0  0
  189.5100  178.4080  136.1200 O   0  0  0  0  0  0  0  0  0  0  0  0
  188.3090  177.7850  140.6040 N   0  0  0  0  0  0  0  0  0  0  0  0
  188.0210  178.0100  139.3670 C   0  0  0  0  0  0  0  0  0  0  0  0
  191.0270  175.7730  143.4700 N   0  0  0  0  0  0  0  0  0  0  0  0
  190.2040  175.7570  142.4380 N   0  0  0  0  0  0  0  0  0  0  0  0
  191.6970  176.9420  143.4320 C   0  0  0  0  0  3  0  0  0  0  0  0
  190.3870  176.9180  141.7900 C   0  0  0  0  0  0  0  0  0  0  0  0
  191.3160  177.6930  142.3790 N   0  0  0  0  0  2  0  0  0  0  0  0
  182.0590  175.2700  137.3030 O   0  0  0  0  0  0  0  0  0  0  0  0
  182.1890  173.8950  137.5150 C   0  0  0  0  0  1  0  0  0  0  0  0
  183.8030  178.3290  142.8810 C   0  0  0  0  0  2  0  0  0  0  0  0
  183.8660  179.5360  143.6850 N   0  0  0  0  0  2  0  0  0  0  0  0
  183.9230  179.1120  145.0730 C   0  0  0  0  0  2  0  0  0  0  0  0
  185.3660  179.0830  145.5520 C   0  0  0  0  0  2  0  0  0  0  0  0
  185.7460  177.7050  146.0830 C   0  0  0  0  0  2  0  0  0  0  0  0
  187.5190  178.0090  147.9050 C   0  0  0  0  0  3  0  0  0  0  0  0
  189.5270  177.7460  146.4750 C   0  0  0  0  0  2  0  0  0  0  0  0
  187.1250  177.6930  146.5490 N   0  0  0  0  0  0  0  0  0  0  0  0
  189.0540  177.9690  147.9160 C   0  0  0  0  0  3  0  0  0  0  0  0
  188.2670  177.5760  145.7290 C   0  0  0  0  0  0  0  0  0  0  0  0
  188.2090  177.3670  144.4890 O   0  0  0  0  0  0  0  0  0  0  0  0
  1  4  1  0  0  0  0
  1  8  1  0  0  0  0
  2  3  2  0  0  0  0
  2  7  1  0  0  0  0
  3 26  1  0  0  0  0
  4  5  2  0  0  0  0
  5  9  1  0  0  0  0
  6  2  1  0  0  0  0
  8  6  2  0  0  0  0
  8  9  1  0  0  0  0
  9  3  1  0  0  0  0
 10  4  1  0  0  0  0
 11 18  1  0  0  0  0
 11 13  1  0  0  0  0
 12 17  1  0  0  0  0
 12 22  1  0  0  0  0
 13 12  2  0  0  0  0
 14 18  1  0  0  0  0
 14  6  1  0  0  0  0
 15 11  2  0  0  0  0
 16 15  2  0  0  0  0
 18 17  2  0  0  0  0
 20 19  1  0  0  0  0
 21 19  2  0  0  0  0
 22 23  1  0  0  0  0
 22 20  2  0  0  0  0
 23 21  1  0  0  0  0
 24 25  1  0  0  0  0
 24 10  1  0  0  0  0
 26 27  1  0  0  0  0
 27 28  1  0  0  0  0
 28 29  1  0  0  0  0
 29 30  1  0  0  0  0
 30 33  1  0  0  0  0
 31 34  2  0  0  0  0
 32 34  1  0  0  0  0
 33 31  1  0  0  0  0
 35 32  1  0  0  0  0
 35 33  1  0  0  0  0
 36 35  2  0  0  0  0
M  END
>  <MODEL>
1

>  <REMARK>
 VINA RESULT:      -8.2      0.000      0.000
  Name = 
  9 active torsions:
  status: ('A' for Active; 'I' for Inactive)
    1  A    between atoms: O_3  and  N_33
    2  A    between atoms: C_6  and  N_13
    3  A    between atoms: C_6  and  C_34
    4  A    between atoms: C_9  and  C_32
    5  A    between atoms: C_10  and  C_19
    6  A    between atoms: C_17  and  N_20
    7  A    between atoms: C_21  and  N_28
    8  A    between atoms: C_21  and  C_34
    9  A    between atoms: N_28  and  C_32
                            x       y       z     vdW  Elec       q    Type
                         _______ _______ _______ _____ _____    ______ ____

>  <TORSDO>
F 9

$$$$
=
 OpenBabel10222419403D

 36 40  0  0  0  0  0  0  0  0999 V2000
  182.2950  175.8140  138.3240 C   0  0  0  0  0  2  0  0  0  0  0  0
  184.6090  178.4400  139.1310 C   0  0  0  0  0  0  0  0  0  0  0  0
  185.1170  177.7680  138.0280 C   0  0  0  0  0  0  0  0  0  0  0  0
  182.8160  175.5190  136.9320 C   0  0  0  0  0  0  0  0  0  0  0  0
  183.9910  176.0180  136.7000 N   0  0  0  0  0  0  0  0  0  0  0  0
  183.5630  177.6720  139.6450 C   0  0  0  0  0  0  0  0  0  0  0  0
  184.9750  179.7190  139.5320 O   0  0  0  0  0  1  0  0  0  0  0  0
  183.4750  176.5770  138.8110 C   0  0  0  0  0  0  0  0  0  0  0  0
  184.4090  176.6350  137.8750 N   0  0  0  0  0  0  0  0  0  0  0  0
  182.0830  174.8090  135.9330 N   0  0  0  0  0  2  0  0  0  0  0  0
  181.7580  179.1060  142.7660 C   0  0  0  0  0  0  0  0  0  0  0  0
  183.5430  178.7500  143.8920 C   0  0  0  0  0  0  0  0  0  0  0  0
  182.3430  179.2190  144.0530 N   0  0  0  0  0  0  0  0  0  0  0  0
  182.5340  178.1010  140.5450 N   0  0  0  0  0  2  0  0  0  0  0  0
  180.4780  179.2020  142.5320 C   0  0  0  0  0  0  0  0  0  0  0  0
  179.2640  179.2940  142.3080 O   0  0  0  0  0  0  0  0  0  0  0  0
  183.8280  178.2760  142.5680 N   0  0  0  0  0  0  0  0  0  0  0  0
  182.7470  178.5040  141.9020 C   0  0  0  0  0  0  0  0  0  0  0  0
  185.3320  178.7530  146.9520 N   0  0  0  0  0  0  0  0  0  0  0  0
  184.2120  178.9130  146.2710 N   0  0  0  0  0  0  0  0  0  0  0  0
  186.2960  178.4220  146.0720 C   0  0  0  0  0  3  0  0  0  0  0  0
  184.5160  178.6770  144.9850 C   0  0  0  0  0  0  0  0  0  0  0  0
  185.8140  178.3640  144.8130 N   0  0  0  0  0  2  0  0  0  0  0  0
  180.8510  174.3090  136.1890 O   0  0  0  0  0  0  0  0  0  0  0  0
  179.9740  175.1290  135.4760 C   0  0  0  0  0  1  0  0  0  0  0  0
  185.9910  178.3680  136.9780 C   0  0  0  0  0  2  0  0  0  0  0  0
  187.3280  178.5690  137.5070 N   0  0  0  0  0  2  0  0  0  0  0  0
  188.0610  177.3380  137.2700 C   0  0  0  0  0  2  0  0  0  0  0  0
  189.1680  177.1820  138.3010 C   0  0  0  0  0  2  0  0  0  0  0  0
  189.0690  178.2500  139.3850 C   0  0  0  0  0  2  0  0  0  0  0  0
  190.2990  176.7790  141.0820 C   0  0  0  0  0  3  0  0  0  0  0  0
  188.6170  176.8760  142.9000 C   0  0  0  0  0  2  0  0  0  0  0  0
  189.2130  177.6600  140.7070 N   0  0  0  0  0  0  0  0  0  0  0  0
  189.9950  176.3230  142.5160 C   0  0  0  0  0  3  0  0  0  0  0  0
  188.2410  177.6880  141.7290 C   0  0  0  0  0  0  0  0  0  0  0  0
  187.1600  178.3260  141.6360 O   0  0  0  0  0  0  0  0  0  0  0  0
  1  8  1  0  0  0  0
  2  7  1  0  0  0  0
  2  6  1  0  0  0  0
  3  2  2  0  0  0  0
  4  1  1  0  0  0  0
  5  4  2  0  0  0  0
  5  9  1  0  0  0  0
  6 14  1  0  0  0  0
  8  6  2  0  0  0  0
  9  3  1  0  0  0  0
  9  8  1  0  0  0  0
 10 24  1  0  0  0  0
 10  4  1  0  0  0  0
 11 13  1  0  0  0  0
 12 13  2  0  0  0  0
 12 22  1  0  0  0  0
 14 18  1  0  0  0  0
 15 11  2  0  0  0  0
 16 15  2  0  0  0  0
 17 12  1  0  0  0  0
 18 17  2  0  0  0  0
 18 11  1  0  0  0  0
 20 19  1  0  0  0  0
 21 19  2  0  0  0  0
 22 20  2  0  0  0  0
 23 22  1  0  0  0  0
 23 21  1  0  0  0  0
 25 24  1  0  0  0  0
 26 27  1  0  0  0  0
 26  3  1  0  0  0  0
 28 27  1  0  0  0  0
 28 29  1  0  0  0  0
 29 30  1  0  0  0  0
 30 33  1  0  0  0  0
 31 34  2  0  0  0  0
 33 31  1  0  0  0  0
 33 35  1  0  0  0  0
 34 32  1  0  0  0  0
 35 32  1  0  0  0  0
 36 35  2  0  0  0  0
M  END
>  <MODEL>
2

>  <REMARK>
 VINA RESULT:      -8.1      2.191      6.107
  Name = 
  9 active torsions:
  status: ('A' for Active; 'I' for Inactive)
    1  A    between atoms: O_3  and  N_33
    2  A    between atoms: C_6  and  N_13
    3  A    between atoms: C_6  and  C_34
    4  A    between atoms: C_9  and  C_32
    5  A    between atoms: C_10  and  C_19
    6  A    between atoms: C_17  and  N_20
    7  A    between atoms: C_21  and  N_28
    8  A    between atoms: C_21  and  C_34
    9  A    between atoms: N_28  and  C_32
                            x       y       z     vdW  Elec       q    Type
                         _______ _______ _______ _____ _____    ______ ____

>  <TORSDO>
F 9

$$$$
=
 OpenBabel10222419403D

 36 40  0  0  0  0  0  0  0  0999 V2000
  187.1450  177.1890  137.0570 C   0  0  0  0  0  2  0  0  0  0  0  0
  189.9210  176.9120  139.3190 C   0  0  0  0  0  0  0  0  0  0  0  0
  189.0590  177.8670  139.8400 C   0  0  0  0  0  0  0  0  0  0  0  0
  186.2060  177.9250  137.9920 C   0  0  0  0  0  0  0  0  0  0  0  0
  186.7990  178.4380  139.0250 N   0  0  0  0  0  0  0  0  0  0  0  0
  189.5110  176.6440  138.0120 C   0  0  0  0  0  0  0  0  0  0  0  0
  190.9000  176.2360  140.0370 O   0  0  0  0  0  1  0  0  0  0  0  0
  188.4010  177.4400  137.8120 C   0  0  0  0  0  0  0  0  0  0  0  0
  188.1580  178.1700  138.8880 N   0  0  0  0  0  0  0  0  0  0  0  0
  184.7940  178.0140  137.8060 N   0  0  0  0  0  2  0  0  0  0  0  0
  191.5870  174.0320  136.0320 C   0  0  0  0  0  0  0  0  0  0  0  0
  193.1880  175.4490  135.9530 C   0  0  0  0  0  0  0  0  0  0  0  0
  192.9070  174.2430  135.5610 N   0  0  0  0  0  0  0  0  0  0  0  0
  189.8630  175.5130  137.2080 N   0  0  0  0  0  2  0  0  0  0  0  0
  190.8100  173.0640  135.6290 C   0  0  0  0  0  0  0  0  0  0  0  0
  190.0730  172.1450  135.2470 O   0  0  0  0  0  0  0  0  0  0  0  0
  192.1240  176.1170  136.6450 N   0  0  0  0  0  0  0  0  0  0  0  0
  191.1710  175.2490  136.6900 C   0  0  0  0  0  0  0  0  0  0  0  0
  195.9400  177.6130  135.3950 N   0  0  0  0  0  0  0  0  0  0  0  0
  194.6660  177.4180  135.6820 N   0  0  0  0  0  0  0  0  0  0  0  0
  196.5050  176.4020  135.2210 C   0  0  0  0  0  3  0  0  0  0  0  0
  194.4770  176.0890  135.6780 C   0  0  0  0  0  0  0  0  0  0  0  0
  195.6050  175.4110  135.3930 N   0  0  0  0  0  2  0  0  0  0  0  0
  184.1900  177.4580  136.7290 O   0  0  0  0  0  0  0  0  0  0  0  0
  183.3100  176.5100  137.2580 C   0  0  0  0  0  1  0  0  0  0  0  0
  188.9020  178.1910  141.2880 C   0  0  0  0  0  2  0  0  0  0  0  0
  188.3310  177.0550  141.9880 N   0  0  0  0  0  2  0  0  0  0  0  0
  187.3560  177.5870  142.9230 C   0  0  0  0  0  2  0  0  0  0  0  0
  187.4810  176.8820  144.2650 C   0  0  0  0  0  2  0  0  0  0  0  0
  187.9690  177.8360  145.3490 C   0  0  0  0  0  2  0  0  0  0  0  0
  190.3860  177.0850  144.9630 C   0  0  0  0  0  3  0  0  0  0  0  0
  190.9870  176.6390  147.3270 C   0  0  0  0  0  2  0  0  0  0  0  0
  189.2840  177.4420  145.8310 N   0  0  0  0  0  0  0  0  0  0  0  0
  191.5270  176.6460  145.8920 C   0  0  0  0  0  3  0  0  0  0  0  0
  189.6150  177.1560  147.1720 C   0  0  0  0  0  0  0  0  0  0  0  0
  188.8130  177.3110  148.1300 O   0  0  0  0  0  0  0  0  0  0  0  0
  1  8  1  0  0  0  0
  1  4  1  0  0  0  0
  2  3  2  0  0  0  0
  2  7  1  0  0  0  0
  3 26  1  0  0  0  0
  4  5  2  0  0  0  0
  6  2  1  0  0  0  0
  8  6  2  0  0  0  0
  8  9  1  0  0  0  0
  9  5  1  0  0  0  0
  9  3  1  0  0  0  0
 10  4  1  0  0  0  0
 11 18  1  0  0  0  0
 12 17  1  0  0  0  0
 13 12  2  0  0  0  0
 13 11  1  0  0  0  0
 14  6  1  0  0  0  0
 15 11  2  0  0  0  0
 16 15  2  0  0  0  0
 17 18  2  0  0  0  0
 18 14  1  0  0  0  0
 19 20  1  0  0  0  0
 21 23  1  0  0  0  0
 21 19  2  0  0  0  0
 22 20  2  0  0  0  0
 22 12  1  0  0  0  0
 23 22  1  0  0  0  0
 24 25  1  0  0  0  0
 24 10  1  0  0  0  0
 26 27  1  0  0  0  0
 27 28  1  0  0  0  0
 28 29  1  0  0  0  0
 29 30  1  0  0  0  0
 30 33  1  0  0  0  0
 31 33  1  0  0  0  0
 31 34  2  0  0  0  0
 33 35  1  0  0  0  0
 34 32  1  0  0  0  0
 35 32  1  0  0  0  0
 35 36  2  0  0  0  0
M  END
>  <MODEL>
3

>  <REMARK>
 VINA RESULT:      -8.0      3.758      5.271
  Name = 
  9 active torsions:
  status: ('A' for Active; 'I' for Inactive)
    1  A    between atoms: O_3  and  N_33
    2  A    between atoms: C_6  and  N_13
    3  A    between atoms: C_6  and  C_34
    4  A    between atoms: C_9  and  C_32
    5  A    between atoms: C_10  and  C_19
    6  A    between atoms: C_17  and  N_20
    7  A    between atoms: C_21  and  N_28
    8  A    between atoms: C_21  and  C_34
    9  A    between atoms: N_28  and  C_32
                            x       y       z     vdW  Elec       q    Type
                         _______ _______ _______ _____ _____    ______ ____

>  <TORSDO>
F 9

$$$$
=
 OpenBabel10222419403D

 36 40  0  0  0  0  0  0  0  0999 V2000
  184.7240  178.7550  143.0380 C   0  0  0  0  0  2  0  0  0  0  0  0
  185.1180  178.6280  139.4690 C   0  0  0  0  0  0  0  0  0  0  0  0
  186.3860  178.5420  140.0270 C   0  0  0  0  0  0  0  0  0  0  0  0
  186.1050  178.2510  143.4030 C   0  0  0  0  0  0  0  0  0  0  0  0
  186.9490  178.2880  142.4180 N   0  0  0  0  0  0  0  0  0  0  0  0
  184.2360  178.9980  140.4860 C   0  0  0  0  0  0  0  0  0  0  0  0
  184.7810  178.2470  138.1760 O   0  0  0  0  0  1  0  0  0  0  0  0
  185.0150  179.1000  141.6210 C   0  0  0  0  0  0  0  0  0  0  0  0
  186.2820  178.8490  141.3330 N   0  0  0  0  0  0  0  0  0  0  0  0
  186.4580  177.7290  144.6840 N   0  0  0  0  0  2  0  0  0  0  0  0
  180.5160  179.3140  139.4310 C   0  0  0  0  0  0  0  0  0  0  0  0
  181.0690  180.9620  138.1820 C   0  0  0  0  0  0  0  0  0  0  0  0
  180.0160  180.2810  138.5240 N   0  0  0  0  0  0  0  0  0  0  0  0
  182.8090  178.8810  140.4810 N   0  0  0  0  0  2  0  0  0  0  0  0
  179.7680  178.6020  140.2290 C   0  0  0  0  0  0  0  0  0  0  0  0
  179.0590  177.9250  140.9850 O   0  0  0  0  0  0  0  0  0  0  0  0
  182.2820  180.5500  138.8270 N   0  0  0  0  0  0  0  0  0  0  0  0
  181.9330  179.5550  139.5700 C   0  0  0  0  0  0  0  0  0  0  0  0
  180.8030  183.1570  135.4120 N   0  0  0  0  0  2  0  0  0  0  0  0
  180.7760  181.9420  135.9270 N   0  0  0  0  0  0  0  0  0  0  0  0
  181.0560  184.0160  136.4190 C   0  0  0  0  0  3  0  0  0  0  0  0
  181.0140  182.0820  137.2400 C   0  0  0  0  0  0  0  0  0  0  0  0
  181.1960  183.3680  137.5940 N   0  0  0  0  0  0  0  0  0  0  0  0
  185.5590  177.6840  145.6960 O   0  0  0  0  0  0  0  0  0  0  0  0
  186.0220  178.6110  146.6310 C   0  0  0  0  0  1  0  0  0  0  0  0
  187.5570  177.8540  139.4110 C   0  0  0  0  0  2  0  0  0  0  0  0
  188.6600  178.7880  139.2720 N   0  0  0  0  0  2  0  0  0  0  0  0
  189.8820  178.0160  139.4210 C   0  0  0  0  0  2  0  0  0  0  0  0
  189.7790  177.1040  140.6340 C   0  0  0  0  0  2  0  0  0  0  0  0
  191.0620  177.1280  141.4550 C   0  0  0  0  0  2  0  0  0  0  0  0
  190.2340  178.5000  143.4520 C   0  0  0  0  0  3  0  0  0  0  0  0
  190.8280  176.8910  145.2420 C   0  0  0  0  0  2  0  0  0  0  0  0
  190.7670  177.2860  142.8720 N   0  0  0  0  0  0  0  0  0  0  0  0
  190.1790  178.2530  144.9670 C   0  0  0  0  0  3  0  0  0  0  0  0
  191.1350  176.3850  143.8930 C   0  0  0  0  0  0  0  0  0  0  0  0
  191.6850  175.2750  143.6690 O   0  0  0  0  0  0  0  0  0  0  0  0
  1  4  1  0  0  0  0
  2  3  2  0  0  0  0
  2  6  1  0  0  0  0
  3  9  1  0  0  0  0
  4 10  1  0  0  0  0
  5  4  2  0  0  0  0
  6  8  2  0  0  0  0
  7  2  1  0  0  0  0
  8  1  1  0  0  0  0
  9  8  1  0  0  0  0
  9  5  1  0  0  0  0
 10 24  1  0  0  0  0
 11 18  1  0  0  0  0
 11 15  2  0  0  0  0
 12 13  2  0  0  0  0
 12 17  1  0  0  0  0
 13 11  1  0  0  0  0
 14  6  1  0  0  0  0
 15 16  2  0  0  0  0
 17 18  2  0  0  0  0
 18 14  1  0  0  0  0
 19 20  1  0  0  0  0
 19 21  1  0  0  0  0
 20 22  2  0  0  0  0
 21 23  2  0  0  0  0
 22 23  1  0  0  0  0
 22 12  1  0  0  0  0
 24 25  1  0  0  0  0
 26  3  1  0  0  0  0
 27 26  1  0  0  0  0
 27 28  1  0  0  0  0
 28 29  1  0  0  0  0
 29 30  1  0  0  0  0
 30 33  1  0  0  0  0
 31 34  2  0  0  0  0
 33 31  1  0  0  0  0
 33 35  1  0  0  0  0
 34 32  1  0  0  0  0
 35 32  1  0  0  0  0
 36 35  2  0  0  0  0
M  END
>  <MODEL>
4

>  <REMARK>
 VINA RESULT:      -8.0      3.380      7.915
  Name = 
  9 active torsions:
  status: ('A' for Active; 'I' for Inactive)
    1  A    between atoms: O_3  and  N_33
    2  A    between atoms: C_6  and  N_13
    3  A    between atoms: C_6  and  C_34
    4  A    between atoms: C_9  and  C_32
    5  A    between atoms: C_10  and  C_19
    6  A    between atoms: C_17  and  N_20
    7  A    between atoms: C_21  and  N_28
    8  A    between atoms: C_21  and  C_34
    9  A    between atoms: N_28  and  C_32
                            x       y       z     vdW  Elec       q    Type
                         _______ _______ _______ _____ _____    ______ ____

>  <TORSDO>
F 9

$$$$
=
 OpenBabel10222419403D

 36 40  0  0  0  0  0  0  0  0999 V2000
  186.9530  177.8640  138.2060 C   0  0  0  0  0  2  0  0  0  0  0  0
  189.7890  176.8930  140.1870 C   0  0  0  0  0  0  0  0  0  0  0  0
  189.1120  177.8780  140.8920 C   0  0  0  0  0  0  0  0  0  0  0  0
  186.1940  178.5890  139.2990 C   0  0  0  0  0  0  0  0  0  0  0  0
  186.9190  178.8670  140.3390 N   0  0  0  0  0  0  0  0  0  0  0  0
  189.2650  176.8670  138.8930 C   0  0  0  0  0  0  0  0  0  0  0  0
  190.6970  175.9930  140.7320 O   0  0  0  0  0  1  0  0  0  0  0  0
  188.2760  177.8300  138.8840 C   0  0  0  0  0  0  0  0  0  0  0  0
  188.2110  178.4330  140.0610 N   0  0  0  0  0  0  0  0  0  0  0  0
  184.8020  178.9000  139.2400 N   0  0  0  0  0  2  0  0  0  0  0  0
  190.7130  173.9290  136.8120 C   0  0  0  0  0  0  0  0  0  0  0  0
  192.6710  174.5320  137.4310 C   0  0  0  0  0  0  0  0  0  0  0  0
  192.0930  173.6260  136.7000 N   0  0  0  0  0  0  0  0  0  0  0  0
  189.3940  175.8180  137.9260 N   0  0  0  0  0  2  0  0  0  0  0  0
  189.7900  173.4480  136.0250 C   0  0  0  0  0  0  0  0  0  0  0  0
  188.9140  172.9920  135.2780 O   0  0  0  0  0  0  0  0  0  0  0  0
  191.7760  175.4820  138.0250 N   0  0  0  0  0  0  0  0  0  0  0  0
  190.6020  175.1020  137.6480 C   0  0  0  0  0  0  0  0  0  0  0  0
  196.1480  175.2160  137.3510 N   0  0  0  0  0  2  0  0  0  0  0  0
  194.9170  175.4480  136.9330 N   0  0  0  0  0  0  0  0  0  0  0  0
  196.0840  174.2300  138.2680 C   0  0  0  0  0  3  0  0  0  0  0  0
  194.1240  174.5980  137.6040 C   0  0  0  0  0  0  0  0  0  0  0  0
  194.8140  173.8140  138.4540 N   0  0  0  0  0  0  0  0  0  0  0  0
  184.0580  178.5880  138.1520 O   0  0  0  0  0  0  0  0  0  0  0  0
  182.7340  178.6540  138.5910 C   0  0  0  0  0  1  0  0  0  0  0  0
  189.0930  178.0200  142.3760 C   0  0  0  0  0  2  0  0  0  0  0  0
  190.4450  178.2140  142.8690 N   0  0  0  0  0  2  0  0  0  0  0  0
  190.5800  177.3870  144.0560 C   0  0  0  0  0  2  0  0  0  0  0  0
  189.9130  178.0640  145.2430 C   0  0  0  0  0  2  0  0  0  0  0  0
  189.0730  177.0770  146.0440 C   0  0  0  0  0  2  0  0  0  0  0  0
  186.7860  177.6530  145.0470 C   0  0  0  0  0  3  0  0  0  0  0  0
  185.7670  178.6420  147.0790 C   0  0  0  0  0  2  0  0  0  0  0  0
  187.6990  177.5440  146.1640 N   0  0  0  0  0  0  0  0  0  0  0  0
  185.5020  178.2760  145.6140 C   0  0  0  0  0  3  0  0  0  0  0  0
  187.1320  178.1370  147.3110 C   0  0  0  0  0  0  0  0  0  0  0  0
  187.7390  178.2370  148.4090 O   0  0  0  0  0  0  0  0  0  0  0  0
  1  8  1  0  0  0  0
  1  4  1  0  0  0  0
  2  7  1  0  0  0  0
  2  3  2  0  0  0  0
  3 26  1  0  0  0  0
  4  5  2  0  0  0  0
  6  2  1  0  0  0  0
  8  6  2  0  0  0  0
  8  9  1  0  0  0  0
  9  5  1  0  0  0  0
  9  3  1  0  0  0  0
 10  4  1  0  0  0  0
 11 18  1  0  0  0  0
 12 22  1  0  0  0  0
 12 17  1  0  0  0  0
 13 11  1  0  0  0  0
 13 12  2  0  0  0  0
 14  6  1  0  0  0  0
 15 11  2  0  0  0  0
 16 15  2  0  0  0  0
 18 14  1  0  0  0  0
 18 17  2  0  0  0  0
 19 21  1  0  0  0  0
 20 19  1  0  0  0  0
 20 22  2  0  0  0  0
 21 23  2  0  0  0  0
 22 23  1  0  0  0  0
 24 25  1  0  0  0  0
 24 10  1  0  0  0  0
 26 27  1  0  0  0  0
 27 28  1  0  0  0  0
 28 29  1  0  0  0  0
 29 30  1  0  0  0  0
 30 33  1  0  0  0  0
 31 34  2  0  0  0  0
 31 33  1  0  0  0  0
 32 35  1  0  0  0  0
 33 35  1  0  0  0  0
 34 32  1  0  0  0  0
 35 36  2  0  0  0  0
M  END
>  <MODEL>
5

>  <REMARK>
 VINA RESULT:      -7.9      3.423      4.958
  Name = 
  9 active torsions:
  status: ('A' for Active; 'I' for Inactive)
    1  A    between atoms: O_3  and  N_33
    2  A    between atoms: C_6  and  N_13
    3  A    between atoms: C_6  and  C_34
    4  A    between atoms: C_9  and  C_32
    5  A    between atoms: C_10  and  C_19
    6  A    between atoms: C_17  and  N_20
    7  A    between atoms: C_21  and  N_28
    8  A    between atoms: C_21  and  C_34
    9  A    between atoms: N_28  and  C_32
                            x       y       z     vdW  Elec       q    Type
                         _______ _______ _______ _____ _____    ______ ____

>  <TORSDO>
F 9

$$$$
=
 OpenBabel10222419403D

 36 40  0  0  0  0  0  0  0  0999 V2000
  184.7700  178.2640  140.2030 C   0  0  0  0  0  2  0  0  0  0  0  0
  182.3480  179.0800  142.7270 C   0  0  0  0  0  0  0  0  0  0  0  0
  183.5710  178.9250  143.3650 C   0  0  0  0  0  0  0  0  0  0  0  0
  186.0100  178.5450  141.0280 C   0  0  0  0  0  0  0  0  0  0  0  0
  185.7790  178.6280  142.3010 N   0  0  0  0  0  0  0  0  0  0  0  0
  182.4890  178.5970  141.4250 C   0  0  0  0  0  0  0  0  0  0  0  0
  181.2480  179.7490  143.2490 O   0  0  0  0  0  1  0  0  0  0  0  0
  183.8050  178.1900  141.3310 C   0  0  0  0  0  0  0  0  0  0  0  0
  184.4250  178.3690  142.4860 N   0  0  0  0  0  0  0  0  0  0  0  0
  187.3100  178.7560  140.4770 N   0  0  0  0  0  2  0  0  0  0  0  0
  180.0170  178.0720  138.4810 C   0  0  0  0  0  0  0  0  0  0  0  0
  180.5830  176.0090  138.4480 C   0  0  0  0  0  0  0  0  0  0  0  0
  179.7940  176.8340  137.8280 N   0  0  0  0  0  0  0  0  0  0  0  0
  181.6300  178.8520  140.3080 N   0  0  0  0  0  2  0  0  0  0  0  0
  179.6410  179.2290  138.0070 C   0  0  0  0  0  0  0  0  0  0  0  0
  179.2850  180.3260  137.5590 O   0  0  0  0  0  0  0  0  0  0  0  0
  181.3800  176.6040  139.4810 N   0  0  0  0  0  0  0  0  0  0  0  0
  181.0220  177.8440  139.4930 C   0  0  0  0  0  0  0  0  0  0  0  0
  180.2840  172.4950  138.0820 N   0  0  0  0  0  0  0  0  0  0  0  0
  179.9150  173.6320  138.6450 N   0  0  0  0  0  0  0  0  0  0  0  0
  181.2620  172.7800  137.2000 C   0  0  0  0  0  3  0  0  0  0  0  0
  180.6780  174.5900  138.0940 C   0  0  0  0  0  0  0  0  0  0  0  0
  181.5380  174.1000  137.1820 N   0  0  0  0  0  2  0  0  0  0  0  0
  187.5290  178.6810  139.1430 O   0  0  0  0  0  0  0  0  0  0  0  0
  188.9170  178.6020  139.0090 C   0  0  0  0  0  1  0  0  0  0  0  0
  183.9800  179.6080  144.6260 C   0  0  0  0  0  2  0  0  0  0  0  0
  184.2580  178.6190  145.6530 N   0  0  0  0  0  2  0  0  0  0  0  0
  185.5690  178.9340  146.1930 C   0  0  0  0  0  2  0  0  0  0  0  0
  186.4450  177.6910  146.1920 C   0  0  0  0  0  2  0  0  0  0  0  0
  187.5720  177.8080  145.1720 C   0  0  0  0  0  2  0  0  0  0  0  0
  189.0880  177.2400  147.1550 C   0  0  0  0  0  3  0  0  0  0  0  0
  191.1660  176.7930  145.8790 C   0  0  0  0  0  2  0  0  0  0  0  0
  188.8300  177.3410  145.7340 N   0  0  0  0  0  0  0  0  0  0  0  0
  190.5560  176.8070  147.2850 C   0  0  0  0  0  3  0  0  0  0  0  0
  190.0200  177.1190  145.0110 C   0  0  0  0  0  0  0  0  0  0  0  0
  190.0940  177.2090  143.7580 O   0  0  0  0  0  0  0  0  0  0  0  0
  1  4  1  0  0  0  0
  1  8  1  0  0  0  0
  2  7  1  0  0  0  0
  2  3  2  0  0  0  0
  3 26  1  0  0  0  0
  4  5  2  0  0  0  0
  5  9  1  0  0  0  0
  6  2  1  0  0  0  0
  8  6  2  0  0  0  0
  8  9  1  0  0  0  0
  9  3  1  0  0  0  0
 10  4  1  0  0  0  0
 11 18  1  0  0  0  0
 12 17  1  0  0  0  0
 13 12  2  0  0  0  0
 13 11  1  0  0  0  0
 14  6  1  0  0  0  0
 15 11  2  0  0  0  0
 16 15  2  0  0  0  0
 17 18  2  0  0  0  0
 18 14  1  0  0  0  0
 19 20  1  0  0  0  0
 21 19  2  0  0  0  0
 22 12  1  0  0  0  0
 22 20  2  0  0  0  0
 23 21  1  0  0  0  0
 23 22  1  0  0  0  0
 24 10  1  0  0  0  0
 25 24  1  0  0  0  0
 26 27  1  0  0  0  0
 27 28  1  0  0  0  0
 29 28  1  0  0  0  0
 30 33  1  0  0  0  0
 30 29  1  0  0  0  0
 31 34  2  0  0  0  0
 32 34  1  0  0  0  0
 33 31  1  0  0  0  0
 35 33  1  0  0  0  0
 35 32  1  0  0  0  0
 36 35  2  0  0  0  0
M  END
>  <MODEL>
6

>  <REMARK>
 VINA RESULT:      -7.9      2.341      6.712
  Name = 
  9 active torsions:
  status: ('A' for Active; 'I' for Inactive)
    1  A    between atoms: O_3  and  N_33
    2  A    between atoms: C_6  and  N_13
    3  A    between atoms: C_6  and  C_34
    4  A    between atoms: C_9  and  C_32
    5  A    between atoms: C_10  and  C_19
    6  A    between atoms: C_17  and  N_20
    7  A    between atoms: C_21  and  N_28
    8  A    between atoms: C_21  and  C_34
    9  A    between atoms: N_28  and  C_32
                            x       y       z     vdW  Elec       q    Type
                         _______ _______ _______ _____ _____    ______ ____

>  <TORSDO>
F 9

$$$$
=
 OpenBabel10222419403D

 36 40  0  0  0  0  0  0  0  0999 V2000
  185.5000  178.3330  141.1370 C   0  0  0  0  0  2  0  0  0  0  0  0
  184.1490  178.6880  144.4470 C   0  0  0  0  0  0  0  0  0  0  0  0
  185.4740  178.2980  144.5830 C   0  0  0  0  0  0  0  0  0  0  0  0
  186.9640  178.3180  141.5270 C   0  0  0  0  0  0  0  0  0  0  0  0
  187.1630  178.1080  142.7920 N   0  0  0  0  0  0  0  0  0  0  0  0
  183.7980  178.5240  143.1060 C   0  0  0  0  0  0  0  0  0  0  0  0
  183.3830  179.2890  145.4380 O   0  0  0  0  0  1  0  0  0  0  0  0
  184.9410  178.0590  142.4880 C   0  0  0  0  0  0  0  0  0  0  0  0
  185.9140  177.9100  143.3720 N   0  0  0  0  0  0  0  0  0  0  0  0
  188.0390  178.5620  140.6200 N   0  0  0  0  0  2  0  0  0  0  0  0
  180.6580  178.9330  140.8640 C   0  0  0  0  0  0  0  0  0  0  0  0
  181.2220  177.1380  139.8450 C   0  0  0  0  0  0  0  0  0  0  0  0
  180.2900  178.0430  139.8250 N   0  0  0  0  0  0  0  0  0  0  0  0
  182.6770  179.1010  142.4270 N   0  0  0  0  0  2  0  0  0  0  0  0
  180.1590  180.1290  141.0160 C   0  0  0  0  0  0  0  0  0  0  0  0
  179.6850  181.2640  141.1610 O   0  0  0  0  0  0  0  0  0  0  0  0
  182.2500  177.3600  140.8200 N   0  0  0  0  0  0  0  0  0  0  0  0
  181.8920  178.4400  141.4290 C   0  0  0  0  0  0  0  0  0  0  0  0
  181.7910  174.7610  137.2770 N   0  0  0  0  0  2  0  0  0  0  0  0
  182.0640  175.9120  137.8650 N   0  0  0  0  0  0  0  0  0  0  0  0
  180.8080  174.1700  137.9840 C   0  0  0  0  0  3  0  0  0  0  0  0
  181.2400  176.0010  138.9200 C   0  0  0  0  0  0  0  0  0  0  0  0
  180.4330  174.9300  139.0340 N   0  0  0  0  0  0  0  0  0  0  0  0
  187.8110  178.7940  139.3060 O   0  0  0  0  0  0  0  0  0  0  0  0
  189.0530  178.6260  138.6890 C   0  0  0  0  0  1  0  0  0  0  0  0
  186.3580  178.6260  145.7380 C   0  0  0  0  0  2  0  0  0  0  0  0
  187.1760  177.4740  146.0740 N   0  0  0  0  0  2  0  0  0  0  0  0
  188.5380  177.9580  146.2230 C   0  0  0  0  0  2  0  0  0  0  0  0
  189.4880  176.7890  146.4280 C   0  0  0  0  0  2  0  0  0  0  0  0
  190.8550  177.0710  145.8170 C   0  0  0  0  0  2  0  0  0  0  0  0
  190.4030  175.9440  143.5630 C   0  0  0  0  0  3  0  0  0  0  0  0
  191.1600  177.7940  142.0970 C   0  0  0  0  0  2  0  0  0  0  0  0
  190.7780  177.0900  144.3630 N   0  0  0  0  0  0  0  0  0  0  0  0
  190.5540  176.3860  142.1000 C   0  0  0  0  0  3  0  0  0  0  0  0
  191.2390  178.1300  143.5300 C   0  0  0  0  0  0  0  0  0  0  0  0
  191.6880  179.2200  143.9710 O   0  0  0  0  0  0  0  0  0  0  0  0
  1  4  1  0  0  0  0
  1  8  1  0  0  0  0
  2  3  2  0  0  0  0
  2  7  1  0  0  0  0
  3 26  1  0  0  0  0
  4  5  2  0  0  0  0
  5  9  1  0  0  0  0
  6  2  1  0  0  0  0
  8  6  2  0  0  0  0
  8  9  1  0  0  0  0
  9  3  1  0  0  0  0
 10  4  1  0  0  0  0
 11 15  2  0  0  0  0
 11 18  1  0  0  0  0
 12 17  1  0  0  0  0
 13 12  2  0  0  0  0
 13 11  1  0  0  0  0
 14  6  1  0  0  0  0
 15 16  2  0  0  0  0
 17 18  2  0  0  0  0
 18 14  1  0  0  0  0
 19 20  1  0  0  0  0
 19 21  1  0  0  0  0
 20 22  2  0  0  0  0
 21 23  2  0  0  0  0
 22 23  1  0  0  0  0
 22 12  1  0  0  0  0
 24 10  1  0  0  0  0
 25 24  1  0  0  0  0
 26 27  1  0  0  0  0
 27 28  1  0  0  0  0
 28 29  1  0  0  0  0
 30 29  1  0  0  0  0
 31 33  1  0  0  0  0
 32 34  1  0  0  0  0
 32 35  1  0  0  0  0
 33 30  1  0  0  0  0
 34 31  2  0  0  0  0
 35 36  2  0  0  0  0
 35 33  1  0  0  0  0
M  END
>  <MODEL>
7

>  <REMARK>
 VINA RESULT:      -7.8      2.335      6.995
  Name = 
  9 active torsions:
  status: ('A' for Active; 'I' for Inactive)
    1  A    between atoms: O_3  and  N_33
    2  A    between atoms: C_6  and  N_13
    3  A    between atoms: C_6  and  C_34
    4  A    between atoms: C_9  and  C_32
    5  A    between atoms: C_10  and  C_19
    6  A    between atoms: C_17  and  N_20
    7  A    between atoms: C_21  and  N_28
    8  A    between atoms: C_21  and  C_34
    9  A    between atoms: N_28  and  C_32
                            x       y       z     vdW  Elec       q    Type
                         _______ _______ _______ _____ _____    ______ ____

>  <TORSDO>
F 9

$$$$
=
 OpenBabel10222419403D

 36 40  0  0  0  0  0  0  0  0999 V2000
  187.2720  177.0280  136.8280 C   0  0  0  0  0  2  0  0  0  0  0  0
  190.1120  177.1580  139.0240 C   0  0  0  0  0  0  0  0  0  0  0  0
  189.1780  178.0650  139.5050 C   0  0  0  0  0  0  0  0  0  0  0  0
  186.2920  177.7400  137.7380 C   0  0  0  0  0  0  0  0  0  0  0  0
  186.8580  178.3740  138.7180 N   0  0  0  0  0  0  0  0  0  0  0  0
  189.6990  176.7650  137.7500 C   0  0  0  0  0  0  0  0  0  0  0  0
  191.1650  176.6230  139.7570 O   0  0  0  0  0  1  0  0  0  0  0  0
  188.5170  177.4420  137.5280 C   0  0  0  0  0  0  0  0  0  0  0  0
  188.2320  178.2200  138.5600 N   0  0  0  0  0  0  0  0  0  0  0  0
  184.8730  177.6890  137.5880 N   0  0  0  0  0  2  0  0  0  0  0  0
  191.9710  174.1680  135.9760 C   0  0  0  0  0  0  0  0  0  0  0  0
  193.5100  175.6540  135.8960 C   0  0  0  0  0  0  0  0  0  0  0  0
  193.2990  174.4190  135.5490 N   0  0  0  0  0  0  0  0  0  0  0  0
  190.1350  175.6170  137.0130 N   0  0  0  0  0  2  0  0  0  0  0  0
  191.2570  173.1480  135.5870 C   0  0  0  0  0  0  0  0  0  0  0  0
  190.5780  172.1800  135.2190 O   0  0  0  0  0  0  0  0  0  0  0  0
  192.3880  176.3010  136.5130 N   0  0  0  0  0  0  0  0  0  0  0  0
  191.4740  175.3920  136.5600 C   0  0  0  0  0  0  0  0  0  0  0  0
  196.8660  176.7710  135.6710 N   0  0  0  0  0  0  0  0  0  0  0  0
  195.9660  175.9020  136.0940 N   0  0  0  0  0  0  0  0  0  0  0  0
  196.2140  177.7200  134.9720 C   0  0  0  0  0  3  0  0  0  0  0  0
  194.7790  176.3400  135.6430 C   0  0  0  0  0  0  0  0  0  0  0  0
  194.8880  177.4790  134.9340 N   0  0  0  0  0  2  0  0  0  0  0  0
  184.2990  177.0080  136.5680 O   0  0  0  0  0  0  0  0  0  0  0  0
  183.7340  175.8770  137.1620 C   0  0  0  0  0  1  0  0  0  0  0  0
  189.0250  178.4740  140.9310 C   0  0  0  0  0  2  0  0  0  0  0  0
  188.5650  177.3450  141.7190 N   0  0  0  0  0  2  0  0  0  0  0  0
  189.5360  177.1540  142.7820 C   0  0  0  0  0  2  0  0  0  0  0  0
  188.8340  177.1160  144.1310 C   0  0  0  0  0  2  0  0  0  0  0  0
  187.3540  176.7860  143.9750 C   0  0  0  0  0  2  0  0  0  0  0  0
  186.7460  177.8690  146.2140 C   0  0  0  0  0  3  0  0  0  0  0  0
  184.6610  179.0000  145.4920 C   0  0  0  0  0  2  0  0  0  0  0  0
  186.5380  177.6700  144.7960 N   0  0  0  0  0  0  0  0  0  0  0  0
  185.6070  178.7890  146.6800 C   0  0  0  0  0  3  0  0  0  0  0  0
  185.3350  178.2850  144.3930 C   0  0  0  0  0  0  0  0  0  0  0  0
  184.8800  178.2130  143.2220 O   0  0  0  0  0  0  0  0  0  0  0  0
  1  8  1  0  0  0  0
  1  4  1  0  0  0  0
  2  3  2  0  0  0  0
  2  7  1  0  0  0  0
  3 26  1  0  0  0  0
  4  5  2  0  0  0  0
  6  2  1  0  0  0  0
  8  6  2  0  0  0  0
  8  9  1  0  0  0  0
  9  5  1  0  0  0  0
  9  3  1  0  0  0  0
 10  4  1  0  0  0  0
 11 18  1  0  0  0  0
 12 17  1  0  0  0  0
 13 12  2  0  0  0  0
 13 11  1  0  0  0  0
 14  6  1  0  0  0  0
 15 11  2  0  0  0  0
 16 15  2  0  0  0  0
 17 18  2  0  0  0  0
 18 14  1  0  0  0  0
 19 20  1  0  0  0  0
 21 19  2  0  0  0  0
 22 12  1  0  0  0  0
 22 20  2  0  0  0  0
 23 21  1  0  0  0  0
 23 22  1  0  0  0  0
 24 25  1  0  0  0  0
 24 10  1  0  0  0  0
 26 27  1  0  0  0  0
 27 28  1  0  0  0  0
 28 29  1  0  0  0  0
 30 29  1  0  0  0  0
 30 33  1  0  0  0  0
 31 34  2  0  0  0  0
 32 34  1  0  0  0  0
 33 31  1  0  0  0  0
 35 33  1  0  0  0  0
 35 32  1  0  0  0  0
 36 35  2  0  0  0  0
M  END
>  <MODEL>
8

>  <REMARK>
 VINA RESULT:      -7.8      3.746      5.484
  Name = 
  9 active torsions:
  status: ('A' for Active; 'I' for Inactive)
    1  A    between atoms: O_3  and  N_33
    2  A    between atoms: C_6  and  N_13
    3  A    between atoms: C_6  and  C_34
    4  A    between atoms: C_9  and  C_32
    5  A    between atoms: C_10  and  C_19
    6  A    between atoms: C_17  and  N_20
    7  A    between atoms: C_21  and  N_28
    8  A    between atoms: C_21  and  C_34
    9  A    between atoms: N_28  and  C_32
                            x       y       z     vdW  Elec       q    Type
                         _______ _______ _______ _____ _____    ______ ____

>  <TORSDO>
F 9

$$$$
=
 OpenBabel10222419403D

 36 40  0  0  0  0  0  0  0  0999 V2000
  190.1070  177.3290  145.7870 C   0  0  0  0  0  2  0  0  0  0  0  0
  188.9650  177.7560  142.4080 C   0  0  0  0  0  0  0  0  0  0  0  0
  190.2880  177.3400  142.3460 C   0  0  0  0  0  0  0  0  0  0  0  0
  191.3490  176.5210  145.4700 C   0  0  0  0  0  0  0  0  0  0  0  0
  191.6980  176.5720  144.2220 N   0  0  0  0  0  0  0  0  0  0  0  0
  188.6940  178.1000  143.7330 C   0  0  0  0  0  0  0  0  0  0  0  0
  188.0480  177.6750  141.3670 O   0  0  0  0  0  1  0  0  0  0  0  0
  189.8680  177.8550  144.4170 C   0  0  0  0  0  0  0  0  0  0  0  0
  190.8050  177.4280  143.5850 N   0  0  0  0  0  0  0  0  0  0  0  0
  192.0550  175.7270  146.4230 N   0  0  0  0  0  2  0  0  0  0  0  0
  184.8540  178.3450  144.2250 C   0  0  0  0  0  0  0  0  0  0  0  0
  184.6700  178.7640  142.1340 C   0  0  0  0  0  0  0  0  0  0  0  0
  183.9260  178.6280  143.1910 N   0  0  0  0  0  0  0  0  0  0  0  0
  187.4080  178.2530  144.3430 N   0  0  0  0  0  2  0  0  0  0  0  0
  184.5740  178.4090  145.4980 C   0  0  0  0  0  0  0  0  0  0  0  0
  184.3090  178.4690  146.7060 O   0  0  0  0  0  0  0  0  0  0  0  0
  186.0780  178.6290  142.3720 N   0  0  0  0  0  0  0  0  0  0  0  0
  186.1710  178.3710  143.6330 C   0  0  0  0  0  0  0  0  0  0  0  0
  184.0120  179.6850  138.7750 N   0  0  0  0  0  2  0  0  0  0  0  0
  184.8470  179.5350  139.7870 N   0  0  0  0  0  0  0  0  0  0  0  0
  182.7910  179.3060  139.1990 C   0  0  0  0  0  3  0  0  0  0  0  0
  184.1160  179.0680  140.8120 C   0  0  0  0  0  0  0  0  0  0  0  0
  182.8200  178.9090  140.4880 N   0  0  0  0  0  0  0  0  0  0  0  0
  191.6670  175.6730  147.7190 O   0  0  0  0  0  0  0  0  0  0  0  0
  192.8350  175.8880  148.4550 C   0  0  0  0  0  1  0  0  0  0  0  0
  190.8990  176.5640  141.2280 C   0  0  0  0  0  2  0  0  0  0  0  0
  191.5670  177.4680  140.3100 N   0  0  0  0  0  2  0  0  0  0  0  0
  191.7180  176.7530  139.0540 C   0  0  0  0  0  2  0  0  0  0  0  0
  190.3530  176.3640  138.5090 C   0  0  0  0  0  2  0  0  0  0  0  0
  189.6450  177.5590  137.8820 C   0  0  0  0  0  2  0  0  0  0  0  0
  187.8140  175.8600  137.3190 C   0  0  0  0  0  3  0  0  0  0  0  0
  186.0520  177.4670  136.6450 C   0  0  0  0  0  2  0  0  0  0  0  0
  188.2800  177.2170  137.5120 N   0  0  0  0  0  0  0  0  0  0  0  0
  186.3590  175.9780  136.8440 C   0  0  0  0  0  3  0  0  0  0  0  0
  187.2880  178.1300  137.0960 C   0  0  0  0  0  0  0  0  0  0  0  0
  187.4550  179.3780  137.0970 O   0  0  0  0  0  0  0  0  0  0  0  0
  2  6  1  0  0  0  0
  3  2  2  0  0  0  0
  3  9  1  0  0  0  0
  4  1  1  0  0  0  0
  4 10  1  0  0  0  0
  5  4  2  0  0  0  0
  6 14  1  0  0  0  0
  6  8  2  0  0  0  0
  7  2  1  0  0  0  0
  8  1  1  0  0  0  0
  9  5  1  0  0  0  0
  9  8  1  0  0  0  0
 10 24  1  0  0  0  0
 11 15  2  0  0  0  0
 12 17  1  0  0  0  0
 12 13  2  0  0  0  0
 13 11  1  0  0  0  0
 15 16  2  0  0  0  0
 17 18  2  0  0  0  0
 18 11  1  0  0  0  0
 18 14  1  0  0  0  0
 19 21  1  0  0  0  0
 19 20  1  0  0  0  0
 20 22  2  0  0  0  0
 21 23  2  0  0  0  0
 22 12  1  0  0  0  0
 23 22  1  0  0  0  0
 24 25  1  0  0  0  0
 26  3  1  0  0  0  0
 27 26  1  0  0  0  0
 28 27  1  0  0  0  0
 29 28  1  0  0  0  0
 30 29  1  0  0  0  0
 31 33  1  0  0  0  0
 32 34  1  0  0  0  0
 32 35  1  0  0  0  0
 33 30  1  0  0  0  0
 34 31  2  0  0  0  0
 35 36  2  0  0  0  0
 35 33  1  0  0  0  0
M  END
>  <MODEL>
9

>  <REMARK>
 VINA RESULT:      -7.8      2.353      8.948
  Name = 
  9 active torsions:
  status: ('A' for Active; 'I' for Inactive)
    1  A    between atoms: O_3  and  N_33
    2  A    between atoms: C_6  and  N_13
    3  A    between atoms: C_6  and  C_34
    4  A    between atoms: C_9  and  C_32
    5  A    between atoms: C_10  and  C_19
    6  A    between atoms: C_17  and  N_20
    7  A    between atoms: C_21  and  N_28
    8  A    between atoms: C_21  and  C_34
    9  A    between atoms: N_28  and  C_32
                            x       y       z     vdW  Elec       q    Type
                         _______ _______ _______ _____ _____    ______ ____

>  <TORSDO>
F 9

$$$$
