=
 OpenBabel10222416093D

 26 30  0  0  1  0  0  0  0  0999 V2000
  185.8210  179.3190  141.7380 C   0  0  2  0  0  3  0  0  0  0  0  0
  184.9550  179.6470  142.9560 C   0  0  0  0  0  2  0  0  0  0  0  0
  184.0260  178.4910  143.3060 C   0  0  0  0  0  2  0  0  0  0  0  0
  181.5230  176.1680  138.6480 C   0  0  0  0  0  2  0  0  0  0  0  0
  183.7580  177.3210  138.5220 C   0  0  0  0  0  0  0  0  0  0  0  0
  185.0460  178.6630  140.6290 C   0  0  0  0  0  0  0  0  0  0  0  0
  183.7670  178.0400  140.8970 N   0  0  0  0  0  0  0  0  0  0  0  0
  183.1290  177.3670  139.8070 C   0  0  0  0  0  0  0  0  0  0  0  0
  183.0550  178.2580  142.1560 C   0  0  0  0  0  2  0  0  0  0  0  0
  181.9830  176.7850  139.8920 N   0  0  0  0  0  0  0  0  0  0  0  0
  184.9400  177.9170  138.3340 C   0  0  0  0  0  0  0  0  0  0  0  0
  185.5790  178.5870  139.4380 N   0  0  0  0  0  0  0  0  0  0  0  0
  182.7810  176.4410  137.3260 S   0  0  0  0  0  0  0  0  0  0  0  0
  185.6140  177.8900  137.0060 C   0  0  0  0  0  1  0  0  0  0  0  0
  189.3160  177.7790  142.0640 C   0  0  0  0  0  2  0  0  0  0  0  0
  186.9970  178.5340  142.1180 N   0  0  0  0  0  0  0  0  0  0  0  0
  188.5110  177.1280  145.7690 C   0  0  0  0  0  0  0  0  0  0  0  0
  186.6080  178.0670  144.5650 C   0  0  0  0  0  3  0  0  0  0  0  0
  189.0500  176.6520  146.9580 O   0  0  0  0  0  1  0  0  0  0  0  0
  188.6990  177.6450  143.4210 C   0  0  0  0  0  0  0  0  0  0  0  0
  188.2150  178.7110  140.1030 O   0  0  0  0  0  0  0  0  0  0  0  0
  187.3910  178.0910  143.4110 C   0  0  0  0  0  0  0  0  0  0  0  0
  190.7010  176.6800  144.5950 C   0  0  0  0  0  1  0  0  0  0  0  0
  188.1630  178.3730  141.3140 C   0  0  0  0  0  0  0  0  0  0  0  0
  189.2870  177.1570  144.5930 C   0  0  0  0  0  0  0  0  0  0  0  0
  187.1780  177.5810  145.7500 C   0  0  0  0  0  3  0  0  0  0  0  0
  1 16  1  1  0  0  0
  1  2  1  0  0  0  0
  2  3  1  0  0  0  0
  4 10  1  0  0  0  0
  5  8  1  0  0  0  0
  6  7  1  0  0  0  0
  6  1  1  0  0  0  0
  7  9  1  0  0  0  0
  8 10  2  0  0  0  0
  8  7  1  0  0  0  0
  9  3  1  0  0  0  0
 11  5  2  0  0  0  0
 11 12  1  0  0  0  0
 12  6  2  0  0  0  0
 13  5  1  0  0  0  0
 13  4  1  0  0  0  0
 14 11  1  0  0  0  0
 15 20  1  0  0  0  0
 16 22  1  0  0  0  0
 17 19  1  0  0  0  0
 18 26  2  0  0  0  0
 20 25  1  0  0  0  0
 21 24  2  0  0  0  0
 22 20  2  0  0  0  0
 22 18  1  0  0  0  0
 24 15  1  0  0  0  0
 24 16  1  0  0  0  0
 25 23  1  0  0  0  0
 25 17  2  0  0  0  0
 26 17  1  0  0  0  0
M  END
>  <MODEL>
1

>  <REMARK>
 VINA RESULT:      -8.6      0.000      0.000
  Name = 
  1 active torsions:
  status: ('A' for Active; 'I' for Inactive)
    1  A    between atoms: C_1  and  N_4
                            x       y       z     vdW  Elec       q    Type
                         _______ _______ _______ _____ _____    ______ ____

>  <TORSDO>
F 1

$$$$
=
 OpenBabel10222416093D

 26 30  0  0  1  0  0  0  0  0999 V2000
  190.0680  177.8740  139.1510 C   0  0  2  0  0  3  0  0  0  0  0  0
  188.9440  178.9110  139.0890 C   0  0  0  0  0  2  0  0  0  0  0  0
  187.5740  178.2530  139.1780 C   0  0  0  0  0  2  0  0  0  0  0  0
  187.1740  173.5110  135.9050 C   0  0  0  0  0  2  0  0  0  0  0  0
  189.3740  174.2990  136.8440 C   0  0  0  0  0  0  0  0  0  0  0  0
  189.7980  176.6670  138.2970 C   0  0  0  0  0  0  0  0  0  0  0  0
  188.4520  176.3690  137.8530 N   0  0  0  0  0  0  0  0  0  0  0  0
  188.2630  175.1610  137.1100 C   0  0  0  0  0  0  0  0  0  0  0  0
  187.3700  177.3480  137.9700 C   0  0  0  0  0  2  0  0  0  0  0  0
  187.1280  174.7760  136.6370 N   0  0  0  0  0  0  0  0  0  0  0  0
  190.5950  174.6280  137.2770 C   0  0  0  0  0  0  0  0  0  0  0  0
  190.7760  175.8440  138.0290 N   0  0  0  0  0  0  0  0  0  0  0  0
  188.9030  172.8650  135.9030 S   0  0  0  0  0  0  0  0  0  0  0  0
  191.7700  173.7530  137.0080 C   0  0  0  0  0  1  0  0  0  0  0  0
  191.6810  177.3370  142.5870 C   0  0  0  0  0  2  0  0  0  0  0  0
  190.3730  177.5030  140.5350 N   0  0  0  0  0  0  0  0  0  0  0  0
  188.1350  177.3760  144.0810 C   0  0  0  0  0  0  0  0  0  0  0  0
  188.1090  177.5280  141.6460 C   0  0  0  0  0  3  0  0  0  0  0  0
  187.4310  177.3280  145.2780 O   0  0  0  0  0  1  0  0  0  0  0  0
  190.2060  177.3720  142.8460 C   0  0  0  0  0  0  0  0  0  0  0  0
  192.7300  177.5030  140.3970 O   0  0  0  0  0  0  0  0  0  0  0  0
  189.5040  177.4760  141.6600 C   0  0  0  0  0  0  0  0  0  0  0  0
  190.3110  177.2130  145.3520 C   0  0  0  0  0  1  0  0  0  0  0  0
  191.6830  177.4480  141.0930 C   0  0  0  0  0  0  0  0  0  0  0  0
  189.5440  177.3210  144.0770 C   0  0  0  0  0  0  0  0  0  0  0  0
  187.4260  177.4780  142.8690 C   0  0  0  0  0  3  0  0  0  0  0  0
  1  2  1  1  0  0  0
  1 16  1  0  0  0  0
  2  3  1  0  0  0  0
  4 10  1  0  0  0  0
  5  8  1  0  0  0  0
  5 11  2  0  0  0  0
  6  1  1  0  0  0  0
  7  9  1  0  0  0  0
  7  6  1  0  0  0  0
  8  7  1  0  0  0  0
  9  3  1  0  0  0  0
 10  8  2  0  0  0  0
 11 12  1  0  0  0  0
 12  6  2  0  0  0  0
 13  4  1  0  0  0  0
 13  5  1  0  0  0  0
 14 11  1  0  0  0  0
 15 20  1  0  0  0  0
 16 24  1  0  0  0  0
 16 22  1  0  0  0  0
 17 19  1  0  0  0  0
 18 22  2  0  0  0  0
 18 26  1  0  0  0  0
 20 25  2  0  0  0  0
 21 24  2  0  0  0  0
 22 20  1  0  0  0  0
 24 15  1  0  0  0  0
 25 17  1  0  0  0  0
 25 23  1  0  0  0  0
 26 17  2  0  0  0  0
M  END
>  <MODEL>
2

>  <REMARK>
 VINA RESULT:      -8.3      3.796      4.980
  Name = 
  1 active torsions:
  status: ('A' for Active; 'I' for Inactive)
    1  A    between atoms: C_1  and  N_4
                            x       y       z     vdW  Elec       q    Type
                         _______ _______ _______ _____ _____    ______ ____

>  <TORSDO>
F 1

$$$$
=
 OpenBabel10222416093D

 26 30  0  0  1  0  0  0  0  0999 V2000
  179.6520  178.2010  141.1240 C   0  0  2  0  0  3  0  0  0  0  0  0
  179.6000  176.6830  140.9290 C   0  0  0  0  0  2  0  0  0  0  0  0
  180.6320  176.2180  139.9100 C   0  0  0  0  0  2  0  0  0  0  0  0
  180.8440  179.6210  135.2490 C   0  0  0  0  0  2  0  0  0  0  0  0
  180.1090  180.4860  137.4970 C   0  0  0  0  0  0  0  0  0  0  0  0
  179.7680  178.9530  139.8270 C   0  0  0  0  0  0  0  0  0  0  0  0
  180.2190  178.2800  138.6270 N   0  0  0  0  0  0  0  0  0  0  0  0
  180.3790  179.0820  137.4520 C   0  0  0  0  0  0  0  0  0  0  0  0
  180.3080  176.8220  138.5510 C   0  0  0  0  0  2  0  0  0  0  0  0
  180.7550  178.6190  136.3110 N   0  0  0  0  0  0  0  0  0  0  0  0
  179.6930  181.0520  138.6340 C   0  0  0  0  0  0  0  0  0  0  0  0
  179.5390  180.2390  139.8150 N   0  0  0  0  0  0  0  0  0  0  0  0
  180.3700  181.2720  135.9240 S   0  0  0  0  0  0  0  0  0  0  0  0
  179.3980  182.5100  138.7080 C   0  0  0  0  0  1  0  0  0  0  0  0
  181.8920  178.6850  144.1970 C   0  0  0  0  0  2  0  0  0  0  0  0
  180.7060  178.5790  142.0680 N   0  0  0  0  0  0  0  0  0  0  0  0
  184.8720  178.9850  141.7820 C   0  0  0  0  0  0  0  0  0  0  0  0
  182.7470  178.7730  140.6000 C   0  0  0  0  0  3  0  0  0  0  0  0
  186.2530  179.1220  141.7300 O   0  0  0  0  0  1  0  0  0  0  0  0
  182.8120  178.7820  143.0200 C   0  0  0  0  0  0  0  0  0  0  0  0
  179.4800  178.3760  144.0760 O   0  0  0  0  0  0  0  0  0  0  0  0
  182.1030  178.7080  141.8360 C   0  0  0  0  0  0  0  0  0  0  0  0
  184.9620  178.9950  144.3050 C   0  0  0  0  0  1  0  0  0  0  0  0
  180.5810  178.5370  143.4870 C   0  0  0  0  0  0  0  0  0  0  0  0
  184.2040  178.9200  143.0220 C   0  0  0  0  0  0  0  0  0  0  0  0
  184.1420  178.9120  140.5800 C   0  0  0  0  0  3  0  0  0  0  0  0
  1  2  1  6  0  0  0
  1 16  1  0  0  0  0
  3  2  1  0  0  0  0
  4 13  1  0  0  0  0
  4 10  1  0  0  0  0
  5 11  2  0  0  0  0
  6  1  1  0  0  0  0
  7  6  1  0  0  0  0
  8  5  1  0  0  0  0
  8  7  1  0  0  0  0
  9  7  1  0  0  0  0
  9  3  1  0  0  0  0
 10  8  2  0  0  0  0
 11 14  1  0  0  0  0
 11 12  1  0  0  0  0
 12  6  2  0  0  0  0
 13  5  1  0  0  0  0
 16 24  1  0  0  0  0
 17 25  1  0  0  0  0
 18 22  2  0  0  0  0
 19 17  1  0  0  0  0
 20 25  2  0  0  0  0
 20 15  1  0  0  0  0
 22 16  1  0  0  0  0
 22 20  1  0  0  0  0
 24 21  2  0  0  0  0
 24 15  1  0  0  0  0
 25 23  1  0  0  0  0
 26 18  1  0  0  0  0
 26 17  2  0  0  0  0
M  END
>  <MODEL>
3

>  <REMARK>
 VINA RESULT:      -8.3      3.765      6.093
  Name = 
  1 active torsions:
  status: ('A' for Active; 'I' for Inactive)
    1  A    between atoms: C_1  and  N_4
                            x       y       z     vdW  Elec       q    Type
                         _______ _______ _______ _____ _____    ______ ____

>  <TORSDO>
F 1

$$$$
=
 OpenBabel10222416093D

 26 30  0  0  1  0  0  0  0  0999 V2000
  189.4500  176.8740  136.7680 C   0  0  2  0  0  3  0  0  0  0  0  0
  189.3770  178.3320  136.3050 C   0  0  0  0  0  2  0  0  0  0  0  0
  188.2540  179.0830  137.0080 C   0  0  0  0  0  2  0  0  0  0  0  0
  183.3760  176.0070  137.3140 C   0  0  0  0  0  2  0  0  0  0  0  0
  185.6380  174.9070  137.1940 C   0  0  0  0  0  0  0  0  0  0  0  0
  188.0990  176.2210  136.8590 C   0  0  0  0  0  0  0  0  0  0  0  0
  186.8980  177.0270  136.9260 N   0  0  0  0  0  0  0  0  0  0  0  0
  185.6570  176.3340  137.0910 C   0  0  0  0  0  0  0  0  0  0  0  0
  186.9170  178.4600  136.6310 C   0  0  0  0  0  2  0  0  0  0  0  0
  184.5100  176.9160  137.1490 N   0  0  0  0  0  0  0  0  0  0  0  0
  186.7790  174.2160  137.1220 C   0  0  0  0  0  0  0  0  0  0  0  0
  188.0260  174.9210  136.9620 N   0  0  0  0  0  0  0  0  0  0  0  0
  183.9890  174.2690  137.3870 S   0  0  0  0  0  0  0  0  0  0  0  0
  186.7880  172.7300  137.2190 C   0  0  0  0  0  1  0  0  0  0  0  0
  192.1380  176.7910  139.5000 C   0  0  0  0  0  2  0  0  0  0  0  0
  190.1980  176.7520  138.0210 N   0  0  0  0  0  0  0  0  0  0  0  0
  189.3880  177.7570  142.0120 C   0  0  0  0  0  0  0  0  0  0  0  0
  188.5000  177.4020  139.7680 C   0  0  0  0  0  3  0  0  0  0  0  0
  189.1620  178.0830  143.3440 O   0  0  0  0  0  1  0  0  0  0  0  0
  190.8650  177.1360  140.2100 C   0  0  0  0  0  0  0  0  0  0  0  0
  192.3370  176.3120  137.1220 O   0  0  0  0  0  0  0  0  0  0  0  0
  189.7950  177.1110  139.3360 C   0  0  0  0  0  0  0  0  0  0  0  0
  191.8510  177.4850  142.4950 C   0  0  0  0  0  1  0  0  0  0  0  0
  191.6110  176.5870  138.1130 C   0  0  0  0  0  0  0  0  0  0  0  0
  190.6890  177.4580  141.5600 C   0  0  0  0  0  0  0  0  0  0  0  0
  188.3020  177.7270  141.1170 C   0  0  0  0  0  3  0  0  0  0  0  0
  1  2  1  1  0  0  0
  1  6  1  0  0  0  0
  1 16  1  0  0  0  0
  2  3  1  0  0  0  0
  4 13  1  0  0  0  0
  5 13  1  0  0  0  0
  6  7  1  0  0  0  0
  6 12  2  0  0  0  0
  7  8  1  0  0  0  0
  8 10  2  0  0  0  0
  8  5  1  0  0  0  0
  9  7  1  0  0  0  0
  9  3  1  0  0  0  0
 10  4  1  0  0  0  0
 11  5  2  0  0  0  0
 11 14  1  0  0  0  0
 12 11  1  0  0  0  0
 15 20  1  0  0  0  0
 16 24  1  0  0  0  0
 16 22  1  0  0  0  0
 17 19  1  0  0  0  0
 18 26  1  0  0  0  0
 20 25  2  0  0  0  0
 21 24  2  0  0  0  0
 22 18  2  0  0  0  0
 22 20  1  0  0  0  0
 24 15  1  0  0  0  0
 25 17  1  0  0  0  0
 25 23  1  0  0  0  0
 26 17  2  0  0  0  0
M  END
>  <MODEL>
4

>  <REMARK>
 VINA RESULT:      -8.1      3.363      4.928
  Name = 
  1 active torsions:
  status: ('A' for Active; 'I' for Inactive)
    1  A    between atoms: C_1  and  N_4
                            x       y       z     vdW  Elec       q    Type
                         _______ _______ _______ _____ _____    ______ ____

>  <TORSDO>
F 1

$$$$
=
 OpenBabel10222416093D

 26 30  0  0  1  0  0  0  0  0999 V2000
  183.9240  178.7300  138.9030 C   0  0  2  0  0  3  0  0  0  0  0  0
  183.0650  179.9960  138.8870 C   0  0  0  0  0  2  0  0  0  0  0  0
  181.7100  179.7570  139.5400 C   0  0  0  0  0  2  0  0  0  0  0  0
  179.3250  174.7480  137.9350 C   0  0  0  0  0  2  0  0  0  0  0  0
  181.8200  175.0900  137.9520 C   0  0  0  0  0  0  0  0  0  0  0  0
  183.1550  177.4960  138.5230 C   0  0  0  0  0  0  0  0  0  0  0  0
  181.7080  177.4870  138.5830 N   0  0  0  0  0  0  0  0  0  0  0  0
  181.0510  176.2510  138.2820 C   0  0  0  0  0  0  0  0  0  0  0  0
  180.9370  178.7210  138.7350 C   0  0  0  0  0  2  0  0  0  0  0  0
  179.7730  176.0970  138.2770 N   0  0  0  0  0  0  0  0  0  0  0  0
  183.1540  175.1600  137.9100 C   0  0  0  0  0  0  0  0  0  0  0  0
  183.8080  176.4060  138.2200 N   0  0  0  0  0  0  0  0  0  0  0  0
  180.7930  173.6780  137.6120 S   0  0  0  0  0  0  0  0  0  0  0  0
  183.9780  173.9690  137.5630 C   0  0  0  0  0  1  0  0  0  0  0  0
  186.4250  178.7330  141.8090 C   0  0  0  0  0  2  0  0  0  0  0  0
  184.6100  178.5690  140.1870 N   0  0  0  0  0  0  0  0  0  0  0  0
  183.4100  178.8960  144.1940 C   0  0  0  0  0  0  0  0  0  0  0  0
  182.7270  178.6970  141.8600 C   0  0  0  0  0  3  0  0  0  0  0  0
  183.0560  179.0030  145.5330 O   0  0  0  0  0  1  0  0  0  0  0  0
  185.0730  178.7670  142.4520 C   0  0  0  0  0  0  0  0  0  0  0  0
  186.8400  178.6080  139.4130 O   0  0  0  0  0  0  0  0  0  0  0  0
  184.0750  178.6820  141.5010 C   0  0  0  0  0  0  0  0  0  0  0  0
  185.8520  178.9710  144.8330 C   0  0  0  0  0  1  0  0  0  0  0  0
  186.0220  178.6280  140.3700 C   0  0  0  0  0  0  0  0  0  0  0  0
  184.7680  178.8770  143.8130 C   0  0  0  0  0  0  0  0  0  0  0  0
  182.4000  178.8060  143.2190 C   0  0  0  0  0  3  0  0  0  0  0  0
  1  2  1  1  0  0  0
  1 16  1  0  0  0  0
  2  3  1  0  0  0  0
  4 10  1  0  0  0  0
  5  8  1  0  0  0  0
  6  7  1  0  0  0  0
  6  1  1  0  0  0  0
  7  9  1  0  0  0  0
  8  7  1  0  0  0  0
  9  3  1  0  0  0  0
 10  8  2  0  0  0  0
 11  5  2  0  0  0  0
 11 12  1  0  0  0  0
 12  6  2  0  0  0  0
 13  4  1  0  0  0  0
 13  5  1  0  0  0  0
 14 11  1  0  0  0  0
 15 20  1  0  0  0  0
 16 24  1  0  0  0  0
 16 22  1  0  0  0  0
 17 19  1  0  0  0  0
 18 26  1  0  0  0  0
 20 25  2  0  0  0  0
 21 24  2  0  0  0  0
 22 18  2  0  0  0  0
 22 20  1  0  0  0  0
 24 15  1  0  0  0  0
 25 17  1  0  0  0  0
 25 23  1  0  0  0  0
 26 17  2  0  0  0  0
M  END
>  <MODEL>
5

>  <REMARK>
 VINA RESULT:      -8.0      2.593      3.972
  Name = 
  1 active torsions:
  status: ('A' for Active; 'I' for Inactive)
    1  A    between atoms: C_1  and  N_4
                            x       y       z     vdW  Elec       q    Type
                         _______ _______ _______ _____ _____    ______ ____

>  <TORSDO>
F 1

$$$$
=
 OpenBabel10222416093D

 26 30  0  0  1  0  0  0  0  0999 V2000
  184.8780  179.1110  140.2980 C   0  0  2  0  0  3  0  0  0  0  0  0
  183.3620  179.0420  140.4930 C   0  0  0  0  0  2  0  0  0  0  0  0
  182.8180  177.6620  140.1450 C   0  0  0  0  0  2  0  0  0  0  0  0
  185.1010  175.5380  135.2840 C   0  0  0  0  0  2  0  0  0  0  0  0
  186.3420  177.1870  136.7280 C   0  0  0  0  0  0  0  0  0  0  0  0
  185.3330  178.4640  139.0190 C   0  0  0  0  0  0  0  0  0  0  0  0
  184.4740  177.5270  138.3260 N   0  0  0  0  0  0  0  0  0  0  0  0
  185.0090  176.8940  137.1590 C   0  0  0  0  0  0  0  0  0  0  0  0
  183.0590  177.3830  138.6680 C   0  0  0  0  0  2  0  0  0  0  0  0
  184.3570  176.0540  136.4330 N   0  0  0  0  0  0  0  0  0  0  0  0
  187.0870  178.0640  137.4070 C   0  0  0  0  0  0  0  0  0  0  0  0
  186.5440  178.6930  138.5850 N   0  0  0  0  0  0  0  0  0  0  0  0
  186.7860  176.2900  135.2580 S   0  0  0  0  0  0  0  0  0  0  0  0
  188.4750  178.3930  136.9780 C   0  0  0  0  0  1  0  0  0  0  0  0
  187.4960  178.0250  142.8790 C   0  0  0  0  0  2  0  0  0  0  0  0
  185.5890  178.5750  141.4600 N   0  0  0  0  0  0  0  0  0  0  0  0
  184.7920  178.4800  145.5780 C   0  0  0  0  0  0  0  0  0  0  0  0
  183.9200  178.8520  143.3300 C   0  0  0  0  0  3  0  0  0  0  0  0
  184.5690  178.4350  146.9490 O   0  0  0  0  0  1  0  0  0  0  0  0
  186.2440  178.2650  143.6650 C   0  0  0  0  0  0  0  0  0  0  0  0
  187.6990  178.2210  140.4610 O   0  0  0  0  0  0  0  0  0  0  0  0
  185.1930  178.5820  142.8260 C   0  0  0  0  0  0  0  0  0  0  0  0
  187.2130  177.8670  145.9490 C   0  0  0  0  0  1  0  0  0  0  0  0
  186.9800  178.2670  141.4930 C   0  0  0  0  0  0  0  0  0  0  0  0
  186.0710  178.2070  145.0510 C   0  0  0  0  0  0  0  0  0  0  0  0
  183.7250  178.7990  144.7170 C   0  0  0  0  0  3  0  0  0  0  0  0
  1  2  1  1  0  0  0
  1 16  1  0  0  0  0
  3  2  1  0  0  0  0
  4 10  1  0  0  0  0
  5  8  1  0  0  0  0
  5 11  2  0  0  0  0
  6  1  1  0  0  0  0
  7  9  1  0  0  0  0
  7  6  1  0  0  0  0
  8  7  1  0  0  0  0
  9  3  1  0  0  0  0
 10  8  2  0  0  0  0
 11 12  1  0  0  0  0
 12  6  2  0  0  0  0
 13  4  1  0  0  0  0
 13  5  1  0  0  0  0
 14 11  1  0  0  0  0
 15 20  1  0  0  0  0
 16 24  1  0  0  0  0
 16 22  1  0  0  0  0
 17 19  1  0  0  0  0
 18 26  1  0  0  0  0
 20 25  2  0  0  0  0
 21 24  2  0  0  0  0
 22 18  2  0  0  0  0
 22 20  1  0  0  0  0
 24 15  1  0  0  0  0
 25 17  1  0  0  0  0
 25 23  1  0  0  0  0
 26 17  2  0  0  0  0
M  END
>  <MODEL>
6

>  <REMARK>
 VINA RESULT:      -8.0      2.032      3.142
  Name = 
  1 active torsions:
  status: ('A' for Active; 'I' for Inactive)
    1  A    between atoms: C_1  and  N_4
                            x       y       z     vdW  Elec       q    Type
                         _______ _______ _______ _____ _____    ______ ____

>  <TORSDO>
F 1

$$$$
=
 OpenBabel10222416093D

 26 30  0  0  1  0  0  0  0  0999 V2000
  180.6200  178.9750  141.0680 C   0  0  2  0  0  3  0  0  0  0  0  0
  179.6170  177.8410  141.2970 C   0  0  0  0  0  2  0  0  0  0  0  0
  179.4890  176.9550  140.0650 C   0  0  0  0  0  2  0  0  0  0  0  0
  179.1880  179.9950  135.1640 C   0  0  0  0  0  2  0  0  0  0  0  0
  180.3640  180.8780  137.2080 C   0  0  0  0  0  0  0  0  0  0  0  0
  180.4610  179.6340  139.7260 C   0  0  0  0  0  0  0  0  0  0  0  0
  179.7500  178.9620  138.6590 N   0  0  0  0  0  0  0  0  0  0  0  0
  179.7100  179.6180  137.3880 C   0  0  0  0  0  0  0  0  0  0  0  0
  178.9310  177.7750  138.9090 C   0  0  0  0  0  2  0  0  0  0  0  0
  179.1010  179.1500  136.3550 N   0  0  0  0  0  0  0  0  0  0  0  0
  181.0040  181.4520  138.2320 C   0  0  0  0  0  0  0  0  0  0  0  0
  181.0450  180.7810  139.5080 N   0  0  0  0  0  0  0  0  0  0  0  0
  180.1760  181.5040  135.5550 S   0  0  0  0  0  0  0  0  0  0  0  0
  181.6880  182.7650  138.0750 C   0  0  0  0  0  1  0  0  0  0  0  0
  184.3250  178.0440  140.7550 C   0  0  0  0  0  2  0  0  0  0  0  0
  181.9940  178.5220  141.2930 N   0  0  0  0  0  0  0  0  0  0  0  0
  184.6720  178.8090  144.5100 C   0  0  0  0  0  0  0  0  0  0  0  0
  182.3650  179.0090  143.7390 C   0  0  0  0  0  3  0  0  0  0  0  0
  185.5910  178.8900  145.5490 O   0  0  0  0  0  1  0  0  0  0  0  0
  184.1260  178.3870  142.1990 C   0  0  0  0  0  0  0  0  0  0  0  0
  182.5780  178.0230  139.0600 O   0  0  0  0  0  0  0  0  0  0  0  0
  182.7970  178.6600  142.4590 C   0  0  0  0  0  0  0  0  0  0  0  0
  186.5230  178.1630  142.9190 C   0  0  0  0  0  1  0  0  0  0  0  0
  182.9170  178.1800  140.2620 C   0  0  0  0  0  0  0  0  0  0  0  0
  185.0900  178.4560  143.2100 C   0  0  0  0  0  0  0  0  0  0  0  0
  183.3150  179.0820  144.7670 C   0  0  0  0  0  3  0  0  0  0  0  0
  1 16  1  6  0  0  0
  1  2  1  0  0  0  0
  3  2  1  0  0  0  0
  4 13  1  0  0  0  0
  4 10  1  0  0  0  0
  5  8  1  0  0  0  0
  5 11  2  0  0  0  0
  6  1  1  0  0  0  0
  7  9  1  0  0  0  0
  7  6  1  0  0  0  0
  8  7  1  0  0  0  0
  9  3  1  0  0  0  0
 10  8  2  0  0  0  0
 11 12  1  0  0  0  0
 12  6  2  0  0  0  0
 13  5  1  0  0  0  0
 14 11  1  0  0  0  0
 15 20  1  0  0  0  0
 16 22  1  0  0  0  0
 17 26  1  0  0  0  0
 17 19  1  0  0  0  0
 18 26  2  0  0  0  0
 20 22  2  0  0  0  0
 20 25  1  0  0  0  0
 21 24  2  0  0  0  0
 22 18  1  0  0  0  0
 23 25  1  0  0  0  0
 24 15  1  0  0  0  0
 24 16  1  0  0  0  0
 25 17  2  0  0  0  0
M  END
>  <MODEL>
7

>  <REMARK>
 VINA RESULT:      -7.9      3.620      5.128
  Name = 
  1 active torsions:
  status: ('A' for Active; 'I' for Inactive)
    1  A    between atoms: C_1  and  N_4
                            x       y       z     vdW  Elec       q    Type
                         _______ _______ _______ _____ _____    ______ ____

>  <TORSDO>
F 1

$$$$
=
 OpenBabel10222416093D

 26 30  0  0  1  0  0  0  0  0999 V2000
  189.9750  177.9250  139.5530 C   0  0  2  0  0  3  0  0  0  0  0  0
  188.5670  178.4410  139.2450 C   0  0  0  0  0  2  0  0  0  0  0  0
  187.5930  177.2930  139.0090 C   0  0  0  0  0  2  0  0  0  0  0  0
  189.8300  173.1360  135.6810 C   0  0  0  0  0  2  0  0  0  0  0  0
  191.2770  174.6210  137.1090 C   0  0  0  0  0  0  0  0  0  0  0  0
  190.3980  176.8030  138.6460 C   0  0  0  0  0  0  0  0  0  0  0  0
  189.4100  176.0500  137.9020 N   0  0  0  0  0  0  0  0  0  0  0  0
  189.8840  174.9470  137.1220 C   0  0  0  0  0  0  0  0  0  0  0  0
  188.0270  176.5100  137.7770 C   0  0  0  0  0  2  0  0  0  0  0  0
  189.1270  174.2000  136.3970 N   0  0  0  0  0  0  0  0  0  0  0  0
  192.1430  175.3550  137.8150 C   0  0  0  0  0  0  0  0  0  0  0  0
  191.6580  176.4610  138.6020 N   0  0  0  0  0  0  0  0  0  0  0  0
  191.6310  173.2230  136.0700 S   0  0  0  0  0  0  0  0  0  0  0  0
  193.5990  175.0430  137.8140 C   0  0  0  0  0  1  0  0  0  0  0  0
  191.1750  177.3850  143.1530 C   0  0  0  0  0  2  0  0  0  0  0  0
  190.1110  177.5630  140.9650 N   0  0  0  0  0  0  0  0  0  0  0  0
  187.4870  177.5480  144.2390 C   0  0  0  0  0  0  0  0  0  0  0  0
  187.7390  177.6700  141.8150 C   0  0  0  0  0  3  0  0  0  0  0  0
  186.6520  177.5360  145.3500 O   0  0  0  0  0  1  0  0  0  0  0  0
  189.6820  177.4670  143.2440 C   0  0  0  0  0  0  0  0  0  0  0  0
  192.4670  177.4910  141.0930 O   0  0  0  0  0  0  0  0  0  0  0  0
  189.1200  177.5760  141.9870 C   0  0  0  0  0  0  0  0  0  0  0  0
  189.5000  177.3360  145.7470 C   0  0  0  0  0  1  0  0  0  0  0  0
  191.3470  177.4760  141.6680 C   0  0  0  0  0  0  0  0  0  0  0  0
  188.8850  177.4510  144.3930 C   0  0  0  0  0  0  0  0  0  0  0  0
  186.9220  177.6560  142.9540 C   0  0  0  0  0  3  0  0  0  0  0  0
  1  2  1  6  0  0  0
  1 16  1  0  0  0  0
  3  2  1  0  0  0  0
  4 13  1  0  0  0  0
  4 10  1  0  0  0  0
  5  8  1  0  0  0  0
  5 11  2  0  0  0  0
  6  1  1  0  0  0  0
  7  6  1  0  0  0  0
  8  7  1  0  0  0  0
  9  7  1  0  0  0  0
  9  3  1  0  0  0  0
 10  8  2  0  0  0  0
 11 12  1  0  0  0  0
 12  6  2  0  0  0  0
 13  5  1  0  0  0  0
 14 11  1  0  0  0  0
 15 20  1  0  0  0  0
 16 24  1  0  0  0  0
 16 22  1  0  0  0  0
 17 25  1  0  0  0  0
 17 19  1  0  0  0  0
 18 22  2  0  0  0  0
 18 26  1  0  0  0  0
 20 25  2  0  0  0  0
 21 24  2  0  0  0  0
 22 20  1  0  0  0  0
 24 15  1  0  0  0  0
 25 23  1  0  0  0  0
 26 17  2  0  0  0  0
M  END
>  <MODEL>
8

>  <REMARK>
 VINA RESULT:      -7.7      4.252      5.703
  Name = 
  1 active torsions:
  status: ('A' for Active; 'I' for Inactive)
    1  A    between atoms: C_1  and  N_4
                            x       y       z     vdW  Elec       q    Type
                         _______ _______ _______ _____ _____    ______ ____

>  <TORSDO>
F 1

$$$$
=
 OpenBabel10222416093D

 26 30  0  0  1  0  0  0  0  0999 V2000
  188.1760  178.3430  138.5720 C   0  0  2  0  0  3  0  0  0  0  0  0
  189.4310  178.3340  137.6960 C   0  0  0  0  0  2  0  0  0  0  0  0
  190.3110  177.1280  137.9960 C   0  0  0  0  0  2  0  0  0  0  0  0
  190.8610  176.1390  143.6600 C   0  0  0  0  0  2  0  0  0  0  0  0
  188.8320  177.2800  142.6990 C   0  0  0  0  0  0  0  0  0  0  0  0
  188.4650  178.0080  140.0100 C   0  0  0  0  0  0  0  0  0  0  0  0
  189.6950  177.3380  140.3730 N   0  0  0  0  0  0  0  0  0  0  0  0
  189.8610  176.9820  141.7500 C   0  0  0  0  0  0  0  0  0  0  0  0
  190.8090  177.2130  139.4330 C   0  0  0  0  0  2  0  0  0  0  0  0
  190.9080  176.4000  142.2220 N   0  0  0  0  0  0  0  0  0  0  0  0
  187.7180  177.9030  142.3040 C   0  0  0  0  0  0  0  0  0  0  0  0
  187.5550  178.2530  140.9150 N   0  0  0  0  0  0  0  0  0  0  0  0
  189.2600  176.7530  144.3420 S   0  0  0  0  0  0  0  0  0  0  0  0
  186.6340  178.2310  143.2710 C   0  0  0  0  0  1  0  0  0  0  0  0
  185.0280  176.9160  136.9150 C   0  0  0  0  0  2  0  0  0  0  0  0
  187.1310  177.4830  138.0140 N   0  0  0  0  0  0  0  0  0  0  0  0
  187.1600  173.9050  135.8230 C   0  0  0  0  0  0  0  0  0  0  0  0
  188.4160  175.4640  137.2170 C   0  0  0  0  0  3  0  0  0  0  0  0
  187.1270  172.7250  135.0900 O   0  0  0  0  0  1  0  0  0  0  0  0
  186.0970  175.8960  136.6720 C   0  0  0  0  0  0  0  0  0  0  0  0
  185.3070  178.9720  138.1870 O   0  0  0  0  0  0  0  0  0  0  0  0
  187.2720  176.2590  137.3020 C   0  0  0  0  0  0  0  0  0  0  0  0
  184.7410  174.3370  135.2420 C   0  0  0  0  0  1  0  0  0  0  0  0
  185.7900  177.8920  137.7580 C   0  0  0  0  0  0  0  0  0  0  0  0
  186.0130  174.7190  135.9220 C   0  0  0  0  0  0  0  0  0  0  0  0
  188.3520  174.2800  136.4710 C   0  0  0  0  0  3  0  0  0  0  0  0
  1  2  1  6  0  0  0
  1  6  1  0  0  0  0
  2  3  1  0  0  0  0
  3  9  1  0  0  0  0
  4 13  1  0  0  0  0
  5 13  1  0  0  0  0
  6  7  1  0  0  0  0
  6 12  2  0  0  0  0
  7  8  1  0  0  0  0
  8 10  2  0  0  0  0
  8  5  1  0  0  0  0
  9  7  1  0  0  0  0
 10  4  1  0  0  0  0
 11  5  2  0  0  0  0
 11 14  1  0  0  0  0
 12 11  1  0  0  0  0
 15 24  1  0  0  0  0
 16  1  1  0  0  0  0
 17 25  2  0  0  0  0
 17 26  1  0  0  0  0
 18 22  1  0  0  0  0
 19 17  1  0  0  0  0
 20 15  1  0  0  0  0
 20 22  2  0  0  0  0
 22 16  1  0  0  0  0
 23 25  1  0  0  0  0
 24 16  1  0  0  0  0
 24 21  2  0  0  0  0
 25 20  1  0  0  0  0
 26 18  2  0  0  0  0
M  END
>  <MODEL>
9

>  <REMARK>
 VINA RESULT:      -7.6      3.691      7.717
  Name = 
  1 active torsions:
  status: ('A' for Active; 'I' for Inactive)
    1  A    between atoms: C_1  and  N_4
                            x       y       z     vdW  Elec       q    Type
                         _______ _______ _______ _____ _____    ______ ____

>  <TORSDO>
F 1

$$$$
