=
 OpenBabel10222415283D

 31 35  0  0  1  0  0  0  0  0999 V2000
  191.4320  177.7440  140.8720 C   0  0  2  0  0  3  0  0  0  0  0  0
  189.7730  177.3270  140.1720 S   0  0  0  0  0  0  0  0  0  0  0  0
  192.4540  177.1030  140.0520 N   0  0  0  0  0  2  0  0  0  0  0  0
  191.8900  176.3150  139.0230 C   0  0  2  0  0  3  0  0  0  0  0  0
  192.5150  176.0060  137.7060 C   0  0  2  0  0  3  0  0  0  0  0  0
  190.5940  176.3450  138.9380 C   0  0  2  0  0  3  0  0  0  0  0  0
  191.3070  175.8080  136.8760 C   0  0  1  0  0  3  0  0  0  0  0  0
  192.8060  174.0750  136.4370 C   0  0  0  0  0  2  0  0  0  0  0  0
  191.4640  174.6460  135.9890 C   0  0  0  0  0  2  0  0  0  0  0  0
  190.1970  176.0740  137.5690 C   0  0  1  0  0  3  0  0  0  0  0  0
  193.1880  174.7110  137.7070 N   0  0  1  0  0  0  0  0  0  0  0  0
  195.3110  174.1600  138.6960 C   0  0  0  0  0  2  0  0  0  0  0  0
  195.2880  173.7570  137.3500 O   0  0  0  0  0  0  0  0  0  0  0  0
  194.6220  174.9590  137.6560 C   0  0  1  0  0  3  0  0  0  0  0  0
  188.8700  175.6770  137.2050 N   0  0  0  0  0  2  0  0  0  0  0  0
  188.0000  176.3980  136.3240 C   0  0  0  0  0  0  0  0  0  0  0  0
  186.9010  175.8800  135.9930 O   0  0  0  0  0  0  0  0  0  0  0  0
  188.3230  177.7990  135.8920 C   0  0  0  0  0  2  0  0  0  0  0  0
  186.8170  178.8910  137.3940 O   0  0  0  0  0  0  0  0  0  0  0  0
  188.9810  179.6490  137.4310 O   0  0  0  0  0  1  0  0  0  0  0  0
  187.9930  178.7990  136.9520 C   0  0  0  0  0  0  0  0  0  0  0  0
  191.5390  177.2490  142.2760 C   0  0  0  0  0  3  0  0  0  0  0  0
  190.6440  177.5560  143.1410 N   0  0  0  0  0  0  0  0  0  0  0  0
  190.7610  177.0770  144.4910 C   0  0  0  0  0  2  0  0  0  0  0  0
  187.0560  177.4710  145.1690 C   0  0  0  0  0  3  0  0  0  0  0  0
  188.2560  177.6690  147.2650 C   0  0  0  0  0  0  0  0  0  0  0  0
  188.2660  177.2700  144.4960 C   0  0  0  0  0  3  0  0  0  0  0  0
  188.2510  177.8720  148.6730 N   0  0  0  0  0  1  0  0  0  0  0  0
  189.4710  177.2700  145.2070 C   0  0  0  0  0  0  0  0  0  0  0  0
  187.0520  177.6710  146.5530 C   0  0  0  0  0  3  0  0  0  0  0  0
  189.4650  177.4730  146.5920 C   0  0  0  0  0  3  0  0  0  0  0  0
  1 22  1  1  0  0  0
  2  1  1  0  0  0  0
  3  1  1  0  0  0  0
  4  3  1  6  0  0  0
  5 11  1  0  0  0  0
  5  4  1  0  0  0  0
  6  4  1  0  0  0  0
  6  2  1  0  0  0  0
  7 10  1  0  0  0  0
  7  5  1  0  0  0  0
  8 11  1  0  0  0  0
  9  8  1  0  0  0  0
  9  7  1  0  0  0  0
 10  6  1  0  0  0  0
 13 14  1  0  0  0  0
 13 12  1  0  0  0  0
 14 11  1  0  0  0  0
 14 12  1  0  0  0  0
 15 10  1  0  0  0  0
 16 15  1  0  0  0  0
 17 16  2  0  0  0  0
 18 16  1  0  0  0  0
 18 21  1  0  0  0  0
 21 19  2  0  0  0  0
 21 20  1  0  0  0  0
 22 23  2  0  0  0  0
 23 24  1  0  0  0  0
 24 29  1  0  0  0  0
 25 30  1  0  0  0  0
 26 28  1  0  0  0  0
 27 25  2  0  0  0  0
 27 29  1  0  0  0  0
 29 31  2  0  0  0  0
 30 26  2  0  0  0  0
 31 26  1  0  0  0  0
M  END
>  <MODEL>
1

>  <REMARK>
 VINA RESULT:      -7.8      0.000      0.000
  Name = 
  7 active torsions:
  status: ('A' for Active; 'I' for Inactive)
    1  A    between atoms: C_1  and  C_15
    2  A    between atoms: C_6  and  C_16
    3  A    between atoms: C_6  and  N_21
    4  A    between atoms: N_13  and  C_27
    5  A    between atoms: C_14  and  C_28
    6  A    between atoms: C_24  and  N_31
    7  A    between atoms: C_28  and  C_29
                            x       y       z     vdW  Elec       q    Type
                         _______ _______ _______ _____ _____    ______ ____

>  <TORSDO>
F 7

$$$$
=
 OpenBabel10222415283D

 31 35  0  0  1  0  0  0  0  0999 V2000
  189.1210  178.4180  138.9290 C   0  0  2  0  0  3  0  0  0  0  0  0
  190.3230  177.2040  139.6340 S   0  0  0  0  0  0  0  0  0  0  0  0
  188.0860  178.6750  139.9260 N   0  0  0  0  0  2  0  0  0  0  0  0
  188.2650  177.8910  141.0890 C   0  0  2  0  0  3  0  0  0  0  0  0
  187.8290  178.2490  142.4690 C   0  0  2  0  0  3  0  0  0  0  0  0
  189.3270  177.1430  141.1050 C   0  0  2  0  0  3  0  0  0  0  0  0
  188.8250  177.5010  143.2660 C   0  0  1  0  0  3  0  0  0  0  0  0
  186.7100  177.1350  144.1800 C   0  0  0  0  0  2  0  0  0  0  0  0
  188.1880  176.8400  144.4150 C   0  0  0  0  0  2  0  0  0  0  0  0
  189.7340  176.9200  142.4790 C   0  0  1  0  0  3  0  0  0  0  0  0
  186.5440  177.6500  142.8120 N   0  0  1  0  0  0  0  0  0  0  0  0
  184.3880  178.3750  142.0260 C   0  0  0  0  0  2  0  0  0  0  0  0
  184.3650  178.2230  143.4220 O   0  0  0  0  0  0  0  0  0  0  0  0
  185.5580  178.7200  142.8660 C   0  0  1  0  0  3  0  0  0  0  0  0
  190.6240  175.8660  142.8690 N   0  0  0  0  0  2  0  0  0  0  0  0
  191.4520  175.8690  144.0390 C   0  0  0  0  0  0  0  0  0  0  0  0
  192.1020  174.8300  144.3290 O   0  0  0  0  0  0  0  0  0  0  0  0
  191.6470  177.1200  144.8450 C   0  0  0  0  0  2  0  0  0  0  0  0
  192.3700  176.4050  147.0090 O   0  0  0  0  0  1  0  0  0  0  0  0
  190.2070  177.1560  146.8820 O   0  0  0  0  0  0  0  0  0  0  0  0
  191.4400  176.8800  146.3050 C   0  0  0  0  0  0  0  0  0  0  0  0
  188.4920  177.8650  137.6940 C   0  0  0  0  0  3  0  0  0  0  0  0
  187.8370  176.7640  137.7380 N   0  0  0  0  0  0  0  0  0  0  0  0
  187.2410  176.2390  136.5400 C   0  0  0  0  0  2  0  0  0  0  0  0
  185.8830  172.8330  137.4860 C   0  0  0  0  0  3  0  0  0  0  0  0
  184.0230  174.3620  137.2110 C   0  0  0  0  0  0  0  0  0  0  0  0
  186.7760  173.8650  137.1790 C   0  0  0  0  0  3  0  0  0  0  0  0
  182.6230  174.6160  137.2270 N   0  0  0  0  0  1  0  0  0  0  0  0
  186.2930  175.1450  136.8870 C   0  0  0  0  0  0  0  0  0  0  0  0
  184.5070  173.0820  137.5010 C   0  0  0  0  0  3  0  0  0  0  0  0
  184.9150  175.3920  136.9000 C   0  0  0  0  0  3  0  0  0  0  0  0
  1 22  1  6  0  0  0
  1  2  1  0  0  0  0
  1  3  1  0  0  0  0
  2  6  1  0  0  0  0
  4  3  1  6  0  0  0
  4  6  1  0  0  0  0
  4  5  1  0  0  0  0
  5 11  1  0  0  0  0
  5  7  1  0  0  0  0
  6 10  1  0  0  0  0
  7  9  1  0  0  0  0
  8  9  1  0  0  0  0
 10 15  1  0  0  0  0
 10  7  1  0  0  0  0
 11 14  1  0  0  0  0
 11  8  1  0  0  0  0
 12 14  1  0  0  0  0
 12 13  1  0  0  0  0
 14 13  1  0  0  0  0
 15 16  1  0  0  0  0
 16 17  2  0  0  0  0
 16 18  1  0  0  0  0
 18 21  1  0  0  0  0
 21 20  2  0  0  0  0
 21 19  1  0  0  0  0
 22 23  2  0  0  0  0
 24 29  1  0  0  0  0
 24 23  1  0  0  0  0
 25 30  1  0  0  0  0
 26 28  1  0  0  0  0
 26 30  2  0  0  0  0
 27 25  2  0  0  0  0
 29 31  2  0  0  0  0
 29 27  1  0  0  0  0
 31 26  1  0  0  0  0
M  END
>  <MODEL>
2

>  <REMARK>
 VINA RESULT:      -7.6      4.240      8.868
  Name = 
  7 active torsions:
  status: ('A' for Active; 'I' for Inactive)
    1  A    between atoms: C_1  and  C_15
    2  A    between atoms: C_6  and  C_16
    3  A    between atoms: C_6  and  N_21
    4  A    between atoms: N_13  and  C_27
    5  A    between atoms: C_14  and  C_28
    6  A    between atoms: C_24  and  N_31
    7  A    between atoms: C_28  and  C_29
                            x       y       z     vdW  Elec       q    Type
                         _______ _______ _______ _____ _____    ______ ____

>  <TORSDO>
F 7

$$$$
=
 OpenBabel10222415283D

 31 35  0  0  1  0  0  0  0  0999 V2000
  189.0130  176.5820  142.2740 C   0  0  2  0  0  3  0  0  0  0  0  0
  187.6010  177.7730  142.3470 S   0  0  0  0  0  0  0  0  0  0  0  0
  189.5070  176.3660  143.6300 N   0  0  0  0  0  2  0  0  0  0  0  0
  188.8190  177.1600  144.5770 C   0  0  2  0  0  3  0  0  0  0  0  0
  188.6080  176.8320  146.0150 C   0  0  2  0  0  3  0  0  0  0  0  0
  187.8450  177.8800  144.1060 C   0  0  2  0  0  3  0  0  0  0  0  0
  187.3490  177.5640  146.2740 C   0  0  1  0  0  3  0  0  0  0  0  0
  188.8370  177.9990  148.0170 C   0  0  0  0  0  2  0  0  0  0  0  0
  187.4010  178.2570  147.5700 C   0  0  0  0  0  2  0  0  0  0  0  0
  186.8690  178.1100  145.1540 C   0  0  1  0  0  3  0  0  0  0  0  0
  189.5980  177.4700  146.8750 N   0  0  1  0  0  0  0  0  0  0  0  0
  191.7200  176.3750  146.5760 C   0  0  0  0  0  2  0  0  0  0  0  0
  191.6800  177.0130  147.8280 O   0  0  0  0  0  0  0  0  0  0  0  0
  190.4790  176.4280  147.3830 C   0  0  1  0  0  3  0  0  0  0  0  0
  185.8790  179.1440  145.0860 N   0  0  0  0  0  2  0  0  0  0  0  0
  184.7120  179.1220  144.2560 C   0  0  0  0  0  0  0  0  0  0  0  0
  183.8600  180.0410  144.3770 O   0  0  0  0  0  0  0  0  0  0  0  0
  184.5530  178.0970  143.1710 C   0  0  0  0  0  2  0  0  0  0  0  0
  182.7130  178.5160  141.7030 O   0  0  0  0  0  1  0  0  0  0  0  0
  184.7310  179.3780  141.0380 O   0  0  0  0  0  0  0  0  0  0  0  0
  183.9390  178.6790  141.9390 C   0  0  0  0  0  0  0  0  0  0  0  0
  190.1120  177.1360  141.4290 C   0  0  0  0  0  3  0  0  0  0  0  0
  190.1260  176.9240  140.1650 N   0  0  0  0  0  0  0  0  0  0  0  0
  191.1920  177.4590  139.3630 C   0  0  0  0  0  2  0  0  0  0  0  0
  191.5370  174.3710  137.1970 C   0  0  0  0  0  3  0  0  0  0  0  0
  193.7420  175.3020  137.5820 C   0  0  0  0  0  0  0  0  0  0  0  0
  190.9710  175.3990  137.9590 C   0  0  0  0  0  3  0  0  0  0  0  0
  195.1500  175.2530  137.3900 N   0  0  0  0  0  1  0  0  0  0  0  0
  191.7900  176.3770  138.5340 C   0  0  0  0  0  0  0  0  0  0  0  0
  192.9220  174.3240  137.0090 C   0  0  0  0  0  3  0  0  0  0  0  0
  193.1760  176.3260  138.3480 C   0  0  0  0  0  3  0  0  0  0  0  0
  1 22  1  6  0  0  0
  1  2  1  0  0  0  0
  1  3  1  0  0  0  0
  2  6  1  0  0  0  0
  4  3  1  6  0  0  0
  4  5  1  0  0  0  0
  5  7  1  0  0  0  0
  5 11  1  0  0  0  0
  6  4  1  0  0  0  0
  6 10  1  0  0  0  0
  7  9  1  0  0  0  0
  9  8  1  0  0  0  0
 10  7  1  0  0  0  0
 11 14  1  0  0  0  0
 11  8  1  0  0  0  0
 12 14  1  0  0  0  0
 12 13  1  0  0  0  0
 14 13  1  0  0  0  0
 15 10  1  0  0  0  0
 16 17  2  0  0  0  0
 16 15  1  0  0  0  0
 18 16  1  0  0  0  0
 19 21  1  0  0  0  0
 20 21  2  0  0  0  0
 21 18  1  0  0  0  0
 23 22  2  0  0  0  0
 24 23  1  0  0  0  0
 25 27  1  0  0  0  0
 26 31  2  0  0  0  0
 27 29  2  0  0  0  0
 28 26  1  0  0  0  0
 29 24  1  0  0  0  0
 30 25  2  0  0  0  0
 30 26  1  0  0  0  0
 31 29  1  0  0  0  0
M  END
>  <MODEL>
3

>  <REMARK>
 VINA RESULT:      -7.6      3.373      8.703
  Name = 
  7 active torsions:
  status: ('A' for Active; 'I' for Inactive)
    1  A    between atoms: C_1  and  C_15
    2  A    between atoms: C_6  and  C_16
    3  A    between atoms: C_6  and  N_21
    4  A    between atoms: N_13  and  C_27
    5  A    between atoms: C_14  and  C_28
    6  A    between atoms: C_24  and  N_31
    7  A    between atoms: C_28  and  C_29
                            x       y       z     vdW  Elec       q    Type
                         _______ _______ _______ _____ _____    ______ ____

>  <TORSDO>
F 7

$$$$
=
 OpenBabel10222415283D

 31 35  0  0  1  0  0  0  0  0999 V2000
  185.6170  179.1690  141.0980 C   0  0  2  0  0  3  0  0  0  0  0  0
  184.0540  178.5350  141.8550 S   0  0  0  0  0  0  0  0  0  0  0  0
  185.6340  178.7910  139.6880 N   0  0  0  0  0  2  0  0  0  0  0  0
  184.5060  178.0150  139.3340 C   0  0  2  0  0  3  0  0  0  0  0  0
  183.8760  177.9400  137.9860 C   0  0  2  0  0  3  0  0  0  0  0  0
  183.6340  177.8270  140.2780 C   0  0  2  0  0  3  0  0  0  0  0  0
  182.4830  177.6130  138.3610 C   0  0  1  0  0  3  0  0  0  0  0  0
  183.1340  176.2130  136.6110 C   0  0  0  0  0  2  0  0  0  0  0  0
  181.9290  176.5810  137.4710 C   0  0  0  0  0  2  0  0  0  0  0  0
  182.3260  177.6180  139.6870 C   0  0  1  0  0  3  0  0  0  0  0  0
  184.3420  176.7880  137.2240 N   0  0  1  0  0  0  0  0  0  0  0  0
  186.5750  176.8050  136.3260 C   0  0  0  0  0  2  0  0  0  0  0  0
  185.6960  176.1920  135.4170 O   0  0  0  0  0  0  0  0  0  0  0  0
  185.1850  177.2840  136.1450 C   0  0  1  0  0  3  0  0  0  0  0  0
  181.2310  177.0310  140.4000 N   0  0  0  0  0  2  0  0  0  0  0  0
  180.1300  177.7510  140.9700 C   0  0  0  0  0  0  0  0  0  0  0  0
  179.1720  177.1040  141.4700 O   0  0  0  0  0  0  0  0  0  0  0  0
  180.1610  179.2470  141.0850 C   0  0  0  0  0  2  0  0  0  0  0  0
  179.9450  180.8430  142.8520 O   0  0  0  0  0  0  0  0  0  0  0  0
  180.9160  178.8470  143.4290 O   0  0  0  0  0  1  0  0  0  0  0  0
  180.3220  179.6940  142.5010 C   0  0  0  0  0  0  0  0  0  0  0  0
  186.8000  178.5740  141.7850 C   0  0  0  0  0  3  0  0  0  0  0  0
  186.6410  177.7020  142.7110 N   0  0  0  0  0  0  0  0  0  0  0  0
  187.7890  177.1400  143.3680 C   0  0  0  0  0  2  0  0  0  0  0  0
  188.7690  177.4240  147.0160 C   0  0  0  0  0  3  0  0  0  0  0  0
  186.5000  178.2350  146.7550 C   0  0  0  0  0  0  0  0  0  0  0  0
  188.8330  177.1630  145.6430 C   0  0  0  0  0  3  0  0  0  0  0  0
  185.3130  178.7800  147.3190 N   0  0  0  0  0  1  0  0  0  0  0  0
  187.7300  177.4370  144.8260 C   0  0  0  0  0  0  0  0  0  0  0  0
  187.6020  177.9590  147.5700 C   0  0  0  0  0  3  0  0  0  0  0  0
  186.5620  177.9690  145.3840 C   0  0  0  0  0  3  0  0  0  0  0  0
  1 22  1  1  0  0  0
  1  2  1  0  0  0  0
  3  1  1  0  0  0  0
  4  3  1  1  0  0  0
  4  6  1  0  0  0  0
  5  7  1  0  0  0  0
  5  4  1  0  0  0  0
  6  2  1  0  0  0  0
  7 10  1  0  0  0  0
  8 11  1  0  0  0  0
  8  9  1  0  0  0  0
  9  7  1  0  0  0  0
 10  6  1  0  0  0  0
 10 15  1  0  0  0  0
 11  5  1  0  0  0  0
 13 14  1  0  0  0  0
 13 12  1  0  0  0  0
 14 12  1  0  0  0  0
 14 11  1  0  0  0  0
 15 16  1  0  0  0  0
 16 18  1  0  0  0  0
 16 17  2  0  0  0  0
 18 21  1  0  0  0  0
 21 19  2  0  0  0  0
 21 20  1  0  0  0  0
 22 23  2  0  0  0  0
 23 24  1  0  0  0  0
 24 29  1  0  0  0  0
 25 30  1  0  0  0  0
 26 28  1  0  0  0  0
 26 30  2  0  0  0  0
 27 25  2  0  0  0  0
 29 31  2  0  0  0  0
 29 27  1  0  0  0  0
 31 26  1  0  0  0  0
M  END
>  <MODEL>
4

>  <REMARK>
 VINA RESULT:      -7.6      5.264      7.475
  Name = 
  7 active torsions:
  status: ('A' for Active; 'I' for Inactive)
    1  A    between atoms: C_1  and  C_15
    2  A    between atoms: C_6  and  C_16
    3  A    between atoms: C_6  and  N_21
    4  A    between atoms: N_13  and  C_27
    5  A    between atoms: C_14  and  C_28
    6  A    between atoms: C_24  and  N_31
    7  A    between atoms: C_28  and  C_29
                            x       y       z     vdW  Elec       q    Type
                         _______ _______ _______ _____ _____    ______ ____

>  <TORSDO>
F 7

$$$$
=
 OpenBabel10222415283D

 31 35  0  0  1  0  0  0  0  0999 V2000
  189.0530  176.6530  142.2280 C   0  0  2  0  0  3  0  0  0  0  0  0
  187.6280  177.8290  142.3020 S   0  0  0  0  0  0  0  0  0  0  0  0
  189.5360  176.4270  143.5860 N   0  0  0  0  0  2  0  0  0  0  0  0
  188.8320  177.2030  144.5350 C   0  0  2  0  0  3  0  0  0  0  0  0
  188.6110  176.8570  145.9680 C   0  0  2  0  0  3  0  0  0  0  0  0
  187.8550  177.9180  144.0630 C   0  0  2  0  0  3  0  0  0  0  0  0
  187.3430  177.5730  146.2230 C   0  0  1  0  0  3  0  0  0  0  0  0
  188.8100  178.0030  147.9850 C   0  0  0  0  0  2  0  0  0  0  0  0
  187.3760  178.2520  147.5270 C   0  0  0  0  0  2  0  0  0  0  0  0
  186.8670  178.1270  145.1050 C   0  0  1  0  0  3  0  0  0  0  0  0
  189.5870  177.4950  146.8440 N   0  0  1  0  0  0  0  0  0  0  0  0
  191.7110  176.4060  146.5350 C   0  0  0  0  0  2  0  0  0  0  0  0
  191.6750  177.0450  147.7860 O   0  0  0  0  0  0  0  0  0  0  0  0
  190.4740  176.4560  147.3480 C   0  0  1  0  0  3  0  0  0  0  0  0
  185.8680  179.1520  145.0400 N   0  0  0  0  0  2  0  0  0  0  0  0
  184.6810  179.1040  144.2390 C   0  0  0  0  0  0  0  0  0  0  0  0
  183.8250  180.0190  144.3620 O   0  0  0  0  0  0  0  0  0  0  0  0
  184.5040  178.0550  143.1810 C   0  0  0  0  0  2  0  0  0  0  0  0
  182.7710  178.4160  141.5740 O   0  0  0  0  0  1  0  0  0  0  0  0
  184.7940  179.3780  141.0850 O   0  0  0  0  0  0  0  0  0  0  0  0
  183.9650  178.6290  141.9110 C   0  0  0  0  0  0  0  0  0  0  0  0
  190.1530  177.2270  141.3990 C   0  0  0  0  0  3  0  0  0  0  0  0
  190.6300  176.5670  140.4100 N   0  0  0  0  0  0  0  0  0  0  0  0
  191.6940  177.1280  139.6220 C   0  0  0  0  0  2  0  0  0  0  0  0
  192.4400  175.7390  136.1790 C   0  0  0  0  0  3  0  0  0  0  0  0
  190.1850  176.6280  136.1870 C   0  0  0  0  0  0  0  0  0  0  0  0
  192.5860  176.0990  137.5230 C   0  0  0  0  0  3  0  0  0  0  0  0
  188.9640  176.8970  135.5090 N   0  0  0  0  0  1  0  0  0  0  0  0
  191.5330  176.7250  138.1990 C   0  0  0  0  0  0  0  0  0  0  0  0
  191.2400  176.0040  135.5120 C   0  0  0  0  0  3  0  0  0  0  0  0
  190.3330  176.9920  137.5280 C   0  0  0  0  0  3  0  0  0  0  0  0
  1 22  1  6  0  0  0
  1  2  1  0  0  0  0
  1  3  1  0  0  0  0
  2  6  1  0  0  0  0
  4  3  1  6  0  0  0
  4  5  1  0  0  0  0
  5  7  1  0  0  0  0
  5 11  1  0  0  0  0
  6  4  1  0  0  0  0
  6 10  1  0  0  0  0
  7  9  1  0  0  0  0
  9  8  1  0  0  0  0
 10  7  1  0  0  0  0
 11 14  1  0  0  0  0
 11  8  1  0  0  0  0
 12 14  1  0  0  0  0
 12 13  1  0  0  0  0
 14 13  1  0  0  0  0
 15 10  1  0  0  0  0
 16 17  2  0  0  0  0
 16 15  1  0  0  0  0
 18 16  1  0  0  0  0
 19 21  1  0  0  0  0
 20 21  2  0  0  0  0
 21 18  1  0  0  0  0
 23 22  2  0  0  0  0
 24 23  1  0  0  0  0
 25 27  1  0  0  0  0
 26 31  2  0  0  0  0
 27 29  2  0  0  0  0
 28 26  1  0  0  0  0
 29 24  1  0  0  0  0
 30 25  2  0  0  0  0
 30 26  1  0  0  0  0
 31 29  1  0  0  0  0
M  END
>  <MODEL>
5

>  <REMARK>
 VINA RESULT:      -7.4      3.361      8.741
  Name = 
  7 active torsions:
  status: ('A' for Active; 'I' for Inactive)
    1  A    between atoms: C_1  and  C_15
    2  A    between atoms: C_6  and  C_16
    3  A    between atoms: C_6  and  N_21
    4  A    between atoms: N_13  and  C_27
    5  A    between atoms: C_14  and  C_28
    6  A    between atoms: C_24  and  N_31
    7  A    between atoms: C_28  and  C_29
                            x       y       z     vdW  Elec       q    Type
                         _______ _______ _______ _____ _____    ______ ____

>  <TORSDO>
F 7

$$$$
=
 OpenBabel10222415283D

 31 35  0  0  1  0  0  0  0  0999 V2000
  184.1740  179.2620  139.6200 C   0  0  2  0  0  3  0  0  0  0  0  0
  183.2530  178.2150  138.4080 S   0  0  0  0  0  0  0  0  0  0  0  0
  185.6010  178.9960  139.4700 N   0  0  0  0  0  2  0  0  0  0  0  0
  185.8540  177.9910  138.5080 C   0  0  2  0  0  3  0  0  0  0  0  0
  187.0860  177.8540  137.6800 C   0  0  2  0  0  3  0  0  0  0  0  0
  184.8100  177.5320  137.8870 C   0  0  2  0  0  3  0  0  0  0  0  0
  186.5330  177.1700  136.4910 C   0  0  1  0  0  3  0  0  0  0  0  0
  188.5040  176.0930  137.1230 C   0  0  0  0  0  2  0  0  0  0  0  0
  187.4300  176.0950  136.0390 C   0  0  0  0  0  2  0  0  0  0  0  0
  185.2060  177.0480  136.5780 C   0  0  1  0  0  3  0  0  0  0  0  0
  188.0320  176.9050  138.2560 N   0  0  1  0  0  0  0  0  0  0  0  0
  189.2950  177.4910  140.2190 C   0  0  0  0  0  2  0  0  0  0  0  0
  190.1060  176.7770  139.3200 O   0  0  0  0  0  0  0  0  0  0  0  0
  189.1710  177.6630  138.7530 C   0  0  1  0  0  3  0  0  0  0  0  0
  184.3960  176.1630  135.7940 N   0  0  0  0  0  2  0  0  0  0  0  0
  183.7580  174.9750  136.2780 C   0  0  0  0  0  0  0  0  0  0  0  0
  182.9770  174.3480  135.5140 O   0  0  0  0  0  0  0  0  0  0  0  0
  184.0990  174.4070  137.6240 C   0  0  0  0  0  2  0  0  0  0  0  0
  184.1620  172.0280  137.3950 O   0  0  0  0  0  0  0  0  0  0  0  0
  186.2000  173.0630  137.5700 O   0  0  0  0  0  1  0  0  0  0  0  0
  184.8130  173.0990  137.5140 C   0  0  0  0  0  0  0  0  0  0  0  0
  183.7520  178.9320  141.0130 C   0  0  0  0  0  3  0  0  0  0  0  0
  184.5870  179.0190  141.9810 N   0  0  0  0  0  0  0  0  0  0  0  0
  184.1690  178.6940  143.3170 C   0  0  0  0  0  2  0  0  0  0  0  0
  186.5300  178.2510  146.2450 C   0  0  0  0  0  3  0  0  0  0  0  0
  187.5230  177.2290  144.2840 C   0  0  0  0  0  0  0  0  0  0  0  0
  185.4120  178.6150  145.4880 C   0  0  0  0  0  3  0  0  0  0  0  0
  188.5960  176.5240  143.6720 N   0  0  0  0  0  1  0  0  0  0  0  0
  185.3490  178.2880  144.1290 C   0  0  0  0  0  0  0  0  0  0  0  0
  187.5850  177.5580  145.6420 C   0  0  0  0  0  3  0  0  0  0  0  0
  186.4080  177.5980  143.5270 C   0  0  0  0  0  3  0  0  0  0  0  0
  1 22  1  1  0  0  0
  2  1  1  0  0  0  0
  3  1  1  0  0  0  0
  4  3  1  6  0  0  0
  5 11  1  0  0  0  0
  5  4  1  0  0  0  0
  6  2  1  0  0  0  0
  6  4  1  0  0  0  0
  7 10  1  0  0  0  0
  7  5  1  0  0  0  0
  8 11  1  0  0  0  0
  9  7  1  0  0  0  0
  9  8  1  0  0  0  0
 10  6  1  0  0  0  0
 11 14  1  0  0  0  0
 13 12  1  0  0  0  0
 14 13  1  0  0  0  0
 14 12  1  0  0  0  0
 15 16  1  0  0  0  0
 15 10  1  0  0  0  0
 16 18  1  0  0  0  0
 17 16  2  0  0  0  0
 19 21  2  0  0  0  0
 21 20  1  0  0  0  0
 21 18  1  0  0  0  0
 22 23  2  0  0  0  0
 23 24  1  0  0  0  0
 24 29  1  0  0  0  0
 26 30  2  0  0  0  0
 27 25  2  0  0  0  0
 28 26  1  0  0  0  0
 29 27  1  0  0  0  0
 30 25  1  0  0  0  0
 31 29  2  0  0  0  0
 31 26  1  0  0  0  0
M  END
>  <MODEL>
6

>  <REMARK>
 VINA RESULT:      -7.4      3.709      5.670
  Name = 
  7 active torsions:
  status: ('A' for Active; 'I' for Inactive)
    1  A    between atoms: C_1  and  C_15
    2  A    between atoms: C_6  and  C_16
    3  A    between atoms: C_6  and  N_21
    4  A    between atoms: N_13  and  C_27
    5  A    between atoms: C_14  and  C_28
    6  A    between atoms: C_24  and  N_31
    7  A    between atoms: C_28  and  C_29
                            x       y       z     vdW  Elec       q    Type
                         _______ _______ _______ _____ _____    ______ ____

>  <TORSDO>
F 7

$$$$
=
 OpenBabel10222415283D

 31 35  0  0  1  0  0  0  0  0999 V2000
  184.9080  179.1950  143.7320 C   0  0  2  0  0  3  0  0  0  0  0  0
  183.1490  178.7200  143.4190 S   0  0  0  0  0  0  0  0  0  0  0  0
  185.6320  179.1460  142.4660 N   0  0  0  0  0  2  0  0  0  0  0  0
  184.8130  178.6970  141.4040 C   0  0  2  0  0  3  0  0  0  0  0  0
  184.9670  179.0470  139.9640 C   0  0  2  0  0  3  0  0  0  0  0  0
  183.5700  178.4740  141.7090 C   0  0  2  0  0  3  0  0  0  0  0  0
  183.5670  178.9170  139.5060 C   0  0  1  0  0  3  0  0  0  0  0  0
  184.9570  177.8440  137.9700 C   0  0  0  0  0  2  0  0  0  0  0  0
  183.5010  178.2350  138.2050 C   0  0  0  0  0  2  0  0  0  0  0  0
  182.7470  178.6560  140.5280 C   0  0  1  0  0  3  0  0  0  0  0  0
  185.7020  178.0260  139.2260 N   0  0  1  0  0  0  0  0  0  0  0  0
  188.0680  177.8780  139.6400 C   0  0  0  0  0  2  0  0  0  0  0  0
  187.7950  177.5740  138.2960 O   0  0  0  0  0  0  0  0  0  0  0  0
  187.0040  178.5800  138.8840 C   0  0  1  0  0  3  0  0  0  0  0  0
  181.4130  178.1460  140.4190 N   0  0  0  0  0  2  0  0  0  0  0  0
  180.2210  178.9400  140.3750 C   0  0  0  0  0  0  0  0  0  0  0  0
  179.1180  178.3730  140.1590 O   0  0  0  0  0  0  0  0  0  0  0  0
  180.2560  180.4050  140.6990 C   0  0  0  0  0  2  0  0  0  0  0  0
  180.9160  181.0040  138.4810 O   0  0  0  0  0  0  0  0  0  0  0  0
  179.3040  182.3300  139.4290 O   0  0  0  0  0  1  0  0  0  0  0  0
  180.1770  181.2500  139.4700 C   0  0  0  0  0  0  0  0  0  0  0  0
  185.5340  178.2470  144.7000 C   0  0  0  0  0  3  0  0  0  0  0  0
  186.5570  178.6040  145.3850 N   0  0  0  0  0  0  0  0  0  0  0  0
  187.1540  177.6800  146.3100 C   0  0  0  0  0  2  0  0  0  0  0  0
  190.3900  177.4500  144.3550 C   0  0  0  0  0  3  0  0  0  0  0  0
  190.8570  176.9910  146.6890 C   0  0  0  0  0  0  0  0  0  0  0  0
  189.0380  177.6380  144.6640 C   0  0  0  0  0  3  0  0  0  0  0  0
  191.7810  176.6620  147.7190 N   0  0  0  0  0  1  0  0  0  0  0  0
  188.5950  177.5010  145.9840 C   0  0  0  0  0  0  0  0  0  0  0  0
  191.2980  177.1260  145.3680 C   0  0  0  0  0  3  0  0  0  0  0  0
  189.5050  177.1740  146.9960 C   0  0  0  0  0  3  0  0  0  0  0  0
  1 22  1  1  0  0  0
  2  1  1  0  0  0  0
  3  1  1  0  0  0  0
  4  6  1  0  0  0  0
  4  3  1  1  0  0  0
  5  4  1  0  0  0  0
  6  2  1  0  0  0  0
  7  5  1  0  0  0  0
  7 10  1  0  0  0  0
  8  9  1  0  0  0  0
  8 11  1  0  0  0  0
  9  7  1  0  0  0  0
 10  6  1  0  0  0  0
 11  5  1  0  0  0  0
 13 14  1  0  0  0  0
 13 12  1  0  0  0  0
 14 11  1  0  0  0  0
 14 12  1  0  0  0  0
 15 10  1  0  0  0  0
 16 15  1  0  0  0  0
 16 18  1  0  0  0  0
 17 16  2  0  0  0  0
 19 21  2  0  0  0  0
 20 21  1  0  0  0  0
 21 18  1  0  0  0  0
 22 23  2  0  0  0  0
 23 24  1  0  0  0  0
 25 27  2  0  0  0  0
 25 30  1  0  0  0  0
 26 31  1  0  0  0  0
 26 28  1  0  0  0  0
 27 29  1  0  0  0  0
 29 24  1  0  0  0  0
 29 31  2  0  0  0  0
 30 26  2  0  0  0  0
M  END
>  <MODEL>
7

>  <REMARK>
 VINA RESULT:      -7.2      5.092      7.273
  Name = 
  7 active torsions:
  status: ('A' for Active; 'I' for Inactive)
    1  A    between atoms: C_1  and  C_15
    2  A    between atoms: C_6  and  C_16
    3  A    between atoms: C_6  and  N_21
    4  A    between atoms: N_13  and  C_27
    5  A    between atoms: C_14  and  C_28
    6  A    between atoms: C_24  and  N_31
    7  A    between atoms: C_28  and  C_29
                            x       y       z     vdW  Elec       q    Type
                         _______ _______ _______ _____ _____    ______ ____

>  <TORSDO>
F 7

$$$$
=
 OpenBabel10222415283D

 31 35  0  0  1  0  0  0  0  0999 V2000
  184.3280  179.5410  143.6920 C   0  0  2  0  0  3  0  0  0  0  0  0
  182.7210  178.9730  142.9780 S   0  0  0  0  0  0  0  0  0  0  0  0
  185.3580  179.4190  142.6650 N   0  0  0  0  0  2  0  0  0  0  0  0
  184.8520  178.8560  141.4710 C   0  0  2  0  0  3  0  0  0  0  0  0
  185.3700  179.0960  140.0940 C   0  0  2  0  0  3  0  0  0  0  0  0
  183.5760  178.6090  141.4620 C   0  0  2  0  0  3  0  0  0  0  0  0
  184.1400  178.8750  139.3040 C   0  0  1  0  0  3  0  0  0  0  0  0
  185.9010  177.7390  138.2780 C   0  0  0  0  0  2  0  0  0  0  0  0
  184.4280  178.0900  138.0940 C   0  0  0  0  0  2  0  0  0  0  0  0
  183.0880  178.6640  140.0980 C   0  0  1  0  0  3  0  0  0  0  0  0
  186.2900  178.0490  139.6630 N   0  0  1  0  0  0  0  0  0  0  0  0
  188.4780  178.0010  140.6620 C   0  0  0  0  0  2  0  0  0  0  0  0
  188.5560  177.6140  139.3130 O   0  0  0  0  0  0  0  0  0  0  0  0
  187.6260  178.6240  139.6220 C   0  0  1  0  0  3  0  0  0  0  0  0
  181.8370  178.0950  139.6920 N   0  0  0  0  0  2  0  0  0  0  0  0
  180.5900  178.7970  139.6190 C   0  0  0  0  0  0  0  0  0  0  0  0
  179.5870  178.2100  139.1350 O   0  0  0  0  0  0  0  0  0  0  0  0
  180.4360  180.1650  140.2160 C   0  0  0  0  0  2  0  0  0  0  0  0
  179.5230  182.0590  139.0760 O   0  0  0  0  0  1  0  0  0  0  0  0
  181.5420  181.3050  138.2920 O   0  0  0  0  0  0  0  0  0  0  0  0
  180.4710  181.2360  139.1740 C   0  0  0  0  0  0  0  0  0  0  0  0
  184.6970  178.6980  144.8670 C   0  0  0  0  0  3  0  0  0  0  0  0
  185.6580  179.0490  145.6390 N   0  0  0  0  0  0  0  0  0  0  0  0
  186.0070  178.2270  146.7650 C   0  0  0  0  0  2  0  0  0  0  0  0
  189.5860  177.4660  147.7430 C   0  0  0  0  0  3  0  0  0  0  0  0
  189.3510  177.1550  145.3510 C   0  0  0  0  0  0  0  0  0  0  0  0
  188.2340  177.8160  147.8300 C   0  0  0  0  0  3  0  0  0  0  0  0
  189.9180  176.8190  144.0900 N   0  0  0  0  0  1  0  0  0  0  0  0
  187.4400  177.8350  146.6780 C   0  0  0  0  0  0  0  0  0  0  0  0
  190.1430  177.1370  146.5030 C   0  0  0  0  0  3  0  0  0  0  0  0
  188.0010  177.5080  145.4370 C   0  0  0  0  0  3  0  0  0  0  0  0
  1 22  1  1  0  0  0
  2  1  1  0  0  0  0
  3  1  1  0  0  0  0
  4  3  1  1  0  0  0
  5  4  1  0  0  0  0
  6  4  1  0  0  0  0
  6  2  1  0  0  0  0
  7  5  1  0  0  0  0
  7 10  1  0  0  0  0
  8 11  1  0  0  0  0
  9  8  1  0  0  0  0
  9  7  1  0  0  0  0
 10  6  1  0  0  0  0
 11  5  1  0  0  0  0
 13 14  1  0  0  0  0
 13 12  1  0  0  0  0
 14 11  1  0  0  0  0
 14 12  1  0  0  0  0
 15 10  1  0  0  0  0
 16 15  1  0  0  0  0
 16 18  1  0  0  0  0
 17 16  2  0  0  0  0
 19 21  1  0  0  0  0
 20 21  2  0  0  0  0
 21 18  1  0  0  0  0
 22 23  2  0  0  0  0
 23 24  1  0  0  0  0
 25 27  1  0  0  0  0
 26 31  2  0  0  0  0
 26 30  1  0  0  0  0
 28 26  1  0  0  0  0
 29 24  1  0  0  0  0
 29 27  2  0  0  0  0
 30 25  2  0  0  0  0
 31 29  1  0  0  0  0
M  END
>  <MODEL>
8

>  <REMARK>
 VINA RESULT:      -7.1      4.875      7.106
  Name = 
  7 active torsions:
  status: ('A' for Active; 'I' for Inactive)
    1  A    between atoms: C_1  and  C_15
    2  A    between atoms: C_6  and  C_16
    3  A    between atoms: C_6  and  N_21
    4  A    between atoms: N_13  and  C_27
    5  A    between atoms: C_14  and  C_28
    6  A    between atoms: C_24  and  N_31
    7  A    between atoms: C_28  and  C_29
                            x       y       z     vdW  Elec       q    Type
                         _______ _______ _______ _____ _____    ______ ____

>  <TORSDO>
F 7

$$$$
=
 OpenBabel10222415283D

 31 35  0  0  1  0  0  0  0  0999 V2000
  189.5420  178.0420  139.2970 C   0  0  2  0  0  3  0  0  0  0  0  0
  189.9450  177.1970  140.8900 S   0  0  0  0  0  0  0  0  0  0  0  0
  188.1640  178.5190  139.3630 N   0  0  0  0  0  2  0  0  0  0  0  0
  187.5330  178.1490  140.5730 C   0  0  2  0  0  3  0  0  0  0  0  0
  186.4280  178.8830  141.2510 C   0  0  2  0  0  3  0  0  0  0  0  0
  188.2830  177.5220  141.4290 C   0  0  2  0  0  3  0  0  0  0  0  0
  186.6710  178.4930  142.6560 C   0  0  1  0  0  3  0  0  0  0  0  0
  184.3920  178.2740  142.2040 C   0  0  0  0  0  2  0  0  0  0  0  0
  185.4070  178.1750  143.3390 C   0  0  0  0  0  2  0  0  0  0  0  0
  187.7840  177.7650  142.7690 C   0  0  1  0  0  3  0  0  0  0  0  0
  185.1180  178.3280  140.9260 N   0  0  1  0  0  0  0  0  0  0  0  0
  184.0680  178.6530  138.7850 C   0  0  0  0  0  2  0  0  0  0  0  0
  183.1270  178.8240  139.8140 O   0  0  0  0  0  0  0  0  0  0  0  0
  184.4310  179.2870  140.0740 C   0  0  1  0  0  3  0  0  0  0  0  0
  188.1400  176.9510  143.8940 N   0  0  0  0  0  2  0  0  0  0  0  0
  189.0510  177.3260  144.9340 C   0  0  0  0  0  0  0  0  0  0  0  0
  189.1870  176.5650  145.9290 O   0  0  0  0  0  0  0  0  0  0  0  0
  189.9250  178.5380  144.7970 C   0  0  0  0  0  2  0  0  0  0  0  0
  192.1530  179.0880  144.1250 O   0  0  0  0  0  1  0  0  0  0  0  0
  191.6240  176.8570  144.0800 O   0  0  0  0  0  0  0  0  0  0  0  0
  191.2980  178.1850  144.3250 C   0  0  0  0  0  0  0  0  0  0  0  0
  189.6830  177.0900  138.1560 C   0  0  0  0  0  3  0  0  0  0  0  0
  190.7950  176.4860  137.9510 N   0  0  0  0  0  0  0  0  0  0  0  0
  190.9200  175.5750  136.8470 C   0  0  0  0  0  2  0  0  0  0  0  0
  193.4730  172.8030  136.4760 C   0  0  0  0  0  3  0  0  0  0  0  0
  194.3820  174.5070  137.9410 C   0  0  0  0  0  0  0  0  0  0  0  0
  192.3030  173.5560  136.3280 C   0  0  0  0  0  3  0  0  0  0  0  0
  195.4390  174.9910  138.7610 N   0  0  0  0  0  1  0  0  0  0  0  0
  192.1720  174.7830  136.9870 C   0  0  0  0  0  0  0  0  0  0  0  0
  194.5120  173.2790  137.2830 C   0  0  0  0  0  3  0  0  0  0  0  0
  193.2110  175.2560  137.7960 C   0  0  0  0  0  3  0  0  0  0  0  0
  1 22  1  6  0  0  0
  1  3  1  0  0  0  0
  1  2  1  0  0  0  0
  2  6  1  0  0  0  0
  4  3  1  1  0  0  0
  4  5  1  0  0  0  0
  4  6  1  0  0  0  0
  5  7  1  0  0  0  0
  6 10  1  0  0  0  0
  7 10  1  0  0  0  0
  7  9  1  0  0  0  0
  8  9  1  0  0  0  0
 10 15  1  0  0  0  0
 11  5  1  0  0  0  0
 11  8  1  0  0  0  0
 12 13  1  0  0  0  0
 12 14  1  0  0  0  0
 13 14  1  0  0  0  0
 14 11  1  0  0  0  0
 15 16  1  0  0  0  0
 16 17  2  0  0  0  0
 18 16  1  0  0  0  0
 19 21  1  0  0  0  0
 20 21  2  0  0  0  0
 21 18  1  0  0  0  0
 23 22  2  0  0  0  0
 24 29  1  0  0  0  0
 24 23  1  0  0  0  0
 25 30  1  0  0  0  0
 26 28  1  0  0  0  0
 27 25  2  0  0  0  0
 27 29  1  0  0  0  0
 29 31  2  0  0  0  0
 30 26  2  0  0  0  0
 31 26  1  0  0  0  0
M  END
>  <MODEL>
9

>  <REMARK>
 VINA RESULT:      -7.0      3.662      8.932
  Name = 
  7 active torsions:
  status: ('A' for Active; 'I' for Inactive)
    1  A    between atoms: C_1  and  C_15
    2  A    between atoms: C_6  and  C_16
    3  A    between atoms: C_6  and  N_21
    4  A    between atoms: N_13  and  C_27
    5  A    between atoms: C_14  and  C_28
    6  A    between atoms: C_24  and  N_31
    7  A    between atoms: C_28  and  C_29
                            x       y       z     vdW  Elec       q    Type
                         _______ _______ _______ _____ _____    ______ ____

>  <TORSDO>
F 7

$$$$
