=
 OpenBabel10222416453D

 45 50  0  0  1  0  0  0  0  0999 V2000
  187.2990  174.8650  134.9060 C   0  0  0  0  0  2  0  0  0  0  0  0
  188.8320  174.7380  135.1180 C   0  0  0  0  0  2  0  0  0  0  0  0
  191.7070  177.1900  140.2560 C   0  0  0  0  0  2  0  0  0  0  0  0
  189.4270  176.8670  139.0880 C   0  0  1  0  0  3  0  0  0  0  0  0
  189.4960  175.7160  136.1450 C   0  0  1  0  0  3  0  0  0  0  0  0
  188.3790  177.9240  135.4380 C   0  0  1  0  0  3  0  0  0  0  0  0
  191.4650  175.9090  138.2850 C   0  0  0  0  0  0  0  0  0  0  0  0
  189.5240  178.1540  134.6700 O   0  0  0  0  0  1  0  0  0  0  0  0
  191.8450  175.5610  136.8870 C   0  0  2  0  0  3  0  0  0  0  0  0
  187.2550  177.3300  134.5940 C   0  0  0  0  0  2  0  0  0  0  0  0
  187.1690  176.4310  136.8600 C   0  0  1  0  0  0  0  0  0  0  0  0
  187.1610  175.2580  137.6370 O   0  0  0  0  0  1  0  0  0  0  0  0
  189.1880  177.7090  137.8170 C   0  0  0  0  0  2  0  0  0  0  0  0
  190.9240  176.0820  135.8630 N   0  0  1  0  0  0  0  0  0  0  0  0
  192.0890  174.1030  136.5870 C   0  0  1  0  0  3  0  0  0  0  0  0
  190.1620  175.7030  138.7280 O   0  0  0  0  0  0  0  0  0  0  0  0
  188.6060  176.9370  136.6020 C   0  0  1  0  0  0  0  0  0  0  0  0
  192.2350  176.6630  138.9990 N   0  0  0  0  0  0  0  0  0  0  0  0
  190.2640  177.7260  140.0660 C   0  0  1  0  0  3  0  0  0  0  0  0
  192.0230  174.0670  135.0720 C   0  0  0  0  0  2  0  0  0  0  0  0
  191.4310  175.4260  134.6510 C   0  0  0  0  0  2  0  0  0  0  0  0
  186.6910  176.1710  135.4240 C   0  0  2  0  0  3  0  0  0  0  0  0
  188.3300  178.0430  141.4550 O   0  0  0  0  0  0  0  0  0  0  0  0
  190.3630  177.8890  142.5750 N   0  0  0  0  0  1  0  0  0  0  0  0
  189.5850  177.9180  141.3830 C   0  0  0  0  0  0  0  0  0  0  0  0
  193.4720  173.6900  137.0560 C   0  0  0  0  0  2  0  0  0  0  0  0
  194.4940  174.7880  136.7800 C   0  0  1  0  0  3  0  0  0  0  0  0
  195.1070  175.2060  137.9660 O   0  0  0  0  0  1  0  0  0  0  0  0
  195.7390  175.0050  134.5940 N   0  0  0  0  0  2  0  0  0  0  0  0
  196.0250  173.1020  135.9410 N   0  0  0  0  0  1  0  0  0  0  0  0
  195.5340  174.2950  135.8110 C   0  0  0  0  0  0  0  0  0  0  0  0
  186.2710  177.4820  137.5420 C   0  0  0  0  0  2  0  0  0  0  0  0
  184.7860  177.1490  137.3800 C   0  0  0  0  0  2  0  0  0  0  0  0
  183.9570  178.1790  137.9920 N   0  0  0  0  0  2  0  0  0  0  0  0
  184.3940  178.4390  139.3700 C   0  0  1  0  0  3  0  0  0  0  0  0
  184.5670  179.8170  139.5730 O   0  0  0  0  0  1  0  0  0  0  0  0
  183.4230  177.8280  140.4100 C   0  0  1  0  0  3  0  0  0  0  0  0
  184.3320  179.0010  144.4510 C   0  0  0  0  0  3  0  0  0  0  0  0
  185.0130  178.0540  142.3240 C   0  0  0  0  0  3  0  0  0  0  0  0
  183.0450  179.2090  143.9440 C   0  0  0  0  0  3  0  0  0  0  0  0
  185.3160  178.4230  143.6410 C   0  0  0  0  0  3  0  0  0  0  0  0
  182.7420  178.8410  142.6280 C   0  0  0  0  0  3  0  0  0  0  0  0
  183.7300  178.2680  141.8090 C   0  0  0  0  0  0  0  0  0  0  0  0
  181.4600  177.0770  139.2240 O   0  0  0  0  0  1  0  0  0  0  0  0
  181.9530  178.0820  140.0620 C   0  0  0  0  0  2  0  0  0  0  0  0
  1  2  1  0  0  0  0
  1 22  1  0  0  0  0
  4 13  1  6  0  0  0
  4 19  1  0  0  0  0
  5  2  1  6  0  0  0
  5 17  1  0  0  0  0
  6  8  1  6  0  0  0
  6 17  1  0  0  0  0
  7 16  1  0  0  0  0
  7 18  2  0  0  0  0
  9  7  1  1  0  0  0
 10  6  1  0  0  0  0
 11 32  1  0  0  0  0
 11 12  1  1  0  0  0
 14 21  1  6  0  0  0
 14  5  1  0  0  0  0
 14  9  1  0  0  0  0
 15  9  1  0  0  0  0
 15 26  1  6  0  0  0
 16  4  1  0  0  0  0
 17 11  1  0  0  0  0
 17 13  1  1  0  0  0
 18  3  1  0  0  0  0
 19  3  1  0  0  0  0
 19 25  1  1  0  0  0
 20 15  1  0  0  0  0
 21 20  1  0  0  0  0
 22 10  1  6  0  0  0
 22 11  1  0  0  0  0
 25 23  2  0  0  0  0
 25 24  1  0  0  0  0
 27 26  1  0  0  0  0
 27 28  1  1  0  0  0
 29 31  2  0  0  0  0
 31 30  1  0  0  0  0
 31 27  1  0  0  0  0
 33 32  1  0  0  0  0
 33 34  1  0  0  0  0
 34 35  1  0  0  0  0
 35 36  1  1  0  0  0
 35 37  1  0  0  0  0
 37 45  1  6  0  0  0
 37 43  1  0  0  0  0
 39 41  1  0  0  0  0
 40 38  1  0  0  0  0
 41 38  2  0  0  0  0
 42 40  2  0  0  0  0
 43 39  2  0  0  0  0
 43 42  1  0  0  0  0
 44 45  1  0  0  0  0
M  END
>  <MODEL>
1

>  <REMARK>
 VINA RESULT:      -7.2      0.000      0.000
  Name = 
  11 active torsions:
  status: ('A' for Active; 'I' for Inactive)
    1  A    between atoms: C_4  and  C_5
    2  A    between atoms: C_4  and  N_40
    3  A    between atoms: C_5  and  C_31
    4  A    between atoms: C_5  and  C_45
    5  A    between atoms: C_7  and  C_15
    6  A    between atoms: C_7  and  C_29
    7  A    between atoms: C_15  and  C_44
    8  A    between atoms: C_19  and  C_24
    9  A    between atoms: C_19  and  C_34
   10  A    between atoms: C_34  and  N_40
   11  A    between atoms: C_37  and  C_38
                            x       y       z     vdW  Elec       q    Type
                         _______ _______ _______ _____ _____    ______ ____

>  <TORSDO>
F 11

$$$$
=
 OpenBabel10222416453D

 45 50  0  0  1  0  0  0  0  0999 V2000
  180.2280  177.1670  140.4130 C   0  0  0  0  0  2  0  0  0  0  0  0
  180.3410  176.7150  138.9320 C   0  0  0  0  0  2  0  0  0  0  0  0
  185.8900  176.9190  135.7930 C   0  0  0  0  0  2  0  0  0  0  0  0
  184.7530  177.3760  138.0660 C   0  0  1  0  0  3  0  0  0  0  0  0
  181.5970  177.1960  138.1300 C   0  0  1  0  0  3  0  0  0  0  0  0
  181.6410  179.6740  138.8240 C   0  0  1  0  0  3  0  0  0  0  0  0
  183.6290  176.3720  136.2090 C   0  0  0  0  0  0  0  0  0  0  0  0
  180.9450  179.9260  137.6380 O   0  0  0  0  0  1  0  0  0  0  0  0
  182.1800  176.4120  135.8630 C   0  0  2  0  0  3  0  0  0  0  0  0
  180.6920  179.5760  140.0140 C   0  0  0  0  0  2  0  0  0  0  0  0
  182.5720  178.0510  140.3120 C   0  0  1  0  0  0  0  0  0  0  0  0
  182.9500  176.7150  140.5440 O   0  0  0  0  0  1  0  0  0  0  0  0
  183.8110  178.5970  138.1220 C   0  0  0  0  0  2  0  0  0  0  0  0
  181.3970  177.3760  136.6530 N   0  0  1  0  0  0  0  0  0  0  0  0
  181.4380  175.0990  135.8720 C   0  0  1  0  0  3  0  0  0  0  0  0
  184.0290  176.2710  137.5390 O   0  0  0  0  0  0  0  0  0  0  0  0
  182.4370  178.3520  138.8030 C   0  0  1  0  0  0  0  0  0  0  0  0
  184.5160  176.7220  135.3360 N   0  0  0  0  0  0  0  0  0  0  0  0
  185.9210  177.7300  137.1140 C   0  0  1  0  0  3  0  0  0  0  0  0
  179.9890  175.5450  135.9080 C   0  0  0  0  0  2  0  0  0  0  0  0
  180.0260  177.0480  136.2410 C   0  0  0  0  0  2  0  0  0  0  0  0
  181.1420  178.3340  140.7940 C   0  0  2  0  0  3  0  0  0  0  0  0
  188.2010  176.9860  137.2380 O   0  0  0  0  0  0  0  0  0  0  0  0
  187.4730  178.3060  139.0100 N   0  0  0  0  0  1  0  0  0  0  0  0
  187.2540  177.6220  137.7800 C   0  0  0  0  0  0  0  0  0  0  0  0
  181.7120  174.3260  134.5950 C   0  0  0  0  0  2  0  0  0  0  0  0
  182.3360  172.9690  134.9020 C   0  0  1  0  0  3  0  0  0  0  0  0
  183.5480  173.1200  135.5820 O   0  0  0  0  0  1  0  0  0  0  0  0
  181.8810  171.4500  136.8680 N   0  0  0  0  0  1  0  0  0  0  0  0
  180.2230  171.8230  135.2460 N   0  0  0  0  0  2  0  0  0  0  0  0
  181.3870  172.1390  135.7230 C   0  0  0  0  0  0  0  0  0  0  0  0
  183.5730  178.9800  141.0260 C   0  0  0  0  0  2  0  0  0  0  0  0
  184.6220  178.1860  141.8100 C   0  0  0  0  0  2  0  0  0  0  0  0
  184.3090  178.1850  143.2330 N   0  0  0  0  0  2  0  0  0  0  0  0
  185.3680  178.8630  143.9930 C   0  0  1  0  0  3  0  0  0  0  0  0
  184.8990  180.0900  144.4890 O   0  0  0  0  0  1  0  0  0  0  0  0
  185.9320  177.9690  145.1240 C   0  0  1  0  0  3  0  0  0  0  0  0
  189.9970  176.7770  144.3590 C   0  0  0  0  0  3  0  0  0  0  0  0
  188.3290  177.7820  145.8050 C   0  0  0  0  0  3  0  0  0  0  0  0
  189.0110  176.5230  143.4010 C   0  0  0  0  0  3  0  0  0  0  0  0
  189.6560  177.4060  145.5620 C   0  0  0  0  0  3  0  0  0  0  0  0
  187.6840  176.8970  143.6440 C   0  0  0  0  0  3  0  0  0  0  0  0
  187.3370  177.5220  144.8540 C   0  0  0  0  0  0  0  0  0  0  0  0
  184.5520  178.4020  147.0550 O   0  0  0  0  0  1  0  0  0  0  0  0
  185.8170  178.6250  146.5030 C   0  0  0  0  0  2  0  0  0  0  0  0
  1 22  1  0  0  0  0
  2  1  1  0  0  0  0
  3 19  1  0  0  0  0
  4 13  1  6  0  0  0
  5 17  1  0  0  0  0
  5  2  1  1  0  0  0
  6  8  1  6  0  0  0
  6 10  1  0  0  0  0
  7 16  1  0  0  0  0
  9 15  1  0  0  0  0
  9  7  1  1  0  0  0
  9 14  1  0  0  0  0
 11 12  1  1  0  0  0
 11 22  1  0  0  0  0
 11 32  1  0  0  0  0
 14 21  1  1  0  0  0
 14  5  1  0  0  0  0
 15 26  1  6  0  0  0
 15 20  1  0  0  0  0
 16  4  1  0  0  0  0
 17 13  1  6  0  0  0
 17  6  1  0  0  0  0
 17 11  1  0  0  0  0
 18  3  1  0  0  0  0
 18  7  2  0  0  0  0
 19 25  1  1  0  0  0
 19  4  1  0  0  0  0
 20 21  1  0  0  0  0
 22 10  1  6  0  0  0
 23 25  2  0  0  0  0
 25 24  1  0  0  0  0
 26 27  1  0  0  0  0
 27 28  1  1  0  0  0
 27 31  1  0  0  0  0
 30 31  2  0  0  0  0
 31 29  1  0  0  0  0
 32 33  1  0  0  0  0
 33 34  1  0  0  0  0
 34 35  1  0  0  0  0
 35 36  1  1  0  0  0
 35 37  1  0  0  0  0
 37 45  1  1  0  0  0
 38 41  1  0  0  0  0
 40 42  1  0  0  0  0
 40 38  2  0  0  0  0
 41 39  2  0  0  0  0
 42 43  2  0  0  0  0
 43 37  1  0  0  0  0
 43 39  1  0  0  0  0
 45 44  1  0  0  0  0
M  END
>  <MODEL>
2

>  <REMARK>
 VINA RESULT:      -7.2      4.404      8.382
  Name = 
  11 active torsions:
  status: ('A' for Active; 'I' for Inactive)
    1  A    between atoms: C_4  and  C_5
    2  A    between atoms: C_4  and  N_40
    3  A    between atoms: C_5  and  C_31
    4  A    between atoms: C_5  and  C_45
    5  A    between atoms: C_7  and  C_15
    6  A    between atoms: C_7  and  C_29
    7  A    between atoms: C_15  and  C_44
    8  A    between atoms: C_19  and  C_24
    9  A    between atoms: C_19  and  C_34
   10  A    between atoms: C_34  and  N_40
   11  A    between atoms: C_37  and  C_38
                            x       y       z     vdW  Elec       q    Type
                         _______ _______ _______ _____ _____    ______ ____

>  <TORSDO>
F 11

$$$$
=
 OpenBabel10222416453D

 45 50  0  0  1  0  0  0  0  0999 V2000
  187.5630  177.4100  139.7690 C   0  0  0  0  0  2  0  0  0  0  0  0
  187.4350  176.6110  138.4440 C   0  0  0  0  0  2  0  0  0  0  0  0
  192.4740  173.7670  135.7600 C   0  0  0  0  0  2  0  0  0  0  0  0
  191.6970  175.1800  137.7770 C   0  0  1  0  0  3  0  0  0  0  0  0
  188.7540  176.3280  137.6480 C   0  0  1  0  0  3  0  0  0  0  0  0
  189.8420  178.6580  137.7540 C   0  0  1  0  0  3  0  0  0  0  0  0
  190.2030  174.3110  136.1230 C   0  0  0  0  0  0  0  0  0  0  0  0
  189.2780  178.8800  136.4950 O   0  0  0  0  0  1  0  0  0  0  0  0
  188.8920  174.8560  135.6720 C   0  0  2  0  0  3  0  0  0  0  0  0
  188.9730  179.2460  138.8620 C   0  0  0  0  0  2  0  0  0  0  0  0
  190.0590  177.2050  139.6400 C   0  0  1  0  0  0  0  0  0  0  0  0
  189.8560  175.9300  140.2010 O   0  0  0  0  0  1  0  0  0  0  0  0
  191.3480  176.6540  137.4810 C   0  0  0  0  0  2  0  0  0  0  0  0
  188.6030  176.2140  136.1590 N   0  0  1  0  0  0  0  0  0  0  0  0
  187.6730  174.0060  135.9280 C   0  0  1  0  0  3  0  0  0  0  0  0
  190.5640  174.3770  137.4660 O   0  0  0  0  0  0  0  0  0  0  0  0
  190.0160  177.1640  138.0960 C   0  0  1  0  0  0  0  0  0  0  0  0
  191.1290  174.0460  135.2600 N   0  0  0  0  0  0  0  0  0  0  0  0
  192.8770  174.7860  136.8570 C   0  0  1  0  0  3  0  0  0  0  0  0
  186.5400  174.9990  135.7540 C   0  0  0  0  0  2  0  0  0  0  0  0
  187.2070  176.3880  135.7340 C   0  0  0  0  0  2  0  0  0  0  0  0
  188.8900  178.1550  139.9370 C   0  0  2  0  0  3  0  0  0  0  0  0
  194.6940  175.0780  138.4020 O   0  0  0  0  0  0  0  0  0  0  0  0
  194.4440  172.9360  137.5310 N   0  0  0  0  0  1  0  0  0  0  0  0
  194.0650  174.3040  137.6260 C   0  0  0  0  0  0  0  0  0  0  0  0
  187.5640  172.9070  134.8870 C   0  0  0  0  0  2  0  0  0  0  0  0
  187.5560  171.5300  135.5450 C   0  0  1  0  0  3  0  0  0  0  0  0
  187.8080  171.6330  136.9160 O   0  0  0  0  0  1  0  0  0  0  0  0
  186.1910  169.6300  134.5940 N   0  0  0  0  0  2  0  0  0  0  0  0
  185.1280  171.5120  135.5150 N   0  0  0  0  0  1  0  0  0  0  0  0
  186.2300  170.8570  135.3160 C   0  0  0  0  0  0  0  0  0  0  0  0
  191.3760  177.7840  140.1930 C   0  0  0  0  0  2  0  0  0  0  0  0
  191.7550  177.1490  141.5330 C   0  0  0  0  0  2  0  0  0  0  0  0
  191.1250  177.8620  142.6370 N   0  0  0  0  0  2  0  0  0  0  0  0
  190.2490  176.9600  143.3980 C   0  0  1  0  0  3  0  0  0  0  0  0
  190.7930  175.6670  143.4290 O   0  0  0  0  0  1  0  0  0  0  0  0
  189.9670  177.4940  144.8240 C   0  0  1  0  0  3  0  0  0  0  0  0
  185.7590  178.0560  145.5350 C   0  0  0  0  0  3  0  0  0  0  0  0
  187.6030  177.6070  144.0240 C   0  0  0  0  0  3  0  0  0  0  0  0
  186.6560  178.1220  146.6060 C   0  0  0  0  0  3  0  0  0  0  0  0
  186.2330  177.7980  144.2440 C   0  0  0  0  0  3  0  0  0  0  0  0
  188.0250  177.9310  146.3880 C   0  0  0  0  0  3  0  0  0  0  0  0
  188.5040  177.6640  145.0930 C   0  0  0  0  0  0  0  0  0  0  0  0
  191.8630  177.1970  146.2860 O   0  0  0  0  0  1  0  0  0  0  0  0
  190.6340  176.6460  145.9110 C   0  0  0  0  0  2  0  0  0  0  0  0
  1 22  1  0  0  0  0
  2  1  1  0  0  0  0
  3 19  1  0  0  0  0
  4 13  1  6  0  0  0
  5 17  1  0  0  0  0
  5  2  1  6  0  0  0
  6  8  1  6  0  0  0
  6 17  1  0  0  0  0
  6 10  1  0  0  0  0
  7 16  1  0  0  0  0
  9 15  1  0  0  0  0
  9  7  1  1  0  0  0
  9 14  1  0  0  0  0
 11 22  1  0  0  0  0
 11 32  1  0  0  0  0
 11 12  1  1  0  0  0
 14 21  1  1  0  0  0
 14  5  1  0  0  0  0
 15 26  1  6  0  0  0
 16  4  1  0  0  0  0
 17 13  1  6  0  0  0
 17 11  1  0  0  0  0
 18  3  1  0  0  0  0
 18  7  2  0  0  0  0
 19 25  1  1  0  0  0
 19  4  1  0  0  0  0
 20 15  1  0  0  0  0
 21 20  1  0  0  0  0
 22 10  1  6  0  0  0
 24 25  1  0  0  0  0
 25 23  2  0  0  0  0
 26 27  1  0  0  0  0
 27 28  1  1  0  0  0
 29 31  2  0  0  0  0
 31 30  1  0  0  0  0
 31 27  1  0  0  0  0
 32 33  1  0  0  0  0
 33 34  1  0  0  0  0
 34 35  1  0  0  0  0
 35 36  1  1  0  0  0
 35 37  1  0  0  0  0
 37 43  1  0  0  0  0
 37 45  1  1  0  0  0
 38 40  1  0  0  0  0
 39 41  1  0  0  0  0
 39 43  2  0  0  0  0
 41 38  2  0  0  0  0
 42 40  2  0  0  0  0
 43 42  1  0  0  0  0
 45 44  1  0  0  0  0
M  END
>  <MODEL>
3

>  <REMARK>
 VINA RESULT:      -6.7      2.844      6.269
  Name = 
  11 active torsions:
  status: ('A' for Active; 'I' for Inactive)
    1  A    between atoms: C_4  and  C_5
    2  A    between atoms: C_4  and  N_40
    3  A    between atoms: C_5  and  C_31
    4  A    between atoms: C_5  and  C_45
    5  A    between atoms: C_7  and  C_15
    6  A    between atoms: C_7  and  C_29
    7  A    between atoms: C_15  and  C_44
    8  A    between atoms: C_19  and  C_24
    9  A    between atoms: C_19  and  C_34
   10  A    between atoms: C_34  and  N_40
   11  A    between atoms: C_37  and  C_38
                            x       y       z     vdW  Elec       q    Type
                         _______ _______ _______ _____ _____    ______ ____

>  <TORSDO>
F 11

$$$$
=
 OpenBabel10222416453D

 45 50  0  0  1  0  0  0  0  0999 V2000
  187.1830  177.8300  138.7340 C   0  0  0  0  0  2  0  0  0  0  0  0
  186.6530  176.8500  137.6530 C   0  0  0  0  0  2  0  0  0  0  0  0
  190.4510  172.5040  134.9380 C   0  0  0  0  0  2  0  0  0  0  0  0
  190.3580  174.4010  136.6870 C   0  0  1  0  0  3  0  0  0  0  0  0
  187.7160  176.1370  136.7500 C   0  0  1  0  0  3  0  0  0  0  0  0
  189.2240  178.1420  136.1760 C   0  0  1  0  0  3  0  0  0  0  0  0
  188.4370  173.6010  135.5080 C   0  0  0  0  0  0  0  0  0  0  0  0
  188.4810  178.2500  134.9980 O   0  0  0  0  0  1  0  0  0  0  0  0
  187.1900  174.3340  135.1490 C   0  0  2  0  0  3  0  0  0  0  0  0
  188.7120  179.1030  137.2450 C   0  0  0  0  0  2  0  0  0  0  0  0
  189.5220  177.0490  138.2820 C   0  0  1  0  0  0  0  0  0  0  0  0
  189.1940  175.9780  139.1340 O   0  0  0  0  0  1  0  0  0  0  0  0
  190.2430  175.8360  136.1290 C   0  0  0  0  0  2  0  0  0  0  0  0
  187.2620  175.7880  135.3620 N   0  0  1  0  0  0  0  0  0  0  0  0
  185.9050  173.8410  135.7660 C   0  0  1  0  0  3  0  0  0  0  0  0
  189.0550  173.8300  136.7340 O   0  0  0  0  0  0  0  0  0  0  0  0
  189.1760  176.7360  136.8090 C   0  0  1  0  0  0  0  0  0  0  0  0
  189.1130  172.9820  134.5960 N   0  0  0  0  0  0  0  0  0  0  0  0
  191.2430  173.5900  135.7110 C   0  0  1  0  0  3  0  0  0  0  0  0
  184.9690  175.0140  135.5480 C   0  0  0  0  0  2  0  0  0  0  0  0
  185.8700  176.1890  135.1230 C   0  0  0  0  0  2  0  0  0  0  0  0
  188.6330  178.2760  138.5340 C   0  0  2  0  0  3  0  0  0  0  0  0
  193.0000  173.5940  137.3500 O   0  0  0  0  0  0  0  0  0  0  0  0
  192.9200  171.7310  135.9590 N   0  0  0  0  0  1  0  0  0  0  0  0
  192.4440  173.0050  136.3810 C   0  0  0  0  0  0  0  0  0  0  0  0
  185.3930  172.6220  135.0210 C   0  0  0  0  0  2  0  0  0  0  0  0
  184.7440  171.6290  135.9790 C   0  0  1  0  0  3  0  0  0  0  0  0
  184.7370  172.1300  137.2850 O   0  0  0  0  0  1  0  0  0  0  0  0
  182.3780  172.3820  135.5140 N   0  0  0  0  0  1  0  0  0  0  0  0
  182.9320  170.1000  135.4570 N   0  0  0  0  0  2  0  0  0  0  0  0
  183.3370  171.3290  135.5370 C   0  0  0  0  0  0  0  0  0  0  0  0
  191.0060  177.4100  138.4900 C   0  0  0  0  0  2  0  0  0  0  0  0
  191.5980  176.6900  139.7040 C   0  0  0  0  0  2  0  0  0  0  0  0
  191.5340  177.5390  140.8870 N   0  0  0  0  0  2  0  0  0  0  0  0
  190.4110  177.1390  141.7470 C   0  0  1  0  0  3  0  0  0  0  0  0
  190.5530  175.7990  142.1400 O   0  0  0  0  0  1  0  0  0  0  0  0
  190.2550  178.0780  142.9690 C   0  0  1  0  0  3  0  0  0  0  0  0
  186.5440  177.4270  145.0520 C   0  0  0  0  0  3  0  0  0  0  0  0
  188.9460  177.7690  145.0740 C   0  0  0  0  0  3  0  0  0  0  0  0
  186.5450  177.5280  143.6570 C   0  0  0  0  0  3  0  0  0  0  0  0
  187.7450  177.5480  145.7600 C   0  0  0  0  0  3  0  0  0  0  0  0
  187.7450  177.7500  142.9700 C   0  0  0  0  0  3  0  0  0  0  0  0
  188.9510  177.8800  143.6800 C   0  0  0  0  0  0  0  0  0  0  0  0
  191.9810  179.2410  144.1870 O   0  0  0  0  0  1  0  0  0  0  0  0
  191.4340  177.9790  143.9400 C   0  0  0  0  0  2  0  0  0  0  0  0
  2  1  1  0  0  0  0
  3 19  1  0  0  0  0
  4 13  1  6  0  0  0
  4 16  1  0  0  0  0
  5 17  1  0  0  0  0
  5  2  1  6  0  0  0
  6  8  1  6  0  0  0
  6 17  1  0  0  0  0
  6 10  1  0  0  0  0
  7 16  1  0  0  0  0
  9 14  1  0  0  0  0
  9  7  1  1  0  0  0
  9 15  1  0  0  0  0
 11 32  1  0  0  0  0
 11 22  1  0  0  0  0
 11 12  1  1  0  0  0
 14 21  1  1  0  0  0
 14  5  1  0  0  0  0
 15 26  1  6  0  0  0
 17 13  1  6  0  0  0
 17 11  1  0  0  0  0
 18  3  1  0  0  0  0
 18  7  2  0  0  0  0
 19 25  1  1  0  0  0
 19  4  1  0  0  0  0
 20 15  1  0  0  0  0
 21 20  1  0  0  0  0
 22 10  1  6  0  0  0
 22  1  1  0  0  0  0
 24 25  1  0  0  0  0
 25 23  2  0  0  0  0
 26 27  1  0  0  0  0
 27 28  1  1  0  0  0
 29 31  1  0  0  0  0
 30 31  2  0  0  0  0
 31 27  1  0  0  0  0
 32 33  1  0  0  0  0
 33 34  1  0  0  0  0
 34 35  1  0  0  0  0
 35 36  1  1  0  0  0
 35 37  1  0  0  0  0
 37 43  1  0  0  0  0
 37 45  1  1  0  0  0
 38 41  1  0  0  0  0
 39 41  2  0  0  0  0
 40 38  2  0  0  0  0
 42 40  1  0  0  0  0
 42 43  2  0  0  0  0
 43 39  1  0  0  0  0
 45 44  1  0  0  0  0
M  END
>  <MODEL>
4

>  <REMARK>
 VINA RESULT:      -6.6      2.873      6.853
  Name = 
  11 active torsions:
  status: ('A' for Active; 'I' for Inactive)
    1  A    between atoms: C_4  and  C_5
    2  A    between atoms: C_4  and  N_40
    3  A    between atoms: C_5  and  C_31
    4  A    between atoms: C_5  and  C_45
    5  A    between atoms: C_7  and  C_15
    6  A    between atoms: C_7  and  C_29
    7  A    between atoms: C_15  and  C_44
    8  A    between atoms: C_19  and  C_24
    9  A    between atoms: C_19  and  C_34
   10  A    between atoms: C_34  and  N_40
   11  A    between atoms: C_37  and  C_38
                            x       y       z     vdW  Elec       q    Type
                         _______ _______ _______ _____ _____    ______ ____

>  <TORSDO>
F 11

$$$$
=
 OpenBabel10222416453D

 45 50  0  0  1  0  0  0  0  0999 V2000
  180.6860  177.5360  140.6260 C   0  0  0  0  0  2  0  0  0  0  0  0
  180.5500  176.7520  139.2930 C   0  0  0  0  0  2  0  0  0  0  0  0
  185.4950  176.0210  135.3310 C   0  0  0  0  0  2  0  0  0  0  0  0
  184.7540  177.0310  137.5890 C   0  0  1  0  0  3  0  0  0  0  0  0
  181.6540  176.9890  138.2070 C   0  0  1  0  0  3  0  0  0  0  0  0
  181.8090  179.5560  138.2880 C   0  0  1  0  0  3  0  0  0  0  0  0
  183.3360  175.6700  136.2260 C   0  0  0  0  0  0  0  0  0  0  0  0
  180.9240  179.5560  137.2070 O   0  0  0  0  0  1  0  0  0  0  0  0
  181.8490  175.6840  136.1210 C   0  0  2  0  0  3  0  0  0  0  0  0
  181.0730  179.7700  139.6080 C   0  0  0  0  0  2  0  0  0  0  0  0
  182.9790  178.2850  139.9410 C   0  0  1  0  0  0  0  0  0  0  0  0
  183.3930  177.0250  140.4130 O   0  0  0  0  0  1  0  0  0  0  0  0
  183.8320  178.2670  137.5120 C   0  0  0  0  0  2  0  0  0  0  0  0
  181.2080  176.8320  136.7820 N   0  0  1  0  0  0  0  0  0  0  0  0
  181.1210  174.4370  136.5570 C   0  0  1  0  0  3  0  0  0  0  0  0
  183.9530  175.8620  137.4590 O   0  0  0  0  0  0  0  0  0  0  0  0
  182.5920  178.2360  138.4460 C   0  0  1  0  0  0  0  0  0  0  0  0
  184.0640  175.7760  135.1620 N   0  0  0  0  0  0  0  0  0  0  0  0
  185.7450  177.1130  136.4030 C   0  0  1  0  0  3  0  0  0  0  0  0
  179.6980  174.9330  136.7240 C   0  0  0  0  0  2  0  0  0  0  0  0
  179.7880  176.4700  136.6870 C   0  0  0  0  0  2  0  0  0  0  0  0
  181.6490  178.7250  140.5700 C   0  0  2  0  0  3  0  0  0  0  0  0
  188.1010  176.7980  136.0520 O   0  0  0  0  0  0  0  0  0  0  0  0
  187.4850  177.5330  138.1720 N   0  0  0  0  0  1  0  0  0  0  0  0
  187.1710  177.1100  136.8490 C   0  0  0  0  0  0  0  0  0  0  0  0
  181.1790  173.3810  135.4680 C   0  0  0  0  0  2  0  0  0  0  0  0
  181.8640  172.1150  135.9700 C   0  0  1  0  0  3  0  0  0  0  0  0
  182.4370  172.3250  137.2280 O   0  0  0  0  0  1  0  0  0  0  0  0
  181.1190  169.8010  135.2860 N   0  0  0  0  0  2  0  0  0  0  0  0
  179.6940  171.1880  136.5360 N   0  0  0  0  0  1  0  0  0  0  0  0
  180.8740  170.9850  136.0390 C   0  0  0  0  0  0  0  0  0  0  0  0
  184.0840  179.3150  140.2460 C   0  0  0  0  0  2  0  0  0  0  0  0
  185.3240  178.6510  140.8500 C   0  0  0  0  0  2  0  0  0  0  0  0
  185.8580  179.4550  141.9420 N   0  0  0  0  0  2  0  0  0  0  0  0
  186.0350  178.6340  143.1470 C   0  0  1  0  0  3  0  0  0  0  0  0
  185.2230  177.4920  143.0800 O   0  0  0  0  0  1  0  0  0  0  0  0
  187.5200  178.2630  143.3820 C   0  0  1  0  0  3  0  0  0  0  0  0
  188.4340  177.4540  147.5100 C   0  0  0  0  0  3  0  0  0  0  0  0
  189.1340  177.6810  145.1980 C   0  0  0  0  0  3  0  0  0  0  0  0
  187.1240  177.7750  147.1420 C   0  0  0  0  0  3  0  0  0  0  0  0
  189.4390  177.4060  146.5370 C   0  0  0  0  0  3  0  0  0  0  0  0
  186.8180  178.0510  145.8040 C   0  0  0  0  0  3  0  0  0  0  0  0
  187.8270  178.0120  144.8270 C   0  0  0  0  0  0  0  0  0  0  0  0
  187.9260  175.8910  143.2220 O   0  0  0  0  0  1  0  0  0  0  0  0
  187.9780  177.0920  142.5080 C   0  0  0  0  0  2  0  0  0  0  0  0
  2  1  1  0  0  0  0
  3 19  1  0  0  0  0
  4 13  1  6  0  0  0
  5 17  1  0  0  0  0
  5  2  1  1  0  0  0
  6  8  1  6  0  0  0
  6 17  1  0  0  0  0
  6 10  1  0  0  0  0
  7 16  1  0  0  0  0
  9  7  1  1  0  0  0
  9 15  1  0  0  0  0
  9 14  1  0  0  0  0
 11 32  1  0  0  0  0
 11 12  1  1  0  0  0
 11 22  1  0  0  0  0
 14 21  1  1  0  0  0
 14  5  1  0  0  0  0
 15 26  1  6  0  0  0
 15 20  1  0  0  0  0
 16  4  1  0  0  0  0
 17 13  1  6  0  0  0
 17 11  1  0  0  0  0
 18  3  1  0  0  0  0
 18  7  2  0  0  0  0
 19 25  1  1  0  0  0
 19  4  1  0  0  0  0
 21 20  1  0  0  0  0
 22 10  1  6  0  0  0
 22  1  1  0  0  0  0
 23 25  2  0  0  0  0
 25 24  1  0  0  0  0
 26 27  1  0  0  0  0
 27 31  1  0  0  0  0
 27 28  1  1  0  0  0
 29 31  2  0  0  0  0
 31 30  1  0  0  0  0
 32 33  1  0  0  0  0
 33 34  1  0  0  0  0
 34 35  1  0  0  0  0
 35 36  1  6  0  0  0
 35 37  1  0  0  0  0
 37 45  1  6  0  0  0
 37 43  1  0  0  0  0
 39 41  1  0  0  0  0
 40 38  1  0  0  0  0
 41 38  2  0  0  0  0
 42 40  2  0  0  0  0
 43 39  2  0  0  0  0
 43 42  1  0  0  0  0
 45 44  1  0  0  0  0
M  END
>  <MODEL>
5

>  <REMARK>
 VINA RESULT:      -6.2      4.254      8.499
  Name = 
  11 active torsions:
  status: ('A' for Active; 'I' for Inactive)
    1  A    between atoms: C_4  and  C_5
    2  A    between atoms: C_4  and  N_40
    3  A    between atoms: C_5  and  C_31
    4  A    between atoms: C_5  and  C_45
    5  A    between atoms: C_7  and  C_15
    6  A    between atoms: C_7  and  C_29
    7  A    between atoms: C_15  and  C_44
    8  A    between atoms: C_19  and  C_24
    9  A    between atoms: C_19  and  C_34
   10  A    between atoms: C_34  and  N_40
   11  A    between atoms: C_37  and  C_38
                            x       y       z     vdW  Elec       q    Type
                         _______ _______ _______ _____ _____    ______ ____

>  <TORSDO>
F 11

$$$$
=
 OpenBabel10222416453D

 45 50  0  0  1  0  0  0  0  0999 V2000
  187.4810  174.5000  134.8220 C   0  0  0  0  0  2  0  0  0  0  0  0
  189.0080  174.6190  135.0780 C   0  0  0  0  0  2  0  0  0  0  0  0
  191.3040  177.3050  140.3880 C   0  0  0  0  0  2  0  0  0  0  0  0
  189.1390  176.6580  139.1370 C   0  0  1  0  0  3  0  0  0  0  0  0
  189.4750  175.6510  136.1590 C   0  0  1  0  0  3  0  0  0  0  0  0
  188.0270  177.6720  135.4940 C   0  0  1  0  0  3  0  0  0  0  0  0
  191.3290  176.0810  138.3670 C   0  0  0  0  0  0  0  0  0  0  0  0
  189.1370  178.1170  134.7720 O   0  0  0  0  0  1  0  0  0  0  0  0
  191.7970  175.8560  136.9700 C   0  0  2  0  0  3  0  0  0  0  0  0
  187.0380  176.9350  134.5940 C   0  0  0  0  0  2  0  0  0  0  0  0
  187.0430  175.9450  136.8240 C   0  0  1  0  0  0  0  0  0  0  0  0
  187.2100  174.7570  137.5590 O   0  0  0  0  0  1  0  0  0  0  0  0
  188.7980  177.4990  137.8880 C   0  0  0  0  0  2  0  0  0  0  0  0
  190.8290  176.2590  135.9370 N   0  0  1  0  0  0  0  0  0  0  0  0
  192.2870  174.4710  136.6280 C   0  0  1  0  0  3  0  0  0  0  0  0
  190.0660  175.6460  138.7600 O   0  0  0  0  0  0  0  0  0  0  0  0
  188.3830  176.6900  136.6300 C   0  0  1  0  0  0  0  0  0  0  0  0
  191.9440  176.9220  139.1310 N   0  0  0  0  0  0  0  0  0  0  0  0
  189.7970  177.6030  140.1710 C   0  0  1  0  0  3  0  0  0  0  0  0
  192.2670  174.4840  135.1120 C   0  0  0  0  0  2  0  0  0  0  0  0
  191.4690  175.7430  134.7190 C   0  0  0  0  0  2  0  0  0  0  0  0
  186.6520  175.6670  135.3650 C   0  0  2  0  0  3  0  0  0  0  0  0
  189.3140  176.7840  142.3770 O   0  0  0  0  0  0  0  0  0  0  0  0
  188.1150  178.6640  141.7120 N   0  0  0  0  0  1  0  0  0  0  0  0
  189.0620  177.6290  141.4710 C   0  0  0  0  0  0  0  0  0  0  0  0
  193.7060  174.2720  137.1260 C   0  0  0  0  0  2  0  0  0  0  0  0
  194.7190  174.8100  136.1200 C   0  0  1  0  0  3  0  0  0  0  0  0
  195.0740  176.1260  136.4280 O   0  0  0  0  0  1  0  0  0  0  0  0
  196.6910  173.7690  137.3070 N   0  0  0  0  0  1  0  0  0  0  0  0
  196.4730  173.5820  134.9750 N   0  0  0  0  0  2  0  0  0  0  0  0
  195.9450  173.9370  136.1050 C   0  0  0  0  0  0  0  0  0  0  0  0
  185.9670  176.8070  137.5130 C   0  0  0  0  0  2  0  0  0  0  0  0
  184.6090  176.1020  137.5380 C   0  0  0  0  0  2  0  0  0  0  0  0
  183.6930  176.7800  138.4450 N   0  0  0  0  0  2  0  0  0  0  0  0
  183.2630  178.0650  137.8770 C   0  0  1  0  0  3  0  0  0  0  0  0
  181.9520  177.9640  137.3860 O   0  0  0  0  0  1  0  0  0  0  0  0
  183.4020  179.2240  138.8940 C   0  0  1  0  0  3  0  0  0  0  0  0
  179.6550  181.0800  139.9170 C   0  0  0  0  0  3  0  0  0  0  0  0
  181.6430  180.9620  138.5320 C   0  0  0  0  0  3  0  0  0  0  0  0
  180.0940  179.9650  140.6380 C   0  0  0  0  0  3  0  0  0  0  0  0
  180.4300  181.5790  138.8630 C   0  0  0  0  0  3  0  0  0  0  0  0
  181.3050  179.3470  140.3070 C   0  0  0  0  0  3  0  0  0  0  0  0
  182.0820  179.8410  139.2440 C   0  0  0  0  0  0  0  0  0  0  0  0
  185.1890  179.7260  140.4340 O   0  0  0  0  0  1  0  0  0  0  0  0
  184.1710  178.8120  140.1530 C   0  0  0  0  0  2  0  0  0  0  0  0
  1  2  1  0  0  0  0
  1 22  1  0  0  0  0
  4 13  1  6  0  0  0
  4 19  1  0  0  0  0
  5  2  1  6  0  0  0
  5 17  1  0  0  0  0
  6  8  1  6  0  0  0
  6 17  1  0  0  0  0
  7 16  1  0  0  0  0
  7 18  2  0  0  0  0
  9  7  1  1  0  0  0
 10  6  1  0  0  0  0
 11 32  1  0  0  0  0
 11 12  1  1  0  0  0
 14 21  1  6  0  0  0
 14  5  1  0  0  0  0
 14  9  1  0  0  0  0
 15  9  1  0  0  0  0
 15 26  1  6  0  0  0
 16  4  1  0  0  0  0
 17 11  1  0  0  0  0
 17 13  1  1  0  0  0
 18  3  1  0  0  0  0
 19  3  1  0  0  0  0
 19 25  1  1  0  0  0
 20 15  1  0  0  0  0
 21 20  1  0  0  0  0
 22 10  1  6  0  0  0
 22 11  1  0  0  0  0
 25 24  1  0  0  0  0
 25 23  2  0  0  0  0
 27 28  1  1  0  0  0
 27 26  1  0  0  0  0
 30 31  2  0  0  0  0
 31 27  1  0  0  0  0
 31 29  1  0  0  0  0
 32 33  1  0  0  0  0
 33 34  1  0  0  0  0
 35 36  1  1  0  0  0
 35 34  1  0  0  0  0
 35 37  1  0  0  0  0
 37 43  1  0  0  0  0
 37 45  1  1  0  0  0
 38 40  1  0  0  0  0
 39 41  1  0  0  0  0
 39 43  2  0  0  0  0
 41 38  2  0  0  0  0
 42 40  2  0  0  0  0
 43 42  1  0  0  0  0
 45 44  1  0  0  0  0
M  END
>  <MODEL>
6

>  <REMARK>
 VINA RESULT:      -6.0      1.498      2.409
  Name = 
  11 active torsions:
  status: ('A' for Active; 'I' for Inactive)
    1  A    between atoms: C_4  and  C_5
    2  A    between atoms: C_4  and  N_40
    3  A    between atoms: C_5  and  C_31
    4  A    between atoms: C_5  and  C_45
    5  A    between atoms: C_7  and  C_15
    6  A    between atoms: C_7  and  C_29
    7  A    between atoms: C_15  and  C_44
    8  A    between atoms: C_19  and  C_24
    9  A    between atoms: C_19  and  C_34
   10  A    between atoms: C_34  and  N_40
   11  A    between atoms: C_37  and  C_38
                            x       y       z     vdW  Elec       q    Type
                         _______ _______ _______ _____ _____    ______ ____

>  <TORSDO>
F 11

$$$$
=
 OpenBabel10222416453D

 45 50  0  0  1  0  0  0  0  0999 V2000
  189.3750  175.6520  137.3660 C   0  0  0  0  0  2  0  0  0  0  0  0
  189.1600  176.4310  138.6910 C   0  0  0  0  0  2  0  0  0  0  0  0
  183.6530  179.3800  139.9750 C   0  0  0  0  0  2  0  0  0  0  0  0
  184.8950  177.9320  138.2360 C   0  0  1  0  0  3  0  0  0  0  0  0
  187.9810  177.4610  138.7330 C   0  0  1  0  0  3  0  0  0  0  0  0
  188.3510  178.6470  136.4800 C   0  0  1  0  0  3  0  0  0  0  0  0
  185.8050  178.4900  140.3760 C   0  0  0  0  0  0  0  0  0  0  0  0
  189.0540  179.6130  137.2050 O   0  0  0  0  0  1  0  0  0  0  0  0
  187.2340  178.6300  140.7750 C   0  0  2  0  0  3  0  0  0  0  0  0
  189.2960  177.6250  135.8560 C   0  0  0  0  0  2  0  0  0  0  0  0
  187.2010  176.5510  136.4960 C   0  0  1  0  0  0  0  0  0  0  0  0
  186.6190  175.5090  137.2420 O   0  0  0  0  0  1  0  0  0  0  0  0
  186.0220  178.6320  137.4470 C   0  0  0  0  0  2  0  0  0  0  0  0
  188.1780  178.6370  139.6450 N   0  0  1  0  0  0  0  0  0  0  0  0
  187.7550  177.6580  141.8040 C   0  0  1  0  0  3  0  0  0  0  0  0
  185.4210  177.4930  139.4830 O   0  0  0  0  0  0  0  0  0  0  0  0
  187.3530  177.8390  137.3350 C   0  0  1  0  0  0  0  0  0  0  0  0
  184.9680  179.4470  140.6100 N   0  0  0  0  0  0  0  0  0  0  0  0
  183.7800  178.9760  138.4840 C   0  0  1  0  0  3  0  0  0  0  0  0
  189.2570  177.7970  141.6510 C   0  0  0  0  0  2  0  0  0  0  0  0
  189.4690  178.5820  140.3420 C   0  0  0  0  0  2  0  0  0  0  0  0
  188.6690  176.2570  136.1500 C   0  0  2  0  0  3  0  0  0  0  0  0
  182.3720  178.0580  136.7670 O   0  0  0  0  0  0  0  0  0  0  0  0
  181.3030  178.6270  138.7540 N   0  0  0  0  0  1  0  0  0  0  0  0
  182.4610  178.5460  137.9290 C   0  0  0  0  0  0  0  0  0  0  0  0
  187.3340  178.0860  143.1980 C   0  0  0  0  0  2  0  0  0  0  0  0
  187.5340  176.9550  144.2010 C   0  0  1  0  0  3  0  0  0  0  0  0
  188.6740  176.2080  143.8860 O   0  0  0  0  0  1  0  0  0  0  0  0
  186.4880  178.0020  146.2470 N   0  0  0  0  0  1  0  0  0  0  0  0
  188.8230  177.8100  146.0720 N   0  0  0  0  0  2  0  0  0  0  0  0
  187.6550  177.5140  145.5920 C   0  0  0  0  0  0  0  0  0  0  0  0
  186.3780  176.7600  135.2110 C   0  0  0  0  0  2  0  0  0  0  0  0
  185.5870  175.5040  134.8350 C   0  0  0  0  0  2  0  0  0  0  0  0
  184.1550  175.7410  134.9610 N   0  0  0  0  0  2  0  0  0  0  0  0
  183.4530  174.4910  135.2790 C   0  0  1  0  0  3  0  0  0  0  0  0
  184.0730  173.4080  134.6370 O   0  0  0  0  0  1  0  0  0  0  0  0
  183.3430  174.2600  136.8060 C   0  0  1  0  0  3  0  0  0  0  0  0
  179.4940  175.4640  138.3110 C   0  0  0  0  0  3  0  0  0  0  0  0
  180.9310  174.8190  136.4670 C   0  0  0  0  0  3  0  0  0  0  0  0
  180.5640  175.3070  139.1970 C   0  0  0  0  0  3  0  0  0  0  0  0
  179.6770  175.2190  136.9460 C   0  0  0  0  0  3  0  0  0  0  0  0
  181.8170  174.9060  138.7200 C   0  0  0  0  0  3  0  0  0  0  0  0
  182.0030  174.6520  137.3500 C   0  0  0  0  0  0  0  0  0  0  0  0
  184.9870  172.7810  137.7710 O   0  0  0  0  0  1  0  0  0  0  0  0
  183.7060  172.8290  137.2120 C   0  0  0  0  0  2  0  0  0  0  0  0
  1  2  1  0  0  0  0
  3 18  1  0  0  0  0
  4 13  1  6  0  0  0
  4 19  1  0  0  0  0
  4 16  1  0  0  0  0
  5  2  1  6  0  0  0
  5 14  1  0  0  0  0
  6  8  1  1  0  0  0
  6 17  1  0  0  0  0
  7 18  2  0  0  0  0
  9  7  1  6  0  0  0
  9 15  1  0  0  0  0
 10  6  1  0  0  0  0
 11 12  1  1  0  0  0
 11 17  1  0  0  0  0
 14 21  1  1  0  0  0
 14  9  1  0  0  0  0
 15 26  1  1  0  0  0
 16  7  1  0  0  0  0
 17 13  1  1  0  0  0
 17  5  1  0  0  0  0
 19 25  1  1  0  0  0
 19  3  1  0  0  0  0
 20 15  1  0  0  0  0
 21 20  1  0  0  0  0
 22 10  1  1  0  0  0
 22 11  1  0  0  0  0
 22  1  1  0  0  0  0
 23 25  2  0  0  0  0
 25 24  1  0  0  0  0
 26 27  1  0  0  0  0
 27 28  1  6  0  0  0
 27 31  1  0  0  0  0
 31 30  2  0  0  0  0
 31 29  1  0  0  0  0
 32 11  1  0  0  0  0
 33 34  1  0  0  0  0
 33 32  1  0  0  0  0
 34 35  1  0  0  0  0
 35 36  1  6  0  0  0
 35 37  1  0  0  0  0
 37 45  1  6  0  0  0
 37 43  1  0  0  0  0
 38 40  1  0  0  0  0
 39 41  1  0  0  0  0
 39 43  2  0  0  0  0
 41 38  2  0  0  0  0
 42 40  2  0  0  0  0
 43 42  1  0  0  0  0
 45 44  1  0  0  0  0
M  END
>  <MODEL>
7

>  <REMARK>
 VINA RESULT:      -5.9      3.646      7.028
  Name = 
  11 active torsions:
  status: ('A' for Active; 'I' for Inactive)
    1  A    between atoms: C_4  and  C_5
    2  A    between atoms: C_4  and  N_40
    3  A    between atoms: C_5  and  C_31
    4  A    between atoms: C_5  and  C_45
    5  A    between atoms: C_7  and  C_15
    6  A    between atoms: C_7  and  C_29
    7  A    between atoms: C_15  and  C_44
    8  A    between atoms: C_19  and  C_24
    9  A    between atoms: C_19  and  C_34
   10  A    between atoms: C_34  and  N_40
   11  A    between atoms: C_37  and  C_38
                            x       y       z     vdW  Elec       q    Type
                         _______ _______ _______ _____ _____    ______ ____

>  <TORSDO>
F 11

$$$$
=
 OpenBabel10222416453D

 45 50  0  0  1  0  0  0  0  0999 V2000
  188.8520  175.7160  136.6780 C   0  0  0  0  0  2  0  0  0  0  0  0
  189.1780  176.2550  138.0960 C   0  0  0  0  0  2  0  0  0  0  0  0
  184.8320  179.3820  141.5620 C   0  0  0  0  0  2  0  0  0  0  0  0
  185.2440  178.1750  139.3180 C   0  0  1  0  0  3  0  0  0  0  0  0
  188.2310  177.3570  138.6790 C   0  0  1  0  0  3  0  0  0  0  0  0
  188.0340  178.9000  136.6290 C   0  0  1  0  0  3  0  0  0  0  0  0
  186.8520  178.2520  141.0860 C   0  0  0  0  0  0  0  0  0  0  0  0
  189.0590  179.6530  137.2080 O   0  0  0  0  0  1  0  0  0  0  0  0
  188.3390  178.1940  140.9990 C   0  0  2  0  0  3  0  0  0  0  0  0
  188.5800  177.9310  135.5840 C   0  0  0  0  0  2  0  0  0  0  0  0
  186.6650  176.9420  136.7260 C   0  0  1  0  0  0  0  0  0  0  0  0
  186.2060  175.8350  137.4650 O   0  0  0  0  0  1  0  0  0  0  0  0
  186.1520  178.9070  138.3070 C   0  0  0  0  0  2  0  0  0  0  0  0
  188.8690  178.3260  139.6330 N   0  0  1  0  0  0  0  0  0  0  0  0
  189.0150  177.0090  141.6430 C   0  0  1  0  0  3  0  0  0  0  0  0
  186.0700  177.4720  140.2400 O   0  0  0  0  0  0  0  0  0  0  0  0
  187.2540  178.0380  137.6430 C   0  0  1  0  0  0  0  0  0  0  0  0
  186.2760  179.2190  141.7220 N   0  0  0  0  0  0  0  0  0  0  0  0
  184.4240  179.2480  140.0720 C   0  0  1  0  0  3  0  0  0  0  0  0
  190.3960  177.0440  141.0180 C   0  0  0  0  0  2  0  0  0  0  0  0
  190.2930  178.0330  139.8410 C   0  0  0  0  0  2  0  0  0  0  0  0
  187.8910  176.5910  135.8690 C   0  0  2  0  0  3  0  0  0  0  0  0
  182.2250  178.8460  140.9520 O   0  0  0  0  0  0  0  0  0  0  0  0
  182.3530  179.1370  138.6470 N   0  0  0  0  0  1  0  0  0  0  0  0
  182.9500  179.0410  139.9360 C   0  0  0  0  0  0  0  0  0  0  0  0
  189.1210  177.2100  143.1440 C   0  0  0  0  0  2  0  0  0  0  0  0
  190.5060  177.7150  143.5320 C   0  0  1  0  0  3  0  0  0  0  0  0
  190.4250  178.9670  144.1480 O   0  0  0  0  0  1  0  0  0  0  0  0
  191.5140  177.1410  145.7750 N   0  0  0  0  0  1  0  0  0  0  0  0
  191.6880  175.6410  143.9750 N   0  0  0  0  0  2  0  0  0  0  0  0
  191.1750  176.7320  144.4540 C   0  0  0  0  0  0  0  0  0  0  0  0
  185.5160  177.4520  135.8350 C   0  0  0  0  0  2  0  0  0  0  0  0
  184.7650  176.2990  135.1640 C   0  0  0  0  0  2  0  0  0  0  0  0
  183.3290  176.4320  135.3690 N   0  0  0  0  0  2  0  0  0  0  0  0
  182.7180  175.1160  135.6010 C   0  0  1  0  0  3  0  0  0  0  0  0
  183.1160  174.2130  134.6020 O   0  0  0  0  0  1  0  0  0  0  0  0
  183.0320  174.5730  137.0170 C   0  0  1  0  0  3  0  0  0  0  0  0
  179.7210  174.8570  139.7530 C   0  0  0  0  0  3  0  0  0  0  0  0
  181.8830  175.6280  138.9690 C   0  0  0  0  0  3  0  0  0  0  0  0
  179.6960  173.8980  138.7350 C   0  0  0  0  0  3  0  0  0  0  0  0
  180.8150  175.7220  139.8700 C   0  0  0  0  0  3  0  0  0  0  0  0
  180.7620  173.8050  137.8330 C   0  0  0  0  0  3  0  0  0  0  0  0
  181.8590  174.6770  137.9430 C   0  0  0  0  0  0  0  0  0  0  0  0
  184.6020  172.9900  137.9380 O   0  0  0  0  0  1  0  0  0  0  0  0
  183.5880  173.1460  136.9880 C   0  0  0  0  0  2  0  0  0  0  0  0
  1  2  1  0  0  0  0
  3 18  1  0  0  0  0
  4 13  1  6  0  0  0
  4 19  1  0  0  0  0
  4 16  1  0  0  0  0
  5  2  1  6  0  0  0
  5 14  1  0  0  0  0
  6  8  1  1  0  0  0
  6 17  1  0  0  0  0
  7 18  2  0  0  0  0
  9  7  1  6  0  0  0
  9 15  1  0  0  0  0
 10  6  1  0  0  0  0
 11 12  1  1  0  0  0
 11 17  1  0  0  0  0
 14 21  1  1  0  0  0
 14  9  1  0  0  0  0
 15 26  1  1  0  0  0
 16  7  1  0  0  0  0
 17 13  1  1  0  0  0
 17  5  1  0  0  0  0
 19 25  1  1  0  0  0
 19  3  1  0  0  0  0
 20 15  1  0  0  0  0
 21 20  1  0  0  0  0
 22 10  1  1  0  0  0
 22  1  1  0  0  0  0
 22 11  1  0  0  0  0
 24 25  1  0  0  0  0
 25 23  2  0  0  0  0
 26 27  1  0  0  0  0
 27 28  1  1  0  0  0
 27 31  1  0  0  0  0
 30 31  2  0  0  0  0
 31 29  1  0  0  0  0
 32 11  1  0  0  0  0
 33 34  1  0  0  0  0
 33 32  1  0  0  0  0
 34 35  1  0  0  0  0
 35 36  1  6  0  0  0
 35 37  1  0  0  0  0
 37 45  1  6  0  0  0
 37 43  1  0  0  0  0
 38 41  1  0  0  0  0
 39 41  2  0  0  0  0
 40 38  2  0  0  0  0
 42 43  2  0  0  0  0
 42 40  1  0  0  0  0
 43 39  1  0  0  0  0
 45 44  1  0  0  0  0
M  END
>  <MODEL>
8

>  <REMARK>
 VINA RESULT:      -5.9      3.506      6.056
  Name = 
  11 active torsions:
  status: ('A' for Active; 'I' for Inactive)
    1  A    between atoms: C_4  and  C_5
    2  A    between atoms: C_4  and  N_40
    3  A    between atoms: C_5  and  C_31
    4  A    between atoms: C_5  and  C_45
    5  A    between atoms: C_7  and  C_15
    6  A    between atoms: C_7  and  C_29
    7  A    between atoms: C_15  and  C_44
    8  A    between atoms: C_19  and  C_24
    9  A    between atoms: C_19  and  C_34
   10  A    between atoms: C_34  and  N_40
   11  A    between atoms: C_37  and  C_38
                            x       y       z     vdW  Elec       q    Type
                         _______ _______ _______ _____ _____    ______ ____

>  <TORSDO>
F 11

$$$$
=
 OpenBabel10222416453D

 45 50  0  0  1  0  0  0  0  0999 V2000
  187.9380  174.3180  134.8580 C   0  0  0  0  0  2  0  0  0  0  0  0
  189.4370  174.5630  135.1810 C   0  0  0  0  0  2  0  0  0  0  0  0
  191.2670  177.4500  140.5660 C   0  0  0  0  0  2  0  0  0  0  0  0
  189.2200  176.6220  139.2260 C   0  0  1  0  0  3  0  0  0  0  0  0
  189.7690  175.6340  136.2730 C   0  0  1  0  0  3  0  0  0  0  0  0
  188.1910  177.5260  135.5300 C   0  0  1  0  0  3  0  0  0  0  0  0
  191.4820  176.2240  138.5570 C   0  0  0  0  0  0  0  0  0  0  0  0
  189.2910  178.0590  134.8540 O   0  0  0  0  0  1  0  0  0  0  0  0
  192.0280  176.0330  137.1840 C   0  0  2  0  0  3  0  0  0  0  0  0
  187.3070  176.7070  134.5940 C   0  0  0  0  0  2  0  0  0  0  0  0
  187.2950  175.7290  136.8290 C   0  0  1  0  0  0  0  0  0  0  0  0
  187.5250  174.5610  137.5800 O   0  0  0  0  0  1  0  0  0  0  0  0
  188.8660  177.4260  137.9570 C   0  0  0  0  0  2  0  0  0  0  0  0
  191.0780  176.3500  136.1060 N   0  0  1  0  0  0  0  0  0  0  0  0
  192.6450  174.6920  136.8740 C   0  0  1  0  0  3  0  0  0  0  0  0
  190.2430  175.6880  138.8980 O   0  0  0  0  0  0  0  0  0  0  0  0
  188.5760  176.5810  136.6880 C   0  0  1  0  0  0  0  0  0  0  0  0
  191.9910  177.1160  139.3410 N   0  0  0  0  0  0  0  0  0  0  0  0
  189.7520  177.6220  140.2800 C   0  0  1  0  0  3  0  0  0  0  0  0
  192.6910  174.6980  135.3580 C   0  0  0  0  0  2  0  0  0  0  0  0
  191.8110  175.8840  134.9210 C   0  0  0  0  0  2  0  0  0  0  0  0
  186.9930  175.4140  135.3560 C   0  0  2  0  0  3  0  0  0  0  0  0
  189.1770  176.7130  142.4290 O   0  0  0  0  0  0  0  0  0  0  0  0
  187.9970  178.6120  141.7870 N   0  0  0  0  0  1  0  0  0  0  0  0
  188.9600  177.5920  141.5470 C   0  0  0  0  0  0  0  0  0  0  0  0
  194.0530  174.6130  137.4350 C   0  0  0  0  0  2  0  0  0  0  0  0
  194.9030  173.6270  136.6410 C   0  0  1  0  0  3  0  0  0  0  0  0
  196.2540  173.9880  136.6850 O   0  0  0  0  0  1  0  0  0  0  0  0
  195.4400  171.8540  138.3570 N   0  0  0  0  0  1  0  0  0  0  0  0
  194.1690  171.3210  136.4550 N   0  0  0  0  0  2  0  0  0  0  0  0
  194.7260  172.2360  137.1850 C   0  0  0  0  0  0  0  0  0  0  0  0
  186.1220  176.5020  137.4630 C   0  0  0  0  0  2  0  0  0  0  0  0
  184.7780  176.0890  136.8560 C   0  0  0  0  0  2  0  0  0  0  0  0
  183.8390  175.7000  137.9000 N   0  0  0  0  0  2  0  0  0  0  0  0
  182.4590  175.9680  137.4760 C   0  0  1  0  0  3  0  0  0  0  0  0
  181.6190  174.9110  137.8600 O   0  0  0  0  0  1  0  0  0  0  0  0
  181.9430  177.3280  138.0090 C   0  0  1  0  0  3  0  0  0  0  0  0
  184.4960  178.8840  141.1070 C   0  0  0  0  0  3  0  0  0  0  0  0
  183.7220  178.8900  138.8070 C   0  0  0  0  0  3  0  0  0  0  0  0
  183.5860  177.8650  141.4070 C   0  0  0  0  0  3  0  0  0  0  0  0
  184.5640  179.3960  139.8060 C   0  0  0  0  0  3  0  0  0  0  0  0
  182.7440  177.3600  140.4110 C   0  0  0  0  0  3  0  0  0  0  0  0
  182.8040  177.8770  139.1050 C   0  0  0  0  0  0  0  0  0  0  0  0
  181.9310  177.7730  135.6390 O   0  0  0  0  0  1  0  0  0  0  0  0
  181.7440  178.3580  136.8940 C   0  0  0  0  0  2  0  0  0  0  0  0
  1  2  1  0  0  0  0
  1 22  1  0  0  0  0
  4 13  1  6  0  0  0
  4 19  1  0  0  0  0
  5  2  1  6  0  0  0
  5 17  1  0  0  0  0
  6  8  1  6  0  0  0
  6 17  1  0  0  0  0
  7 16  1  0  0  0  0
  7 18  2  0  0  0  0
  9  7  1  1  0  0  0
 10  6  1  0  0  0  0
 11 32  1  0  0  0  0
 11 12  1  1  0  0  0
 14 21  1  6  0  0  0
 14  5  1  0  0  0  0
 14  9  1  0  0  0  0
 15  9  1  0  0  0  0
 15 26  1  1  0  0  0
 16  4  1  0  0  0  0
 17 11  1  0  0  0  0
 17 13  1  1  0  0  0
 18  3  1  0  0  0  0
 19  3  1  0  0  0  0
 19 25  1  1  0  0  0
 20 15  1  0  0  0  0
 21 20  1  0  0  0  0
 22 10  1  6  0  0  0
 22 11  1  0  0  0  0
 25 24  1  0  0  0  0
 25 23  2  0  0  0  0
 27 28  1  1  0  0  0
 27 31  1  0  0  0  0
 27 26  1  0  0  0  0
 30 31  2  0  0  0  0
 31 29  1  0  0  0  0
 33 32  1  0  0  0  0
 33 34  1  0  0  0  0
 35 36  1  1  0  0  0
 35 34  1  0  0  0  0
 35 37  1  0  0  0  0
 37 45  1  6  0  0  0
 37 43  1  0  0  0  0
 38 40  1  0  0  0  0
 39 43  2  0  0  0  0
 39 41  1  0  0  0  0
 41 38  2  0  0  0  0
 42 40  2  0  0  0  0
 43 42  1  0  0  0  0
 44 45  1  0  0  0  0
M  END
>  <MODEL>
9

>  <REMARK>
 VINA RESULT:      -5.8      1.703      2.209
  Name = 
  11 active torsions:
  status: ('A' for Active; 'I' for Inactive)
    1  A    between atoms: C_4  and  C_5
    2  A    between atoms: C_4  and  N_40
    3  A    between atoms: C_5  and  C_31
    4  A    between atoms: C_5  and  C_45
    5  A    between atoms: C_7  and  C_15
    6  A    between atoms: C_7  and  C_29
    7  A    between atoms: C_15  and  C_44
    8  A    between atoms: C_19  and  C_24
    9  A    between atoms: C_19  and  C_34
   10  A    between atoms: C_34  and  N_40
   11  A    between atoms: C_37  and  C_38
                            x       y       z     vdW  Elec       q    Type
                         _______ _______ _______ _____ _____    ______ ____

>  <TORSDO>
F 11

$$$$
