=
 OpenBabel10222419313D

 42 44  0  0  1  0  0  0  0  0999 V2000
  187.9850  177.8630  140.4230 C   0  0  0  0  0  2  0  0  0  0  0  0
  187.5980  176.8470  135.8760 C   0  0  0  0  0  0  0  0  0  0  0  0
  185.9800  177.9520  137.8700 C   0  0  0  0  0  0  0  0  0  0  0  0
  189.6230  178.3530  138.6260 N   0  0  0  0  0  0  0  0  0  0  0  0
  189.5920  177.6080  137.3560 C   0  0  0  0  0  3  0  0  0  0  0  0
  188.1610  177.4300  137.0190 C   0  0  0  0  0  0  0  0  0  0  0  0
  185.1010  178.5540  138.9110 C   0  0  0  0  0  1  0  0  0  0  0  0
  186.1990  176.8190  135.7790 C   0  0  0  0  0  3  0  0  0  0  0  0
  187.3760  177.9770  137.9870 C   0  0  0  0  0  0  0  0  0  0  0  0
  185.4280  177.3660  136.7690 N   0  0  0  0  0  0  0  0  0  0  0  0
  188.2270  178.5400  139.0660 C   0  0  1  0  0  3  0  0  0  0  0  0
  188.4380  176.2780  134.7810 C   0  0  0  0  0  2  0  0  0  0  0  0
  188.7210  174.8060  135.0510 C   0  0  0  0  0  2  0  0  0  0  0  0
  189.3110  173.2340  137.3580 O   0  0  0  0  0  0  0  0  0  0  0  0
  190.2560  173.9000  136.8540 C   0  0  0  0  0  0  0  0  0  0  0  0
  192.7090  174.5880  137.0710 C   0  0  0  0  0  0  0  0  0  0  0  0
  190.0410  174.6460  135.6430 N   0  0  0  0  0  2  0  0  0  0  0  0
  191.5430  173.8610  137.4840 N   0  0  0  0  0  2  0  0  0  0  0  0
  192.6460  175.4500  136.1570 O   0  0  0  0  0  0  0  0  0  0  0  0
  194.0040  174.3890  137.7900 C   0  0  0  0  0  2  0  0  0  0  0  0
  194.5370  175.6330  138.1490 O   0  0  0  0  0  1  0  0  0  0  0  0
  189.2710  177.4220  141.1230 C   0  0  0  0  0  2  0  0  0  0  0  0
  189.6270  178.3740  142.2520 C   0  0  0  0  0  2  0  0  0  0  0  0
  191.2140  177.4220  144.1850 O   0  0  0  0  0  0  0  0  0  0  0  0
  189.2620  176.0770  143.5710 O   0  0  0  0  0  0  0  0  0  0  0  0
  189.7700  177.4750  143.7770 S   0  0  0  0  0  0  0  0  0  0  0  0
  188.8390  178.2820  145.0020 N   0  0  0  0  0  2  0  0  0  0  0  0
  187.7510  177.4010  145.4010 C   0  0  2  0  0  3  0  0  0  0  0  0
  186.4360  177.8980  144.8660 C   0  0  0  0  0  0  0  0  0  0  0  0
  184.0450  178.8300  143.7160 C   0  0  0  0  0  0  0  0  0  0  0  0
  182.8980  179.2990  143.1510 F   0  0  0  0  0  0  0  0  0  0  0  0
  185.7460  178.9180  147.0780 C   0  0  0  0  0  1  0  0  0  0  0  0
  186.1450  177.6340  143.5190 C   0  0  0  0  0  3  0  0  0  0  0  0
  184.9550  178.0940  142.9450 C   0  0  0  0  0  3  0  0  0  0  0  0
  184.3190  179.0890  145.0580 C   0  0  0  0  0  3  0  0  0  0  0  0
  185.5070  178.6260  145.6420 C   0  0  0  0  0  0  0  0  0  0  0  0
  187.7220  177.2160  146.9160 C   0  0  0  0  0  2  0  0  0  0  0  0
  189.3220  178.4110  148.2180 O   0  0  0  0  0  0  0  0  0  0  0  0
  189.0890  177.4140  147.4800 C   0  0  0  0  0  0  0  0  0  0  0  0
  190.1350  176.4940  147.1580 N   0  0  0  0  0  2  0  0  0  0  0  0
  192.3970  175.5830  147.0660 C   0  0  0  0  0  1  0  0  0  0  0  0
  191.4700  176.5830  147.7320 C   0  0  0  0  0  2  0  0  0  0  0  0
  1 22  1  0  0  0  0
  2  6  1  0  0  0  0
  3  9  1  0  0  0  0
  3  7  1  0  0  0  0
  4 11  1  0  0  0  0
  5  4  2  0  0  0  0
  6  5  1  0  0  0  0
  6  9  2  0  0  0  0
  8  2  2  0  0  0  0
  8 10  1  0  0  0  0
  9 11  1  0  0  0  0
 10  3  2  0  0  0  0
 11  1  1  1  0  0  0
 12 13  1  0  0  0  0
 12  2  1  0  0  0  0
 13 17  1  0  0  0  0
 15 14  2  0  0  0  0
 15 18  1  0  0  0  0
 16 18  1  0  0  0  0
 16 20  1  0  0  0  0
 17 15  1  0  0  0  0
 19 16  2  0  0  0  0
 20 21  1  0  0  0  0
 22 23  1  0  0  0  0
 23 26  1  0  0  0  0
 25 26  2  0  0  0  0
 26 24  2  0  0  0  0
 26 27  1  0  0  0  0
 27 28  1  0  0  0  0
 28 37  1  1  0  0  0
 29 28  1  0  0  0  0
 29 36  1  0  0  0  0
 30 35  1  0  0  0  0
 31 30  1  0  0  0  0
 33 29  2  0  0  0  0
 34 33  1  0  0  0  0
 34 30  2  0  0  0  0
 35 36  2  0  0  0  0
 36 32  1  0  0  0  0
 37 39  1  0  0  0  0
 39 38  2  0  0  0  0
 40 39  1  0  0  0  0
 40 42  1  0  0  0  0
 41 42  1  0  0  0  0
M  END
>  <MODEL>
1

>  <REMARK>
 VINA RESULT:      -8.4      0.000      0.000
  Name = 
  14 active torsions:
  status: ('A' for Active; 'I' for Inactive)
    1  A    between atoms: C_1  and  C_39
    2  A    between atoms: C_2  and  C_15
    3  A    between atoms: C_2  and  C_40
    4  A    between atoms: C_5  and  C_29
    5  A    between atoms: C_8  and  C_37
    6  A    between atoms: C_12  and  N_26
    7  A    between atoms: C_14  and  C_15
    8  A    between atoms: C_14  and  S_36
    9  A    between atoms: C_23  and  C_24
   10  A    between atoms: C_23  and  C_37
   11  A    between atoms: N_32  and  C_38
   12  A    between atoms: S_36  and  N_41
   13  A    between atoms: C_37  and  N_41
   14  A    between atoms: C_38  and  C_39
                            x       y       z     vdW  Elec       q    Type
                         _______ _______ _______ _____ _____    ______ ____

>  <TORSDO>
F 14

$$$$
=
 OpenBabel10222419313D

 42 44  0  0  1  0  0  0  0  0999 V2000
  186.9750  177.0550  137.1560 C   0  0  0  0  0  2  0  0  0  0  0  0
  190.6920  177.1510  139.9910 C   0  0  0  0  0  0  0  0  0  0  0  0
  190.2200  176.9330  137.2440 C   0  0  0  0  0  0  0  0  0  0  0  0
  187.3990  178.6220  139.0320 N   0  0  0  0  0  0  0  0  0  0  0  0
  188.3550  178.2790  140.0980 C   0  0  0  0  0  3  0  0  0  0  0  0
  189.4920  177.6080  139.4280 C   0  0  0  0  0  0  0  0  0  0  0  0
  189.9960  176.8270  135.7750 C   0  0  0  0  0  1  0  0  0  0  0  0
  191.6340  176.5640  139.1330 C   0  0  0  0  0  3  0  0  0  0  0  0
  189.2640  177.5110  138.0910 C   0  0  0  0  0  0  0  0  0  0  0  0
  191.3790  176.4670  137.7920 N   0  0  0  0  0  0  0  0  0  0  0  0
  187.9340  178.0880  137.7650 C   0  0  1  0  0  3  0  0  0  0  0  0
  190.9850  177.2820  141.4490 C   0  0  0  0  0  2  0  0  0  0  0  0
  190.4910  176.0490  142.1940 C   0  0  0  0  0  2  0  0  0  0  0  0
  187.8900  176.6920  143.1760 O   0  0  0  0  0  0  0  0  0  0  0  0
  188.8520  176.7770  143.9860 C   0  0  0  0  0  0  0  0  0  0  0  0
  189.5710  177.4190  146.3550 C   0  0  0  0  0  0  0  0  0  0  0  0
  190.1740  176.3870  143.5740 N   0  0  0  0  0  2  0  0  0  0  0  0
  188.5930  177.2240  145.3240 N   0  0  0  0  0  2  0  0  0  0  0  0
  190.8010  177.3270  146.1080 O   0  0  0  0  0  0  0  0  0  0  0  0
  189.1370  177.8230  147.7260 C   0  0  0  0  0  2  0  0  0  0  0  0
  188.1150  176.9720  148.1650 O   0  0  0  0  0  1  0  0  0  0  0  0
  185.5390  177.5610  137.0220 C   0  0  0  0  0  2  0  0  0  0  0  0
  184.6110  176.8120  137.9620 C   0  0  0  0  0  2  0  0  0  0  0  0
  182.1480  177.8510  137.8340 O   0  0  0  0  0  0  0  0  0  0  0  0
  183.9520  179.3280  138.5810 O   0  0  0  0  0  0  0  0  0  0  0  0
  183.4100  177.9290  138.6430 S   0  0  0  0  0  0  0  0  0  0  0  0
  183.0860  177.4790  140.2900 N   0  0  0  0  0  2  0  0  0  0  0  0
  182.5640  178.6460  140.9860 C   0  0  2  0  0  3  0  0  0  0  0  0
  183.1280  178.7360  142.3780 C   0  0  0  0  0  0  0  0  0  0  0  0
  184.0350  178.9530  145.0310 C   0  0  0  0  0  0  0  0  0  0  0  0
  184.4680  179.0800  146.3150 F   0  0  0  0  0  0  0  0  0  0  0  0
  185.4980  179.0890  141.5600 C   0  0  0  0  0  1  0  0  0  0  0  0
  182.2310  178.6050  143.4480 C   0  0  0  0  0  3  0  0  0  0  0  0
  182.6790  178.7100  144.7690 C   0  0  0  0  0  3  0  0  0  0  0  0
  184.9370  179.0740  143.9740 C   0  0  0  0  0  3  0  0  0  0  0  0
  184.4960  178.9640  142.6480 C   0  0  0  0  0  0  0  0  0  0  0  0
  181.0380  178.6520  140.9830 C   0  0  0  0  0  2  0  0  0  0  0  0
  180.0110  180.7360  141.5190 O   0  0  0  0  0  0  0  0  0  0  0  0
  180.5340  180.0110  140.6280 C   0  0  0  0  0  0  0  0  0  0  0  0
  180.6190  180.4740  139.2780 N   0  0  0  0  0  2  0  0  0  0  0  0
  181.2160  182.3880  137.8880 C   0  0  0  0  0  1  0  0  0  0  0  0
  180.2180  181.8150  138.8750 C   0  0  0  0  0  2  0  0  0  0  0  0
  2 12  1  0  0  0  0
  3 10  2  0  0  0  0
  3  9  1  0  0  0  0
  4  5  2  0  0  0  0
  6  2  1  0  0  0  0
  6  5  1  0  0  0  0
  7  3  1  0  0  0  0
  8  2  2  0  0  0  0
  9  6  2  0  0  0  0
 10  8  1  0  0  0  0
 11  1  1  1  0  0  0
 11  9  1  0  0  0  0
 11  4  1  0  0  0  0
 12 13  1  0  0  0  0
 13 17  1  0  0  0  0
 14 15  2  0  0  0  0
 15 18  1  0  0  0  0
 16 20  1  0  0  0  0
 17 15  1  0  0  0  0
 18 16  1  0  0  0  0
 19 16  2  0  0  0  0
 20 21  1  0  0  0  0
 22  1  1  0  0  0  0
 22 23  1  0  0  0  0
 23 26  1  0  0  0  0
 24 26  2  0  0  0  0
 25 26  2  0  0  0  0
 26 27  1  0  0  0  0
 27 28  1  0  0  0  0
 28 37  1  1  0  0  0
 28 29  1  0  0  0  0
 29 36  2  0  0  0  0
 29 33  1  0  0  0  0
 30 31  1  0  0  0  0
 32 36  1  0  0  0  0
 33 34  2  0  0  0  0
 34 30  1  0  0  0  0
 35 30  2  0  0  0  0
 36 35  1  0  0  0  0
 39 37  1  0  0  0  0
 39 38  2  0  0  0  0
 40 39  1  0  0  0  0
 41 42  1  0  0  0  0
 42 40  1  0  0  0  0
M  END
>  <MODEL>
2

>  <REMARK>
 VINA RESULT:      -8.3      3.725      7.851
  Name = 
  14 active torsions:
  status: ('A' for Active; 'I' for Inactive)
    1  A    between atoms: C_1  and  C_39
    2  A    between atoms: C_2  and  C_15
    3  A    between atoms: C_2  and  C_40
    4  A    between atoms: C_5  and  C_29
    5  A    between atoms: C_8  and  C_37
    6  A    between atoms: C_12  and  N_26
    7  A    between atoms: C_14  and  C_15
    8  A    between atoms: C_14  and  S_36
    9  A    between atoms: C_23  and  C_24
   10  A    between atoms: C_23  and  C_37
   11  A    between atoms: N_32  and  C_38
   12  A    between atoms: S_36  and  N_41
   13  A    between atoms: C_37  and  N_41
   14  A    between atoms: C_38  and  C_39
                            x       y       z     vdW  Elec       q    Type
                         _______ _______ _______ _____ _____    ______ ____

>  <TORSDO>
F 14

$$$$
=
 OpenBabel10222419313D

 42 44  0  0  1  0  0  0  0  0999 V2000
  185.8920  179.0230  142.2880 C   0  0  0  0  0  2  0  0  0  0  0  0
  187.0330  177.7070  146.6280 C   0  0  0  0  0  0  0  0  0  0  0  0
  184.8040  178.7990  145.3410 C   0  0  0  0  0  0  0  0  0  0  0  0
  187.0200  176.9240  142.9790 N   0  0  0  0  0  0  0  0  0  0  0  0
  187.7070  176.8310  144.2780 C   0  0  0  0  0  3  0  0  0  0  0  0
  186.8570  177.5620  145.2450 C   0  0  0  0  0  0  0  0  0  0  0  0
  183.5990  179.3710  144.6760 C   0  0  0  0  0  1  0  0  0  0  0  0
  186.0650  178.4360  147.3360 C   0  0  0  0  0  3  0  0  0  0  0  0
  185.7690  178.0850  144.6170 C   0  0  0  0  0  0  0  0  0  0  0  0
  184.9830  178.9620  146.6830 N   0  0  0  0  0  0  0  0  0  0  0  0
  185.8240  177.7660  143.1680 C   0  0  1  0  0  3  0  0  0  0  0  0
  188.1960  177.1090  147.3460 C   0  0  0  0  0  2  0  0  0  0  0  0
  189.4300  177.9820  147.1620 C   0  0  0  0  0  2  0  0  0  0  0  0
  191.7000  176.4060  146.4520 O   0  0  0  0  0  0  0  0  0  0  0  0
  191.1550  177.0810  145.5370 C   0  0  0  0  0  0  0  0  0  0  0  0
  191.2590  177.7870  143.0810 C   0  0  0  0  0  0  0  0  0  0  0  0
  189.9590  177.8300  145.8140 N   0  0  0  0  0  2  0  0  0  0  0  0
  191.7230  177.0500  144.2210 N   0  0  0  0  0  2  0  0  0  0  0  0
  190.3530  178.6520  143.1930 O   0  0  0  0  0  0  0  0  0  0  0  0
  191.9150  177.5950  141.7530 C   0  0  0  0  0  2  0  0  0  0  0  0
  191.1470  176.7220  140.9720 O   0  0  0  0  0  1  0  0  0  0  0  0
  184.6660  179.2090  141.3940 C   0  0  0  0  0  2  0  0  0  0  0  0
  184.6960  178.2380  140.2260 C   0  0  0  0  0  2  0  0  0  0  0  0
  184.2220  180.5700  139.0020 O   0  0  0  0  0  0  0  0  0  0  0  0
  183.0830  178.5890  138.1230 O   0  0  0  0  0  0  0  0  0  0  0  0
  184.3650  179.1040  138.7120 S   0  0  0  0  0  0  0  0  0  0  0  0
  185.6830  178.8460  137.6100 N   0  0  0  0  0  2  0  0  0  0  0  0
  186.0230  177.4300  137.6300 C   0  0  2  0  0  3  0  0  0  0  0  0
  187.4770  177.2240  137.3030 C   0  0  0  0  0  0  0  0  0  0  0  0
  190.1490  176.7240  136.5830 C   0  0  0  0  0  0  0  0  0  0  0  0
  191.4400  176.4610  136.2410 F   0  0  0  0  0  0  0  0  0  0  0  0
  188.2590  178.0310  139.5710 C   0  0  0  0  0  1  0  0  0  0  0  0
  187.7880  176.7280  136.0280 C   0  0  0  0  0  3  0  0  0  0  0  0
  189.1170  176.4800  135.6660 C   0  0  0  0  0  3  0  0  0  0  0  0
  189.8510  177.2280  137.8490 C   0  0  0  0  0  3  0  0  0  0  0  0
  188.5230  177.4840  138.2170 C   0  0  0  0  0  0  0  0  0  0  0  0
  185.1070  176.6320  136.7060 C   0  0  0  0  0  2  0  0  0  0  0  0
  183.6980  175.4270  138.2050 O   0  0  0  0  0  0  0  0  0  0  0  0
  184.6600  175.3820  137.3890 C   0  0  0  0  0  0  0  0  0  0  0  0
  185.3380  174.1490  137.1380 N   0  0  0  0  0  2  0  0  0  0  0  0
  184.5710  171.8950  136.6050 C   0  0  0  0  0  1  0  0  0  0  0  0
  184.9080  172.8800  137.7090 C   0  0  0  0  0  2  0  0  0  0  0  0
  2  8  1  0  0  0  0
  2 12  1  0  0  0  0
  3 10  1  0  0  0  0
  4 11  1  0  0  0  0
  4  5  2  0  0  0  0
  5  6  1  0  0  0  0
  6  2  2  0  0  0  0
  7  3  1  0  0  0  0
  9  6  1  0  0  0  0
  9  3  2  0  0  0  0
 10  8  2  0  0  0  0
 11  1  1  6  0  0  0
 11  9  1  0  0  0  0
 13 12  1  0  0  0  0
 15 17  1  0  0  0  0
 15 14  2  0  0  0  0
 16 19  2  0  0  0  0
 16 18  1  0  0  0  0
 17 13  1  0  0  0  0
 18 15  1  0  0  0  0
 20 16  1  0  0  0  0
 21 20  1  0  0  0  0
 22  1  1  0  0  0  0
 23 22  1  0  0  0  0
 25 26  2  0  0  0  0
 26 24  2  0  0  0  0
 26 23  1  0  0  0  0
 27 28  1  0  0  0  0
 27 26  1  0  0  0  0
 28 37  1  6  0  0  0
 29 28  1  0  0  0  0
 29 36  1  0  0  0  0
 30 35  1  0  0  0  0
 31 30  1  0  0  0  0
 33 29  2  0  0  0  0
 34 33  1  0  0  0  0
 34 30  2  0  0  0  0
 35 36  2  0  0  0  0
 36 32  1  0  0  0  0
 37 39  1  0  0  0  0
 39 38  2  0  0  0  0
 40 39  1  0  0  0  0
 40 42  1  0  0  0  0
 41 42  1  0  0  0  0
M  END
>  <MODEL>
3

>  <REMARK>
 VINA RESULT:      -8.2      3.534      8.977
  Name = 
  14 active torsions:
  status: ('A' for Active; 'I' for Inactive)
    1  A    between atoms: C_1  and  C_39
    2  A    between atoms: C_2  and  C_15
    3  A    between atoms: C_2  and  C_40
    4  A    between atoms: C_5  and  C_29
    5  A    between atoms: C_8  and  C_37
    6  A    between atoms: C_12  and  N_26
    7  A    between atoms: C_14  and  C_15
    8  A    between atoms: C_14  and  S_36
    9  A    between atoms: C_23  and  C_24
   10  A    between atoms: C_23  and  C_37
   11  A    between atoms: N_32  and  C_38
   12  A    between atoms: S_36  and  N_41
   13  A    between atoms: C_37  and  N_41
   14  A    between atoms: C_38  and  C_39
                            x       y       z     vdW  Elec       q    Type
                         _______ _______ _______ _____ _____    ______ ____

>  <TORSDO>
F 14

$$$$
=
 OpenBabel10222419313D

 42 44  0  0  1  0  0  0  0  0999 V2000
  184.7060  179.4810  143.8480 C   0  0  0  0  0  2  0  0  0  0  0  0
  188.7130  177.2930  144.8580 C   0  0  0  0  0  0  0  0  0  0  0  0
  186.4200  178.1000  146.2370 C   0  0  0  0  0  0  0  0  0  0  0  0
  185.7770  177.6380  142.5800 N   0  0  0  0  0  0  0  0  0  0  0  0
  187.2120  177.3490  142.7390 C   0  0  0  0  0  3  0  0  0  0  0  0
  187.5070  177.5190  144.1800 C   0  0  0  0  0  0  0  0  0  0  0  0
  185.2030  178.5090  146.9930 C   0  0  0  0  0  1  0  0  0  0  0  0
  188.7320  177.5070  146.2440 C   0  0  0  0  0  3  0  0  0  0  0  0
  186.3880  177.9030  144.8500 C   0  0  0  0  0  0  0  0  0  0  0  0
  187.5970  177.9030  146.8970 N   0  0  0  0  0  0  0  0  0  0  0  0
  185.2570  178.0480  143.8970 C   0  0  1  0  0  3  0  0  0  0  0  0
  189.9450  176.8330  144.1520 C   0  0  0  0  0  2  0  0  0  0  0  0
  190.5760  177.9910  143.3910 C   0  0  0  0  0  2  0  0  0  0  0  0
  192.2290  177.1500  141.2220 O   0  0  0  0  0  0  0  0  0  0  0  0
  191.0840  177.5930  140.9390 C   0  0  0  0  0  0  0  0  0  0  0  0
  189.4570  178.2040  139.0630 C   0  0  0  0  0  0  0  0  0  0  0  0
  190.1740  177.9550  141.9930 N   0  0  0  0  0  2  0  0  0  0  0  0
  190.6980  177.6850  139.5610 N   0  0  0  0  0  2  0  0  0  0  0  0
  188.6300  178.7570  139.8310 O   0  0  0  0  0  0  0  0  0  0  0  0
  189.1710  178.1690  137.5970 C   0  0  0  0  0  2  0  0  0  0  0  0
  188.2660  179.1880  137.2720 O   0  0  0  0  0  1  0  0  0  0  0  0
  183.1850  179.5540  143.9770 C   0  0  0  0  0  2  0  0  0  0  0  0
  182.5090  178.9700  142.7480 C   0  0  0  0  0  2  0  0  0  0  0  0
  180.3870  180.5890  142.9610 O   0  0  0  0  0  0  0  0  0  0  0  0
  180.2950  178.4520  144.1540 O   0  0  0  0  0  0  0  0  0  0  0  0
  180.7470  179.1320  142.8940 S   0  0  0  0  0  0  0  0  0  0  0  0
  179.9920  178.4000  141.5100 N   0  0  0  0  0  2  0  0  0  0  0  0
  180.9270  178.4620  140.3960 C   0  0  2  0  0  3  0  0  0  0  0  0
  180.7660  179.7490  139.6330 C   0  0  0  0  0  0  0  0  0  0  0  0
  180.3110  182.1120  138.1770 C   0  0  0  0  0  0  0  0  0  0  0  0
  180.0840  183.2430  137.4550 F   0  0  0  0  0  0  0  0  0  0  0  0
  183.2330  179.9120  139.0880 C   0  0  0  0  0  1  0  0  0  0  0  0
  179.4740  180.2850  139.5360 C   0  0  0  0  0  3  0  0  0  0  0  0
  179.2440  181.4620  138.8150 C   0  0  0  0  0  3  0  0  0  0  0  0
  181.6010  181.5930  138.2760 C   0  0  0  0  0  3  0  0  0  0  0  0
  181.8400  180.4170  139.0020 C   0  0  0  0  0  0  0  0  0  0  0  0
  180.7890  177.2390  139.4940 C   0  0  0  0  0  2  0  0  0  0  0  0
  182.9870  176.7030  140.2480 O   0  0  0  0  0  0  0  0  0  0  0  0
  182.1100  176.5590  139.3510 C   0  0  0  0  0  0  0  0  0  0  0  0
  182.3880  175.7740  138.1890 N   0  0  0  0  0  2  0  0  0  0  0  0
  184.4630  175.6330  136.9130 C   0  0  0  0  0  1  0  0  0  0  0  0
  183.6230  175.0230  138.0200 C   0  0  0  0  0  2  0  0  0  0  0  0
  1 22  1  0  0  0  0
  2  8  1  0  0  0  0
  3 10  1  0  0  0  0
  3  7  1  0  0  0  0
  4  5  2  0  0  0  0
  4 11  1  0  0  0  0
  5  6  1  0  0  0  0
  6  9  1  0  0  0  0
  6  2  2  0  0  0  0
  8 10  2  0  0  0  0
  9  3  2  0  0  0  0
 11  1  1  6  0  0  0
 11  9  1  0  0  0  0
 12  2  1  0  0  0  0
 13 12  1  0  0  0  0
 15 14  2  0  0  0  0
 15 17  1  0  0  0  0
 16 18  1  0  0  0  0
 16 19  2  0  0  0  0
 17 13  1  0  0  0  0
 18 15  1  0  0  0  0
 20 16  1  0  0  0  0
 21 20  1  0  0  0  0
 23 26  1  0  0  0  0
 23 22  1  0  0  0  0
 26 24  2  0  0  0  0
 26 25  2  0  0  0  0
 27 26  1  0  0  0  0
 28 37  1  6  0  0  0
 28 27  1  0  0  0  0
 29 28  1  0  0  0  0
 30 35  2  0  0  0  0
 30 34  1  0  0  0  0
 31 30  1  0  0  0  0
 33 29  1  0  0  0  0
 34 33  2  0  0  0  0
 35 36  1  0  0  0  0
 36 32  1  0  0  0  0
 36 29  2  0  0  0  0
 39 37  1  0  0  0  0
 39 38  2  0  0  0  0
 40 39  1  0  0  0  0
 41 42  1  0  0  0  0
 42 40  1  0  0  0  0
M  END
>  <MODEL>
4

>  <REMARK>
 VINA RESULT:      -8.2      4.426      8.432
  Name = 
  14 active torsions:
  status: ('A' for Active; 'I' for Inactive)
    1  A    between atoms: C_1  and  C_39
    2  A    between atoms: C_2  and  C_15
    3  A    between atoms: C_2  and  C_40
    4  A    between atoms: C_5  and  C_29
    5  A    between atoms: C_8  and  C_37
    6  A    between atoms: C_12  and  N_26
    7  A    between atoms: C_14  and  C_15
    8  A    between atoms: C_14  and  S_36
    9  A    between atoms: C_23  and  C_24
   10  A    between atoms: C_23  and  C_37
   11  A    between atoms: N_32  and  C_38
   12  A    between atoms: S_36  and  N_41
   13  A    between atoms: C_37  and  N_41
   14  A    between atoms: C_38  and  C_39
                            x       y       z     vdW  Elec       q    Type
                         _______ _______ _______ _____ _____    ______ ____

>  <TORSDO>
F 14

$$$$
=
 OpenBabel10222419313D

 42 44  0  0  1  0  0  0  0  0999 V2000
  188.6480  178.2530  138.3350 C   0  0  0  0  0  2  0  0  0  0  0  0
  184.6130  176.9580  136.3600 C   0  0  0  0  0  0  0  0  0  0  0  0
  187.1510  175.8500  136.7430 C   0  0  0  0  0  0  0  0  0  0  0  0
  186.3660  178.4900  139.2770 N   0  0  0  0  0  0  0  0  0  0  0  0
  185.1830  178.4600  138.4000 C   0  0  0  0  0  3  0  0  0  0  0  0
  185.4540  177.4210  137.3810 C   0  0  0  0  0  0  0  0  0  0  0  0
  188.4920  175.2330  136.9450 C   0  0  0  0  0  1  0  0  0  0  0  0
  185.0980  175.9370  135.5270 C   0  0  0  0  0  3  0  0  0  0  0  0
  186.6860  176.8770  137.5750 C   0  0  0  0  0  0  0  0  0  0  0  0
  186.3440  175.4120  135.7350 N   0  0  0  0  0  0  0  0  0  0  0  0
  187.3490  177.5360  138.7300 C   0  0  1  0  0  3  0  0  0  0  0  0
  183.2420  177.5080  136.1500 C   0  0  0  0  0  2  0  0  0  0  0  0
  182.2030  176.5640  136.7400 C   0  0  0  0  0  2  0  0  0  0  0  0
  179.5540  176.7160  137.7890 O   0  0  0  0  0  0  0  0  0  0  0  0
  180.4940  177.1050  138.5330 C   0  0  0  0  0  0  0  0  0  0  0  0
  181.1160  178.1540  140.7800 C   0  0  0  0  0  0  0  0  0  0  0  0
  181.8570  176.9760  138.0930 N   0  0  0  0  0  2  0  0  0  0  0  0
  180.1790  177.6300  139.8290 N   0  0  0  0  0  2  0  0  0  0  0  0
  182.3260  178.3120  140.4790 O   0  0  0  0  0  0  0  0  0  0  0  0
  180.6410  178.6030  142.1240 C   0  0  0  0  0  2  0  0  0  0  0  0
  179.4770  177.9040  142.4680 O   0  0  0  0  0  1  0  0  0  0  0  0
  189.8290  177.9230  139.2480 C   0  0  0  0  0  2  0  0  0  0  0  0
  189.4880  176.7710  140.1780 C   0  0  0  0  0  2  0  0  0  0  0  0
  191.7560  177.3420  141.4800 O   0  0  0  0  0  0  0  0  0  0  0  0
  190.2590  175.6950  142.5010 O   0  0  0  0  0  0  0  0  0  0  0  0
  190.3190  176.9830  141.7320 S   0  0  0  0  0  0  0  0  0  0  0  0
  189.5400  178.2550  142.6240 N   0  0  0  0  0  2  0  0  0  0  0  0
  189.0200  177.6910  143.8620 C   0  0  2  0  0  3  0  0  0  0  0  0
  187.5270  177.8560  143.9400 C   0  0  0  0  0  0  0  0  0  0  0  0
  184.7430  178.2530  143.9460 C   0  0  0  0  0  0  0  0  0  0  0  0
  183.3990  178.4670  143.9490 F   0  0  0  0  0  0  0  0  0  0  0  0
  187.4750  177.5920  146.4570 C   0  0  0  0  0  1  0  0  0  0  0  0
  186.8370  178.0670  142.7370 C   0  0  0  0  0  3  0  0  0  0  0  0
  185.4520  178.2620  142.7360 C   0  0  0  0  0  3  0  0  0  0  0  0
  185.4180  178.0340  145.1470 C   0  0  0  0  0  3  0  0  0  0  0  0
  186.8060  177.8320  145.1550 C   0  0  0  0  0  0  0  0  0  0  0  0
  189.7280  178.2840  145.0760 C   0  0  0  0  0  2  0  0  0  0  0  0
  192.0520  177.8110  144.8280 O   0  0  0  0  0  0  0  0  0  0  0  0
  190.9610  177.5000  145.3810 C   0  0  0  0  0  0  0  0  0  0  0  0
  190.8960  176.3850  146.2730 N   0  0  0  0  0  2  0  0  0  0  0  0
  192.4710  175.9840  148.0930 C   0  0  0  0  0  1  0  0  0  0  0  0
  192.0710  175.6240  146.6750 C   0  0  0  0  0  2  0  0  0  0  0  0
  1 22  1  0  0  0  0
  2  6  1  0  0  0  0
  3  7  1  0  0  0  0
  3  9  1  0  0  0  0
  5  4  2  0  0  0  0
  6  9  2  0  0  0  0
  6  5  1  0  0  0  0
  8 10  1  0  0  0  0
  8  2  2  0  0  0  0
  9 11  1  0  0  0  0
 10  3  2  0  0  0  0
 11  1  1  6  0  0  0
 11  4  1  0  0  0  0
 12  2  1  0  0  0  0
 12 13  1  0  0  0  0
 13 17  1  0  0  0  0
 14 15  2  0  0  0  0
 15 18  1  0  0  0  0
 16 20  1  0  0  0  0
 17 15  1  0  0  0  0
 18 16  1  0  0  0  0
 19 16  2  0  0  0  0
 20 21  1  0  0  0  0
 22 23  1  0  0  0  0
 23 26  1  0  0  0  0
 24 26  2  0  0  0  0
 26 25  2  0  0  0  0
 26 27  1  0  0  0  0
 27 28  1  0  0  0  0
 28 29  1  0  0  0  0
 28 37  1  1  0  0  0
 29 36  1  0  0  0  0
 30 31  1  0  0  0  0
 30 35  1  0  0  0  0
 33 29  2  0  0  0  0
 34 33  1  0  0  0  0
 34 30  2  0  0  0  0
 35 36  2  0  0  0  0
 36 32  1  0  0  0  0
 37 39  1  0  0  0  0
 38 39  2  0  0  0  0
 39 40  1  0  0  0  0
 40 42  1  0  0  0  0
 42 41  1  0  0  0  0
M  END
>  <MODEL>
5

>  <REMARK>
 VINA RESULT:      -8.0      3.396      5.923
  Name = 
  14 active torsions:
  status: ('A' for Active; 'I' for Inactive)
    1  A    between atoms: C_1  and  C_39
    2  A    between atoms: C_2  and  C_15
    3  A    between atoms: C_2  and  C_40
    4  A    between atoms: C_5  and  C_29
    5  A    between atoms: C_8  and  C_37
    6  A    between atoms: C_12  and  N_26
    7  A    between atoms: C_14  and  C_15
    8  A    between atoms: C_14  and  S_36
    9  A    between atoms: C_23  and  C_24
   10  A    between atoms: C_23  and  C_37
   11  A    between atoms: N_32  and  C_38
   12  A    between atoms: S_36  and  N_41
   13  A    between atoms: C_37  and  N_41
   14  A    between atoms: C_38  and  C_39
                            x       y       z     vdW  Elec       q    Type
                         _______ _______ _______ _____ _____    ______ ____

>  <TORSDO>
F 14

$$$$
=
 OpenBabel10222419313D

 42 44  0  0  1  0  0  0  0  0999 V2000
  184.3660  178.3160  142.1890 C   0  0  0  0  0  2  0  0  0  0  0  0
  183.2670  177.3370  137.7520 C   0  0  0  0  0  0  0  0  0  0  0  0
  181.8970  177.9230  140.1160 C   0  0  0  0  0  0  0  0  0  0  0  0
  185.3900  179.2660  140.1390 N   0  0  0  0  0  0  0  0  0  0  0  0
  185.2730  178.5690  138.8470 C   0  0  0  0  0  3  0  0  0  0  0  0
  183.8980  178.0230  138.7980 C   0  0  0  0  0  0  0  0  0  0  0  0
  181.1430  178.2450  141.3610 C   0  0  0  0  0  1  0  0  0  0  0  0
  181.9350  176.9390  137.9420 C   0  0  0  0  0  3  0  0  0  0  0  0
  183.2310  178.3180  139.9460 C   0  0  0  0  0  0  0  0  0  0  0  0
  181.2860  177.2360  139.1090 N   0  0  0  0  0  0  0  0  0  0  0  0
  184.1240  179.0630  140.8700 C   0  0  1  0  0  3  0  0  0  0  0  0
  183.9630  177.0380  136.4660 C   0  0  0  0  0  2  0  0  0  0  0  0
  184.4030  175.5800  136.4360 C   0  0  0  0  0  2  0  0  0  0  0  0
  185.9390  173.3400  137.3100 O   0  0  0  0  0  0  0  0  0  0  0  0
  186.5720  174.3620  136.9280 C   0  0  0  0  0  0  0  0  0  0  0  0
  188.8720  175.4400  136.6390 C   0  0  0  0  0  0  0  0  0  0  0  0
  185.8550  175.4910  136.3990 N   0  0  0  0  0  2  0  0  0  0  0  0
  188.0040  174.3540  136.9900 N   0  0  0  0  0  2  0  0  0  0  0  0
  188.4090  176.5750  136.3560 O   0  0  0  0  0  0  0  0  0  0  0  0
  190.3540  175.2560  136.6910 C   0  0  0  0  0  2  0  0  0  0  0  0
  190.7340  174.8780  137.9850 O   0  0  0  0  0  1  0  0  0  0  0  0
  185.8370  178.2720  142.6040 C   0  0  0  0  0  2  0  0  0  0  0  0
  185.9770  178.3660  144.1140 C   0  0  0  0  0  2  0  0  0  0  0  0
  187.5150  176.2200  143.6760 O   0  0  0  0  0  0  0  0  0  0  0  0
  186.9650  176.7520  146.0020 O   0  0  0  0  0  0  0  0  0  0  0  0
  187.3130  177.3340  144.6620 S   0  0  0  0  0  0  0  0  0  0  0  0
  188.7590  178.2900  144.7780 N   0  0  0  0  0  2  0  0  0  0  0  0
  189.8750  177.4880  144.2960 C   0  0  2  0  0  3  0  0  0  0  0  0
  190.6560  176.9120  145.4450 C   0  0  0  0  0  0  0  0  0  0  0  0
  192.0980  175.9780  147.6720 C   0  0  0  0  0  0  0  0  0  0  0  0
  192.8100  175.5430  148.7470 F   0  0  0  0  0  0  0  0  0  0  0  0
  191.8920  175.2610  143.9770 C   0  0  0  0  0  1  0  0  0  0  0  0
  190.4220  177.4500  146.7200 C   0  0  0  0  0  3  0  0  0  0  0  0
  191.1360  176.9860  147.8300 C   0  0  0  0  0  3  0  0  0  0  0  0
  192.3310  175.4300  146.4110 C   0  0  0  0  0  3  0  0  0  0  0  0
  191.6160  175.8860  145.2950 C   0  0  0  0  0  0  0  0  0  0  0  0
  190.7590  178.2920  143.3460 C   0  0  0  0  0  2  0  0  0  0  0  0
  191.4560  177.4880  141.2120 O   0  0  0  0  0  0  0  0  0  0  0  0
  190.4980  177.8790  141.9360 C   0  0  0  0  0  0  0  0  0  0  0  0
  189.1750  177.9560  141.4020 N   0  0  0  0  0  2  0  0  0  0  0  0
  189.0490  178.6150  139.0560 C   0  0  0  0  0  1  0  0  0  0  0  0
  188.8350  177.4990  140.0620 C   0  0  0  0  0  2  0  0  0  0  0  0
  1 22  1  0  0  0  0
  2  8  2  0  0  0  0
  2  6  1  0  0  0  0
  3  7  1  0  0  0  0
  4 11  1  0  0  0  0
  5  4  2  0  0  0  0
  6  5  1  0  0  0  0
  6  9  2  0  0  0  0
  8 10  1  0  0  0  0
  9  3  1  0  0  0  0
  9 11  1  0  0  0  0
 10  3  2  0  0  0  0
 11  1  1  1  0  0  0
 12  2  1  0  0  0  0
 13 12  1  0  0  0  0
 15 18  1  0  0  0  0
 15 14  2  0  0  0  0
 16 20  1  0  0  0  0
 16 18  1  0  0  0  0
 17 13  1  0  0  0  0
 17 15  1  0  0  0  0
 19 16  2  0  0  0  0
 20 21  1  0  0  0  0
 22 23  1  0  0  0  0
 23 26  1  0  0  0  0
 24 26  2  0  0  0  0
 26 27  1  0  0  0  0
 26 25  2  0  0  0  0
 28 37  1  1  0  0  0
 28 27  1  0  0  0  0
 28 29  1  0  0  0  0
 29 33  1  0  0  0  0
 30 34  1  0  0  0  0
 30 31  1  0  0  0  0
 32 36  1  0  0  0  0
 33 34  2  0  0  0  0
 35 30  2  0  0  0  0
 36 29  2  0  0  0  0
 36 35  1  0  0  0  0
 38 39  2  0  0  0  0
 39 37  1  0  0  0  0
 40 39  1  0  0  0  0
 41 42  1  0  0  0  0
 42 40  1  0  0  0  0
M  END
>  <MODEL>
6

>  <REMARK>
 VINA RESULT:      -8.0      2.994      5.560
  Name = 
  14 active torsions:
  status: ('A' for Active; 'I' for Inactive)
    1  A    between atoms: C_1  and  C_39
    2  A    between atoms: C_2  and  C_15
    3  A    between atoms: C_2  and  C_40
    4  A    between atoms: C_5  and  C_29
    5  A    between atoms: C_8  and  C_37
    6  A    between atoms: C_12  and  N_26
    7  A    between atoms: C_14  and  C_15
    8  A    between atoms: C_14  and  S_36
    9  A    between atoms: C_23  and  C_24
   10  A    between atoms: C_23  and  C_37
   11  A    between atoms: N_32  and  C_38
   12  A    between atoms: S_36  and  N_41
   13  A    between atoms: C_37  and  N_41
   14  A    between atoms: C_38  and  C_39
                            x       y       z     vdW  Elec       q    Type
                         _______ _______ _______ _____ _____    ______ ____

>  <TORSDO>
F 14

$$$$
=
 OpenBabel10222419313D

 42 44  0  0  1  0  0  0  0  0999 V2000
  189.4930  178.0310  138.5940 C   0  0  0  0  0  2  0  0  0  0  0  0
  186.1920  176.6060  135.6050 C   0  0  0  0  0  0  0  0  0  0  0  0
  188.5240  175.5530  136.7310 C   0  0  0  0  0  0  0  0  0  0  0  0
  187.0350  178.2610  138.8420 N   0  0  0  0  0  0  0  0  0  0  0  0
  186.1500  178.1830  137.6680 C   0  0  0  0  0  3  0  0  0  0  0  0
  186.7060  177.1160  136.8050 C   0  0  0  0  0  0  0  0  0  0  0  0
  189.7560  174.9650  137.3270 C   0  0  0  0  0  1  0  0  0  0  0  0
  186.9000  175.5670  134.9820 C   0  0  0  0  0  3  0  0  0  0  0  0
  187.8360  176.5990  137.3600 C   0  0  0  0  0  0  0  0  0  0  0  0
  188.0390  175.0690  135.5520 N   0  0  0  0  0  0  0  0  0  0  0  0
  188.1390  177.3060  138.6310 C   0  0  1  0  0  3  0  0  0  0  0  0
  184.9330  177.1270  134.9960 C   0  0  0  0  0  2  0  0  0  0  0  0
  183.7980  176.1350  135.2120 C   0  0  0  0  0  2  0  0  0  0  0  0
  184.1810  174.7510  137.6770 O   0  0  0  0  0  0  0  0  0  0  0  0
  183.2860  175.6380  137.6440 C   0  0  0  0  0  0  0  0  0  0  0  0
  181.4150  176.8040  138.9400 C   0  0  0  0  0  0  0  0  0  0  0  0
  183.1010  176.4270  136.4550 N   0  0  0  0  0  2  0  0  0  0  0  0
  182.4970  175.8700  138.8190 N   0  0  0  0  0  2  0  0  0  0  0  0
  180.9800  177.4270  137.9380 O   0  0  0  0  0  0  0  0  0  0  0  0
  180.7300  176.9830  140.2560 C   0  0  0  0  0  2  0  0  0  0  0  0
  179.3460  176.8550  140.0850 O   0  0  0  0  0  1  0  0  0  0  0  0
  190.3100  177.8610  139.8750 C   0  0  0  0  0  2  0  0  0  0  0  0
  189.7350  176.7530  140.7410 C   0  0  0  0  0  2  0  0  0  0  0  0
  191.6580  177.4580  142.4640 O   0  0  0  0  0  0  0  0  0  0  0  0
  190.1250  175.6770  143.1570 O   0  0  0  0  0  0  0  0  0  0  0  0
  190.2320  176.9860  142.4290 S   0  0  0  0  0  0  0  0  0  0  0  0
  189.1990  178.1730  143.1670 N   0  0  0  0  0  2  0  0  0  0  0  0
  188.8130  177.6860  144.4830 C   0  0  2  0  0  3  0  0  0  0  0  0
  187.3770  178.0240  144.7790 C   0  0  0  0  0  0  0  0  0  0  0  0
  184.7160  178.5970  145.4840 C   0  0  0  0  0  0  0  0  0  0  0  0
  183.4250  178.8530  145.8300 F   0  0  0  0  0  0  0  0  0  0  0  0
  186.6820  177.8780  142.3500 C   0  0  0  0  0  1  0  0  0  0  0  0
  187.0320  178.2580  146.1190 C   0  0  0  0  0  3  0  0  0  0  0  0
  185.7100  178.5460  146.4720 C   0  0  0  0  0  3  0  0  0  0  0  0
  185.0500  178.3760  144.1490 C   0  0  0  0  0  3  0  0  0  0  0  0
  186.3750  178.0930  143.7860 C   0  0  0  0  0  0  0  0  0  0  0  0
  189.7600  178.2050  145.5610 C   0  0  0  0  0  2  0  0  0  0  0  0
  189.5590  176.4180  147.1260 O   0  0  0  0  0  0  0  0  0  0  0  0
  190.3130  177.0640  146.3470 C   0  0  0  0  0  0  0  0  0  0  0  0
  191.6980  176.7250  146.2370 N   0  0  0  0  0  2  0  0  0  0  0  0
  192.8000  175.9840  148.2840 C   0  0  0  0  0  1  0  0  0  0  0  0
  192.2880  175.5790  146.9140 C   0  0  0  0  0  2  0  0  0  0  0  0
  1 22  1  0  0  0  0
  2  6  1  0  0  0  0
  3  7  1  0  0  0  0
  3  9  1  0  0  0  0
  5  4  2  0  0  0  0
  6  9  2  0  0  0  0
  6  5  1  0  0  0  0
  8 10  1  0  0  0  0
  8  2  2  0  0  0  0
  9 11  1  0  0  0  0
 10  3  2  0  0  0  0
 11  1  1  6  0  0  0
 11  4  1  0  0  0  0
 12 13  1  0  0  0  0
 12  2  1  0  0  0  0
 13 17  1  0  0  0  0
 15 14  2  0  0  0  0
 15 18  1  0  0  0  0
 16 20  1  0  0  0  0
 17 15  1  0  0  0  0
 18 16  1  0  0  0  0
 19 16  2  0  0  0  0
 21 20  1  0  0  0  0
 22 23  1  0  0  0  0
 23 26  1  0  0  0  0
 26 24  2  0  0  0  0
 26 25  2  0  0  0  0
 26 27  1  0  0  0  0
 27 28  1  0  0  0  0
 28 29  1  0  0  0  0
 28 37  1  1  0  0  0
 29 33  1  0  0  0  0
 30 31  1  0  0  0  0
 30 34  1  0  0  0  0
 32 36  1  0  0  0  0
 33 34  2  0  0  0  0
 35 30  2  0  0  0  0
 36 35  1  0  0  0  0
 36 29  2  0  0  0  0
 37 39  1  0  0  0  0
 39 38  2  0  0  0  0
 40 39  1  0  0  0  0
 40 42  1  0  0  0  0
 42 41  1  0  0  0  0
M  END
>  <MODEL>
7

>  <REMARK>
 VINA RESULT:      -8.0      3.019      5.279
  Name = 
  14 active torsions:
  status: ('A' for Active; 'I' for Inactive)
    1  A    between atoms: C_1  and  C_39
    2  A    between atoms: C_2  and  C_15
    3  A    between atoms: C_2  and  C_40
    4  A    between atoms: C_5  and  C_29
    5  A    between atoms: C_8  and  C_37
    6  A    between atoms: C_12  and  N_26
    7  A    between atoms: C_14  and  C_15
    8  A    between atoms: C_14  and  S_36
    9  A    between atoms: C_23  and  C_24
   10  A    between atoms: C_23  and  C_37
   11  A    between atoms: N_32  and  C_38
   12  A    between atoms: S_36  and  N_41
   13  A    between atoms: C_37  and  N_41
   14  A    between atoms: C_38  and  C_39
                            x       y       z     vdW  Elec       q    Type
                         _______ _______ _______ _____ _____    ______ ____

>  <TORSDO>
F 14

$$$$
=
 OpenBabel10222419313D

 42 44  0  0  1  0  0  0  0  0999 V2000
  185.6320  178.7880  145.3420 C   0  0  0  0  0  2  0  0  0  0  0  0
  190.0080  177.7960  144.0290 C   0  0  0  0  0  0  0  0  0  0  0  0
  188.4400  177.4830  146.3220 C   0  0  0  0  0  0  0  0  0  0  0  0
  186.3660  177.7390  143.2180 N   0  0  0  0  0  0  0  0  0  0  0  0
  187.7530  177.8870  142.7450 C   0  0  0  0  0  3  0  0  0  0  0  0
  188.6090  177.7880  143.9490 C   0  0  0  0  0  0  0  0  0  0  0  0
  187.6220  177.2940  147.5520 C   0  0  0  0  0  1  0  0  0  0  0  0
  190.5900  177.6640  145.2990 C   0  0  0  0  0  3  0  0  0  0  0  0
  187.8440  177.6270  145.0620 C   0  0  0  0  0  0  0  0  0  0  0  0
  189.8010  177.5130  146.4070 N   0  0  0  0  0  0  0  0  0  0  0  0
  186.4060  177.6340  144.6880 C   0  0  1  0  0  3  0  0  0  0  0  0
  190.8710  177.9310  142.8190 C   0  0  0  0  0  2  0  0  0  0  0  0
  190.7660  176.6790  141.9590 C   0  0  0  0  0  2  0  0  0  0  0  0
  192.0740  176.7530  139.4240 O   0  0  0  0  0  0  0  0  0  0  0  0
  190.8580  177.0860  139.4580 C   0  0  0  0  0  0  0  0  0  0  0  0
  188.8680  177.9650  138.1160 C   0  0  0  0  0  0  0  0  0  0  0  0
  190.1230  176.9890  140.6910 N   0  0  0  0  0  2  0  0  0  0  0  0
  190.2230  177.5130  138.2470 N   0  0  0  0  0  2  0  0  0  0  0  0
  188.1430  178.1450  139.1280 O   0  0  0  0  0  0  0  0  0  0  0  0
  188.3260  178.3140  136.7670 C   0  0  0  0  0  2  0  0  0  0  0  0
  187.5360  179.4660  136.8630 O   0  0  0  0  0  1  0  0  0  0  0  0
  184.1160  178.6730  145.1830 C   0  0  0  0  0  2  0  0  0  0  0  0
  183.5880  179.7350  144.2330 C   0  0  0  0  0  2  0  0  0  0  0  0
  181.2110  180.1410  143.0730 O   0  0  0  0  0  0  0  0  0  0  0  0
  181.6370  177.9210  144.0130 O   0  0  0  0  0  0  0  0  0  0  0  0
  182.2490  179.0740  143.2730 S   0  0  0  0  0  0  0  0  0  0  0  0
  182.8600  178.5480  141.7330 N   0  0  0  0  0  2  0  0  0  0  0  0
  181.8240  178.7650  140.7340 C   0  0  2  0  0  3  0  0  0  0  0  0
  181.1620  177.4670  140.3580 C   0  0  0  0  0  0  0  0  0  0  0  0
  180.0330  175.0280  139.5320 C   0  0  0  0  0  0  0  0  0  0  0  0
  179.4830  173.8550  139.1130 F   0  0  0  0  0  0  0  0  0  0  0  0
  178.9330  178.1390  141.3540 C   0  0  0  0  0  1  0  0  0  0  0  0
  181.9420  176.5150  139.6860 C   0  0  0  0  0  3  0  0  0  0  0  0
  181.3850  175.2990  139.2760 C   0  0  0  0  0  3  0  0  0  0  0  0
  179.2510  175.9630  140.2090 C   0  0  0  0  0  3  0  0  0  0  0  0
  179.8040  177.1820  140.6270 C   0  0  0  0  0  0  0  0  0  0  0  0
  182.3790  179.5000  139.5180 C   0  0  0  0  0  2  0  0  0  0  0  0
  180.4680  180.8880  139.8420 O   0  0  0  0  0  0  0  0  0  0  0  0
  181.4280  180.5670  139.0880 C   0  0  0  0  0  0  0  0  0  0  0  0
  181.5890  181.1980  137.8150 N   0  0  0  0  0  2  0  0  0  0  0  0
  180.0480  181.9260  136.0690 C   0  0  0  0  0  1  0  0  0  0  0  0
  180.7450  182.2960  137.3650 C   0  0  0  0  0  2  0  0  0  0  0  0
  2  8  1  0  0  0  0
  3 10  1  0  0  0  0
  3  7  1  0  0  0  0
  4 11  1  0  0  0  0
  5  4  2  0  0  0  0
  5  6  1  0  0  0  0
  6  2  2  0  0  0  0
  6  9  1  0  0  0  0
  8 10  2  0  0  0  0
  9  3  2  0  0  0  0
 11  9  1  0  0  0  0
 11  1  1  1  0  0  0
 12  2  1  0  0  0  0
 13 12  1  0  0  0  0
 14 15  2  0  0  0  0
 15 17  1  0  0  0  0
 16 18  1  0  0  0  0
 16 19  2  0  0  0  0
 17 13  1  0  0  0  0
 18 15  1  0  0  0  0
 20 21  1  0  0  0  0
 20 16  1  0  0  0  0
 22  1  1  0  0  0  0
 23 22  1  0  0  0  0
 24 26  2  0  0  0  0
 26 25  2  0  0  0  0
 26 23  1  0  0  0  0
 27 26  1  0  0  0  0
 28 37  1  6  0  0  0
 28 27  1  0  0  0  0
 29 36  1  0  0  0  0
 29 28  1  0  0  0  0
 30 35  1  0  0  0  0
 31 30  1  0  0  0  0
 33 29  2  0  0  0  0
 34 30  2  0  0  0  0
 34 33  1  0  0  0  0
 35 36  2  0  0  0  0
 36 32  1  0  0  0  0
 39 37  1  0  0  0  0
 39 38  2  0  0  0  0
 40 39  1  0  0  0  0
 41 42  1  0  0  0  0
 42 40  1  0  0  0  0
M  END
>  <MODEL>
8

>  <REMARK>
 VINA RESULT:      -7.9      4.599      8.530
  Name = 
  14 active torsions:
  status: ('A' for Active; 'I' for Inactive)
    1  A    between atoms: C_1  and  C_39
    2  A    between atoms: C_2  and  C_15
    3  A    between atoms: C_2  and  C_40
    4  A    between atoms: C_5  and  C_29
    5  A    between atoms: C_8  and  C_37
    6  A    between atoms: C_12  and  N_26
    7  A    between atoms: C_14  and  C_15
    8  A    between atoms: C_14  and  S_36
    9  A    between atoms: C_23  and  C_24
   10  A    between atoms: C_23  and  C_37
   11  A    between atoms: N_32  and  C_38
   12  A    between atoms: S_36  and  N_41
   13  A    between atoms: C_37  and  N_41
   14  A    between atoms: C_38  and  C_39
                            x       y       z     vdW  Elec       q    Type
                         _______ _______ _______ _____ _____    ______ ____

>  <TORSDO>
F 14

$$$$
=
 OpenBabel10222419313D

 42 44  0  0  1  0  0  0  0  0999 V2000
  191.0230  176.9610  138.1760 C   0  0  0  0  0  2  0  0  0  0  0  0
  186.9520  175.4800  136.4180 C   0  0  0  0  0  0  0  0  0  0  0  0
  188.1730  177.9350  136.9600 C   0  0  0  0  0  0  0  0  0  0  0  0
  190.6720  175.1930  136.4710 N   0  0  0  0  0  0  0  0  0  0  0  0
  189.3660  174.5270  136.3360 C   0  0  0  0  0  3  0  0  0  0  0  0
  188.3460  175.5830  136.5210 C   0  0  0  0  0  0  0  0  0  0  0  0
  188.8060  179.2560  137.2290 C   0  0  0  0  0  1  0  0  0  0  0  0
  186.1940  176.6440  136.6170 C   0  0  0  0  0  3  0  0  0  0  0  0
  188.9430  176.7790  136.7760 C   0  0  0  0  0  0  0  0  0  0  0  0
  186.8150  177.8340  136.8820 N   0  0  0  0  0  0  0  0  0  0  0  0
  190.4180  176.6060  136.8100 C   0  0  1  0  0  3  0  0  0  0  0  0
  186.2740  174.1890  136.0990 C   0  0  0  0  0  2  0  0  0  0  0  0
  185.8760  173.4750  137.3840 C   0  0  0  0  0  2  0  0  0  0  0  0
  184.4230  171.2100  136.4370 O   0  0  0  0  0  0  0  0  0  0  0  0
  183.7540  172.1820  136.8800 C   0  0  0  0  0  0  0  0  0  0  0  0
  181.4150  173.1390  137.2670 C   0  0  0  0  0  0  0  0  0  0  0  0
  184.4310  173.3180  137.4470 N   0  0  0  0  0  2  0  0  0  0  0  0
  182.3220  172.1110  136.8470 N   0  0  0  0  0  2  0  0  0  0  0  0
  181.8320  174.2800  137.5940 O   0  0  0  0  0  0  0  0  0  0  0  0
  179.9420  172.8900  137.2360 C   0  0  0  0  0  2  0  0  0  0  0  0
  179.7010  171.5130  137.1520 O   0  0  0  0  0  1  0  0  0  0  0  0
  190.3190  176.2800  139.3500 C   0  0  0  0  0  2  0  0  0  0  0  0
  189.7040  177.3090  140.2830 C   0  0  0  0  0  2  0  0  0  0  0  0
  191.8250  177.4720  141.9060 O   0  0  0  0  0  0  0  0  0  0  0  0
  190.2110  175.6820  142.3420 O   0  0  0  0  0  0  0  0  0  0  0  0
  190.3660  177.1140  141.9180 S   0  0  0  0  0  0  0  0  0  0  0  0
  189.5100  178.1620  143.0070 N   0  0  0  0  0  2  0  0  0  0  0  0
  189.4480  177.5140  144.3100 C   0  0  2  0  0  3  0  0  0  0  0  0
  188.1150  177.7540  144.9650 C   0  0  0  0  0  0  0  0  0  0  0  0
  185.6830  178.1330  146.3250 C   0  0  0  0  0  0  0  0  0  0  0  0
  184.5050  178.2950  146.9870 F   0  0  0  0  0  0  0  0  0  0  0  0
  186.8600  177.7370  142.7660 C   0  0  0  0  0  1  0  0  0  0  0  0
  188.0940  177.8770  146.3620 C   0  0  0  0  0  3  0  0  0  0  0  0
  186.8870  178.0690  147.0410 C   0  0  0  0  0  3  0  0  0  0  0  0
  185.6940  178.0230  144.9350 C   0  0  0  0  0  3  0  0  0  0  0  0
  186.9010  177.8360  144.2460 C   0  0  0  0  0  0  0  0  0  0  0  0
  190.6110  177.9510  145.1960 C   0  0  0  0  0  2  0  0  0  0  0  0
  192.0490  176.0610  144.9750 O   0  0  0  0  0  0  0  0  0  0  0  0
  191.3170  176.7520  145.7370 C   0  0  0  0  0  0  0  0  0  0  0  0
  191.1390  176.3750  147.1050 N   0  0  0  0  0  2  0  0  0  0  0  0
  193.0620  175.7770  148.4820 C   0  0  0  0  0  1  0  0  0  0  0  0
  191.8550  175.2650  147.7180 C   0  0  0  0  0  2  0  0  0  0  0  0
  1 22  1  0  0  0  0
  2  6  2  0  0  0  0
  2  8  1  0  0  0  0
  3  7  1  0  0  0  0
  4 11  1  0  0  0  0
  5  4  2  0  0  0  0
  5  6  1  0  0  0  0
  6  9  1  0  0  0  0
  8 10  2  0  0  0  0
  9 11  1  0  0  0  0
  9  3  2  0  0  0  0
 10  3  1  0  0  0  0
 11  1  1  1  0  0  0
 12  2  1  0  0  0  0
 12 13  1  0  0  0  0
 13 17  1  0  0  0  0
 14 15  2  0  0  0  0
 15 17  1  0  0  0  0
 16 19  2  0  0  0  0
 18 15  1  0  0  0  0
 18 16  1  0  0  0  0
 20 16  1  0  0  0  0
 21 20  1  0  0  0  0
 22 23  1  0  0  0  0
 23 26  1  0  0  0  0
 24 26  2  0  0  0  0
 26 25  2  0  0  0  0
 26 27  1  0  0  0  0
 27 28  1  0  0  0  0
 28 29  1  0  0  0  0
 28 37  1  1  0  0  0
 29 33  1  0  0  0  0
 30 31  1  0  0  0  0
 30 34  1  0  0  0  0
 32 36  1  0  0  0  0
 33 34  2  0  0  0  0
 35 30  2  0  0  0  0
 36 35  1  0  0  0  0
 36 29  2  0  0  0  0
 37 39  1  0  0  0  0
 38 39  2  0  0  0  0
 39 40  1  0  0  0  0
 40 42  1  0  0  0  0
 42 41  1  0  0  0  0
M  END
>  <MODEL>
9

>  <REMARK>
 VINA RESULT:      -7.8      3.354      5.297
  Name = 
  14 active torsions:
  status: ('A' for Active; 'I' for Inactive)
    1  A    between atoms: C_1  and  C_39
    2  A    between atoms: C_2  and  C_15
    3  A    between atoms: C_2  and  C_40
    4  A    between atoms: C_5  and  C_29
    5  A    between atoms: C_8  and  C_37
    6  A    between atoms: C_12  and  N_26
    7  A    between atoms: C_14  and  C_15
    8  A    between atoms: C_14  and  S_36
    9  A    between atoms: C_23  and  C_24
   10  A    between atoms: C_23  and  C_37
   11  A    between atoms: N_32  and  C_38
   12  A    between atoms: S_36  and  N_41
   13  A    between atoms: C_37  and  N_41
   14  A    between atoms: C_38  and  C_39
                            x       y       z     vdW  Elec       q    Type
                         _______ _______ _______ _____ _____    ______ ____

>  <TORSDO>
F 14

$$$$
