=
 OpenBabel10222419073D

 48 51  0  0  1  0  0  0  0  0999 V2000
  185.2240  178.1320  138.8620 C   0  0  2  0  0  3  0  0  0  0  0  0
  189.7720  177.4650  138.0640 C   0  0  1  0  0  3  0  0  0  0  0  0
  188.5730  176.7020  138.6340 C   0  0  0  0  0  2  0  0  0  0  0  0
  185.8450  178.4650  136.5940 C   0  0  0  0  0  2  0  0  0  0  0  0
  188.2770  179.0840  136.8520 C   0  0  0  0  0  2  0  0  0  0  0  0
  186.0370  178.9690  137.9750 N   0  0  0  0  0  0  0  0  0  0  0  0
  189.4110  178.9400  137.8640 C   0  0  0  0  0  2  0  0  0  0  0  0
  187.3820  176.7570  137.6790 C   0  0  0  0  0  2  0  0  0  0  0  0
  187.1020  178.2130  137.2740 C   0  0  1  0  0  0  0  0  0  0  0  0
  190.8460  177.3600  138.9480 O   0  0  0  0  0  0  0  0  0  0  0  0
  191.5430  176.3630  136.5820 C   0  0  0  0  0  1  0  0  0  0  0  0
  193.3040  176.7370  138.5440 O   0  0  0  0  0  1  0  0  0  0  0  0
  191.7460  175.9820  138.3920 P   0  0  1  0  0  0  0  0  0  0  0  0
  181.8990  179.5380  138.5820 C   0  0  0  0  0  0  0  0  0  0  0  0
  181.4850  178.0980  138.4600 C   0  0  2  0  0  3  0  0  0  0  0  0
  183.0860  176.0990  138.4860 O   0  0  0  0  0  1  0  0  0  0  0  0
  183.1780  179.6940  138.7070 N   0  0  0  0  0  0  0  0  0  0  0  0
  182.8360  177.4650  138.5150 C   0  0  0  0  0  0  0  0  0  0  0  0
  183.7610  178.4000  138.6470 C   0  0  0  0  0  0  0  0  0  0  0  0
  180.7710  177.7980  137.1350 C   0  0  0  0  0  0  0  0  0  0  0  0
  179.4420  178.1600  137.2450 F   0  0  0  0  0  0  0  0  0  0  0  0
  181.3480  178.5410  136.1200 F   0  0  0  0  0  0  0  0  0  0  0  0
  180.8520  176.4500  136.8170 F   0  0  0  0  0  0  0  0  0  0  0  0
  180.9450  180.6850  138.6540 C   0  0  0  0  0  2  0  0  0  0  0  0
  181.6700  181.9840  138.3300 C   0  0  0  0  0  2  0  0  0  0  0  0
  181.5540  184.0510  137.2690 C   0  0  0  0  0  1  0  0  0  0  0  0
  180.8500  182.7970  137.4500 N   0  0  0  0  0  0  0  0  0  0  0  0
  179.6310  183.1060  138.1770 C   0  0  0  0  0  1  0  0  0  0  0  0
  184.7680  178.4670  142.7230 C   0  0  0  0  0  0  0  0  0  0  0  0
  186.7600  178.7330  140.5800 O   0  0  0  0  0  0  0  0  0  0  0  0
  184.5760  178.2520  141.3180 N   0  0  0  0  0  2  0  0  0  0  0  0
  183.8080  178.2550  143.5100 O   0  0  0  0  0  0  0  0  0  0  0  0
  185.5750  178.4020  140.2940 C   0  0  0  0  0  0  0  0  0  0  0  0
  186.0640  178.9530  143.2770 C   0  0  0  0  0  2  0  0  0  0  0  0
  186.7610  177.8420  144.0430 C   0  0  0  0  0  2  0  0  0  0  0  0
  186.3290  177.8640  145.5000 C   0  0  0  0  0  2  0  0  0  0  0  0
  188.5870  178.2400  148.5290 C   0  0  0  0  0  3  0  0  0  0  0  0
  189.7540  177.8930  147.9810 C   0  0  0  0  0  3  0  0  0  0  0  0
  187.2840  178.0000  147.8180 C   0  0  0  0  0  2  0  0  0  0  0  0
  189.8350  177.3250  146.6210 C   0  0  0  0  0  0  0  0  0  0  0  0
  187.4850  177.7920  146.3790 N   0  0  0  0  0  0  0  0  0  0  0  0
  188.7300  177.2940  145.8670 C   0  0  0  0  0  3  0  0  0  0  0  0
  191.7050  175.8880  146.7910 O   0  0  0  0  0  0  0  0  0  0  0  0
  191.6750  177.1160  144.8260 N   0  0  0  0  0  2  0  0  0  0  0  0
  191.0930  176.7450  146.0890 C   0  0  0  0  0  0  0  0  0  0  0  0
  191.1010  177.8960  143.7330 C   0  0  0  0  0  3  0  0  0  0  0  0
  191.6730  177.4900  142.3890 C   0  0  0  0  0  1  0  0  0  0  0  0
  191.2050  179.3940  143.9730 C   0  0  0  0  0  1  0  0  0  0  0  0
  1 33  1  1  0  0  0
  2  3  1  0  0  0  0
  2 10  1  1  0  0  0
  4  6  1  0  0  0  0
  5  9  1  0  0  0  0
  5  7  1  0  0  0  0
  6  1  1  0  0  0  0
  7  2  1  0  0  0  0
  8  3  1  0  0  0  0
  9  4  1  6  0  0  0
  9  8  1  0  0  0  0
  9  6  1  0  0  0  0
 13 11  1  6  0  0  0
 13 12  1  0  0  0  0
 13 10  1  0  0  0  0
 14 24  1  0  0  0  0
 14 17  2  0  0  0  0
 15 20  1  6  0  0  0
 15 18  1  0  0  0  0
 15 14  1  0  0  0  0
 16 18  1  0  0  0  0
 18 19  2  0  0  0  0
 19 17  1  0  0  0  0
 19  1  1  0  0  0  0
 20 21  1  0  0  0  0
 22 20  1  0  0  0  0
 23 20  1  0  0  0  0
 25 24  1  0  0  0  0
 26 27  1  0  0  0  0
 27 28  1  0  0  0  0
 27 25  1  0  0  0  0
 29 34  1  0  0  0  0
 29 32  2  0  0  0  0
 31 29  1  0  0  0  0
 33 30  2  0  0  0  0
 33 31  1  0  0  0  0
 34 35  1  0  0  0  0
 35 36  1  0  0  0  0
 36 41  1  0  0  0  0
 38 37  2  0  0  0  0
 39 37  1  0  0  0  0
 40 38  1  0  0  0  0
 41 39  1  0  0  0  0
 42 41  1  0  0  0  0
 42 40  2  0  0  0  0
 44 45  1  0  0  0  0
 45 40  1  0  0  0  0
 45 43  2  0  0  0  0
 46 48  1  0  0  0  0
 46 44  1  0  0  0  0
 47 46  1  0  0  0  0
M  END
>  <MODEL>
1

>  <REMARK>
 VINA RESULT:      -7.5      0.000      0.000
  Name = 
  15 active torsions:
  status: ('A' for Active; 'I' for Inactive)
    1  A    between atoms: C_1  and  O_36
    2  A    between atoms: C_2  and  N_22
    3  A    between atoms: C_2  and  C_39
    4  A    between atoms: C_2  and  C_42
    5  A    between atoms: C_4  and  C_5
    6  A    between atoms: C_5  and  C_33
    7  A    between atoms: C_9  and  C_13
    8  A    between atoms: C_10  and  C_14
    9  A    between atoms: C_14  and  C_26
   10  A    between atoms: C_17  and  C_26
   11  A    between atoms: C_17  and  N_29
   12  A    between atoms: C_19  and  N_35
   13  A    between atoms: N_25  and  C_33
   14  A    between atoms: C_28  and  C_44
   15  A    between atoms: O_36  and  P_43
                            x       y       z     vdW  Elec       q    Type
                         _______ _______ _______ _____ _____    ______ ____

>  <TORSDO>
F 15

$$$$
=
 OpenBabel10222419073D

 48 51  0  0  1  0  0  0  0  0999 V2000
  185.3440  178.0820  138.8620 C   0  0  2  0  0  3  0  0  0  0  0  0
  189.8470  177.2230  138.0020 C   0  0  1  0  0  3  0  0  0  0  0  0
  188.6180  176.5010  138.5590 C   0  0  0  0  0  2  0  0  0  0  0  0
  185.9620  178.4540  136.5990 C   0  0  0  0  0  2  0  0  0  0  0  0
  188.4230  178.9480  136.8520 C   0  0  0  0  0  2  0  0  0  0  0  0
  186.1880  178.9060  137.9930 N   0  0  0  0  0  0  0  0  0  0  0  0
  189.5560  178.7190  137.8490 C   0  0  0  0  0  2  0  0  0  0  0  0
  187.4240  176.6420  137.6170 C   0  0  0  0  0  2  0  0  0  0  0  0
  187.2110  178.1220  137.2590 C   0  0  1  0  0  0  0  0  0  0  0  0
  190.9220  177.0400  138.8720 O   0  0  0  0  0  0  0  0  0  0  0  0
  191.3700  176.2070  136.3860 C   0  0  0  0  0  1  0  0  0  0  0  0
  193.3480  176.7560  138.0820 O   0  0  0  0  0  1  0  0  0  0  0  0
  191.8920  175.8070  138.1270 P   0  0  1  0  0  0  0  0  0  0  0  0
  181.8400  177.9970  137.9490 C   0  0  0  0  0  0  0  0  0  0  0  0
  181.9170  179.4790  138.1870 C   0  0  2  0  0  3  0  0  0  0  0  0
  184.0130  180.7400  138.9490 O   0  0  0  0  0  1  0  0  0  0  0  0
  182.9590  177.3850  138.1680 N   0  0  0  0  0  0  0  0  0  0  0  0
  183.3420  179.5680  138.6230 C   0  0  0  0  0  0  0  0  0  0  0  0
  183.8900  178.3650  138.6050 C   0  0  0  0  0  0  0  0  0  0  0  0
  180.9570  179.9540  139.2860 C   0  0  0  0  0  0  0  0  0  0  0  0
  181.0060  181.3320  139.3660 F   0  0  0  0  0  0  0  0  0  0  0  0
  179.6640  179.5770  138.9650 F   0  0  0  0  0  0  0  0  0  0  0  0
  181.2980  179.4120  140.5170 F   0  0  0  0  0  0  0  0  0  0  0  0
  180.6350  177.2910  137.4200 C   0  0  0  0  0  2  0  0  0  0  0  0
  181.0430  175.9630  136.7980 C   0  0  0  0  0  2  0  0  0  0  0  0
  180.0000  173.8950  136.5870 C   0  0  0  0  0  1  0  0  0  0  0  0
  180.4640  174.8680  137.5550 N   0  0  0  0  0  0  0  0  0  0  0  0
  179.2820  175.3930  138.2170 C   0  0  0  0  0  1  0  0  0  0  0  0
  184.7810  178.4630  142.7040 C   0  0  0  0  0  0  0  0  0  0  0  0
  186.8420  178.6600  140.6200 O   0  0  0  0  0  0  0  0  0  0  0  0
  184.6260  178.2410  141.2960 N   0  0  0  0  0  2  0  0  0  0  0  0
  183.7940  178.2830  143.4630 O   0  0  0  0  0  0  0  0  0  0  0  0
  185.6580  178.3570  140.3010 C   0  0  0  0  0  0  0  0  0  0  0  0
  186.0730  178.9220  143.2930 C   0  0  0  0  0  2  0  0  0  0  0  0
  186.7490  177.7820  144.0350 C   0  0  0  0  0  2  0  0  0  0  0  0
  186.2990  177.7670  145.4860 C   0  0  0  0  0  2  0  0  0  0  0  0
  188.5120  178.1880  148.5430 C   0  0  0  0  0  3  0  0  0  0  0  0
  189.6940  177.8720  148.0060 C   0  0  0  0  0  3  0  0  0  0  0  0
  187.2240  177.9190  147.8160 C   0  0  0  0  0  2  0  0  0  0  0  0
  189.8040  177.3110  146.6460 C   0  0  0  0  0  0  0  0  0  0  0  0
  187.4470  177.7200  146.3780 N   0  0  0  0  0  0  0  0  0  0  0  0
  188.7090  177.2550  145.8790 C   0  0  0  0  0  3  0  0  0  0  0  0
  191.7300  175.9530  146.8510 O   0  0  0  0  0  0  0  0  0  0  0  0
  191.6460  177.1190  144.8510 N   0  0  0  0  0  2  0  0  0  0  0  0
  191.0830  176.7640  146.1270 C   0  0  0  0  0  0  0  0  0  0  0  0
  191.0390  177.8440  143.7370 C   0  0  0  0  0  3  0  0  0  0  0  0
  191.5740  177.3710  142.3990 C   0  0  0  0  0  1  0  0  0  0  0  0
  191.1480  179.3520  143.8990 C   0  0  0  0  0  1  0  0  0  0  0  0
  1 33  1  1  0  0  0
  2  3  1  0  0  0  0
  2 10  1  1  0  0  0
  4  6  1  0  0  0  0
  5  9  1  0  0  0  0
  5  7  1  0  0  0  0
  6  1  1  0  0  0  0
  7  2  1  0  0  0  0
  8  3  1  0  0  0  0
  9  4  1  6  0  0  0
  9  8  1  0  0  0  0
  9  6  1  0  0  0  0
 12 13  1  0  0  0  0
 13 11  1  6  0  0  0
 13 10  1  0  0  0  0
 14 17  2  0  0  0  0
 14 15  1  0  0  0  0
 15 18  1  0  0  0  0
 15 20  1  1  0  0  0
 17 19  1  0  0  0  0
 18 16  1  0  0  0  0
 19 18  2  0  0  0  0
 19  1  1  0  0  0  0
 20 21  1  0  0  0  0
 20 23  1  0  0  0  0
 22 20  1  0  0  0  0
 24 14  1  0  0  0  0
 25 24  1  0  0  0  0
 25 27  1  0  0  0  0
 26 27  1  0  0  0  0
 27 28  1  0  0  0  0
 29 34  1  0  0  0  0
 29 32  2  0  0  0  0
 31 29  1  0  0  0  0
 33 30  2  0  0  0  0
 33 31  1  0  0  0  0
 34 35  1  0  0  0  0
 35 36  1  0  0  0  0
 36 41  1  0  0  0  0
 38 37  2  0  0  0  0
 39 37  1  0  0  0  0
 40 38  1  0  0  0  0
 41 39  1  0  0  0  0
 42 41  1  0  0  0  0
 42 40  2  0  0  0  0
 44 45  1  0  0  0  0
 45 40  1  0  0  0  0
 45 43  2  0  0  0  0
 46 48  1  0  0  0  0
 46 44  1  0  0  0  0
 47 46  1  0  0  0  0
M  END
>  <MODEL>
2

>  <REMARK>
 VINA RESULT:      -7.4      1.705      2.816
  Name = 
  15 active torsions:
  status: ('A' for Active; 'I' for Inactive)
    1  A    between atoms: C_1  and  O_36
    2  A    between atoms: C_2  and  N_22
    3  A    between atoms: C_2  and  C_39
    4  A    between atoms: C_2  and  C_42
    5  A    between atoms: C_4  and  C_5
    6  A    between atoms: C_5  and  C_33
    7  A    between atoms: C_9  and  C_13
    8  A    between atoms: C_10  and  C_14
    9  A    between atoms: C_14  and  C_26
   10  A    between atoms: C_17  and  C_26
   11  A    between atoms: C_17  and  N_29
   12  A    between atoms: C_19  and  N_35
   13  A    between atoms: N_25  and  C_33
   14  A    between atoms: C_28  and  C_44
   15  A    between atoms: O_36  and  P_43
                            x       y       z     vdW  Elec       q    Type
                         _______ _______ _______ _____ _____    ______ ____

>  <TORSDO>
F 15

$$$$
=
 OpenBabel10222419073D

 48 51  0  0  1  0  0  0  0  0999 V2000
  189.4090  175.7160  137.5160 C   0  0  2  0  0  3  0  0  0  0  0  0
  193.9570  175.0010  136.7640 C   0  0  1  0  0  3  0  0  0  0  0  0
  192.7900  174.3460  137.5060 C   0  0  0  0  0  2  0  0  0  0  0  0
  189.9770  175.5880  135.2140 C   0  0  0  0  0  2  0  0  0  0  0  0
  192.3970  176.3010  135.2800 C   0  0  0  0  0  2  0  0  0  0  0  0
  190.1810  176.3700  136.4570 N   0  0  0  0  0  0  0  0  0  0  0  0
  193.5530  176.3950  136.2720 C   0  0  0  0  0  2  0  0  0  0  0  0
  191.5810  174.1750  136.5890 C   0  0  0  0  0  2  0  0  0  0  0  0
  191.2540  175.5100  135.9000 C   0  0  1  0  0  0  0  0  0  0  0  0
  195.0500  175.1050  137.6240 O   0  0  0  0  0  0  0  0  0  0  0  0
  196.8510  173.1940  137.2030 C   0  0  0  0  0  1  0  0  0  0  0  0
  196.1500  173.9750  139.6500 O   0  0  0  0  0  1  0  0  0  0  0  0
  195.3130  173.4900  138.2060 P   0  0  1  0  0  0  0  0  0  0  0  0
  185.9520  174.9860  136.7210 C   0  0  0  0  0  0  0  0  0  0  0  0
  185.8790  176.4640  136.4560 C   0  0  2  0  0  3  0  0  0  0  0  0
  187.8230  178.1080  136.7360 O   0  0  0  0  0  1  0  0  0  0  0  0
  187.1210  174.5950  137.1170 N   0  0  0  0  0  0  0  0  0  0  0  0
  187.2780  176.8330  136.8230 C   0  0  0  0  0  0  0  0  0  0  0  0
  187.9410  175.7520  137.1970 C   0  0  0  0  0  0  0  0  0  0  0  0
  184.8520  177.1750  137.3470 C   0  0  0  0  0  0  0  0  0  0  0  0
  184.2420  176.2450  138.1670 F   0  0  0  0  0  0  0  0  0  0  0  0
  185.4960  178.1080  138.1420 F   0  0  0  0  0  0  0  0  0  0  0  0
  183.8840  177.8150  136.5850 F   0  0  0  0  0  0  0  0  0  0  0  0
  184.8340  174.0290  136.4670 C   0  0  0  0  0  2  0  0  0  0  0  0
  185.0200  172.7780  137.3140 C   0  0  0  0  0  2  0  0  0  0  0  0
  184.0260  171.0230  136.1560 C   0  0  0  0  0  1  0  0  0  0  0  0
  183.8250  171.9570  137.2450 N   0  0  0  0  0  0  0  0  0  0  0  0
  182.7360  172.8320  136.8480 C   0  0  0  0  0  1  0  0  0  0  0  0
  191.3770  177.3130  140.4830 C   0  0  0  0  0  0  0  0  0  0  0  0
  188.6580  176.7540  139.5230 O   0  0  0  0  0  0  0  0  0  0  0  0
  190.9960  176.6640  139.2620 N   0  0  0  0  0  2  0  0  0  0  0  0
  192.5980  177.5160  140.7110 O   0  0  0  0  0  0  0  0  0  0  0  0
  189.6500  176.3980  138.8280 C   0  0  0  0  0  0  0  0  0  0  0  0
  190.3710  177.7350  141.5000 C   0  0  0  0  0  2  0  0  0  0  0  0
  190.3930  176.7900  142.6880 C   0  0  0  0  0  2  0  0  0  0  0  0
  189.0050  176.2190  142.9260 C   0  0  0  0  0  2  0  0  0  0  0  0
  188.3410  177.4960  146.4390 C   0  0  0  0  0  3  0  0  0  0  0  0
  187.0650  177.8650  146.3040 C   0  0  0  0  0  3  0  0  0  0  0  0
  189.1920  177.1620  145.2460 C   0  0  0  0  0  2  0  0  0  0  0  0
  186.4000  177.8930  144.9860 C   0  0  0  0  0  0  0  0  0  0  0  0
  188.3720  176.8640  144.0650 N   0  0  0  0  0  0  0  0  0  0  0  0
  187.0480  177.3990  143.9250 C   0  0  0  0  0  3  0  0  0  0  0  0
  184.4760  178.9950  145.8080 O   0  0  0  0  0  0  0  0  0  0  0  0
  184.3650  178.5380  143.5390 N   0  0  0  0  0  2  0  0  0  0  0  0
  185.0580  178.4990  144.8000 C   0  0  0  0  0  0  0  0  0  0  0  0
  184.8610  178.2460  142.1970 C   0  0  0  0  0  3  0  0  0  0  0  0
  185.7210  179.3720  141.6570 C   0  0  0  0  0  1  0  0  0  0  0  0
  183.7460  177.8630  141.2370 C   0  0  0  0  0  1  0  0  0  0  0  0
  1 33  1  1  0  0  0
  2  3  1  0  0  0  0
  2 10  1  1  0  0  0
  4  6  1  0  0  0  0
  5  9  1  0  0  0  0
  5  7  1  0  0  0  0
  6  1  1  0  0  0  0
  7  2  1  0  0  0  0
  8  3  1  0  0  0  0
  9  4  1  6  0  0  0
  9  6  1  0  0  0  0
  9  8  1  0  0  0  0
 10 13  1  0  0  0  0
 13 11  1  6  0  0  0
 13 12  1  0  0  0  0
 14 17  2  0  0  0  0
 15 14  1  0  0  0  0
 15 18  1  0  0  0  0
 15 20  1  1  0  0  0
 16 18  1  0  0  0  0
 17 19  1  0  0  0  0
 18 19  2  0  0  0  0
 19  1  1  0  0  0  0
 20 22  1  0  0  0  0
 20 21  1  0  0  0  0
 23 20  1  0  0  0  0
 24 14  1  0  0  0  0
 24 25  1  0  0  0  0
 26 27  1  0  0  0  0
 27 25  1  0  0  0  0
 28 27  1  0  0  0  0
 29 32  2  0  0  0  0
 29 34  1  0  0  0  0
 31 29  1  0  0  0  0
 33 31  1  0  0  0  0
 33 30  2  0  0  0  0
 34 35  1  0  0  0  0
 35 36  1  0  0  0  0
 36 41  1  0  0  0  0
 38 37  2  0  0  0  0
 39 37  1  0  0  0  0
 40 38  1  0  0  0  0
 41 39  1  0  0  0  0
 42 41  1  0  0  0  0
 42 40  2  0  0  0  0
 44 45  1  0  0  0  0
 45 40  1  0  0  0  0
 45 43  2  0  0  0  0
 46 44  1  0  0  0  0
 47 46  1  0  0  0  0
 48 46  1  0  0  0  0
M  END
>  <MODEL>
3

>  <REMARK>
 VINA RESULT:      -7.2      3.466      6.148
  Name = 
  15 active torsions:
  status: ('A' for Active; 'I' for Inactive)
    1  A    between atoms: C_1  and  O_36
    2  A    between atoms: C_2  and  N_22
    3  A    between atoms: C_2  and  C_39
    4  A    between atoms: C_2  and  C_42
    5  A    between atoms: C_4  and  C_5
    6  A    between atoms: C_5  and  C_33
    7  A    between atoms: C_9  and  C_13
    8  A    between atoms: C_10  and  C_14
    9  A    between atoms: C_14  and  C_26
   10  A    between atoms: C_17  and  C_26
   11  A    between atoms: C_17  and  N_29
   12  A    between atoms: C_19  and  N_35
   13  A    between atoms: N_25  and  C_33
   14  A    between atoms: C_28  and  C_44
   15  A    between atoms: O_36  and  P_43
                            x       y       z     vdW  Elec       q    Type
                         _______ _______ _______ _____ _____    ______ ____

>  <TORSDO>
F 15

$$$$
=
 OpenBabel10222419073D

 48 51  0  0  1  0  0  0  0  0999 V2000
  185.0480  177.8810  138.9840 C   0  0  2  0  0  3  0  0  0  0  0  0
  189.5310  177.4720  137.7600 C   0  0  1  0  0  3  0  0  0  0  0  0
  188.4360  176.6430  138.4370 C   0  0  0  0  0  2  0  0  0  0  0  0
  185.4320  178.2450  136.6700 C   0  0  0  0  0  2  0  0  0  0  0  0
  187.8390  179.0020  136.6990 C   0  0  0  0  0  2  0  0  0  0  0  0
  185.7240  178.7620  138.0290 N   0  0  0  0  0  0  0  0  0  0  0  0
  189.0700  178.9240  137.6000 C   0  0  0  0  0  2  0  0  0  0  0  0
  187.1590  176.6290  137.5980 C   0  0  0  0  0  2  0  0  0  0  0  0
  186.7610  178.0670  137.2270 C   0  0  1  0  0  0  0  0  0  0  0  0
  190.6880  177.4300  138.5390 O   0  0  0  0  0  0  0  0  0  0  0  0
  191.3050  176.1410  136.2960 C   0  0  0  0  0  1  0  0  0  0  0  0
  193.0670  176.5090  138.2580 O   0  0  0  0  0  1  0  0  0  0  0  0
  191.4380  175.9160  138.1380 P   0  0  1  0  0  0  0  0  0  0  0  0
  181.5640  178.8630  138.8680 C   0  0  0  0  0  0  0  0  0  0  0  0
  181.3320  177.3910  138.6720 C   0  0  2  0  0  3  0  0  0  0  0  0
  183.1740  175.6160  138.5420 O   0  0  0  0  0  1  0  0  0  0  0  0
  182.8160  179.1740  138.9710 N   0  0  0  0  0  0  0  0  0  0  0  0
  182.7530  176.9350  138.6570 C   0  0  0  0  0  0  0  0  0  0  0  0
  183.5570  177.9720  138.8210 C   0  0  0  0  0  0  0  0  0  0  0  0
  180.6200  177.0760  137.3490 C   0  0  0  0  0  0  0  0  0  0  0  0
  180.3780  175.7180  137.2780 F   0  0  0  0  0  0  0  0  0  0  0  0
  179.4090  177.7430  137.3040 F   0  0  0  0  0  0  0  0  0  0  0  0
  181.3920  177.4590  136.2610 F   0  0  0  0  0  0  0  0  0  0  0  0
  180.4750  179.8730  139.0300 C   0  0  0  0  0  2  0  0  0  0  0  0
  179.5260  179.4380  140.1380 C   0  0  0  0  0  2  0  0  0  0  0  0
  179.8460  178.2410  142.1060 C   0  0  0  0  0  1  0  0  0  0  0  0
  180.2180  179.4580  141.4140 N   0  0  0  0  0  0  0  0  0  0  0  0
  179.6580  180.5590  142.1780 C   0  0  0  0  0  1  0  0  0  0  0  0
  184.6570  178.4670  142.8220 C   0  0  0  0  0  0  0  0  0  0  0  0
  186.6000  178.6380  140.6250 O   0  0  0  0  0  0  0  0  0  0  0  0
  184.4440  178.1530  141.4400 N   0  0  0  0  0  2  0  0  0  0  0  0
  183.7190  178.2860  143.6420 O   0  0  0  0  0  0  0  0  0  0  0  0
  185.4190  178.2580  140.3870 C   0  0  0  0  0  0  0  0  0  0  0  0
  185.9510  179.0240  143.3150 C   0  0  0  0  0  2  0  0  0  0  0  0
  186.7640  177.9400  144.0000 C   0  0  0  0  0  2  0  0  0  0  0  0
  186.3250  177.7950  145.4480 C   0  0  0  0  0  2  0  0  0  0  0  0
  188.5510  178.2580  148.4880 C   0  0  0  0  0  3  0  0  0  0  0  0
  189.7320  177.9480  147.9480 C   0  0  0  0  0  3  0  0  0  0  0  0
  187.2610  177.9730  147.7710 C   0  0  0  0  0  2  0  0  0  0  0  0
  189.8400  177.3770  146.5910 C   0  0  0  0  0  0  0  0  0  0  0  0
  187.4770  177.7650  146.3340 N   0  0  0  0  0  0  0  0  0  0  0  0
  188.7410  177.3060  145.8310 C   0  0  0  0  0  3  0  0  0  0  0  0
  191.9690  176.3950  146.8960 O   0  0  0  0  0  0  0  0  0  0  0  0
  191.4640  176.8040  144.6720 N   0  0  0  0  0  2  0  0  0  0  0  0
  191.1190  176.8360  146.0690 C   0  0  0  0  0  0  0  0  0  0  0  0
  190.6220  177.0390  143.5020 C   0  0  0  0  0  3  0  0  0  0  0  0
  190.1240  175.7410  142.8960 C   0  0  0  0  0  1  0  0  0  0  0  0
  191.2960  177.9310  142.4720 C   0  0  0  0  0  1  0  0  0  0  0  0
  1 33  1  1  0  0  0
  2  3  1  0  0  0  0
  2 10  1  1  0  0  0
  4  6  1  0  0  0  0
  5  9  1  0  0  0  0
  5  7  1  0  0  0  0
  6  1  1  0  0  0  0
  7  2  1  0  0  0  0
  8  3  1  0  0  0  0
  9  4  1  6  0  0  0
  9  8  1  0  0  0  0
  9  6  1  0  0  0  0
 13 11  1  6  0  0  0
 13 12  1  0  0  0  0
 13 10  1  0  0  0  0
 14 17  2  0  0  0  0
 14 24  1  0  0  0  0
 15 20  1  6  0  0  0
 15 14  1  0  0  0  0
 16 18  1  0  0  0  0
 18 15  1  0  0  0  0
 18 19  2  0  0  0  0
 19 17  1  0  0  0  0
 19  1  1  0  0  0  0
 21 20  1  0  0  0  0
 22 20  1  0  0  0  0
 23 20  1  0  0  0  0
 24 25  1  0  0  0  0
 25 27  1  0  0  0  0
 27 26  1  0  0  0  0
 27 28  1  0  0  0  0
 29 34  1  0  0  0  0
 29 32  2  0  0  0  0
 31 29  1  0  0  0  0
 33 30  2  0  0  0  0
 33 31  1  0  0  0  0
 34 35  1  0  0  0  0
 35 36  1  0  0  0  0
 36 41  1  0  0  0  0
 38 37  2  0  0  0  0
 39 37  1  0  0  0  0
 40 38  1  0  0  0  0
 41 39  1  0  0  0  0
 42 41  1  0  0  0  0
 42 40  2  0  0  0  0
 44 45  1  0  0  0  0
 45 40  1  0  0  0  0
 45 43  2  0  0  0  0
 46 44  1  0  0  0  0
 47 46  1  0  0  0  0
 48 46  1  0  0  0  0
M  END
>  <MODEL>
4

>  <REMARK>
 VINA RESULT:      -7.1      1.244      1.805
  Name = 
  15 active torsions:
  status: ('A' for Active; 'I' for Inactive)
    1  A    between atoms: C_1  and  O_36
    2  A    between atoms: C_2  and  N_22
    3  A    between atoms: C_2  and  C_39
    4  A    between atoms: C_2  and  C_42
    5  A    between atoms: C_4  and  C_5
    6  A    between atoms: C_5  and  C_33
    7  A    between atoms: C_9  and  C_13
    8  A    between atoms: C_10  and  C_14
    9  A    between atoms: C_14  and  C_26
   10  A    between atoms: C_17  and  C_26
   11  A    between atoms: C_17  and  N_29
   12  A    between atoms: C_19  and  N_35
   13  A    between atoms: N_25  and  C_33
   14  A    between atoms: C_28  and  C_44
   15  A    between atoms: O_36  and  P_43
                            x       y       z     vdW  Elec       q    Type
                         _______ _______ _______ _____ _____    ______ ____

>  <TORSDO>
F 15

$$$$
=
 OpenBabel10222419073D

 48 51  0  0  1  0  0  0  0  0999 V2000
  188.9820  175.1630  136.7430 C   0  0  2  0  0  3  0  0  0  0  0  0
  193.6390  175.0230  136.9770 C   0  0  1  0  0  3  0  0  0  0  0  0
  192.4260  174.3860  137.6620 C   0  0  0  0  0  2  0  0  0  0  0  0
  190.0140  174.5800  134.6860 C   0  0  0  0  0  2  0  0  0  0  0  0
  192.2760  175.6640  134.9630 C   0  0  0  0  0  2  0  0  0  0  0  0
  189.8750  175.6590  135.6930 N   0  0  0  0  0  0  0  0  0  0  0  0
  193.1900  176.1750  136.0740 C   0  0  0  0  0  2  0  0  0  0  0  0
  191.4540  173.8110  136.6340 C   0  0  0  0  0  2  0  0  0  0  0  0
  191.1270  174.8730  135.5710 C   0  0  1  0  0  0  0  0  0  0  0  0
  194.5170  175.5020  137.9490 O   0  0  0  0  0  0  0  0  0  0  0  0
  196.7690  174.2580  137.2740 C   0  0  0  0  0  1  0  0  0  0  0  0
  196.2060  174.9160  139.7910 O   0  0  0  0  0  1  0  0  0  0  0  0
  195.3790  174.0990  138.5000 P   0  0  1  0  0  0  0  0  0  0  0  0
  185.7950  173.7860  135.7120 C   0  0  0  0  0  0  0  0  0  0  0  0
  185.7100  175.0430  134.8920 C   0  0  2  0  0  3  0  0  0  0  0  0
  187.4800  176.8950  134.8490 O   0  0  0  0  0  1  0  0  0  0  0  0
  186.8760  173.7100  136.4200 N   0  0  0  0  0  0  0  0  0  0  0  0
  186.9870  175.6860  135.3230 C   0  0  0  0  0  0  0  0  0  0  0  0
  187.6090  174.9040  136.1900 C   0  0  0  0  0  0  0  0  0  0  0  0
  184.4920  175.9040  135.2550 C   0  0  0  0  0  0  0  0  0  0  0  0
  184.4950  176.1430  136.6150 F   0  0  0  0  0  0  0  0  0  0  0  0
  184.5700  177.1180  134.5940 F   0  0  0  0  0  0  0  0  0  0  0  0
  183.3080  175.2700  134.9050 F   0  0  0  0  0  0  0  0  0  0  0  0
  184.7970  172.6770  135.6580 C   0  0  0  0  0  2  0  0  0  0  0  0
  184.2100  172.4390  137.0420 C   0  0  0  0  0  2  0  0  0  0  0  0
  183.7670  170.4730  135.8800 C   0  0  0  0  0  1  0  0  0  0  0  0
  183.3500  171.2690  137.0160 N   0  0  0  0  0  0  0  0  0  0  0  0
  182.0080  171.7420  136.7230 C   0  0  0  0  0  1  0  0  0  0  0  0
  190.1270  177.4330  139.7030 C   0  0  0  0  0  0  0  0  0  0  0  0
  187.7790  176.7160  138.0900 O   0  0  0  0  0  0  0  0  0  0  0  0
  190.0630  176.4950  138.6210 N   0  0  0  0  0  2  0  0  0  0  0  0
  191.2370  177.6560  140.2540 O   0  0  0  0  0  0  0  0  0  0  0  0
  188.8900  176.1610  137.8570 C   0  0  0  0  0  0  0  0  0  0  0  0
  188.9130  178.1370  140.2110 C   0  0  0  0  0  2  0  0  0  0  0  0
  188.5190  177.5930  141.5730 C   0  0  0  0  0  2  0  0  0  0  0  0
  187.1410  178.1030  141.9580 C   0  0  0  0  0  2  0  0  0  0  0  0
  185.5740  178.3580  145.4070 C   0  0  0  0  0  3  0  0  0  0  0  0
  186.6450  178.0890  146.1580 C   0  0  0  0  0  3  0  0  0  0  0  0
  185.5770  178.1200  143.9230 C   0  0  0  0  0  2  0  0  0  0  0  0
  187.9100  177.6150  145.5640 C   0  0  0  0  0  0  0  0  0  0  0  0
  186.9430  178.0140  143.3960 N   0  0  0  0  0  0  0  0  0  0  0  0
  188.0310  177.5950  144.2320 C   0  0  0  0  0  3  0  0  0  0  0  0
  188.7870  176.7990  147.6040 O   0  0  0  0  0  0  0  0  0  0  0  0
  190.3840  176.9890  145.9360 N   0  0  0  0  0  2  0  0  0  0  0  0
  189.0290  177.1160  146.4020 C   0  0  0  0  0  0  0  0  0  0  0  0
  190.9100  177.0710  144.5750 C   0  0  0  0  0  3  0  0  0  0  0  0
  191.7280  175.8470  144.2120 C   0  0  0  0  0  1  0  0  0  0  0  0
  191.6680  178.3650  144.3240 C   0  0  0  0  0  1  0  0  0  0  0  0
  1 33  1  1  0  0  0
  2  3  1  0  0  0  0
  2 10  1  1  0  0  0
  4  6  1  0  0  0  0
  5  9  1  0  0  0  0
  5  7  1  0  0  0  0
  6  1  1  0  0  0  0
  7  2  1  0  0  0  0
  8  3  1  0  0  0  0
  9  4  1  6  0  0  0
  9  6  1  0  0  0  0
  9  8  1  0  0  0  0
 10 13  1  0  0  0  0
 13 11  1  6  0  0  0
 13 12  1  0  0  0  0
 14 17  2  0  0  0  0
 15 20  1  1  0  0  0
 15 18  1  0  0  0  0
 15 14  1  0  0  0  0
 16 18  1  0  0  0  0
 18 19  2  0  0  0  0
 19 17  1  0  0  0  0
 19  1  1  0  0  0  0
 20 21  1  0  0  0  0
 22 20  1  0  0  0  0
 23 20  1  0  0  0  0
 24 14  1  0  0  0  0
 24 25  1  0  0  0  0
 26 27  1  0  0  0  0
 27 25  1  0  0  0  0
 28 27  1  0  0  0  0
 29 34  1  0  0  0  0
 29 32  2  0  0  0  0
 31 29  1  0  0  0  0
 33 30  2  0  0  0  0
 33 31  1  0  0  0  0
 34 35  1  0  0  0  0
 35 36  1  0  0  0  0
 36 41  1  0  0  0  0
 37 38  2  0  0  0  0
 39 37  1  0  0  0  0
 40 38  1  0  0  0  0
 40 45  1  0  0  0  0
 41 39  1  0  0  0  0
 41 42  1  0  0  0  0
 42 40  2  0  0  0  0
 44 45  1  0  0  0  0
 45 43  2  0  0  0  0
 46 44  1  0  0  0  0
 47 46  1  0  0  0  0
 48 46  1  0  0  0  0
M  END
>  <MODEL>
5

>  <REMARK>
 VINA RESULT:      -7.0      4.104      5.815
  Name = 
  15 active torsions:
  status: ('A' for Active; 'I' for Inactive)
    1  A    between atoms: C_1  and  O_36
    2  A    between atoms: C_2  and  N_22
    3  A    between atoms: C_2  and  C_39
    4  A    between atoms: C_2  and  C_42
    5  A    between atoms: C_4  and  C_5
    6  A    between atoms: C_5  and  C_33
    7  A    between atoms: C_9  and  C_13
    8  A    between atoms: C_10  and  C_14
    9  A    between atoms: C_14  and  C_26
   10  A    between atoms: C_17  and  C_26
   11  A    between atoms: C_17  and  N_29
   12  A    between atoms: C_19  and  N_35
   13  A    between atoms: N_25  and  C_33
   14  A    between atoms: C_28  and  C_44
   15  A    between atoms: O_36  and  P_43
                            x       y       z     vdW  Elec       q    Type
                         _______ _______ _______ _____ _____    ______ ____

>  <TORSDO>
F 15

$$$$
=
 OpenBabel10222419073D

 48 51  0  0  1  0  0  0  0  0999 V2000
  189.7640  175.2100  137.1050 C   0  0  2  0  0  3  0  0  0  0  0  0
  194.4160  174.9560  136.8780 C   0  0  1  0  0  3  0  0  0  0  0  0
  193.2510  174.2460  137.5730 C   0  0  0  0  0  2  0  0  0  0  0  0
  190.5880  174.9220  134.8970 C   0  0  0  0  0  2  0  0  0  0  0  0
  192.8970  175.9140  135.1170 C   0  0  0  0  0  2  0  0  0  0  0  0
  190.5730  175.8420  136.0600 N   0  0  0  0  0  0  0  0  0  0  0  0
  193.9230  176.2380  136.2000 C   0  0  0  0  0  2  0  0  0  0  0  0
  192.1720  173.8470  136.5670 C   0  0  0  0  0  2  0  0  0  0  0  0
  191.7840  175.0610  135.7070 C   0  0  1  0  0  0  0  0  0  0  0  0
  195.3930  175.2700  137.8230 O   0  0  0  0  0  0  0  0  0  0  0  0
  196.9350  173.1180  137.5660 C   0  0  0  0  0  1  0  0  0  0  0  0
  196.7660  174.4840  139.8450 O   0  0  0  0  0  1  0  0  0  0  0  0
  195.6390  173.7990  138.7130 P   0  0  1  0  0  0  0  0  0  0  0  0
  186.4560  174.0730  136.1660 C   0  0  0  0  0  0  0  0  0  0  0  0
  186.3250  175.4600  135.6010 C   0  0  2  0  0  3  0  0  0  0  0  0
  188.1320  177.2720  135.7160 O   0  0  0  0  0  1  0  0  0  0  0  0
  187.5980  173.8590  136.7360 N   0  0  0  0  0  0  0  0  0  0  0  0
  187.6550  176.0010  136.0100 C   0  0  0  0  0  0  0  0  0  0  0  0
  188.3370  175.0690  136.6540 C   0  0  0  0  0  0  0  0  0  0  0  0
  185.1720  176.2500  136.2330 C   0  0  0  0  0  0  0  0  0  0  0  0
  185.1230  175.9760  137.5860 F   0  0  0  0  0  0  0  0  0  0  0  0
  185.3930  177.6060  136.0660 F   0  0  0  0  0  0  0  0  0  0  0  0
  183.9560  175.9120  135.6540 F   0  0  0  0  0  0  0  0  0  0  0  0
  185.4280  173.0010  136.0120 C   0  0  0  0  0  2  0  0  0  0  0  0
  184.8680  172.6190  137.3750 C   0  0  0  0  0  2  0  0  0  0  0  0
  183.7890  170.8660  136.2920 C   0  0  0  0  0  1  0  0  0  0  0  0
  183.5820  171.9660  137.2120 N   0  0  0  0  0  0  0  0  0  0  0  0
  182.7120  172.9140  136.5380 C   0  0  0  0  0  1  0  0  0  0  0  0
  191.2770  177.2000  140.1010 C   0  0  0  0  0  0  0  0  0  0  0  0
  188.7250  176.3870  138.8960 O   0  0  0  0  0  0  0  0  0  0  0  0
  191.0790  176.4160  138.9170 N   0  0  0  0  0  2  0  0  0  0  0  0
  192.4500  177.4990  140.4470 O   0  0  0  0  0  0  0  0  0  0  0  0
  189.8110  176.0270  138.3600 C   0  0  0  0  0  0  0  0  0  0  0  0
  190.1360  177.6550  140.9470 C   0  0  0  0  0  2  0  0  0  0  0  0
  190.2770  177.1130  142.3580 C   0  0  0  0  0  2  0  0  0  0  0  0
  190.5090  178.2560  143.3330 C   0  0  0  0  0  2  0  0  0  0  0  0
  191.3900  176.4990  146.5820 C   0  0  0  0  0  3  0  0  0  0  0  0
  190.2360  176.6520  147.2370 C   0  0  0  0  0  3  0  0  0  0  0  0
  191.6810  177.2590  145.3180 C   0  0  0  0  0  2  0  0  0  0  0  0
  189.1570  177.5150  146.7190 C   0  0  0  0  0  0  0  0  0  0  0  0
  190.4520  177.7790  144.7060 N   0  0  0  0  0  0  0  0  0  0  0  0
  189.2820  178.0400  145.4950 C   0  0  0  0  0  3  0  0  0  0  0  0
  188.0870  177.8810  148.7960 O   0  0  0  0  0  0  0  0  0  0  0  0
  186.6680  178.1360  146.9820 N   0  0  0  0  0  2  0  0  0  0  0  0
  187.9660  177.8550  147.5370 C   0  0  0  0  0  0  0  0  0  0  0  0
  186.2840  178.3840  145.5950 C   0  0  0  0  0  3  0  0  0  0  0  0
  184.9290  179.0560  145.4960 C   0  0  0  0  0  1  0  0  0  0  0  0
  186.3690  177.1320  144.7370 C   0  0  0  0  0  1  0  0  0  0  0  0
  1 33  1  1  0  0  0
  2  3  1  0  0  0  0
  2 10  1  1  0  0  0
  4  6  1  0  0  0  0
  5  9  1  0  0  0  0
  5  7  1  0  0  0  0
  6  1  1  0  0  0  0
  7  2  1  0  0  0  0
  8  3  1  0  0  0  0
  9  4  1  6  0  0  0
  9  6  1  0  0  0  0
  9  8  1  0  0  0  0
 10 13  1  0  0  0  0
 13 11  1  6  0  0  0
 13 12  1  0  0  0  0
 14 17  2  0  0  0  0
 15 18  1  0  0  0  0
 15 14  1  0  0  0  0
 15 20  1  1  0  0  0
 16 18  1  0  0  0  0
 18 19  2  0  0  0  0
 19 17  1  0  0  0  0
 19  1  1  0  0  0  0
 20 21  1  0  0  0  0
 22 20  1  0  0  0  0
 23 20  1  0  0  0  0
 24 14  1  0  0  0  0
 24 25  1  0  0  0  0
 26 27  1  0  0  0  0
 27 25  1  0  0  0  0
 28 27  1  0  0  0  0
 29 32  2  0  0  0  0
 29 34  1  0  0  0  0
 31 29  1  0  0  0  0
 33 30  2  0  0  0  0
 33 31  1  0  0  0  0
 34 35  1  0  0  0  0
 35 36  1  0  0  0  0
 36 41  1  0  0  0  0
 37 38  2  0  0  0  0
 39 37  1  0  0  0  0
 40 38  1  0  0  0  0
 40 45  1  0  0  0  0
 41 39  1  0  0  0  0
 41 42  1  0  0  0  0
 42 40  2  0  0  0  0
 44 45  1  0  0  0  0
 45 43  2  0  0  0  0
 46 44  1  0  0  0  0
 47 46  1  0  0  0  0
 48 46  1  0  0  0  0
M  END
>  <MODEL>
6

>  <REMARK>
 VINA RESULT:      -6.9      4.311      6.244
  Name = 
  15 active torsions:
  status: ('A' for Active; 'I' for Inactive)
    1  A    between atoms: C_1  and  O_36
    2  A    between atoms: C_2  and  N_22
    3  A    between atoms: C_2  and  C_39
    4  A    between atoms: C_2  and  C_42
    5  A    between atoms: C_4  and  C_5
    6  A    between atoms: C_5  and  C_33
    7  A    between atoms: C_9  and  C_13
    8  A    between atoms: C_10  and  C_14
    9  A    between atoms: C_14  and  C_26
   10  A    between atoms: C_17  and  C_26
   11  A    between atoms: C_17  and  N_29
   12  A    between atoms: C_19  and  N_35
   13  A    between atoms: N_25  and  C_33
   14  A    between atoms: C_28  and  C_44
   15  A    between atoms: O_36  and  P_43
                            x       y       z     vdW  Elec       q    Type
                         _______ _______ _______ _____ _____    ______ ____

>  <TORSDO>
F 15

$$$$
=
 OpenBabel10222419073D

 48 51  0  0  1  0  0  0  0  0999 V2000
  191.5120  175.7290  136.8200 C   0  0  2  0  0  3  0  0  0  0  0  0
  187.3960  176.8380  134.9260 C   0  0  1  0  0  3  0  0  0  0  0  0
  188.7150  177.5160  135.3060 C   0  0  0  0  0  2  0  0  0  0  0  0
  190.9890  174.4560  134.8850 C   0  0  0  0  0  2  0  0  0  0  0  0
  188.4680  174.5620  134.9110 C   0  0  0  0  0  2  0  0  0  0  0  0
  190.5660  174.7510  136.2750 N   0  0  0  0  0  0  0  0  0  0  0  0
  187.3490  175.4180  135.4990 C   0  0  0  0  0  2  0  0  0  0  0  0
  189.9100  176.7520  134.7390 C   0  0  0  0  0  2  0  0  0  0  0  0
  189.8040  175.2640  135.1100 C   0  0  1  0  0  0  0  0  0  0  0  0
  186.3320  177.5840  135.4320 O   0  0  0  0  0  0  0  0  0  0  0  0
  185.2470  177.9110  137.8380 C   0  0  0  0  0  1  0  0  0  0  0  0
  184.0100  176.5880  135.8860 O   0  0  0  0  0  1  0  0  0  0  0  0
  185.5880  176.5520  136.6140 P   0  0  1  0  0  0  0  0  0  0  0  0
  194.3880  173.6190  137.4490 C   0  0  0  0  0  0  0  0  0  0  0  0
  195.1580  174.8890  137.2140 C   0  0  2  0  0  3  0  0  0  0  0  0
  194.1150  177.1520  136.6180 O   0  0  0  0  0  1  0  0  0  0  0  0
  193.1080  173.7660  137.3230 N   0  0  0  0  0  0  0  0  0  0  0  0
  194.0140  175.7940  136.8920 C   0  0  0  0  0  0  0  0  0  0  0  0
  192.8790  175.1190  136.9580 C   0  0  0  0  0  0  0  0  0  0  0  0
  196.1400  174.7770  136.0400 C   0  0  0  0  0  0  0  0  0  0  0  0
  196.8410  175.9620  135.9210 F   0  0  0  0  0  0  0  0  0  0  0  0
  197.0400  173.7550  136.2850 F   0  0  0  0  0  0  0  0  0  0  0  0
  195.4720  174.5210  134.8500 F   0  0  0  0  0  0  0  0  0  0  0  0
  195.0050  172.3300  137.8820 C   0  0  0  0  0  2  0  0  0  0  0  0
  194.5510  171.2040  136.9630 C   0  0  0  0  0  2  0  0  0  0  0  0
  193.4610  171.1390  134.9100 C   0  0  0  0  0  1  0  0  0  0  0  0
  194.6480  171.6300  135.5790 N   0  0  0  0  0  0  0  0  0  0  0  0
  195.7760  170.9230  134.9990 C   0  0  0  0  0  1  0  0  0  0  0  0
  189.6710  177.9390  139.4570 C   0  0  0  0  0  0  0  0  0  0  0  0
  191.3800  175.5640  139.1920 O   0  0  0  0  0  0  0  0  0  0  0  0
  190.2000  177.3710  138.2510 N   0  0  0  0  0  2  0  0  0  0  0  0
  188.9090  178.9370  139.3790 O   0  0  0  0  0  0  0  0  0  0  0  0
  191.0440  176.2100  138.1600 C   0  0  0  0  0  0  0  0  0  0  0  0
  190.0150  177.3940  140.8020 C   0  0  0  0  0  2  0  0  0  0  0  0
  188.7510  177.1010  141.5910 C   0  0  0  0  0  2  0  0  0  0  0  0
  189.0940  176.3350  142.8580 C   0  0  0  0  0  2  0  0  0  0  0  0
  188.4450  177.5400  146.4000 C   0  0  0  0  0  3  0  0  0  0  0  0
  187.1590  177.8780  146.2870 C   0  0  0  0  0  3  0  0  0  0  0  0
  189.2880  177.2460  145.1900 C   0  0  0  0  0  2  0  0  0  0  0  0
  186.4760  177.9110  144.9780 C   0  0  0  0  0  0  0  0  0  0  0  0
  188.4600  176.9460  144.0150 N   0  0  0  0  0  0  0  0  0  0  0  0
  187.1220  177.4500  143.9020 C   0  0  0  0  0  3  0  0  0  0  0  0
  184.5400  178.9600  145.8410 O   0  0  0  0  0  0  0  0  0  0  0  0
  184.4020  178.5170  143.5710 N   0  0  0  0  0  2  0  0  0  0  0  0
  185.1170  178.4860  144.8200 C   0  0  0  0  0  0  0  0  0  0  0  0
  184.8830  178.2470  142.2180 C   0  0  0  0  0  3  0  0  0  0  0  0
  185.7580  179.3700  141.6970 C   0  0  0  0  0  1  0  0  0  0  0  0
  183.7530  177.9060  141.2590 C   0  0  0  0  0  1  0  0  0  0  0  0
  1 19  1  0  0  0  0
  1 33  1  1  0  0  0
  2  3  1  0  0  0  0
  2 10  1  1  0  0  0
  2  7  1  0  0  0  0
  4  9  1  0  0  0  0
  4  6  1  0  0  0  0
  5  9  1  0  0  0  0
  5  7  1  0  0  0  0
  6  1  1  0  0  0  0
  8  3  1  0  0  0  0
  9  8  1  6  0  0  0
  9  6  1  0  0  0  0
 10 13  1  0  0  0  0
 12 13  1  0  0  0  0
 13 11  1  1  0  0  0
 14 24  1  0  0  0  0
 15 20  1  6  0  0  0
 15 14  1  0  0  0  0
 16 18  1  0  0  0  0
 17 14  2  0  0  0  0
 18 19  2  0  0  0  0
 18 15  1  0  0  0  0
 19 17  1  0  0  0  0
 20 22  1  0  0  0  0
 21 20  1  0  0  0  0
 23 20  1  0  0  0  0
 25 24  1  0  0  0  0
 26 27  1  0  0  0  0
 27 25  1  0  0  0  0
 28 27  1  0  0  0  0
 29 34  1  0  0  0  0
 31 29  1  0  0  0  0
 32 29  2  0  0  0  0
 33 31  1  0  0  0  0
 33 30  2  0  0  0  0
 34 35  1  0  0  0  0
 35 36  1  0  0  0  0
 36 41  1  0  0  0  0
 38 37  2  0  0  0  0
 39 37  1  0  0  0  0
 40 38  1  0  0  0  0
 41 39  1  0  0  0  0
 42 41  1  0  0  0  0
 42 40  2  0  0  0  0
 44 45  1  0  0  0  0
 45 40  1  0  0  0  0
 45 43  2  0  0  0  0
 46 44  1  0  0  0  0
 47 46  1  0  0  0  0
 48 46  1  0  0  0  0
M  END
>  <MODEL>
7

>  <REMARK>
 VINA RESULT:      -6.8      5.401      9.779
  Name = 
  15 active torsions:
  status: ('A' for Active; 'I' for Inactive)
    1  A    between atoms: C_1  and  O_36
    2  A    between atoms: C_2  and  N_22
    3  A    between atoms: C_2  and  C_39
    4  A    between atoms: C_2  and  C_42
    5  A    between atoms: C_4  and  C_5
    6  A    between atoms: C_5  and  C_33
    7  A    between atoms: C_9  and  C_13
    8  A    between atoms: C_10  and  C_14
    9  A    between atoms: C_14  and  C_26
   10  A    between atoms: C_17  and  C_26
   11  A    between atoms: C_17  and  N_29
   12  A    between atoms: C_19  and  N_35
   13  A    between atoms: N_25  and  C_33
   14  A    between atoms: C_28  and  C_44
   15  A    between atoms: O_36  and  P_43
                            x       y       z     vdW  Elec       q    Type
                         _______ _______ _______ _____ _____    ______ ____

>  <TORSDO>
F 15

$$$$
=
 OpenBabel10222419073D

 48 51  0  0  1  0  0  0  0  0999 V2000
  187.8580  175.1220  136.9280 C   0  0  2  0  0  3  0  0  0  0  0  0
  192.4940  174.9300  136.4500 C   0  0  1  0  0  3  0  0  0  0  0  0
  191.4030  174.3840  137.3740 C   0  0  0  0  0  2  0  0  0  0  0  0
  188.5570  174.3230  134.8040 C   0  0  0  0  0  2  0  0  0  0  0  0
  190.8350  175.3930  134.6180 C   0  0  0  0  0  2  0  0  0  0  0  0
  188.5770  175.4980  135.7080 N   0  0  0  0  0  0  0  0  0  0  0  0
  191.9110  175.9960  135.5170 C   0  0  0  0  0  2  0  0  0  0  0  0
  190.2820  173.7260  136.5720 C   0  0  0  0  0  2  0  0  0  0  0  0
  189.7940  174.6840  135.4720 C   0  0  1  0  0  0  0  0  0  0  0  0
  193.5140  175.4880  137.2210 O   0  0  0  0  0  0  0  0  0  0  0  0
  195.5380  174.6910  135.6900 C   0  0  0  0  0  1  0  0  0  0  0  0
  195.8270  175.1780  138.2920 O   0  0  0  0  0  1  0  0  0  0  0  0
  194.7320  174.2530  137.3090 P   0  0  1  0  0  0  0  0  0  0  0  0
  184.3910  175.1740  135.8850 C   0  0  0  0  0  0  0  0  0  0  0  0
  184.2980  173.9270  136.7180 C   0  0  2  0  0  3  0  0  0  0  0  0
  186.2510  172.8520  137.9810 O   0  0  0  0  0  1  0  0  0  0  0  0
  185.5810  175.6820  135.8550 N   0  0  0  0  0  0  0  0  0  0  0  0
  185.7280  173.8230  137.1360 C   0  0  0  0  0  0  0  0  0  0  0  0
  186.4170  174.8270  136.6220 C   0  0  0  0  0  0  0  0  0  0  0  0
  183.8540  172.7030  135.9050 C   0  0  0  0  0  0  0  0  0  0  0  0
  184.7720  172.4710  134.8990 F   0  0  0  0  0  0  0  0  0  0  0  0
  183.8110  171.5910  136.7280 F   0  0  0  0  0  0  0  0  0  0  0  0
  182.6010  172.9030  135.3430 F   0  0  0  0  0  0  0  0  0  0  0  0
  183.2240  175.8360  135.2280 C   0  0  0  0  0  2  0  0  0  0  0  0
  182.0570  175.9160  136.2020 C   0  0  0  0  0  2  0  0  0  0  0  0
  182.1510  177.9660  135.1070 C   0  0  0  0  0  1  0  0  0  0  0  0
  181.4940  177.2540  136.1850 N   0  0  0  0  0  0  0  0  0  0  0  0
  181.9040  177.8990  137.4200 C   0  0  0  0  0  1  0  0  0  0  0  0
  189.3540  177.4150  139.7080 C   0  0  0  0  0  0  0  0  0  0  0  0
  186.9540  177.0090  138.0640 O   0  0  0  0  0  0  0  0  0  0  0  0
  189.1330  176.4020  138.7180 N   0  0  0  0  0  2  0  0  0  0  0  0
  190.4710  177.4720  140.2850 O   0  0  0  0  0  0  0  0  0  0  0  0
  187.9370  176.2270  137.9370 C   0  0  0  0  0  0  0  0  0  0  0  0
  188.2920  178.3910  140.0900 C   0  0  0  0  0  2  0  0  0  0  0  0
  188.2080  178.5140  141.6010 C   0  0  0  0  0  2  0  0  0  0  0  0
  186.7620  178.3940  142.0530 C   0  0  0  0  0  2  0  0  0  0  0  0
  185.4800  178.4150  145.6270 C   0  0  0  0  0  3  0  0  0  0  0  0
  186.6170  178.1420  146.2720 C   0  0  0  0  0  3  0  0  0  0  0  0
  185.3670  178.2560  144.1360 C   0  0  0  0  0  2  0  0  0  0  0  0
  187.8420  177.7420  145.5520 C   0  0  0  0  0  0  0  0  0  0  0  0
  186.6870  178.2230  143.4950 N   0  0  0  0  0  0  0  0  0  0  0  0
  187.8520  177.7960  144.2160 C   0  0  0  0  0  3  0  0  0  0  0  0
  188.9120  176.8690  147.4720 O   0  0  0  0  0  0  0  0  0  0  0  0
  190.3510  177.1590  145.6790 N   0  0  0  0  0  2  0  0  0  0  0  0
  189.0400  177.2360  146.2670 C   0  0  0  0  0  0  0  0  0  0  0  0
  190.7510  177.3050  144.2820 C   0  0  0  0  0  3  0  0  0  0  0  0
  191.3380  176.0220  143.7260 C   0  0  0  0  0  1  0  0  0  0  0  0
  191.6690  178.4980  144.0640 C   0  0  0  0  0  1  0  0  0  0  0  0
  1 33  1  1  0  0  0
  2 10  1  1  0  0  0
  2  3  1  0  0  0  0
  4  9  1  0  0  0  0
  4  6  1  0  0  0  0
  5  7  1  0  0  0  0
  6  1  1  0  0  0  0
  7  2  1  0  0  0  0
  8  3  1  0  0  0  0
  9  5  1  6  0  0  0
  9  6  1  0  0  0  0
  9  8  1  0  0  0  0
 10 13  1  0  0  0  0
 13 11  1  6  0  0  0
 13 12  1  0  0  0  0
 14 15  1  0  0  0  0
 15 20  1  6  0  0  0
 15 18  1  0  0  0  0
 17 14  2  0  0  0  0
 17 19  1  0  0  0  0
 18 16  1  0  0  0  0
 19  1  1  0  0  0  0
 19 18  2  0  0  0  0
 20 22  1  0  0  0  0
 21 20  1  0  0  0  0
 23 20  1  0  0  0  0
 24 14  1  0  0  0  0
 24 25  1  0  0  0  0
 26 27  1  0  0  0  0
 27 25  1  0  0  0  0
 27 28  1  0  0  0  0
 29 34  1  0  0  0  0
 29 32  2  0  0  0  0
 31 29  1  0  0  0  0
 33 30  2  0  0  0  0
 33 31  1  0  0  0  0
 34 35  1  0  0  0  0
 35 36  1  0  0  0  0
 36 41  1  0  0  0  0
 37 38  2  0  0  0  0
 39 37  1  0  0  0  0
 40 45  1  0  0  0  0
 40 38  1  0  0  0  0
 41 39  1  0  0  0  0
 41 42  1  0  0  0  0
 42 40  2  0  0  0  0
 44 45  1  0  0  0  0
 45 43  2  0  0  0  0
 46 44  1  0  0  0  0
 47 46  1  0  0  0  0
 48 46  1  0  0  0  0
M  END
>  <MODEL>
8

>  <REMARK>
 VINA RESULT:      -6.7      3.117      4.648
  Name = 
  15 active torsions:
  status: ('A' for Active; 'I' for Inactive)
    1  A    between atoms: C_1  and  O_36
    2  A    between atoms: C_2  and  N_22
    3  A    between atoms: C_2  and  C_39
    4  A    between atoms: C_2  and  C_42
    5  A    between atoms: C_4  and  C_5
    6  A    between atoms: C_5  and  C_33
    7  A    between atoms: C_9  and  C_13
    8  A    between atoms: C_10  and  C_14
    9  A    between atoms: C_14  and  C_26
   10  A    between atoms: C_17  and  C_26
   11  A    between atoms: C_17  and  N_29
   12  A    between atoms: C_19  and  N_35
   13  A    between atoms: N_25  and  C_33
   14  A    between atoms: C_28  and  C_44
   15  A    between atoms: O_36  and  P_43
                            x       y       z     vdW  Elec       q    Type
                         _______ _______ _______ _____ _____    ______ ____

>  <TORSDO>
F 15

$$$$
=
 OpenBabel10222419073D

 48 51  0  0  1  0  0  0  0  0999 V2000
  183.2130  178.6700  139.5390 C   0  0  2  0  0  3  0  0  0  0  0  0
  180.1820  182.0360  138.4240 C   0  0  1  0  0  3  0  0  0  0  0  0
  181.6130  181.6100  138.0870 C   0  0  0  0  0  2  0  0  0  0  0  0
  181.1640  177.8450  138.6680 C   0  0  0  0  0  2  0  0  0  0  0  0
  179.6000  179.7350  139.2580 C   0  0  0  0  0  2  0  0  0  0  0  0
  181.7720  178.5970  139.7920 N   0  0  0  0  0  0  0  0  0  0  0  0
  179.6540  181.2200  139.6080 C   0  0  0  0  0  2  0  0  0  0  0  0
  181.6700  180.1360  137.6910 C   0  0  0  0  0  2  0  0  0  0  0  0
  180.9620  179.2800  138.7540 C   0  0  1  0  0  0  0  0  0  0  0  0
  180.1690  183.3930  138.7450 O   0  0  0  0  0  0  0  0  0  0  0  0
  179.3010  185.6920  137.7270 C   0  0  0  0  0  1  0  0  0  0  0  0
  181.8490  184.9360  137.5660 O   0  0  0  0  0  1  0  0  0  0  0  0
  180.3070  184.2120  137.2200 P   0  0  1  0  0  0  0  0  0  0  0  0
  183.7950  175.5450  137.8030 C   0  0  0  0  0  0  0  0  0  0  0  0
  184.8590  176.3340  137.0930 C   0  0  2  0  0  3  0  0  0  0  0  0
  185.3690  178.8120  137.4960 O   0  0  0  0  0  1  0  0  0  0  0  0
  183.1320  176.2430  138.6680 N   0  0  0  0  0  0  0  0  0  0  0  0
  184.6280  177.6610  137.7360 C   0  0  0  0  0  0  0  0  0  0  0  0
  183.6410  177.5680  138.6110 C   0  0  0  0  0  0  0  0  0  0  0  0
  184.6390  176.3930  135.5750 C   0  0  0  0  0  0  0  0  0  0  0  0
  184.8170  175.1310  135.0420 F   0  0  0  0  0  0  0  0  0  0  0  0
  183.3440  176.8050  135.3110 F   0  0  0  0  0  0  0  0  0  0  0  0
  185.5290  177.2720  134.9740 F   0  0  0  0  0  0  0  0  0  0  0  0
  183.5700  174.0800  137.6190 C   0  0  0  0  0  2  0  0  0  0  0  0
  184.9040  173.3480  137.6090 C   0  0  0  0  0  2  0  0  0  0  0  0
  185.9060  171.8830  136.1050 C   0  0  0  0  0  1  0  0  0  0  0  0
  184.7510  172.0570  136.9620 N   0  0  0  0  0  0  0  0  0  0  0  0
  183.5960  172.1600  136.0880 C   0  0  0  0  0  1  0  0  0  0  0  0
  186.2550  178.6200  141.9820 C   0  0  0  0  0  0  0  0  0  0  0  0
  183.3290  178.3750  141.8990 O   0  0  0  0  0  0  0  0  0  0  0  0
  185.4030  178.6940  140.8310 N   0  0  0  0  0  2  0  0  0  0  0  0
  187.4930  178.8000  141.8390 O   0  0  0  0  0  0  0  0  0  0  0  0
  183.9710  178.5590  140.8270 C   0  0  0  0  0  0  0  0  0  0  0  0
  185.7210  178.3160  143.3410 C   0  0  0  0  0  2  0  0  0  0  0  0
  186.7930  177.6630  144.1960 C   0  0  0  0  0  2  0  0  0  0  0  0
  186.3040  177.5230  145.6270 C   0  0  0  0  0  2  0  0  0  0  0  0
  188.3890  178.2520  148.7160 C   0  0  0  0  0  3  0  0  0  0  0  0
  189.5980  177.9340  148.2470 C   0  0  0  0  0  3  0  0  0  0  0  0
  187.1370  177.8850  147.9690 C   0  0  0  0  0  2  0  0  0  0  0  0
  189.7750  177.2730  146.9390 C   0  0  0  0  0  0  0  0  0  0  0  0
  187.4180  177.5830  146.5600 N   0  0  0  0  0  0  0  0  0  0  0  0
  188.7120  177.1220  146.1420 C   0  0  0  0  0  3  0  0  0  0  0  0
  191.7300  175.9970  147.3160 O   0  0  0  0  0  0  0  0  0  0  0  0
  191.6880  177.0060  145.2300 N   0  0  0  0  0  2  0  0  0  0  0  0
  191.0880  176.7300  146.5090 C   0  0  0  0  0  0  0  0  0  0  0  0
  191.1030  177.6250  144.0440 C   0  0  0  0  0  3  0  0  0  0  0  0
  191.4620  176.8690  142.7790 C   0  0  0  0  0  1  0  0  0  0  0  0
  191.4310  179.1060  143.9410 C   0  0  0  0  0  1  0  0  0  0  0  0
  1  6  1  0  0  0  0
  1 33  1  1  0  0  0
  2 10  1  1  0  0  0
  2  7  1  0  0  0  0
  3  2  1  0  0  0  0
  4  9  1  0  0  0  0
  4  6  1  0  0  0  0
  5  7  1  0  0  0  0
  8  3  1  0  0  0  0
  9  8  1  6  0  0  0
  9  5  1  0  0  0  0
  9  6  1  0  0  0  0
 13 12  1  0  0  0  0
 13 11  1  1  0  0  0
 13 10  1  0  0  0  0
 14 17  2  0  0  0  0
 15 20  1  6  0  0  0
 15 18  1  0  0  0  0
 15 14  1  0  0  0  0
 16 18  1  0  0  0  0
 18 19  2  0  0  0  0
 19 17  1  0  0  0  0
 19  1  1  0  0  0  0
 21 20  1  0  0  0  0
 22 20  1  0  0  0  0
 23 20  1  0  0  0  0
 24 14  1  0  0  0  0
 25 24  1  0  0  0  0
 26 27  1  0  0  0  0
 27 25  1  0  0  0  0
 28 27  1  0  0  0  0
 29 34  1  0  0  0  0
 31 29  1  0  0  0  0
 32 29  2  0  0  0  0
 33 31  1  0  0  0  0
 33 30  2  0  0  0  0
 34 35  1  0  0  0  0
 35 36  1  0  0  0  0
 36 41  1  0  0  0  0
 38 37  2  0  0  0  0
 39 37  1  0  0  0  0
 40 38  1  0  0  0  0
 41 39  1  0  0  0  0
 42 41  1  0  0  0  0
 42 40  2  0  0  0  0
 44 45  1  0  0  0  0
 45 40  1  0  0  0  0
 45 43  2  0  0  0  0
 46 44  1  0  0  0  0
 47 46  1  0  0  0  0
 48 46  1  0  0  0  0
M  END
>  <MODEL>
9

>  <REMARK>
 VINA RESULT:      -6.6      3.553      6.575
  Name = 
  15 active torsions:
  status: ('A' for Active; 'I' for Inactive)
    1  A    between atoms: C_1  and  O_36
    2  A    between atoms: C_2  and  N_22
    3  A    between atoms: C_2  and  C_39
    4  A    between atoms: C_2  and  C_42
    5  A    between atoms: C_4  and  C_5
    6  A    between atoms: C_5  and  C_33
    7  A    between atoms: C_9  and  C_13
    8  A    between atoms: C_10  and  C_14
    9  A    between atoms: C_14  and  C_26
   10  A    between atoms: C_17  and  C_26
   11  A    between atoms: C_17  and  N_29
   12  A    between atoms: C_19  and  N_35
   13  A    between atoms: N_25  and  C_33
   14  A    between atoms: C_28  and  C_44
   15  A    between atoms: O_36  and  P_43
                            x       y       z     vdW  Elec       q    Type
                         _______ _______ _______ _____ _____    ______ ____

>  <TORSDO>
F 15

$$$$
