=
 OpenBabel10222418273D

 26 31  0  0  1  0  0  0  0  0999 V2000
  191.3890  177.8660  144.2200 C   0  0  1  0  0  3  0  0  0  0  0  0
  189.7910  177.7070  142.4300 C   0  0  2  0  0  0  0  0  0  0  0  0
  190.1730  178.0810  145.0210 N   0  0  0  0  0  0  0  0  0  0  0  0
  187.5660  176.2190  143.3110 C   0  0  0  0  0  2  0  0  0  0  0  0
  189.8220  176.3610  142.8900 O   0  0  0  0  0  0  0  0  0  0  0  0
  189.4140  177.8300  148.7380 C   0  0  0  0  0  2  0  0  0  0  0  0
  187.9800  177.9540  146.2820 C   0  0  0  0  0  0  0  0  0  0  0  0
  189.4520  177.9880  146.2560 C   0  0  0  0  0  0  0  0  0  0  0  0
  187.9800  178.1440  148.6670 N   0  0  0  0  0  0  0  0  0  0  0  0
  189.0030  178.7780  143.1120 C   0  0  0  0  0  2  0  0  0  0  0  0
  186.8030  177.2630  144.0670 C   0  0  0  0  0  0  0  0  0  0  0  0
  187.2970  178.1530  147.5610 C   0  0  0  0  0  3  0  0  0  0  0  0
  188.6280  176.6960  142.2870 C   0  0  2  0  0  3  0  0  0  0  0  0
  190.1200  177.9700  147.4110 C   0  0  0  0  0  3  0  0  0  0  0  0
  187.3200  177.6280  145.2100 C   0  0  0  0  0  0  0  0  0  0  0  0
  190.3840  178.6230  143.6160 C   0  0  1  0  0  0  0  0  0  0  0  0
  192.4000  178.7060  144.6810 O   0  0  0  0  0  1  0  0  0  0  0  0
  184.5670  178.4770  144.3550 C   0  0  0  0  0  3  0  0  0  0  0  0
  183.1710  179.0080  142.3760 C   0  0  0  0  0  2  0  0  0  0  0  0
  185.6270  177.9440  143.4760 C   0  0  0  0  0  0  0  0  0  0  0  0
  183.4450  178.9990  143.8550 C   0  0  0  0  0  3  0  0  0  0  0  0
  184.3910  178.8010  141.5930 N   0  0  0  0  0  0  0  0  0  0  0  0
  185.5290  178.1310  142.1550 C   0  0  0  0  0  3  0  0  0  0  0  0
  184.3460  179.0440  140.1610 C   0  0  0  0  0  2  0  0  0  0  0  0
  182.6840  180.2110  138.7490 C   0  0  0  0  0  1  0  0  0  0  0  0
  182.9090  179.0370  139.6760 C   0  0  0  0  0  2  0  0  0  0  0  0
  1 17  1  1  0  0  0
  1  3  1  0  0  0  0
  2  5  1  0  0  0  0
  2 10  1  1  0  0  0
  2 16  1  0  0  0  0
  3  8  1  0  0  0  0
  4 11  1  0  0  0  0
  7 12  1  0  0  0  0
  8  7  1  0  0  0  0
  8 14  2  0  0  0  0
  9  6  1  0  0  0  0
 11 15  2  0  0  0  0
 12  9  2  0  0  0  0
 13  2  1  0  0  0  0
 13  5  1  0  0  0  0
 13  4  1  1  0  0  0
 14  6  1  0  0  0  0
 15  7  2  0  0  0  0
 16 10  1  6  0  0  0
 16  1  1  0  0  0  0
 16  3  1  0  0  0  0
 19 21  1  0  0  0  0
 20 11  1  0  0  0  0
 20 18  1  0  0  0  0
 21 18  2  0  0  0  0
 22 23  1  0  0  0  0
 22 19  1  0  0  0  0
 23 20  2  0  0  0  0
 24 22  1  0  0  0  0
 25 26  1  0  0  0  0
 26 24  1  0  0  0  0
M  END
>  <MODEL>
1

>  <REMARK>
 VINA RESULT:      -7.8      0.000      0.000
  Name = 
  3 active torsions:
  status: ('A' for Active; 'I' for Inactive)
    1  A    between atoms: C_9  and  C_14
    2  A    between atoms: C_19  and  C_22
    3  A    between atoms: C_22  and  N_23
                            x       y       z     vdW  Elec       q    Type
                         _______ _______ _______ _____ _____    ______ ____

>  <TORSDO>
F 3

$$$$
=
 OpenBabel10222418273D

 26 31  0  0  1  0  0  0  0  0999 V2000
  189.4310  177.6950  146.9320 C   0  0  1  0  0  3  0  0  0  0  0  0
  190.8830  177.1540  145.0930 C   0  0  2  0  0  0  0  0  0  0  0  0
  188.4690  177.9380  145.8450 N   0  0  0  0  0  0  0  0  0  0  0  0
  189.4400  175.6550  143.1910 C   0  0  0  0  0  2  0  0  0  0  0  0
  190.2570  175.8970  145.3270 O   0  0  0  0  0  0  0  0  0  0  0  0
  184.6780  178.1890  145.7150 C   0  0  0  0  0  2  0  0  0  0  0  0
  186.8470  177.8400  143.9030 C   0  0  0  0  0  0  0  0  0  0  0  0
  187.1280  177.9770  145.3420 C   0  0  0  0  0  0  0  0  0  0  0  0
  184.5440  178.3840  144.2640 N   0  0  0  0  0  0  0  0  0  0  0  0
  190.2270  178.2540  144.3240 C   0  0  0  0  0  2  0  0  0  0  0  0
  188.7120  176.7420  142.4610 C   0  0  0  0  0  0  0  0  0  0  0  0
  185.5070  178.1770  143.4160 C   0  0  0  0  0  3  0  0  0  0  0  0
  190.6860  176.0510  144.0260 C   0  0  2  0  0  3  0  0  0  0  0  0
  186.1140  178.1810  146.1830 C   0  0  0  0  0  3  0  0  0  0  0  0
  187.7350  177.3100  143.1150 C   0  0  0  0  0  0  0  0  0  0  0  0
  189.9500  178.2770  145.7760 C   0  0  1  0  0  0  0  0  0  0  0  0
  189.2670  178.6660  147.9180 O   0  0  0  0  0  1  0  0  0  0  0  0
  188.4010  178.2690  140.4300 C   0  0  0  0  0  3  0  0  0  0  0  0
  189.8710  178.0270  138.4480 C   0  0  0  0  0  2  0  0  0  0  0  0
  189.1790  177.2390  141.1460 C   0  0  0  0  0  0  0  0  0  0  0  0
  188.7320  178.6620  139.1980 C   0  0  0  0  0  3  0  0  0  0  0  0
  190.7760  177.3020  139.3410 N   0  0  0  0  0  0  0  0  0  0  0  0
  190.3270  176.8060  140.6110 C   0  0  0  0  0  3  0  0  0  0  0  0
  192.0580  176.8590  138.8190 C   0  0  0  0  0  2  0  0  0  0  0  0
  191.6360  174.7780  137.5490 C   0  0  0  0  0  1  0  0  0  0  0  0
  191.8800  176.2680  137.4340 C   0  0  0  0  0  2  0  0  0  0  0  0
  1 17  1  1  0  0  0
  2 10  1  6  0  0  0
  2  5  1  0  0  0  0
  2 16  1  0  0  0  0
  3  1  1  0  0  0  0
  6 14  1  0  0  0  0
  7  8  1  0  0  0  0
  8  3  1  0  0  0  0
  8 14  2  0  0  0  0
  9  6  1  0  0  0  0
 11 15  2  0  0  0  0
 11  4  1  0  0  0  0
 12  7  1  0  0  0  0
 12  9  2  0  0  0  0
 13  4  1  6  0  0  0
 13  2  1  0  0  0  0
 13  5  1  0  0  0  0
 15  7  2  0  0  0  0
 16 10  1  1  0  0  0
 16  3  1  0  0  0  0
 16  1  1  0  0  0  0
 18 20  1  0  0  0  0
 19 21  1  0  0  0  0
 19 22  1  0  0  0  0
 20 11  1  0  0  0  0
 21 18  2  0  0  0  0
 22 23  1  0  0  0  0
 23 20  2  0  0  0  0
 24 22  1  0  0  0  0
 26 25  1  0  0  0  0
 26 24  1  0  0  0  0
M  END
>  <MODEL>
2

>  <REMARK>
 VINA RESULT:      -7.8      2.864      5.190
  Name = 
  3 active torsions:
  status: ('A' for Active; 'I' for Inactive)
    1  A    between atoms: C_9  and  C_14
    2  A    between atoms: C_19  and  C_22
    3  A    between atoms: C_22  and  N_23
                            x       y       z     vdW  Elec       q    Type
                         _______ _______ _______ _____ _____    ______ ____

>  <TORSDO>
F 3

$$$$
=
 OpenBabel10222418273D

 26 31  0  0  1  0  0  0  0  0999 V2000
  191.4540  176.6670  146.5870 C   0  0  1  0  0  3  0  0  0  0  0  0
  191.8920  176.3230  144.2480 C   0  0  2  0  0  0  0  0  0  0  0  0
  190.1740  177.1770  146.0710 N   0  0  0  0  0  0  0  0  0  0  0  0
  189.5690  175.3060  143.0180 C   0  0  0  0  0  2  0  0  0  0  0  0
  191.2370  175.1050  144.5870 O   0  0  0  0  0  0  0  0  0  0  0  0
  186.7710  177.7830  147.6550 C   0  0  0  0  0  2  0  0  0  0  0  0
  187.8900  177.5580  145.0460 C   0  0  0  0  0  0  0  0  0  0  0  0
  188.7700  177.4210  146.2180 C   0  0  0  0  0  0  0  0  0  0  0  0
  186.0690  178.2340  146.4440 N   0  0  0  0  0  0  0  0  0  0  0  0
  191.1510  177.5920  143.9800 C   0  0  0  0  0  2  0  0  0  0  0  0
  188.7780  176.5610  142.8130 C   0  0  0  0  0  0  0  0  0  0  0  0
  186.5400  178.0910  145.2410 C   0  0  0  0  0  3  0  0  0  0  0  0
  191.0950  175.4400  143.2570 C   0  0  2  0  0  3  0  0  0  0  0  0
  188.2500  177.5670  147.4380 C   0  0  0  0  0  3  0  0  0  0  0  0
  188.2690  177.0940  143.8920 C   0  0  0  0  0  0  0  0  0  0  0  0
  191.5200  177.3910  145.3970 C   0  0  1  0  0  0  0  0  0  0  0  0
  191.8740  177.4670  147.6490 O   0  0  0  0  0  1  0  0  0  0  0  0
  187.6650  178.2330  141.2250 C   0  0  0  0  0  3  0  0  0  0  0  0
  188.3610  178.3510  138.8490 C   0  0  0  0  0  2  0  0  0  0  0  0
  188.7180  177.2330  141.4940 C   0  0  0  0  0  0  0  0  0  0  0  0
  187.5140  178.7770  140.0160 C   0  0  0  0  0  3  0  0  0  0  0  0
  189.5720  177.6510  139.2790 N   0  0  0  0  0  0  0  0  0  0  0  0
  189.6340  176.9870  140.5500 C   0  0  0  0  0  3  0  0  0  0  0  0
  190.6180  177.4080  138.3000 C   0  0  0  0  0  2  0  0  0  0  0  0
  192.8710  176.4560  137.9290 C   0  0  0  0  0  1  0  0  0  0  0  0
  191.7470  176.6150  138.9300 C   0  0  0  0  0  2  0  0  0  0  0  0
  1 17  1  1  0  0  0
  2 10  1  1  0  0  0
  2  5  1  0  0  0  0
  2 16  1  0  0  0  0
  3  8  1  0  0  0  0
  3  1  1  0  0  0  0
  7 12  1  0  0  0  0
  7  8  1  0  0  0  0
  8 14  2  0  0  0  0
  9  6  1  0  0  0  0
 11  4  1  0  0  0  0
 11 15  2  0  0  0  0
 12  9  2  0  0  0  0
 13  4  1  1  0  0  0
 13  2  1  0  0  0  0
 13  5  1  0  0  0  0
 14  6  1  0  0  0  0
 15  7  2  0  0  0  0
 16 10  1  6  0  0  0
 16  3  1  0  0  0  0
 16  1  1  0  0  0  0
 18 20  1  0  0  0  0
 19 22  1  0  0  0  0
 19 21  1  0  0  0  0
 20 11  1  0  0  0  0
 21 18  2  0  0  0  0
 22 23  1  0  0  0  0
 23 20  2  0  0  0  0
 24 26  1  0  0  0  0
 24 22  1  0  0  0  0
 25 26  1  0  0  0  0
M  END
>  <MODEL>
3

>  <REMARK>
 VINA RESULT:      -7.3      2.667      4.416
  Name = 
  3 active torsions:
  status: ('A' for Active; 'I' for Inactive)
    1  A    between atoms: C_9  and  C_14
    2  A    between atoms: C_19  and  C_22
    3  A    between atoms: C_22  and  N_23
                            x       y       z     vdW  Elec       q    Type
                         _______ _______ _______ _____ _____    ______ ____

>  <TORSDO>
F 3

$$$$
=
 OpenBabel10222418273D

 26 31  0  0  1  0  0  0  0  0999 V2000
  187.5540  177.8770  146.5690 C   0  0  1  0  0  3  0  0  0  0  0  0
  185.2260  178.3530  146.2060 C   0  0  2  0  0  0  0  0  0  0  0  0
  187.5560  177.7570  145.1020 N   0  0  0  0  0  0  0  0  0  0  0  0
  184.9710  180.0390  143.9610 C   0  0  0  0  0  2  0  0  0  0  0  0
  185.7960  179.6510  146.0720 O   0  0  0  0  0  0  0  0  0  0  0  0
  190.3030  177.8430  142.4750 C   0  0  0  0  0  2  0  0  0  0  0  0
  187.4660  178.0650  142.5900 C   0  0  0  0  0  0  0  0  0  0  0  0
  188.2210  177.8530  143.8360 C   0  0  0  0  0  0  0  0  0  0  0  0
  189.4440  177.7120  141.2890 N   0  0  0  0  0  0  0  0  0  0  0  0
  185.2470  177.3430  145.1050 C   0  0  0  0  0  2  0  0  0  0  0  0
  185.0710  179.0470  142.8430 C   0  0  0  0  0  0  0  0  0  0  0  0
  188.1530  177.8640  141.3120 C   0  0  0  0  0  3  0  0  0  0  0  0
  184.6150  179.5070  145.3740 C   0  0  2  0  0  3  0  0  0  0  0  0
  189.5460  177.7080  143.7750 C   0  0  0  0  0  3  0  0  0  0  0  0
  186.2580  178.5440  142.6360 C   0  0  0  0  0  0  0  0  0  0  0  0
  186.4210  177.2920  146.0020 C   0  0  1  0  0  0  0  0  0  0  0  0
  188.3730  176.8880  147.1120 O   0  0  0  0  0  1  0  0  0  0  0  0
  184.0150  177.6720  140.9590 C   0  0  0  0  0  3  0  0  0  0  0  0
  181.5800  177.8190  140.5190 C   0  0  0  0  0  2  0  0  0  0  0  0
  183.8680  178.5580  142.1310 C   0  0  0  0  0  0  0  0  0  0  0  0
  182.9620  177.2990  140.2300 C   0  0  0  0  0  3  0  0  0  0  0  0
  181.4780  178.3780  141.8680 N   0  0  0  0  0  0  0  0  0  0  0  0
  182.6370  178.8660  142.5590 C   0  0  0  0  0  3  0  0  0  0  0  0
  180.1590  178.6790  142.3970 C   0  0  0  0  0  2  0  0  0  0  0  0
  178.9310  179.2280  144.4730 C   0  0  0  0  0  1  0  0  0  0  0  0
  180.1600  178.5500  143.9080 C   0  0  0  0  0  2  0  0  0  0  0  0
  1 17  1  1  0  0  0
  2 10  1  6  0  0  0
  3 16  1  0  0  0  0
  3  1  1  0  0  0  0
  5  2  1  0  0  0  0
  6 14  1  0  0  0  0
  7 15  2  0  0  0  0
  7  8  1  0  0  0  0
  8  3  1  0  0  0  0
  9 12  2  0  0  0  0
  9  6  1  0  0  0  0
 11  4  1  0  0  0  0
 12  7  1  0  0  0  0
 13  4  1  6  0  0  0
 13  5  1  0  0  0  0
 13  2  1  0  0  0  0
 14  8  2  0  0  0  0
 15 11  2  0  0  0  0
 16 10  1  1  0  0  0
 16  2  1  0  0  0  0
 16  1  1  0  0  0  0
 18 20  1  0  0  0  0
 19 22  1  0  0  0  0
 20 23  2  0  0  0  0
 20 11  1  0  0  0  0
 21 19  1  0  0  0  0
 21 18  2  0  0  0  0
 22 24  1  0  0  0  0
 22 23  1  0  0  0  0
 24 26  1  0  0  0  0
 26 25  1  0  0  0  0
M  END
>  <MODEL>
4

>  <REMARK>
 VINA RESULT:      -7.2      2.515      4.670
  Name = 
  3 active torsions:
  status: ('A' for Active; 'I' for Inactive)
    1  A    between atoms: C_9  and  C_14
    2  A    between atoms: C_19  and  C_22
    3  A    between atoms: C_22  and  N_23
                            x       y       z     vdW  Elec       q    Type
                         _______ _______ _______ _____ _____    ______ ____

>  <TORSDO>
F 3

$$$$
=
 OpenBabel10222418273D

 26 31  0  0  1  0  0  0  0  0999 V2000
  190.8810  176.7210  139.6260 C   0  0  1  0  0  3  0  0  0  0  0  0
  191.6630  176.7490  141.8990 C   0  0  2  0  0  0  0  0  0  0  0  0
  189.6130  177.1070  140.2660 N   0  0  0  0  0  0  0  0  0  0  0  0
  190.5730  178.9880  143.2200 C   0  0  0  0  0  2  0  0  0  0  0  0
  191.8560  178.1090  141.5260 O   0  0  0  0  0  0  0  0  0  0  0  0
  186.4090  178.6950  138.9730 C   0  0  0  0  0  2  0  0  0  0  0  0
  187.6820  178.2140  141.4750 C   0  0  0  0  0  0  0  0  0  0  0  0
  188.3440  177.7720  140.2360 C   0  0  0  0  0  0  0  0  0  0  0  0
  185.7000  178.7810  140.2580 N   0  0  0  0  0  0  0  0  0  0  0  0
  190.3340  176.2010  142.3060 C   0  0  0  0  0  2  0  0  0  0  0  0
  189.2070  178.4810  143.5650 C   0  0  0  0  0  0  0  0  0  0  0  0
  186.2760  178.6170  141.4120 C   0  0  0  0  0  3  0  0  0  0  0  0
  191.6700  177.9450  142.8830 C   0  0  2  0  0  3  0  0  0  0  0  0
  187.7260  177.9620  139.0680 C   0  0  0  0  0  3  0  0  0  0  0  0
  188.3760  178.3610  142.5640 C   0  0  0  0  0  0  0  0  0  0  0  0
  190.6090  176.1200  140.8560 C   0  0  1  0  0  0  0  0  0  0  0  0
  190.6210  175.8210  138.5940 O   0  0  0  0  0  1  0  0  0  0  0  0
  187.4680  177.8730  145.3440 C   0  0  0  0  0  3  0  0  0  0  0  0
  188.1810  177.3620  147.6630 C   0  0  0  0  0  2  0  0  0  0  0  0
  188.8790  178.0000  144.9280 C   0  0  0  0  0  0  0  0  0  0  0  0
  187.1380  177.5470  146.5950 C   0  0  0  0  0  3  0  0  0  0  0  0
  189.5140  177.1550  147.0950 N   0  0  0  0  0  0  0  0  0  0  0  0
  189.8420  177.6290  145.7800 C   0  0  0  0  0  3  0  0  0  0  0  0
  190.5790  176.7010  147.9720 C   0  0  0  0  0  2  0  0  0  0  0  0
  192.8050  175.6280  148.0810 C   0  0  0  0  0  1  0  0  0  0  0  0
  191.6860  176.0580  147.1580 C   0  0  0  0  0  2  0  0  0  0  0  0
  1 17  1  6  0  0  0
  1  3  1  0  0  0  0
  1 16  1  0  0  0  0
  2 10  1  6  0  0  0
  2 13  1  0  0  0  0
  3 16  1  0  0  0  0
  4 11  1  0  0  0  0
  5  2  1  0  0  0  0
  5 13  1  0  0  0  0
  6 14  1  0  0  0  0
  6  9  1  0  0  0  0
  7 15  2  0  0  0  0
  8  3  1  0  0  0  0
  8  7  1  0  0  0  0
  9 12  2  0  0  0  0
 11 20  1  0  0  0  0
 12  7  1  0  0  0  0
 13  4  1  6  0  0  0
 14  8  2  0  0  0  0
 15 11  2  0  0  0  0
 16  2  1  0  0  0  0
 16 10  1  1  0  0  0
 18 21  2  0  0  0  0
 20 18  1  0  0  0  0
 20 23  2  0  0  0  0
 21 19  1  0  0  0  0
 22 19  1  0  0  0  0
 22 24  1  0  0  0  0
 23 22  1  0  0  0  0
 26 24  1  0  0  0  0
 26 25  1  0  0  0  0
M  END
>  <MODEL>
5

>  <REMARK>
 VINA RESULT:      -7.2      2.350      6.745
  Name = 
  3 active torsions:
  status: ('A' for Active; 'I' for Inactive)
    1  A    between atoms: C_9  and  C_14
    2  A    between atoms: C_19  and  C_22
    3  A    between atoms: C_22  and  N_23
                            x       y       z     vdW  Elec       q    Type
                         _______ _______ _______ _____ _____    ______ ____

>  <TORSDO>
F 3

$$$$
=
 OpenBabel10222418273D

 26 31  0  0  1  0  0  0  0  0999 V2000
  191.0330  176.6380  139.8290 C   0  0  1  0  0  3  0  0  0  0  0  0
  191.7790  176.6710  142.1150 C   0  0  2  0  0  0  0  0  0  0  0  0
  189.7630  177.0550  140.4440 N   0  0  0  0  0  0  0  0  0  0  0  0
  190.7140  178.9430  143.3980 C   0  0  0  0  0  2  0  0  0  0  0  0
  192.0050  178.0230  141.7330 O   0  0  0  0  0  0  0  0  0  0  0  0
  186.6150  178.6970  139.0850 C   0  0  0  0  0  2  0  0  0  0  0  0
  187.8360  178.2130  141.6110 C   0  0  0  0  0  0  0  0  0  0  0  0
  188.5090  177.7460  140.3870 C   0  0  0  0  0  0  0  0  0  0  0  0
  185.8870  178.8080  140.3570 N   0  0  0  0  0  0  0  0  0  0  0  0
  190.4320  176.1540  142.5040 C   0  0  0  0  0  2  0  0  0  0  0  0
  189.3310  178.4680  143.7250 C   0  0  0  0  0  0  0  0  0  0  0  0
  186.4400  178.6440  141.5220 C   0  0  0  0  0  3  0  0  0  0  0  0
  191.7940  177.8750  143.0870 C   0  0  2  0  0  3  0  0  0  0  0  0
  187.9150  177.9380  139.2080 C   0  0  0  0  0  3  0  0  0  0  0  0
  188.5150  178.3550  142.7110 C   0  0  0  0  0  0  0  0  0  0  0  0
  190.7290  176.0540  141.0590 C   0  0  1  0  0  0  0  0  0  0  0  0
  190.7720  175.7340  138.8010 O   0  0  0  0  0  1  0  0  0  0  0  0
  190.0200  177.4920  145.9890 C   0  0  0  0  0  3  0  0  0  0  0  0
  188.2940  176.8120  147.6330 C   0  0  0  0  0  2  0  0  0  0  0  0
  188.9720  178.0060  145.0850 C   0  0  0  0  0  0  0  0  0  0  0  0
  189.7190  176.9690  147.1790 C   0  0  0  0  0  3  0  0  0  0  0  0
  187.3790  177.6520  146.8600 N   0  0  0  0  0  0  0  0  0  0  0  0
  187.7140  178.0920  145.5350 C   0  0  0  0  0  3  0  0  0  0  0  0
  186.0170  177.8180  147.3380 C   0  0  0  0  0  2  0  0  0  0  0  0
  184.3240  178.6800  145.7540 C   0  0  0  0  0  1  0  0  0  0  0  0
  185.4030  179.0690  146.7410 C   0  0  0  0  0  2  0  0  0  0  0  0
  1 17  1  6  0  0  0
  1  3  1  0  0  0  0
  1 16  1  0  0  0  0
  2 10  1  6  0  0  0
  2 13  1  0  0  0  0
  3 16  1  0  0  0  0
  4 11  1  0  0  0  0
  5  2  1  0  0  0  0
  5 13  1  0  0  0  0
  6 14  1  0  0  0  0
  6  9  1  0  0  0  0
  7 15  2  0  0  0  0
  8  3  1  0  0  0  0
  8  7  1  0  0  0  0
  9 12  2  0  0  0  0
 11 20  1  0  0  0  0
 12  7  1  0  0  0  0
 13  4  1  6  0  0  0
 14  8  2  0  0  0  0
 15 11  2  0  0  0  0
 16  2  1  0  0  0  0
 16 10  1  1  0  0  0
 18 21  2  0  0  0  0
 20 23  2  0  0  0  0
 20 18  1  0  0  0  0
 21 19  1  0  0  0  0
 22 24  1  0  0  0  0
 22 19  1  0  0  0  0
 23 22  1  0  0  0  0
 25 26  1  0  0  0  0
 26 24  1  0  0  0  0
M  END
>  <MODEL>
6

>  <REMARK>
 VINA RESULT:      -7.2      2.199      5.865
  Name = 
  3 active torsions:
  status: ('A' for Active; 'I' for Inactive)
    1  A    between atoms: C_9  and  C_14
    2  A    between atoms: C_19  and  C_22
    3  A    between atoms: C_22  and  N_23
                            x       y       z     vdW  Elec       q    Type
                         _______ _______ _______ _____ _____    ______ ____

>  <TORSDO>
F 3

$$$$
=
 OpenBabel10222418273D

 26 31  0  0  1  0  0  0  0  0999 V2000
  189.5400  177.7440  146.8320 C   0  0  1  0  0  3  0  0  0  0  0  0
  190.7630  177.2100  144.8320 C   0  0  2  0  0  0  0  0  0  0  0  0
  188.4610  178.0040  145.8660 N   0  0  0  0  0  0  0  0  0  0  0  0
  189.0970  175.7390  143.0990 C   0  0  0  0  0  2  0  0  0  0  0  0
  190.1580  175.9560  145.1270 O   0  0  0  0  0  0  0  0  0  0  0  0
  184.6820  178.2860  146.1800 C   0  0  0  0  0  2  0  0  0  0  0  0
  186.6220  177.9370  144.1250 C   0  0  0  0  0  0  0  0  0  0  0  0
  187.0710  178.0590  145.5220 C   0  0  0  0  0  0  0  0  0  0  0  0
  184.3820  178.4950  144.7550 N   0  0  0  0  0  0  0  0  0  0  0  0
  190.0320  178.3220  144.1540 C   0  0  0  0  0  2  0  0  0  0  0  0
  188.2980  176.8380  142.4670 C   0  0  0  0  0  0  0  0  0  0  0  0
  185.2390  178.2890  143.8000 C   0  0  0  0  0  3  0  0  0  0  0  0
  190.4340  176.1170  143.7860 C   0  0  2  0  0  3  0  0  0  0  0  0
  186.1620  178.2630  146.4780 C   0  0  0  0  0  3  0  0  0  0  0  0
  187.4090  177.4070  143.2350 C   0  0  0  0  0  0  0  0  0  0  0  0
  189.9260  178.3330  145.6280 C   0  0  1  0  0  0  0  0  0  0  0  0
  189.5000  178.7080  147.8380 O   0  0  0  0  0  1  0  0  0  0  0  0
  190.0140  177.3710  140.6430 C   0  0  0  0  0  3  0  0  0  0  0  0
  189.3260  178.5970  138.6010 C   0  0  0  0  0  2  0  0  0  0  0  0
  188.6140  177.3430  141.1110 C   0  0  0  0  0  0  0  0  0  0  0  0
  190.3470  177.9180  139.4720 C   0  0  0  0  0  3  0  0  0  0  0  0
  187.9600  178.2110  138.9590 N   0  0  0  0  0  0  0  0  0  0  0  0
  187.6440  177.7330  140.2750 C   0  0  0  0  0  3  0  0  0  0  0  0
  186.8790  178.5670  138.0550 C   0  0  0  0  0  2  0  0  0  0  0  0
  186.4260  177.5380  135.8520 C   0  0  0  0  0  1  0  0  0  0  0  0
  187.3480  178.4630  136.6160 C   0  0  0  0  0  2  0  0  0  0  0  0
  1 17  1  1  0  0  0
  2 10  1  6  0  0  0
  2  5  1  0  0  0  0
  2 16  1  0  0  0  0
  3  1  1  0  0  0  0
  6 14  1  0  0  0  0
  7  8  1  0  0  0  0
  8  3  1  0  0  0  0
  8 14  2  0  0  0  0
  9  6  1  0  0  0  0
 11  4  1  0  0  0  0
 11 15  2  0  0  0  0
 12  7  1  0  0  0  0
 12  9  2  0  0  0  0
 13  4  1  6  0  0  0
 13  2  1  0  0  0  0
 13  5  1  0  0  0  0
 15  7  2  0  0  0  0
 16 10  1  6  0  0  0
 16  3  1  0  0  0  0
 16  1  1  0  0  0  0
 18 20  1  0  0  0  0
 19 22  1  0  0  0  0
 19 21  1  0  0  0  0
 20 11  1  0  0  0  0
 21 18  2  0  0  0  0
 22 23  1  0  0  0  0
 23 20  2  0  0  0  0
 24 22  1  0  0  0  0
 25 26  1  0  0  0  0
 26 24  1  0  0  0  0
M  END
>  <MODEL>
7

>  <REMARK>
 VINA RESULT:      -7.0      2.547      4.169
  Name = 
  3 active torsions:
  status: ('A' for Active; 'I' for Inactive)
    1  A    between atoms: C_9  and  C_14
    2  A    between atoms: C_19  and  C_22
    3  A    between atoms: C_22  and  N_23
                            x       y       z     vdW  Elec       q    Type
                         _______ _______ _______ _____ _____    ______ ____

>  <TORSDO>
F 3

$$$$
=
 OpenBabel10222418273D

 26 31  0  0  1  0  0  0  0  0999 V2000
  180.1900  178.8460  141.7080 C   0  0  1  0  0  3  0  0  0  0  0  0
  180.8500  178.7640  139.3980 C   0  0  2  0  0  0  0  0  0  0  0  0
  181.6220  178.5840  141.9220 N   0  0  0  0  0  0  0  0  0  0  0  0
  183.3030  180.1210  139.0930 C   0  0  0  0  0  2  0  0  0  0  0  0
  181.0850  180.1350  139.7020 O   0  0  0  0  0  0  0  0  0  0  0  0
  183.9390  179.0030  144.9080 C   0  0  0  0  0  2  0  0  0  0  0  0
  184.1490  178.6120  142.0950 C   0  0  0  0  0  0  0  0  0  0  0  0
  182.8140  178.6950  142.7100 C   0  0  0  0  0  0  0  0  0  0  0  0
  185.1830  178.5700  144.2530 N   0  0  0  0  0  0  0  0  0  0  0  0
  181.8070  177.6780  139.7670 C   0  0  0  0  0  2  0  0  0  0  0  0
  184.2710  179.0680  139.5370 C   0  0  0  0  0  0  0  0  0  0  0  0
  185.3120  178.4380  142.9670 C   0  0  0  0  0  3  0  0  0  0  0  0
  181.8790  179.6680  138.6760 C   0  0  2  0  0  3  0  0  0  0  0  0
  182.7190  178.8370  144.0340 C   0  0  0  0  0  3  0  0  0  0  0  0
  184.2890  178.8170  140.8190 C   0  0  0  0  0  0  0  0  0  0  0  0
  180.7940  177.9750  140.8010 C   0  0  1  0  0  0  0  0  0  0  0  0
  179.4450  178.1200  142.6350 O   0  0  0  0  0  1  0  0  0  0  0  0
  184.3250  177.4860  137.5240 C   0  0  0  0  0  3  0  0  0  0  0  0
  186.4540  176.4280  136.8240 C   0  0  0  0  0  2  0  0  0  0  0  0
  185.0370  178.2590  138.5610 C   0  0  0  0  0  0  0  0  0  0  0  0
  184.9740  176.6640  136.6980 C   0  0  0  0  0  3  0  0  0  0  0  0
  187.1090  177.4740  137.6110 N   0  0  0  0  0  0  0  0  0  0  0  0
  186.3760  178.2530  138.5680 C   0  0  0  0  0  3  0  0  0  0  0  0
  188.5610  177.5390  137.6060 C   0  0  0  0  0  2  0  0  0  0  0  0
  189.8380  177.5580  139.7250 C   0  0  0  0  0  1  0  0  0  0  0  0
  189.0470  178.4060  138.7520 C   0  0  0  0  0  2  0  0  0  0  0  0
  1  3  1  0  0  0  0
  1 17  1  1  0  0  0
  2  5  1  0  0  0  0
  2 10  1  1  0  0  0
  2 16  1  0  0  0  0
  3  8  1  0  0  0  0
  4 11  1  0  0  0  0
  7  8  1  0  0  0  0
  7 12  1  0  0  0  0
  8 14  2  0  0  0  0
  9  6  1  0  0  0  0
 11 15  2  0  0  0  0
 12  9  2  0  0  0  0
 13  4  1  1  0  0  0
 13  2  1  0  0  0  0
 13  5  1  0  0  0  0
 14  6  1  0  0  0  0
 15  7  2  0  0  0  0
 16 10  1  1  0  0  0
 16  1  1  0  0  0  0
 16  3  1  0  0  0  0
 18 20  1  0  0  0  0
 19 22  1  0  0  0  0
 20 23  2  0  0  0  0
 20 11  1  0  0  0  0
 21 19  1  0  0  0  0
 21 18  2  0  0  0  0
 22 23  1  0  0  0  0
 24 22  1  0  0  0  0
 24 26  1  0  0  0  0
 26 25  1  0  0  0  0
M  END
>  <MODEL>
8

>  <REMARK>
 VINA RESULT:      -6.8      4.685      7.647
  Name = 
  3 active torsions:
  status: ('A' for Active; 'I' for Inactive)
    1  A    between atoms: C_9  and  C_14
    2  A    between atoms: C_19  and  C_22
    3  A    between atoms: C_22  and  N_23
                            x       y       z     vdW  Elec       q    Type
                         _______ _______ _______ _____ _____    ______ ____

>  <TORSDO>
F 3

$$$$
=
 OpenBabel10222418273D

 26 31  0  0  1  0  0  0  0  0999 V2000
  180.6080  176.9850  138.6190 C   0  0  1  0  0  3  0  0  0  0  0  0
  182.9930  177.0990  138.3350 C   0  0  2  0  0  0  0  0  0  0  0  0
  180.9450  177.4520  139.9740 N   0  0  0  0  0  0  0  0  0  0  0  0
  183.9560  179.4430  139.5690 C   0  0  0  0  0  2  0  0  0  0  0  0
  182.6130  178.4300  138.0020 O   0  0  0  0  0  0  0  0  0  0  0  0
  178.9330  179.0950  142.7500 C   0  0  0  0  0  2  0  0  0  0  0  0
  181.6670  178.6940  142.0600 C   0  0  0  0  0  0  0  0  0  0  0  0
  180.6170  178.1640  141.1730 C   0  0  0  0  0  0  0  0  0  0  0  0
  180.0330  179.2740  143.7100 N   0  0  0  0  0  0  0  0  0  0  0  0
  183.1280  176.6250  139.7450 C   0  0  0  0  0  2  0  0  0  0  0  0
  184.0220  179.0080  141.0010 C   0  0  0  0  0  0  0  0  0  0  0  0
  181.2880  179.1480  143.4000 C   0  0  0  0  0  3  0  0  0  0  0  0
  183.9040  178.3430  138.4780 C   0  0  2  0  0  3  0  0  0  0  0  0
  179.3380  178.3180  141.5200 C   0  0  0  0  0  3  0  0  0  0  0  0
  182.8720  178.8690  141.6050 C   0  0  0  0  0  0  0  0  0  0  0  0
  181.7750  176.4600  139.1740 C   0  0  1  0  0  0  0  0  0  0  0  0
  179.5830  176.0450  138.6980 O   0  0  0  0  0  1  0  0  0  0  0  0
  186.5620  178.7150  140.8690 C   0  0  0  0  0  3  0  0  0  0  0  0
  187.7830  177.5700  142.6970 C   0  0  0  0  0  2  0  0  0  0  0  0
  185.3020  178.6110  141.6320 C   0  0  0  0  0  0  0  0  0  0  0  0
  187.7160  178.2660  141.3660 C   0  0  0  0  0  3  0  0  0  0  0  0
  186.5950  177.8310  143.5110 N   0  0  0  0  0  0  0  0  0  0  0  0
  185.3480  178.2040  142.9060 C   0  0  0  0  0  3  0  0  0  0  0  0
  186.6170  177.4540  144.9140 C   0  0  0  0  0  2  0  0  0  0  0  0
  186.1750  178.3760  147.1660 C   0  0  0  0  0  1  0  0  0  0  0  0
  185.7320  178.3850  145.7190 C   0  0  0  0  0  2  0  0  0  0  0  0
  1 17  1  1  0  0  0
  1 16  1  0  0  0  0
  1  3  1  0  0  0  0
  2 13  1  0  0  0  0
  2 16  1  0  0  0  0
  2 10  1  1  0  0  0
  3  8  1  0  0  0  0
  4 11  1  0  0  0  0
  5  2  1  0  0  0  0
  5 13  1  0  0  0  0
  6  9  1  0  0  0  0
  7 12  1  0  0  0  0
  8 14  2  0  0  0  0
  8  7  1  0  0  0  0
 11 15  2  0  0  0  0
 11 20  1  0  0  0  0
 12  9  2  0  0  0  0
 13  4  1  1  0  0  0
 14  6  1  0  0  0  0
 15  7  2  0  0  0  0
 16 10  1  1  0  0  0
 16  3  1  0  0  0  0
 18 21  2  0  0  0  0
 18 20  1  0  0  0  0
 19 22  1  0  0  0  0
 20 23  2  0  0  0  0
 21 19  1  0  0  0  0
 22 24  1  0  0  0  0
 23 22  1  0  0  0  0
 24 26  1  0  0  0  0
 26 25  1  0  0  0  0
M  END
>  <MODEL>
9

>  <REMARK>
 VINA RESULT:      -6.8      3.769      8.168
  Name = 
  3 active torsions:
  status: ('A' for Active; 'I' for Inactive)
    1  A    between atoms: C_9  and  C_14
    2  A    between atoms: C_19  and  C_22
    3  A    between atoms: C_22  and  N_23
                            x       y       z     vdW  Elec       q    Type
                         _______ _______ _______ _____ _____    ______ ____

>  <TORSDO>
F 3

$$$$
