=
 OpenBabel10222415263D

 31 35  0  0  1  0  0  0  0  0999 V2000
  187.3480  177.4080  144.6810 C   0  0  0  0  0  0  0  0  0  0  0  0
  188.5000  177.7660  143.9000 N   0  0  0  0  0  0  0  0  0  0  0  0
  187.4900  176.6230  145.6560 O   0  0  0  0  0  0  0  0  0  0  0  0
  189.8340  177.4780  147.1760 C   0  0  0  0  0  0  0  0  0  0  0  0
  191.7710  176.1020  146.1970 C   0  0  0  0  0  3  0  0  0  0  0  0
  191.6510  176.5800  144.8920 N   0  0  0  0  0  0  0  0  0  0  0  0
  190.9060  176.5210  147.3180 C   0  0  0  0  0  3  0  0  0  0  0  0
  188.9390  177.9210  148.2750 C   0  0  0  0  0  1  0  0  0  0  0  0
  190.6520  177.4550  144.8410 C   0  0  0  0  0  0  0  0  0  0  0  0
  189.6420  178.3960  144.5720 C   0  0  2  0  0  3  0  0  0  0  0  0
  189.7620  177.9120  145.8910 C   0  0  0  0  0  0  0  0  0  0  0  0
  186.0230  177.9970  144.3700 C   0  0  0  0  0  0  0  0  0  0  0  0
  183.5240  179.0780  143.6500 C   0  0  0  0  0  3  0  0  0  0  0  0
  185.2450  178.7030  145.3220 C   0  0  0  0  0  0  0  0  0  0  0  0
  184.0040  179.2340  144.9510 C   0  0  0  0  0  3  0  0  0  0  0  0
  185.6770  178.8860  146.7380 C   0  0  0  0  0  1  0  0  0  0  0  0
  185.5240  177.8530  143.0650 C   0  0  0  0  0  3  0  0  0  0  0  0
  184.2850  178.3880  142.7060 C   0  0  0  0  0  3  0  0  0  0  0  0
  188.2220  177.6870  141.4660 C   0  0  0  0  0  2  0  0  0  0  0  0
  189.7030  177.7170  141.7620 C   0  0  1  0  0  3  0  0  0  0  0  0
  188.7600  176.9760  142.6940 C   0  0  1  0  0  3  0  0  0  0  0  0
  190.4070  176.7130  140.8700 C   0  0  0  0  0  2  0  0  0  0  0  0
  191.0660  177.4090  139.6860 C   0  0  0  0  0  2  0  0  0  0  0  0
  187.8580  178.2560  137.8930 C   0  0  0  0  0  2  0  0  0  0  0  0
  189.8550  176.3260  136.2780 C   0  0  0  0  0  2  0  0  0  0  0  0
  190.7990  176.7030  138.4520 N   0  0  0  0  0  0  0  0  0  0  0  0
  188.3850  176.0340  136.0010 C   0  0  0  0  0  2  0  0  0  0  0  0
  187.6960  177.2920  135.4910 C   0  0  0  0  0  2  0  0  0  0  0  0
  190.0390  177.1560  137.5130 C   0  0  0  0  0  0  0  0  0  0  0  0
  189.3390  178.4840  137.6310 C   0  0  0  0  0  2  0  0  0  0  0  0
  187.0340  178.1070  136.6090 C   0  0  0  0  0  2  0  0  0  0  0  0
  1  3  2  0  0  0  0
  2  1  1  0  0  0  0
  4  7  1  0  0  0  0
  4  8  1  0  0  0  0
  5  7  2  0  0  0  0
  6  5  1  0  0  0  0
  9  6  2  0  0  0  0
  9 11  1  0  0  0  0
 10  2  1  6  0  0  0
 10  9  1  0  0  0  0
 10 11  1  0  0  0  0
 11  4  2  0  0  0  0
 12  1  1  0  0  0  0
 12 14  1  0  0  0  0
 13 15  1  0  0  0  0
 14 16  1  0  0  0  0
 15 14  2  0  0  0  0
 17 12  2  0  0  0  0
 18 17  1  0  0  0  0
 18 13  2  0  0  0  0
 19 20  1  0  0  0  0
 19 21  1  0  0  0  0
 20 22  1  6  0  0  0
 20 21  1  0  0  0  0
 21  2  1  1  0  0  0
 23 22  1  0  0  0  0
 25 29  1  0  0  0  0
 26 23  1  0  0  0  0
 27 25  1  0  0  0  0
 28 27  1  0  0  0  0
 28 31  1  0  0  0  0
 29 30  1  0  0  0  0
 29 26  2  0  0  0  0
 30 24  1  0  0  0  0
 31 24  1  0  0  0  0
M  END
>  <MODEL>
1

>  <REMARK>
 VINA RESULT:      -9.8      0.000      0.000
  Name = 
  6 active torsions:
  status: ('A' for Active; 'I' for Inactive)
    1  A    between atoms: C_3  and  C_13
    2  A    between atoms: C_10  and  N_15
    3  A    between atoms: C_10  and  C_28
    4  A    between atoms: C_14  and  C_28
    5  A    between atoms: N_16  and  C_18
    6  A    between atoms: N_16  and  C_21
                            x       y       z     vdW  Elec       q    Type
                         _______ _______ _______ _____ _____    ______ ____

>  <TORSDO>
F 6

$$$$
=
 OpenBabel10222415263D

 31 35  0  0  1  0  0  0  0  0999 V2000
  187.5010  177.0910  143.8600 C   0  0  0  0  0  0  0  0  0  0  0  0
  187.3090  177.9630  142.7330 N   0  0  0  0  0  0  0  0  0  0  0  0
  187.9310  175.9230  143.6630 O   0  0  0  0  0  0  0  0  0  0  0  0
  190.7460  178.5680  143.3770 C   0  0  0  0  0  0  0  0  0  0  0  0
  191.2620  176.2150  142.4820 C   0  0  0  0  0  3  0  0  0  0  0  0
  190.0970  176.0830  141.7270 N   0  0  0  0  0  0  0  0  0  0  0  0
  191.5990  177.4070  143.2870 C   0  0  0  0  0  3  0  0  0  0  0  0
  191.0450  179.7820  144.1790 C   0  0  0  0  0  1  0  0  0  0  0  0
  189.3680  177.1870  141.8550 C   0  0  0  0  0  0  0  0  0  0  0  0
  188.4520  178.2530  141.8610 C   0  0  2  0  0  3  0  0  0  0  0  0
  189.6300  178.3880  142.6240 C   0  0  0  0  0  0  0  0  0  0  0  0
  187.2440  177.5820  145.2350 C   0  0  0  0  0  0  0  0  0  0  0  0
  186.6340  178.5580  147.8050 C   0  0  0  0  0  3  0  0  0  0  0  0
  188.2060  177.5180  146.2740 C   0  0  0  0  0  0  0  0  0  0  0  0
  187.8890  178.0050  147.5470 C   0  0  0  0  0  3  0  0  0  0  0  0
  189.5580  176.9160  146.0840 C   0  0  0  0  0  1  0  0  0  0  0  0
  185.9870  178.1440  145.5140 C   0  0  0  0  0  3  0  0  0  0  0  0
  185.6820  178.6280  146.7880 C   0  0  0  0  0  3  0  0  0  0  0  0
  185.3280  179.3650  142.3950 C   0  0  0  0  0  2  0  0  0  0  0  0
  185.9050  179.0440  141.0360 C   0  0  1  0  0  3  0  0  0  0  0  0
  185.9670  178.0110  142.1490 C   0  0  1  0  0  3  0  0  0  0  0  0
  184.7750  178.6840  140.0910 C   0  0  0  0  0  2  0  0  0  0  0  0
  185.3130  178.3640  138.7020 C   0  0  0  0  0  2  0  0  0  0  0  0
  187.5450  175.6760  137.2840 C   0  0  0  0  0  2  0  0  0  0  0  0
  188.9680  178.5150  137.7700 C   0  0  0  0  0  2  0  0  0  0  0  0
  186.7240  178.6680  138.6060 N   0  0  0  0  0  0  0  0  0  0  0  0
  189.9040  177.3310  137.9860 C   0  0  0  0  0  2  0  0  0  0  0  0
  189.9490  176.4730  136.7290 C   0  0  0  0  0  2  0  0  0  0  0  0
  187.5270  178.0990  137.7720 C   0  0  0  0  0  0  0  0  0  0  0  0
  187.0560  177.0370  136.8140 C   0  0  0  0  0  2  0  0  0  0  0  0
  188.9390  175.3210  136.7530 C   0  0  0  0  0  2  0  0  0  0  0  0
  1 12  1  0  0  0  0
  2  1  1  0  0  0  0
  3  1  2  0  0  0  0
  4  8  1  0  0  0  0
  5  7  2  0  0  0  0
  6  9  2  0  0  0  0
  6  5  1  0  0  0  0
  7  4  1  0  0  0  0
  9 10  1  0  0  0  0
  9 11  1  0  0  0  0
 10 11  1  0  0  0  0
 10  2  1  1  0  0  0
 11  4  2  0  0  0  0
 12 17  2  0  0  0  0
 12 14  1  0  0  0  0
 14 15  2  0  0  0  0
 15 13  1  0  0  0  0
 16 14  1  0  0  0  0
 17 18  1  0  0  0  0
 18 13  2  0  0  0  0
 20 22  1  6  0  0  0
 20 21  1  0  0  0  0
 20 19  1  0  0  0  0
 21 19  1  0  0  0  0
 21  2  1  1  0  0  0
 23 22  1  0  0  0  0
 25 29  1  0  0  0  0
 25 27  1  0  0  0  0
 26 23  1  0  0  0  0
 28 31  1  0  0  0  0
 28 27  1  0  0  0  0
 29 26  2  0  0  0  0
 30 24  1  0  0  0  0
 30 29  1  0  0  0  0
 31 24  1  0  0  0  0
M  END
>  <MODEL>
2

>  <REMARK>
 VINA RESULT:      -9.8      1.728      3.676
  Name = 
  6 active torsions:
  status: ('A' for Active; 'I' for Inactive)
    1  A    between atoms: C_3  and  C_13
    2  A    between atoms: C_10  and  N_15
    3  A    between atoms: C_10  and  C_28
    4  A    between atoms: C_14  and  C_28
    5  A    between atoms: N_16  and  C_18
    6  A    between atoms: N_16  and  C_21
                            x       y       z     vdW  Elec       q    Type
                         _______ _______ _______ _____ _____    ______ ____

>  <TORSDO>
F 6

$$$$
=
 OpenBabel10222415263D

 31 35  0  0  1  0  0  0  0  0999 V2000
  187.3950  177.4170  144.6420 C   0  0  0  0  0  0  0  0  0  0  0  0
  188.5720  177.7570  143.8890 N   0  0  0  0  0  0  0  0  0  0  0  0
  187.5040  176.6480  145.6330 O   0  0  0  0  0  0  0  0  0  0  0  0
  189.8280  177.4920  147.1980 C   0  0  0  0  0  0  0  0  0  0  0  0
  191.7910  176.1150  146.2740 C   0  0  0  0  0  3  0  0  0  0  0  0
  191.7010  176.5860  144.9640 N   0  0  0  0  0  0  0  0  0  0  0  0
  190.8980  176.5390  147.3710 C   0  0  0  0  0  3  0  0  0  0  0  0
  188.9050  177.9390  148.2730 C   0  0  0  0  0  1  0  0  0  0  0  0
  190.7010  177.4580  144.8840 C   0  0  0  0  0  0  0  0  0  0  0  0
  189.6960  178.3940  144.5850 C   0  0  2  0  0  3  0  0  0  0  0  0
  189.7860  177.9190  145.9090 C   0  0  0  0  0  0  0  0  0  0  0  0
  186.0820  178.0050  144.2800 C   0  0  0  0  0  0  0  0  0  0  0  0
  183.6110  179.0810  143.4670 C   0  0  0  0  0  3  0  0  0  0  0  0
  185.2860  178.7430  145.1920 C   0  0  0  0  0  0  0  0  0  0  0  0
  184.0590  179.2710  144.7750 C   0  0  0  0  0  3  0  0  0  0  0  0
  185.6840  178.9640  146.6120 C   0  0  0  0  0  1  0  0  0  0  0  0
  185.6150  177.8280  142.9670 C   0  0  0  0  0  3  0  0  0  0  0  0
  184.3900  178.3600  142.5620 C   0  0  0  0  0  3  0  0  0  0  0  0
  188.4200  177.6630  141.4450 C   0  0  0  0  0  2  0  0  0  0  0  0
  189.8830  177.6410  141.8190 C   0  0  1  0  0  3  0  0  0  0  0  0
  188.8640  176.9460  142.7060 C   0  0  1  0  0  3  0  0  0  0  0  0
  190.5940  176.6020  140.9740 C   0  0  0  0  0  2  0  0  0  0  0  0
  190.6570  177.0410  139.5160 C   0  0  0  0  0  2  0  0  0  0  0  0
  193.3280  176.5100  136.9070 C   0  0  0  0  0  2  0  0  0  0  0  0
  191.1480  174.1610  137.1250 C   0  0  0  0  0  2  0  0  0  0  0  0
  190.4880  175.9140  138.6250 N   0  0  0  0  0  0  0  0  0  0  0  0
  191.6620  174.3710  135.7050 C   0  0  0  0  0  2  0  0  0  0  0  0
  193.1780  174.2310  135.6800 C   0  0  0  0  0  2  0  0  0  0  0  0
  191.4610  175.3270  138.0130 C   0  0  0  0  0  0  0  0  0  0  0  0
  192.8870  175.7840  138.1700 C   0  0  0  0  0  2  0  0  0  0  0  0
  193.9070  175.5700  135.8440 C   0  0  0  0  0  2  0  0  0  0  0  0
  1  3  2  0  0  0  0
  2  1  1  0  0  0  0
  4  7  1  0  0  0  0
  4  8  1  0  0  0  0
  5  7  2  0  0  0  0
  6  5  1  0  0  0  0
  9  6  2  0  0  0  0
  9 11  1  0  0  0  0
 10  2  1  6  0  0  0
 10  9  1  0  0  0  0
 10 11  1  0  0  0  0
 11  4  2  0  0  0  0
 12  1  1  0  0  0  0
 12 14  1  0  0  0  0
 13 15  1  0  0  0  0
 14 16  1  0  0  0  0
 15 14  2  0  0  0  0
 17 12  2  0  0  0  0
 18 17  1  0  0  0  0
 18 13  2  0  0  0  0
 19 20  1  0  0  0  0
 19 21  1  0  0  0  0
 20 22  1  6  0  0  0
 20 21  1  0  0  0  0
 21  2  1  1  0  0  0
 23 22  1  0  0  0  0
 24 30  1  0  0  0  0
 25 29  1  0  0  0  0
 26 23  1  0  0  0  0
 27 25  1  0  0  0  0
 28 27  1  0  0  0  0
 28 31  1  0  0  0  0
 29 30  1  0  0  0  0
 29 26  2  0  0  0  0
 31 24  1  0  0  0  0
M  END
>  <MODEL>
3

>  <REMARK>
 VINA RESULT:      -9.3      1.715      2.380
  Name = 
  6 active torsions:
  status: ('A' for Active; 'I' for Inactive)
    1  A    between atoms: C_3  and  C_13
    2  A    between atoms: C_10  and  N_15
    3  A    between atoms: C_10  and  C_28
    4  A    between atoms: C_14  and  C_28
    5  A    between atoms: N_16  and  C_18
    6  A    between atoms: N_16  and  C_21
                            x       y       z     vdW  Elec       q    Type
                         _______ _______ _______ _____ _____    ______ ____

>  <TORSDO>
F 6

$$$$
=
 OpenBabel10222415263D

 31 35  0  0  1  0  0  0  0  0999 V2000
  187.3280  177.2910  144.0950 C   0  0  0  0  0  0  0  0  0  0  0  0
  187.5540  178.2700  143.0670 N   0  0  0  0  0  0  0  0  0  0  0  0
  187.1330  176.0910  143.7640 O   0  0  0  0  0  0  0  0  0  0  0  0
  191.0750  178.2280  143.5030 C   0  0  0  0  0  0  0  0  0  0  0  0
  191.0150  175.6740  143.2270 C   0  0  0  0  0  3  0  0  0  0  0  0
  189.8010  175.6260  142.5410 N   0  0  0  0  0  0  0  0  0  0  0  0
  191.6510  176.9200  143.7010 C   0  0  0  0  0  3  0  0  0  0  0  0
  191.6800  179.5020  143.9700 C   0  0  0  0  0  1  0  0  0  0  0  0
  189.3360  176.8620  142.3940 C   0  0  0  0  0  0  0  0  0  0  0  0
  188.6730  178.0750  142.1390 C   0  0  2  0  0  3  0  0  0  0  0  0
  189.9000  178.1250  142.8320 C   0  0  0  0  0  0  0  0  0  0  0  0
  187.3740  177.6850  145.5240 C   0  0  0  0  0  0  0  0  0  0  0  0
  187.5860  178.3820  148.2440 C   0  0  0  0  0  3  0  0  0  0  0  0
  186.2650  178.2400  146.2120 C   0  0  0  0  0  0  0  0  0  0  0  0
  186.3850  178.5830  147.5630 C   0  0  0  0  0  3  0  0  0  0  0  0
  184.9590  178.5110  145.5450 C   0  0  0  0  0  1  0  0  0  0  0  0
  188.5730  177.4870  146.2280 C   0  0  0  0  0  3  0  0  0  0  0  0
  188.6810  177.8320  147.5770 C   0  0  0  0  0  3  0  0  0  0  0  0
  186.3030  178.9740  141.0810 C   0  0  0  0  0  2  0  0  0  0  0  0
  185.3970  178.0950  141.9110 C   0  0  1  0  0  3  0  0  0  0  0  0
  186.3890  179.0210  142.5950 C   0  0  1  0  0  3  0  0  0  0  0  0
  184.0170  178.7210  141.9670 C   0  0  0  0  0  2  0  0  0  0  0  0
  183.0700  178.0330  140.9910 C   0  0  0  0  0  2  0  0  0  0  0  0
  182.2740  180.9340  138.7180 C   0  0  0  0  0  2  0  0  0  0  0  0
  179.7700  179.7450  140.3410 C   0  0  0  0  0  2  0  0  0  0  0  0
  181.7370  178.5870  141.0800 N   0  0  0  0  0  0  0  0  0  0  0  0
  179.6740  181.2490  140.1090 C   0  0  0  0  0  2  0  0  0  0  0  0
  179.7560  181.5480  138.6180 C   0  0  0  0  0  2  0  0  0  0  0  0
  181.1610  179.2310  140.1210 C   0  0  0  0  0  0  0  0  0  0  0  0
  181.8480  179.4760  138.8040 C   0  0  0  0  0  2  0  0  0  0  0  0
  181.1840  181.8470  138.1450 C   0  0  0  0  0  2  0  0  0  0  0  0
  1 12  1  0  0  0  0
  2  1  1  0  0  0  0
  3  1  2  0  0  0  0
  4  7  1  0  0  0  0
  4  8  1  0  0  0  0
  5  7  2  0  0  0  0
  6  5  1  0  0  0  0
  9  6  2  0  0  0  0
  9 11  1  0  0  0  0
 10  9  1  0  0  0  0
 10 11  1  0  0  0  0
 10  2  1  1  0  0  0
 11  4  2  0  0  0  0
 12 14  2  0  0  0  0
 12 17  1  0  0  0  0
 14 15  1  0  0  0  0
 15 13  2  0  0  0  0
 16 14  1  0  0  0  0
 17 18  2  0  0  0  0
 18 13  1  0  0  0  0
 19 20  1  0  0  0  0
 19 21  1  0  0  0  0
 20 22  1  1  0  0  0
 20 21  1  0  0  0  0
 21  2  1  6  0  0  0
 23 26  1  0  0  0  0
 23 22  1  0  0  0  0
 24 30  1  0  0  0  0
 27 25  1  0  0  0  0
 28 27  1  0  0  0  0
 29 25  1  0  0  0  0
 29 26  2  0  0  0  0
 30 29  1  0  0  0  0
 31 28  1  0  0  0  0
 31 24  1  0  0  0  0
M  END
>  <MODEL>
4

>  <REMARK>
 VINA RESULT:      -9.3      3.221      5.811
  Name = 
  6 active torsions:
  status: ('A' for Active; 'I' for Inactive)
    1  A    between atoms: C_3  and  C_13
    2  A    between atoms: C_10  and  N_15
    3  A    between atoms: C_10  and  C_28
    4  A    between atoms: C_14  and  C_28
    5  A    between atoms: N_16  and  C_18
    6  A    between atoms: N_16  and  C_21
                            x       y       z     vdW  Elec       q    Type
                         _______ _______ _______ _____ _____    ______ ____

>  <TORSDO>
F 6

$$$$
=
 OpenBabel10222415263D

 31 35  0  0  1  0  0  0  0  0999 V2000
  187.4460  178.5640  137.4170 C   0  0  0  0  0  0  0  0  0  0  0  0
  188.6520  177.8690  137.7760 N   0  0  0  0  0  0  0  0  0  0  0  0
  187.5250  179.5960  136.6990 O   0  0  0  0  0  0  0  0  0  0  0  0
  191.6660  175.9950  137.7930 C   0  0  0  0  0  0  0  0  0  0  0  0
  190.3240  173.9500  137.0060 C   0  0  0  0  0  3  0  0  0  0  0  0
  189.2570  174.6690  136.4680 N   0  0  0  0  0  0  0  0  0  0  0  0
  191.5000  174.5690  137.6510 C   0  0  0  0  0  3  0  0  0  0  0  0
  192.8290  176.6560  138.4390 C   0  0  0  0  0  1  0  0  0  0  0  0
  189.4820  175.9680  136.6310 C   0  0  0  0  0  0  0  0  0  0  0  0
  189.5250  177.3710  136.7070 C   0  0  2  0  0  3  0  0  0  0  0  0
  190.6040  176.6460  137.2520 C   0  0  0  0  0  0  0  0  0  0  0  0
  186.1270  178.0400  137.8490 C   0  0  0  0  0  0  0  0  0  0  0  0
  183.6280  177.1320  138.7740 C   0  0  0  0  0  3  0  0  0  0  0  0
  185.4700  176.9640  137.2020 C   0  0  0  0  0  0  0  0  0  0  0  0
  184.2270  176.5230  137.6710 C   0  0  0  0  0  3  0  0  0  0  0  0
  186.0340  176.2820  136.0010 C   0  0  0  0  0  1  0  0  0  0  0  0
  185.5080  178.6370  138.9600 C   0  0  0  0  0  3  0  0  0  0  0  0
  184.2680  178.1890  139.4200 C   0  0  0  0  0  3  0  0  0  0  0  0
  188.1980  178.4070  140.1230 C   0  0  0  0  0  2  0  0  0  0  0  0
  189.0000  177.1270  140.0880 C   0  0  1  0  0  3  0  0  0  0  0  0
  189.2640  178.2150  139.0600 C   0  0  1  0  0  3  0  0  0  0  0  0
  190.0740  177.1870  141.1570 C   0  0  0  0  0  2  0  0  0  0  0  0
  189.6910  176.3300  142.3570 C   0  0  0  0  0  2  0  0  0  0  0  0
  189.4070  177.1140  146.0350 C   0  0  0  0  0  2  0  0  0  0  0  0
  186.7620  177.6950  144.3070 C   0  0  0  0  0  2  0  0  0  0  0  0
  188.3790  176.6820  142.8520 N   0  0  0  0  0  0  0  0  0  0  0  0
  186.4600  177.2410  145.7310 C   0  0  0  0  0  2  0  0  0  0  0  0
  187.1420  178.1710  146.7250 C   0  0  0  0  0  2  0  0  0  0  0  0
  188.1750  177.3920  143.9100 C   0  0  0  0  0  0  0  0  0  0  0  0
  189.3140  177.9160  144.7450 C   0  0  0  0  0  2  0  0  0  0  0  0
  188.5260  177.6740  147.1570 C   0  0  0  0  0  2  0  0  0  0  0  0
  1  2  1  0  0  0  0
  1 12  1  0  0  0  0
  3  1  2  0  0  0  0
  4  8  1  0  0  0  0
  5  7  2  0  0  0  0
  6  9  2  0  0  0  0
  6  5  1  0  0  0  0
  7  4  1  0  0  0  0
  9 10  1  0  0  0  0
  9 11  1  0  0  0  0
 10 11  1  0  0  0  0
 10  2  1  1  0  0  0
 11  4  2  0  0  0  0
 12 17  1  0  0  0  0
 13 18  1  0  0  0  0
 14 15  1  0  0  0  0
 14 12  2  0  0  0  0
 15 13  2  0  0  0  0
 16 14  1  0  0  0  0
 17 18  2  0  0  0  0
 20 19  1  0  0  0  0
 20 22  1  1  0  0  0
 21  2  1  6  0  0  0
 21 20  1  0  0  0  0
 21 19  1  0  0  0  0
 22 23  1  0  0  0  0
 23 26  1  0  0  0  0
 24 31  1  0  0  0  0
 25 27  1  0  0  0  0
 26 29  2  0  0  0  0
 27 28  1  0  0  0  0
 28 31  1  0  0  0  0
 29 25  1  0  0  0  0
 29 30  1  0  0  0  0
 30 24  1  0  0  0  0
M  END
>  <MODEL>
5

>  <REMARK>
 VINA RESULT:      -9.3      2.597      7.739
  Name = 
  6 active torsions:
  status: ('A' for Active; 'I' for Inactive)
    1  A    between atoms: C_3  and  C_13
    2  A    between atoms: C_10  and  N_15
    3  A    between atoms: C_10  and  C_28
    4  A    between atoms: C_14  and  C_28
    5  A    between atoms: N_16  and  C_18
    6  A    between atoms: N_16  and  C_21
                            x       y       z     vdW  Elec       q    Type
                         _______ _______ _______ _____ _____    ______ ____

>  <TORSDO>
F 6

$$$$
=
 OpenBabel10222415263D

 31 35  0  0  1  0  0  0  0  0999 V2000
  188.2530  178.2530  138.9540 C   0  0  0  0  0  0  0  0  0  0  0  0
  188.7200  176.9480  138.5750 N   0  0  0  0  0  0  0  0  0  0  0  0
  188.7050  179.2630  138.3510 O   0  0  0  0  0  0  0  0  0  0  0  0
  189.4610  173.9170  136.8840 C   0  0  0  0  0  0  0  0  0  0  0  0
  186.9460  173.3900  136.8600 C   0  0  0  0  0  3  0  0  0  0  0  0
  186.5150  174.7080  137.0140 N   0  0  0  0  0  0  0  0  0  0  0  0
  188.3650  172.9830  136.7940 C   0  0  0  0  0  3  0  0  0  0  0  0
  190.8990  173.5480  136.8280 C   0  0  0  0  0  1  0  0  0  0  0  0
  187.5760  175.5060  137.0840 C   0  0  0  0  0  0  0  0  0  0  0  0
  188.5510  176.5130  137.1840 C   0  0  2  0  0  3  0  0  0  0  0  0
  188.9880  175.1820  137.0290 C   0  0  0  0  0  0  0  0  0  0  0  0
  187.2180  178.3990  140.0070 C   0  0  0  0  0  0  0  0  0  0  0  0
  185.3510  178.6630  142.0970 C   0  0  0  0  0  3  0  0  0  0  0  0
  185.8330  178.4960  139.7230 C   0  0  0  0  0  0  0  0  0  0  0  0
  184.9150  178.6270  140.7720 C   0  0  0  0  0  3  0  0  0  0  0  0
  185.2930  178.4940  138.3330 C   0  0  0  0  0  1  0  0  0  0  0  0
  187.6360  178.4340  141.3470 C   0  0  0  0  0  3  0  0  0  0  0  0
  186.7120  178.5650  142.3860 C   0  0  0  0  0  3  0  0  0  0  0  0
  191.1620  176.8150  138.7310 C   0  0  0  0  0  2  0  0  0  0  0  0
  190.6560  177.5040  139.9770 C   0  0  1  0  0  3  0  0  0  0  0  0
  189.8380  176.3920  139.3400 C   0  0  1  0  0  3  0  0  0  0  0  0
  191.3890  176.9490  141.1820 C   0  0  0  0  0  2  0  0  0  0  0  0
  191.2440  177.8800  142.3800 C   0  0  0  0  0  2  0  0  0  0  0  0
  188.9880  177.8870  145.4020 C   0  0  0  0  0  2  0  0  0  0  0  0
  191.6790  176.1600  145.7120 C   0  0  0  0  0  2  0  0  0  0  0  0
  191.7600  177.2650  143.5830 N   0  0  0  0  0  0  0  0  0  0  0  0
  191.2280  176.8060  147.0180 C   0  0  0  0  0  2  0  0  0  0  0  0
  189.8050  176.3730  147.3430 C   0  0  0  0  0  2  0  0  0  0  0  0
  191.0150  176.7810  144.5200 C   0  0  0  0  0  0  0  0  0  0  0  0
  189.5120  176.8280  144.4430 C   0  0  0  0  0  2  0  0  0  0  0  0
  188.7470  177.3510  146.8170 C   0  0  0  0  0  2  0  0  0  0  0  0
  1 12  1  0  0  0  0
  2  1  1  0  0  0  0
  3  1  2  0  0  0  0
  4 11  1  0  0  0  0
  5  6  2  0  0  0  0
  6  9  1  0  0  0  0
  7  5  1  0  0  0  0
  7  4  2  0  0  0  0
  8  4  1  0  0  0  0
  9 10  1  0  0  0  0
 10  2  1  1  0  0  0
 11  9  2  0  0  0  0
 11 10  1  0  0  0  0
 12 17  1  0  0  0  0
 13 18  1  0  0  0  0
 14 12  2  0  0  0  0
 14 15  1  0  0  0  0
 15 13  2  0  0  0  0
 16 14  1  0  0  0  0
 17 18  2  0  0  0  0
 19 21  1  0  0  0  0
 19 20  1  0  0  0  0
 20 22  1  1  0  0  0
 21  2  1  6  0  0  0
 21 20  1  0  0  0  0
 22 23  1  0  0  0  0
 23 26  1  0  0  0  0
 24 31  1  0  0  0  0
 25 27  1  0  0  0  0
 26 29  2  0  0  0  0
 27 28  1  0  0  0  0
 29 25  1  0  0  0  0
 30 29  1  0  0  0  0
 30 24  1  0  0  0  0
 31 28  1  0  0  0  0
M  END
>  <MODEL>
6

>  <REMARK>
 VINA RESULT:      -9.1      2.383      7.665
  Name = 
  6 active torsions:
  status: ('A' for Active; 'I' for Inactive)
    1  A    between atoms: C_3  and  C_13
    2  A    between atoms: C_10  and  N_15
    3  A    between atoms: C_10  and  C_28
    4  A    between atoms: C_14  and  C_28
    5  A    between atoms: N_16  and  C_18
    6  A    between atoms: N_16  and  C_21
                            x       y       z     vdW  Elec       q    Type
                         _______ _______ _______ _____ _____    ______ ____

>  <TORSDO>
F 6

$$$$
=
 OpenBabel10222415263D

 31 35  0  0  1  0  0  0  0  0999 V2000
  187.3100  176.5130  135.8830 C   0  0  0  0  0  0  0  0  0  0  0  0
  188.5050  176.9270  136.5660 N   0  0  0  0  0  0  0  0  0  0  0  0
  187.0320  177.0320  134.7690 O   0  0  0  0  0  0  0  0  0  0  0  0
  191.7150  175.8880  137.6700 C   0  0  0  0  0  0  0  0  0  0  0  0
  191.3440  173.6590  136.4460 C   0  0  0  0  0  3  0  0  0  0  0  0
  190.3770  174.1340  135.5590 N   0  0  0  0  0  0  0  0  0  0  0  0
  192.0050  174.4880  137.4740 C   0  0  0  0  0  3  0  0  0  0  0  0
  192.3520  176.7540  138.6950 C   0  0  0  0  0  1  0  0  0  0  0  0
  190.1670  175.4250  135.7950 C   0  0  0  0  0  0  0  0  0  0  0  0
  189.7960  176.7780  135.8850 C   0  0  2  0  0  3  0  0  0  0  0  0
  190.7730  176.2990  136.7820 C   0  0  0  0  0  0  0  0  0  0  0  0
  186.4470  175.4560  136.4640 C   0  0  0  0  0  0  0  0  0  0  0  0
  184.9160  173.3700  137.5730 C   0  0  0  0  0  3  0  0  0  0  0  0
  185.0430  175.5950  136.6100 C   0  0  0  0  0  0  0  0  0  0  0  0
  184.2950  174.5500  137.1630 C   0  0  0  0  0  3  0  0  0  0  0  0
  184.3120  176.8360  136.2220 C   0  0  0  0  0  1  0  0  0  0  0  0
  187.0530  174.2590  136.8790 C   0  0  0  0  0  3  0  0  0  0  0  0
  186.2960  173.2230  137.4300 C   0  0  0  0  0  3  0  0  0  0  0  0
  187.0440  177.8770  138.2890 C   0  0  0  0  0  2  0  0  0  0  0  0
  188.3140  177.4130  138.9630 C   0  0  1  0  0  3  0  0  0  0  0  0
  188.3700  177.9940  137.5600 C   0  0  1  0  0  3  0  0  0  0  0  0
  188.7630  178.4690  139.9540 C   0  0  0  0  0  2  0  0  0  0  0  0
  188.0820  178.2710  141.3030 C   0  0  0  0  0  2  0  0  0  0  0  0
  186.7630  177.9710  144.8230 C   0  0  0  0  0  2  0  0  0  0  0  0
  189.8860  177.3020  144.4740 C   0  0  0  0  0  2  0  0  0  0  0  0
  189.0550  178.0460  142.3490 N   0  0  0  0  0  0  0  0  0  0  0  0
  189.5570  177.9450  145.8170 C   0  0  0  0  0  2  0  0  0  0  0  0
  188.5070  177.1160  146.5420 C   0  0  0  0  0  2  0  0  0  0  0  0
  188.7800  177.4850  143.4790 C   0  0  0  0  0  0  0  0  0  0  0  0
  187.3880  177.0180  143.8150 C   0  0  0  0  0  2  0  0  0  0  0  0
  187.0750  177.5980  146.2760 C   0  0  0  0  0  2  0  0  0  0  0  0
  1 12  1  0  0  0  0
  1  2  1  0  0  0  0
  3  1  2  0  0  0  0
  4  8  1  0  0  0  0
  5  7  2  0  0  0  0
  6  9  2  0  0  0  0
  6  5  1  0  0  0  0
  7  4  1  0  0  0  0
  9 10  1  0  0  0  0
  9 11  1  0  0  0  0
 10  2  1  1  0  0  0
 10 11  1  0  0  0  0
 11  4  2  0  0  0  0
 12 14  2  0  0  0  0
 12 17  1  0  0  0  0
 14 15  1  0  0  0  0
 15 13  2  0  0  0  0
 16 14  1  0  0  0  0
 17 18  2  0  0  0  0
 18 13  1  0  0  0  0
 19 20  1  0  0  0  0
 20 22  1  1  0  0  0
 21  2  1  6  0  0  0
 21 19  1  0  0  0  0
 21 20  1  0  0  0  0
 22 23  1  0  0  0  0
 23 26  1  0  0  0  0
 24 31  1  0  0  0  0
 25 27  1  0  0  0  0
 26 29  2  0  0  0  0
 27 28  1  0  0  0  0
 29 30  1  0  0  0  0
 29 25  1  0  0  0  0
 30 24  1  0  0  0  0
 31 28  1  0  0  0  0
M  END
>  <MODEL>
7

>  <REMARK>
 VINA RESULT:      -9.0      2.986      8.316
  Name = 
  6 active torsions:
  status: ('A' for Active; 'I' for Inactive)
    1  A    between atoms: C_3  and  C_13
    2  A    between atoms: C_10  and  N_15
    3  A    between atoms: C_10  and  C_28
    4  A    between atoms: C_14  and  C_28
    5  A    between atoms: N_16  and  C_18
    6  A    between atoms: N_16  and  C_21
                            x       y       z     vdW  Elec       q    Type
                         _______ _______ _______ _____ _____    ______ ____

>  <TORSDO>
F 6

$$$$
=
 OpenBabel10222415263D

 31 35  0  0  1  0  0  0  0  0999 V2000
  188.1600  176.7390  142.7800 C   0  0  0  0  0  0  0  0  0  0  0  0
  188.8820  177.3970  141.7250 N   0  0  0  0  0  0  0  0  0  0  0  0
  188.3750  175.5170  142.9980 O   0  0  0  0  0  0  0  0  0  0  0  0
  191.2290  178.5580  144.1200 C   0  0  0  0  0  0  0  0  0  0  0  0
  191.6820  176.1130  144.7680 C   0  0  0  0  0  3  0  0  0  0  0  0
  191.2300  175.5550  143.5720 N   0  0  0  0  0  0  0  0  0  0  0  0
  191.6920  177.5620  145.0560 C   0  0  0  0  0  3  0  0  0  0  0  0
  191.2170  180.0220  144.3740 C   0  0  0  0  0  1  0  0  0  0  0  0
  190.8270  176.5290  142.7630 C   0  0  0  0  0  0  0  0  0  0  0  0
  190.3480  177.3980  141.7670 C   0  0  2  0  0  3  0  0  0  0  0  0
  190.8040  177.9640  142.9760 C   0  0  0  0  0  0  0  0  0  0  0  0
  187.2130  177.5050  143.6270 C   0  0  0  0  0  0  0  0  0  0  0  0
  185.3490  178.9940  145.1220 C   0  0  0  0  0  3  0  0  0  0  0  0
  187.3750  177.6600  145.0260 C   0  0  0  0  0  0  0  0  0  0  0  0
  186.4400  178.4010  145.7580 C   0  0  0  0  0  3  0  0  0  0  0  0
  188.4990  177.0340  145.7810 C   0  0  0  0  0  1  0  0  0  0  0  0
  186.1090  178.1110  143.0050 C   0  0  0  0  0  3  0  0  0  0  0  0
  185.1830  178.8500  143.7440 C   0  0  0  0  0  3  0  0  0  0  0  0
  188.8330  178.5880  139.5840 C   0  0  0  0  0  2  0  0  0  0  0  0
  189.2180  177.1540  139.3070 C   0  0  1  0  0  3  0  0  0  0  0  0
  188.2300  177.4720  140.4170 C   0  0  1  0  0  3  0  0  0  0  0  0
  188.4560  176.6620  138.0920 C   0  0  0  0  0  2  0  0  0  0  0  0
  189.3830  176.5310  136.8890 C   0  0  0  0  0  2  0  0  0  0  0  0
  191.6670  173.5670  136.4200 C   0  0  0  0  0  2  0  0  0  0  0  0
  193.1310  176.2980  137.2690 C   0  0  0  0  0  2  0  0  0  0  0  0
  190.7660  176.7030  137.2750 N   0  0  0  0  0  0  0  0  0  0  0  0
  193.8080  175.0540  137.8340 C   0  0  0  0  0  2  0  0  0  0  0  0
  194.1870  174.1130  136.7000 C   0  0  0  0  0  2  0  0  0  0  0  0
  191.7400  176.0100  136.7890 C   0  0  0  0  0  0  0  0  0  0  0  0
  191.5130  174.9310  135.7630 C   0  0  0  0  0  2  0  0  0  0  0  0
  193.1120  173.0570  136.4130 C   0  0  0  0  0  2  0  0  0  0  0  0
  1  3  2  0  0  0  0
  1 12  1  0  0  0  0
  2  1  1  0  0  0  0
  4  8  1  0  0  0  0
  4  7  1  0  0  0  0
  5  7  2  0  0  0  0
  6  5  1  0  0  0  0
  9 11  1  0  0  0  0
  9  6  2  0  0  0  0
 10  2  1  1  0  0  0
 10  9  1  0  0  0  0
 10 11  1  0  0  0  0
 11  4  2  0  0  0  0
 12 14  1  0  0  0  0
 13 15  1  0  0  0  0
 14 15  2  0  0  0  0
 14 16  1  0  0  0  0
 17 12  2  0  0  0  0
 17 18  1  0  0  0  0
 18 13  2  0  0  0  0
 19 21  1  0  0  0  0
 20 22  1  6  0  0  0
 20 19  1  0  0  0  0
 20 21  1  0  0  0  0
 21  2  1  1  0  0  0
 23 26  1  0  0  0  0
 23 22  1  0  0  0  0
 25 27  1  0  0  0  0
 28 27  1  0  0  0  0
 29 25  1  0  0  0  0
 29 26  2  0  0  0  0
 30 24  1  0  0  0  0
 30 29  1  0  0  0  0
 31 24  1  0  0  0  0
 31 28  1  0  0  0  0
M  END
>  <MODEL>
8

>  <REMARK>
 VINA RESULT:      -8.9      2.184      3.569
  Name = 
  6 active torsions:
  status: ('A' for Active; 'I' for Inactive)
    1  A    between atoms: C_3  and  C_13
    2  A    between atoms: C_10  and  N_15
    3  A    between atoms: C_10  and  C_28
    4  A    between atoms: C_14  and  C_28
    5  A    between atoms: N_16  and  C_18
    6  A    between atoms: N_16  and  C_21
                            x       y       z     vdW  Elec       q    Type
                         _______ _______ _______ _____ _____    ______ ____

>  <TORSDO>
F 6

$$$$
=
 OpenBabel10222415263D

 31 35  0  0  1  0  0  0  0  0999 V2000
  185.1160  179.1120  139.2810 C   0  0  0  0  0  0  0  0  0  0  0  0
  185.9480  178.2220  138.5180 N   0  0  0  0  0  0  0  0  0  0  0  0
  184.6310  180.1290  138.7190 O   0  0  0  0  0  0  0  0  0  0  0  0
  186.6200  175.1680  136.8410 C   0  0  0  0  0  0  0  0  0  0  0  0
  184.3950  174.2550  137.7450 C   0  0  0  0  0  3  0  0  0  0  0  0
  183.8030  175.4990  137.9700 N   0  0  0  0  0  0  0  0  0  0  0  0
  185.7550  174.0700  137.1990 C   0  0  0  0  0  3  0  0  0  0  0  0
  187.9950  175.0240  136.2950 C   0  0  0  0  0  1  0  0  0  0  0  0
  184.6550  176.4550  137.6150 C   0  0  0  0  0  0  0  0  0  0  0  0
  185.3990  177.6070  137.3050 C   0  0  2  0  0  3  0  0  0  0  0  0
  185.9970  176.3510  137.0770 C   0  0  0  0  0  0  0  0  0  0  0  0
  184.7960  178.8040  140.6970 C   0  0  0  0  0  0  0  0  0  0  0  0
  184.3160  178.2550  143.4160 C   0  0  0  0  0  3  0  0  0  0  0  0
  183.5580  178.2510  141.1100 C   0  0  0  0  0  0  0  0  0  0  0  0
  183.3320  177.9840  142.4650 C   0  0  0  0  0  3  0  0  0  0  0  0
  182.4490  177.9600  140.1560 C   0  0  0  0  0  1  0  0  0  0  0  0
  185.7750  179.0670  141.6700 C   0  0  0  0  0  3  0  0  0  0  0  0
  185.5390  178.7970  143.0190 C   0  0  0  0  0  3  0  0  0  0  0  0
  187.8380  178.6220  140.0250 C   0  0  0  0  0  2  0  0  0  0  0  0
  188.0730  177.3020  139.3300 C   0  0  1  0  0  3  0  0  0  0  0  0
  187.3940  178.4400  138.5860 C   0  0  1  0  0  3  0  0  0  0  0  0
  189.5230  177.2220  138.8950 C   0  0  0  0  0  2  0  0  0  0  0  0
  190.3360  176.3820  139.8730 C   0  0  0  0  0  2  0  0  0  0  0  0
  188.4730  176.6520  143.1400 C   0  0  0  0  0  2  0  0  0  0  0  0
  191.3970  177.9820  143.1230 C   0  0  0  0  0  2  0  0  0  0  0  0
  190.9320  177.2090  140.8990 N   0  0  0  0  0  0  0  0  0  0  0  0
  190.4080  178.7210  144.0180 C   0  0  0  0  0  2  0  0  0  0  0  0
  189.8310  177.7620  145.0500 C   0  0  0  0  0  2  0  0  0  0  0  0
  190.7050  177.0630  142.1620 C   0  0  0  0  0  0  0  0  0  0  0  0
  189.7710  176.0030  142.6830 C   0  0  0  0  0  2  0  0  0  0  0  0
  188.5140  177.1180  144.6000 C   0  0  0  0  0  2  0  0  0  0  0  0
  1 12  1  0  0  0  0
  2  1  1  0  0  0  0
  3  1  2  0  0  0  0
  4 11  2  0  0  0  0
  4  7  1  0  0  0  0
  5  6  1  0  0  0  0
  7  5  2  0  0  0  0
  8  4  1  0  0  0  0
  9  6  2  0  0  0  0
 10  9  1  0  0  0  0
 10  2  1  1  0  0  0
 11 10  1  0  0  0  0
 11  9  1  0  0  0  0
 12 14  2  0  0  0  0
 12 17  1  0  0  0  0
 14 15  1  0  0  0  0
 15 13  2  0  0  0  0
 16 14  1  0  0  0  0
 17 18  2  0  0  0  0
 18 13  1  0  0  0  0
 20 22  1  6  0  0  0
 20 19  1  0  0  0  0
 21  2  1  1  0  0  0
 21 20  1  0  0  0  0
 21 19  1  0  0  0  0
 22 23  1  0  0  0  0
 23 26  1  0  0  0  0
 24 31  1  0  0  0  0
 25 27  1  0  0  0  0
 26 29  2  0  0  0  0
 27 28  1  0  0  0  0
 29 30  1  0  0  0  0
 29 25  1  0  0  0  0
 30 24  1  0  0  0  0
 31 28  1  0  0  0  0
M  END
>  <MODEL>
9

>  <REMARK>
 VINA RESULT:      -8.8      2.915      7.123
  Name = 
  6 active torsions:
  status: ('A' for Active; 'I' for Inactive)
    1  A    between atoms: C_3  and  C_13
    2  A    between atoms: C_10  and  N_15
    3  A    between atoms: C_10  and  C_28
    4  A    between atoms: C_14  and  C_28
    5  A    between atoms: N_16  and  C_18
    6  A    between atoms: N_16  and  C_21
                            x       y       z     vdW  Elec       q    Type
                         _______ _______ _______ _____ _____    ______ ____

>  <TORSDO>
F 6

$$$$
