=
 OpenBabel10222417273D

 28 31  0  0  1  0  0  0  0  0999 V2000
  189.2040  176.8200  143.2250 C   0  0  2  0  0  3  0  0  0  0  0  0
  185.7150  178.0770  144.3040 C   0  0  0  0  0  0  0  0  0  0  0  0
  186.0180  178.1700  145.6990 C   0  0  0  0  0  0  0  0  0  0  0  0
  186.7270  177.6450  143.4170 C   0  0  0  0  0  3  0  0  0  0  0  0
  189.5670  176.9800  145.4870 N   0  0  0  0  0  0  0  0  0  0  0  0
  185.0620  178.6450  146.6420 N   0  0  0  0  0  1  0  0  0  0  0  0
  187.9830  177.3230  143.9260 C   0  0  0  0  0  0  0  0  0  0  0  0
  188.2460  177.3980  145.2480 C   0  0  0  0  0  0  0  0  0  0  0  0
  190.2110  176.6050  144.2880 N   0  0  0  0  0  2  0  0  0  0  0  0
  187.2950  177.8220  146.1720 C   0  0  0  0  0  3  0  0  0  0  0  0
  182.0360  179.0240  144.0220 C   0  0  0  0  0  3  0  0  0  0  0  0
  180.6400  179.2820  142.1080 F   0  0  0  0  0  0  0  0  0  0  0  0
  181.8540  178.9980  142.6380 C   0  0  0  0  0  0  0  0  0  0  0  0
  184.3780  178.4140  143.7390 C   0  0  0  0  0  0  0  0  0  0  0  0
  182.9240  178.6750  141.7990 C   0  0  0  0  0  3  0  0  0  0  0  0
  183.2890  178.7310  144.5670 C   0  0  0  0  0  3  0  0  0  0  0  0
  184.1760  178.3830  142.3470 C   0  0  0  0  0  3  0  0  0  0  0  0
  190.1910  176.9390  146.8070 C   0  0  0  0  0  2  0  0  0  0  0  0
  192.0260  175.2940  146.9770 C   0  0  0  0  0  2  0  0  0  0  0  0
  191.6960  176.7470  146.7120 C   0  0  0  0  0  3  0  0  0  0  0  0
  192.2300  176.3250  148.0660 C   0  0  0  0  0  2  0  0  0  0  0  0
  189.7330  177.8520  142.2340 C   0  0  0  0  0  2  0  0  0  0  0  0
  189.4900  177.4160  140.7970 C   0  0  0  0  0  2  0  0  0  0  0  0
  188.3960  178.1800  140.2230 N   0  0  0  0  0  2  0  0  0  0  0  0
  188.2760  177.7590  138.8380 C   0  0  0  0  0  2  0  0  0  0  0  0
  189.1020  178.6690  137.9470 C   0  0  0  0  0  2  0  0  0  0  0  0
  187.1830  178.4830  136.6400 C   0  0  0  0  0  1  0  0  0  0  0  0
  188.2320  179.4020  137.0450 N   0  0  0  0  0  2  0  0  0  0  0  0
  1 22  1  6  0  0  0
  1  7  1  0  0  0  0
  1  9  1  0  0  0  0
  2  3  1  0  0  0  0
  3 10  2  0  0  0  0
  3  6  1  0  0  0  0
  4  7  1  0  0  0  0
  4  2  2  0  0  0  0
  5 18  1  0  0  0  0
  7  8  2  0  0  0  0
  8  5  1  0  0  0  0
  8 10  1  0  0  0  0
  9  5  1  0  0  0  0
 11 16  1  0  0  0  0
 12 13  1  0  0  0  0
 13 11  2  0  0  0  0
 14  2  1  0  0  0  0
 14 16  2  0  0  0  0
 15 17  2  0  0  0  0
 15 13  1  0  0  0  0
 17 14  1  0  0  0  0
 19 21  1  0  0  0  0
 20 18  1  0  0  0  0
 20 19  1  0  0  0  0
 20 21  1  0  0  0  0
 23 22  1  0  0  0  0
 24 23  1  0  0  0  0
 25 24  1  0  0  0  0
 26 25  1  0  0  0  0
 27 28  1  0  0  0  0
 28 26  1  0  0  0  0
M  END
>  <MODEL>
1

>  <REMARK>
 VINA RESULT:      -8.6      0.000      0.000
  Name = 
  9 active torsions:
  status: ('A' for Active; 'I' for Inactive)
    1  A    between atoms: C_1  and  C_16
    2  A    between atoms: C_2  and  C_15
    3  A    between atoms: C_6  and  C_10
    4  A    between atoms: C_6  and  N_12
    5  A    between atoms: C_11  and  C_16
    6  A    between atoms: C_11  and  N_27
    7  A    between atoms: C_17  and  C_18
    8  A    between atoms: C_17  and  N_27
    9  A    between atoms: C_18  and  N_22
                            x       y       z     vdW  Elec       q    Type
                         _______ _______ _______ _____ _____    ______ ____

>  <TORSDO>
F 9

$$$$
=
 OpenBabel10222417273D

 28 31  0  0  1  0  0  0  0  0999 V2000
  189.1770  176.7830  143.1610 C   0  0  2  0  0  3  0  0  0  0  0  0
  185.6930  178.0550  144.2400 C   0  0  0  0  0  0  0  0  0  0  0  0
  186.0050  178.1760  145.6300 C   0  0  0  0  0  0  0  0  0  0  0  0
  186.6990  177.6070  143.3540 C   0  0  0  0  0  3  0  0  0  0  0  0
  189.5550  176.9890  145.4170 N   0  0  0  0  0  0  0  0  0  0  0  0
  185.0540  178.6680  146.5700 N   0  0  0  0  0  1  0  0  0  0  0  0
  187.9590  177.2970  143.8600 C   0  0  0  0  0  0  0  0  0  0  0  0
  188.2310  177.3990  145.1790 C   0  0  0  0  0  0  0  0  0  0  0  0
  190.1910  176.5910  144.2210 N   0  0  0  0  0  2  0  0  0  0  0  0
  187.2860  177.8400  146.1010 C   0  0  0  0  0  3  0  0  0  0  0  0
  182.8500  178.6750  141.7800 C   0  0  0  0  0  3  0  0  0  0  0  0
  180.5990  179.3600  142.1480 F   0  0  0  0  0  0  0  0  0  0  0  0
  181.8180  179.0430  142.6450 C   0  0  0  0  0  0  0  0  0  0  0  0
  184.3510  178.3780  143.6770 C   0  0  0  0  0  0  0  0  0  0  0  0
  182.0440  179.0880  144.0220 C   0  0  0  0  0  3  0  0  0  0  0  0
  184.1090  178.3480  142.2940 C   0  0  0  0  0  3  0  0  0  0  0  0
  183.3030  178.7600  144.5330 C   0  0  0  0  0  3  0  0  0  0  0  0
  190.1880  176.9750  146.7340 C   0  0  0  0  0  2  0  0  0  0  0  0
  191.9720  175.2880  147.0080 C   0  0  0  0  0  2  0  0  0  0  0  0
  191.6840  176.7270  146.6350 C   0  0  0  0  0  3  0  0  0  0  0  0
  192.2250  176.3940  148.0110 C   0  0  0  0  0  2  0  0  0  0  0  0
  189.6970  177.7960  142.1470 C   0  0  0  0  0  2  0  0  0  0  0  0
  189.4620  177.3220  140.7210 C   0  0  0  0  0  2  0  0  0  0  0  0
  190.4880  176.3690  140.3360 N   0  0  0  0  0  2  0  0  0  0  0  0
  190.9230  176.7380  139.0010 C   0  0  0  0  0  2  0  0  0  0  0  0
  190.9350  175.5150  138.1030 C   0  0  0  0  0  2  0  0  0  0  0  0
  193.0480  176.4820  137.9430 C   0  0  0  0  0  1  0  0  0  0  0  0
  192.2500  175.3500  137.5090 N   0  0  0  0  0  2  0  0  0  0  0  0
  1 22  1  6  0  0  0
  1  7  1  0  0  0  0
  1  9  1  0  0  0  0
  2  3  1  0  0  0  0
  3 10  2  0  0  0  0
  3  6  1  0  0  0  0
  4  7  1  0  0  0  0
  4  2  2  0  0  0  0
  5 18  1  0  0  0  0
  7  8  2  0  0  0  0
  8  5  1  0  0  0  0
  8 10  1  0  0  0  0
  9  5  1  0  0  0  0
 11 16  2  0  0  0  0
 11 13  1  0  0  0  0
 12 13  1  0  0  0  0
 13 15  2  0  0  0  0
 14  2  1  0  0  0  0
 14 17  2  0  0  0  0
 15 17  1  0  0  0  0
 16 14  1  0  0  0  0
 19 21  1  0  0  0  0
 20 18  1  0  0  0  0
 20 19  1  0  0  0  0
 20 21  1  0  0  0  0
 23 22  1  0  0  0  0
 24 23  1  0  0  0  0
 25 24  1  0  0  0  0
 26 25  1  0  0  0  0
 28 27  1  0  0  0  0
 28 26  1  0  0  0  0
M  END
>  <MODEL>
2

>  <REMARK>
 VINA RESULT:      -8.2      1.656      2.117
  Name = 
  9 active torsions:
  status: ('A' for Active; 'I' for Inactive)
    1  A    between atoms: C_1  and  C_16
    2  A    between atoms: C_2  and  C_15
    3  A    between atoms: C_6  and  C_10
    4  A    between atoms: C_6  and  N_12
    5  A    between atoms: C_11  and  C_16
    6  A    between atoms: C_11  and  N_27
    7  A    between atoms: C_17  and  C_18
    8  A    between atoms: C_17  and  N_27
    9  A    between atoms: C_18  and  N_22
                            x       y       z     vdW  Elec       q    Type
                         _______ _______ _______ _____ _____    ______ ____

>  <TORSDO>
F 9

$$$$
=
 OpenBabel10222417273D

 28 31  0  0  1  0  0  0  0  0999 V2000
  187.9030  176.7460  144.0890 C   0  0  2  0  0  3  0  0  0  0  0  0
  189.5380  177.3670  140.6450 C   0  0  0  0  0  0  0  0  0  0  0  0
  188.5250  178.2520  140.1590 C   0  0  0  0  0  0  0  0  0  0  0  0
  189.4060  176.8330  141.9470 C   0  0  0  0  0  3  0  0  0  0  0  0
  186.3240  178.1530  143.1940 N   0  0  0  0  0  0  0  0  0  0  0  0
  188.6190  178.8650  138.8770 N   0  0  0  0  0  1  0  0  0  0  0  0
  188.2970  177.1820  142.7140 C   0  0  0  0  0  0  0  0  0  0  0  0
  187.3400  178.0040  142.2330 C   0  0  0  0  0  0  0  0  0  0  0  0
  186.6030  177.4020  144.3550 N   0  0  0  0  0  2  0  0  0  0  0  0
  187.4150  178.5680  140.9620 C   0  0  0  0  0  3  0  0  0  0  0  0
  193.1240  177.0810  139.3910 C   0  0  0  0  0  3  0  0  0  0  0  0
  194.0270  175.9180  137.5180 F   0  0  0  0  0  0  0  0  0  0  0  0
  192.9550  176.2640  138.2710 C   0  0  0  0  0  0  0  0  0  0  0  0
  190.7310  176.9790  139.8410 C   0  0  0  0  0  0  0  0  0  0  0  0
  191.6810  175.8070  137.9260 C   0  0  0  0  0  3  0  0  0  0  0  0
  192.0180  177.4370  140.1680 C   0  0  0  0  0  3  0  0  0  0  0  0
  190.5780  176.1650  138.7050 C   0  0  0  0  0  3  0  0  0  0  0  0
  185.1330  178.9800  143.0110 C   0  0  0  0  0  2  0  0  0  0  0  0
  182.7410  179.3010  143.5360 C   0  0  0  0  0  2  0  0  0  0  0  0
  183.9000  178.3310  143.6170 C   0  0  0  0  0  3  0  0  0  0  0  0
  183.4790  179.1130  144.8440 C   0  0  0  0  0  2  0  0  0  0  0  0
  188.9210  177.2090  145.1260 C   0  0  0  0  0  2  0  0  0  0  0  0
  188.2370  177.6920  146.3950 C   0  0  0  0  0  2  0  0  0  0  0  0
  188.8360  177.0580  147.5570 N   0  0  0  0  0  2  0  0  0  0  0  0
  190.1320  176.5560  147.1370 C   0  0  0  0  0  2  0  0  0  0  0  0
  191.2280  177.1890  147.9740 C   0  0  0  0  0  2  0  0  0  0  0  0
  192.2900  175.4960  146.7780 C   0  0  0  0  0  1  0  0  0  0  0  0
  192.4210  176.3610  147.9360 N   0  0  0  0  0  2  0  0  0  0  0  0
  1  9  1  0  0  0  0
  1 22  1  1  0  0  0
  2  4  1  0  0  0  0
  3  2  2  0  0  0  0
  3 10  1  0  0  0  0
  4  7  2  0  0  0  0
  5  9  1  0  0  0  0
  6  3  1  0  0  0  0
  7  1  1  0  0  0  0
  8  7  1  0  0  0  0
  8  5  1  0  0  0  0
 10  8  2  0  0  0  0
 11 16  1  0  0  0  0
 12 13  1  0  0  0  0
 13 11  2  0  0  0  0
 14 16  2  0  0  0  0
 14  2  1  0  0  0  0
 15 13  1  0  0  0  0
 15 17  2  0  0  0  0
 17 14  1  0  0  0  0
 18  5  1  0  0  0  0
 18 20  1  0  0  0  0
 19 20  1  0  0  0  0
 19 21  1  0  0  0  0
 20 21  1  0  0  0  0
 22 23  1  0  0  0  0
 23 24  1  0  0  0  0
 25 24  1  0  0  0  0
 25 26  1  0  0  0  0
 27 28  1  0  0  0  0
 28 26  1  0  0  0  0
M  END
>  <MODEL>
3

>  <REMARK>
 VINA RESULT:      -8.1      3.489      8.308
  Name = 
  9 active torsions:
  status: ('A' for Active; 'I' for Inactive)
    1  A    between atoms: C_1  and  C_16
    2  A    between atoms: C_2  and  C_15
    3  A    between atoms: C_6  and  C_10
    4  A    between atoms: C_6  and  N_12
    5  A    between atoms: C_11  and  C_16
    6  A    between atoms: C_11  and  N_27
    7  A    between atoms: C_17  and  C_18
    8  A    between atoms: C_17  and  N_27
    9  A    between atoms: C_18  and  N_22
                            x       y       z     vdW  Elec       q    Type
                         _______ _______ _______ _____ _____    ______ ____

>  <TORSDO>
F 9

$$$$
=
 OpenBabel10222417273D

 28 31  0  0  1  0  0  0  0  0999 V2000
  185.8580  177.8680  146.1490 C   0  0  2  0  0  3  0  0  0  0  0  0
  187.4020  178.1070  142.6160 C   0  0  0  0  0  0  0  0  0  0  0  0
  186.2520  178.6830  141.9920 C   0  0  0  0  0  0  0  0  0  0  0  0
  187.3510  177.8170  143.9990 C   0  0  0  0  0  3  0  0  0  0  0  0
  184.0620  178.7670  145.0340 N   0  0  0  0  0  0  0  0  0  0  0  0
  186.2510  179.0460  140.6150 N   0  0  0  0  0  1  0  0  0  0  0  0
  186.1860  178.0990  144.7080 C   0  0  0  0  0  0  0  0  0  0  0  0
  185.1020  178.6240  144.0990 C   0  0  0  0  0  0  0  0  0  0  0  0
  184.4570  178.3160  146.3120 N   0  0  0  0  0  2  0  0  0  0  0  0
  185.0910  178.9380  142.7420 C   0  0  0  0  0  3  0  0  0  0  0  0
  189.8250  177.1220  139.8460 C   0  0  0  0  0  3  0  0  0  0  0  0
  192.1930  176.8660  139.8710 F   0  0  0  0  0  0  0  0  0  0  0  0
  191.0440  177.1660  140.5230 C   0  0  0  0  0  0  0  0  0  0  0  0
  188.6580  177.7960  141.8770 C   0  0  0  0  0  0  0  0  0  0  0  0
  191.0800  177.5170  141.8750 C   0  0  0  0  0  3  0  0  0  0  0  0
  188.6400  177.4320  140.5200 C   0  0  0  0  0  3  0  0  0  0  0  0
  189.8940  177.8260  142.5460 C   0  0  0  0  0  3  0  0  0  0  0  0
  182.7420  179.3120  144.7220 C   0  0  0  0  0  2  0  0  0  0  0  0
  181.2140  179.1290  142.7900 C   0  0  0  0  0  2  0  0  0  0  0  0
  181.9230  178.3500  143.8780 C   0  0  0  0  0  3  0  0  0  0  0  0
  180.4530  178.6890  144.0230 C   0  0  0  0  0  2  0  0  0  0  0  0
  186.7580  178.6990  147.0570 C   0  0  0  0  0  2  0  0  0  0  0  0
  187.6570  177.8130  147.9060 C   0  0  0  0  0  2  0  0  0  0  0  0
  189.0520  178.1150  147.6380 N   0  0  0  0  0  2  0  0  0  0  0  0
  189.6880  176.8620  147.2720 C   0  0  0  0  0  2  0  0  0  0  0  0
  190.5150  177.0500  146.0130 C   0  0  0  0  0  2  0  0  0  0  0  0
  191.9290  175.9830  147.5260 C   0  0  0  0  0  1  0  0  0  0  0  0
  191.9060  176.7320  146.2820 N   0  0  0  0  0  2  0  0  0  0  0  0
  1  9  1  0  0  0  0
  1 22  1  1  0  0  0
  2  4  1  0  0  0  0
  3  2  2  0  0  0  0
  3 10  1  0  0  0  0
  4  7  2  0  0  0  0
  5  9  1  0  0  0  0
  6  3  1  0  0  0  0
  7  1  1  0  0  0  0
  8  7  1  0  0  0  0
  8  5  1  0  0  0  0
 10  8  2  0  0  0  0
 11 16  2  0  0  0  0
 11 13  1  0  0  0  0
 12 13  1  0  0  0  0
 13 15  2  0  0  0  0
 14 17  2  0  0  0  0
 14  2  1  0  0  0  0
 15 17  1  0  0  0  0
 16 14  1  0  0  0  0
 18  5  1  0  0  0  0
 19 20  1  0  0  0  0
 19 21  1  0  0  0  0
 20 21  1  0  0  0  0
 20 18  1  0  0  0  0
 22 23  1  0  0  0  0
 24 23  1  0  0  0  0
 25 24  1  0  0  0  0
 26 28  1  0  0  0  0
 26 25  1  0  0  0  0
 28 27  1  0  0  0  0
M  END
>  <MODEL>
4

>  <REMARK>
 VINA RESULT:      -8.1      2.855      7.784
  Name = 
  9 active torsions:
  status: ('A' for Active; 'I' for Inactive)
    1  A    between atoms: C_1  and  C_16
    2  A    between atoms: C_2  and  C_15
    3  A    between atoms: C_6  and  C_10
    4  A    between atoms: C_6  and  N_12
    5  A    between atoms: C_11  and  C_16
    6  A    between atoms: C_11  and  N_27
    7  A    between atoms: C_17  and  C_18
    8  A    between atoms: C_17  and  N_27
    9  A    between atoms: C_18  and  N_22
                            x       y       z     vdW  Elec       q    Type
                         _______ _______ _______ _____ _____    ______ ____

>  <TORSDO>
F 9

$$$$
=
 OpenBabel10222417273D

 28 31  0  0  1  0  0  0  0  0999 V2000
  187.7570  178.6350  140.8790 C   0  0  2  0  0  3  0  0  0  0  0  0
  188.2980  177.5760  144.5540 C   0  0  0  0  0  0  0  0  0  0  0  0
  186.9130  177.5660  144.9090 C   0  0  0  0  0  0  0  0  0  0  0  0
  188.6570  177.9120  143.2290 C   0  0  0  0  0  3  0  0  0  0  0  0
  185.5670  178.6140  141.5690 N   0  0  0  0  0  0  0  0  0  0  0  0
  186.4770  177.1880  146.2110 N   0  0  0  0  0  1  0  0  0  0  0  0
  187.6550  178.2230  142.3130 C   0  0  0  0  0  0  0  0  0  0  0  0
  186.3530  178.2280  142.6700 C   0  0  0  0  0  0  0  0  0  0  0  0
  186.3670  178.8850  140.4380 N   0  0  0  0  0  2  0  0  0  0  0  0
  185.9340  177.9000  143.9560 C   0  0  0  0  0  3  0  0  0  0  0  0
  190.2770  177.1830  147.7850 C   0  0  0  0  0  3  0  0  0  0  0  0
  192.4880  176.3810  148.1650 F   0  0  0  0  0  0  0  0  0  0  0  0
  191.4810  176.6650  147.3050 C   0  0  0  0  0  0  0  0  0  0  0  0
  189.3860  177.2490  145.5180 C   0  0  0  0  0  0  0  0  0  0  0  0
  191.6490  176.4430  145.9360 C   0  0  0  0  0  3  0  0  0  0  0  0
  189.2380  177.4750  146.8960 C   0  0  0  0  0  3  0  0  0  0  0  0
  190.6090  176.7360  145.0490 C   0  0  0  0  0  3  0  0  0  0  0  0
  184.1100  178.7210  141.5960 C   0  0  0  0  0  2  0  0  0  0  0  0
  182.8240  178.6940  139.4870 C   0  0  0  0  0  2  0  0  0  0  0  0
  183.4620  177.8280  140.5520 C   0  0  0  0  0  3  0  0  0  0  0  0
  181.9640  178.0590  140.5600 C   0  0  0  0  0  2  0  0  0  0  0  0
  188.3600  177.5220  140.0290 C   0  0  0  0  0  2  0  0  0  0  0  0
  189.5280  178.0300  139.1980 C   0  0  0  0  0  2  0  0  0  0  0  0
  189.0580  178.9730  138.1990 N   0  0  0  0  0  2  0  0  0  0  0  0
  189.0310  178.2610  136.9330 C   0  0  0  0  0  2  0  0  0  0  0  0
  187.7270  178.5410  136.2100 C   0  0  0  0  0  2  0  0  0  0  0  0
  185.9030  177.4440  137.1560 C   0  0  0  0  0  1  0  0  0  0  0  0
  186.6490  178.6890  137.1710 N   0  0  0  0  0  2  0  0  0  0  0  0
  1 22  1  6  0  0  0
  1  7  1  0  0  0  0
  2  3  1  0  0  0  0
  2 14  1  0  0  0  0
  3  6  1  0  0  0  0
  4  2  2  0  0  0  0
  5 18  1  0  0  0  0
  5  8  1  0  0  0  0
  7  8  2  0  0  0  0
  7  4  1  0  0  0  0
  8 10  1  0  0  0  0
  9  1  1  0  0  0  0
  9  5  1  0  0  0  0
 10  3  2  0  0  0  0
 13 11  1  0  0  0  0
 13 12  1  0  0  0  0
 14 16  1  0  0  0  0
 15 13  2  0  0  0  0
 16 11  2  0  0  0  0
 17 14  2  0  0  0  0
 17 15  1  0  0  0  0
 19 20  1  0  0  0  0
 19 21  1  0  0  0  0
 20 21  1  0  0  0  0
 20 18  1  0  0  0  0
 23 22  1  0  0  0  0
 24 23  1  0  0  0  0
 25 24  1  0  0  0  0
 26 25  1  0  0  0  0
 26 28  1  0  0  0  0
 27 28  1  0  0  0  0
M  END
>  <MODEL>
5

>  <REMARK>
 VINA RESULT:      -8.0      3.121      6.687
  Name = 
  9 active torsions:
  status: ('A' for Active; 'I' for Inactive)
    1  A    between atoms: C_1  and  C_16
    2  A    between atoms: C_2  and  C_15
    3  A    between atoms: C_6  and  C_10
    4  A    between atoms: C_6  and  N_12
    5  A    between atoms: C_11  and  C_16
    6  A    between atoms: C_11  and  N_27
    7  A    between atoms: C_17  and  C_18
    8  A    between atoms: C_17  and  N_27
    9  A    between atoms: C_18  and  N_22
                            x       y       z     vdW  Elec       q    Type
                         _______ _______ _______ _____ _____    ______ ____

>  <TORSDO>
F 9

$$$$
=
 OpenBabel10222417273D

 28 31  0  0  1  0  0  0  0  0999 V2000
  188.1880  178.5040  140.5830 C   0  0  2  0  0  3  0  0  0  0  0  0
  188.4510  177.5700  144.3220 C   0  0  0  0  0  0  0  0  0  0  0  0
  187.0490  177.6490  144.5920 C   0  0  0  0  0  0  0  0  0  0  0  0
  188.9060  177.8310  143.0090 C   0  0  0  0  0  3  0  0  0  0  0  0
  185.9630  178.6300  141.1390 N   0  0  0  0  0  0  0  0  0  0  0  0
  186.5170  177.3500  145.8780 N   0  0  0  0  0  1  0  0  0  0  0  0
  187.9790  178.1580  142.0230 C   0  0  0  0  0  0  0  0  0  0  0  0
  186.6600  178.2470  142.2990 C   0  0  0  0  0  0  0  0  0  0  0  0
  186.8420  178.8100  140.0490 N   0  0  0  0  0  2  0  0  0  0  0  0
  186.1490  177.9960  143.5690 C   0  0  0  0  0  3  0  0  0  0  0  0
  190.1760  177.1290  147.6900 C   0  0  0  0  0  3  0  0  0  0  0  0
  192.3460  176.3060  148.2280 F   0  0  0  0  0  0  0  0  0  0  0  0
  191.4100  176.6070  147.2970 C   0  0  0  0  0  0  0  0  0  0  0  0
  189.4610  177.2250  145.3620 C   0  0  0  0  0  0  0  0  0  0  0  0
  191.6790  176.3970  145.9420 C   0  0  0  0  0  3  0  0  0  0  0  0
  189.2100  177.4380  146.7280 C   0  0  0  0  0  3  0  0  0  0  0  0
  190.7120  176.7070  144.9830 C   0  0  0  0  0  3  0  0  0  0  0  0
  184.5160  178.8160  141.0730 C   0  0  0  0  0  2  0  0  0  0  0  0
  183.3760  179.7570  139.0940 C   0  0  0  0  0  2  0  0  0  0  0  0
  183.9710  178.4990  139.6900 C   0  0  0  0  0  3  0  0  0  0  0  0
  182.4690  178.7000  139.6890 C   0  0  0  0  0  2  0  0  0  0  0  0
  188.7760  177.3250  139.8140 C   0  0  0  0  0  2  0  0  0  0  0  0
  190.2740  177.4890  139.6100 C   0  0  0  0  0  2  0  0  0  0  0  0
  190.8880  176.1970  139.3600 N   0  0  0  0  0  2  0  0  0  0  0  0
  191.6300  176.3210  138.1170 C   0  0  0  0  0  2  0  0  0  0  0  0
  193.0560  176.7520  138.4070 C   0  0  0  0  0  2  0  0  0  0  0  0
  193.1210  175.5400  136.4190 C   0  0  0  0  0  1  0  0  0  0  0  0
  193.9280  176.3440  137.3190 N   0  0  0  0  0  2  0  0  0  0  0  0
  1 22  1  6  0  0  0
  1  7  1  0  0  0  0
  2  3  1  0  0  0  0
  2 14  1  0  0  0  0
  3  6  1  0  0  0  0
  4  2  2  0  0  0  0
  5  8  1  0  0  0  0
  7  8  2  0  0  0  0
  7  4  1  0  0  0  0
  8 10  1  0  0  0  0
  9  1  1  0  0  0  0
  9  5  1  0  0  0  0
 10  3  2  0  0  0  0
 13 11  1  0  0  0  0
 13 12  1  0  0  0  0
 14 16  1  0  0  0  0
 15 13  2  0  0  0  0
 16 11  2  0  0  0  0
 17 14  2  0  0  0  0
 17 15  1  0  0  0  0
 18  5  1  0  0  0  0
 19 21  1  0  0  0  0
 19 20  1  0  0  0  0
 20 18  1  0  0  0  0
 21 20  1  0  0  0  0
 23 22  1  0  0  0  0
 24 23  1  0  0  0  0
 25 26  1  0  0  0  0
 25 24  1  0  0  0  0
 27 28  1  0  0  0  0
 28 26  1  0  0  0  0
M  END
>  <MODEL>
6

>  <REMARK>
 VINA RESULT:      -7.9      3.552      7.019
  Name = 
  9 active torsions:
  status: ('A' for Active; 'I' for Inactive)
    1  A    between atoms: C_1  and  C_16
    2  A    between atoms: C_2  and  C_15
    3  A    between atoms: C_6  and  C_10
    4  A    between atoms: C_6  and  N_12
    5  A    between atoms: C_11  and  C_16
    6  A    between atoms: C_11  and  N_27
    7  A    between atoms: C_17  and  C_18
    8  A    between atoms: C_17  and  N_27
    9  A    between atoms: C_18  and  N_22
                            x       y       z     vdW  Elec       q    Type
                         _______ _______ _______ _____ _____    ______ ____

>  <TORSDO>
F 9

$$$$
=
 OpenBabel10222417273D

 28 31  0  0  1  0  0  0  0  0999 V2000
  187.9350  178.4280  139.9900 C   0  0  2  0  0  3  0  0  0  0  0  0
  186.4480  178.2570  143.5510 C   0  0  0  0  0  0  0  0  0  0  0  0
  185.0820  178.3770  143.1450 C   0  0  0  0  0  0  0  0  0  0  0  0
  187.4540  178.2560  142.5580 C   0  0  0  0  0  3  0  0  0  0  0  0
  185.7110  178.6430  139.4580 N   0  0  0  0  0  0  0  0  0  0  0  0
  184.0160  178.3350  144.0880 N   0  0  0  0  0  1  0  0  0  0  0  0
  187.0860  178.3730  141.2200 C   0  0  0  0  0  0  0  0  0  0  0  0
  185.7930  178.5050  140.8560 C   0  0  0  0  0  0  0  0  0  0  0  0
  186.9920  178.6110  138.8650 N   0  0  0  0  0  2  0  0  0  0  0  0
  184.7550  178.5060  141.7840 C   0  0  0  0  0  3  0  0  0  0  0  0
  188.4130  177.3430  146.6840 C   0  0  0  0  0  3  0  0  0  0  0  0
  187.9500  177.7550  148.9840 F   0  0  0  0  0  0  0  0  0  0  0  0
  187.5960  177.8760  147.6830 C   0  0  0  0  0  0  0  0  0  0  0  0
  186.8650  178.1340  144.9760 C   0  0  0  0  0  0  0  0  0  0  0  0
  186.4110  178.5320  147.3390 C   0  0  0  0  0  3  0  0  0  0  0  0
  188.0480  177.4690  145.3410 C   0  0  0  0  0  3  0  0  0  0  0  0
  186.0480  178.6560  145.9950 C   0  0  0  0  0  3  0  0  0  0  0  0
  184.4620  178.8010  138.7180 C   0  0  0  0  0  2  0  0  0  0  0  0
  184.2430  177.1620  136.8840 C   0  0  0  0  0  2  0  0  0  0  0  0
  183.8710  177.4580  138.3200 C   0  0  0  0  0  3  0  0  0  0  0  0
  182.8560  177.6700  137.2150 C   0  0  0  0  0  2  0  0  0  0  0  0
  188.7030  177.1250  139.7940 C   0  0  0  0  0  2  0  0  0  0  0  0
  190.1760  177.2940  140.1330 C   0  0  0  0  0  2  0  0  0  0  0  0
  190.5530  176.3780  141.1950 N   0  0  0  0  0  2  0  0  0  0  0  0
  191.1690  177.1790  142.2380 C   0  0  0  0  0  2  0  0  0  0  0  0
  191.1060  176.4420  143.5630 C   0  0  0  0  0  2  0  0  0  0  0  0
  191.4780  178.6450  144.2210 C   0  0  0  0  0  1  0  0  0  0  0  0
  191.6800  177.2630  144.6140 N   0  0  0  0  0  2  0  0  0  0  0  0
  1 22  1  6  0  0  0
  1  7  1  0  0  0  0
  2 14  1  0  0  0  0
  3  2  1  0  0  0  0
  3  6  1  0  0  0  0
  4  2  2  0  0  0  0
  5  8  1  0  0  0  0
  7  4  1  0  0  0  0
  8  7  2  0  0  0  0
  8 10  1  0  0  0  0
  9  5  1  0  0  0  0
  9  1  1  0  0  0  0
 10  3  2  0  0  0  0
 11 13  1  0  0  0  0
 13 12  1  0  0  0  0
 14 16  1  0  0  0  0
 14 17  2  0  0  0  0
 15 13  2  0  0  0  0
 16 11  2  0  0  0  0
 17 15  1  0  0  0  0
 18  5  1  0  0  0  0
 19 21  1  0  0  0  0
 19 20  1  0  0  0  0
 20 18  1  0  0  0  0
 21 20  1  0  0  0  0
 22 23  1  0  0  0  0
 23 24  1  0  0  0  0
 24 25  1  0  0  0  0
 25 26  1  0  0  0  0
 26 28  1  0  0  0  0
 27 28  1  0  0  0  0
M  END
>  <MODEL>
7

>  <REMARK>
 VINA RESULT:      -7.7      2.886      6.900
  Name = 
  9 active torsions:
  status: ('A' for Active; 'I' for Inactive)
    1  A    between atoms: C_1  and  C_16
    2  A    between atoms: C_2  and  C_15
    3  A    between atoms: C_6  and  C_10
    4  A    between atoms: C_6  and  N_12
    5  A    between atoms: C_11  and  C_16
    6  A    between atoms: C_11  and  N_27
    7  A    between atoms: C_17  and  C_18
    8  A    between atoms: C_17  and  N_27
    9  A    between atoms: C_18  and  N_22
                            x       y       z     vdW  Elec       q    Type
                         _______ _______ _______ _____ _____    ______ ____

>  <TORSDO>
F 9

$$$$
=
 OpenBabel10222417273D

 28 31  0  0  1  0  0  0  0  0999 V2000
  184.0510  178.3890  143.1860 C   0  0  2  0  0  3  0  0  0  0  0  0
  187.8410  177.8320  142.6920 C   0  0  0  0  0  0  0  0  0  0  0  0
  187.8680  178.2210  141.3160 C   0  0  0  0  0  0  0  0  0  0  0  0
  186.6090  177.8720  143.3850 C   0  0  0  0  0  3  0  0  0  0  0  0
  184.2090  178.9630  140.9680 N   0  0  0  0  0  0  0  0  0  0  0  0
  189.0820  178.2530  140.5720 N   0  0  0  0  0  1  0  0  0  0  0  0
  185.4640  178.2840  142.7090 C   0  0  0  0  0  0  0  0  0  0  0  0
  185.5040  178.6290  141.4040 C   0  0  0  0  0  0  0  0  0  0  0  0
  183.2670  178.8310  142.0110 N   0  0  0  0  0  2  0  0  0  0  0  0
  186.6850  178.6190  140.6680 C   0  0  0  0  0  3  0  0  0  0  0  0
  191.0560  176.0090  143.6130 C   0  0  0  0  0  3  0  0  0  0  0  0
  192.3940  176.1150  145.5810 F   0  0  0  0  0  0  0  0  0  0  0  0
  191.3080  176.5260  144.8850 C   0  0  0  0  0  0  0  0  0  0  0  0
  189.0530  177.3850  143.4340 C   0  0  0  0  0  0  0  0  0  0  0  0
  190.4360  177.4660  145.4410 C   0  0  0  0  0  3  0  0  0  0  0  0
  189.9350  176.4340  142.8950 C   0  0  0  0  0  3  0  0  0  0  0  0
  189.3160  177.8890  144.7200 C   0  0  0  0  0  3  0  0  0  0  0  0
  183.8820  179.3910  139.6100 C   0  0  0  0  0  2  0  0  0  0  0  0
  182.2340  179.0040  137.8110 C   0  0  0  0  0  2  0  0  0  0  0  0
  182.4060  179.2050  139.3020 C   0  0  0  0  0  3  0  0  0  0  0  0
  181.9320  180.3520  138.4310 C   0  0  0  0  0  2  0  0  0  0  0  0
  183.9210  179.4280  144.2950 C   0  0  0  0  0  2  0  0  0  0  0  0
  184.0520  178.7910  145.6700 C   0  0  0  0  0  2  0  0  0  0  0  0
  185.1750  179.3710  146.3840 N   0  0  0  0  0  2  0  0  0  0  0  0
  185.9230  178.2650  146.9550 C   0  0  0  0  0  2  0  0  0  0  0  0
  187.1340  178.7900  147.7040 C   0  0  0  0  0  2  0  0  0  0  0  0
  189.1400  178.2430  148.7530 C   0  0  0  0  0  1  0  0  0  0  0  0
  187.9000  177.6830  148.2470 N   0  0  0  0  0  2  0  0  0  0  0  0
  1 22  1  1  0  0  0
  2  4  1  0  0  0  0
  2 14  1  0  0  0  0
  3  2  2  0  0  0  0
  5  8  1  0  0  0  0
  5  9  1  0  0  0  0
  6  3  1  0  0  0  0
  7  1  1  0  0  0  0
  7  4  2  0  0  0  0
  8  7  1  0  0  0  0
  9  1  1  0  0  0  0
 10  3  1  0  0  0  0
 10  8  2  0  0  0  0
 11 13  1  0  0  0  0
 13 15  2  0  0  0  0
 13 12  1  0  0  0  0
 14 17  2  0  0  0  0
 16 14  1  0  0  0  0
 16 11  2  0  0  0  0
 17 15  1  0  0  0  0
 18  5  1  0  0  0  0
 19 21  1  0  0  0  0
 19 20  1  0  0  0  0
 20 18  1  0  0  0  0
 21 20  1  0  0  0  0
 22 23  1  0  0  0  0
 23 24  1  0  0  0  0
 24 25  1  0  0  0  0
 25 26  1  0  0  0  0
 26 28  1  0  0  0  0
 28 27  1  0  0  0  0
M  END
>  <MODEL>
8

>  <REMARK>
 VINA RESULT:      -7.7      3.297      8.591
  Name = 
  9 active torsions:
  status: ('A' for Active; 'I' for Inactive)
    1  A    between atoms: C_1  and  C_16
    2  A    between atoms: C_2  and  C_15
    3  A    between atoms: C_6  and  C_10
    4  A    between atoms: C_6  and  N_12
    5  A    between atoms: C_11  and  C_16
    6  A    between atoms: C_11  and  N_27
    7  A    between atoms: C_17  and  C_18
    8  A    between atoms: C_17  and  N_27
    9  A    between atoms: C_18  and  N_22
                            x       y       z     vdW  Elec       q    Type
                         _______ _______ _______ _____ _____    ______ ____

>  <TORSDO>
F 9

$$$$
=
 OpenBabel10222417273D

 28 31  0  0  1  0  0  0  0  0999 V2000
  188.4140  178.2520  140.1780 C   0  0  2  0  0  3  0  0  0  0  0  0
  188.5000  177.5760  143.9800 C   0  0  0  0  0  0  0  0  0  0  0  0
  187.1040  177.7950  144.1990 C   0  0  0  0  0  0  0  0  0  0  0  0
  189.0090  177.7000  142.6670 C   0  0  0  0  0  3  0  0  0  0  0  0
  186.1960  178.6090  140.6530 N   0  0  0  0  0  0  0  0  0  0  0  0
  186.5160  177.6380  145.4870 N   0  0  0  0  0  1  0  0  0  0  0  0
  188.1390  178.0320  141.6310 C   0  0  0  0  0  0  0  0  0  0  0  0
  186.8270  178.2540  141.8590 C   0  0  0  0  0  0  0  0  0  0  0  0
  187.1140  178.6330  139.5820 N   0  0  0  0  0  2  0  0  0  0  0  0
  186.2630  178.1420  143.1270 C   0  0  0  0  0  3  0  0  0  0  0  0
  189.9930  177.0160  147.4400 C   0  0  0  0  0  3  0  0  0  0  0  0
  192.1640  176.2870  148.0960 F   0  0  0  0  0  0  0  0  0  0  0  0
  191.2830  176.5930  147.1140 C   0  0  0  0  0  0  0  0  0  0  0  0
  189.4490  177.2220  145.0730 C   0  0  0  0  0  0  0  0  0  0  0  0
  191.6660  176.4890  145.7740 C   0  0  0  0  0  3  0  0  0  0  0  0
  189.0840  177.3310  146.4250 C   0  0  0  0  0  3  0  0  0  0  0  0
  190.7550  176.8040  144.7620 C   0  0  0  0  0  3  0  0  0  0  0  0
  184.7720  178.9140  140.5280 C   0  0  0  0  0  2  0  0  0  0  0  0
  182.9580  179.7680  139.0860 C   0  0  0  0  0  2  0  0  0  0  0  0
  184.4120  179.3480  139.1180 C   0  0  0  0  0  3  0  0  0  0  0  0
  183.3630  178.4070  138.5610 C   0  0  0  0  0  2  0  0  0  0  0  0
  188.9150  176.9740  139.5140 C   0  0  0  0  0  2  0  0  0  0  0  0
  190.3910  177.0750  139.1610 C   0  0  0  0  0  2  0  0  0  0  0  0
  190.9190  175.7610  138.8400 N   0  0  0  0  0  2  0  0  0  0  0  0
  190.3020  175.3560  137.5900 C   0  0  0  0  0  2  0  0  0  0  0  0
  190.7670  176.2630  136.4660 C   0  0  0  0  0  2  0  0  0  0  0  0
  188.9880  177.5850  135.7500 C   0  0  0  0  0  1  0  0  0  0  0  0
  189.7290  176.3720  135.4550 N   0  0  0  0  0  2  0  0  0  0  0  0
  1 22  1  6  0  0  0
  1  7  1  0  0  0  0
  2  3  1  0  0  0  0
  2 14  1  0  0  0  0
  3  6  1  0  0  0  0
  4  2  2  0  0  0  0
  5  8  1  0  0  0  0
  7  8  2  0  0  0  0
  7  4  1  0  0  0  0
  8 10  1  0  0  0  0
  9  1  1  0  0  0  0
  9  5  1  0  0  0  0
 10  3  2  0  0  0  0
 13 11  1  0  0  0  0
 13 12  1  0  0  0  0
 14 16  1  0  0  0  0
 15 13  2  0  0  0  0
 16 11  2  0  0  0  0
 17 14  2  0  0  0  0
 17 15  1  0  0  0  0
 18  5  1  0  0  0  0
 19 20  1  0  0  0  0
 20 18  1  0  0  0  0
 21 19  1  0  0  0  0
 21 20  1  0  0  0  0
 23 22  1  0  0  0  0
 24 23  1  0  0  0  0
 25 24  1  0  0  0  0
 26 25  1  0  0  0  0
 28 27  1  0  0  0  0
 28 26  1  0  0  0  0
M  END
>  <MODEL>
9

>  <REMARK>
 VINA RESULT:      -7.7      3.312      6.869
  Name = 
  9 active torsions:
  status: ('A' for Active; 'I' for Inactive)
    1  A    between atoms: C_1  and  C_16
    2  A    between atoms: C_2  and  C_15
    3  A    between atoms: C_6  and  C_10
    4  A    between atoms: C_6  and  N_12
    5  A    between atoms: C_11  and  C_16
    6  A    between atoms: C_11  and  N_27
    7  A    between atoms: C_17  and  C_18
    8  A    between atoms: C_17  and  N_27
    9  A    between atoms: C_18  and  N_22
                            x       y       z     vdW  Elec       q    Type
                         _______ _______ _______ _____ _____    ______ ____

>  <TORSDO>
F 9

$$$$
