=
 OpenBabel10222418493D

 68 72  0  0  1  0  0  0  0  0999 V2000
  182.6050  176.7620  136.7740 C   0  0  2  0  0  3  0  0  0  0  0  0
  181.4740  174.6060  136.0850 C   0  0  0  0  0  3  0  0  0  0  0  0
  180.6640  173.5020  136.3770 C   0  0  0  0  0  3  0  0  0  0  0  0
  181.2240  175.3950  138.3620 C   0  0  0  0  0  3  0  0  0  0  0  0
  180.4070  174.2950  138.6500 C   0  0  0  0  0  3  0  0  0  0  0  0
  180.1220  173.3520  137.6570 C   0  0  0  0  0  3  0  0  0  0  0  0
  181.7480  175.5640  137.0770 C   0  0  0  0  0  0  0  0  0  0  0  0
  182.1690  178.1270  137.2660 C   0  0  0  0  0  0  0  0  0  0  0  0
  181.1330  180.5940  137.9830 C   0  0  0  0  0  3  0  0  0  0  0  0
  181.2190  178.7560  136.5260 N   0  0  0  0  0  0  0  0  0  0  0  0
  182.1010  180.0110  138.7930 C   0  0  0  0  0  3  0  0  0  0  0  0
  182.6210  178.7590  138.4600 C   0  0  0  0  0  0  0  0  0  0  0  0
  180.7090  179.9370  136.8700 N   0  0  0  0  0  0  0  0  0  0  0  0
  183.6460  178.1740  139.3770 C   0  0  0  0  0  2  0  0  0  0  0  0
  183.7410  178.9840  140.5890 N   0  0  0  0  0  2  0  0  0  0  0  0
  184.6050  178.3370  141.4830 N   0  0  0  0  0  0  0  0  0  0  0  0
  185.8960  179.0460  141.4190 C   0  0  0  0  0  2  0  0  0  0  0  0
  186.4940  178.9160  140.1660 O   0  0  0  0  0  1  0  0  0  0  0  0
  183.9860  178.4590  142.8110 C   0  0  0  0  0  2  0  0  0  0  0  0
  184.9780  178.8770  143.9050 C   0  0  2  0  0  3  0  0  0  0  0  0
  185.9430  176.6680  143.8560 O   0  0  0  0  0  0  0  0  0  0  0  0
  186.0760  177.8810  144.1760 C   0  0  0  0  0  0  0  0  0  0  0  0
  187.3050  178.3440  144.7380 N   0  0  0  0  0  2  0  0  0  0  0  0
  188.5060  177.5290  144.8230 C   0  0  1  0  0  3  0  0  0  0  0  0
  189.1980  177.1770  141.8160 C   0  0  0  0  0  1  0  0  0  0  0  0
  190.0940  178.0870  142.6570 C   0  0  1  0  0  3  0  0  0  0  0  0
  189.6930  178.2690  144.1420 C   0  0  2  0  0  3  0  0  0  0  0  0
  190.8810  177.3770  143.7590 C   0  0  2  0  0  0  0  0  0  0  0  0
  192.2450  178.0070  144.0200 C   0  0  0  0  0  2  0  0  0  0  0  0
  192.1070  179.4880  144.3080 C   0  0  0  0  0  1  0  0  0  0  0  0
  190.7640  175.8500  143.8710 C   0  0  0  0  0  2  0  0  0  0  0  0
  192.0320  175.2690  143.8980 O   0  0  0  0  0  1  0  0  0  0  0  0
  188.7200  177.1530  146.1520 O   0  0  0  0  0  0  0  0  0  0  0  0
  188.5500  178.3340  146.8850 C   0  0  0  0  0  2  0  0  0  0  0  0
  187.4210  178.1470  147.8780 C   0  0  0  0  0  1  0  0  0  0  0  0
  184.2330  179.3070  145.1700 C   0  0  0  0  0  2  0  0  0  0  0  0
  184.2700  178.2340  146.2560 C   0  0  0  0  0  1  0  0  0  0  0  0
  183.2010  176.7920  135.3600 C   0  0  0  0  0  2  0  0  0  0  0  0
  184.7310  176.7170  135.3720 C   0  0  1  0  0  3  0  0  0  0  0  0
  186.4970  178.1720  134.8260 O   0  0  0  0  0  0  0  0  0  0  0  0
  185.3430  177.8350  134.5970 C   0  0  0  0  0  3  0  0  0  0  0  0
  185.2810  176.6990  136.7930 C   0  0  0  0  0  2  0  0  0  0  0  0
  188.1450  175.0720  135.7280 C   0  0  2  0  0  3  0  0  0  0  0  0
  187.5360  176.1050  136.6230 C   0  0  2  0  0  3  0  0  0  0  0  0
  189.2680  175.6050  135.0920 O   0  0  0  0  0  0  0  0  0  0  0  0
  190.2510  175.5460  136.1060 C   0  0  2  0  0  3  0  0  0  0  0  0
  188.4810  176.2320  137.8140 C   0  0  0  0  0  2  0  0  0  0  0  0
  186.9990  174.6540  134.8660 C   0  0  0  0  0  2  0  0  0  0  0  0
  185.8950  174.5920  135.9220 C   0  0  2  0  0  3  0  0  0  0  0  0
  189.9370  176.4850  137.3220 C   0  0  1  0  0  0  0  0  0  0  0  0
  186.2120  175.5950  136.9660 N   0  0  0  0  0  0  0  0  0  0  0  0
  190.8950  176.1360  138.4580 C   0  0  0  0  0  1  0  0  0  0  0  0
  189.5280  177.9710  135.7450 O   0  0  0  0  0  1  0  0  0  0  0  0
  190.1080  177.8320  136.9250 O   0  0  0  0  0  0  0  0  0  0  0  0
  185.8680  173.1740  136.5170 C   0  0  2  0  0  3  0  0  0  0  0  0
  184.6460  172.9400  137.3980 C   0  0  0  0  0  2  0  0  0  0  0  0
  183.8500  171.7190  136.9600 C   0  0  0  0  0  1  0  0  0  0  0  0
  187.4890  171.6700  136.6390 C   0  0  0  0  0  1  0  0  0  0  0  0
  187.0400  172.8600  137.2150 O   0  0  0  0  0  0  0  0  0  0  0  0
  191.6640  175.6630  135.5310 C   0  0  0  0  0  2  0  0  0  0  0  0
  192.2270  174.3930  135.2790 O   0  0  0  0  0  0  0  0  0  0  0  0
  193.5380  174.3060  135.8280 C   0  0  2  0  0  0  0  0  0  0  0  0
  193.4700  173.7110  137.2310 C   0  0  0  0  0  1  0  0  0  0  0  0
  195.3960  175.6400  136.6880 O   0  0  0  0  0  1  0  0  0  0  0  0
  194.6160  176.1040  134.5940 O   0  0  0  0  0  1  0  0  0  0  0  0
  194.2610  175.6770  135.8720 C   0  0  0  0  0  3  0  0  0  0  0  0
  194.3270  173.3310  134.9910 C   0  0  0  0  0  3  0  0  0  0  0  0
  195.3800  172.6710  135.4660 C   0  0  0  0  0  2  0  0  0  0  0  0
  1 38  1  6  0  0  0
  1  7  1  0  0  0  0
  1  8  1  0  0  0  0
  2  3  2  0  0  0  0
  2  7  1  0  0  0  0
  3  6  1  0  0  0  0
  4  5  1  0  0  0  0
  6  5  2  0  0  0  0
  7  4  2  0  0  0  0
  8 12  1  0  0  0  0
  9 11  1  0  0  0  0
 10 13  1  0  0  0  0
 10  8  2  0  0  0  0
 12 11  2  0  0  0  0
 12 14  1  0  0  0  0
 13  9  2  0  0  0  0
 14 15  1  0  0  0  0
 15 16  1  0  0  0  0
 16 19  1  0  0  0  0
 17 16  1  0  0  0  0
 18 17  1  0  0  0  0
 20 19  1  6  0  0  0
 20 22  1  0  0  0  0
 20 36  1  0  0  0  0
 21 22  2  0  0  0  0
 22 23  1  0  0  0  0
 24 23  1  1  0  0  0
 24 33  1  0  0  0  0
 26 25  1  6  0  0  0
 26 28  1  0  0  0  0
 26 27  1  0  0  0  0
 27 24  1  6  0  0  0
 28 31  1  1  0  0  0
 28 29  1  0  0  0  0
 28 27  1  0  0  0  0
 29 30  1  0  0  0  0
 31 32  1  0  0  0  0
 33 34  1  0  0  0  0
 34 35  1  0  0  0  0
 36 37  1  0  0  0  0
 38 39  1  0  0  0  0
 39 41  1  6  0  0  0
 39 42  1  0  0  0  0
 41 40  2  0  0  0  0
 42 51  1  0  0  0  0
 43 48  1  6  0  0  0
 43 44  1  0  0  0  0
 44 51  1  0  0  0  0
 44 47  1  1  0  0  0
 45 43  1  0  0  0  0
 45 46  1  0  0  0  0
 46 60  1  6  0  0  0
 46 50  1  0  0  0  0
 48 49  1  0  0  0  0
 49 55  1  1  0  0  0
 49 51  1  0  0  0  0
 50 47  1  0  0  0  0
 50 52  1  1  0  0  0
 53 54  1  0  0  0  0
 54 50  1  0  0  0  0
 55 59  1  0  0  0  0
 55 56  1  1  0  0  0
 57 56  1  0  0  0  0
 58 59  1  0  0  0  0
 61 60  1  0  0  0  0
 61 62  1  0  0  0  0
 62 66  1  0  0  0  0
 62 63  1  1  0  0  0
 65 66  1  0  0  0  0
 66 64  1  0  0  0  0
 67 68  2  0  0  0  0
 67 62  1  0  0  0  0
M  END
>  <MODEL>
1

>  <REMARK>
 VINA RESULT:      -5.3      0.000      0.000
  Name = 
  30 active torsions:
  status: ('A' for Active; 'I' for Inactive)
    1  A    between atoms: C_2  and  C_21
    2  A    between atoms: C_2  and  O_34
    3  A    between atoms: C_2  and  C_60
    4  A    between atoms: N_4  and  C_56
    5  A    between atoms: N_4  and  N_65
    6  A    between atoms: C_8  and  C_57
    7  A    between atoms: C_10  and  O_34
    8  A    between atoms: C_10  and  C_44
    9  A    between atoms: C_17  and  C_50
   10  A    between atoms: O_19  and  C_61
   11  A    between atoms: C_20  and  C_39
   12  A    between atoms: C_23  and  C_45
   13  A    between atoms: C_23  and  O_54
   14  A    between atoms: C_23  and  N_67
   15  A    between atoms: C_25  and  N_65
   16  A    between atoms: C_26  and  C_33
   17  A    between atoms: C_26  and  C_57
   18  A    between atoms: C_27  and  C_58
   19  A    between atoms: C_30  and  C_50
   20  A    between atoms: C_30  and  N_65
   21  A    between atoms: C_33  and  C_52
   22  A    between atoms: C_33  and  C_55
   23  A    between atoms: C_36  and  C_58
   24  A    between atoms: C_38  and  C_57
   25  A    between atoms: C_39  and  O_53
   26  A    between atoms: C_39  and  C_59
   27  A    between atoms: C_47  and  C_56
   28  A    between atoms: C_50  and  C_64
   29  A    between atoms: C_51  and  O_54
   30  A    between atoms: C_52  and  N_62
                            x       y       z     vdW  Elec       q    Type
                         _______ _______ _______ _____ _____    ______ ____

>  <TORSDO>
F 30

$$$$
=
 OpenBabel10222418493D

 68 72  0  0  1  0  0  0  0  0999 V2000
  185.1560  177.8670  138.2850 C   0  0  2  0  0  3  0  0  0  0  0  0
  183.5580  179.8080  138.5770 C   0  0  0  0  0  3  0  0  0  0  0  0
  182.2920  180.3120  138.8950 C   0  0  0  0  0  3  0  0  0  0  0  0
  182.7550  177.5510  138.9430 C   0  0  0  0  0  3  0  0  0  0  0  0
  181.4910  178.0580  139.2690 C   0  0  0  0  0  3  0  0  0  0  0  0
  181.2610  179.4380  139.2510 C   0  0  0  0  0  3  0  0  0  0  0  0
  183.7970  178.4230  138.6110 C   0  0  0  0  0  0  0  0  0  0  0  0
  186.3240  178.1870  139.1960 C   0  0  0  0  0  0  0  0  0  0  0  0
  188.6110  178.8520  140.6120 C   0  0  0  0  0  3  0  0  0  0  0  0
  187.5330  178.3310  138.5930 N   0  0  0  0  0  0  0  0  0  0  0  0
  187.4080  178.7260  141.2980 C   0  0  0  0  0  3  0  0  0  0  0  0
  186.2410  178.4110  140.6000 C   0  0  0  0  0  0  0  0  0  0  0  0
  188.6340  178.6600  139.2660 N   0  0  0  0  0  0  0  0  0  0  0  0
  184.9750  178.3060  141.3880 C   0  0  0  0  0  2  0  0  0  0  0  0
  184.6890  179.5860  142.0310 N   0  0  0  0  0  2  0  0  0  0  0  0
  183.9090  179.3420  143.1700 N   0  0  0  0  0  0  0  0  0  0  0  0
  182.5910  178.8820  142.6950 C   0  0  0  0  0  2  0  0  0  0  0  0
  181.7030  178.6830  143.7510 O   0  0  0  0  0  1  0  0  0  0  0  0
  184.6070  178.2930  143.9270 C   0  0  0  0  0  2  0  0  0  0  0  0
  185.8020  178.8220  144.7330 C   0  0  2  0  0  3  0  0  0  0  0  0
  186.8880  176.7000  144.3730 O   0  0  0  0  0  0  0  0  0  0  0  0
  186.9720  177.8770  144.8200 C   0  0  0  0  0  0  0  0  0  0  0  0
  188.2080  178.3560  145.3550 N   0  0  0  0  0  2  0  0  0  0  0  0
  189.4570  177.6160  145.2710 C   0  0  1  0  0  3  0  0  0  0  0  0
  188.3240  177.7390  148.1600 C   0  0  0  0  0  1  0  0  0  0  0  0
  188.8760  176.4030  147.6620 C   0  0  1  0  0  3  0  0  0  0  0  0
  189.3940  176.3710  146.2020 C   0  0  2  0  0  3  0  0  0  0  0  0
  190.3780  176.3900  147.3800 C   0  0  2  0  0  0  0  0  0  0  0  0
  191.0290  175.0420  147.6710 C   0  0  0  0  0  2  0  0  0  0  0  0
  192.4800  175.2180  148.0690 C   0  0  0  0  0  1  0  0  0  0  0  0
  191.1880  177.6580  147.6850 C   0  0  0  0  0  2  0  0  0  0  0  0
  192.3010  177.7340  146.8470 O   0  0  0  0  0  1  0  0  0  0  0  0
  189.7480  177.3450  143.9320 O   0  0  0  0  0  0  0  0  0  0  0  0
  191.1450  177.4050  143.8530 C   0  0  0  0  0  2  0  0  0  0  0  0
  191.5680  178.8310  143.5610 C   0  0  0  0  0  1  0  0  0  0  0  0
  185.3440  179.3370  146.0980 C   0  0  0  0  0  2  0  0  0  0  0  0
  184.5850  178.2770  146.8910 C   0  0  0  0  0  1  0  0  0  0  0  0
  185.5280  177.8940  136.7960 C   0  0  0  0  0  2  0  0  0  0  0  0
  185.3340  176.5310  136.1250 C   0  0  1  0  0  3  0  0  0  0  0  0
  183.0390  176.6930  135.6280 O   0  0  0  0  0  0  0  0  0  0  0  0
  184.1720  176.5390  135.1890 C   0  0  0  0  0  3  0  0  0  0  0  0
  186.5930  176.0790  135.3950 C   0  0  0  0  0  2  0  0  0  0  0  0
  189.2230  173.8370  135.5990 C   0  0  2  0  0  3  0  0  0  0  0  0
  188.6610  175.1660  135.9950 C   0  0  2  0  0  3  0  0  0  0  0  0
  190.5420  173.9960  135.1690 O   0  0  0  0  0  0  0  0  0  0  0  0
  191.2490  174.1190  136.3870 C   0  0  2  0  0  3  0  0  0  0  0  0
  189.3310  175.5240  137.3180 C   0  0  0  0  0  2  0  0  0  0  0  0
  188.2300  173.3330  134.6050 C   0  0  0  0  0  2  0  0  0  0  0  0
  186.9350  173.7440  135.3060 C   0  0  2  0  0  3  0  0  0  0  0  0
  190.8790  175.4180  137.1830 C   0  0  1  0  0  0  0  0  0  0  0  0
  187.2170  174.9670  136.0950 N   0  0  0  0  0  0  0  0  0  0  0  0
  191.4760  175.3090  138.5840 C   0  0  0  0  0  1  0  0  0  0  0  0
  191.9910  176.1030  135.4060 O   0  0  0  0  0  1  0  0  0  0  0  0
  191.4040  176.5440  136.5060 O   0  0  0  0  0  0  0  0  0  0  0  0
  186.4900  172.5930  136.2230 C   0  0  2  0  0  3  0  0  0  0  0  0
  185.7410  171.5040  135.4620 C   0  0  0  0  0  2  0  0  0  0  0  0
  184.2440  171.5410  135.7340 C   0  0  0  0  0  1  0  0  0  0  0  0
  186.3690  172.4900  138.4320 C   0  0  0  0  0  1  0  0  0  0  0  0
  185.7330  173.0340  137.3140 O   0  0  0  0  0  0  0  0  0  0  0  0
  192.7460  173.8650  136.1990 C   0  0  0  0  0  2  0  0  0  0  0  0
  193.3420  173.3850  137.3860 O   0  0  0  0  0  0  0  0  0  0  0  0
  194.7540  173.2880  137.2360 C   0  0  2  0  0  0  0  0  0  0  0  0
  195.2800  174.5140  136.4960 C   0  0  0  0  0  1  0  0  0  0  0  0
  196.4950  171.6220  136.8240 O   0  0  0  0  0  1  0  0  0  0  0  0
  194.3160  170.9440  136.7520 O   0  0  0  0  0  1  0  0  0  0  0  0
  195.1900  171.9980  136.4920 C   0  0  0  0  0  3  0  0  0  0  0  0
  195.3700  173.3240  138.6110 C   0  0  0  0  0  3  0  0  0  0  0  0
  195.6200  174.4640  139.2510 C   0  0  0  0  0  2  0  0  0  0  0  0
  1 38  1  6  0  0  0
  1  7  1  0  0  0  0
  1  8  1  0  0  0  0
  2  7  2  0  0  0  0
  2  3  1  0  0  0  0
  3  6  2  0  0  0  0
  4  5  2  0  0  0  0
  6  5  1  0  0  0  0
  7  4  1  0  0  0  0
  8 12  1  0  0  0  0
  9 11  1  0  0  0  0
 10  8  2  0  0  0  0
 10 13  1  0  0  0  0
 12 11  2  0  0  0  0
 12 14  1  0  0  0  0
 13  9  2  0  0  0  0
 14 15  1  0  0  0  0
 15 16  1  0  0  0  0
 16 19  1  0  0  0  0
 17 16  1  0  0  0  0
 17 18  1  0  0  0  0
 20 19  1  1  0  0  0
 20 22  1  0  0  0  0
 20 36  1  0  0  0  0
 21 22  2  0  0  0  0
 22 23  1  0  0  0  0
 24 33  1  6  0  0  0
 24 23  1  0  0  0  0
 26 25  1  6  0  0  0
 27 24  1  6  0  0  0
 27 28  1  0  0  0  0
 27 26  1  0  0  0  0
 28 26  1  0  0  0  0
 28 29  1  1  0  0  0
 28 31  1  0  0  0  0
 29 30  1  0  0  0  0
 32 31  1  0  0  0  0
 34 33  1  0  0  0  0
 35 34  1  0  0  0  0
 36 37  1  0  0  0  0
 39 41  1  6  0  0  0
 39 38  1  0  0  0  0
 41 40  2  0  0  0  0
 42 51  1  0  0  0  0
 42 39  1  0  0  0  0
 43 48  1  6  0  0  0
 43 44  1  0  0  0  0
 44 51  1  0  0  0  0
 44 47  1  1  0  0  0
 45 43  1  0  0  0  0
 45 46  1  0  0  0  0
 46 60  1  6  0  0  0
 46 50  1  0  0  0  0
 48 49  1  0  0  0  0
 49 51  1  0  0  0  0
 49 55  1  1  0  0  0
 50 47  1  0  0  0  0
 50 52  1  1  0  0  0
 53 54  1  0  0  0  0
 54 50  1  0  0  0  0
 55 56  1  6  0  0  0
 55 59  1  0  0  0  0
 56 57  1  0  0  0  0
 59 58  1  0  0  0  0
 60 61  1  0  0  0  0
 62 63  1  6  0  0  0
 62 61  1  0  0  0  0
 62 67  1  0  0  0  0
 66 65  1  0  0  0  0
 66 64  1  0  0  0  0
 66 62  1  0  0  0  0
 67 68  2  0  0  0  0
M  END
>  <MODEL>
2

>  <REMARK>
 VINA RESULT:      -3.7      2.261      3.742
  Name = 
  30 active torsions:
  status: ('A' for Active; 'I' for Inactive)
    1  A    between atoms: C_2  and  C_21
    2  A    between atoms: C_2  and  O_34
    3  A    between atoms: C_2  and  C_60
    4  A    between atoms: N_4  and  C_56
    5  A    between atoms: N_4  and  N_65
    6  A    between atoms: C_8  and  C_57
    7  A    between atoms: C_10  and  O_34
    8  A    between atoms: C_10  and  C_44
    9  A    between atoms: C_17  and  C_50
   10  A    between atoms: O_19  and  C_61
   11  A    between atoms: C_20  and  C_39
   12  A    between atoms: C_23  and  C_45
   13  A    between atoms: C_23  and  O_54
   14  A    between atoms: C_23  and  N_67
   15  A    between atoms: C_25  and  N_65
   16  A    between atoms: C_26  and  C_33
   17  A    between atoms: C_26  and  C_57
   18  A    between atoms: C_27  and  C_58
   19  A    between atoms: C_30  and  C_50
   20  A    between atoms: C_30  and  N_65
   21  A    between atoms: C_33  and  C_52
   22  A    between atoms: C_33  and  C_55
   23  A    between atoms: C_36  and  C_58
   24  A    between atoms: C_38  and  C_57
   25  A    between atoms: C_39  and  O_53
   26  A    between atoms: C_39  and  C_59
   27  A    between atoms: C_47  and  C_56
   28  A    between atoms: C_50  and  C_64
   29  A    between atoms: C_51  and  O_54
   30  A    between atoms: C_52  and  N_62
                            x       y       z     vdW  Elec       q    Type
                         _______ _______ _______ _____ _____    ______ ____

>  <TORSDO>
F 30

$$$$
=
 OpenBabel10222418493D

 68 72  0  0  1  0  0  0  0  0999 V2000
  182.9430  177.1020  136.8530 C   0  0  2  0  0  3  0  0  0  0  0  0
  181.2600  175.7140  138.1370 C   0  0  0  0  0  3  0  0  0  0  0  0
  180.3410  174.6610  138.2040 C   0  0  0  0  0  3  0  0  0  0  0  0
  181.6780  175.2040  135.8060 C   0  0  0  0  0  3  0  0  0  0  0  0
  180.7640  174.1450  135.8770 C   0  0  0  0  0  3  0  0  0  0  0  0
  180.1000  173.8700  137.0770 C   0  0  0  0  0  3  0  0  0  0  0  0
  181.9410  175.9820  136.9370 C   0  0  0  0  0  0  0  0  0  0  0  0
  182.5820  178.4610  137.4180 C   0  0  0  0  0  0  0  0  0  0  0  0
  181.6670  180.9260  138.2900 C   0  0  0  0  0  3  0  0  0  0  0  0
  181.5800  179.1260  136.7870 N   0  0  0  0  0  0  0  0  0  0  0  0
  182.6950  180.3040  138.9900 C   0  0  0  0  0  3  0  0  0  0  0  0
  183.1570  179.0530  138.5790 C   0  0  0  0  0  0  0  0  0  0  0  0
  181.1280  180.3060  137.2070 N   0  0  0  0  0  0  0  0  0  0  0  0
  184.2510  178.4260  139.3810 C   0  0  0  0  0  2  0  0  0  0  0  0
  184.3970  179.1340  140.6510 N   0  0  0  0  0  2  0  0  0  0  0  0
  185.1130  178.3110  141.5320 N   0  0  0  0  0  0  0  0  0  0  0  0
  186.3520  179.0310  141.8790 C   0  0  0  0  0  2  0  0  0  0  0  0
  187.1410  179.2710  140.7560 O   0  0  0  0  0  1  0  0  0  0  0  0
  184.2500  178.1210  142.7060 C   0  0  0  0  0  2  0  0  0  0  0  0
  184.7970  178.7900  143.9750 C   0  0  2  0  0  3  0  0  0  0  0  0
  185.9050  176.8670  144.9160 O   0  0  0  0  0  0  0  0  0  0  0  0
  185.9720  178.0880  144.6030 C   0  0  0  0  0  0  0  0  0  0  0  0
  187.1960  178.8060  144.7740 N   0  0  0  0  0  2  0  0  0  0  0  0
  188.4520  178.1740  145.1440 C   0  0  1  0  0  3  0  0  0  0  0  0
  187.8650  178.9960  148.0810 C   0  0  0  0  0  1  0  0  0  0  0  0
  187.9500  177.5040  147.7560 C   0  0  1  0  0  3  0  0  0  0  0  0
  188.2030  177.1330  146.2730 C   0  0  2  0  0  3  0  0  0  0  0  0
  189.3290  177.0190  147.3100 C   0  0  2  0  0  0  0  0  0  0  0  0
  189.6300  175.5890  147.7490 C   0  0  0  0  0  2  0  0  0  0  0  0
  190.8590  175.0560  147.0430 C   0  0  0  0  0  1  0  0  0  0  0  0
  190.4880  178.0240  147.3010 C   0  0  0  0  0  2  0  0  0  0  0  0
  191.5190  177.5810  148.1290 O   0  0  0  0  0  1  0  0  0  0  0  0
  189.0750  177.6720  143.9980 O   0  0  0  0  0  0  0  0  0  0  0  0
  190.0210  178.6460  143.6540 C   0  0  0  0  0  2  0  0  0  0  0  0
  191.0240  178.0490  142.6880 C   0  0  0  0  0  1  0  0  0  0  0  0
  183.6660  179.0690  144.9660 C   0  0  0  0  0  2  0  0  0  0  0  0
  182.3120  179.2080  144.2760 C   0  0  0  0  0  1  0  0  0  0  0  0
  183.7150  177.1840  135.5300 C   0  0  0  0  0  2  0  0  0  0  0  0
  185.2320  177.1490  135.7380 C   0  0  1  0  0  3  0  0  0  0  0  0
  186.9720  178.4490  134.8330 O   0  0  0  0  0  0  0  0  0  0  0  0
  185.8690  178.4450  135.3630 C   0  0  0  0  0  3  0  0  0  0  0  0
  185.5930  176.7810  137.1720 C   0  0  0  0  0  2  0  0  0  0  0  0
  188.5030  175.3740  135.9320 C   0  0  2  0  0  3  0  0  0  0  0  0
  187.8600  176.2480  136.9630 C   0  0  2  0  0  3  0  0  0  0  0  0
  189.6300  176.0130  135.4130 O   0  0  0  0  0  0  0  0  0  0  0  0
  190.5930  175.8090  136.4270 C   0  0  2  0  0  3  0  0  0  0  0  0
  188.7780  176.1990  138.1800 C   0  0  0  0  0  2  0  0  0  0  0  0
  187.3820  175.0820  134.9900 C   0  0  0  0  0  2  0  0  0  0  0  0
  186.2570  174.8420  135.9980 C   0  0  2  0  0  3  0  0  0  0  0  0
  190.2400  176.5420  137.7670 C   0  0  1  0  0  0  0  0  0  0  0  0
  186.5370  175.6740  137.1930 N   0  0  0  0  0  0  0  0  0  0  0  0
  191.1800  176.0320  138.8560 C   0  0  0  0  0  1  0  0  0  0  0  0
  189.4540  178.5330  138.2960 O   0  0  0  0  0  1  0  0  0  0  0  0
  190.3980  177.9370  137.5880 O   0  0  0  0  0  0  0  0  0  0  0  0
  186.2400  173.3490  136.3640 C   0  0  2  0  0  3  0  0  0  0  0  0
  187.1260  172.5180  135.4410 C   0  0  0  0  0  2  0  0  0  0  0  0
  186.3240  171.4990  134.6440 C   0  0  0  0  0  1  0  0  0  0  0  0
  184.3520  173.2380  135.2140 C   0  0  0  0  0  1  0  0  0  0  0  0
  184.9460  172.8190  136.4060 O   0  0  0  0  0  0  0  0  0  0  0  0
  192.0160  176.0300  135.9090 C   0  0  0  0  0  2  0  0  0  0  0  0
  192.9790  175.5320  136.8130 O   0  0  0  0  0  0  0  0  0  0  0  0
  194.1370  175.0830  136.1170 C   0  0  2  0  0  0  0  0  0  0  0  0
  193.7290  174.1320  134.9970 C   0  0  0  0  0  1  0  0  0  0  0  0
  195.4690  175.1750  138.1640 O   0  0  0  0  0  1  0  0  0  0  0  0
  194.7070  173.1400  137.4650 O   0  0  0  0  0  1  0  0  0  0  0  0
  195.1650  174.3890  137.0490 C   0  0  0  0  0  3  0  0  0  0  0  0
  194.7690  176.2790  135.4500 C   0  0  0  0  0  3  0  0  0  0  0  0
  194.1750  177.4690  135.4080 C   0  0  0  0  0  2  0  0  0  0  0  0
  1 38  1  6  0  0  0
  1  7  1  0  0  0  0
  1  8  1  0  0  0  0
  2  3  1  0  0  0  0
  4  5  2  0  0  0  0
  4  7  1  0  0  0  0
  5  6  1  0  0  0  0
  6  3  2  0  0  0  0
  7  2  2  0  0  0  0
  8 12  1  0  0  0  0
  9 11  1  0  0  0  0
 10 13  1  0  0  0  0
 10  8  2  0  0  0  0
 12 11  2  0  0  0  0
 12 14  1  0  0  0  0
 13  9  2  0  0  0  0
 14 15  1  0  0  0  0
 15 16  1  0  0  0  0
 16 17  1  0  0  0  0
 16 19  1  0  0  0  0
 18 17  1  0  0  0  0
 20 19  1  6  0  0  0
 20 22  1  0  0  0  0
 20 36  1  0  0  0  0
 22 23  1  0  0  0  0
 22 21  2  0  0  0  0
 23 24  1  0  0  0  0
 24 33  1  6  0  0  0
 26 25  1  6  0  0  0
 27 24  1  6  0  0  0
 27 28  1  0  0  0  0
 27 26  1  0  0  0  0
 28 31  1  6  0  0  0
 28 29  1  0  0  0  0
 28 26  1  0  0  0  0
 30 29  1  0  0  0  0
 31 32  1  0  0  0  0
 34 33  1  0  0  0  0
 35 34  1  0  0  0  0
 37 36  1  0  0  0  0
 38 39  1  0  0  0  0
 39 41  1  1  0  0  0
 39 42  1  0  0  0  0
 40 41  2  0  0  0  0
 42 51  1  0  0  0  0
 43 48  1  6  0  0  0
 43 44  1  0  0  0  0
 44 51  1  0  0  0  0
 44 47  1  1  0  0  0
 45 43  1  0  0  0  0
 45 46  1  0  0  0  0
 46 60  1  6  0  0  0
 46 50  1  0  0  0  0
 48 49  1  0  0  0  0
 49 55  1  1  0  0  0
 49 51  1  0  0  0  0
 50 47  1  0  0  0  0
 50 52  1  1  0  0  0
 54 50  1  0  0  0  0
 54 53  1  0  0  0  0
 55 56  1  6  0  0  0
 55 59  1  0  0  0  0
 57 56  1  0  0  0  0
 58 59  1  0  0  0  0
 60 61  1  0  0  0  0
 62 63  1  6  0  0  0
 62 61  1  0  0  0  0
 62 66  1  0  0  0  0
 66 65  1  0  0  0  0
 66 64  1  0  0  0  0
 67 62  1  0  0  0  0
 68 67  2  0  0  0  0
M  END
>  <MODEL>
3

>  <REMARK>
 VINA RESULT:      -2.3      1.285      2.473
  Name = 
  30 active torsions:
  status: ('A' for Active; 'I' for Inactive)
    1  A    between atoms: C_2  and  C_21
    2  A    between atoms: C_2  and  O_34
    3  A    between atoms: C_2  and  C_60
    4  A    between atoms: N_4  and  C_56
    5  A    between atoms: N_4  and  N_65
    6  A    between atoms: C_8  and  C_57
    7  A    between atoms: C_10  and  O_34
    8  A    between atoms: C_10  and  C_44
    9  A    between atoms: C_17  and  C_50
   10  A    between atoms: O_19  and  C_61
   11  A    between atoms: C_20  and  C_39
   12  A    between atoms: C_23  and  C_45
   13  A    between atoms: C_23  and  O_54
   14  A    between atoms: C_23  and  N_67
   15  A    between atoms: C_25  and  N_65
   16  A    between atoms: C_26  and  C_33
   17  A    between atoms: C_26  and  C_57
   18  A    between atoms: C_27  and  C_58
   19  A    between atoms: C_30  and  C_50
   20  A    between atoms: C_30  and  N_65
   21  A    between atoms: C_33  and  C_52
   22  A    between atoms: C_33  and  C_55
   23  A    between atoms: C_36  and  C_58
   24  A    between atoms: C_38  and  C_57
   25  A    between atoms: C_39  and  O_53
   26  A    between atoms: C_39  and  C_59
   27  A    between atoms: C_47  and  C_56
   28  A    between atoms: C_50  and  C_64
   29  A    between atoms: C_51  and  O_54
   30  A    between atoms: C_52  and  N_62
                            x       y       z     vdW  Elec       q    Type
                         _______ _______ _______ _____ _____    ______ ____

>  <TORSDO>
F 30

$$$$
