=
 OpenBabel10222416073D

 26 31  0  0  1  0  0  0  0  0999 V2000
  189.1800  177.3710  141.6430 N   0  0  0  0  0  0  0  0  0  0  0  0
  191.0510  178.5780  142.8940 C   0  0  0  0  0  2  0  0  0  0  0  0
  190.3610  177.2730  142.5310 C   0  0  0  0  0  0  0  0  0  0  0  0
  191.7150  177.6060  141.9210 C   0  0  0  0  0  2  0  0  0  0  0  0
  191.4230  176.1050  145.1840 C   0  0  2  0  0  0  0  0  0  0  0  0
  189.3120  177.1660  145.8310 C   0  0  0  0  0  3  0  0  0  0  0  0
  191.1830  176.7880  147.4260 C   0  0  0  0  0  3  0  0  0  0  0  0
  190.3680  176.1180  143.5560 C   0  0  1  0  0  0  0  0  0  0  0  0
  192.0010  176.1840  146.4370 C   0  0  0  0  0  3  0  0  0  0  0  0
  190.1380  176.5760  144.8930 C   0  0  0  0  0  0  0  0  0  0  0  0
  189.8690  177.2670  147.1290 C   0  0  0  0  0  2  0  0  0  0  0  0
  191.6550  175.6690  143.8410 O   0  0  0  0  0  0  0  0  0  0  0  0
  189.1380  178.5270  140.7240 C   0  0  0  0  0  2  0  0  0  0  0  0
  189.2360  178.1660  139.2680 C   0  0  0  0  0  0  0  0  0  0  0  0
  188.9530  179.0180  138.3860 O   0  0  0  0  0  0  0  0  0  0  0  0
  189.6790  176.8700  138.8790 N   0  0  0  0  0  1  0  0  0  0  0  0
  187.9350  177.2130  142.3950 C   0  0  0  0  0  2  0  0  0  0  0  0
  186.9880  178.3690  142.1020 C   0  0  0  0  0  2  0  0  0  0  0  0
  185.5700  178.0570  142.5600 C   0  0  0  0  0  2  0  0  0  0  0  0
  185.3910  179.3430  147.2180 O   0  0  0  0  0  1  0  0  0  0  0  0
  183.6700  178.7510  144.0280 C   0  0  0  0  0  2  0  0  0  0  0  0
  185.1220  179.0110  143.6600 C   0  0  1  0  0  3  0  0  0  0  0  0
  185.0030  178.6900  146.0520 C   0  0  1  0  0  0  0  0  0  0  0  0
  183.5890  178.8640  145.5370 C   0  0  0  0  0  2  0  0  0  0  0  0
  185.9810  178.8890  144.9210 C   0  0  1  0  0  3  0  0  0  0  0  0
  185.8520  177.5240  145.6030 C   0  0  0  0  0  2  0  0  0  0  0  0
  1 17  1  0  0  0  0
  1  3  1  0  0  0  0
  3  2  1  0  0  0  0
  4  3  1  0  0  0  0
  4  2  1  0  0  0  0
  5  9  1  1  0  0  0
  6 11  1  0  0  0  0
  8  3  1  6  0  0  0
  8 12  1  0  0  0  0
  8 10  1  0  0  0  0
  8  5  1  0  0  0  0
  9  7  2  0  0  0  0
 10  5  1  0  0  0  0
 10  6  2  0  0  0  0
 11  7  1  0  0  0  0
 12  5  1  0  0  0  0
 13  1  1  0  0  0  0
 14 13  1  0  0  0  0
 15 14  2  0  0  0  0
 16 14  1  0  0  0  0
 18 17  1  0  0  0  0
 18 19  1  0  0  0  0
 21 24  1  0  0  0  0
 22 19  1  6  0  0  0
 22 21  1  0  0  0  0
 22 25  1  0  0  0  0
 23 20  1  1  0  0  0
 24 23  1  0  0  0  0
 25 26  1  6  0  0  0
 25 23  1  0  0  0  0
 26 23  1  0  0  0  0
M  END
>  <MODEL>
1

>  <REMARK>
 VINA RESULT:      -7.8      0.000      0.000
  Name = 
  8 active torsions:
  status: ('A' for Active; 'I' for Inactive)
    1  A    between atoms: C_5  and  C_8
    2  A    between atoms: C_6  and  N_9
    3  A    between atoms: C_6  and  C_11
    4  A    between atoms: C_7  and  C_8
    5  A    between atoms: C_7  and  C_18
    6  A    between atoms: N_9  and  C_12
    7  A    between atoms: N_9  and  C_18
    8  A    between atoms: C_12  and  C_16
                            x       y       z     vdW  Elec       q    Type
                         _______ _______ _______ _____ _____    ______ ____

>  <TORSDO>
F 8

$$$$
=
 OpenBabel10222416073D

 26 31  0  0  1  0  0  0  0  0999 V2000
  189.5560  177.2790  142.6040 N   0  0  0  0  0  0  0  0  0  0  0  0
  190.5740  179.0890  144.0920 C   0  0  0  0  0  2  0  0  0  0  0  0
  190.2250  177.6240  143.8800 C   0  0  0  0  0  0  0  0  0  0  0  0
  191.6770  178.0730  143.8010 C   0  0  0  0  0  2  0  0  0  0  0  0
  189.6230  177.4540  146.9030 C   0  0  2  0  0  0  0  0  0  0  0  0
  187.4000  177.5880  145.8840 C   0  0  0  0  0  3  0  0  0  0  0  0
  187.8660  178.3040  148.2200 C   0  0  0  0  0  3  0  0  0  0  0  0
  189.8700  176.7600  145.1090 C   0  0  1  0  0  0  0  0  0  0  0  0
  189.2390  177.9670  148.1280 C   0  0  0  0  0  3  0  0  0  0  0  0
  188.7450  177.2740  145.8290 C   0  0  0  0  0  0  0  0  0  0  0  0
  186.9670  178.1190  147.1250 C   0  0  0  0  0  2  0  0  0  0  0  0
  190.7480  176.9590  146.1700 O   0  0  0  0  0  0  0  0  0  0  0  0
  190.2890  176.3710  141.6980 C   0  0  0  0  0  2  0  0  0  0  0  0
  190.8740  177.0410  140.4870 C   0  0  0  0  0  0  0  0  0  0  0  0
  191.9710  177.6520  140.5710 O   0  0  0  0  0  0  0  0  0  0  0  0
  190.2080  176.9620  139.2320 N   0  0  0  0  0  1  0  0  0  0  0  0
  189.0710  178.4760  141.9180 C   0  0  0  0  0  2  0  0  0  0  0  0
  187.6340  178.2750  141.4550 C   0  0  0  0  0  2  0  0  0  0  0  0
  186.6640  178.2820  142.6280 C   0  0  0  0  0  2  0  0  0  0  0  0
  182.3090  179.9930  143.8550 O   0  0  0  0  0  1  0  0  0  0  0  0
  184.4730  178.2900  141.4250 C   0  0  0  0  0  2  0  0  0  0  0  0
  185.4140  179.0930  142.3070 C   0  0  1  0  0  3  0  0  0  0  0  0
  183.2350  179.0830  143.3510 C   0  0  1  0  0  0  0  0  0  0  0  0
  183.0740  178.5630  141.9380 C   0  0  0  0  0  2  0  0  0  0  0  0
  184.6600  179.5250  143.5680 C   0  0  1  0  0  3  0  0  0  0  0  0
  184.0870  178.3440  144.3570 C   0  0  0  0  0  2  0  0  0  0  0  0
  1  3  1  0  0  0  0
  3  2  1  0  0  0  0
  4  3  1  0  0  0  0
  4  2  1  0  0  0  0
  5  9  1  1  0  0  0
  6 11  1  0  0  0  0
  8  3  1  6  0  0  0
  8 10  1  0  0  0  0
  8 12  1  0  0  0  0
  8  5  1  0  0  0  0
  9  7  2  0  0  0  0
 10  6  2  0  0  0  0
 10  5  1  0  0  0  0
 11  7  1  0  0  0  0
 12  5  1  0  0  0  0
 13  1  1  0  0  0  0
 14 15  2  0  0  0  0
 14 13  1  0  0  0  0
 16 14  1  0  0  0  0
 17  1  1  0  0  0  0
 18 17  1  0  0  0  0
 18 19  1  0  0  0  0
 21 24  1  0  0  0  0
 21 22  1  0  0  0  0
 22 19  1  1  0  0  0
 22 25  1  0  0  0  0
 23 25  1  0  0  0  0
 23 20  1  1  0  0  0
 23 26  1  0  0  0  0
 24 23  1  0  0  0  0
 25 26  1  1  0  0  0
M  END
>  <MODEL>
2

>  <REMARK>
 VINA RESULT:      -7.8      1.879      2.552
  Name = 
  8 active torsions:
  status: ('A' for Active; 'I' for Inactive)
    1  A    between atoms: C_5  and  C_8
    2  A    between atoms: C_6  and  N_9
    3  A    between atoms: C_6  and  C_11
    4  A    between atoms: C_7  and  C_8
    5  A    between atoms: C_7  and  C_18
    6  A    between atoms: N_9  and  C_12
    7  A    between atoms: N_9  and  C_18
    8  A    between atoms: C_12  and  C_16
                            x       y       z     vdW  Elec       q    Type
                         _______ _______ _______ _____ _____    ______ ____

>  <TORSDO>
F 8

$$$$
=
 OpenBabel10222416073D

 26 31  0  0  1  0  0  0  0  0999 V2000
  189.6420  177.4290  142.5100 N   0  0  0  0  0  0  0  0  0  0  0  0
  190.4770  179.1980  144.1530 C   0  0  0  0  0  2  0  0  0  0  0  0
  190.2000  177.7340  143.8480 C   0  0  0  0  0  0  0  0  0  0  0  0
  191.6360  178.2360  143.9000 C   0  0  0  0  0  2  0  0  0  0  0  0
  189.6600  177.3440  146.8620 C   0  0  2  0  0  0  0  0  0  0  0  0
  187.4370  177.7960  145.9370 C   0  0  0  0  0  3  0  0  0  0  0  0
  188.0330  178.2400  148.3110 C   0  0  0  0  0  3  0  0  0  0  0  0
  189.7880  176.7990  145.0040 C   0  0  1  0  0  0  0  0  0  0  0  0
  189.3620  177.7760  148.1410 C   0  0  0  0  0  3  0  0  0  0  0  0
  188.7410  177.3550  145.8070 C   0  0  0  0  0  0  0  0  0  0  0  0
  187.0930  178.2500  147.2340 C   0  0  0  0  0  2  0  0  0  0  0  0
  190.7090  176.8080  146.0480 O   0  0  0  0  0  0  0  0  0  0  0  0
  188.2330  176.9860  142.4670 C   0  0  0  0  0  2  0  0  0  0  0  0
  187.2440  178.0860  142.2030 C   0  0  0  0  0  0  0  0  0  0  0  0
  187.5780  179.0840  141.5130 O   0  0  0  0  0  0  0  0  0  0  0  0
  185.9160  177.9910  142.7070 N   0  0  0  0  0  1  0  0  0  0  0  0
  190.5280  176.5440  141.7540 C   0  0  0  0  0  2  0  0  0  0  0  0
  190.9980  177.2300  140.4780 C   0  0  0  0  0  2  0  0  0  0  0  0
  190.4520  176.5350  139.2380 C   0  0  0  0  0  2  0  0  0  0  0  0
  187.5730  179.5550  136.7920 O   0  0  0  0  0  1  0  0  0  0  0  0
  189.9920  176.7910  136.7950 C   0  0  0  0  0  2  0  0  0  0  0  0
  190.2210  177.5270  138.1050 C   0  0  1  0  0  3  0  0  0  0  0  0
  188.1610  178.3410  137.1400 C   0  0  1  0  0  0  0  0  0  0  0  0
  188.8820  177.5340  136.0800 C   0  0  0  0  0  2  0  0  0  0  0  0
  189.0260  178.4460  138.3710 C   0  0  1  0  0  3  0  0  0  0  0  0
  187.6920  177.6930  138.4210 C   0  0  0  0  0  2  0  0  0  0  0  0
  1  3  1  0  0  0  0
  3  4  1  0  0  0  0
  3  2  1  0  0  0  0
  4  2  1  0  0  0  0
  5  9  1  1  0  0  0
  6 11  1  0  0  0  0
  8  3  1  6  0  0  0
  8 10  1  0  0  0  0
  8 12  1  0  0  0  0
  8  5  1  0  0  0  0
  9  7  2  0  0  0  0
 10  6  2  0  0  0  0
 10  5  1  0  0  0  0
 11  7  1  0  0  0  0
 12  5  1  0  0  0  0
 13  1  1  0  0  0  0
 14 13  1  0  0  0  0
 14 16  1  0  0  0  0
 15 14  2  0  0  0  0
 17  1  1  0  0  0  0
 18 17  1  0  0  0  0
 19 18  1  0  0  0  0
 21 22  1  0  0  0  0
 22 25  1  0  0  0  0
 22 19  1  1  0  0  0
 23 20  1  6  0  0  0
 23 25  1  0  0  0  0
 23 26  1  0  0  0  0
 24 21  1  0  0  0  0
 24 23  1  0  0  0  0
 25 26  1  1  0  0  0
M  END
>  <MODEL>
3

>  <REMARK>
 VINA RESULT:      -7.6      2.370      5.471
  Name = 
  8 active torsions:
  status: ('A' for Active; 'I' for Inactive)
    1  A    between atoms: C_5  and  C_8
    2  A    between atoms: C_6  and  N_9
    3  A    between atoms: C_6  and  C_11
    4  A    between atoms: C_7  and  C_8
    5  A    between atoms: C_7  and  C_18
    6  A    between atoms: N_9  and  C_12
    7  A    between atoms: N_9  and  C_18
    8  A    between atoms: C_12  and  C_16
                            x       y       z     vdW  Elec       q    Type
                         _______ _______ _______ _____ _____    ______ ____

>  <TORSDO>
F 8

$$$$
=
 OpenBabel10222416073D

 26 31  0  0  1  0  0  0  0  0999 V2000
  190.2140  177.4280  144.8010 N   0  0  0  0  0  0  0  0  0  0  0  0
  188.9080  175.9720  143.1580 C   0  0  0  0  0  2  0  0  0  0  0  0
  190.0520  176.9410  143.4120 C   0  0  0  0  0  0  0  0  0  0  0  0
  190.3510  175.4710  143.1540 C   0  0  0  0  0  2  0  0  0  0  0  0
  190.4880  177.4460  140.3980 C   0  0  2  0  0  0  0  0  0  0  0  0
  188.2300  178.3050  140.8000 C   0  0  0  0  0  3  0  0  0  0  0  0
  189.0030  177.5180  138.5710 C   0  0  0  0  0  3  0  0  0  0  0  0
  190.4730  177.9050  142.2820 C   0  0  1  0  0  0  0  0  0  0  0  0
  190.2970  177.1950  139.0520 C   0  0  0  0  0  3  0  0  0  0  0  0
  189.5000  177.9750  141.2350 C   0  0  0  0  0  0  0  0  0  0  0  0
  187.9940  178.0600  139.4250 C   0  0  0  0  0  2  0  0  0  0  0  0
  191.4500  177.3590  141.4550 O   0  0  0  0  0  0  0  0  0  0  0  0
  191.5940  177.4780  145.3280 C   0  0  0  0  0  2  0  0  0  0  0  0
  191.8990  176.4380  146.3690 C   0  0  0  0  0  0  0  0  0  0  0  0
  192.1900  175.2630  146.0220 O   0  0  0  0  0  0  0  0  0  0  0  0
  191.8910  176.7820  147.7500 N   0  0  0  0  0  1  0  0  0  0  0  0
  189.2950  176.7470  145.7130 C   0  0  0  0  0  2  0  0  0  0  0  0
  188.4820  177.7650  146.5020 C   0  0  0  0  0  2  0  0  0  0  0  0
  186.9890  177.6000  146.2510 C   0  0  0  0  0  2  0  0  0  0  0  0
  183.5360  180.1640  144.0380 O   0  0  0  0  0  1  0  0  0  0  0  0
  186.2100  177.6520  143.8770 C   0  0  0  0  0  2  0  0  0  0  0  0
  186.5190  178.4900  145.1060 C   0  0  1  0  0  3  0  0  0  0  0  0
  184.2840  179.0370  144.3700 C   0  0  1  0  0  0  0  0  0  0  0  0
  184.9500  178.2370  143.2710 C   0  0  0  0  0  2  0  0  0  0  0  0
  185.2760  179.3040  145.4740 C   0  0  1  0  0  3  0  0  0  0  0  0
  184.0440  178.4310  145.7330 C   0  0  0  0  0  2  0  0  0  0  0  0
  1 13  1  0  0  0  0
  1 17  1  0  0  0  0
  2  3  1  0  0  0  0
  3  1  1  0  0  0  0
  4  2  1  0  0  0  0
  4  3  1  0  0  0  0
  5  9  1  6  0  0  0
  5 10  1  0  0  0  0
  5 12  1  0  0  0  0
  5  8  1  0  0  0  0
  6 10  2  0  0  0  0
  7  9  2  0  0  0  0
  7 11  1  0  0  0  0
  8  3  1  1  0  0  0
 10  8  1  0  0  0  0
 11  6  1  0  0  0  0
 12  8  1  0  0  0  0
 13 14  1  0  0  0  0
 14 16  1  0  0  0  0
 15 14  2  0  0  0  0
 17 18  1  0  0  0  0
 19 18  1  0  0  0  0
 21 22  1  0  0  0  0
 22 25  1  0  0  0  0
 22 19  1  1  0  0  0
 23 20  1  6  0  0  0
 23 25  1  0  0  0  0
 23 26  1  0  0  0  0
 24 21  1  0  0  0  0
 24 23  1  0  0  0  0
 25 26  1  1  0  0  0
M  END
>  <MODEL>
4

>  <REMARK>
 VINA RESULT:      -7.5      2.056      5.069
  Name = 
  8 active torsions:
  status: ('A' for Active; 'I' for Inactive)
    1  A    between atoms: C_5  and  C_8
    2  A    between atoms: C_6  and  N_9
    3  A    between atoms: C_6  and  C_11
    4  A    between atoms: C_7  and  C_8
    5  A    between atoms: C_7  and  C_18
    6  A    between atoms: N_9  and  C_12
    7  A    between atoms: N_9  and  C_18
    8  A    between atoms: C_12  and  C_16
                            x       y       z     vdW  Elec       q    Type
                         _______ _______ _______ _____ _____    ______ ____

>  <TORSDO>
F 8

$$$$
=
 OpenBabel10222416073D

 26 31  0  0  1  0  0  0  0  0999 V2000
  189.7500  177.6040  142.2910 N   0  0  0  0  0  0  0  0  0  0  0  0
  190.5530  179.2350  144.0860 C   0  0  0  0  0  2  0  0  0  0  0  0
  190.2340  177.8050  143.6760 C   0  0  0  0  0  0  0  0  0  0  0  0
  191.6840  178.2360  143.8460 C   0  0  0  0  0  2  0  0  0  0  0  0
  189.4490  177.2800  146.6150 C   0  0  2  0  0  0  0  0  0  0  0  0
  187.3180  177.8400  145.5460 C   0  0  0  0  0  3  0  0  0  0  0  0
  187.7360  178.1470  147.9780 C   0  0  0  0  0  3  0  0  0  0  0  0
  189.7100  176.8250  144.7470 C   0  0  1  0  0  0  0  0  0  0  0  0
  189.0620  177.6560  147.8880 C   0  0  0  0  0  3  0  0  0  0  0  0
  188.6160  177.3690  145.4940 C   0  0  0  0  0  0  0  0  0  0  0  0
  186.8840  178.2380  146.8340 C   0  0  0  0  0  2  0  0  0  0  0  0
  190.5450  176.7560  145.8580 O   0  0  0  0  0  0  0  0  0  0  0  0
  188.3000  177.3760  142.1240 C   0  0  0  0  0  2  0  0  0  0  0  0
  187.5890  178.4460  141.3420 C   0  0  0  0  0  0  0  0  0  0  0  0
  188.1610  179.0000  140.3670 O   0  0  0  0  0  0  0  0  0  0  0  0
  186.2570  178.8160  141.6800 N   0  0  0  0  0  1  0  0  0  0  0  0
  190.5540  176.6050  141.5870 C   0  0  0  0  0  2  0  0  0  0  0  0
  191.1110  177.1900  140.2960 C   0  0  0  0  0  2  0  0  0  0  0  0
  190.5600  176.4670  139.0740 C   0  0  0  0  0  2  0  0  0  0  0  0
  192.6600  174.5800  135.1470 O   0  0  0  0  0  1  0  0  0  0  0  0
  192.9460  176.3760  138.3380 C   0  0  0  0  0  2  0  0  0  0  0  0
  191.5090  176.5820  137.8880 C   0  0  1  0  0  3  0  0  0  0  0  0
  192.4890  174.8650  136.5000 C   0  0  1  0  0  0  0  0  0  0  0  0
  193.6100  175.5360  137.2660 C   0  0  0  0  0  2  0  0  0  0  0  0
  191.1880  175.5720  136.7840 C   0  0  1  0  0  3  0  0  0  0  0  0
  191.3930  174.1190  137.2250 C   0  0  0  0  0  2  0  0  0  0  0  0
  1  3  1  0  0  0  0
  3  4  1  0  0  0  0
  3  2  1  0  0  0  0
  4  2  1  0  0  0  0
  5  9  1  1  0  0  0
  6 11  1  0  0  0  0
  8  3  1  6  0  0  0
  8 10  1  0  0  0  0
  8 12  1  0  0  0  0
  8  5  1  0  0  0  0
  9  7  2  0  0  0  0
 10  6  2  0  0  0  0
 10  5  1  0  0  0  0
 11  7  1  0  0  0  0
 12  5  1  0  0  0  0
 13  1  1  0  0  0  0
 14 16  1  0  0  0  0
 14 13  1  0  0  0  0
 15 14  2  0  0  0  0
 17  1  1  0  0  0  0
 18 17  1  0  0  0  0
 19 18  1  0  0  0  0
 22 21  1  0  0  0  0
 22 19  1  1  0  0  0
 23 20  1  6  0  0  0
 23 25  1  0  0  0  0
 23 26  1  0  0  0  0
 23 24  1  0  0  0  0
 24 21  1  0  0  0  0
 25 26  1  1  0  0  0
 25 22  1  0  0  0  0
M  END
>  <MODEL>
5

>  <REMARK>
 VINA RESULT:      -7.2      2.923      6.684
  Name = 
  8 active torsions:
  status: ('A' for Active; 'I' for Inactive)
    1  A    between atoms: C_5  and  C_8
    2  A    between atoms: C_6  and  N_9
    3  A    between atoms: C_6  and  C_11
    4  A    between atoms: C_7  and  C_8
    5  A    between atoms: C_7  and  C_18
    6  A    between atoms: N_9  and  C_12
    7  A    between atoms: N_9  and  C_18
    8  A    between atoms: C_12  and  C_16
                            x       y       z     vdW  Elec       q    Type
                         _______ _______ _______ _____ _____    ______ ____

>  <TORSDO>
F 8

$$$$
=
 OpenBabel10222416073D

 26 31  0  0  1  0  0  0  0  0999 V2000
  189.2110  177.7420  144.1700 N   0  0  0  0  0  0  0  0  0  0  0  0
  190.1830  175.5880  143.1990 C   0  0  0  0  0  2  0  0  0  0  0  0
  190.2280  177.1050  143.3020 C   0  0  0  0  0  0  0  0  0  0  0  0
  191.2980  176.2700  143.9890 C   0  0  0  0  0  2  0  0  0  0  0  0
  191.0210  177.1700  140.3190 C   0  0  2  0  0  0  0  0  0  0  0  0
  188.6620  177.8290  140.2980 C   0  0  0  0  0  3  0  0  0  0  0  0
  189.7970  176.7890  138.3440 C   0  0  0  0  0  3  0  0  0  0  0  0
  190.7110  177.9180  142.0820 C   0  0  1  0  0  0  0  0  0  0  0  0
  191.0370  176.6900  139.0230 C   0  0  0  0  0  3  0  0  0  0  0  0
  189.8860  177.7130  140.9300 C   0  0  0  0  0  0  0  0  0  0  0  0
  188.6370  177.3450  138.9660 C   0  0  0  0  0  2  0  0  0  0  0  0
  191.8350  177.3590  141.4820 O   0  0  0  0  0  0  0  0  0  0  0  0
  189.6720  178.2150  145.4910 C   0  0  0  0  0  2  0  0  0  0  0  0
  189.0820  177.4730  146.6570 C   0  0  0  0  0  0  0  0  0  0  0  0
  189.6770  176.4720  147.1360 O   0  0  0  0  0  0  0  0  0  0  0  0
  187.8630  177.9140  147.2460 N   0  0  0  0  0  1  0  0  0  0  0  0
  188.0030  176.9220  144.2630 C   0  0  0  0  0  2  0  0  0  0  0  0
  186.9010  177.5020  143.3860 C   0  0  0  0  0  2  0  0  0  0  0  0
  185.8780  178.2700  144.2120 C   0  0  0  0  0  2  0  0  0  0  0  0
  181.5060  180.0850  143.2180 O   0  0  0  0  0  1  0  0  0  0  0  0
  184.4980  178.2550  142.1280 C   0  0  0  0  0  2  0  0  0  0  0  0
  184.9460  179.0830  143.3220 C   0  0  1  0  0  3  0  0  0  0  0  0
  182.5320  179.1430  143.2320 C   0  0  1  0  0  0  0  0  0  0  0  0
  183.0290  178.5660  141.9230 C   0  0  0  0  0  2  0  0  0  0  0  0
  183.7060  179.5760  144.0730 C   0  0  1  0  0  3  0  0  0  0  0  0
  182.7970  178.4360  144.5410 C   0  0  0  0  0  2  0  0  0  0  0  0
  1 17  1  0  0  0  0
  1 13  1  0  0  0  0
  2  3  1  0  0  0  0
  2  4  1  0  0  0  0
  3  4  1  0  0  0  0
  3  1  1  0  0  0  0
  5  9  1  6  0  0  0
  5 10  1  0  0  0  0
  5 12  1  0  0  0  0
  5  8  1  0  0  0  0
  6 10  2  0  0  0  0
  7 11  1  0  0  0  0
  7  9  2  0  0  0  0
  8  3  1  1  0  0  0
 10  8  1  0  0  0  0
 11  6  1  0  0  0  0
 12  8  1  0  0  0  0
 13 14  1  0  0  0  0
 14 15  2  0  0  0  0
 14 16  1  0  0  0  0
 18 19  1  0  0  0  0
 18 17  1  0  0  0  0
 21 22  1  0  0  0  0
 22 25  1  0  0  0  0
 22 19  1  1  0  0  0
 23 20  1  6  0  0  0
 23 25  1  0  0  0  0
 23 26  1  0  0  0  0
 24 21  1  0  0  0  0
 24 23  1  0  0  0  0
 25 26  1  1  0  0  0
M  END
>  <MODEL>
6

>  <REMARK>
 VINA RESULT:      -7.0      2.257      4.985
  Name = 
  8 active torsions:
  status: ('A' for Active; 'I' for Inactive)
    1  A    between atoms: C_5  and  C_8
    2  A    between atoms: C_6  and  N_9
    3  A    between atoms: C_6  and  C_11
    4  A    between atoms: C_7  and  C_8
    5  A    between atoms: C_7  and  C_18
    6  A    between atoms: N_9  and  C_12
    7  A    between atoms: N_9  and  C_18
    8  A    between atoms: C_12  and  C_16
                            x       y       z     vdW  Elec       q    Type
                         _______ _______ _______ _____ _____    ______ ____

>  <TORSDO>
F 8

$$$$
=
 OpenBabel10222416073D

 26 31  0  0  1  0  0  0  0  0999 V2000
  188.5120  177.4300  140.7600 N   0  0  0  0  0  0  0  0  0  0  0  0
  189.9860  176.3030  139.0030 C   0  0  0  0  0  2  0  0  0  0  0  0
  189.2040  177.5270  139.4540 C   0  0  0  0  0  0  0  0  0  0  0  0
  190.7260  177.5520  139.4780 C   0  0  0  0  0  2  0  0  0  0  0  0
  188.5670  178.0530  136.4800 C   0  0  2  0  0  0  0  0  0  0  0  0
  186.5550  176.9270  137.3050 C   0  0  0  0  0  3  0  0  0  0  0  0
  187.2400  176.8980  134.9140 C   0  0  0  0  0  3  0  0  0  0  0  0
  188.5490  178.4260  138.3830 C   0  0  1  0  0  0  0  0  0  0  0  0
  188.3930  177.6850  135.1590 C   0  0  0  0  0  3  0  0  0  0  0  0
  187.6890  177.6890  137.5070 C   0  0  0  0  0  0  0  0  0  0  0  0
  186.3420  176.5270  135.9620 C   0  0  0  0  0  2  0  0  0  0  0  0
  189.4330  178.7700  137.3650 O   0  0  0  0  0  0  0  0  0  0  0  0
  187.9450  178.6810  141.3030 C   0  0  0  0  0  2  0  0  0  0  0  0
  186.4420  178.7140  141.3460 C   0  0  0  0  0  0  0  0  0  0  0  0
  185.8390  178.5550  142.4390 O   0  0  0  0  0  0  0  0  0  0  0  0
  185.6960  178.9540  140.1590 N   0  0  0  0  0  1  0  0  0  0  0  0
  189.3290  176.7160  141.7410 C   0  0  0  0  0  2  0  0  0  0  0  0
  188.5520  176.5260  143.0380 C   0  0  0  0  0  2  0  0  0  0  0  0
  189.4000  176.8770  144.2520 C   0  0  0  0  0  2  0  0  0  0  0  0
  188.2370  178.4610  148.6720 O   0  0  0  0  0  1  0  0  0  0  0  0
  187.2080  177.4930  145.2820 C   0  0  0  0  0  2  0  0  0  0  0  0
  188.6780  177.8600  145.1660 C   0  0  1  0  0  3  0  0  0  0  0  0
  188.1300  177.6950  147.5130 C   0  0  1  0  0  0  0  0  0  0  0  0
  186.8310  177.7020  146.7350 C   0  0  0  0  0  2  0  0  0  0  0  0
  189.2870  177.9050  146.5700 C   0  0  1  0  0  3  0  0  0  0  0  0
  189.1380  176.5840  147.3300 C   0  0  0  0  0  2  0  0  0  0  0  0
  1 13  1  0  0  0  0
  1 17  1  0  0  0  0
  2  3  1  0  0  0  0
  2  4  1  0  0  0  0
  3  4  1  0  0  0  0
  3  1  1  0  0  0  0
  5  9  1  6  0  0  0
  5 12  1  0  0  0  0
  5 10  1  0  0  0  0
  5  8  1  0  0  0  0
  6 10  2  0  0  0  0
  7  9  2  0  0  0  0
  7 11  1  0  0  0  0
  8  3  1  1  0  0  0
 10  8  1  0  0  0  0
 11  6  1  0  0  0  0
 12  8  1  0  0  0  0
 13 14  1  0  0  0  0
 14 15  2  0  0  0  0
 16 14  1  0  0  0  0
 17 18  1  0  0  0  0
 18 19  1  0  0  0  0
 21 24  1  0  0  0  0
 22 19  1  6  0  0  0
 22 21  1  0  0  0  0
 22 25  1  0  0  0  0
 23 20  1  1  0  0  0
 24 23  1  0  0  0  0
 25 26  1  6  0  0  0
 25 23  1  0  0  0  0
 26 23  1  0  0  0  0
M  END
>  <MODEL>
7

>  <REMARK>
 VINA RESULT:      -6.9      2.568      6.213
  Name = 
  8 active torsions:
  status: ('A' for Active; 'I' for Inactive)
    1  A    between atoms: C_5  and  C_8
    2  A    between atoms: C_6  and  N_9
    3  A    between atoms: C_6  and  C_11
    4  A    between atoms: C_7  and  C_8
    5  A    between atoms: C_7  and  C_18
    6  A    between atoms: N_9  and  C_12
    7  A    between atoms: N_9  and  C_18
    8  A    between atoms: C_12  and  C_16
                            x       y       z     vdW  Elec       q    Type
                         _______ _______ _______ _____ _____    ______ ____

>  <TORSDO>
F 8

$$$$
=
 OpenBabel10222416073D

 26 31  0  0  1  0  0  0  0  0999 V2000
  189.5460  177.4750  141.7360 N   0  0  0  0  0  0  0  0  0  0  0  0
  190.3770  176.3280  139.6110 C   0  0  0  0  0  2  0  0  0  0  0  0
  189.6790  177.5120  140.2620 C   0  0  0  0  0  0  0  0  0  0  0  0
  191.0820  177.6800  139.6970 C   0  0  0  0  0  2  0  0  0  0  0  0
  188.6100  178.5820  137.5710 C   0  0  2  0  0  0  0  0  0  0  0  0
  187.5520  176.3820  137.7720 C   0  0  0  0  0  3  0  0  0  0  0  0
  187.9450  177.5010  135.5860 C   0  0  0  0  0  3  0  0  0  0  0  0
  188.5650  178.2390  139.4800 C   0  0  1  0  0  0  0  0  0  0  0  0
  188.5400  178.6370  136.1910 C   0  0  0  0  0  3  0  0  0  0  0  0
  188.1400  177.5030  138.3280 C   0  0  0  0  0  0  0  0  0  0  0  0
  187.4630  176.4000  136.3580 C   0  0  0  0  0  2  0  0  0  0  0  0
  189.0520  179.3020  138.7260 O   0  0  0  0  0  0  0  0  0  0  0  0
  190.0630  176.2710  142.4180 C   0  0  0  0  0  2  0  0  0  0  0  0
  191.2390  176.5240  143.3200 C   0  0  0  0  0  0  0  0  0  0  0  0
  191.6800  175.6030  144.0560 O   0  0  0  0  0  0  0  0  0  0  0  0
  191.8780  177.7960  143.3250 N   0  0  0  0  0  1  0  0  0  0  0  0
  188.1860  177.8110  142.1560 C   0  0  0  0  0  2  0  0  0  0  0  0
  187.7270  176.8730  143.2650 C   0  0  0  0  0  2  0  0  0  0  0  0
  187.9190  177.5000  144.6400 C   0  0  0  0  0  2  0  0  0  0  0  0
  183.4090  179.0010  145.5320 O   0  0  0  0  0  1  0  0  0  0  0  0
  186.7900  178.2350  146.7440 C   0  0  0  0  0  2  0  0  0  0  0  0
  186.6350  177.4410  145.4580 C   0  0  1  0  0  3  0  0  0  0  0  0
  184.8000  179.0070  145.5970 C   0  0  1  0  0  0  0  0  0  0  0  0
  185.4810  178.9710  146.9490 C   0  0  0  0  0  2  0  0  0  0  0  0
  185.4280  177.9820  144.6870 C   0  0  1  0  0  3  0  0  0  0  0  0
  185.5420  179.4760  144.3680 C   0  0  0  0  0  2  0  0  0  0  0  0
  1 17  1  0  0  0  0
  1 13  1  0  0  0  0
  2  4  1  0  0  0  0
  2  3  1  0  0  0  0
  3  1  1  0  0  0  0
  4  3  1  0  0  0  0
  5  9  1  1  0  0  0
  5 10  1  0  0  0  0
  5 12  1  0  0  0  0
  5  8  1  0  0  0  0
  6 10  2  0  0  0  0
  7  9  2  0  0  0  0
  7 11  1  0  0  0  0
  8  3  1  6  0  0  0
 10  8  1  0  0  0  0
 11  6  1  0  0  0  0
 12  8  1  0  0  0  0
 13 14  1  0  0  0  0
 14 16  1  0  0  0  0
 14 15  2  0  0  0  0
 17 18  1  0  0  0  0
 18 19  1  0  0  0  0
 21 24  1  0  0  0  0
 22 19  1  6  0  0  0
 22 21  1  0  0  0  0
 23 20  1  6  0  0  0
 23 24  1  0  0  0  0
 25 26  1  6  0  0  0
 25 22  1  0  0  0  0
 25 23  1  0  0  0  0
 26 23  1  0  0  0  0
M  END
>  <MODEL>
8

>  <REMARK>
 VINA RESULT:      -6.8      1.930      5.723
  Name = 
  8 active torsions:
  status: ('A' for Active; 'I' for Inactive)
    1  A    between atoms: C_5  and  C_8
    2  A    between atoms: C_6  and  N_9
    3  A    between atoms: C_6  and  C_11
    4  A    between atoms: C_7  and  C_8
    5  A    between atoms: C_7  and  C_18
    6  A    between atoms: N_9  and  C_12
    7  A    between atoms: N_9  and  C_18
    8  A    between atoms: C_12  and  C_16
                            x       y       z     vdW  Elec       q    Type
                         _______ _______ _______ _____ _____    ______ ____

>  <TORSDO>
F 8

$$$$
=
 OpenBabel10222416073D

 26 31  0  0  1  0  0  0  0  0999 V2000
  186.6400  178.0730  144.0650 N   0  0  0  0  0  0  0  0  0  0  0  0
  188.4270  177.1590  142.4850 C   0  0  0  0  0  2  0  0  0  0  0  0
  188.0340  177.6070  143.8840 C   0  0  0  0  0  0  0  0  0  0  0  0
  188.2360  176.1270  143.5940 C   0  0  0  0  0  2  0  0  0  0  0  0
  189.8690  177.4110  146.3580 C   0  0  2  0  0  0  0  0  0  0  0  0
  191.3130  176.6880  144.5170 C   0  0  0  0  0  3  0  0  0  0  0  0
  191.6830  176.0020  146.8790 C   0  0  0  0  0  3  0  0  0  0  0  0
  189.1070  178.2530  144.7850 C   0  0  1  0  0  0  0  0  0  0  0  0
  190.5630  176.7350  147.3440 C   0  0  0  0  0  3  0  0  0  0  0  0
  190.2260  177.3870  145.0060 C   0  0  0  0  0  0  0  0  0  0  0  0
  192.0500  175.9790  145.4980 C   0  0  0  0  0  2  0  0  0  0  0  0
  188.7400  178.2590  146.1280 O   0  0  0  0  0  0  0  0  0  0  0  0
  185.9420  177.6140  145.2830 C   0  0  0  0  0  2  0  0  0  0  0  0
  185.1450  178.6800  145.9810 C   0  0  0  0  0  0  0  0  0  0  0  0
  185.6460  179.3120  146.9480 O   0  0  0  0  0  0  0  0  0  0  0  0
  183.8320  179.0010  145.5360 N   0  0  0  0  0  1  0  0  0  0  0  0
  185.8470  177.8590  142.8550 C   0  0  0  0  0  2  0  0  0  0  0  0
  185.4310  179.1930  142.2510 C   0  0  0  0  0  2  0  0  0  0  0  0
  184.6100  179.0000  140.9830 C   0  0  0  0  0  2  0  0  0  0  0  0
  180.9630  176.3140  139.2860 O   0  0  0  0  0  1  0  0  0  0  0  0
  182.2690  178.6610  141.7910 C   0  0  0  0  0  2  0  0  0  0  0  0
  183.4940  177.9850  141.1970 C   0  0  1  0  0  3  0  0  0  0  0  0
  181.5910  177.4410  139.8100 C   0  0  1  0  0  0  0  0  0  0  0  0
  181.0690  178.0560  141.0920 C   0  0  0  0  0  2  0  0  0  0  0  0
  183.0880  177.2830  139.8980 C   0  0  1  0  0  3  0  0  0  0  0  0
  182.4690  178.2360  138.8710 C   0  0  0  0  0  2  0  0  0  0  0  0
  1 13  1  0  0  0  0
  2  4  1  0  0  0  0
  2  3  1  0  0  0  0
  3  1  1  0  0  0  0
  4  3  1  0  0  0  0
  5  9  1  1  0  0  0
  6 10  2  0  0  0  0
  6 11  1  0  0  0  0
  7  9  2  0  0  0  0
  8  3  1  6  0  0  0
  8 10  1  0  0  0  0
  8 12  1  0  0  0  0
  8  5  1  0  0  0  0
 10  5  1  0  0  0  0
 11  7  1  0  0  0  0
 12  5  1  0  0  0  0
 13 14  1  0  0  0  0
 14 15  2  0  0  0  0
 16 14  1  0  0  0  0
 17  1  1  0  0  0  0
 18 17  1  0  0  0  0
 19 18  1  0  0  0  0
 22 19  1  6  0  0  0
 22 21  1  0  0  0  0
 23 20  1  6  0  0  0
 23 25  1  0  0  0  0
 23 24  1  0  0  0  0
 24 21  1  0  0  0  0
 25 26  1  6  0  0  0
 25 22  1  0  0  0  0
 26 23  1  0  0  0  0
M  END
>  <MODEL>
9

>  <REMARK>
 VINA RESULT:      -6.8      3.112      5.017
  Name = 
  8 active torsions:
  status: ('A' for Active; 'I' for Inactive)
    1  A    between atoms: C_5  and  C_8
    2  A    between atoms: C_6  and  N_9
    3  A    between atoms: C_6  and  C_11
    4  A    between atoms: C_7  and  C_8
    5  A    between atoms: C_7  and  C_18
    6  A    between atoms: N_9  and  C_12
    7  A    between atoms: N_9  and  C_18
    8  A    between atoms: C_12  and  C_16
                            x       y       z     vdW  Elec       q    Type
                         _______ _______ _______ _____ _____    ______ ____

>  <TORSDO>
F 8

$$$$
