=
 OpenBabel10222419253D

 49 55  0  0  1  0  0  0  0  0999 V2000
  188.1650  178.3120  141.9780 N   0  0  0  0  0  2  0  0  0  0  0  0
  188.7080  177.9020  138.3290 C   0  0  0  0  0  0  0  0  0  0  0  0
  190.2200  176.7860  136.9960 N   0  0  0  0  0  2  0  0  0  0  0  0
  190.3840  176.6110  139.4800 C   0  0  0  0  0  3  0  0  0  0  0  0
  188.1430  178.3290  139.5310 C   0  0  0  0  0  3  0  0  0  0  0  0
  189.7930  177.0750  138.3090 C   0  0  0  0  0  0  0  0  0  0  0  0
  189.3310  177.4950  136.0730 C   0  0  2  0  0  3  0  0  0  0  0  0
  188.2950  178.2400  136.9430 C   0  0  0  0  0  2  0  0  0  0  0  0
  189.8350  177.0230  140.7050 C   0  0  0  0  0  3  0  0  0  0  0  0
  188.7180  177.8840  140.7350 C   0  0  0  0  0  0  0  0  0  0  0  0
  188.4720  176.3020  135.0060 S   0  0  0  0  0  0  0  0  0  0  0  0
  188.2260  173.6980  135.8160 C   0  0  0  0  0  2  0  0  0  0  0  0
  188.1030  175.1370  136.3510 C   0  0  2  0  0  3  0  0  0  0  0  0
  187.0270  173.0690  136.3260 N   0  0  1  0  0  0  0  0  0  0  0  0
  184.7920  173.3730  136.7270 C   0  0  2  0  0  3  0  0  0  0  0  0
  186.0100  174.0680  136.1530 C   0  0  1  0  0  0  0  0  0  0  0  0
  186.6290  175.2770  136.7960 C   0  0  0  0  0  2  0  0  0  0  0  0
  186.4580  171.8840  135.7210 C   0  0  0  0  0  2  0  0  0  0  0  0
  185.7940  174.3530  134.7870 O   0  0  0  0  0  1  0  0  0  0  0  0
  184.9830  171.9410  136.1780 C   0  0  0  0  0  2  0  0  0  0  0  0
  183.4690  173.9660  136.2510 C   0  0  0  0  0  2  0  0  0  0  0  0
  181.8270  175.7780  136.9530 N   0  0  0  0  0  2  0  0  0  0  0  0
  183.4440  174.9760  138.4070 O   0  0  0  0  0  0  0  0  0  0  0  0
  181.1930  175.7940  135.6450 C   0  0  0  0  0  1  0  0  0  0  0  0
  182.9340  174.9330  137.2580 C   0  0  0  0  0  0  0  0  0  0  0  0
  186.8360  178.0260  142.3200 N   0  0  0  0  0  2  0  0  0  0  0  0
  186.1320  179.2910  142.4290 C   0  0  0  0  0  2  0  0  0  0  0  0
  184.6490  179.0470  142.6980 C   0  0  1  0  0  3  0  0  0  0  0  0
  183.9950  178.4020  141.4730 C   0  0  1  0  0  3  0  0  0  0  0  0
  182.2740  178.5880  139.1710 C   0  0  0  0  0  2  0  0  0  0  0  0
  182.4720  178.5260  141.5350 C   0  0  0  0  0  2  0  0  0  0  0  0
  180.4350  178.0210  140.4980 C   0  0  0  0  0  1  0  0  0  0  0  0
  181.8720  177.8650  140.3740 N   0  0  0  0  0  0  0  0  0  0  0  0
  183.7830  178.4780  138.9730 C   0  0  0  0  0  2  0  0  0  0  0  0
  184.4950  179.0680  140.1880 C   0  0  0  0  0  2  0  0  0  0  0  0
  184.5180  178.2060  143.8130 O   0  0  0  0  0  0  0  0  0  0  0  0
  185.6440  177.8810  145.8410 C   0  0  1  0  0  3  0  0  0  0  0  0
  184.4770  178.6340  146.0550 O   0  0  0  0  0  0  0  0  0  0  0  0
  185.1660  178.8730  144.8540 C   0  0  2  0  0  3  0  0  0  0  0  0
  186.7280  178.4470  146.6250 N   0  0  0  0  0  2  0  0  0  0  0  0
  189.0370  177.6010  147.8520 S   0  0  0  0  0  0  0  0  0  0  0  0
  189.9920  177.1050  145.5870 C   0  0  0  0  0  0  0  0  0  0  0  0
  190.3230  177.0220  146.9420 C   0  0  0  0  0  0  0  0  0  0  0  0
  188.0610  177.9510  146.5290 C   0  0  0  0  0  0  0  0  0  0  0  0
  188.7140  177.6210  145.3480 C   0  0  0  0  0  3  0  0  0  0  0  0
  192.4860  176.0170  147.9660 N   0  0  0  0  0  0  0  0  0  0  0  0
  191.5210  176.4650  147.5090 C   0  0  0  0  0  0  0  0  0  0  0  0
  190.8460  176.7150  144.5130 N   0  0  0  0  0  2  0  0  0  0  0  0
  191.4560  177.6130  143.6990 O   0  0  0  0  0  1  0  0  0  0  0  0
  1 26  1  0  0  0  0
  2  5  1  0  0  0  0
  3  6  1  0  0  0  0
  4  9  2  0  0  0  0
  5 10  2  0  0  0  0
  6  2  2  0  0  0  0
  6  4  1  0  0  0  0
  7 11  1  6  0  0  0
  7  8  1  0  0  0  0
  7  3  1  0  0  0  0
  8  2  1  0  0  0  0
  9 10  1  0  0  0  0
 10  1  1  0  0  0  0
 12 14  1  0  0  0  0
 12 13  1  0  0  0  0
 13 11  1  6  0  0  0
 13 17  1  0  0  0  0
 14 18  1  6  0  0  0
 15 21  1  6  0  0  0
 16 19  1  6  0  0  0
 16 14  1  0  0  0  0
 16 15  1  0  0  0  0
 16 17  1  0  0  0  0
 18 20  1  0  0  0  0
 20 15  1  0  0  0  0
 21 25  1  0  0  0  0
 22 25  1  0  0  0  0
 24 22  1  0  0  0  0
 25 23  2  0  0  0  0
 26 27  1  0  0  0  0
 28 27  1  6  0  0  0
 28 36  1  0  0  0  0
 29 31  1  0  0  0  0
 29 28  1  1  0  0  0
 30 33  1  0  0  0  0
 33 32  1  0  0  0  0
 33 31  1  0  0  0  0
 34 30  1  0  0  0  0
 34 35  1  0  0  0  0
 35 29  1  0  0  0  0
 37 38  1  0  0  0  0
 37 40  1  1  0  0  0
 39 36  1  6  0  0  0
 39 37  1  0  0  0  0
 39 38  1  0  0  0  0
 42 43  2  0  0  0  0
 43 47  1  0  0  0  0
 43 41  1  0  0  0  0
 44 40  1  0  0  0  0
 44 41  1  0  0  0  0
 45 42  1  0  0  0  0
 45 44  2  0  0  0  0
 47 46  3  0  0  0  0
 48 42  1  0  0  0  0
 49 48  1  0  0  0  0
M  END
>  <MODEL>
1

>  <REMARK>
 VINA RESULT:      -7.9      0.000      0.000
  Name = 
  15 active torsions:
  status: ('A' for Active; 'I' for Inactive)
    1  A    between atoms: C_1  and  C_10
    2  A    between atoms: N_4  and  C_39
    3  A    between atoms: N_4  and  N_48
    4  A    between atoms: C_8  and  C_29
    5  A    between atoms: C_8  and  C_37
    6  A    between atoms: C_10  and  O_17
    7  A    between atoms: C_10  and  C_39
    8  A    between atoms: N_12  and  C_31
    9  A    between atoms: C_14  and  C_34
   10  A    between atoms: O_17  and  C_40
   11  A    between atoms: C_18  and  S_24
   12  A    between atoms: C_19  and  N_32
   13  A    between atoms: S_24  and  C_35
   14  A    between atoms: N_32  and  C_38
   15  A    between atoms: C_46  and  N_48
                            x       y       z     vdW  Elec       q    Type
                         _______ _______ _______ _____ _____    ______ ____

>  <TORSDO>
F 15

$$$$
=
 OpenBabel10222419253D

 49 55  0  0  1  0  0  0  0  0999 V2000
  191.0620  177.1720  141.2040 N   0  0  0  0  0  2  0  0  0  0  0  0
  189.1980  177.8230  138.0600 C   0  0  0  0  0  0  0  0  0  0  0  0
  189.5120  177.3610  135.8240 N   0  0  0  0  0  2  0  0  0  0  0  0
  191.1830  176.5750  137.5040 C   0  0  0  0  0  3  0  0  0  0  0  0
  189.5200  177.8220  139.4170 C   0  0  0  0  0  3  0  0  0  0  0  0
  190.0060  177.2230  137.1390 C   0  0  0  0  0  0  0  0  0  0  0  0
  188.2660  178.1270  135.8960 C   0  0  2  0  0  3  0  0  0  0  0  0
  188.0230  178.4360  137.3900 C   0  0  0  0  0  2  0  0  0  0  0  0
  191.5300  176.5570  138.8640 C   0  0  0  0  0  3  0  0  0  0  0  0
  190.7050  177.1820  139.8230 C   0  0  0  0  0  0  0  0  0  0  0  0
  186.8900  177.1260  135.2590 S   0  0  0  0  0  0  0  0  0  0  0  0
  187.0570  174.8410  136.7570 C   0  0  0  0  0  2  0  0  0  0  0  0
  186.5620  176.2960  136.8420 C   0  0  2  0  0  3  0  0  0  0  0  0
  185.9480  174.0980  137.3140 N   0  0  1  0  0  0  0  0  0  0  0  0
  183.6640  173.9520  137.4040 C   0  0  2  0  0  3  0  0  0  0  0  0
  184.7870  174.7450  136.7680 C   0  0  1  0  0  0  0  0  0  0  0  0
  185.0410  176.1910  137.0910 C   0  0  0  0  0  2  0  0  0  0  0  0
  185.7330  172.6960  137.0260 C   0  0  0  0  0  2  0  0  0  0  0  0
  184.7330  174.6060  135.3640 O   0  0  0  0  0  1  0  0  0  0  0  0
  184.2250  172.5160  137.3090 C   0  0  0  0  0  2  0  0  0  0  0  0
  182.3380  174.0670  136.6570 C   0  0  0  0  0  2  0  0  0  0  0  0
  180.2260  173.9840  138.0750 N   0  0  0  0  0  2  0  0  0  0  0  0
  181.4160  175.9520  137.7840 O   0  0  0  0  0  0  0  0  0  0  0  0
  180.0270  172.5710  137.8030 C   0  0  0  0  0  1  0  0  0  0  0  0
  181.3070  174.7280  137.5160 C   0  0  0  0  0  0  0  0  0  0  0  0
  190.2520  176.5440  142.1600 N   0  0  0  0  0  2  0  0  0  0  0  0
  189.8410  177.5570  143.1160 C   0  0  0  0  0  2  0  0  0  0  0  0
  188.4200  177.2780  143.6000 C   0  0  1  0  0  3  0  0  0  0  0  0
  188.4280  176.9820  145.1020 C   0  0  1  0  0  3  0  0  0  0  0  0
  189.0740  177.7600  147.7990 C   0  0  0  0  0  2  0  0  0  0  0  0
  189.8460  177.0530  145.6690 C   0  0  0  0  0  2  0  0  0  0  0  0
  191.1990  176.8130  147.5630 C   0  0  0  0  0  1  0  0  0  0  0  0
  189.8280  176.7250  147.0960 N   0  0  0  0  0  0  0  0  0  0  0  0
  187.6160  177.7390  147.3540 C   0  0  0  0  0  2  0  0  0  0  0  0
  187.5440  177.9860  145.8490 C   0  0  0  0  0  2  0  0  0  0  0  0
  187.6170  178.3970  143.3340 O   0  0  0  0  0  0  0  0  0  0  0  0
  185.9390  179.1510  141.8830 C   0  0  1  0  0  3  0  0  0  0  0  0
  185.5370  177.9530  142.5010 O   0  0  0  0  0  0  0  0  0  0  0  0
  186.9010  178.0680  142.1810 C   0  0  2  0  0  3  0  0  0  0  0  0
  185.5690  179.1110  140.4790 N   0  0  0  0  0  2  0  0  0  0  0  0
  182.9620  178.3370  140.8770 S   0  0  0  0  0  0  0  0  0  0  0  0
  182.3140  179.6840  138.8640 C   0  0  0  0  0  0  0  0  0  0  0  0
  181.7460  178.8820  139.8570 C   0  0  0  0  0  0  0  0  0  0  0  0
  184.2050  179.1210  140.0620 C   0  0  0  0  0  0  0  0  0  0  0  0
  183.7000  179.8290  138.9790 C   0  0  0  0  0  3  0  0  0  0  0  0
  179.2230  178.3920  140.2190 N   0  0  0  0  0  0  0  0  0  0  0  0
  180.3480  178.6090  140.0570 C   0  0  0  0  0  0  0  0  0  0  0  0
  181.5880  180.3140  137.8100 N   0  0  0  0  0  2  0  0  0  0  0  0
  181.2600  181.6300  137.8310 O   0  0  0  0  0  1  0  0  0  0  0  0
  1 26  1  0  0  0  0
  2  5  1  0  0  0  0
  3  7  1  0  0  0  0
  3  6  1  0  0  0  0
  4  9  2  0  0  0  0
  5 10  2  0  0  0  0
  6  4  1  0  0  0  0
  6  2  2  0  0  0  0
  7 11  1  1  0  0  0
  7  8  1  0  0  0  0
  8  2  1  0  0  0  0
  9 10  1  0  0  0  0
 10  1  1  0  0  0  0
 12 13  1  0  0  0  0
 13 11  1  6  0  0  0
 13 17  1  0  0  0  0
 14 12  1  6  0  0  0
 15 21  1  6  0  0  0
 16 19  1  6  0  0  0
 16 17  1  0  0  0  0
 16 14  1  0  0  0  0
 16 15  1  0  0  0  0
 18 20  1  0  0  0  0
 18 14  1  0  0  0  0
 20 15  1  0  0  0  0
 21 25  1  0  0  0  0
 24 22  1  0  0  0  0
 25 23  2  0  0  0  0
 25 22  1  0  0  0  0
 26 27  1  0  0  0  0
 28 27  1  1  0  0  0
 29 28  1  6  0  0  0
 29 31  1  0  0  0  0
 29 35  1  0  0  0  0
 31 33  1  0  0  0  0
 33 32  1  0  0  0  0
 33 30  1  0  0  0  0
 34 30  1  0  0  0  0
 35 34  1  0  0  0  0
 36 28  1  0  0  0  0
 37 40  1  6  0  0  0
 37 39  1  0  0  0  0
 37 38  1  0  0  0  0
 39 38  1  0  0  0  0
 39 36  1  1  0  0  0
 42 45  1  0  0  0  0
 42 43  2  0  0  0  0
 43 47  1  0  0  0  0
 43 41  1  0  0  0  0
 44 40  1  0  0  0  0
 44 41  1  0  0  0  0
 45 44  2  0  0  0  0
 47 46  3  0  0  0  0
 48 49  1  0  0  0  0
 48 42  1  0  0  0  0
M  END
>  <MODEL>
2

>  <REMARK>
 VINA RESULT:      -7.8      2.325      6.467
  Name = 
  15 active torsions:
  status: ('A' for Active; 'I' for Inactive)
    1  A    between atoms: C_1  and  C_10
    2  A    between atoms: N_4  and  C_39
    3  A    between atoms: N_4  and  N_48
    4  A    between atoms: C_8  and  C_29
    5  A    between atoms: C_8  and  C_37
    6  A    between atoms: C_10  and  O_17
    7  A    between atoms: C_10  and  C_39
    8  A    between atoms: N_12  and  C_31
    9  A    between atoms: C_14  and  C_34
   10  A    between atoms: O_17  and  C_40
   11  A    between atoms: C_18  and  S_24
   12  A    between atoms: C_19  and  N_32
   13  A    between atoms: S_24  and  C_35
   14  A    between atoms: N_32  and  C_38
   15  A    between atoms: C_46  and  N_48
                            x       y       z     vdW  Elec       q    Type
                         _______ _______ _______ _____ _____    ______ ____

>  <TORSDO>
F 15

$$$$
=
 OpenBabel10222419253D

 49 55  0  0  1  0  0  0  0  0999 V2000
  187.4980  178.7390  141.7420 N   0  0  0  0  0  2  0  0  0  0  0  0
  189.0660  176.9600  138.8860 C   0  0  0  0  0  0  0  0  0  0  0  0
  191.0160  175.7830  138.5380 N   0  0  0  0  0  2  0  0  0  0  0  0
  190.5170  176.7260  140.7950 C   0  0  0  0  0  3  0  0  0  0  0  0
  188.1440  177.7080  139.6180 C   0  0  0  0  0  3  0  0  0  0  0  0
  190.2120  176.4910  139.4570 C   0  0  0  0  0  0  0  0  0  0  0  0
  190.3290  175.7960  137.2450 C   0  0  2  0  0  3  0  0  0  0  0  0
  189.0070  176.5660  137.4550 C   0  0  0  0  0  2  0  0  0  0  0  0
  189.6060  177.4740  141.5560 C   0  0  0  0  0  3  0  0  0  0  0  0
  188.4210  177.9700  140.9720 C   0  0  0  0  0  0  0  0  0  0  0  0
  189.9560  174.0940  136.7290 S   0  0  0  0  0  0  0  0  0  0  0  0
  191.5040  172.7470  134.9170 C   0  0  0  0  0  2  0  0  0  0  0  0
  190.9840  174.1620  135.2320 C   0  0  2  0  0  3  0  0  0  0  0  0
  192.9060  172.9790  134.6460 N   0  0  1  0  0  0  0  0  0  0  0  0
  194.7530  174.1690  135.2930 C   0  0  2  0  0  3  0  0  0  0  0  0
  193.2960  173.9400  135.6400 C   0  0  1  0  0  0  0  0  0  0  0  0
  192.2510  175.0090  135.4860 C   0  0  0  0  0  2  0  0  0  0  0  0
  193.9000  171.9340  134.7630 C   0  0  0  0  0  2  0  0  0  0  0  0
  193.1960  173.4050  136.9430 O   0  0  0  0  0  1  0  0  0  0  0  0
  195.2090  172.7290  134.9680 C   0  0  0  0  0  2  0  0  0  0  0  0
  195.5710  174.7510  136.4430 C   0  0  0  0  0  2  0  0  0  0  0  0
  198.0280  175.3550  136.7110 N   0  0  0  0  0  2  0  0  0  0  0  0
  196.8560  175.8660  134.7770 O   0  0  0  0  0  0  0  0  0  0  0  0
  198.0780  174.8060  138.0550 C   0  0  0  0  0  1  0  0  0  0  0  0
  196.8340  175.3650  135.9310 C   0  0  0  0  0  0  0  0  0  0  0  0
  186.2470  178.2220  142.1060 N   0  0  0  0  0  2  0  0  0  0  0  0
  185.3280  179.3420  142.2140 C   0  0  0  0  0  2  0  0  0  0  0  0
  184.2770  179.0580  143.2840 C   0  0  1  0  0  3  0  0  0  0  0  0
  182.9760  178.5870  142.6270 C   0  0  1  0  0  3  0  0  0  0  0  0
  180.4500  179.1810  141.3770 C   0  0  0  0  0  2  0  0  0  0  0  0
  181.7560  179.1480  143.3580 C   0  0  0  0  0  2  0  0  0  0  0  0
  179.4200  179.2180  143.4750 C   0  0  0  0  0  1  0  0  0  0  0  0
  180.5300  178.6480  142.7350 N   0  0  0  0  0  0  0  0  0  0  0  0
  181.5950  178.6320  140.5310 C   0  0  0  0  0  2  0  0  0  0  0  0
  182.9250  179.0340  141.1620 C   0  0  0  0  0  2  0  0  0  0  0  0
  184.7620  178.0700  144.1530 O   0  0  0  0  0  0  0  0  0  0  0  0
  185.8110  177.8870  146.2400 C   0  0  1  0  0  3  0  0  0  0  0  0
  184.8730  178.9340  146.2640 O   0  0  0  0  0  0  0  0  0  0  0  0
  185.5760  178.7500  145.0610 C   0  0  2  0  0  3  0  0  0  0  0  0
  187.0170  178.3110  146.9300 N   0  0  0  0  0  2  0  0  0  0  0  0
  188.7420  177.1770  145.1160 S   0  0  0  0  0  0  0  0  0  0  0  0
  190.4880  177.0920  146.9140 C   0  0  0  0  0  0  0  0  0  0  0  0
  190.3100  176.7830  145.5630 C   0  0  0  0  0  0  0  0  0  0  0  0
  188.2900  177.7430  146.6320 C   0  0  0  0  0  0  0  0  0  0  0  0
  189.3530  177.6420  147.5200 C   0  0  0  0  0  3  0  0  0  0  0  0
  192.1040  175.8830  143.9160 N   0  0  0  0  0  0  0  0  0  0  0  0
  191.3040  176.2850  144.6500 C   0  0  0  0  0  0  0  0  0  0  0  0
  191.6920  176.8830  147.6470 N   0  0  0  0  0  2  0  0  0  0  0  0
  192.1340  175.6470  147.9930 O   0  0  0  0  0  1  0  0  0  0  0  0
  1 26  1  0  0  0  0
  2  6  2  0  0  0  0
  2  5  1  0  0  0  0
  3  6  1  0  0  0  0
  4  9  2  0  0  0  0
  5 10  2  0  0  0  0
  6  4  1  0  0  0  0
  7 11  1  1  0  0  0
  7  8  1  0  0  0  0
  7  3  1  0  0  0  0
  8  2  1  0  0  0  0
 10  9  1  0  0  0  0
 10  1  1  0  0  0  0
 12 13  1  0  0  0  0
 13 17  1  0  0  0  0
 13 11  1  1  0  0  0
 14 18  1  1  0  0  0
 14 12  1  0  0  0  0
 14 16  1  0  0  0  0
 15 16  1  0  0  0  0
 15 21  1  1  0  0  0
 16 19  1  1  0  0  0
 17 16  1  0  0  0  0
 18 20  1  0  0  0  0
 20 15  1  0  0  0  0
 22 24  1  0  0  0  0
 23 25  2  0  0  0  0
 25 21  1  0  0  0  0
 25 22  1  0  0  0  0
 26 27  1  0  0  0  0
 28 27  1  6  0  0  0
 28 36  1  0  0  0  0
 29 28  1  1  0  0  0
 29 31  1  0  0  0  0
 30 33  1  0  0  0  0
 33 31  1  0  0  0  0
 33 32  1  0  0  0  0
 34 35  1  0  0  0  0
 34 30  1  0  0  0  0
 35 29  1  0  0  0  0
 37 38  1  0  0  0  0
 37 40  1  1  0  0  0
 39 36  1  6  0  0  0
 39 37  1  0  0  0  0
 39 38  1  0  0  0  0
 41 43  1  0  0  0  0
 41 44  1  0  0  0  0
 42 45  1  0  0  0  0
 42 48  1  0  0  0  0
 43 42  2  0  0  0  0
 44 40  1  0  0  0  0
 44 45  2  0  0  0  0
 46 47  3  0  0  0  0
 47 43  1  0  0  0  0
 48 49  1  0  0  0  0
M  END
>  <MODEL>
3

>  <REMARK>
 VINA RESULT:      -7.4      3.796      5.918
  Name = 
  15 active torsions:
  status: ('A' for Active; 'I' for Inactive)
    1  A    between atoms: C_1  and  C_10
    2  A    between atoms: N_4  and  C_39
    3  A    between atoms: N_4  and  N_48
    4  A    between atoms: C_8  and  C_29
    5  A    between atoms: C_8  and  C_37
    6  A    between atoms: C_10  and  O_17
    7  A    between atoms: C_10  and  C_39
    8  A    between atoms: N_12  and  C_31
    9  A    between atoms: C_14  and  C_34
   10  A    between atoms: O_17  and  C_40
   11  A    between atoms: C_18  and  S_24
   12  A    between atoms: C_19  and  N_32
   13  A    between atoms: S_24  and  C_35
   14  A    between atoms: N_32  and  C_38
   15  A    between atoms: C_46  and  N_48
                            x       y       z     vdW  Elec       q    Type
                         _______ _______ _______ _____ _____    ______ ____

>  <TORSDO>
F 15

$$$$
=
 OpenBabel10222419253D

 49 55  0  0  1  0  0  0  0  0999 V2000
  190.3980  176.2230  137.4060 N   0  0  0  0  0  2  0  0  0  0  0  0
  186.7850  176.8030  136.7750 C   0  0  0  0  0  0  0  0  0  0  0  0
  185.3340  176.4460  135.0220 N   0  0  0  0  0  2  0  0  0  0  0  0
  187.7260  175.7610  134.8170 C   0  0  0  0  0  3  0  0  0  0  0  0
  188.0160  176.7870  137.4320 C   0  0  0  0  0  3  0  0  0  0  0  0
  186.6510  176.3110  135.5100 C   0  0  0  0  0  0  0  0  0  0  0  0
  184.5360  177.0920  136.0660 C   0  0  2  0  0  3  0  0  0  0  0  0
  185.4850  177.3280  137.2630 C   0  0  0  0  0  2  0  0  0  0  0  0
  188.9750  175.7300  135.4550 C   0  0  0  0  0  3  0  0  0  0  0  0
  189.1260  176.2450  136.7600 C   0  0  0  0  0  0  0  0  0  0  0  0
  183.1860  175.9900  136.5800 S   0  0  0  0  0  0  0  0  0  0  0  0
  182.1810  175.7400  139.1140 C   0  0  0  0  0  2  0  0  0  0  0  0
  183.0780  176.6600  138.2660 C   0  0  2  0  0  3  0  0  0  0  0  0
  181.3140  176.6810  139.7890 N   0  0  1  0  0  0  0  0  0  0  0  0
  180.1220  178.6210  139.5410 C   0  0  2  0  0  3  0  0  0  0  0  0
  181.0000  177.6510  138.7770 C   0  0  1  0  0  0  0  0  0  0  0  0
  182.3590  178.0280  138.2570 C   0  0  0  0  0  2  0  0  0  0  0  0
  180.0210  176.3000  140.3180 C   0  0  0  0  0  2  0  0  0  0  0  0
  180.2630  177.0740  137.7200 O   0  0  0  0  0  1  0  0  0  0  0  0
  179.2680  177.6470  140.3830 C   0  0  0  0  0  2  0  0  0  0  0  0
  179.2380  179.4820  138.6430 C   0  0  0  0  0  2  0  0  0  0  0  0
  180.4030  181.2830  137.2730 N   0  0  0  0  0  2  0  0  0  0  0  0
  179.7420  181.6600  139.4630 O   0  0  0  0  0  0  0  0  0  0  0  0
  180.5310  180.4070  136.1210 C   0  0  0  0  0  1  0  0  0  0  0  0
  179.8130  180.8540  138.5000 C   0  0  0  0  0  0  0  0  0  0  0  0
  190.5340  175.7780  138.7290 N   0  0  0  0  0  2  0  0  0  0  0  0
  190.9650  176.9110  139.5280 C   0  0  0  0  0  2  0  0  0  0  0  0
  190.1230  177.0110  140.7970 C   0  0  1  0  0  3  0  0  0  0  0  0
  191.0300  176.9910  142.0300 C   0  0  1  0  0  3  0  0  0  0  0  0
  191.3890  177.2750  144.8730 C   0  0  0  0  0  2  0  0  0  0  0  0
  190.9600  178.3180  142.7860 C   0  0  0  0  0  2  0  0  0  0  0  0
  191.7490  179.5680  144.6000 C   0  0  0  0  0  1  0  0  0  0  0  0
  191.8680  178.2850  143.9340 N   0  0  0  0  0  0  0  0  0  0  0  0
  191.4740  175.8890  144.2410 C   0  0  0  0  0  2  0  0  0  0  0  0
  190.6200  175.8590  142.9760 C   0  0  0  0  0  2  0  0  0  0  0  0
  189.3830  178.2030  140.7630 O   0  0  0  0  0  0  0  0  0  0  0  0
  187.2640  178.7540  141.5960 C   0  0  1  0  0  3  0  0  0  0  0  0
  187.6650  177.5030  142.0950 O   0  0  0  0  0  0  0  0  0  0  0  0
  188.0450  177.8030  140.7760 C   0  0  2  0  0  3  0  0  0  0  0  0
  185.8610  178.6920  141.2230 N   0  0  0  0  0  2  0  0  0  0  0  0
  183.1830  178.7030  141.8380 S   0  0  0  0  0  0  0  0  0  0  0  0
  183.7960  178.9750  144.2540 C   0  0  0  0  0  0  0  0  0  0  0  0
  182.6750  178.8420  143.4310 C   0  0  0  0  0  0  0  0  0  0  0  0
  184.8220  178.8070  142.1920 C   0  0  0  0  0  0  0  0  0  0  0  0
  185.0110  178.9480  143.5620 C   0  0  0  0  0  3  0  0  0  0  0  0
  180.1940  178.6770  144.1800 N   0  0  0  0  0  0  0  0  0  0  0  0
  181.3010  178.7510  143.8470 C   0  0  0  0  0  0  0  0  0  0  0  0
  183.7540  179.1280  145.6720 N   0  0  0  0  0  2  0  0  0  0  0  0
  184.6930  178.5950  146.4940 O   0  0  0  0  0  1  0  0  0  0  0  0
  1 26  1  0  0  0  0
  2  8  1  0  0  0  0
  2  5  1  0  0  0  0
  3  6  1  0  0  0  0
  3  7  1  0  0  0  0
  4  9  2  0  0  0  0
  4  6  1  0  0  0  0
  6  2  2  0  0  0  0
  7 11  1  1  0  0  0
  7  8  1  0  0  0  0
  9 10  1  0  0  0  0
 10  1  1  0  0  0  0
 10  5  2  0  0  0  0
 13 11  1  6  0  0  0
 13 12  1  0  0  0  0
 14 12  1  6  0  0  0
 14 18  1  0  0  0  0
 15 21  1  6  0  0  0
 15 20  1  0  0  0  0
 16 19  1  6  0  0  0
 16 15  1  0  0  0  0
 16 14  1  0  0  0  0
 17 13  1  0  0  0  0
 17 16  1  0  0  0  0
 18 20  1  0  0  0  0
 22 25  1  0  0  0  0
 24 22  1  0  0  0  0
 25 21  1  0  0  0  0
 25 23  2  0  0  0  0
 26 27  1  0  0  0  0
 28 27  1  6  0  0  0
 29 28  1  6  0  0  0
 29 31  1  0  0  0  0
 29 35  1  0  0  0  0
 31 33  1  0  0  0  0
 33 32  1  0  0  0  0
 33 30  1  0  0  0  0
 34 30  1  0  0  0  0
 35 34  1  0  0  0  0
 36 28  1  0  0  0  0
 37 40  1  6  0  0  0
 37 38  1  0  0  0  0
 39 36  1  1  0  0  0
 39 37  1  0  0  0  0
 39 38  1  0  0  0  0
 40 44  1  0  0  0  0
 41 44  1  0  0  0  0
 41 43  1  0  0  0  0
 42 48  1  0  0  0  0
 43 47  1  0  0  0  0
 43 42  2  0  0  0  0
 44 45  2  0  0  0  0
 45 42  1  0  0  0  0
 47 46  3  0  0  0  0
 48 49  1  0  0  0  0
M  END
>  <MODEL>
4

>  <REMARK>
 VINA RESULT:      -7.1      2.951      7.099
  Name = 
  15 active torsions:
  status: ('A' for Active; 'I' for Inactive)
    1  A    between atoms: C_1  and  C_10
    2  A    between atoms: N_4  and  C_39
    3  A    between atoms: N_4  and  N_48
    4  A    between atoms: C_8  and  C_29
    5  A    between atoms: C_8  and  C_37
    6  A    between atoms: C_10  and  O_17
    7  A    between atoms: C_10  and  C_39
    8  A    between atoms: N_12  and  C_31
    9  A    between atoms: C_14  and  C_34
   10  A    between atoms: O_17  and  C_40
   11  A    between atoms: C_18  and  S_24
   12  A    between atoms: C_19  and  N_32
   13  A    between atoms: S_24  and  C_35
   14  A    between atoms: N_32  and  C_38
   15  A    between atoms: C_46  and  N_48
                            x       y       z     vdW  Elec       q    Type
                         _______ _______ _______ _____ _____    ______ ____

>  <TORSDO>
F 15

$$$$
=
 OpenBabel10222419253D

 49 55  0  0  1  0  0  0  0  0999 V2000
  186.5920  178.4240  145.7520 N   0  0  0  0  0  2  0  0  0  0  0  0
  184.3880  178.2380  142.7710 C   0  0  0  0  0  0  0  0  0  0  0  0
  182.1850  178.7310  142.3070 N   0  0  0  0  0  2  0  0  0  0  0  0
  183.1000  179.1450  144.5930 C   0  0  0  0  0  3  0  0  0  0  0  0
  185.5270  178.1260  143.5690 C   0  0  0  0  0  3  0  0  0  0  0  0
  183.2170  178.7260  143.2700 C   0  0  0  0  0  0  0  0  0  0  0  0
  182.7370  178.1900  141.0630 C   0  0  2  0  0  3  0  0  0  0  0  0
  184.2210  177.8650  141.3430 C   0  0  0  0  0  2  0  0  0  0  0  0
  184.2310  179.0460  145.4180 C   0  0  0  0  0  3  0  0  0  0  0  0
  185.4440  178.5340  144.9130 C   0  0  0  0  0  0  0  0  0  0  0  0
  182.6330  179.4390  139.7490 S   0  0  0  0  0  0  0  0  0  0  0  0
  180.6400  177.5650  139.8400 C   0  0  0  0  0  2  0  0  0  0  0  0
  181.1890  178.6880  138.9410 C   0  0  2  0  0  3  0  0  0  0  0  0
  180.4390  176.4820  138.9020 N   0  0  1  0  0  0  0  0  0  0  0  0
  181.3160  175.4160  137.0740 C   0  0  2  0  0  3  0  0  0  0  0  0
  181.5920  176.5430  138.0480 C   0  0  1  0  0  0  0  0  0  0  0  0
  181.6090  177.9870  137.6300 C   0  0  0  0  0  2  0  0  0  0  0  0
  180.3880  175.0960  139.3190 C   0  0  0  0  0  2  0  0  0  0  0  0
  182.7790  176.2740  138.7630 O   0  0  0  0  0  1  0  0  0  0  0  0
  180.7520  174.3360  138.0240 C   0  0  0  0  0  2  0  0  0  0  0  0
  182.5640  174.9090  136.3570 C   0  0  0  0  0  2  0  0  0  0  0  0
  182.9840  172.4210  136.0250 N   0  0  0  0  0  2  0  0  0  0  0  0
  181.3880  173.5580  134.7870 O   0  0  0  0  0  0  0  0  0  0  0  0
  184.0380  172.4050  137.0250 C   0  0  0  0  0  1  0  0  0  0  0  0
  182.2840  173.6110  135.6690 C   0  0  0  0  0  0  0  0  0  0  0  0
  187.5720  177.4490  145.5220 N   0  0  0  0  0  2  0  0  0  0  0  0
  188.8660  178.0700  145.7420 C   0  0  0  0  0  2  0  0  0  0  0  0
  189.7230  177.9620  144.4840 C   0  0  1  0  0  3  0  0  0  0  0  0
  190.9600  177.1040  144.7660 C   0  0  1  0  0  3  0  0  0  0  0  0
  192.1530  174.7240  145.8640 C   0  0  0  0  0  2  0  0  0  0  0  0
  191.0960  176.8110  146.2600 C   0  0  0  0  0  2  0  0  0  0  0  0
  192.3720  175.7870  147.9340 C   0  0  0  0  0  1  0  0  0  0  0  0
  192.3080  176.0270  146.5050 N   0  0  0  0  0  0  0  0  0  0  0  0
  192.0690  174.8910  144.3500 C   0  0  0  0  0  2  0  0  0  0  0  0
  190.8740  175.7770  144.0060 C   0  0  0  0  0  2  0  0  0  0  0  0
  188.9610  177.3840  143.4580 O   0  0  0  0  0  0  0  0  0  0  0  0
  189.0540  177.5450  141.1230 C   0  0  1  0  0  3  0  0  0  0  0  0
  190.2190  178.0900  141.6890 O   0  0  0  0  0  0  0  0  0  0  0  0
  189.0240  178.2910  142.3990 C   0  0  2  0  0  3  0  0  0  0  0  0
  188.6040  178.4000  140.0380 N   0  0  0  0  0  2  0  0  0  0  0  0
  188.7410  176.7640  137.8350 S   0  0  0  0  0  0  0  0  0  0  0  0
  186.3790  177.4010  137.2850 C   0  0  0  0  0  0  0  0  0  0  0  0
  187.4160  176.5880  136.8210 C   0  0  0  0  0  0  0  0  0  0  0  0
  187.9990  177.8660  138.8630 C   0  0  0  0  0  0  0  0  0  0  0  0
  186.6990  178.1190  138.4420 C   0  0  0  0  0  3  0  0  0  0  0  0
  187.3340  174.9400  134.8160 N   0  0  0  0  0  0  0  0  0  0  0  0
  187.3700  175.6740  135.7100 C   0  0  0  0  0  0  0  0  0  0  0  0
  185.0990  177.5230  136.6690 N   0  0  0  0  0  2  0  0  0  0  0  0
  184.9020  177.3190  135.3410 O   0  0  0  0  0  1  0  0  0  0  0  0
  2  6  2  0  0  0  0
  2  5  1  0  0  0  0
  3  6  1  0  0  0  0
  4  9  2  0  0  0  0
  5 10  2  0  0  0  0
  6  4  1  0  0  0  0
  7 11  1  6  0  0  0
  7  8  1  0  0  0  0
  7  3  1  0  0  0  0
  8  2  1  0  0  0  0
 10  9  1  0  0  0  0
 10  1  1  0  0  0  0
 13 11  1  1  0  0  0
 13 12  1  0  0  0  0
 14 18  1  1  0  0  0
 14 12  1  0  0  0  0
 15 21  1  1  0  0  0
 15 20  1  0  0  0  0
 15 16  1  0  0  0  0
 16 19  1  1  0  0  0
 16 14  1  0  0  0  0
 17 16  1  0  0  0  0
 17 13  1  0  0  0  0
 20 18  1  0  0  0  0
 22 24  1  0  0  0  0
 23 25  2  0  0  0  0
 25 22  1  0  0  0  0
 25 21  1  0  0  0  0
 26 27  1  0  0  0  0
 26  1  1  0  0  0  0
 28 27  1  1  0  0  0
 29 28  1  1  0  0  0
 29 31  1  0  0  0  0
 30 33  1  0  0  0  0
 31 33  1  0  0  0  0
 33 32  1  0  0  0  0
 34 30  1  0  0  0  0
 35 34  1  0  0  0  0
 35 29  1  0  0  0  0
 36 28  1  0  0  0  0
 37 40  1  6  0  0  0
 37 38  1  0  0  0  0
 37 39  1  0  0  0  0
 38 39  1  0  0  0  0
 39 36  1  1  0  0  0
 41 44  1  0  0  0  0
 42 45  1  0  0  0  0
 43 42  2  0  0  0  0
 43 41  1  0  0  0  0
 44 40  1  0  0  0  0
 45 44  2  0  0  0  0
 46 47  3  0  0  0  0
 47 43  1  0  0  0  0
 48 42  1  0  0  0  0
 49 48  1  0  0  0  0
M  END
>  <MODEL>
5

>  <REMARK>
 VINA RESULT:      -6.9      2.479      7.974
  Name = 
  15 active torsions:
  status: ('A' for Active; 'I' for Inactive)
    1  A    between atoms: C_1  and  C_10
    2  A    between atoms: N_4  and  C_39
    3  A    between atoms: N_4  and  N_48
    4  A    between atoms: C_8  and  C_29
    5  A    between atoms: C_8  and  C_37
    6  A    between atoms: C_10  and  O_17
    7  A    between atoms: C_10  and  C_39
    8  A    between atoms: N_12  and  C_31
    9  A    between atoms: C_14  and  C_34
   10  A    between atoms: O_17  and  C_40
   11  A    between atoms: C_18  and  S_24
   12  A    between atoms: C_19  and  N_32
   13  A    between atoms: S_24  and  C_35
   14  A    between atoms: N_32  and  C_38
   15  A    between atoms: C_46  and  N_48
                            x       y       z     vdW  Elec       q    Type
                         _______ _______ _______ _____ _____    ______ ____

>  <TORSDO>
F 15

$$$$
=
 OpenBabel10222419253D

 49 55  0  0  1  0  0  0  0  0999 V2000
  189.1280  176.9730  136.5390 N   0  0  0  0  0  2  0  0  0  0  0  0
  190.5710  177.4650  139.9240 C   0  0  0  0  0  0  0  0  0  0  0  0
  189.7630  178.0740  141.9940 N   0  0  0  0  0  2  0  0  0  0  0  0
  188.2010  177.8760  140.0580 C   0  0  0  0  0  3  0  0  0  0  0  0
  190.4920  177.1820  138.5600 C   0  0  0  0  0  3  0  0  0  0  0  0
  189.4620  177.8040  140.6420 C   0  0  0  0  0  0  0  0  0  0  0  0
  191.2070  177.8990  142.1710 C   0  0  2  0  0  3  0  0  0  0  0  0
  191.7710  177.4730  140.7980 C   0  0  0  0  0  2  0  0  0  0  0  0
  188.0920  177.5950  138.6870 C   0  0  0  0  0  3  0  0  0  0  0  0
  189.2340  177.2510  137.9340 C   0  0  0  0  0  0  0  0  0  0  0  0
  191.5220  176.5840  143.3840 S   0  0  0  0  0  0  0  0  0  0  0  0
  191.0550  176.7530  146.0760 C   0  0  0  0  0  2  0  0  0  0  0  0
  191.2360  177.6430  144.8330 C   0  0  2  0  0  3  0  0  0  0  0  0
  189.8890  177.3290  146.7090 N   0  0  1  0  0  0  0  0  0  0  0  0
  187.8280  178.2520  146.3240 C   0  0  2  0  0  3  0  0  0  0  0  0
  189.0100  177.6270  145.6120 C   0  0  1  0  0  0  0  0  0  0  0  0
  189.9010  178.4070  144.6860 C   0  0  0  0  0  2  0  0  0  0  0  0
  189.0570  176.5810  147.6280 C   0  0  0  0  0  2  0  0  0  0  0  0
  188.5980  176.4520  144.9480 O   0  0  0  0  0  1  0  0  0  0  0  0
  187.7110  177.3370  147.5630 C   0  0  0  0  0  2  0  0  0  0  0  0
  186.5400  178.2270  145.5060 C   0  0  0  0  0  2  0  0  0  0  0  0
  184.1690  179.1470  145.6160 N   0  0  0  0  0  2  0  0  0  0  0  0
  185.6800  179.4750  147.3440 O   0  0  0  0  0  0  0  0  0  0  0  0
  183.8430  178.6280  144.2990 C   0  0  0  0  0  1  0  0  0  0  0  0
  185.4600  178.9920  146.2030 C   0  0  0  0  0  0  0  0  0  0  0  0
  188.7480  175.7050  136.0760 N   0  0  0  0  0  2  0  0  0  0  0  0
  189.7300  175.2890  135.0910 C   0  0  0  0  0  2  0  0  0  0  0  0
  190.5730  174.1420  135.6410 C   0  0  1  0  0  3  0  0  0  0  0  0
  191.7470  174.6980  136.4520 C   0  0  1  0  0  3  0  0  0  0  0  0
  194.5760  175.1210  136.7860 C   0  0  0  0  0  2  0  0  0  0  0  0
  192.7570  173.5980  136.7820 C   0  0  0  0  0  2  0  0  0  0  0  0
  194.7590  173.0560  137.8660 C   0  0  0  0  0  1  0  0  0  0  0  0
  193.8440  174.1490  137.5930 N   0  0  0  0  0  0  0  0  0  0  0  0
  193.6750  176.3050  136.4460 C   0  0  0  0  0  2  0  0  0  0  0  0
  192.4590  175.8060  135.6710 C   0  0  0  0  0  2  0  0  0  0  0  0
  189.7690  173.3300  136.4530 O   0  0  0  0  0  0  0  0  0  0  0  0
  187.8650  171.9650  136.3830 C   0  0  1  0  0  3  0  0  0  0  0  0
  188.8850  171.4090  135.5920 O   0  0  0  0  0  0  0  0  0  0  0  0
  188.7930  172.8110  135.6010 C   0  0  2  0  0  3  0  0  0  0  0  0
  186.5980  171.8430  135.6850 N   0  0  0  0  0  2  0  0  0  0  0  0
  185.1910  173.8890  136.8620 S   0  0  0  0  0  0  0  0  0  0  0  0
  183.1550  172.4250  136.8440 C   0  0  0  0  0  0  0  0  0  0  0  0
  183.5590  173.7110  137.2110 C   0  0  0  0  0  0  0  0  0  0  0  0
  185.3830  172.3390  136.2430 C   0  0  0  0  0  0  0  0  0  0  0  0
  184.1790  171.6490  136.2890 C   0  0  0  0  0  3  0  0  0  0  0  0
  182.0600  175.6130  138.1470 N   0  0  0  0  0  0  0  0  0  0  0  0
  182.7290  174.7660  137.7290 C   0  0  0  0  0  0  0  0  0  0  0  0
  181.8360  171.9070  137.0030 N   0  0  0  0  0  2  0  0  0  0  0  0
  180.8120  172.2460  136.1800 O   0  0  0  0  0  1  0  0  0  0  0  0
  1 10  1  0  0  0  0
  2  6  1  0  0  0  0
  2  8  1  0  0  0  0
  3  7  1  0  0  0  0
  4  6  2  0  0  0  0
  5  2  2  0  0  0  0
  6  3  1  0  0  0  0
  7 11  1  1  0  0  0
  8  7  1  0  0  0  0
  9  4  1  0  0  0  0
 10  5  1  0  0  0  0
 10  9  2  0  0  0  0
 13 11  1  6  0  0  0
 13 12  1  0  0  0  0
 14 12  1  6  0  0  0
 14 18  1  0  0  0  0
 15 21  1  6  0  0  0
 15 20  1  0  0  0  0
 16 19  1  6  0  0  0
 16 15  1  0  0  0  0
 16 14  1  0  0  0  0
 17 13  1  0  0  0  0
 17 16  1  0  0  0  0
 20 18  1  0  0  0  0
 21 25  1  0  0  0  0
 22 25  1  0  0  0  0
 24 22  1  0  0  0  0
 25 23  2  0  0  0  0
 26  1  1  0  0  0  0
 27 26  1  0  0  0  0
 28 27  1  1  0  0  0
 28 36  1  0  0  0  0
 29 28  1  6  0  0  0
 29 31  1  0  0  0  0
 30 33  1  0  0  0  0
 31 33  1  0  0  0  0
 33 32  1  0  0  0  0
 34 30  1  0  0  0  0
 35 34  1  0  0  0  0
 35 29  1  0  0  0  0
 37 40  1  6  0  0  0
 38 39  1  0  0  0  0
 38 37  1  0  0  0  0
 39 37  1  0  0  0  0
 39 36  1  1  0  0  0
 40 44  1  0  0  0  0
 41 43  1  0  0  0  0
 42 48  1  0  0  0  0
 42 43  2  0  0  0  0
 43 47  1  0  0  0  0
 44 45  2  0  0  0  0
 44 41  1  0  0  0  0
 45 42  1  0  0  0  0
 47 46  3  0  0  0  0
 49 48  1  0  0  0  0
M  END
>  <MODEL>
6

>  <REMARK>
 VINA RESULT:      -6.8      2.693     10.418
  Name = 
  15 active torsions:
  status: ('A' for Active; 'I' for Inactive)
    1  A    between atoms: C_1  and  C_10
    2  A    between atoms: N_4  and  C_39
    3  A    between atoms: N_4  and  N_48
    4  A    between atoms: C_8  and  C_29
    5  A    between atoms: C_8  and  C_37
    6  A    between atoms: C_10  and  O_17
    7  A    between atoms: C_10  and  C_39
    8  A    between atoms: N_12  and  C_31
    9  A    between atoms: C_14  and  C_34
   10  A    between atoms: O_17  and  C_40
   11  A    between atoms: C_18  and  S_24
   12  A    between atoms: C_19  and  N_32
   13  A    between atoms: S_24  and  C_35
   14  A    between atoms: N_32  and  C_38
   15  A    between atoms: C_46  and  N_48
                            x       y       z     vdW  Elec       q    Type
                         _______ _______ _______ _____ _____    ______ ____

>  <TORSDO>
F 15

$$$$
=
 OpenBabel10222419253D

 49 55  0  0  1  0  0  0  0  0999 V2000
  192.2810  177.1810  140.4170 N   0  0  0  0  0  2  0  0  0  0  0  0
  189.7600  176.1850  137.8810 C   0  0  0  0  0  0  0  0  0  0  0  0
  189.8050  175.5270  135.6730 N   0  0  0  0  0  2  0  0  0  0  0  0
  191.9390  176.0310  136.8650 C   0  0  0  0  0  3  0  0  0  0  0  0
  190.3040  176.6070  139.0940 C   0  0  0  0  0  3  0  0  0  0  0  0
  190.5540  175.9120  136.8050 C   0  0  0  0  0  0  0  0  0  0  0  0
  188.3890  175.5560  136.0450 C   0  0  2  0  0  3  0  0  0  0  0  0
  188.3320  175.9800  137.5300 C   0  0  0  0  0  2  0  0  0  0  0  0
  192.5140  176.4510  138.0740 C   0  0  0  0  0  3  0  0  0  0  0  0
  191.7000  176.7450  139.1900 C   0  0  0  0  0  0  0  0  0  0  0  0
  187.6710  173.8970  135.8670 S   0  0  0  0  0  0  0  0  0  0  0  0
  186.0500  175.9540  135.0700 C   0  0  0  0  0  2  0  0  0  0  0  0
  186.2730  174.4470  134.8440 C   0  0  2  0  0  3  0  0  0  0  0  0
  184.6170  176.0360  135.2520 N   0  0  1  0  0  0  0  0  0  0  0  0
  182.7990  175.0110  136.1960 C   0  0  2  0  0  3  0  0  0  0  0  0
  184.3040  174.8930  136.0630 C   0  0  1  0  0  0  0  0  0  0  0  0
  184.9640  173.7710  135.3120 C   0  0  0  0  0  2  0  0  0  0  0  0
  183.9870  177.1390  135.9470 C   0  0  0  0  0  2  0  0  0  0  0  0
  184.9030  174.9860  137.3390 O   0  0  0  0  0  1  0  0  0  0  0  0
  182.6380  176.5340  136.3960 C   0  0  0  0  0  2  0  0  0  0  0  0
  182.2290  174.2430  137.3860 C   0  0  0  0  0  2  0  0  0  0  0  0
  180.0630  172.9140  137.5210 N   0  0  0  0  0  2  0  0  0  0  0  0
  181.6980  172.4170  135.9530 O   0  0  0  0  0  0  0  0  0  0  0  0
  179.5830  173.6970  138.6460 C   0  0  0  0  0  1  0  0  0  0  0  0
  181.3370  173.1380  136.9180 C   0  0  0  0  0  0  0  0  0  0  0  0
  191.5070  177.7980  141.4100 N   0  0  0  0  0  2  0  0  0  0  0  0
  191.0990  176.7670  142.3480 C   0  0  0  0  0  2  0  0  0  0  0  0
  189.8280  177.1930  143.0770 C   0  0  1  0  0  3  0  0  0  0  0  0
  190.1430  177.4930  144.5450 C   0  0  1  0  0  3  0  0  0  0  0  0
  190.1530  176.6940  147.3120 C   0  0  0  0  0  2  0  0  0  0  0  0
  188.8920  177.3560  145.4140 C   0  0  0  0  0  2  0  0  0  0  0  0
  187.9880  177.5390  147.5650 C   0  0  0  0  0  1  0  0  0  0  0  0
  189.2130  177.6890  146.8030 N   0  0  0  0  0  0  0  0  0  0  0  0
  191.4730  176.7820  146.5520 C   0  0  0  0  0  2  0  0  0  0  0  0
  191.2160  176.5340  145.0680 C   0  0  0  0  0  2  0  0  0  0  0  0
  189.3020  178.3340  142.4550 O   0  0  0  0  0  0  0  0  0  0  0  0
  187.1920  178.8530  141.5790 C   0  0  1  0  0  3  0  0  0  0  0  0
  187.1120  177.6930  142.3680 O   0  0  0  0  0  0  0  0  0  0  0  0
  188.2890  177.8620  141.6180 C   0  0  2  0  0  3  0  0  0  0  0  0
  186.4010  178.6680  140.3750 N   0  0  0  0  0  2  0  0  0  0  0  0
  184.0330  178.4240  141.7480 S   0  0  0  0  0  0  0  0  0  0  0  0
  182.8230  179.1720  139.6830 C   0  0  0  0  0  0  0  0  0  0  0  0
  182.5750  178.7970  141.0060 C   0  0  0  0  0  0  0  0  0  0  0  0
  184.9770  178.7410  140.3950 C   0  0  0  0  0  0  0  0  0  0  0  0
  184.1780  179.1500  139.3350 C   0  0  0  0  0  3  0  0  0  0  0  0
  180.2840  178.7980  142.2270 N   0  0  0  0  0  0  0  0  0  0  0  0
  181.3060  178.7970  141.6830 C   0  0  0  0  0  0  0  0  0  0  0  0
  181.8210  179.5460  138.7390 N   0  0  0  0  0  2  0  0  0  0  0  0
  180.8100  178.7170  138.3760 O   0  0  0  0  0  1  0  0  0  0  0  0
  1 26  1  0  0  0  0
  2  5  1  0  0  0  0
  3  7  1  0  0  0  0
  3  6  1  0  0  0  0
  4  9  2  0  0  0  0
  5 10  2  0  0  0  0
  6  4  1  0  0  0  0
  6  2  2  0  0  0  0
  7 11  1  1  0  0  0
  7  8  1  0  0  0  0
  8  2  1  0  0  0  0
  9 10  1  0  0  0  0
 10  1  1  0  0  0  0
 13 12  1  0  0  0  0
 13 17  1  0  0  0  0
 13 11  1  1  0  0  0
 14 12  1  1  0  0  0
 14 18  1  0  0  0  0
 14 16  1  0  0  0  0
 15 20  1  0  0  0  0
 15 21  1  1  0  0  0
 16 15  1  0  0  0  0
 16 19  1  1  0  0  0
 17 16  1  0  0  0  0
 18 20  1  0  0  0  0
 22 24  1  0  0  0  0
 23 25  2  0  0  0  0
 25 21  1  0  0  0  0
 25 22  1  0  0  0  0
 26 27  1  0  0  0  0
 28 27  1  6  0  0  0
 29 28  1  6  0  0  0
 29 35  1  0  0  0  0
 29 31  1  0  0  0  0
 31 33  1  0  0  0  0
 33 30  1  0  0  0  0
 33 32  1  0  0  0  0
 34 30  1  0  0  0  0
 35 34  1  0  0  0  0
 36 28  1  0  0  0  0
 37 40  1  6  0  0  0
 37 39  1  0  0  0  0
 37 38  1  0  0  0  0
 39 38  1  0  0  0  0
 39 36  1  1  0  0  0
 40 44  1  0  0  0  0
 42 43  2  0  0  0  0
 43 47  1  0  0  0  0
 43 41  1  0  0  0  0
 44 41  1  0  0  0  0
 45 42  1  0  0  0  0
 45 44  2  0  0  0  0
 47 46  3  0  0  0  0
 48 42  1  0  0  0  0
 49 48  1  0  0  0  0
M  END
>  <MODEL>
7

>  <REMARK>
 VINA RESULT:      -6.8      2.441      6.499
  Name = 
  15 active torsions:
  status: ('A' for Active; 'I' for Inactive)
    1  A    between atoms: C_1  and  C_10
    2  A    between atoms: N_4  and  C_39
    3  A    between atoms: N_4  and  N_48
    4  A    between atoms: C_8  and  C_29
    5  A    between atoms: C_8  and  C_37
    6  A    between atoms: C_10  and  O_17
    7  A    between atoms: C_10  and  C_39
    8  A    between atoms: N_12  and  C_31
    9  A    between atoms: C_14  and  C_34
   10  A    between atoms: O_17  and  C_40
   11  A    between atoms: C_18  and  S_24
   12  A    between atoms: C_19  and  N_32
   13  A    between atoms: S_24  and  C_35
   14  A    between atoms: N_32  and  C_38
   15  A    between atoms: C_46  and  N_48
                            x       y       z     vdW  Elec       q    Type
                         _______ _______ _______ _____ _____    ______ ____

>  <TORSDO>
F 15

$$$$
=
 OpenBabel10222419253D

 49 55  0  0  1  0  0  0  0  0999 V2000
  192.2420  177.6140  141.7610 N   0  0  0  0  0  2  0  0  0  0  0  0
  190.5930  176.5530  138.6080 C   0  0  0  0  0  0  0  0  0  0  0  0
  191.2770  176.0980  136.4550 N   0  0  0  0  0  2  0  0  0  0  0  0
  192.9570  176.7440  138.1840 C   0  0  0  0  0  3  0  0  0  0  0  0
  190.7540  176.9290  139.9420 C   0  0  0  0  0  3  0  0  0  0  0  0
  191.6600  176.4690  137.7620 C   0  0  0  0  0  0  0  0  0  0  0  0
  189.8230  175.9280  136.4490 C   0  0  2  0  0  3  0  0  0  0  0  0
  189.3400  176.2120  137.8890 C   0  0  0  0  0  2  0  0  0  0  0  0
  193.1490  177.1230  139.5220 C   0  0  0  0  0  3  0  0  0  0  0  0
  192.0510  177.2200  140.4030 C   0  0  0  0  0  0  0  0  0  0  0  0
  189.4040  174.2180  136.0020 S   0  0  0  0  0  0  0  0  0  0  0  0
  187.6840  176.1580  135.1240 C   0  0  0  0  0  2  0  0  0  0  0  0
  188.0500  174.6820  134.8820 C   0  0  2  0  0  3  0  0  0  0  0  0
  186.2400  176.1170  135.1910 N   0  0  1  0  0  0  0  0  0  0  0  0
  184.4460  174.9180  135.9600 C   0  0  2  0  0  3  0  0  0  0  0  0
  185.9600  174.9280  135.9470 C   0  0  1  0  0  0  0  0  0  0  0  0
  186.7700  173.8870  135.2260 C   0  0  0  0  0  2  0  0  0  0  0  0
  185.4660  177.1430  135.8580 C   0  0  0  0  0  2  0  0  0  0  0  0
  186.4460  175.0320  137.2690 O   0  0  0  0  0  1  0  0  0  0  0  0
  184.1420  176.4160  136.1820 C   0  0  0  0  0  2  0  0  0  0  0  0
  183.8500  174.0710  137.0810 C   0  0  0  0  0  2  0  0  0  0  0  0
  182.7990  171.9250  136.2040 N   0  0  0  0  0  2  0  0  0  0  0  0
  181.5430  173.8460  136.5350 O   0  0  0  0  0  0  0  0  0  0  0  0
  184.0710  171.2240  136.2230 C   0  0  0  0  0  1  0  0  0  0  0  0
  182.6730  173.2950  136.5830 C   0  0  0  0  0  0  0  0  0  0  0  0
  191.1560  177.9630  142.5770 N   0  0  0  0  0  2  0  0  0  0  0  0
  190.7430  176.7660  143.2870 C   0  0  0  0  0  2  0  0  0  0  0  0
  189.2640  176.8580  143.6560 C   0  0  1  0  0  3  0  0  0  0  0  0
  189.0980  176.7610  145.1750 C   0  0  1  0  0  3  0  0  0  0  0  0
  189.5020  177.8560  147.8080 C   0  0  0  0  0  2  0  0  0  0  0  0
  190.4510  176.8440  145.8830 C   0  0  0  0  0  2  0  0  0  0  0  0
  191.5820  176.7960  147.9310 C   0  0  0  0  0  1  0  0  0  0  0  0
  190.2650  176.7070  147.3280 N   0  0  0  0  0  0  0  0  0  0  0  0
  188.0990  177.8410  147.2090 C   0  0  0  0  0  2  0  0  0  0  0  0
  188.2000  177.8910  145.6870 C   0  0  0  0  0  2  0  0  0  0  0  0
  188.7510  178.0770  143.1920 O   0  0  0  0  0  0  0  0  0  0  0  0
  186.7710  178.6850  142.0970 C   0  0  1  0  0  3  0  0  0  0  0  0
  186.6440  177.3930  142.6370 O   0  0  0  0  0  0  0  0  0  0  0  0
  187.9090  177.7400  142.1310 C   0  0  2  0  0  3  0  0  0  0  0  0
  186.1850  178.7060  140.7680 N   0  0  0  0  0  2  0  0  0  0  0  0
  184.0590  179.1660  139.0890 S   0  0  0  0  0  0  0  0  0  0  0  0
  182.5160  178.7740  141.0260 C   0  0  0  0  0  0  0  0  0  0  0  0
  182.4850  179.0670  139.6600 C   0  0  0  0  0  0  0  0  0  0  0  0
  184.7790  178.8340  140.5700 C   0  0  0  0  0  0  0  0  0  0  0  0
  183.8080  178.6330  141.5430 C   0  0  0  0  0  3  0  0  0  0  0  0
  180.3810  179.2880  138.1550 N   0  0  0  0  0  0  0  0  0  0  0  0
  181.3190  179.1900  138.8270 C   0  0  0  0  0  0  0  0  0  0  0  0
  181.3660  178.6260  141.8550 N   0  0  0  0  0  2  0  0  0  0  0  0
  181.3760  178.9150  143.1810 O   0  0  0  0  0  1  0  0  0  0  0  0
  1 26  1  0  0  0  0
  2  5  1  0  0  0  0
  3  6  1  0  0  0  0
  4  9  2  0  0  0  0
  5 10  2  0  0  0  0
  6  4  1  0  0  0  0
  6  2  2  0  0  0  0
  7 11  1  1  0  0  0
  7  3  1  0  0  0  0
  7  8  1  0  0  0  0
  8  2  1  0  0  0  0
  9 10  1  0  0  0  0
 10  1  1  0  0  0  0
 13 12  1  0  0  0  0
 13 17  1  0  0  0  0
 13 11  1  1  0  0  0
 14 12  1  1  0  0  0
 14 18  1  0  0  0  0
 14 16  1  0  0  0  0
 15 20  1  0  0  0  0
 15 21  1  1  0  0  0
 16 15  1  0  0  0  0
 16 19  1  1  0  0  0
 17 16  1  0  0  0  0
 18 20  1  0  0  0  0
 22 24  1  0  0  0  0
 22 25  1  0  0  0  0
 23 25  2  0  0  0  0
 25 21  1  0  0  0  0
 26 27  1  0  0  0  0
 28 27  1  1  0  0  0
 29 28  1  6  0  0  0
 29 35  1  0  0  0  0
 29 31  1  0  0  0  0
 31 33  1  0  0  0  0
 33 30  1  0  0  0  0
 33 32  1  0  0  0  0
 34 30  1  0  0  0  0
 35 34  1  0  0  0  0
 36 28  1  0  0  0  0
 37 40  1  6  0  0  0
 37 39  1  0  0  0  0
 37 38  1  0  0  0  0
 39 38  1  0  0  0  0
 39 36  1  1  0  0  0
 41 43  1  0  0  0  0
 41 44  1  0  0  0  0
 42 45  1  0  0  0  0
 42 48  1  0  0  0  0
 43 42  2  0  0  0  0
 44 40  1  0  0  0  0
 44 45  2  0  0  0  0
 46 47  3  0  0  0  0
 47 43  1  0  0  0  0
 48 49  1  0  0  0  0
M  END
>  <MODEL>
8

>  <REMARK>
 VINA RESULT:      -6.7      2.506      6.589
  Name = 
  15 active torsions:
  status: ('A' for Active; 'I' for Inactive)
    1  A    between atoms: C_1  and  C_10
    2  A    between atoms: N_4  and  C_39
    3  A    between atoms: N_4  and  N_48
    4  A    between atoms: C_8  and  C_29
    5  A    between atoms: C_8  and  C_37
    6  A    between atoms: C_10  and  O_17
    7  A    between atoms: C_10  and  C_39
    8  A    between atoms: N_12  and  C_31
    9  A    between atoms: C_14  and  C_34
   10  A    between atoms: O_17  and  C_40
   11  A    between atoms: C_18  and  S_24
   12  A    between atoms: C_19  and  N_32
   13  A    between atoms: S_24  and  C_35
   14  A    between atoms: N_32  and  C_38
   15  A    between atoms: C_46  and  N_48
                            x       y       z     vdW  Elec       q    Type
                         _______ _______ _______ _____ _____    ______ ____

>  <TORSDO>
F 15

$$$$
=
 OpenBabel10222419253D

 49 55  0  0  1  0  0  0  0  0999 V2000
  191.9940  177.1230  140.8230 N   0  0  0  0  0  2  0  0  0  0  0  0
  191.4250  176.6890  144.4660 C   0  0  0  0  0  0  0  0  0  0  0  0
  191.0050  178.0820  146.2530 N   0  0  0  0  0  2  0  0  0  0  0  0
  191.2520  179.0380  143.9600 C   0  0  0  0  0  3  0  0  0  0  0  0
  191.6820  176.3720  143.1320 C   0  0  0  0  0  3  0  0  0  0  0  0
  191.2220  177.9780  144.8620 C   0  0  0  0  0  0  0  0  0  0  0  0
  191.0780  176.7320  146.8160 C   0  0  2  0  0  3  0  0  0  0  0  0
  191.3430  175.7740  145.6320 C   0  0  0  0  0  2  0  0  0  0  0  0
  191.5060  178.7480  142.6110 C   0  0  0  0  0  3  0  0  0  0  0  0
  191.7260  177.4180  142.1920 C   0  0  0  0  0  0  0  0  0  0  0  0
  189.4920  176.3020  147.5920 S   0  0  0  0  0  0  0  0  0  0  0  0
  187.4540  178.0340  148.1760 C   0  0  0  0  0  2  0  0  0  0  0  0
  188.7650  177.9530  147.3720 C   0  0  2  0  0  3  0  0  0  0  0  0
  186.5400  178.6340  147.2280 N   0  0  1  0  0  0  0  0  0  0  0  0
  185.9020  178.6730  145.0290 C   0  0  2  0  0  3  0  0  0  0  0  0
  186.8590  177.9900  145.9840 C   0  0  1  0  0  0  0  0  0  0  0  0
  188.3500  178.1680  145.9000 C   0  0  0  0  0  2  0  0  0  0  0  0
  185.1050  178.4860  147.3380 C   0  0  0  0  0  2  0  0  0  0  0  0
  186.5790  176.6070  146.0320 O   0  0  0  0  0  1  0  0  0  0  0  0
  184.6230  178.7440  145.8930 C   0  0  0  0  0  2  0  0  0  0  0  0
  185.6490  177.8810  143.7490 C   0  0  0  0  0  2  0  0  0  0  0  0
  187.3890  178.2280  141.9250 N   0  0  0  0  0  2  0  0  0  0  0  0
  185.5160  179.5840  142.0900 O   0  0  0  0  0  0  0  0  0  0  0  0
  188.2090  177.1340  142.4160 C   0  0  0  0  0  1  0  0  0  0  0  0
  186.1750  178.6220  142.5610 C   0  0  0  0  0  0  0  0  0  0  0  0
  191.1590  177.5950  139.8000 N   0  0  0  0  0  2  0  0  0  0  0  0
  190.4440  176.4530  139.2590 C   0  0  0  0  0  2  0  0  0  0  0  0
  190.0030  176.7390  137.8260 C   0  0  1  0  0  3  0  0  0  0  0  0
  190.7310  175.8030  136.8570 C   0  0  1  0  0  3  0  0  0  0  0  0
  192.5220  173.5980  136.3850 C   0  0  0  0  0  2  0  0  0  0  0  0
  192.2430  175.8490  137.0800 C   0  0  0  0  0  2  0  0  0  0  0  0
  194.3370  175.0710  136.3840 C   0  0  0  0  0  1  0  0  0  0  0  0
  192.9150  174.9780  136.1140 N   0  0  0  0  0  0  0  0  0  0  0  0
  191.0290  173.4180  136.1310 C   0  0  0  0  0  2  0  0  0  0  0  0
  190.2460  174.3620  137.0420 C   0  0  0  0  0  2  0  0  0  0  0  0
  188.6160  176.5510  137.7260 O   0  0  0  0  0  0  0  0  0  0  0  0
  186.6960  177.8870  137.8450 C   0  0  1  0  0  3  0  0  0  0  0  0
  187.8000  178.6660  137.4560 O   0  0  0  0  0  0  0  0  0  0  0  0
  188.0500  177.6430  138.3860 C   0  0  2  0  0  3  0  0  0  0  0  0
  185.9040  178.6300  138.8100 N   0  0  0  0  0  2  0  0  0  0  0  0
  183.5740  177.2040  138.5110 S   0  0  0  0  0  0  0  0  0  0  0  0
  182.2930  179.2890  139.0570 C   0  0  0  0  0  0  0  0  0  0  0  0
  182.0860  177.9420  138.7510 C   0  0  0  0  0  0  0  0  0  0  0  0
  184.4790  178.5900  138.7990 C   0  0  0  0  0  0  0  0  0  0  0  0
  183.6420  179.6590  139.0940 C   0  0  0  0  0  3  0  0  0  0  0  0
  179.8170  176.6830  138.6890 N   0  0  0  0  0  0  0  0  0  0  0  0
  180.8290  177.2440  138.7170 C   0  0  0  0  0  0  0  0  0  0  0  0
  181.2580  180.2370  139.3120 N   0  0  0  0  0  2  0  0  0  0  0  0
  180.4500  180.1640  140.3990 O   0  0  0  0  0  1  0  0  0  0  0  0
  1 10  1  0  0  0  0
  2  6  1  0  0  0  0
  2  8  1  0  0  0  0
  3  7  1  0  0  0  0
  4  6  2  0  0  0  0
  5  2  2  0  0  0  0
  6  3  1  0  0  0  0
  7 11  1  6  0  0  0
  8  7  1  0  0  0  0
  9  4  1  0  0  0  0
 10  9  2  0  0  0  0
 10  5  1  0  0  0  0
 13 11  1  6  0  0  0
 13 12  1  0  0  0  0
 14 18  1  1  0  0  0
 14 12  1  0  0  0  0
 15 21  1  6  0  0  0
 15 20  1  0  0  0  0
 15 16  1  0  0  0  0
 16 19  1  1  0  0  0
 16 14  1  0  0  0  0
 17 16  1  0  0  0  0
 17 13  1  0  0  0  0
 20 18  1  0  0  0  0
 22 24  1  0  0  0  0
 22 25  1  0  0  0  0
 23 25  2  0  0  0  0
 25 21  1  0  0  0  0
 26  1  1  0  0  0  0
 27 26  1  0  0  0  0
 28 27  1  1  0  0  0
 29 35  1  0  0  0  0
 29 31  1  0  0  0  0
 29 28  1  1  0  0  0
 33 32  1  0  0  0  0
 33 30  1  0  0  0  0
 33 31  1  0  0  0  0
 34 30  1  0  0  0  0
 34 35  1  0  0  0  0
 36 28  1  0  0  0  0
 37 39  1  0  0  0  0
 37 40  1  1  0  0  0
 38 37  1  0  0  0  0
 38 39  1  0  0  0  0
 39 36  1  6  0  0  0
 41 43  1  0  0  0  0
 41 44  1  0  0  0  0
 42 45  1  0  0  0  0
 42 48  1  0  0  0  0
 43 42  2  0  0  0  0
 44 40  1  0  0  0  0
 44 45  2  0  0  0  0
 46 47  3  0  0  0  0
 47 43  1  0  0  0  0
 48 49  1  0  0  0  0
M  END
>  <MODEL>
9

>  <REMARK>
 VINA RESULT:      -6.6      2.949      9.776
  Name = 
  15 active torsions:
  status: ('A' for Active; 'I' for Inactive)
    1  A    between atoms: C_1  and  C_10
    2  A    between atoms: N_4  and  C_39
    3  A    between atoms: N_4  and  N_48
    4  A    between atoms: C_8  and  C_29
    5  A    between atoms: C_8  and  C_37
    6  A    between atoms: C_10  and  O_17
    7  A    between atoms: C_10  and  C_39
    8  A    between atoms: N_12  and  C_31
    9  A    between atoms: C_14  and  C_34
   10  A    between atoms: O_17  and  C_40
   11  A    between atoms: C_18  and  S_24
   12  A    between atoms: C_19  and  N_32
   13  A    between atoms: S_24  and  C_35
   14  A    between atoms: N_32  and  C_38
   15  A    between atoms: C_46  and  N_48
                            x       y       z     vdW  Elec       q    Type
                         _______ _______ _______ _____ _____    ______ ____

>  <TORSDO>
F 15

$$$$
