=
 OpenBabel10222415193D

 43 48  0  0  1  0  0  0  0  0999 V2000
  190.1650  176.7550  145.4300 N   0  0  0  0  0  2  0  0  0  0  0  0
  187.6380  177.8280  145.8620 C   0  0  0  0  0  0  0  0  0  0  0  0
  188.4350  177.3540  147.0090 C   0  0  0  0  0  0  0  0  0  0  0  0
  186.1030  178.5490  144.4420 C   0  0  0  0  0  0  0  0  0  0  0  0
  185.4100  178.5410  146.9190 C   0  0  0  0  0  1  0  0  0  0  0  0
  188.1160  177.7710  144.5800 C   0  0  0  0  0  0  0  0  0  0  0  0
  187.1960  178.2280  143.6870 N   0  0  0  0  0  0  0  0  0  0  0  0
  186.3540  178.3180  145.7870 C   0  0  0  0  0  0  0  0  0  0  0  0
  189.4140  177.1960  144.3210 N   0  0  0  0  0  0  0  0  0  0  0  0
  189.6480  176.8370  146.7720 C   0  0  0  0  0  3  0  0  0  0  0  0
  190.0080  177.0950  143.0280 C   0  0  0  0  0  0  0  0  0  0  0  0
  191.7880  177.6710  141.4890 C   0  0  0  0  0  3  0  0  0  0  0  0
  191.2670  176.7840  140.5360 C   0  0  0  0  0  0  0  0  0  0  0  0
  190.1100  176.0490  140.8450 C   0  0  0  0  0  3  0  0  0  0  0  0
  189.4870  176.2010  142.0860 C   0  0  0  0  0  3  0  0  0  0  0  0
  191.1710  177.8180  142.7320 C   0  0  0  0  0  0  0  0  0  0  0  0
  191.6900  178.6840  143.6370 F   0  0  0  0  0  0  0  0  0  0  0  0
  191.9120  176.6260  139.2640 N   0  0  0  0  0  0  0  0  0  0  0  0
  192.5590  175.8080  137.2130 C   0  0  2  0  0  3  0  0  0  0  0  0
  193.2420  177.0950  138.9510 C   0  0  0  0  0  2  0  0  0  0  0  0
  191.3920  175.8610  138.1720 C   0  0  0  0  0  2  0  0  0  0  0  0
  193.5240  176.7620  137.6120 O   0  0  0  0  0  0  0  0  0  0  0  0
  192.3670  174.8970  134.9240 C   0  0  0  0  0  2  0  0  0  0  0  0
  193.2900  176.0920  134.8710 C   0  0  0  0  0  2  0  0  0  0  0  0
  192.0950  176.1020  135.8010 C   0  0  0  0  0  3  0  0  0  0  0  0
  184.7950  178.9920  143.9270 C   0  0  0  0  0  0  0  0  0  0  0  0
  184.4030  180.1750  144.1220 O   0  0  0  0  0  0  0  0  0  0  0  0
  183.9320  178.0490  143.2780 N   0  0  0  0  0  2  0  0  0  0  0  0
  182.6820  178.4330  142.7730 N   0  0  0  0  0  2  0  0  0  0  0  0
  182.7710  178.3810  141.3740 N   0  0  0  0  0  2  0  0  0  0  0  0
  181.7760  178.0570  139.3060 O   0  0  0  0  0  0  0  0  0  0  0  0
  181.6320  178.1170  140.5540 C   0  0  0  0  0  0  0  0  0  0  0  0
  180.2690  177.9190  141.1400 C   0  0  2  0  0  3  0  0  0  0  0  0
  179.5900  176.9410  140.4430 F   0  0  0  0  0  0  0  0  0  0  0  0
  179.4670  179.2140  141.1240 C   0  0  0  0  0  2  0  0  0  0  0  0
  179.9750  180.7000  142.9200 O   0  0  0  0  0  1  0  0  0  0  0  0
  179.1210  179.6640  142.5330 C   0  0  0  0  0  3  0  0  0  0  0  0
  179.2730  178.5910  143.4060 O   0  0  0  0  0  1  0  0  0  0  0  0
  186.4420  179.1590  141.4980 C   0  0  0  0  0  2  0  0  0  0  0  0
  187.2770  178.1110  142.2230 C   0  0  0  0  0  3  0  0  0  0  0  0
  187.9230  179.3650  141.6470 C   0  0  0  0  0  2  0  0  0  0  0  0
  188.3040  178.5650  149.0380 O   0  0  0  0  0  1  0  0  0  0  0  0
  187.9060  177.3850  148.4040 C   0  0  0  0  0  2  0  0  0  0  0  0
  1 10  1  0  0  0  0
  2  3  1  0  0  0  0
  3 43  1  0  0  0  0
  4  8  2  0  0  0  0
  6  2  2  0  0  0  0
  7  4  1  0  0  0  0
  7  6  1  0  0  0  0
  8  2  1  0  0  0  0
  8  5  1  0  0  0  0
  9  6  1  0  0  0  0
  9  1  1  0  0  0  0
 10  3  2  0  0  0  0
 11  9  1  0  0  0  0
 12 16  2  0  0  0  0
 13 14  2  0  0  0  0
 13 12  1  0  0  0  0
 14 15  1  0  0  0  0
 15 11  2  0  0  0  0
 16 11  1  0  0  0  0
 16 17  1  0  0  0  0
 18 13  1  0  0  0  0
 19 25  1  6  0  0  0
 19 22  1  0  0  0  0
 19 21  1  0  0  0  0
 20 18  1  0  0  0  0
 21 18  1  0  0  0  0
 22 20  1  0  0  0  0
 23 25  1  0  0  0  0
 24 23  1  0  0  0  0
 24 25  1  0  0  0  0
 26 27  2  0  0  0  0
 26  4  1  0  0  0  0
 28 26  1  0  0  0  0
 29 28  1  0  0  0  0
 30 29  1  0  0  0  0
 31 32  2  0  0  0  0
 32 33  1  0  0  0  0
 32 30  1  0  0  0  0
 33 34  1  6  0  0  0
 35 33  1  0  0  0  0
 35 37  1  0  0  0  0
 37 36  1  0  0  0  0
 37 38  1  0  0  0  0
 39 41  1  0  0  0  0
 39 40  1  0  0  0  0
 40  7  1  0  0  0  0
 41 40  1  0  0  0  0
 43 42  1  0  0  0  0
M  END
>  <MODEL>
1

>  <REMARK>
 VINA RESULT:      -7.1      0.000      0.000
  Name = 
  11 active torsions:
  status: ('A' for Active; 'I' for Inactive)
    1  A    between atoms: C_3  and  C_15
    2  A    between atoms: C_3  and  C_37
    3  A    between atoms: C_5  and  C_22
    4  A    between atoms: N_6  and  N_13
    5  A    between atoms: N_6  and  N_33
    6  A    between atoms: C_8  and  C_12
    7  A    between atoms: N_9  and  C_23
    8  A    between atoms: C_14  and  N_38
    9  A    between atoms: C_15  and  C_24
   10  A    between atoms: C_16  and  C_41
   11  A    between atoms: C_26  and  N_35
                            x       y       z     vdW  Elec       q    Type
                         _______ _______ _______ _____ _____    ______ ____

>  <TORSDO>
F 11

$$$$
=
 OpenBabel10222415193D

 43 48  0  0  1  0  0  0  0  0999 V2000
  190.1610  177.0090  145.5460 N   0  0  0  0  0  2  0  0  0  0  0  0
  187.5130  177.8050  145.8300 C   0  0  0  0  0  0  0  0  0  0  0  0
  188.3150  177.4980  147.0300 C   0  0  0  0  0  0  0  0  0  0  0  0
  185.9610  178.2550  144.3200 C   0  0  0  0  0  0  0  0  0  0  0  0
  185.1800  178.3170  146.7700 C   0  0  0  0  0  1  0  0  0  0  0  0
  188.0420  177.7260  144.5700 C   0  0  0  0  0  0  0  0  0  0  0  0
  187.1110  178.0180  143.6220 N   0  0  0  0  0  0  0  0  0  0  0  0
  186.1850  178.1370  145.6850 C   0  0  0  0  0  0  0  0  0  0  0  0
  189.4060  177.2920  144.3880 N   0  0  0  0  0  0  0  0  0  0  0  0
  189.5870  177.1120  146.8640 C   0  0  0  0  0  3  0  0  0  0  0  0
  190.0570  177.1830  143.1230 C   0  0  0  0  0  0  0  0  0  0  0  0
  191.8030  177.8840  141.5970 C   0  0  0  0  0  3  0  0  0  0  0  0
  191.4390  176.8720  140.6970 C   0  0  0  0  0  0  0  0  0  0  0  0
  190.3770  176.0120  141.0270 C   0  0  0  0  0  3  0  0  0  0  0  0
  189.6930  176.1640  142.2350 C   0  0  0  0  0  3  0  0  0  0  0  0
  191.1260  178.0320  142.8090 C   0  0  0  0  0  0  0  0  0  0  0  0
  191.4920  179.0200  143.6620 F   0  0  0  0  0  0  0  0  0  0  0  0
  192.1450  176.7150  139.4590 N   0  0  0  0  0  0  0  0  0  0  0  0
  192.8930  175.8980  137.4420 C   0  0  2  0  0  3  0  0  0  0  0  0
  193.4910  177.1820  139.2130 C   0  0  0  0  0  2  0  0  0  0  0  0
  191.6810  175.9510  138.3410 C   0  0  0  0  0  2  0  0  0  0  0  0
  193.8380  176.8500  137.8890 O   0  0  0  0  0  0  0  0  0  0  0  0
  192.8680  175.0110  135.1360 C   0  0  0  0  0  2  0  0  0  0  0  0
  193.7470  176.2410  135.1500 C   0  0  0  0  0  2  0  0  0  0  0  0
  192.5010  176.1930  136.0090 C   0  0  0  0  0  3  0  0  0  0  0  0
  184.6310  178.5100  143.7380 C   0  0  0  0  0  0  0  0  0  0  0  0
  184.2200  177.8190  142.7660 O   0  0  0  0  0  0  0  0  0  0  0  0
  183.8410  179.6040  144.2230 N   0  0  0  0  0  2  0  0  0  0  0  0
  182.5710  179.8750  143.6960 N   0  0  0  0  0  2  0  0  0  0  0  0
  181.7180  178.8530  144.1360 N   0  0  0  0  0  2  0  0  0  0  0  0
  179.6770  177.7560  144.0410 O   0  0  0  0  0  0  0  0  0  0  0  0
  180.4100  178.6740  143.5910 C   0  0  0  0  0  0  0  0  0  0  0  0
  179.8900  179.5450  142.4900 C   0  0  2  0  0  3  0  0  0  0  0  0
  178.9460  180.4220  142.9840 F   0  0  0  0  0  0  0  0  0  0  0  0
  179.2830  178.7140  141.3670 C   0  0  0  0  0  2  0  0  0  0  0  0
  180.8080  177.0530  140.5900 O   0  0  0  0  0  1  0  0  0  0  0  0
  180.3300  178.3400  140.3330 C   0  0  0  0  0  3  0  0  0  0  0  0
  181.3850  179.2450  140.4010 O   0  0  0  0  0  1  0  0  0  0  0  0
  186.4710  178.8370  141.3530 C   0  0  0  0  0  2  0  0  0  0  0  0
  187.2600  177.8230  142.1710 C   0  0  0  0  0  3  0  0  0  0  0  0
  187.9460  179.0400  141.5620 C   0  0  0  0  0  2  0  0  0  0  0  0
  188.5940  178.2460  149.2580 O   0  0  0  0  0  1  0  0  0  0  0  0
  187.7330  177.5510  148.4030 C   0  0  0  0  0  2  0  0  0  0  0  0
  1 10  1  0  0  0  0
  2  3  1  0  0  0  0
  3 43  1  0  0  0  0
  4  8  2  0  0  0  0
  6  2  2  0  0  0  0
  7  4  1  0  0  0  0
  7  6  1  0  0  0  0
  8  2  1  0  0  0  0
  8  5  1  0  0  0  0
  9  6  1  0  0  0  0
  9  1  1  0  0  0  0
 10  3  2  0  0  0  0
 11  9  1  0  0  0  0
 12 16  2  0  0  0  0
 13 14  2  0  0  0  0
 13 12  1  0  0  0  0
 14 15  1  0  0  0  0
 15 11  2  0  0  0  0
 16 11  1  0  0  0  0
 16 17  1  0  0  0  0
 18 13  1  0  0  0  0
 19 25  1  6  0  0  0
 19 22  1  0  0  0  0
 19 21  1  0  0  0  0
 20 18  1  0  0  0  0
 21 18  1  0  0  0  0
 22 20  1  0  0  0  0
 23 24  1  0  0  0  0
 23 25  1  0  0  0  0
 24 25  1  0  0  0  0
 26 28  1  0  0  0  0
 26  4  1  0  0  0  0
 27 26  2  0  0  0  0
 29 30  1  0  0  0  0
 29 28  1  0  0  0  0
 32 31  2  0  0  0  0
 32 30  1  0  0  0  0
 33 34  1  1  0  0  0
 33 32  1  0  0  0  0
 35 33  1  0  0  0  0
 37 38  1  0  0  0  0
 37 36  1  0  0  0  0
 37 35  1  0  0  0  0
 39 41  1  0  0  0  0
 39 40  1  0  0  0  0
 40  7  1  0  0  0  0
 41 40  1  0  0  0  0
 43 42  1  0  0  0  0
M  END
>  <MODEL>
2

>  <REMARK>
 VINA RESULT:      -7.0      1.196      1.735
  Name = 
  11 active torsions:
  status: ('A' for Active; 'I' for Inactive)
    1  A    between atoms: C_3  and  C_15
    2  A    between atoms: C_3  and  C_37
    3  A    between atoms: C_5  and  C_22
    4  A    between atoms: N_6  and  N_13
    5  A    between atoms: N_6  and  N_33
    6  A    between atoms: C_8  and  C_12
    7  A    between atoms: N_9  and  C_23
    8  A    between atoms: C_14  and  N_38
    9  A    between atoms: C_15  and  C_24
   10  A    between atoms: C_16  and  C_41
   11  A    between atoms: C_26  and  N_35
                            x       y       z     vdW  Elec       q    Type
                         _______ _______ _______ _____ _____    ______ ____

>  <TORSDO>
F 11

$$$$
=
 OpenBabel10222415193D

 43 48  0  0  1  0  0  0  0  0999 V2000
  190.0300  176.9570  145.8200 N   0  0  0  0  0  2  0  0  0  0  0  0
  187.4430  177.9650  145.9590 C   0  0  0  0  0  0  0  0  0  0  0  0
  188.1530  177.6020  147.2010 C   0  0  0  0  0  0  0  0  0  0  0  0
  186.0150  178.5280  144.3670 C   0  0  0  0  0  0  0  0  0  0  0  0
  185.1130  178.6690  146.7720 C   0  0  0  0  0  1  0  0  0  0  0  0
  188.0310  177.8350  144.7300 C   0  0  0  0  0  0  0  0  0  0  0  0
  187.1780  178.1940  143.7320 N   0  0  0  0  0  0  0  0  0  0  0  0
  186.1560  178.4020  145.7420 C   0  0  0  0  0  0  0  0  0  0  0  0
  189.3640  177.2920  144.6220 N   0  0  0  0  0  0  0  0  0  0  0  0
  189.3970  177.1140  147.1040 C   0  0  0  0  0  3  0  0  0  0  0  0
  190.0700  177.1220  143.3940 C   0  0  0  0  0  0  0  0  0  0  0  0
  190.3750  175.9500  141.2970 C   0  0  0  0  0  3  0  0  0  0  0  0
  191.3550  176.8740  140.9090 C   0  0  0  0  0  0  0  0  0  0  0  0
  191.6830  177.9280  141.7770 C   0  0  0  0  0  3  0  0  0  0  0  0
  191.0410  178.0540  143.0110 C   0  0  0  0  0  3  0  0  0  0  0  0
  189.7260  176.0780  142.5260 C   0  0  0  0  0  0  0  0  0  0  0  0
  188.7830  175.1710  142.8820 F   0  0  0  0  0  0  0  0  0  0  0  0
  192.0100  176.7450  139.6390 N   0  0  0  0  0  0  0  0  0  0  0  0
  192.6840  175.9670  137.5820 C   0  0  2  0  0  3  0  0  0  0  0  0
  193.3350  177.2400  139.3430 C   0  0  0  0  0  2  0  0  0  0  0  0
  191.5110  175.9880  138.5320 C   0  0  0  0  0  2  0  0  0  0  0  0
  193.6320  176.9310  138.0000 O   0  0  0  0  0  0  0  0  0  0  0  0
  192.3100  175.0150  135.3320 C   0  0  0  0  0  2  0  0  0  0  0  0
  193.3830  176.0730  135.2150 C   0  0  0  0  0  2  0  0  0  0  0  0
  192.2260  176.2740  136.1700 C   0  0  0  0  0  3  0  0  0  0  0  0
  184.7430  178.8850  143.7130 C   0  0  0  0  0  0  0  0  0  0  0  0
  184.1810  179.9830  143.9770 O   0  0  0  0  0  0  0  0  0  0  0  0
  184.1040  177.9430  142.8420 N   0  0  0  0  0  2  0  0  0  0  0  0
  182.8960  178.2480  142.2000 N   0  0  0  0  0  2  0  0  0  0  0  0
  183.2180  178.6960  140.9110 N   0  0  0  0  0  2  0  0  0  0  0  0
  183.4410  178.2930  138.6390 O   0  0  0  0  0  0  0  0  0  0  0  0
  183.1150  177.8450  139.7690 C   0  0  0  0  0  0  0  0  0  0  0  0
  182.6190  176.4370  139.8780 C   0  0  2  0  0  3  0  0  0  0  0  0
  183.2770  175.6310  138.9710 F   0  0  0  0  0  0  0  0  0  0  0  0
  181.1170  176.3600  139.6410 C   0  0  0  0  0  2  0  0  0  0  0  0
  179.9920  176.1160  137.5520 O   0  0  0  0  0  1  0  0  0  0  0  0
  180.7910  175.4400  138.4780 C   0  0  0  0  0  3  0  0  0  0  0  0
  180.1030  174.3270  138.9530 O   0  0  0  0  0  1  0  0  0  0  0  0
  186.6440  178.9870  141.4260 C   0  0  0  0  0  2  0  0  0  0  0  0
  187.3880  177.9780  142.2920 C   0  0  0  0  0  3  0  0  0  0  0  0
  188.1100  179.1800  141.6960 C   0  0  0  0  0  2  0  0  0  0  0  0
  188.3980  178.2760  149.4560 O   0  0  0  0  0  1  0  0  0  0  0  0
  187.5050  177.7120  148.5410 C   0  0  0  0  0  2  0  0  0  0  0  0
  1 10  1  0  0  0  0
  2  3  1  0  0  0  0
  3 43  1  0  0  0  0
  4  8  2  0  0  0  0
  6  2  2  0  0  0  0
  7  4  1  0  0  0  0
  7  6  1  0  0  0  0
  8  2  1  0  0  0  0
  8  5  1  0  0  0  0
  9  6  1  0  0  0  0
  9  1  1  0  0  0  0
 10  3  2  0  0  0  0
 11  9  1  0  0  0  0
 12 16  1  0  0  0  0
 13 12  2  0  0  0  0
 13 14  1  0  0  0  0
 14 15  2  0  0  0  0
 15 11  1  0  0  0  0
 16 17  1  0  0  0  0
 16 11  2  0  0  0  0
 18 13  1  0  0  0  0
 19 25  1  6  0  0  0
 19 22  1  0  0  0  0
 19 21  1  0  0  0  0
 20 18  1  0  0  0  0
 21 18  1  0  0  0  0
 22 20  1  0  0  0  0
 23 25  1  0  0  0  0
 24 23  1  0  0  0  0
 24 25  1  0  0  0  0
 26 27  2  0  0  0  0
 26  4  1  0  0  0  0
 28 26  1  0  0  0  0
 29 28  1  0  0  0  0
 30 29  1  0  0  0  0
 31 32  2  0  0  0  0
 32 33  1  0  0  0  0
 32 30  1  0  0  0  0
 33 34  1  6  0  0  0
 35 33  1  0  0  0  0
 36 37  1  0  0  0  0
 37 38  1  0  0  0  0
 37 35  1  0  0  0  0
 39 41  1  0  0  0  0
 39 40  1  0  0  0  0
 40  7  1  0  0  0  0
 41 40  1  0  0  0  0
 43 42  1  0  0  0  0
M  END
>  <MODEL>
3

>  <REMARK>
 VINA RESULT:      -6.5      1.791      2.269
  Name = 
  11 active torsions:
  status: ('A' for Active; 'I' for Inactive)
    1  A    between atoms: C_3  and  C_15
    2  A    between atoms: C_3  and  C_37
    3  A    between atoms: C_5  and  C_22
    4  A    between atoms: N_6  and  N_13
    5  A    between atoms: N_6  and  N_33
    6  A    between atoms: C_8  and  C_12
    7  A    between atoms: N_9  and  C_23
    8  A    between atoms: C_14  and  N_38
    9  A    between atoms: C_15  and  C_24
   10  A    between atoms: C_16  and  C_41
   11  A    between atoms: C_26  and  N_35
                            x       y       z     vdW  Elec       q    Type
                         _______ _______ _______ _____ _____    ______ ____

>  <TORSDO>
F 11

$$$$
=
 OpenBabel10222415193D

 43 48  0  0  1  0  0  0  0  0999 V2000
  182.8810  178.6500  143.3640 N   0  0  0  0  0  2  0  0  0  0  0  0
  183.1110  178.7790  140.5970 C   0  0  0  0  0  0  0  0  0  0  0  0
  181.7880  178.9440  141.2270 C   0  0  0  0  0  0  0  0  0  0  0  0
  184.8560  178.4920  139.2690 C   0  0  0  0  0  0  0  0  0  0  0  0
  182.6030  178.8580  138.0820 C   0  0  0  0  0  1  0  0  0  0  0  0
  184.2430  178.5800  141.3400 C   0  0  0  0  0  0  0  0  0  0  0  0
  185.3370  178.4190  140.5460 N   0  0  0  0  0  0  0  0  0  0  0  0
  183.4870  178.7210  139.2740 C   0  0  0  0  0  0  0  0  0  0  0  0
  184.1530  178.4830  142.7770 N   0  0  0  0  0  0  0  0  0  0  0  0
  181.7050  178.8720  142.5620 C   0  0  0  0  0  3  0  0  0  0  0  0
  185.2680  178.2850  143.6450 C   0  0  0  0  0  0  0  0  0  0  0  0
  186.5140  178.8970  145.6300 C   0  0  0  0  0  3  0  0  0  0  0  0
  187.3750  177.8070  145.4410 C   0  0  0  0  0  0  0  0  0  0  0  0
  187.1680  176.9540  144.3430 C   0  0  0  0  0  3  0  0  0  0  0  0
  186.1180  177.1900  143.4530 C   0  0  0  0  0  3  0  0  0  0  0  0
  185.4590  179.1300  144.7460 C   0  0  0  0  0  0  0  0  0  0  0  0
  184.6400  180.1920  144.9470 F   0  0  0  0  0  0  0  0  0  0  0  0
  188.4500  177.5650  146.3590 N   0  0  0  0  0  0  0  0  0  0  0  0
  190.2410  176.6140  147.4460 C   0  0  2  0  0  3  0  0  0  0  0  0
  188.4730  178.0050  147.7350 C   0  0  0  0  0  2  0  0  0  0  0  0
  189.5850  176.7350  146.0910 C   0  0  0  0  0  2  0  0  0  0  0  0
  189.6870  177.5850  148.3130 O   0  0  0  0  0  0  0  0  0  0  0  0
  192.3920  175.5140  146.9300 C   0  0  0  0  0  2  0  0  0  0  0  0
  192.4400  175.9730  148.3690 C   0  0  0  0  0  2  0  0  0  0  0  0
  191.7370  176.8190  147.3290 C   0  0  0  0  0  3  0  0  0  0  0  0
  185.6350  178.2710  138.0370 C   0  0  0  0  0  0  0  0  0  0  0  0
  186.2740  179.2220  137.5100 O   0  0  0  0  0  0  0  0  0  0  0  0
  185.5940  176.9910  137.3920 N   0  0  0  0  0  2  0  0  0  0  0  0
  186.3230  176.7420  136.2210 N   0  0  0  0  0  2  0  0  0  0  0  0
  186.9810  175.5160  136.4010 N   0  0  0  0  0  2  0  0  0  0  0  0
  188.8970  174.3190  136.9210 O   0  0  0  0  0  0  0  0  0  0  0  0
  188.3510  175.4460  136.7990 C   0  0  0  0  0  0  0  0  0  0  0  0
  189.1510  176.6780  137.0850 C   0  0  2  0  0  3  0  0  0  0  0  0
  188.9900  177.5950  136.0670 F   0  0  0  0  0  0  0  0  0  0  0  0
  190.6290  176.3500  137.2530 C   0  0  0  0  0  2  0  0  0  0  0  0
  192.5360  176.6720  138.6490 O   0  0  0  0  0  1  0  0  0  0  0  0
  191.1480  176.8250  138.5990 C   0  0  0  0  0  3  0  0  0  0  0  0
  190.5640  176.0660  139.6090 O   0  0  0  0  0  1  0  0  0  0  0  0
  187.7700  178.3430  139.9990 C   0  0  0  0  0  2  0  0  0  0  0  0
  186.6680  177.9730  140.9830 C   0  0  0  0  0  3  0  0  0  0  0  0
  187.5580  179.1860  141.2250 C   0  0  0  0  0  2  0  0  0  0  0  0
  179.8460  177.9220  140.3400 O   0  0  0  0  0  1  0  0  0  0  0  0
  180.5460  179.1300  140.4200 C   0  0  0  0  0  2  0  0  0  0  0  0
  2  3  1  0  0  0  0
  2  6  2  0  0  0  0
  3 10  2  0  0  0  0
  4  8  2  0  0  0  0
  4  7  1  0  0  0  0
  5  8  1  0  0  0  0
  6  9  1  0  0  0  0
  7 40  1  0  0  0  0
  7  6  1  0  0  0  0
  8  2  1  0  0  0  0
  9  1  1  0  0  0  0
  9 11  1  0  0  0  0
 10  1  1  0  0  0  0
 11 16  1  0  0  0  0
 13 12  1  0  0  0  0
 13 18  1  0  0  0  0
 14 13  2  0  0  0  0
 15 11  2  0  0  0  0
 15 14  1  0  0  0  0
 16 17  1  0  0  0  0
 16 12  2  0  0  0  0
 18 20  1  0  0  0  0
 19 25  1  6  0  0  0
 19 22  1  0  0  0  0
 20 22  1  0  0  0  0
 21 18  1  0  0  0  0
 21 19  1  0  0  0  0
 23 25  1  0  0  0  0
 23 24  1  0  0  0  0
 25 24  1  0  0  0  0
 26  4  1  0  0  0  0
 27 26  2  0  0  0  0
 28 26  1  0  0  0  0
 29 30  1  0  0  0  0
 29 28  1  0  0  0  0
 30 32  1  0  0  0  0
 32 31  2  0  0  0  0
 32 33  1  0  0  0  0
 33 34  1  6  0  0  0
 33 35  1  0  0  0  0
 35 37  1  0  0  0  0
 37 36  1  0  0  0  0
 37 38  1  0  0  0  0
 39 40  1  0  0  0  0
 39 41  1  0  0  0  0
 40 41  1  0  0  0  0
 42 43  1  0  0  0  0
 43  3  1  0  0  0  0
M  END
>  <MODEL>
4

>  <REMARK>
 VINA RESULT:      -6.3      3.121      8.611
  Name = 
  11 active torsions:
  status: ('A' for Active; 'I' for Inactive)
    1  A    between atoms: C_3  and  C_15
    2  A    between atoms: C_3  and  C_37
    3  A    between atoms: C_5  and  C_22
    4  A    between atoms: N_6  and  N_13
    5  A    between atoms: N_6  and  N_33
    6  A    between atoms: C_8  and  C_12
    7  A    between atoms: N_9  and  C_23
    8  A    between atoms: C_14  and  N_38
    9  A    between atoms: C_15  and  C_24
   10  A    between atoms: C_16  and  C_41
   11  A    between atoms: C_26  and  N_35
                            x       y       z     vdW  Elec       q    Type
                         _______ _______ _______ _____ _____    ______ ____

>  <TORSDO>
F 11

$$$$
=
 OpenBabel10222415193D

 43 48  0  0  1  0  0  0  0  0999 V2000
  190.4390  176.0380  134.9110 N   0  0  0  0  0  2  0  0  0  0  0  0
  191.8200  176.3920  137.2970 C   0  0  0  0  0  0  0  0  0  0  0  0
  192.5560  176.0080  136.0780 C   0  0  0  0  0  0  0  0  0  0  0  0
  191.1020  176.8620  139.3360 C   0  0  0  0  0  0  0  0  0  0  0  0
  193.6250  176.4060  139.1220 C   0  0  0  0  0  1  0  0  0  0  0  0
  190.4670  176.5990  137.2860 C   0  0  0  0  0  0  0  0  0  0  0  0
  190.0020  176.9090  138.5270 N   0  0  0  0  0  0  0  0  0  0  0  0
  192.2370  176.5520  138.5990 C   0  0  0  0  0  0  0  0  0  0  0  0
  189.7180  176.3990  136.0690 N   0  0  0  0  0  0  0  0  0  0  0  0
  191.8650  175.8390  134.9430 C   0  0  0  0  0  3  0  0  0  0  0  0
  188.3100  176.5940  135.9460 C   0  0  0  0  0  0  0  0  0  0  0  0
  186.0460  175.8280  136.3380 C   0  0  0  0  0  3  0  0  0  0  0  0
  185.5380  177.0380  135.8450 C   0  0  0  0  0  0  0  0  0  0  0  0
  186.4330  178.0270  135.4060 C   0  0  0  0  0  3  0  0  0  0  0  0
  187.8120  177.8090  135.4610 C   0  0  0  0  0  3  0  0  0  0  0  0
  187.4230  175.6100  136.4010 C   0  0  0  0  0  0  0  0  0  0  0  0
  187.8920  174.4310  136.8790 F   0  0  0  0  0  0  0  0  0  0  0  0
  184.1220  177.2620  135.7930 N   0  0  0  0  0  0  0  0  0  0  0  0
  181.8980  177.4140  136.3610 C   0  0  2  0  0  3  0  0  0  0  0  0
  183.3060  177.1070  134.6100 C   0  0  0  0  0  2  0  0  0  0  0  0
  183.2930  177.5290  136.9290 C   0  0  0  0  0  2  0  0  0  0  0  0
  181.9740  177.4180  134.9490 O   0  0  0  0  0  0  0  0  0  0  0  0
  180.7450  178.4020  138.3110 C   0  0  0  0  0  2  0  0  0  0  0  0
  179.6940  178.0370  137.2880 C   0  0  0  0  0  2  0  0  0  0  0  0
  181.0380  178.5680  136.8350 C   0  0  0  0  0  3  0  0  0  0  0  0
  191.1070  177.0180  140.8020 C   0  0  0  0  0  0  0  0  0  0  0  0
  191.6840  178.0060  141.3330 O   0  0  0  0  0  0  0  0  0  0  0  0
  190.5280  175.9990  141.6270 N   0  0  0  0  0  2  0  0  0  0  0  0
  190.5110  176.1150  143.0230 N   0  0  0  0  0  2  0  0  0  0  0  0
  189.1810  176.3550  143.3990 N   0  0  0  0  0  2  0  0  0  0  0  0
  187.6370  177.4190  144.7620 O   0  0  0  0  0  0  0  0  0  0  0  0
  188.8460  177.2620  144.4500 C   0  0  0  0  0  0  0  0  0  0  0  0
  189.8940  178.0380  145.1840 C   0  0  2  0  0  3  0  0  0  0  0  0
  190.4430  178.9960  144.3560 F   0  0  0  0  0  0  0  0  0  0  0  0
  190.9910  177.1230  145.7110 C   0  0  0  0  0  2  0  0  0  0  0  0
  192.0450  176.2970  147.6850 O   0  0  0  0  0  1  0  0  0  0  0  0
  190.9440  177.0230  147.2260 C   0  0  0  0  0  3  0  0  0  0  0  0
  189.7730  176.3730  147.6050 O   0  0  0  0  0  1  0  0  0  0  0  0
  188.3610  177.8920  140.1300 C   0  0  0  0  0  2  0  0  0  0  0  0
  188.5900  176.9790  138.9320 C   0  0  0  0  0  3  0  0  0  0  0  0
  188.0770  178.4020  138.7440 C   0  0  0  0  0  2  0  0  0  0  0  0
  194.7210  176.9520  135.9310 O   0  0  0  0  0  1  0  0  0  0  0  0
  194.0260  175.7500  136.0920 C   0  0  0  0  0  2  0  0  0  0  0  0
  1 10  1  0  0  0  0
  1  9  1  0  0  0  0
  2  8  1  0  0  0  0
  3 43  1  0  0  0  0
  3  2  1  0  0  0  0
  4 26  1  0  0  0  0
  6  2  2  0  0  0  0
  6  7  1  0  0  0  0
  7 40  1  0  0  0  0
  7  4  1  0  0  0  0
  8  5  1  0  0  0  0
  8  4  2  0  0  0  0
  9  6  1  0  0  0  0
 10  3  2  0  0  0  0
 11  9  1  0  0  0  0
 11 16  1  0  0  0  0
 12 16  2  0  0  0  0
 13 12  1  0  0  0  0
 14 15  1  0  0  0  0
 14 13  2  0  0  0  0
 15 11  2  0  0  0  0
 16 17  1  0  0  0  0
 18 13  1  0  0  0  0
 18 21  1  0  0  0  0
 19 25  1  6  0  0  0
 19 21  1  0  0  0  0
 20 22  1  0  0  0  0
 20 18  1  0  0  0  0
 22 19  1  0  0  0  0
 24 23  1  0  0  0  0
 25 24  1  0  0  0  0
 25 23  1  0  0  0  0
 26 27  2  0  0  0  0
 26 28  1  0  0  0  0
 28 29  1  0  0  0  0
 29 30  1  0  0  0  0
 30 32  1  0  0  0  0
 32 31  2  0  0  0  0
 32 33  1  0  0  0  0
 33 34  1  6  0  0  0
 33 35  1  0  0  0  0
 35 37  1  0  0  0  0
 37 38  1  0  0  0  0
 37 36  1  0  0  0  0
 40 39  1  0  0  0  0
 41 40  1  0  0  0  0
 41 39  1  0  0  0  0
 42 43  1  0  0  0  0
M  END
>  <MODEL>
5

>  <REMARK>
 VINA RESULT:      -6.2      3.688      9.747
  Name = 
  11 active torsions:
  status: ('A' for Active; 'I' for Inactive)
    1  A    between atoms: C_3  and  C_15
    2  A    between atoms: C_3  and  C_37
    3  A    between atoms: C_5  and  C_22
    4  A    between atoms: N_6  and  N_13
    5  A    between atoms: N_6  and  N_33
    6  A    between atoms: C_8  and  C_12
    7  A    between atoms: N_9  and  C_23
    8  A    between atoms: C_14  and  N_38
    9  A    between atoms: C_15  and  C_24
   10  A    between atoms: C_16  and  C_41
   11  A    between atoms: C_26  and  N_35
                            x       y       z     vdW  Elec       q    Type
                         _______ _______ _______ _____ _____    ______ ____

>  <TORSDO>
F 11

$$$$
=
 OpenBabel10222415193D

 43 48  0  0  1  0  0  0  0  0999 V2000
  183.0320  178.6140  144.7580 N   0  0  0  0  0  2  0  0  0  0  0  0
  182.4330  178.9580  142.0650 C   0  0  0  0  0  0  0  0  0  0  0  0
  181.3610  179.0750  143.0720 C   0  0  0  0  0  0  0  0  0  0  0  0
  183.6980  178.7730  140.2600 C   0  0  0  0  0  0  0  0  0  0  0  0
  181.2040  179.2320  139.8290 C   0  0  0  0  0  1  0  0  0  0  0  0
  183.7300  178.7000  142.4210 C   0  0  0  0  0  0  0  0  0  0  0  0
  184.5340  178.6000  141.3280 N   0  0  0  0  0  0  0  0  0  0  0  0
  182.3990  179.0030  140.6900 C   0  0  0  0  0  0  0  0  0  0  0  0
  184.0690  178.4920  143.8080 N   0  0  0  0  0  0  0  0  0  0  0  0
  181.6770  178.8990  144.3620 C   0  0  0  0  0  3  0  0  0  0  0  0
  185.3860  178.2260  144.2870 C   0  0  0  0  0  0  0  0  0  0  0  0
  187.1920  178.7030  145.8290 C   0  0  0  0  0  3  0  0  0  0  0  0
  187.9180  177.6100  145.3360 C   0  0  0  0  0  0  0  0  0  0  0  0
  187.3610  176.8240  144.3140 C   0  0  0  0  0  3  0  0  0  0  0  0
  186.1000  177.1270  143.7950 C   0  0  0  0  0  3  0  0  0  0  0  0
  185.9280  179.0040  145.3180 C   0  0  0  0  0  0  0  0  0  0  0  0
  185.2440  180.0680  145.8080 F   0  0  0  0  0  0  0  0  0  0  0  0
  189.2110  177.2980  145.8730 N   0  0  0  0  0  0  0  0  0  0  0  0
  190.9410  176.8550  147.3240 C   0  0  2  0  0  3  0  0  0  0  0  0
  190.4670  177.6540  145.2550 C   0  0  0  0  0  2  0  0  0  0  0  0
  189.4460  176.7190  147.1610 C   0  0  0  0  0  2  0  0  0  0  0  0
  191.5120  177.1760  146.0700 O   0  0  0  0  0  0  0  0  0  0  0  0
  192.8890  175.8470  148.4620 C   0  0  0  0  0  2  0  0  0  0  0  0
  192.8010  175.2490  147.0770 C   0  0  0  0  0  2  0  0  0  0  0  0
  191.5350  175.5620  147.8450 C   0  0  0  0  0  3  0  0  0  0  0  0
  184.0700  178.6470  138.8400 C   0  0  0  0  0  0  0  0  0  0  0  0
  184.5280  179.6410  138.2130 O   0  0  0  0  0  0  0  0  0  0  0  0
  183.8300  177.4140  138.1500 N   0  0  0  0  0  2  0  0  0  0  0  0
  184.1730  177.2550  136.8000 N   0  0  0  0  0  2  0  0  0  0  0  0
  185.1140  176.2180  136.7350 N   0  0  0  0  0  2  0  0  0  0  0  0
  187.2720  175.4830  136.3130 O   0  0  0  0  0  0  0  0  0  0  0  0
  186.4770  176.4560  136.3810 C   0  0  0  0  0  0  0  0  0  0  0  0
  186.9870  177.8340  136.0960 C   0  0  2  0  0  3  0  0  0  0  0  0
  186.5860  178.2380  134.8390 F   0  0  0  0  0  0  0  0  0  0  0  0
  188.5060  177.8920  136.1950 C   0  0  0  0  0  2  0  0  0  0  0  0
  189.0570  179.7500  137.5850 O   0  0  0  0  0  1  0  0  0  0  0  0
  188.9500  178.3570  137.5700 C   0  0  0  0  0  3  0  0  0  0  0  0
  190.1900  177.7970  137.8650 O   0  0  0  0  0  1  0  0  0  0  0  0
  186.7160  178.6300  140.1170 C   0  0  0  0  0  2  0  0  0  0  0  0
  185.9240  178.1200  141.3140 C   0  0  0  0  0  3  0  0  0  0  0  0
  186.8730  179.3040  141.4520 C   0  0  0  0  0  2  0  0  0  0  0  0
  179.7200  180.6970  142.5460 O   0  0  0  0  0  1  0  0  0  0  0  0
  179.9410  179.3240  142.6870 C   0  0  0  0  0  2  0  0  0  0  0  0
  2  6  2  0  0  0  0
  2  3  1  0  0  0  0
  3 10  2  0  0  0  0
  4  8  2  0  0  0  0
  4  7  1  0  0  0  0
  5  8  1  0  0  0  0
  6  9  1  0  0  0  0
  7  6  1  0  0  0  0
  8  2  1  0  0  0  0
  9 11  1  0  0  0  0
  9  1  1  0  0  0  0
 10  1  1  0  0  0  0
 11 16  1  0  0  0  0
 13 12  1  0  0  0  0
 13 18  1  0  0  0  0
 14 13  2  0  0  0  0
 15 11  2  0  0  0  0
 15 14  1  0  0  0  0
 16 17  1  0  0  0  0
 16 12  2  0  0  0  0
 18 21  1  0  0  0  0
 19 25  1  6  0  0  0
 20 18  1  0  0  0  0
 20 22  1  0  0  0  0
 21 19  1  0  0  0  0
 22 19  1  0  0  0  0
 24 25  1  0  0  0  0
 24 23  1  0  0  0  0
 25 23  1  0  0  0  0
 26  4  1  0  0  0  0
 27 26  2  0  0  0  0
 28 26  1  0  0  0  0
 29 28  1  0  0  0  0
 30 29  1  0  0  0  0
 31 32  2  0  0  0  0
 32 30  1  0  0  0  0
 33 34  1  6  0  0  0
 33 35  1  0  0  0  0
 33 32  1  0  0  0  0
 35 37  1  0  0  0  0
 37 36  1  0  0  0  0
 37 38  1  0  0  0  0
 39 40  1  0  0  0  0
 39 41  1  0  0  0  0
 40  7  1  0  0  0  0
 40 41  1  0  0  0  0
 42 43  1  0  0  0  0
 43  3  1  0  0  0  0
M  END
>  <MODEL>
6

>  <REMARK>
 VINA RESULT:      -6.2      3.402      7.818
  Name = 
  11 active torsions:
  status: ('A' for Active; 'I' for Inactive)
    1  A    between atoms: C_3  and  C_15
    2  A    between atoms: C_3  and  C_37
    3  A    between atoms: C_5  and  C_22
    4  A    between atoms: N_6  and  N_13
    5  A    between atoms: N_6  and  N_33
    6  A    between atoms: C_8  and  C_12
    7  A    between atoms: N_9  and  C_23
    8  A    between atoms: C_14  and  N_38
    9  A    between atoms: C_15  and  C_24
   10  A    between atoms: C_16  and  C_41
   11  A    between atoms: C_26  and  N_35
                            x       y       z     vdW  Elec       q    Type
                         _______ _______ _______ _____ _____    ______ ____

>  <TORSDO>
F 11

$$$$
=
 OpenBabel10222415193D

 43 48  0  0  1  0  0  0  0  0999 V2000
  189.9200  176.7660  145.4960 N   0  0  0  0  0  2  0  0  0  0  0  0
  187.4030  177.8940  145.8370 C   0  0  0  0  0  0  0  0  0  0  0  0
  188.1440  177.3950  147.0110 C   0  0  0  0  0  0  0  0  0  0  0  0
  185.9420  178.6610  144.3630 C   0  0  0  0  0  0  0  0  0  0  0  0
  185.1530  178.6520  146.8120 C   0  0  0  0  0  1  0  0  0  0  0  0
  187.9290  177.8350  144.5750 C   0  0  0  0  0  0  0  0  0  0  0  0
  187.0570  178.3190  143.6500 N   0  0  0  0  0  0  0  0  0  0  0  0
  186.1350  178.4150  145.7160 C   0  0  0  0  0  0  0  0  0  0  0  0
  189.2230  177.2320  144.3610 N   0  0  0  0  0  0  0  0  0  0  0  0
  189.3520  176.8510  146.8170 C   0  0  0  0  0  3  0  0  0  0  0  0
  189.8660  177.1260  143.0920 C   0  0  0  0  0  0  0  0  0  0  0  0
  191.7120  177.6790  141.6250 C   0  0  0  0  0  3  0  0  0  0  0  0
  191.2150  176.8030  140.6500 C   0  0  0  0  0  0  0  0  0  0  0  0
  190.0360  176.0850  140.9120 C   0  0  0  0  0  3  0  0  0  0  0  0
  189.3680  176.2420  142.1280 C   0  0  0  0  0  3  0  0  0  0  0  0
  191.0500  177.8320  142.8440 C   0  0  0  0  0  0  0  0  0  0  0  0
  191.5460  178.6880  143.7720 F   0  0  0  0  0  0  0  0  0  0  0  0
  191.9050  176.6400  139.4030 N   0  0  0  0  0  0  0  0  0  0  0  0
  192.6350  175.8070  137.3860 C   0  0  2  0  0  3  0  0  0  0  0  0
  193.2400  177.1240  139.1310 C   0  0  0  0  0  2  0  0  0  0  0  0
  191.4350  175.8540  138.3030 C   0  0  0  0  0  2  0  0  0  0  0  0
  193.5730  176.7790  137.8060 O   0  0  0  0  0  0  0  0  0  0  0  0
  192.5350  174.8650  135.1040 C   0  0  0  0  0  2  0  0  0  0  0  0
  193.4440  176.0720  135.0680 C   0  0  0  0  0  2  0  0  0  0  0  0
  192.2170  176.0770  135.9550 C   0  0  0  0  0  3  0  0  0  0  0  0
  184.6660  179.1370  143.8010 C   0  0  0  0  0  0  0  0  0  0  0  0
  184.2940  180.3270  143.9900 O   0  0  0  0  0  0  0  0  0  0  0  0
  183.8080  178.2190  143.1100 N   0  0  0  0  0  2  0  0  0  0  0  0
  182.5880  178.6360  142.5600 N   0  0  0  0  0  2  0  0  0  0  0  0
  182.2520  177.7110  141.5620 N   0  0  0  0  0  2  0  0  0  0  0  0
  181.4290  177.2460  139.4440 O   0  0  0  0  0  0  0  0  0  0  0  0
  181.7390  178.1210  140.2930 C   0  0  0  0  0  0  0  0  0  0  0  0
  181.5680  179.5660  139.9440 C   0  0  2  0  0  3  0  0  0  0  0  0
  180.5340  180.1130  140.6760 F   0  0  0  0  0  0  0  0  0  0  0  0
  181.2960  179.7470  138.4560 C   0  0  0  0  0  2  0  0  0  0  0  0
  182.7330  181.6090  138.8500 O   0  0  0  0  0  1  0  0  0  0  0  0
  181.7720  181.1050  137.9710 C   0  0  0  0  0  3  0  0  0  0  0  0
  180.6890  181.9780  137.9230 O   0  0  0  0  0  1  0  0  0  0  0  0
  186.4530  179.3130  141.4420 C   0  0  0  0  0  2  0  0  0  0  0  0
  187.1920  178.2110  142.1890 C   0  0  0  0  0  3  0  0  0  0  0  0
  187.9370  179.4280  141.6550 C   0  0  0  0  0  2  0  0  0  0  0  0
  188.2980  178.2990  149.1930 O   0  0  0  0  0  1  0  0  0  0  0  0
  187.5610  177.4280  148.3840 C   0  0  0  0  0  2  0  0  0  0  0  0
  1 10  1  0  0  0  0
  2  3  1  0  0  0  0
  3 43  1  0  0  0  0
  4  8  2  0  0  0  0
  6  2  2  0  0  0  0
  7  4  1  0  0  0  0
  7  6  1  0  0  0  0
  8  2  1  0  0  0  0
  8  5  1  0  0  0  0
  9  6  1  0  0  0  0
  9  1  1  0  0  0  0
 10  3  2  0  0  0  0
 11  9  1  0  0  0  0
 12 16  2  0  0  0  0
 13 14  2  0  0  0  0
 13 12  1  0  0  0  0
 14 15  1  0  0  0  0
 15 11  2  0  0  0  0
 16 11  1  0  0  0  0
 16 17  1  0  0  0  0
 18 13  1  0  0  0  0
 19 25  1  6  0  0  0
 19 22  1  0  0  0  0
 19 21  1  0  0  0  0
 20 18  1  0  0  0  0
 21 18  1  0  0  0  0
 22 20  1  0  0  0  0
 23 25  1  0  0  0  0
 24 23  1  0  0  0  0
 24 25  1  0  0  0  0
 26 27  2  0  0  0  0
 26  4  1  0  0  0  0
 28 26  1  0  0  0  0
 29 28  1  0  0  0  0
 30 29  1  0  0  0  0
 31 32  2  0  0  0  0
 32 30  1  0  0  0  0
 33 32  1  0  0  0  0
 33 34  1  1  0  0  0
 35 33  1  0  0  0  0
 37 35  1  0  0  0  0
 37 36  1  0  0  0  0
 38 37  1  0  0  0  0
 39 41  1  0  0  0  0
 39 40  1  0  0  0  0
 40  7  1  0  0  0  0
 41 40  1  0  0  0  0
 43 42  1  0  0  0  0
M  END
>  <MODEL>
7

>  <REMARK>
 VINA RESULT:      -6.2      1.346      1.734
  Name = 
  11 active torsions:
  status: ('A' for Active; 'I' for Inactive)
    1  A    between atoms: C_3  and  C_15
    2  A    between atoms: C_3  and  C_37
    3  A    between atoms: C_5  and  C_22
    4  A    between atoms: N_6  and  N_13
    5  A    between atoms: N_6  and  N_33
    6  A    between atoms: C_8  and  C_12
    7  A    between atoms: N_9  and  C_23
    8  A    between atoms: C_14  and  N_38
    9  A    between atoms: C_15  and  C_24
   10  A    between atoms: C_16  and  C_41
   11  A    between atoms: C_26  and  N_35
                            x       y       z     vdW  Elec       q    Type
                         _______ _______ _______ _____ _____    ______ ____

>  <TORSDO>
F 11

$$$$
=
 OpenBabel10222415193D

 43 48  0  0  1  0  0  0  0  0999 V2000
  190.2160  176.3520  136.0070 N   0  0  0  0  0  2  0  0  0  0  0  0
  191.7170  176.6900  138.3220 C   0  0  0  0  0  0  0  0  0  0  0  0
  192.3970  176.3770  137.0500 C   0  0  0  0  0  0  0  0  0  0  0  0
  191.1010  177.0610  140.4130 C   0  0  0  0  0  0  0  0  0  0  0  0
  193.6240  176.7230  140.0410 C   0  0  0  0  0  1  0  0  0  0  0  0
  190.3590  176.8370  138.3950 C   0  0  0  0  0  0  0  0  0  0  0  0
  189.9540  177.0860  139.6700 N   0  0  0  0  0  0  0  0  0  0  0  0
  192.2030  176.8260  139.6030 C   0  0  0  0  0  0  0  0  0  0  0  0
  189.5490  176.6440  137.2160 N   0  0  0  0  0  0  0  0  0  0  0  0
  191.6480  176.2150  135.9510 C   0  0  0  0  0  3  0  0  0  0  0  0
  188.1290  176.7810  137.1800 C   0  0  0  0  0  0  0  0  0  0  0  0
  186.1640  178.1700  136.9040 C   0  0  0  0  0  3  0  0  0  0  0  0
  185.3410  177.0360  136.9560 C   0  0  0  0  0  0  0  0  0  0  0  0
  185.9290  175.7710  137.1180 C   0  0  0  0  0  3  0  0  0  0  0  0
  187.3150  175.6430  137.2250 C   0  0  0  0  0  3  0  0  0  0  0  0
  187.5510  178.0440  137.0020 C   0  0  0  0  0  0  0  0  0  0  0  0
  188.3280  179.1540  136.9520 F   0  0  0  0  0  0  0  0  0  0  0  0
  183.9170  177.1690  136.8430 N   0  0  0  0  0  0  0  0  0  0  0  0
  181.7730  177.2220  136.0090 C   0  0  2  0  0  3  0  0  0  0  0  0
  183.1060  178.0600  137.6410 C   0  0  0  0  0  2  0  0  0  0  0  0
  183.1140  176.5500  135.8320 C   0  0  0  0  0  2  0  0  0  0  0  0
  181.7630  177.9080  137.2460 O   0  0  0  0  0  0  0  0  0  0  0  0
  179.4420  176.7950  135.3090 C   0  0  0  0  0  2  0  0  0  0  0  0
  179.5000  176.6910  136.8160 C   0  0  0  0  0  2  0  0  0  0  0  0
  180.6600  176.1940  135.9800 C   0  0  0  0  0  3  0  0  0  0  0  0
  191.1840  177.1710  141.8810 C   0  0  0  0  0  0  0  0  0  0  0  0
  191.0830  176.1410  142.6010 O   0  0  0  0  0  0  0  0  0  0  0  0
  191.2950  178.4640  142.4910 N   0  0  0  0  0  2  0  0  0  0  0  0
  191.3800  178.6070  143.8830 N   0  0  0  0  0  2  0  0  0  0  0  0
  190.0870  178.8930  144.3440 N   0  0  0  0  0  2  0  0  0  0  0  0
  188.2390  178.3310  145.6270 O   0  0  0  0  0  0  0  0  0  0  0  0
  189.4080  178.0380  145.2660 C   0  0  0  0  0  0  0  0  0  0  0  0
  190.0540  176.8080  145.8210 C   0  0  2  0  0  3  0  0  0  0  0  0
  189.3060  176.3090  146.8670 F   0  0  0  0  0  0  0  0  0  0  0  0
  191.4740  177.0940  146.2930 C   0  0  0  0  0  2  0  0  0  0  0  0
  192.4290  176.9210  148.4720 O   0  0  0  0  0  1  0  0  0  0  0  0
  191.8690  176.1730  147.4340 C   0  0  0  0  0  3  0  0  0  0  0  0
  192.8060  175.2510  146.9740 O   0  0  0  0  0  1  0  0  0  0  0  0
  188.4130  177.7480  141.5180 C   0  0  0  0  0  2  0  0  0  0  0  0
  188.5660  177.0820  140.1570 C   0  0  0  0  0  3  0  0  0  0  0  0
  188.0630  178.5160  140.2730 C   0  0  0  0  0  2  0  0  0  0  0  0
  194.1850  174.8280  137.1140 O   0  0  0  0  0  1  0  0  0  0  0  0
  193.8740  176.1830  136.9720 C   0  0  0  0  0  2  0  0  0  0  0  0
  1  9  1  0  0  0  0
  2  6  2  0  0  0  0
  2  8  1  0  0  0  0
  3  2  1  0  0  0  0
  4 26  1  0  0  0  0
  6  7  1  0  0  0  0
  7 40  1  0  0  0  0
  7  4  1  0  0  0  0
  8  5  1  0  0  0  0
  8  4  2  0  0  0  0
  9  6  1  0  0  0  0
 10  1  1  0  0  0  0
 10  3  2  0  0  0  0
 11  9  1  0  0  0  0
 11 15  1  0  0  0  0
 12 13  2  0  0  0  0
 12 16  1  0  0  0  0
 13 14  1  0  0  0  0
 14 15  2  0  0  0  0
 16 11  2  0  0  0  0
 17 16  1  0  0  0  0
 18 13  1  0  0  0  0
 18 20  1  0  0  0  0
 19 25  1  1  0  0  0
 19 22  1  0  0  0  0
 21 19  1  0  0  0  0
 21 18  1  0  0  0  0
 22 20  1  0  0  0  0
 23 25  1  0  0  0  0
 23 24  1  0  0  0  0
 25 24  1  0  0  0  0
 26 28  1  0  0  0  0
 26 27  2  0  0  0  0
 28 29  1  0  0  0  0
 29 30  1  0  0  0  0
 30 32  1  0  0  0  0
 32 31  2  0  0  0  0
 32 33  1  0  0  0  0
 33 35  1  0  0  0  0
 33 34  1  1  0  0  0
 35 37  1  0  0  0  0
 37 36  1  0  0  0  0
 38 37  1  0  0  0  0
 40 41  1  0  0  0  0
 40 39  1  0  0  0  0
 41 39  1  0  0  0  0
 43  3  1  0  0  0  0
 43 42  1  0  0  0  0
M  END
>  <MODEL>
8

>  <REMARK>
 VINA RESULT:      -6.2      3.669      9.578
  Name = 
  11 active torsions:
  status: ('A' for Active; 'I' for Inactive)
    1  A    between atoms: C_3  and  C_15
    2  A    between atoms: C_3  and  C_37
    3  A    between atoms: C_5  and  C_22
    4  A    between atoms: N_6  and  N_13
    5  A    between atoms: N_6  and  N_33
    6  A    between atoms: C_8  and  C_12
    7  A    between atoms: N_9  and  C_23
    8  A    between atoms: C_14  and  N_38
    9  A    between atoms: C_15  and  C_24
   10  A    between atoms: C_16  and  C_41
   11  A    between atoms: C_26  and  N_35
                            x       y       z     vdW  Elec       q    Type
                         _______ _______ _______ _____ _____    ______ ____

>  <TORSDO>
F 11

$$$$
=
 OpenBabel10222415193D

 43 48  0  0  1  0  0  0  0  0999 V2000
  190.6680  175.8620  136.0380 N   0  0  0  0  0  2  0  0  0  0  0  0
  191.9590  176.5070  138.4130 C   0  0  0  0  0  0  0  0  0  0  0  0
  192.7430  175.9970  137.2720 C   0  0  0  0  0  0  0  0  0  0  0  0
  191.1640  177.1960  140.3590 C   0  0  0  0  0  0  0  0  0  0  0  0
  193.6980  176.7570  140.2850 C   0  0  0  0  0  1  0  0  0  0  0  0
  190.6050  176.6910  138.3320 C   0  0  0  0  0  0  0  0  0  0  0  0
  190.0930  177.1340  139.5130 N   0  0  0  0  0  0  0  0  0  0  0  0
  192.3280  176.8210  139.7010 C   0  0  0  0  0  0  0  0  0  0  0  0
  189.9020  176.3420  137.1210 N   0  0  0  0  0  0  0  0  0  0  0  0
  192.0940  175.6890  136.1410 C   0  0  0  0  0  3  0  0  0  0  0  0
  188.4970  176.5000  136.9280 C   0  0  0  0  0  0  0  0  0  0  0  0
  186.2480  175.6130  137.0780 C   0  0  0  0  0  3  0  0  0  0  0  0
  185.7200  176.8540  136.6950 C   0  0  0  0  0  0  0  0  0  0  0  0
  186.5980  177.9200  136.4340 C   0  0  0  0  0  3  0  0  0  0  0  0
  187.9790  177.7450  136.5550 C   0  0  0  0  0  3  0  0  0  0  0  0
  187.6270  175.4380  137.2060 C   0  0  0  0  0  0  0  0  0  0  0  0
  188.1160  174.2280  137.5750 F   0  0  0  0  0  0  0  0  0  0  0  0
  184.3020  177.0330  136.5760 N   0  0  0  0  0  0  0  0  0  0  0  0
  182.2010  177.4500  135.7360 C   0  0  2  0  0  3  0  0  0  0  0  0
  183.4400  177.5080  137.6350 C   0  0  0  0  0  2  0  0  0  0  0  0
  183.5590  176.9060  135.3590 C   0  0  0  0  0  2  0  0  0  0  0  0
  182.1200  177.5480  137.1440 O   0  0  0  0  0  0  0  0  0  0  0  0
  179.9950  177.3810  134.6260 C   0  0  0  0  0  2  0  0  0  0  0  0
  179.8380  176.7860  136.0060 C   0  0  0  0  0  2  0  0  0  0  0  0
  181.1060  176.5390  135.2180 C   0  0  0  0  0  3  0  0  0  0  0  0
  191.1150  177.5190  141.7960 C   0  0  0  0  0  0  0  0  0  0  0  0
  191.5610  178.6230  142.2140 O   0  0  0  0  0  0  0  0  0  0  0  0
  190.6360  176.5410  142.7280 N   0  0  0  0  0  2  0  0  0  0  0  0
  190.5720  176.8130  144.1010 N   0  0  0  0  0  2  0  0  0  0  0  0
  191.4290  175.9050  144.7390 N   0  0  0  0  0  2  0  0  0  0  0  0
  192.4890  175.1470  146.6570 O   0  0  0  0  0  0  0  0  0  0  0  0
  191.6920  175.9720  146.1420 C   0  0  0  0  0  0  0  0  0  0  0  0
  191.0350  176.9930  147.0170 C   0  0  2  0  0  3  0  0  0  0  0  0
  191.7290  177.1180  148.2040 F   0  0  0  0  0  0  0  0  0  0  0  0
  189.5860  176.6250  147.3050 C   0  0  0  0  0  2  0  0  0  0  0  0
  188.3020  177.8590  148.8920 O   0  0  0  0  0  1  0  0  0  0  0  0
  188.7460  177.8620  147.5680 C   0  0  0  0  0  3  0  0  0  0  0  0
  187.6460  177.8590  146.7140 O   0  0  0  0  0  1  0  0  0  0  0  0
  188.4120  178.0720  141.1000 C   0  0  0  0  0  2  0  0  0  0  0  0
  188.6660  177.2290  139.8580 C   0  0  0  0  0  3  0  0  0  0  0  0
  188.2090  178.6780  139.7390 C   0  0  0  0  0  2  0  0  0  0  0  0
  194.8230  176.0740  136.1460 O   0  0  0  0  0  1  0  0  0  0  0  0
  194.2140  175.7650  137.3660 C   0  0  0  0  0  2  0  0  0  0  0  0
  1 10  1  0  0  0  0
  1  9  1  0  0  0  0
  2  8  1  0  0  0  0
  3 43  1  0  0  0  0
  3  2  1  0  0  0  0
  4 26  1  0  0  0  0
  6  2  2  0  0  0  0
  6  7  1  0  0  0  0
  7 40  1  0  0  0  0
  7  4  1  0  0  0  0
  8  5  1  0  0  0  0
  8  4  2  0  0  0  0
  9  6  1  0  0  0  0
 10  3  2  0  0  0  0
 11  9  1  0  0  0  0
 11 16  1  0  0  0  0
 12 16  2  0  0  0  0
 13 12  1  0  0  0  0
 14 15  1  0  0  0  0
 14 13  2  0  0  0  0
 15 11  2  0  0  0  0
 16 17  1  0  0  0  0
 18 13  1  0  0  0  0
 18 20  1  0  0  0  0
 19 25  1  1  0  0  0
 19 22  1  0  0  0  0
 21 19  1  0  0  0  0
 21 18  1  0  0  0  0
 22 20  1  0  0  0  0
 23 25  1  0  0  0  0
 23 24  1  0  0  0  0
 25 24  1  0  0  0  0
 26 27  2  0  0  0  0
 26 28  1  0  0  0  0
 28 29  1  0  0  0  0
 29 30  1  0  0  0  0
 30 32  1  0  0  0  0
 32 31  2  0  0  0  0
 32 33  1  0  0  0  0
 33 35  1  0  0  0  0
 33 34  1  1  0  0  0
 35 37  1  0  0  0  0
 37 36  1  0  0  0  0
 38 37  1  0  0  0  0
 40 39  1  0  0  0  0
 41 40  1  0  0  0  0
 41 39  1  0  0  0  0
 42 43  1  0  0  0  0
M  END
>  <MODEL>
9

>  <REMARK>
 VINA RESULT:      -6.1      3.722      9.492
  Name = 
  11 active torsions:
  status: ('A' for Active; 'I' for Inactive)
    1  A    between atoms: C_3  and  C_15
    2  A    between atoms: C_3  and  C_37
    3  A    between atoms: C_5  and  C_22
    4  A    between atoms: N_6  and  N_13
    5  A    between atoms: N_6  and  N_33
    6  A    between atoms: C_8  and  C_12
    7  A    between atoms: N_9  and  C_23
    8  A    between atoms: C_14  and  N_38
    9  A    between atoms: C_15  and  C_24
   10  A    between atoms: C_16  and  C_41
   11  A    between atoms: C_26  and  N_35
                            x       y       z     vdW  Elec       q    Type
                         _______ _______ _______ _____ _____    ______ ____

>  <TORSDO>
F 11

$$$$
