=
 OpenBabel10222416063D

 61 67  0  0  1  0  0  0  0  0999 V2000
  188.4480  178.1270  136.8230 C   0  0  0  0  0  0  0  0  0  0  0  0
  189.4380  176.0810  138.1110 C   0  0  0  0  0  3  0  0  0  0  0  0
  189.1070  179.3830  136.9320 N   0  0  0  0  0  1  0  0  0  0  0  0
  188.9400  177.0920  137.4480 C   0  0  0  0  0  0  0  0  0  0  0  0
  190.4380  175.1530  137.5430 C   0  0  0  0  0  0  0  0  0  0  0  0
  192.3390  173.4040  136.4190 C   0  0  0  0  0  0  0  0  0  0  0  0
  190.9710  173.1580  136.2490 C   0  0  0  0  0  3  0  0  0  0  0  0
  190.0290  174.0290  136.8040 C   0  0  0  0  0  3  0  0  0  0  0  0
  192.7530  174.5260  137.1440 C   0  0  0  0  0  3  0  0  0  0  0  0
  191.8170  175.4060  137.7130 C   0  0  0  0  0  0  0  0  0  0  0  0
  192.2700  176.6020  138.4580 C   0  0  0  0  0  3  0  0  0  0  0  0
  190.9350  177.6380  140.4510 C   0  0  0  0  0  3  0  0  0  0  0  0
  191.5890  177.1290  139.4420 C   0  0  0  0  0  0  0  0  0  0  0  0
  190.1740  176.2440  142.3620 C   0  0  0  0  0  2  0  0  0  0  0  0
  189.7740  176.9300  141.0700 C   0  0  1  0  0  3  0  0  0  0  0  0
  189.4780  177.5920  142.4140 C   0  0  1  0  0  3  0  0  0  0  0  0
  188.0680  177.4150  142.7730 N   0  0  2  0  0  0  0  0  0  0  0  0
  185.8670  178.3600  142.2160 C   0  0  0  0  0  0  0  0  0  0  0  0
  187.3310  178.3350  141.8950 C   0  0  0  0  0  2  0  0  0  0  0  0
  184.9100  178.5250  146.4090 C   0  0  0  0  0  3  0  0  0  0  0  0
  184.0700  178.3870  144.0150 C   0  0  0  0  0  2  0  0  0  0  0  0
  186.1010  178.0480  146.0090 C   0  0  0  0  0  3  0  0  0  0  0  0
  185.5340  178.6270  143.6540 C   0  0  1  0  0  3  0  0  0  0  0  0
  187.8740  177.8130  144.1870 C   0  0  1  0  0  3  0  0  0  0  0  0
  185.0390  178.7690  141.2540 C   0  0  0  0  0  2  0  0  0  0  0  0
  183.8070  178.8890  145.4360 C   0  0  0  0  0  2  0  0  0  0  0  0
  186.3810  177.7330  144.5580 C   0  0  1  0  0  3  0  0  0  0  0  0
  188.6580  176.8940  145.1260 C   0  0  0  0  0  2  0  0  0  0  0  0
  189.5870  177.6870  145.9260 N   0  0  0  0  0  2  0  0  0  0  0  0
  189.7740  177.0910  147.2560 C   0  0  0  0  0  3  0  0  0  0  0  0
  189.2730  178.0010  148.3600 C   0  0  0  0  0  1  0  0  0  0  0  0
  191.2110  176.6760  147.4990 C   0  0  0  0  0  1  0  0  0  0  0  0
  193.2360  171.1850  136.0560 N   0  0  0  0  0  1  0  0  0  0  0  0
  193.3020  172.5490  135.8790 O   0  0  0  0  0  0  0  0  0  0  0  0
  187.0810  178.0740  136.2960 C   0  0  0  0  0  0  0  0  0  0  0  0
  186.8560  178.5680  135.1560 O   0  0  0  0  0  0  0  0  0  0  0  0
  184.8080  175.3170  136.4960 C   0  0  0  0  0  3  0  0  0  0  0  0
  185.9930  177.4070  137.0430 C   0  0  0  0  0  0  0  0  0  0  0  0
  183.5510  175.5640  136.8710 C   0  0  0  0  0  3  0  0  0  0  0  0
  183.1410  176.4970  137.9490 C   0  0  0  0  0  0  0  0  0  0  0  0
  185.9870  175.9150  137.1820 C   0  0  0  0  0  2  0  0  0  0  0  0
  183.7950  177.6350  138.2360 C   0  0  0  0  0  3  0  0  0  0  0  0
  185.0210  178.1470  137.5890 C   0  0  0  0  0  3  0  0  0  0  0  0
  181.6930  175.1960  139.3040 O   0  0  0  0  0  0  0  0  0  0  0  0
  181.8560  176.2480  138.6300 C   0  0  0  0  0  0  0  0  0  0  0  0
  180.8110  177.1700  138.5030 O   0  0  0  0  0  0  0  0  0  0  0  0
  180.1250  177.3900  137.2760 C   0  0  0  0  0  2  0  0  0  0  0  0
  180.9060  179.4500  136.0570 C   0  0  2  0  0  3  0  0  0  0  0  0
  179.8740  178.8770  137.0400 C   0  0  2  0  0  3  0  0  0  0  0  0
  179.8000  181.7810  139.5370 C   0  0  0  0  0  1  0  0  0  0  0  0
  179.5940  181.4590  135.0720 C   0  0  0  0  0  2  0  0  0  0  0  0
  180.1760  183.1070  136.7930 C   0  0  2  0  0  3  0  0  0  0  0  0
  179.7200  181.0960  138.1880 C   0  0  1  0  0  3  0  0  0  0  0  0
  180.7870  180.9800  135.8810 C   0  0  1  0  0  3  0  0  0  0  0  0
  181.2450  183.9590  136.5150 O   0  0  0  0  0  1  0  0  0  0  0  0
  180.7110  181.7410  137.2010 C   0  0  1  0  0  3  0  0  0  0  0  0
  179.9950  179.6090  138.3700 C   0  0  0  0  0  2  0  0  0  0  0  0
  179.3590  182.8930  135.5200 C   0  0  0  0  0  2  0  0  0  0  0  0
  182.3390  177.9180  134.5940 C   0  0  0  0  0  1  0  0  0  0  0  0
  181.0240  178.6650  134.7370 C   0  0  1  0  0  3  0  0  0  0  0  0
  179.9520  177.7810  134.5940 O   0  0  0  0  0  1  0  0  0  0  0  0
  1  3  1  0  0  0  0
  1  4  2  0  0  0  0
  4  2  2  0  0  0  0
  5 10  1  0  0  0  0
  5  2  1  0  0  0  0
  6  9  1  0  0  0  0
  7  6  2  0  0  0  0
  7  8  1  0  0  0  0
  8  5  2  0  0  0  0
  9 10  2  0  0  0  0
 10 11  1  0  0  0  0
 11 13  2  0  0  0  0
 13 12  2  0  0  0  0
 15 12  1  6  0  0  0
 15 14  1  0  0  0  0
 15 16  1  0  0  0  0
 16 14  1  1  0  0  0
 16 17  1  0  0  0  0
 17 19  1  6  0  0  0
 17 24  1  0  0  0  0
 18 23  1  0  0  0  0
 19 18  1  0  0  0  0
 21 26  1  0  0  0  0
 22 20  2  0  0  0  0
 23 21  1  6  0  0  0
 23 27  1  0  0  0  0
 24 27  1  0  0  0  0
 24 28  1  1  0  0  0
 25 18  2  0  0  0  0
 26 20  1  0  0  0  0
 27 22  1  1  0  0  0
 28 29  1  0  0  0  0
 29 30  1  0  0  0  0
 30 32  1  0  0  0  0
 30 31  1  0  0  0  0
 34 33  1  0  0  0  0
 34  6  1  0  0  0  0
 35  1  1  0  0  0  0
 35 38  1  0  0  0  0
 36 35  2  0  0  0  0
 37 39  2  0  0  0  0
 37 41  1  0  0  0  0
 38 41  1  0  0  0  0
 38 43  2  0  0  0  0
 39 40  1  0  0  0  0
 40 42  2  0  0  0  0
 40 45  1  0  0  0  0
 43 42  1  0  0  0  0
 45 44  2  0  0  0  0
 46 45  1  0  0  0  0
 47 46  1  0  0  0  0
 48 60  1  6  0  0  0
 48 49  1  0  0  0  0
 49 47  1  1  0  0  0
 49 57  1  0  0  0  0
 51 58  1  0  0  0  0
 52 55  1  6  0  0  0
 52 56  1  0  0  0  0
 53 57  1  0  0  0  0
 53 50  1  1  0  0  0
 54 51  1  6  0  0  0
 54 48  1  0  0  0  0
 54 56  1  0  0  0  0
 56 53  1  0  0  0  0
 58 52  1  0  0  0  0
 59 60  1  0  0  0  0
 61 60  1  0  0  0  0
M  END
>  <MODEL>
1

>  <REMARK>
 VINA RESULT:      -9.5      0.000      0.000
  Name = 
  15 active torsions:
  status: ('A' for Active; 'I' for Inactive)
    1  A    between atoms: N_1  and  C_28
    2  A    between atoms: C_2  and  C_47
    3  A    between atoms: C_3  and  C_59
    4  A    between atoms: C_4  and  C_54
    5  A    between atoms: C_9  and  C_49
    6  A    between atoms: C_10  and  C_16
    7  A    between atoms: C_15  and  C_49
    8  A    between atoms: C_20  and  N_23
    9  A    between atoms: C_21  and  C_24
   10  A    between atoms: N_23  and  C_27
   11  A    between atoms: C_24  and  O_42
   12  A    between atoms: C_25  and  C_31
   13  A    between atoms: C_26  and  O_33
   14  A    between atoms: C_27  and  C_39
   15  A    between atoms: O_42  and  C_59
                            x       y       z     vdW  Elec       q    Type
                         _______ _______ _______ _____ _____    ______ ____

>  <TORSDO>
F 15

$$$$
=
 OpenBabel10222416063D

 61 67  0  0  1  0  0  0  0  0999 V2000
  180.1250  177.8330  141.7220 C   0  0  0  0  0  0  0  0  0  0  0  0
  178.9820  176.9460  139.5480 C   0  0  0  0  0  3  0  0  0  0  0  0
  179.6570  177.3570  142.9800 N   0  0  0  0  0  1  0  0  0  0  0  0
  179.5740  177.3870  140.6260 C   0  0  0  0  0  0  0  0  0  0  0  0
  179.4320  175.7480  138.8090 C   0  0  0  0  0  0  0  0  0  0  0  0
  180.2510  173.4640  137.3760 C   0  0  0  0  0  0  0  0  0  0  0  0
  179.4300  173.3300  138.5030 C   0  0  0  0  0  3  0  0  0  0  0  0
  179.0210  174.4650  139.2100 C   0  0  0  0  0  3  0  0  0  0  0  0
  180.6550  174.7380  136.9650 C   0  0  0  0  0  3  0  0  0  0  0  0
  180.2580  175.8870  137.6710 C   0  0  0  0  0  0  0  0  0  0  0  0
  180.6750  177.2300  137.2100 C   0  0  0  0  0  3  0  0  0  0  0  0
  183.0820  178.1820  137.5690 C   0  0  0  0  0  3  0  0  0  0  0  0
  181.8750  177.7100  137.4090 C   0  0  0  0  0  0  0  0  0  0  0  0
  184.0660  175.9000  137.5360 C   0  0  0  0  0  2  0  0  0  0  0  0
  184.2040  177.3200  138.0510 C   0  0  1  0  0  3  0  0  0  0  0  0
  185.0060  176.8630  136.8350 C   0  0  1  0  0  3  0  0  0  0  0  0
  186.3930  176.5770  137.2150 N   0  0  2  0  0  0  0  0  0  0  0  0
  188.4730  177.7800  137.7340 C   0  0  0  0  0  0  0  0  0  0  0  0
  187.0070  177.8930  137.4440 C   0  0  0  0  0  2  0  0  0  0  0  0
  190.6430  175.0630  135.1980 C   0  0  0  0  0  3  0  0  0  0  0  0
  190.6890  176.6700  137.1660 C   0  0  0  0  0  2  0  0  0  0  0  0
  189.3160  174.9210  135.3570 C   0  0  0  0  0  3  0  0  0  0  0  0
  189.2650  177.0000  136.7270 C   0  0  1  0  0  3  0  0  0  0  0  0
  187.0740  175.8990  136.0870 C   0  0  1  0  0  3  0  0  0  0  0  0
  189.0440  178.7910  138.3900 C   0  0  0  0  0  2  0  0  0  0  0  0
  191.4580  176.0660  135.9890 C   0  0  0  0  0  2  0  0  0  0  0  0
  188.5610  175.6790  136.4240 C   0  0  1  0  0  3  0  0  0  0  0  0
  186.4340  174.5390  135.8000 C   0  0  0  0  0  2  0  0  0  0  0  0
  186.4230  173.7350  137.0190 N   0  0  0  0  0  2  0  0  0  0  0  0
  185.8290  172.4150  136.7710 C   0  0  0  0  0  3  0  0  0  0  0  0
  185.8500  172.0520  135.2990 C   0  0  0  0  0  1  0  0  0  0  0  0
  184.4310  172.3010  137.3430 C   0  0  0  0  0  1  0  0  0  0  0  0
  179.9620  171.1710  136.6580 N   0  0  0  0  0  1  0  0  0  0  0  0
  180.6760  172.3480  136.6530 O   0  0  0  0  0  0  0  0  0  0  0  0
  180.9710  179.0300  141.6740 C   0  0  0  0  0  0  0  0  0  0  0  0
  180.6420  179.9700  140.8980 O   0  0  0  0  0  0  0  0  0  0  0  0
  184.4000  178.2060  142.2780 C   0  0  0  0  0  3  0  0  0  0  0  0
  182.1520  179.1740  142.5530 C   0  0  0  0  0  0  0  0  0  0  0  0
  184.7650  177.9040  143.5270 C   0  0  0  0  0  3  0  0  0  0  0  0
  184.3020  178.6010  144.7510 C   0  0  0  0  0  0  0  0  0  0  0  0
  183.5120  179.3560  141.9520 C   0  0  0  0  0  2  0  0  0  0  0  0
  183.0720  179.1230  144.8890 C   0  0  0  0  0  3  0  0  0  0  0  0
  181.9920  179.1400  143.8810 C   0  0  0  0  0  3  0  0  0  0  0  0
  185.2500  179.5800  146.6920 O   0  0  0  0  0  0  0  0  0  0  0  0
  185.1780  178.5730  145.9370 C   0  0  0  0  0  0  0  0  0  0  0  0
  185.9480  177.4360  146.2080 O   0  0  0  0  0  0  0  0  0  0  0  0
  187.2800  177.5100  146.7020 C   0  0  0  0  0  2  0  0  0  0  0  0
  189.7060  177.5980  146.0320 C   0  0  2  0  0  3  0  0  0  0  0  0
  188.2930  177.1600  145.6150 C   0  0  2  0  0  3  0  0  0  0  0  0
  188.4270  178.2380  141.9420 C   0  0  0  0  0  1  0  0  0  0  0  0
  191.1650  175.9520  144.6560 C   0  0  0  0  0  2  0  0  0  0  0  0
  191.2670  177.2580  142.5820 C   0  0  2  0  0  3  0  0  0  0  0  0
  188.8730  177.5390  143.2100 C   0  0  1  0  0  3  0  0  0  0  0  0
  190.7550  177.3920  144.9160 C   0  0  1  0  0  3  0  0  0  0  0  0
  192.3930  178.0580  142.3950 O   0  0  0  0  0  1  0  0  0  0  0  0
  190.3190  177.9390  143.5600 C   0  0  1  0  0  3  0  0  0  0  0  0
  187.9050  177.8850  144.3340 C   0  0  0  0  0  2  0  0  0  0  0  0
  191.6870  175.9390  143.2280 C   0  0  0  0  0  2  0  0  0  0  0  0
  191.6250  176.7730  147.5070 C   0  0  0  0  0  1  0  0  0  0  0  0
  190.1420  177.0880  147.4180 C   0  0  1  0  0  3  0  0  0  0  0  0
  189.7840  178.0010  148.4120 O   0  0  0  0  0  1  0  0  0  0  0  0
  1  3  1  0  0  0  0
  2  4  2  0  0  0  0
  4  1  2  0  0  0  0
  5  8  1  0  0  0  0
  5  2  1  0  0  0  0
  6  7  1  0  0  0  0
  7  8  2  0  0  0  0
  9  6  2  0  0  0  0
  9 10  1  0  0  0  0
 10  5  2  0  0  0  0
 11 13  2  0  0  0  0
 11 10  1  0  0  0  0
 13 12  2  0  0  0  0
 14 15  1  0  0  0  0
 15 12  1  6  0  0  0
 16 17  1  0  0  0  0
 16 14  1  1  0  0  0
 16 15  1  0  0  0  0
 17 19  1  6  0  0  0
 18 25  2  0  0  0  0
 19 18  1  0  0  0  0
 20 22  2  0  0  0  0
 20 26  1  0  0  0  0
 23 21  1  1  0  0  0
 23 18  1  0  0  0  0
 24 28  1  1  0  0  0
 24 27  1  0  0  0  0
 24 17  1  0  0  0  0
 26 21  1  0  0  0  0
 27 22  1  6  0  0  0
 27 23  1  0  0  0  0
 28 29  1  0  0  0  0
 30 29  1  0  0  0  0
 30 32  1  0  0  0  0
 31 30  1  0  0  0  0
 34 33  1  0  0  0  0
 34  6  1  0  0  0  0
 35  1  1  0  0  0  0
 35 38  1  0  0  0  0
 36 35  2  0  0  0  0
 37 39  2  0  0  0  0
 38 43  2  0  0  0  0
 39 40  1  0  0  0  0
 40 42  2  0  0  0  0
 40 45  1  0  0  0  0
 41 37  1  0  0  0  0
 41 38  1  0  0  0  0
 43 42  1  0  0  0  0
 45 46  1  0  0  0  0
 45 44  2  0  0  0  0
 46 47  1  0  0  0  0
 48 60  1  1  0  0  0
 49 48  1  0  0  0  0
 49 47  1  1  0  0  0
 52 55  1  1  0  0  0
 52 58  1  0  0  0  0
 52 56  1  0  0  0  0
 53 50  1  6  0  0  0
 53 56  1  0  0  0  0
 53 57  1  0  0  0  0
 54 51  1  6  0  0  0
 54 48  1  0  0  0  0
 56 54  1  0  0  0  0
 57 49  1  0  0  0  0
 58 51  1  0  0  0  0
 60 59  1  0  0  0  0
 60 61  1  0  0  0  0
M  END
>  <MODEL>
2

>  <REMARK>
 VINA RESULT:      -9.4      3.827     10.846
  Name = 
  15 active torsions:
  status: ('A' for Active; 'I' for Inactive)
    1  A    between atoms: N_1  and  C_28
    2  A    between atoms: C_2  and  C_47
    3  A    between atoms: C_3  and  C_59
    4  A    between atoms: C_4  and  C_54
    5  A    between atoms: C_9  and  C_49
    6  A    between atoms: C_10  and  C_16
    7  A    between atoms: C_15  and  C_49
    8  A    between atoms: C_20  and  N_23
    9  A    between atoms: C_21  and  C_24
   10  A    between atoms: N_23  and  C_27
   11  A    between atoms: C_24  and  O_42
   12  A    between atoms: C_25  and  C_31
   13  A    between atoms: C_26  and  O_33
   14  A    between atoms: C_27  and  C_39
   15  A    between atoms: O_42  and  C_59
                            x       y       z     vdW  Elec       q    Type
                         _______ _______ _______ _____ _____    ______ ____

>  <TORSDO>
F 15

$$$$
=
 OpenBabel10222416063D

 61 67  0  0  1  0  0  0  0  0999 V2000
  186.2950  178.3300  138.4420 C   0  0  0  0  0  0  0  0  0  0  0  0
  183.7370  178.7600  138.7470 C   0  0  0  0  0  3  0  0  0  0  0  0
  187.1470  178.4640  139.5740 N   0  0  0  0  0  1  0  0  0  0  0  0
  185.0120  178.5260  138.5820 C   0  0  0  0  0  0  0  0  0  0  0  0
  182.7600  177.7100  139.1030 C   0  0  0  0  0  0  0  0  0  0  0  0
  180.9310  175.6830  139.8010 C   0  0  0  0  0  0  0  0  0  0  0  0
  181.7150  175.5560  138.6480 C   0  0  0  0  0  3  0  0  0  0  0  0
  182.6250  176.5600  138.3050 C   0  0  0  0  0  3  0  0  0  0  0  0
  181.0670  176.8200  140.6050 C   0  0  0  0  0  3  0  0  0  0  0  0
  181.9730  177.8410  140.2680 C   0  0  0  0  0  0  0  0  0  0  0  0
  182.1220  179.0260  141.1410 C   0  0  0  0  0  3  0  0  0  0  0  0
  183.6900  179.0750  143.2310 C   0  0  0  0  0  3  0  0  0  0  0  0
  182.8930  179.0400  142.1970 C   0  0  0  0  0  0  0  0  0  0  0  0
  185.7510  177.9400  142.4320 C   0  0  0  0  0  2  0  0  0  0  0  0
  184.6750  177.9840  143.4990 C   0  0  1  0  0  3  0  0  0  0  0  0
  186.0360  178.6270  143.7550 C   0  0  1  0  0  3  0  0  0  0  0  0
  186.8610  177.7610  144.6020 N   0  0  2  0  0  0  0  0  0  0  0  0
  187.5400  177.5500  146.9560 C   0  0  0  0  0  0  0  0  0  0  0  0
  186.6670  178.2650  145.9690 C   0  0  0  0  0  2  0  0  0  0  0  0
  191.6090  176.9310  145.6960 C   0  0  0  0  0  3  0  0  0  0  0  0
  189.8290  176.5710  147.4740 C   0  0  0  0  0  2  0  0  0  0  0  0
  190.6430  177.1250  144.7810 C   0  0  0  0  0  3  0  0  0  0  0  0
  189.0000  177.5190  146.6110 C   0  0  1  0  0  3  0  0  0  0  0  0
  188.2830  177.9130  144.2120 C   0  0  1  0  0  3  0  0  0  0  0  0
  187.1600  177.5710  148.2340 C   0  0  0  0  0  2  0  0  0  0  0  0
  191.3150  176.7790  147.1750 C   0  0  0  0  0  2  0  0  0  0  0  0
  189.1790  177.0900  145.1560 C   0  0  1  0  0  3  0  0  0  0  0  0
  188.5110  177.4280  142.7790 C   0  0  0  0  0  2  0  0  0  0  0  0
  189.3470  178.3880  142.0640 N   0  0  0  0  0  2  0  0  0  0  0  0
  190.2440  177.7030  141.1230 C   0  0  0  0  0  3  0  0  0  0  0  0
  189.8170  176.2700  140.8750 C   0  0  0  0  0  1  0  0  0  0  0  0
  191.6930  177.7750  141.5600 C   0  0  0  0  0  1  0  0  0  0  0  0
  179.5030  174.6230  141.4430 N   0  0  0  0  0  1  0  0  0  0  0  0
  180.0120  174.6980  140.1660 O   0  0  0  0  0  0  0  0  0  0  0  0
  186.8820  178.2970  137.0990 C   0  0  0  0  0  0  0  0  0  0  0  0
  187.2100  179.3900  136.5580 O   0  0  0  0  0  0  0  0  0  0  0  0
  186.0630  174.8320  136.7450 C   0  0  0  0  0  3  0  0  0  0  0  0
  187.1450  177.0180  136.4050 C   0  0  0  0  0  0  0  0  0  0  0  0
  187.0630  173.9610  136.5910 C   0  0  0  0  0  3  0  0  0  0  0  0
  188.2680  174.1720  135.7540 C   0  0  0  0  0  0  0  0  0  0  0  0
  186.0030  176.1290  136.0160 C   0  0  0  0  0  2  0  0  0  0  0  0
  188.8500  175.3700  135.5780 C   0  0  0  0  0  3  0  0  0  0  0  0
  188.4070  176.6670  136.1290 C   0  0  0  0  0  3  0  0  0  0  0  0
  188.3770  171.8650  135.2140 O   0  0  0  0  0  0  0  0  0  0  0  0
  188.9590  172.9830  135.2210 C   0  0  0  0  0  0  0  0  0  0  0  0
  190.2720  173.0940  134.7480 O   0  0  0  0  0  0  0  0  0  0  0  0
  191.2950  172.1690  135.0980 C   0  0  0  0  0  2  0  0  0  0  0  0
  193.4660  171.8780  136.3400 C   0  0  2  0  0  3  0  0  0  0  0  0
  192.5150  172.8830  135.6720 C   0  0  2  0  0  3  0  0  0  0  0  0
  192.7210  175.6770  138.2850 C   0  0  0  0  0  1  0  0  0  0  0  0
  195.7300  173.1320  136.1510 C   0  0  0  0  0  2  0  0  0  0  0  0
  195.5410  174.4620  138.2030 C   0  0  2  0  0  3  0  0  0  0  0  0
  193.2310  174.6520  137.2920 C   0  0  1  0  0  3  0  0  0  0  0  0
  194.6550  172.5560  137.0580 C   0  0  1  0  0  3  0  0  0  0  0  0
  196.1710  173.9600  139.3410 O   0  0  0  0  0  1  0  0  0  0  0  0
  194.2390  173.7060  137.9710 C   0  0  1  0  0  3  0  0  0  0  0  0
  192.0460  173.8910  136.7130 C   0  0  0  0  0  2  0  0  0  0  0  0
  196.4210  174.2010  136.9820 C   0  0  0  0  0  2  0  0  0  0  0  0
  195.2750  170.1940  135.6820 C   0  0  0  0  0  1  0  0  0  0  0  0
  193.8590  170.6890  135.4430 C   0  0  1  0  0  3  0  0  0  0  0  0
  192.9510  169.6390  135.5930 O   0  0  0  0  0  1  0  0  0  0  0  0
  1  4  2  0  0  0  0
  1  3  1  0  0  0  0
  2  5  1  0  0  0  0
  4  2  2  0  0  0  0
  5 10  1  0  0  0  0
  6 34  1  0  0  0  0
  6  9  1  0  0  0  0
  7  6  2  0  0  0  0
  8  7  1  0  0  0  0
  8  5  2  0  0  0  0
 10  9  2  0  0  0  0
 10 11  1  0  0  0  0
 11 13  2  0  0  0  0
 13 12  2  0  0  0  0
 14 15  1  0  0  0  0
 15 12  1  6  0  0  0
 15 16  1  0  0  0  0
 16 14  1  6  0  0  0
 16 17  1  0  0  0  0
 17 19  1  1  0  0  0
 18 25  2  0  0  0  0
 19 18  1  0  0  0  0
 20 26  1  0  0  0  0
 22 20  2  0  0  0  0
 23 18  1  0  0  0  0
 23 21  1  1  0  0  0
 24 28  1  6  0  0  0
 24 17  1  0  0  0  0
 24 27  1  0  0  0  0
 26 21  1  0  0  0  0
 27 22  1  6  0  0  0
 27 23  1  0  0  0  0
 29 28  1  0  0  0  0
 30 32  1  0  0  0  0
 30 29  1  0  0  0  0
 31 30  1  0  0  0  0
 34 33  1  0  0  0  0
 35  1  1  0  0  0  0
 36 35  2  0  0  0  0
 38 35  1  0  0  0  0
 39 37  2  0  0  0  0
 40 39  1  0  0  0  0
 41 38  1  0  0  0  0
 41 37  1  0  0  0  0
 42 40  2  0  0  0  0
 42 43  1  0  0  0  0
 43 38  2  0  0  0  0
 44 45  2  0  0  0  0
 45 40  1  0  0  0  0
 46 47  1  0  0  0  0
 46 45  1  0  0  0  0
 48 60  1  6  0  0  0
 48 54  1  0  0  0  0
 49 47  1  1  0  0  0
 49 48  1  0  0  0  0
 49 57  1  0  0  0  0
 51 58  1  0  0  0  0
 52 55  1  1  0  0  0
 53 56  1  0  0  0  0
 53 50  1  1  0  0  0
 54 51  1  6  0  0  0
 54 56  1  0  0  0  0
 56 52  1  0  0  0  0
 57 53  1  0  0  0  0
 58 52  1  0  0  0  0
 60 61  1  0  0  0  0
 60 59  1  0  0  0  0
M  END
>  <MODEL>
3

>  <REMARK>
 VINA RESULT:      -9.0      3.126      9.969
  Name = 
  15 active torsions:
  status: ('A' for Active; 'I' for Inactive)
    1  A    between atoms: N_1  and  C_28
    2  A    between atoms: C_2  and  C_47
    3  A    between atoms: C_3  and  C_59
    4  A    between atoms: C_4  and  C_54
    5  A    between atoms: C_9  and  C_49
    6  A    between atoms: C_10  and  C_16
    7  A    between atoms: C_15  and  C_49
    8  A    between atoms: C_20  and  N_23
    9  A    between atoms: C_21  and  C_24
   10  A    between atoms: N_23  and  C_27
   11  A    between atoms: C_24  and  O_42
   12  A    between atoms: C_25  and  C_31
   13  A    between atoms: C_26  and  O_33
   14  A    between atoms: C_27  and  C_39
   15  A    between atoms: O_42  and  C_59
                            x       y       z     vdW  Elec       q    Type
                         _______ _______ _______ _____ _____    ______ ____

>  <TORSDO>
F 15

$$$$
=
 OpenBabel10222416063D

 61 67  0  0  1  0  0  0  0  0999 V2000
  191.3520  178.2950  144.1250 C   0  0  0  0  0  0  0  0  0  0  0  0
  191.6680  177.0970  141.8250 C   0  0  0  0  0  3  0  0  0  0  0  0
  192.0050  179.5410  144.3380 N   0  0  0  0  0  1  0  0  0  0  0  0
  191.4880  177.6920  142.9750 C   0  0  0  0  0  0  0  0  0  0  0  0
  190.7840  177.3020  140.6590 C   0  0  0  0  0  0  0  0  0  0  0  0
  189.1020  177.7380  138.4410 C   0  0  0  0  0  0  0  0  0  0  0  0
  188.5830  177.8020  139.7400 C   0  0  0  0  0  3  0  0  0  0  0  0
  189.4200  177.5890  140.8400 C   0  0  0  0  0  3  0  0  0  0  0  0
  190.4610  177.4630  138.2540 C   0  0  0  0  0  3  0  0  0  0  0  0
  191.3120  177.2390  139.3510 C   0  0  0  0  0  0  0  0  0  0  0  0
  192.7520  176.9720  139.1380 C   0  0  0  0  0  3  0  0  0  0  0  0
  193.6750  175.6800  137.0630 C   0  0  0  0  0  3  0  0  0  0  0  0
  193.2080  176.3080  138.1080 C   0  0  0  0  0  0  0  0  0  0  0  0
  193.5940  174.6450  134.8050 C   0  0  0  0  0  2  0  0  0  0  0  0
  192.8090  175.3580  135.8890 C   0  0  1  0  0  3  0  0  0  0  0  0
  192.7330  173.8390  135.7600 C   0  0  1  0  0  3  0  0  0  0  0  0
  191.4870  173.4420  135.0980 N   0  0  2  0  0  0  0  0  0  0  0  0
  189.0690  173.8550  135.2690 C   0  0  0  0  0  0  0  0  0  0  0  0
  190.4350  174.2300  135.7580 C   0  0  0  0  0  2  0  0  0  0  0  0
  188.3500  169.6290  134.8860 C   0  0  0  0  0  3  0  0  0  0  0  0
  187.4710  171.9950  134.5940 C   0  0  0  0  0  2  0  0  0  0  0  0
  189.6080  170.1020  134.8620 C   0  0  0  0  0  3  0  0  0  0  0  0
  188.7470  172.3910  135.3340 C   0  0  1  0  0  3  0  0  0  0  0  0
  191.2500  171.9980  135.3340 C   0  0  1  0  0  3  0  0  0  0  0  0
  188.0980  174.7570  135.4210 C   0  0  0  0  0  2  0  0  0  0  0  0
  187.1360  170.5350  134.9040 C   0  0  0  0  0  2  0  0  0  0  0  0
  189.8940  171.5810  134.7350 C   0  0  1  0  0  3  0  0  0  0  0  0
  192.3490  171.1520  134.6880 C   0  0  0  0  0  2  0  0  0  0  0  0
  193.1260  170.4810  135.7270 N   0  0  0  0  0  2  0  0  0  0  0  0
  194.5070  170.2490  135.2820 C   0  0  0  0  0  3  0  0  0  0  0  0
  195.3560  169.6290  136.3740 C   0  0  0  0  0  1  0  0  0  0  0  0
  195.1500  171.5060  134.7350 C   0  0  0  0  0  1  0  0  0  0  0  0
  186.9900  177.4900  137.2860 N   0  0  0  0  0  1  0  0  0  0  0  0
  188.2890  177.9430  137.3240 O   0  0  0  0  0  0  0  0  0  0  0  0
  190.8170  177.5560  145.2730 C   0  0  0  0  0  0  0  0  0  0  0  0
  191.6290  177.0870  146.1190 O   0  0  0  0  0  0  0  0  0  0  0  0
  187.5640  177.3430  143.7970 C   0  0  0  0  0  3  0  0  0  0  0  0
  189.3610  177.4070  145.4810 C   0  0  0  0  0  0  0  0  0  0  0  0
  186.5620  178.0010  144.3840 C   0  0  0  0  0  3  0  0  0  0  0  0
  186.3300  178.0910  145.8470 C   0  0  0  0  0  0  0  0  0  0  0  0
  188.5590  176.5390  144.5600 C   0  0  0  0  0  2  0  0  0  0  0  0
  187.3190  178.1270  146.7550 C   0  0  0  0  0  3  0  0  0  0  0  0
  188.7720  178.0520  146.4950 C   0  0  0  0  0  3  0  0  0  0  0  0
  184.7270  178.5230  147.5400 O   0  0  0  0  0  0  0  0  0  0  0  0
  184.9510  178.3200  146.3170 C   0  0  0  0  0  0  0  0  0  0  0  0
  183.8900  178.2850  145.4050 O   0  0  0  0  0  0  0  0  0  0  0  0
  183.7950  179.1780  144.3010 C   0  0  0  0  0  2  0  0  0  0  0  0
  183.4000  179.1110  141.8150 C   0  0  2  0  0  3  0  0  0  0  0  0
  182.9370  178.5900  143.1850 C   0  0  2  0  0  3  0  0  0  0  0  0
  179.1540  178.8040  142.6220 C   0  0  0  0  0  1  0  0  0  0  0  0
  182.6050  177.1950  140.2580 C   0  0  0  0  0  2  0  0  0  0  0  0
  180.3150  177.9950  139.8960 C   0  0  2  0  0  3  0  0  0  0  0  0
  180.5900  178.4120  142.3360 C   0  0  1  0  0  3  0  0  0  0  0  0
  182.4850  178.6560  140.6560 C   0  0  1  0  0  3  0  0  0  0  0  0
  180.0790  178.7320  138.7350 O   0  0  0  0  0  1  0  0  0  0  0  0
  181.0000  178.8810  140.9270 C   0  0  1  0  0  3  0  0  0  0  0  0
  181.4890  179.0050  143.4110 C   0  0  0  0  0  2  0  0  0  0  0  0
  181.2850  176.8570  139.5830 C   0  0  0  0  0  2  0  0  0  0  0  0
  185.2430  178.7800  140.0740 C   0  0  0  0  0  1  0  0  0  0  0  0
  184.9060  178.9300  141.5470 C   0  0  1  0  0  3  0  0  0  0  0  0
  185.6340  179.9850  142.1020 O   0  0  0  0  0  1  0  0  0  0  0  0
  1  3  1  0  0  0  0
  1 35  1  0  0  0  0
  2  4  2  0  0  0  0
  4  1  2  0  0  0  0
  5  8  1  0  0  0  0
  5  2  1  0  0  0  0
  6  7  1  0  0  0  0
  7  8  2  0  0  0  0
  9  6  2  0  0  0  0
  9 10  1  0  0  0  0
 10  5  2  0  0  0  0
 11 10  1  0  0  0  0
 12 13  2  0  0  0  0
 13 11  2  0  0  0  0
 14 15  1  0  0  0  0
 15 12  1  1  0  0  0
 16 14  1  6  0  0  0
 16 15  1  0  0  0  0
 17 24  1  0  0  0  0
 17 19  1  1  0  0  0
 17 16  1  0  0  0  0
 18 23  1  0  0  0  0
 18 25  2  0  0  0  0
 18 19  1  0  0  0  0
 20 26  1  0  0  0  0
 21 26  1  0  0  0  0
 22 20  2  0  0  0  0
 23 21  1  6  0  0  0
 24 28  1  6  0  0  0
 27 22  1  1  0  0  0
 27 23  1  0  0  0  0
 27 24  1  0  0  0  0
 28 29  1  0  0  0  0
 30 29  1  0  0  0  0
 30 31  1  0  0  0  0
 32 30  1  0  0  0  0
 33 34  1  0  0  0  0
 34  6  1  0  0  0  0
 35 38  1  0  0  0  0
 35 36  2  0  0  0  0
 37 39  2  0  0  0  0
 37 41  1  0  0  0  0
 38 43  2  0  0  0  0
 39 40  1  0  0  0  0
 40 45  1  0  0  0  0
 40 42  2  0  0  0  0
 41 38  1  0  0  0  0
 43 42  1  0  0  0  0
 45 44  2  0  0  0  0
 46 45  1  0  0  0  0
 47 46  1  0  0  0  0
 48 60  1  6  0  0  0
 48 49  1  0  0  0  0
 49 57  1  0  0  0  0
 49 47  1  1  0  0  0
 52 55  1  6  0  0  0
 52 56  1  0  0  0  0
 53 50  1  1  0  0  0
 53 57  1  0  0  0  0
 54 51  1  1  0  0  0
 54 56  1  0  0  0  0
 54 48  1  0  0  0  0
 56 53  1  0  0  0  0
 58 52  1  0  0  0  0
 58 51  1  0  0  0  0
 59 60  1  0  0  0  0
 60 61  1  0  0  0  0
M  END
>  <MODEL>
4

>  <REMARK>
 VINA RESULT:      -9.0      3.224      8.812
  Name = 
  15 active torsions:
  status: ('A' for Active; 'I' for Inactive)
    1  A    between atoms: N_1  and  C_28
    2  A    between atoms: C_2  and  C_47
    3  A    between atoms: C_3  and  C_59
    4  A    between atoms: C_4  and  C_54
    5  A    between atoms: C_9  and  C_49
    6  A    between atoms: C_10  and  C_16
    7  A    between atoms: C_15  and  C_49
    8  A    between atoms: C_20  and  N_23
    9  A    between atoms: C_21  and  C_24
   10  A    between atoms: N_23  and  C_27
   11  A    between atoms: C_24  and  O_42
   12  A    between atoms: C_25  and  C_31
   13  A    between atoms: C_26  and  O_33
   14  A    between atoms: C_27  and  C_39
   15  A    between atoms: O_42  and  C_59
                            x       y       z     vdW  Elec       q    Type
                         _______ _______ _______ _____ _____    ______ ____

>  <TORSDO>
F 15

$$$$
=
 OpenBabel10222416063D

 61 67  0  0  1  0  0  0  0  0999 V2000
  191.1810  176.9830  140.0860 C   0  0  0  0  0  0  0  0  0  0  0  0
  192.9220  176.7570  138.1520 C   0  0  0  0  0  3  0  0  0  0  0  0
  189.8040  177.1100  139.7510 N   0  0  0  0  0  1  0  0  0  0  0  0
  192.0610  176.8530  139.1310 C   0  0  0  0  0  0  0  0  0  0  0  0
  193.3560  175.4670  137.5780 C   0  0  0  0  0  0  0  0  0  0  0  0
  194.1500  172.9840  136.5070 C   0  0  0  0  0  0  0  0  0  0  0  0
  194.5700  173.3640  137.7880 C   0  0  0  0  0  3  0  0  0  0  0  0
  194.1720  174.5940  138.3200 C   0  0  0  0  0  3  0  0  0  0  0  0
  193.3310  173.8430  135.7680 C   0  0  0  0  0  3  0  0  0  0  0  0
  192.9290  175.0860  136.2870 C   0  0  0  0  0  0  0  0  0  0  0  0
  192.0420  175.9730  135.5020 C   0  0  0  0  0  3  0  0  0  0  0  0
  189.4530  175.6470  135.3620 C   0  0  0  0  0  3  0  0  0  0  0  0
  190.7490  175.7950  135.4180 C   0  0  0  0  0  0  0  0  0  0  0  0
  187.7860  175.4140  137.1900 C   0  0  0  0  0  2  0  0  0  0  0  0
  188.7330  174.6880  136.2530 C   0  0  1  0  0  3  0  0  0  0  0  0
  187.2430  174.7680  135.9290 C   0  0  1  0  0  3  0  0  0  0  0  0
  186.5790  173.5040  136.2590 N   0  0  2  0  0  0  0  0  0  0  0  0
  186.4070  171.2050  135.4020 C   0  0  0  0  0  0  0  0  0  0  0  0
  187.0820  172.5370  135.2720 C   0  0  0  0  0  2  0  0  0  0  0  0
  182.1400  171.3540  135.9410 C   0  0  0  0  0  3  0  0  0  0  0  0
  184.2390  169.9310  135.7760 C   0  0  0  0  0  2  0  0  0  0  0  0
  182.8960  172.4170  136.2650 C   0  0  0  0  0  3  0  0  0  0  0  0
  184.9080  171.2450  135.3800 C   0  0  1  0  0  3  0  0  0  0  0  0
  185.1150  173.6670  136.0940 C   0  0  1  0  0  3  0  0  0  0  0  0
  187.0520  170.1450  134.9130 C   0  0  0  0  0  2  0  0  0  0  0  0
  182.7340  170.0270  135.5150 C   0  0  0  0  0  2  0  0  0  0  0  0
  184.4030  172.3230  136.3360 C   0  0  1  0  0  3  0  0  0  0  0  0
  184.5650  174.6950  137.0850 C   0  0  0  0  0  2  0  0  0  0  0  0
  183.6160  175.5730  136.4060 N   0  0  0  0  0  2  0  0  0  0  0  0
  184.0770  176.9680  136.4370 C   0  0  0  0  0  3  0  0  0  0  0  0
  184.7060  177.3850  135.1230 C   0  0  0  0  0  1  0  0  0  0  0  0
  185.0100  177.2350  137.6010 C   0  0  0  0  0  1  0  0  0  0  0  0
  194.0290  170.5690  136.4100 N   0  0  0  0  0  1  0  0  0  0  0  0
  194.5360  171.7630  135.9500 O   0  0  0  0  0  0  0  0  0  0  0  0
  191.6260  177.3170  141.4420 C   0  0  0  0  0  0  0  0  0  0  0  0
  192.7960  177.7690  141.5980 O   0  0  0  0  0  0  0  0  0  0  0  0
  188.8310  175.6420  142.9210 C   0  0  0  0  0  3  0  0  0  0  0  0
  190.7190  177.1930  142.6030 C   0  0  0  0  0  0  0  0  0  0  0  0
  187.9290  176.3790  143.5730 C   0  0  0  0  0  3  0  0  0  0  0  0
  188.2340  177.5160  144.4750 C   0  0  0  0  0  0  0  0  0  0  0  0
  190.2990  175.8370  143.0820 C   0  0  0  0  0  2  0  0  0  0  0  0
  189.2660  178.3560  144.2890 C   0  0  0  0  0  3  0  0  0  0  0  0
  190.2810  178.2980  143.2180 C   0  0  0  0  0  3  0  0  0  0  0  0
  187.6510  178.0190  146.7180 O   0  0  0  0  0  0  0  0  0  0  0  0
  187.2600  177.8410  145.5330 C   0  0  0  0  0  0  0  0  0  0  0  0
  185.8970  177.9270  145.2240 O   0  0  0  0  0  0  0  0  0  0  0  0
  185.3440  179.0080  144.4820 C   0  0  0  0  0  2  0  0  0  0  0  0
  184.1560  179.3470  142.2880 C   0  0  2  0  0  3  0  0  0  0  0  0
  184.1950  178.5390  143.5940 C   0  0  2  0  0  3  0  0  0  0  0  0
  180.4320  178.4260  144.3010 C   0  0  0  0  0  1  0  0  0  0  0  0
  182.9840  177.6680  140.6960 C   0  0  0  0  0  2  0  0  0  0  0  0
  180.6670  178.2580  141.2440 C   0  0  2  0  0  3  0  0  0  0  0  0
  181.7100  178.2550  143.5050 C   0  0  1  0  0  3  0  0  0  0  0  0
  182.9330  179.0100  141.4050 C   0  0  1  0  0  3  0  0  0  0  0  0
  180.0290  179.1620  140.3950 O   0  0  0  0  0  1  0  0  0  0  0  0
  181.6120  179.0140  142.1680 C   0  0  1  0  0  3  0  0  0  0  0  0
  182.8850  178.7410  144.3430 C   0  0  0  0  0  2  0  0  0  0  0  0
  181.5330  177.3120  140.4130 C   0  0  0  0  0  2  0  0  0  0  0  0
  186.3030  178.1070  141.6630 C   0  0  0  0  0  1  0  0  0  0  0  0
  185.4960  179.3870  141.5300 C   0  0  1  0  0  3  0  0  0  0  0  0
  185.2900  179.6870  140.1820 O   0  0  0  0  0  1  0  0  0  0  0  0
  1 35  1  0  0  0  0
  2  4  2  0  0  0  0
  3  1  1  0  0  0  0
  4  1  2  0  0  0  0
  5  2  1  0  0  0  0
  5  8  1  0  0  0  0
  6  7  1  0  0  0  0
  7  8  2  0  0  0  0
  9 10  1  0  0  0  0
  9  6  2  0  0  0  0
 10  5  2  0  0  0  0
 11 10  1  0  0  0  0
 12 13  2  0  0  0  0
 13 11  2  0  0  0  0
 15 12  1  6  0  0  0
 15 14  1  0  0  0  0
 16 15  1  0  0  0  0
 16 17  1  0  0  0  0
 16 14  1  1  0  0  0
 17 19  1  6  0  0  0
 19 18  1  0  0  0  0
 20 22  2  0  0  0  0
 23 18  1  0  0  0  0
 23 21  1  1  0  0  0
 23 27  1  0  0  0  0
 24 17  1  0  0  0  0
 24 27  1  0  0  0  0
 24 28  1  1  0  0  0
 25 18  2  0  0  0  0
 26 21  1  0  0  0  0
 26 20  1  0  0  0  0
 27 22  1  6  0  0  0
 29 30  1  0  0  0  0
 29 28  1  0  0  0  0
 30 32  1  0  0  0  0
 31 30  1  0  0  0  0
 34 33  1  0  0  0  0
 34  6  1  0  0  0  0
 35 36  2  0  0  0  0
 35 38  1  0  0  0  0
 37 41  1  0  0  0  0
 37 39  2  0  0  0  0
 38 41  1  0  0  0  0
 38 43  2  0  0  0  0
 39 40  1  0  0  0  0
 40 45  1  0  0  0  0
 42 40  2  0  0  0  0
 43 42  1  0  0  0  0
 45 44  2  0  0  0  0
 46 45  1  0  0  0  0
 47 46  1  0  0  0  0
 48 60  1  6  0  0  0
 48 49  1  0  0  0  0
 49 57  1  0  0  0  0
 49 47  1  1  0  0  0
 52 55  1  6  0  0  0
 52 56  1  0  0  0  0
 53 50  1  1  0  0  0
 53 57  1  0  0  0  0
 54 51  1  1  0  0  0
 54 56  1  0  0  0  0
 54 48  1  0  0  0  0
 56 53  1  0  0  0  0
 58 51  1  0  0  0  0
 58 52  1  0  0  0  0
 60 59  1  0  0  0  0
 61 60  1  0  0  0  0
M  END
>  <MODEL>
5

>  <REMARK>
 VINA RESULT:      -8.7      3.312      7.959
  Name = 
  15 active torsions:
  status: ('A' for Active; 'I' for Inactive)
    1  A    between atoms: N_1  and  C_28
    2  A    between atoms: C_2  and  C_47
    3  A    between atoms: C_3  and  C_59
    4  A    between atoms: C_4  and  C_54
    5  A    between atoms: C_9  and  C_49
    6  A    between atoms: C_10  and  C_16
    7  A    between atoms: C_15  and  C_49
    8  A    between atoms: C_20  and  N_23
    9  A    between atoms: C_21  and  C_24
   10  A    between atoms: N_23  and  C_27
   11  A    between atoms: C_24  and  O_42
   12  A    between atoms: C_25  and  C_31
   13  A    between atoms: C_26  and  O_33
   14  A    between atoms: C_27  and  C_39
   15  A    between atoms: O_42  and  C_59
                            x       y       z     vdW  Elec       q    Type
                         _______ _______ _______ _____ _____    ______ ____

>  <TORSDO>
F 15

$$$$
=
 OpenBabel10222416063D

 61 67  0  0  1  0  0  0  0  0999 V2000
  190.8780  178.3400  144.1340 C   0  0  0  0  0  0  0  0  0  0  0  0
  191.0090  177.0840  141.8480 C   0  0  0  0  0  3  0  0  0  0  0  0
  191.7040  179.4820  144.3320 N   0  0  0  0  0  1  0  0  0  0  0  0
  190.9210  177.7110  142.9910 C   0  0  0  0  0  0  0  0  0  0  0  0
  190.1600  177.4010  140.6820 C   0  0  0  0  0  0  0  0  0  0  0  0
  188.5420  178.0510  138.4680 C   0  0  0  0  0  0  0  0  0  0  0  0
  187.9780  177.9500  139.7450 C   0  0  0  0  0  3  0  0  0  0  0  0
  188.7820  177.6320  140.8430 C   0  0  0  0  0  3  0  0  0  0  0  0
  189.9140  177.8330  138.3010 C   0  0  0  0  0  3  0  0  0  0  0  0
  190.7330  177.5040  139.3950 C   0  0  0  0  0  0  0  0  0  0  0  0
  192.1870  177.3000  139.2060 C   0  0  0  0  0  3  0  0  0  0  0  0
  193.2000  176.0610  137.1410 C   0  0  0  0  0  3  0  0  0  0  0  0
  192.6890  176.6620  138.1810 C   0  0  0  0  0  0  0  0  0  0  0  0
  193.1530  174.8680  134.9610 C   0  0  0  0  0  2  0  0  0  0  0  0
  192.3690  175.7090  135.9500 C   0  0  1  0  0  3  0  0  0  0  0  0
  192.1950  174.1930  135.9250 C   0  0  1  0  0  3  0  0  0  0  0  0
  190.9560  173.8300  135.2300 N   0  0  2  0  0  0  0  0  0  0  0  0
  188.5290  174.1620  135.4450 C   0  0  0  0  0  0  0  0  0  0  0  0
  189.8880  174.5230  135.9650 C   0  0  0  0  0  2  0  0  0  0  0  0
  187.9170  169.9760  134.6550 C   0  0  0  0  0  3  0  0  0  0  0  0
  186.9770  172.3360  134.5960 C   0  0  0  0  0  2  0  0  0  0  0  0
  189.1620  170.4820  134.6750 C   0  0  0  0  0  3  0  0  0  0  0  0
  188.2450  172.6910  135.3680 C   0  0  1  0  0  3  0  0  0  0  0  0
  190.7580  172.3640  135.3260 C   0  0  1  0  0  3  0  0  0  0  0  0
  187.5370  175.0190  135.6860 C   0  0  0  0  0  2  0  0  0  0  0  0
  186.6800  170.8440  134.7630 C   0  0  0  0  0  2  0  0  0  0  0  0
  189.4100  171.9720  134.6910 C   0  0  1  0  0  3  0  0  0  0  0  0
  191.8750  171.6140  134.5990 C   0  0  0  0  0  2  0  0  0  0  0  0
  192.8650  171.1490  135.5670 N   0  0  0  0  0  2  0  0  0  0  0  0
  194.1070  170.7450  134.8940 C   0  0  0  0  0  3  0  0  0  0  0  0
  194.8200  169.6360  135.6420 C   0  0  0  0  0  1  0  0  0  0  0  0
  195.0310  171.9190  134.6450 C   0  0  0  0  0  1  0  0  0  0  0  0
  187.9450  179.5350  136.6510 N   0  0  0  0  0  1  0  0  0  0  0  0
  187.7620  178.3640  137.3530 O   0  0  0  0  0  0  0  0  0  0  0  0
  190.2460  177.6990  145.2920 C   0  0  0  0  0  0  0  0  0  0  0  0
  190.9780  177.3400  146.2560 O   0  0  0  0  0  0  0  0  0  0  0  0
  187.2040  176.9230  143.5740 C   0  0  0  0  0  3  0  0  0  0  0  0
  188.7800  177.5240  145.3700 C   0  0  0  0  0  0  0  0  0  0  0  0
  186.1200  177.6510  143.8530 C   0  0  0  0  0  3  0  0  0  0  0  0
  185.7100  178.1020  145.2050 C   0  0  0  0  0  0  0  0  0  0  0  0
  188.1200  176.4030  144.6270 C   0  0  0  0  0  2  0  0  0  0  0  0
  186.5800  178.4290  146.1750 C   0  0  0  0  0  3  0  0  0  0  0  0
  188.0540  178.3740  146.1070 C   0  0  0  0  0  3  0  0  0  0  0  0
  183.8650  178.5990  146.6110 O   0  0  0  0  0  0  0  0  0  0  0  0
  184.2780  178.3640  145.4430 C   0  0  0  0  0  0  0  0  0  0  0  0
  183.3760  178.3240  144.3740 O   0  0  0  0  0  0  0  0  0  0  0  0
  182.9190  179.4980  143.7110 C   0  0  0  0  0  2  0  0  0  0  0  0
  180.8470  178.4080  142.7820 C   0  0  2  0  0  3  0  0  0  0  0  0
  182.1480  179.1510  142.4400 C   0  0  2  0  0  3  0  0  0  0  0  0
  183.2150  177.0570  139.4140 C   0  0  0  0  0  1  0  0  0  0  0  0
  179.3860  178.9860  140.7190 C   0  0  0  0  0  2  0  0  0  0  0  0
  180.1500  177.1720  139.2560 C   0  0  2  0  0  3  0  0  0  0  0  0
  182.3000  177.9080  140.2730 C   0  0  1  0  0  3  0  0  0  0  0  0
  180.0890  177.9120  141.5310 C   0  0  1  0  0  3  0  0  0  0  0  0
  179.3610  176.0230  139.2110 O   0  0  0  0  0  1  0  0  0  0  0  0
  180.9750  177.1690  140.5360 C   0  0  1  0  0  3  0  0  0  0  0  0
  183.0190  178.2540  141.5700 C   0  0  0  0  0  2  0  0  0  0  0  0
  179.2460  178.4020  139.3220 C   0  0  0  0  0  2  0  0  0  0  0  0
  179.2070  180.3130  143.2470 C   0  0  0  0  0  1  0  0  0  0  0  0
  179.9650  179.1280  143.8190 C   0  0  1  0  0  3  0  0  0  0  0  0
  179.0750  178.2310  144.4140 O   0  0  0  0  0  1  0  0  0  0  0  0
  1  3  1  0  0  0  0
  1 35  1  0  0  0  0
  2  4  2  0  0  0  0
  4  1  2  0  0  0  0
  5  8  1  0  0  0  0
  5  2  1  0  0  0  0
  6  7  1  0  0  0  0
  7  8  2  0  0  0  0
  9  6  2  0  0  0  0
  9 10  1  0  0  0  0
 10  5  2  0  0  0  0
 11 10  1  0  0  0  0
 12 13  2  0  0  0  0
 13 11  2  0  0  0  0
 14 15  1  0  0  0  0
 15 12  1  1  0  0  0
 16 14  1  6  0  0  0
 16 15  1  0  0  0  0
 17 24  1  0  0  0  0
 17 16  1  0  0  0  0
 17 19  1  1  0  0  0
 18 25  2  0  0  0  0
 18 19  1  0  0  0  0
 20 22  2  0  0  0  0
 20 26  1  0  0  0  0
 21 26  1  0  0  0  0
 23 21  1  6  0  0  0
 23 18  1  0  0  0  0
 24 28  1  6  0  0  0
 27 22  1  1  0  0  0
 27 24  1  0  0  0  0
 27 23  1  0  0  0  0
 28 29  1  0  0  0  0
 30 29  1  0  0  0  0
 30 31  1  0  0  0  0
 32 30  1  0  0  0  0
 33 34  1  0  0  0  0
 34  6  1  0  0  0  0
 35 38  1  0  0  0  0
 35 36  2  0  0  0  0
 37 39  2  0  0  0  0
 37 41  1  0  0  0  0
 38 43  2  0  0  0  0
 39 40  1  0  0  0  0
 40 45  1  0  0  0  0
 40 42  2  0  0  0  0
 41 38  1  0  0  0  0
 43 42  1  0  0  0  0
 45 44  2  0  0  0  0
 46 45  1  0  0  0  0
 47 46  1  0  0  0  0
 48 60  1  6  0  0  0
 49 48  1  0  0  0  0
 49 47  1  1  0  0  0
 52 55  1  1  0  0  0
 52 58  1  0  0  0  0
 52 56  1  0  0  0  0
 53 50  1  6  0  0  0
 53 56  1  0  0  0  0
 53 57  1  0  0  0  0
 54 51  1  6  0  0  0
 54 48  1  0  0  0  0
 56 54  1  0  0  0  0
 57 49  1  0  0  0  0
 58 51  1  0  0  0  0
 59 60  1  0  0  0  0
 60 61  1  0  0  0  0
M  END
>  <MODEL>
6

>  <REMARK>
 VINA RESULT:      -8.3      3.180      8.725
  Name = 
  15 active torsions:
  status: ('A' for Active; 'I' for Inactive)
    1  A    between atoms: N_1  and  C_28
    2  A    between atoms: C_2  and  C_47
    3  A    between atoms: C_3  and  C_59
    4  A    between atoms: C_4  and  C_54
    5  A    between atoms: C_9  and  C_49
    6  A    between atoms: C_10  and  C_16
    7  A    between atoms: C_15  and  C_49
    8  A    between atoms: C_20  and  N_23
    9  A    between atoms: C_21  and  C_24
   10  A    between atoms: N_23  and  C_27
   11  A    between atoms: C_24  and  O_42
   12  A    between atoms: C_25  and  C_31
   13  A    between atoms: C_26  and  O_33
   14  A    between atoms: C_27  and  C_39
   15  A    between atoms: O_42  and  C_59
                            x       y       z     vdW  Elec       q    Type
                         _______ _______ _______ _____ _____    ______ ____

>  <TORSDO>
F 15

$$$$
=
 OpenBabel10222416063D

 61 67  0  0  1  0  0  0  0  0999 V2000
  186.2810  174.8910  135.2640 C   0  0  0  0  0  0  0  0  0  0  0  0
  188.7120  175.5940  134.6170 C   0  0  0  0  0  3  0  0  0  0  0  0
  185.7460  173.6970  134.7030 N   0  0  0  0  0  1  0  0  0  0  0  0
  187.5000  175.2470  134.9630 C   0  0  0  0  0  0  0  0  0  0  0  0
  189.9170  175.1800  135.3640 C   0  0  0  0  0  0  0  0  0  0  0  0
  192.2410  174.3940  136.7510 C   0  0  0  0  0  0  0  0  0  0  0  0
  191.5200  173.4580  136.0000 C   0  0  0  0  0  3  0  0  0  0  0  0
  190.3700  173.8500  135.3090 C   0  0  0  0  0  3  0  0  0  0  0  0
  191.8020  175.7210  136.8030 C   0  0  0  0  0  3  0  0  0  0  0  0
  190.6430  176.1280  136.1190 C   0  0  0  0  0  0  0  0  0  0  0  0
  190.2050  177.5410  136.1640 C   0  0  0  0  0  3  0  0  0  0  0  0
  188.3890  178.4230  137.8240 C   0  0  0  0  0  3  0  0  0  0  0  0
  189.2820  177.9740  136.9830 C   0  0  0  0  0  0  0  0  0  0  0  0
  189.0020  177.2160  139.9070 C   0  0  0  0  0  2  0  0  0  0  0  0
  187.8830  177.5850  138.9520 C   0  0  1  0  0  3  0  0  0  0  0  0
  188.0760  178.3690  140.2480 C   0  0  1  0  0  3  0  0  0  0  0  0
  187.0960  177.9460  141.2530 N   0  0  2  0  0  0  0  0  0  0  0  0
  184.8610  178.5740  142.0620 C   0  0  0  0  0  0  0  0  0  0  0  0
  185.9240  178.8040  141.0310 C   0  0  0  0  0  2  0  0  0  0  0  0
  186.2720  178.2600  146.1160 C   0  0  0  0  0  3  0  0  0  0  0  0
  184.3030  178.1780  144.5110 C   0  0  0  0  0  2  0  0  0  0  0  0
  187.1060  178.0090  145.0920 C   0  0  0  0  0  3  0  0  0  0  0  0
  185.3210  178.6730  143.4870 C   0  0  1  0  0  3  0  0  0  0  0  0
  187.6490  178.1970  142.6050 C   0  0  1  0  0  3  0  0  0  0  0  0
  183.6140  178.9210  141.7410 C   0  0  0  0  0  2  0  0  0  0  0  0
  184.7930  178.5210  145.9200 C   0  0  0  0  0  2  0  0  0  0  0  0
  186.5970  177.8560  143.6770 C   0  0  1  0  0  3  0  0  0  0  0  0
  188.8930  177.3430  142.8540 C   0  0  0  0  0  2  0  0  0  0  0  0
  190.0840  178.1870  142.8170 N   0  0  0  0  0  2  0  0  0  0  0  0
  190.7020  178.2810  144.1470 C   0  0  0  0  0  3  0  0  0  0  0  0
  191.5250  179.5450  144.2990 C   0  0  0  0  0  1  0  0  0  0  0  0
  191.5180  177.0510  144.4860 C   0  0  0  0  0  1  0  0  0  0  0  0
  194.4180  174.9210  137.6670 N   0  0  0  0  0  1  0  0  0  0  0  0
  193.3910  174.0300  137.4540 O   0  0  0  0  0  0  0  0  0  0  0  0
  185.3780  175.8580  135.8960 C   0  0  0  0  0  0  0  0  0  0  0  0
  185.5690  177.0880  135.6850 O   0  0  0  0  0  0  0  0  0  0  0  0
  182.0540  174.5340  135.9670 C   0  0  0  0  0  3  0  0  0  0  0  0
  184.2290  175.4170  136.7160 C   0  0  0  0  0  0  0  0  0  0  0  0
  181.1890  175.0510  136.8430 C   0  0  0  0  0  3  0  0  0  0  0  0
  181.5010  175.4200  138.2460 C   0  0  0  0  0  0  0  0  0  0  0  0
  183.4590  174.1920  136.3260 C   0  0  0  0  0  2  0  0  0  0  0  0
  182.6900  175.9030  138.6410 C   0  0  0  0  0  3  0  0  0  0  0  0
  183.8880  176.1190  137.8030 C   0  0  0  0  0  3  0  0  0  0  0  0
  180.4940  174.7330  140.2800 O   0  0  0  0  0  0  0  0  0  0  0  0
  180.3980  175.4150  139.2240 C   0  0  0  0  0  0  0  0  0  0  0  0
  179.2330  176.1480  138.9660 O   0  0  0  0  0  0  0  0  0  0  0  0
  178.9330  177.3710  139.6280 C   0  0  0  0  0  2  0  0  0  0  0  0
  179.1820  179.8770  139.6020 C   0  0  2  0  0  3  0  0  0  0  0  0
  179.5270  178.5640  138.8830 C   0  0  2  0  0  3  0  0  0  0  0  0
  178.9720  179.7310  135.2760 C   0  0  0  0  0  1  0  0  0  0  0  0
  181.1370  181.3970  138.8290 C   0  0  0  0  0  2  0  0  0  0  0  0
  180.1390  182.1730  136.7270 C   0  0  2  0  0  3  0  0  0  0  0  0
  179.5360  179.7570  136.6830 C   0  0  1  0  0  3  0  0  0  0  0  0
  179.6410  181.1300  138.8230 C   0  0  1  0  0  3  0  0  0  0  0  0
  179.4890  183.4070  136.7550 O   0  0  0  0  0  1  0  0  0  0  0  0
  179.2400  181.1140  137.3510 C   0  0  1  0  0  3  0  0  0  0  0  0
  178.9450  178.5990  137.4760 C   0  0  0  0  0  2  0  0  0  0  0  0
  181.3950  182.2460  137.5940 C   0  0  0  0  0  2  0  0  0  0  0  0
  179.0230  181.1130  141.8340 C   0  0  0  0  0  1  0  0  0  0  0  0
  179.5420  179.8900  141.0990 C   0  0  1  0  0  3  0  0  0  0  0  0
  179.0890  178.7260  141.7240 O   0  0  0  0  0  1  0  0  0  0  0  0
  1 35  1  0  0  0  0
  2  4  2  0  0  0  0
  2  5  1  0  0  0  0
  3  1  1  0  0  0  0
  4  1  2  0  0  0  0
  5 10  1  0  0  0  0
  6  9  1  0  0  0  0
  6 34  1  0  0  0  0
  7  6  2  0  0  0  0
  8  5  2  0  0  0  0
  8  7  1  0  0  0  0
 10 11  1  0  0  0  0
 10  9  2  0  0  0  0
 11 13  2  0  0  0  0
 13 12  2  0  0  0  0
 15 12  1  6  0  0  0
 15 14  1  0  0  0  0
 15 16  1  0  0  0  0
 16 14  1  1  0  0  0
 16 17  1  0  0  0  0
 17 19  1  6  0  0  0
 17 24  1  0  0  0  0
 18 23  1  0  0  0  0
 19 18  1  0  0  0  0
 21 26  1  0  0  0  0
 22 20  2  0  0  0  0
 23 27  1  0  0  0  0
 23 21  1  1  0  0  0
 24 28  1  1  0  0  0
 24 27  1  0  0  0  0
 25 18  2  0  0  0  0
 26 20  1  0  0  0  0
 27 22  1  1  0  0  0
 29 28  1  0  0  0  0
 29 30  1  0  0  0  0
 30 31  1  0  0  0  0
 30 32  1  0  0  0  0
 34 33  1  0  0  0  0
 35 38  1  0  0  0  0
 36 35  2  0  0  0  0
 37 41  1  0  0  0  0
 37 39  2  0  0  0  0
 38 43  2  0  0  0  0
 39 40  1  0  0  0  0
 40 42  2  0  0  0  0
 40 45  1  0  0  0  0
 41 38  1  0  0  0  0
 43 42  1  0  0  0  0
 45 44  2  0  0  0  0
 46 45  1  0  0  0  0
 46 47  1  0  0  0  0
 48 60  1  1  0  0  0
 49 48  1  0  0  0  0
 49 47  1  1  0  0  0
 52 55  1  1  0  0  0
 52 56  1  0  0  0  0
 52 58  1  0  0  0  0
 53 50  1  6  0  0  0
 53 56  1  0  0  0  0
 53 57  1  0  0  0  0
 54 51  1  6  0  0  0
 54 48  1  0  0  0  0
 56 54  1  0  0  0  0
 57 49  1  0  0  0  0
 58 51  1  0  0  0  0
 60 61  1  0  0  0  0
 60 59  1  0  0  0  0
M  END
>  <MODEL>
7

>  <REMARK>
 VINA RESULT:      -7.8      1.973      3.151
  Name = 
  15 active torsions:
  status: ('A' for Active; 'I' for Inactive)
    1  A    between atoms: N_1  and  C_28
    2  A    between atoms: C_2  and  C_47
    3  A    between atoms: C_3  and  C_59
    4  A    between atoms: C_4  and  C_54
    5  A    between atoms: C_9  and  C_49
    6  A    between atoms: C_10  and  C_16
    7  A    between atoms: C_15  and  C_49
    8  A    between atoms: C_20  and  N_23
    9  A    between atoms: C_21  and  C_24
   10  A    between atoms: N_23  and  C_27
   11  A    between atoms: C_24  and  O_42
   12  A    between atoms: C_25  and  C_31
   13  A    between atoms: C_26  and  O_33
   14  A    between atoms: C_27  and  C_39
   15  A    between atoms: O_42  and  C_59
                            x       y       z     vdW  Elec       q    Type
                         _______ _______ _______ _____ _____    ______ ____

>  <TORSDO>
F 15

$$$$
=
 OpenBabel10222416063D

 61 67  0  0  1  0  0  0  0  0999 V2000
  187.3790  172.6170  136.2410 C   0  0  0  0  0  0  0  0  0  0  0  0
  188.8700  174.7260  135.8490 C   0  0  0  0  0  3  0  0  0  0  0  0
  187.4100  171.5730  135.2750 N   0  0  0  0  0  1  0  0  0  0  0  0
  188.1310  173.6700  136.0670 C   0  0  0  0  0  0  0  0  0  0  0  0
  190.2580  174.8580  136.3390 C   0  0  0  0  0  0  0  0  0  0  0  0
  192.9180  175.1130  137.2320 C   0  0  0  0  0  0  0  0  0  0  0  0
  192.4230  173.8610  136.8460 C   0  0  0  0  0  3  0  0  0  0  0  0
  191.1040  173.7370  136.3990 C   0  0  0  0  0  3  0  0  0  0  0  0
  192.0850  176.2340  137.1650 C   0  0  0  0  0  3  0  0  0  0  0  0
  190.7550  176.1230  136.7260 C   0  0  0  0  0  0  0  0  0  0  0  0
  189.8920  177.3220  136.6380 C   0  0  0  0  0  3  0  0  0  0  0  0
  188.1570  177.9730  138.4800 C   0  0  0  0  0  3  0  0  0  0  0  0
  189.0110  177.6340  137.5530 C   0  0  0  0  0  0  0  0  0  0  0  0
  189.3780  177.5800  140.6080 C   0  0  0  0  0  2  0  0  0  0  0  0
  188.1250  177.2870  139.8070 C   0  0  1  0  0  3  0  0  0  0  0  0
  188.1070  178.3580  140.8940 C   0  0  1  0  0  3  0  0  0  0  0  0
  187.4680  177.8440  142.1090 N   0  0  2  0  0  0  0  0  0  0  0  0
  185.5130  178.3060  143.5280 C   0  0  0  0  0  0  0  0  0  0  0  0
  186.2360  178.6330  142.2570 C   0  0  0  0  0  2  0  0  0  0  0  0
  188.0050  177.9620  147.0210 C   0  0  0  0  0  3  0  0  0  0  0  0
  185.6760  177.8040  146.0160 C   0  0  0  0  0  2  0  0  0  0  0  0
  188.5350  177.7940  145.7970 C   0  0  0  0  0  3  0  0  0  0  0  0
  186.3440  178.3920  144.7750 C   0  0  1  0  0  3  0  0  0  0  0  0
  188.3590  178.0900  143.2680 C   0  0  1  0  0  3  0  0  0  0  0  0
  184.2100  178.5830  143.5770 C   0  0  0  0  0  2  0  0  0  0  0  0
  186.5170  178.1350  147.2500 C   0  0  0  0  0  2  0  0  0  0  0  0
  187.6640  177.6510  144.5700 C   0  0  1  0  0  3  0  0  0  0  0  0
  189.6660  177.3090  143.1260 C   0  0  0  0  0  2  0  0  0  0  0  0
  190.6690  177.8630  144.0310 N   0  0  0  0  0  2  0  0  0  0  0  0
  191.6300  176.8310  144.4450 C   0  0  0  0  0  3  0  0  0  0  0  0
  191.3740  175.5090  143.7500 C   0  0  0  0  0  1  0  0  0  0  0  0
  191.6710  176.6600  145.9500 C   0  0  0  0  0  1  0  0  0  0  0  0
  195.2630  175.5470  136.8190 N   0  0  0  0  0  1  0  0  0  0  0  0
  194.2300  175.2650  137.6840 O   0  0  0  0  0  0  0  0  0  0  0  0
  186.2940  172.6560  137.2270 C   0  0  0  0  0  0  0  0  0  0  0  0
  186.5550  173.0630  138.3940 O   0  0  0  0  0  0  0  0  0  0  0  0
  184.0600  171.4280  134.7160 C   0  0  0  0  0  3  0  0  0  0  0  0
  184.9090  172.2870  136.8630 C   0  0  0  0  0  0  0  0  0  0  0  0
  182.8650  172.0110  134.5970 C   0  0  0  0  0  3  0  0  0  0  0  0
  182.0000  172.4410  135.7230 C   0  0  0  0  0  0  0  0  0  0  0  0
  184.6540  171.0660  136.0330 C   0  0  0  0  0  2  0  0  0  0  0  0
  182.4760  172.9090  136.8880 C   0  0  0  0  0  3  0  0  0  0  0  0
  183.8930  173.0510  137.2810 C   0  0  0  0  0  3  0  0  0  0  0  0
  179.8590  171.4570  135.4510 O   0  0  0  0  0  0  0  0  0  0  0  0
  180.5460  172.5130  135.4910 C   0  0  0  0  0  0  0  0  0  0  0  0
  179.9340  173.7560  135.2890 O   0  0  0  0  0  0  0  0  0  0  0  0
  179.3510  174.5060  136.3490 C   0  0  0  0  0  2  0  0  0  0  0  0
  179.8160  175.9480  138.3600 C   0  0  2  0  0  3  0  0  0  0  0  0
  180.3980  175.3500  137.0700 C   0  0  2  0  0  3  0  0  0  0  0  0
  182.3450  178.4180  135.8540 C   0  0  0  0  0  1  0  0  0  0  0  0
  181.9670  176.2770  139.7730 C   0  0  0  0  0  2  0  0  0  0  0  0
  182.5890  178.4880  138.9150 C   0  0  2  0  0  3  0  0  0  0  0  0
  181.9040  177.3340  136.8170 C   0  0  1  0  0  3  0  0  0  0  0  0
  180.7870  176.9220  139.0660 C   0  0  1  0  0  3  0  0  0  0  0  0
  182.1950  179.5920  139.6700 O   0  0  0  0  0  1  0  0  0  0  0  0
  181.3960  177.9610  138.1300 C   0  0  1  0  0  3  0  0  0  0  0  0
  180.8320  176.4820  136.1490 C   0  0  0  0  0  2  0  0  0  0  0  0
  183.0260  177.3650  139.8530 C   0  0  0  0  0  2  0  0  0  0  0  0
  179.9520  173.6250  139.4190 C   0  0  0  0  0  1  0  0  0  0  0  0
  179.1590  174.9150  139.2940 C   0  0  1  0  0  3  0  0  0  0  0  0
  178.9360  175.4660  140.5580 O   0  0  0  0  0  1  0  0  0  0  0  0
  1 35  1  0  0  0  0
  2  4  2  0  0  0  0
  2  5  1  0  0  0  0
  3  1  1  0  0  0  0
  4  1  2  0  0  0  0
  5  8  2  0  0  0  0
  5 10  1  0  0  0  0
  6 34  1  0  0  0  0
  7  6  2  0  0  0  0
  8  7  1  0  0  0  0
  9  6  1  0  0  0  0
 10  9  2  0  0  0  0
 11 10  1  0  0  0  0
 11 13  2  0  0  0  0
 13 12  2  0  0  0  0
 15 12  1  6  0  0  0
 15 14  1  0  0  0  0
 15 16  1  0  0  0  0
 16 14  1  1  0  0  0
 16 17  1  0  0  0  0
 17 19  1  1  0  0  0
 17 24  1  0  0  0  0
 18 25  2  0  0  0  0
 18 23  1  0  0  0  0
 19 18  1  0  0  0  0
 20 26  1  0  0  0  0
 21 26  1  0  0  0  0
 22 20  2  0  0  0  0
 23 21  1  1  0  0  0
 24 28  1  6  0  0  0
 24 27  1  0  0  0  0
 27 23  1  0  0  0  0
 27 22  1  1  0  0  0
 28 29  1  0  0  0  0
 29 30  1  0  0  0  0
 30 32  1  0  0  0  0
 31 30  1  0  0  0  0
 33 34  1  0  0  0  0
 35 36  2  0  0  0  0
 37 41  1  0  0  0  0
 38 35  1  0  0  0  0
 38 43  2  0  0  0  0
 39 37  2  0  0  0  0
 39 40  1  0  0  0  0
 40 42  2  0  0  0  0
 41 38  1  0  0  0  0
 42 43  1  0  0  0  0
 44 45  2  0  0  0  0
 45 40  1  0  0  0  0
 46 45  1  0  0  0  0
 46 47  1  0  0  0  0
 48 54  1  0  0  0  0
 48 60  1  1  0  0  0
 49 47  1  6  0  0  0
 49 48  1  0  0  0  0
 51 58  1  0  0  0  0
 52 55  1  1  0  0  0
 52 58  1  0  0  0  0
 53 50  1  6  0  0  0
 53 56  1  0  0  0  0
 54 51  1  6  0  0  0
 56 52  1  0  0  0  0
 56 54  1  0  0  0  0
 57 53  1  0  0  0  0
 57 49  1  0  0  0  0
 60 59  1  0  0  0  0
 60 61  1  0  0  0  0
M  END
>  <MODEL>
8

>  <REMARK>
 VINA RESULT:      -7.8      2.637      4.246
  Name = 
  15 active torsions:
  status: ('A' for Active; 'I' for Inactive)
    1  A    between atoms: N_1  and  C_28
    2  A    between atoms: C_2  and  C_47
    3  A    between atoms: C_3  and  C_59
    4  A    between atoms: C_4  and  C_54
    5  A    between atoms: C_9  and  C_49
    6  A    between atoms: C_10  and  C_16
    7  A    between atoms: C_15  and  C_49
    8  A    between atoms: C_20  and  N_23
    9  A    between atoms: C_21  and  C_24
   10  A    between atoms: N_23  and  C_27
   11  A    between atoms: C_24  and  O_42
   12  A    between atoms: C_25  and  C_31
   13  A    between atoms: C_26  and  O_33
   14  A    between atoms: C_27  and  C_39
   15  A    between atoms: O_42  and  C_59
                            x       y       z     vdW  Elec       q    Type
                         _______ _______ _______ _____ _____    ______ ____

>  <TORSDO>
F 15

$$$$
=
 OpenBabel10222416063D

 61 67  0  0  1  0  0  0  0  0999 V2000
  188.4770  177.8970  136.6760 C   0  0  0  0  0  0  0  0  0  0  0  0
  189.3860  175.8750  138.0560 C   0  0  0  0  0  3  0  0  0  0  0  0
  189.0550  179.1800  136.8870 N   0  0  0  0  0  1  0  0  0  0  0  0
  188.9320  176.8740  137.3470 C   0  0  0  0  0  0  0  0  0  0  0  0
  190.4950  175.0040  137.6130 C   0  0  0  0  0  0  0  0  0  0  0  0
  192.6010  173.3570  136.7250 C   0  0  0  0  0  0  0  0  0  0  0  0
  191.2810  172.8920  136.6860 C   0  0  0  0  0  3  0  0  0  0  0  0
  190.2370  173.7120  137.1230 C   0  0  0  0  0  3  0  0  0  0  0  0
  192.8650  174.6450  137.2020 C   0  0  0  0  0  3  0  0  0  0  0  0
  191.8250  175.4780  137.6520 C   0  0  0  0  0  0  0  0  0  0  0  0
  192.1180  176.8470  138.1310 C   0  0  0  0  0  3  0  0  0  0  0  0
  191.0590  177.8610  140.2940 C   0  0  0  0  0  3  0  0  0  0  0  0
  191.5710  177.3580  139.2030 C   0  0  0  0  0  0  0  0  0  0  0  0
  191.2010  176.4430  142.3300 C   0  0  0  0  0  2  0  0  0  0  0  0
  190.2920  177.0200  141.2620 C   0  0  1  0  0  3  0  0  0  0  0  0
  190.3770  177.6810  142.6350 C   0  0  1  0  0  3  0  0  0  0  0  0
  189.2130  177.3210  143.4500 N   0  0  2  0  0  0  0  0  0  0  0  0
  186.7820  177.6850  143.4980 C   0  0  0  0  0  0  0  0  0  0  0  0
  188.0560  177.8710  142.7300 C   0  0  0  0  0  2  0  0  0  0  0  0
  187.0270  178.5690  147.7030 C   0  0  0  0  0  3  0  0  0  0  0  0
  185.6120  177.7580  145.7540 C   0  0  0  0  0  2  0  0  0  0  0  0
  188.1380  178.2520  147.0160 C   0  0  0  0  0  3  0  0  0  0  0  0
  186.8090  178.1890  144.9110 C   0  0  1  0  0  3  0  0  0  0  0  0
  189.3300  177.9710  144.7770 C   0  0  1  0  0  3  0  0  0  0  0  0
  185.6430  177.7110  142.8050 C   0  0  0  0  0  2  0  0  0  0  0  0
  185.6410  178.4960  147.0950 C   0  0  0  0  0  2  0  0  0  0  0  0
  188.0690  177.6900  145.6150 C   0  0  1  0  0  3  0  0  0  0  0  0
  190.5480  177.4440  145.5380 C   0  0  0  0  0  2  0  0  0  0  0  0
  190.1940  176.2100  146.2360 N   0  0  0  0  0  2  0  0  0  0  0  0
  191.1330  175.9400  147.3330 C   0  0  0  0  0  3  0  0  0  0  0  0
  191.4500  177.1920  148.1270 C   0  0  0  0  0  1  0  0  0  0  0  0
  192.3990  175.2640  146.8480 C   0  0  0  0  0  1  0  0  0  0  0  0
  194.6050  172.0780  137.1810 N   0  0  0  0  0  1  0  0  0  0  0  0
  193.6640  172.5580  136.2980 O   0  0  0  0  0  0  0  0  0  0  0  0
  187.1960  177.7910  135.9720 C   0  0  0  0  0  0  0  0  0  0  0  0
  186.9150  178.6590  135.0980 O   0  0  0  0  0  0  0  0  0  0  0  0
  184.9890  175.3340  134.5940 C   0  0  0  0  0  3  0  0  0  0  0  0
  186.2690  176.6660  136.2230 C   0  0  0  0  0  0  0  0  0  0  0  0
  183.8290  175.1090  135.2170 C   0  0  0  0  0  3  0  0  0  0  0  0
  183.6410  175.0340  136.6870 C   0  0  0  0  0  0  0  0  0  0  0  0
  186.2820  175.4710  135.3210 C   0  0  0  0  0  2  0  0  0  0  0  0
  184.3450  175.7680  137.5640 C   0  0  0  0  0  3  0  0  0  0  0  0
  185.4250  176.7290  137.2600 C   0  0  0  0  0  3  0  0  0  0  0  0
  182.2800  173.0920  136.7260 O   0  0  0  0  0  0  0  0  0  0  0  0
  182.5120  174.2370  137.2000 C   0  0  0  0  0  0  0  0  0  0  0  0
  181.6840  174.7650  138.1980 O   0  0  0  0  0  0  0  0  0  0  0  0
  180.5070  175.5100  137.9040 C   0  0  0  0  0  2  0  0  0  0  0  0
  181.4730  177.6830  137.0750 C   0  0  2  0  0  3  0  0  0  0  0  0
  180.7010  176.9930  138.2100 C   0  0  2  0  0  3  0  0  0  0  0  0
  182.4310  178.6830  141.1810 C   0  0  0  0  0  1  0  0  0  0  0  0
  180.6530  180.1300  137.3300 C   0  0  0  0  0  2  0  0  0  0  0  0
  182.2870  180.8520  139.0100 C   0  0  2  0  0  3  0  0  0  0  0  0
  181.6820  178.5920  139.8660 C   0  0  1  0  0  3  0  0  0  0  0  0
  181.8170  179.1560  137.3880 C   0  0  1  0  0  3  0  0  0  0  0  0
  183.4200  181.5180  138.5440 O   0  0  0  0  0  1  0  0  0  0  0  0
  182.4430  179.3570  138.7650 C   0  0  1  0  0  3  0  0  0  0  0  0
  181.4930  177.1250  139.5040 C   0  0  0  0  0  2  0  0  0  0  0  0
  181.0700  181.3020  138.2040 C   0  0  0  0  0  2  0  0  0  0  0  0
  179.4060  177.8180  135.5770 C   0  0  0  0  0  1  0  0  0  0  0  0
  180.8760  177.4520  135.6740 C   0  0  1  0  0  3  0  0  0  0  0  0
  181.6090  178.1450  134.7070 O   0  0  0  0  0  1  0  0  0  0  0  0
  1  3  1  0  0  0  0
  1  4  2  0  0  0  0
  4  2  2  0  0  0  0
  5 10  1  0  0  0  0
  5  2  1  0  0  0  0
  6  9  1  0  0  0  0
  7  6  2  0  0  0  0
  7  8  1  0  0  0  0
  8  5  2  0  0  0  0
  9 10  2  0  0  0  0
 10 11  1  0  0  0  0
 11 13  2  0  0  0  0
 13 12  2  0  0  0  0
 15 12  1  6  0  0  0
 15 14  1  0  0  0  0
 15 16  1  0  0  0  0
 16 14  1  1  0  0  0
 16 17  1  0  0  0  0
 17 19  1  6  0  0  0
 17 24  1  0  0  0  0
 18 23  1  0  0  0  0
 19 18  1  0  0  0  0
 21 26  1  0  0  0  0
 22 20  2  0  0  0  0
 23 27  1  0  0  0  0
 23 21  1  1  0  0  0
 24 28  1  1  0  0  0
 24 27  1  0  0  0  0
 25 18  2  0  0  0  0
 26 20  1  0  0  0  0
 27 22  1  1  0  0  0
 28 29  1  0  0  0  0
 29 30  1  0  0  0  0
 30 31  1  0  0  0  0
 32 30  1  0  0  0  0
 34  6  1  0  0  0  0
 34 33  1  0  0  0  0
 35 38  1  0  0  0  0
 35  1  1  0  0  0  0
 36 35  2  0  0  0  0
 37 39  2  0  0  0  0
 37 41  1  0  0  0  0
 38 43  2  0  0  0  0
 39 40  1  0  0  0  0
 40 45  1  0  0  0  0
 40 42  2  0  0  0  0
 41 38  1  0  0  0  0
 43 42  1  0  0  0  0
 44 45  2  0  0  0  0
 45 46  1  0  0  0  0
 47 46  1  0  0  0  0
 48 60  1  6  0  0  0
 48 54  1  0  0  0  0
 48 49  1  0  0  0  0
 49 47  1  6  0  0  0
 49 57  1  0  0  0  0
 51 58  1  0  0  0  0
 52 55  1  6  0  0  0
 53 50  1  1  0  0  0
 54 51  1  1  0  0  0
 54 56  1  0  0  0  0
 56 52  1  0  0  0  0
 56 53  1  0  0  0  0
 57 53  1  0  0  0  0
 58 52  1  0  0  0  0
 59 60  1  0  0  0  0
 61 60  1  0  0  0  0
M  END
>  <MODEL>
9

>  <REMARK>
 VINA RESULT:      -7.7      1.463      2.049
  Name = 
  15 active torsions:
  status: ('A' for Active; 'I' for Inactive)
    1  A    between atoms: N_1  and  C_28
    2  A    between atoms: C_2  and  C_47
    3  A    between atoms: C_3  and  C_59
    4  A    between atoms: C_4  and  C_54
    5  A    between atoms: C_9  and  C_49
    6  A    between atoms: C_10  and  C_16
    7  A    between atoms: C_15  and  C_49
    8  A    between atoms: C_20  and  N_23
    9  A    between atoms: C_21  and  C_24
   10  A    between atoms: N_23  and  C_27
   11  A    between atoms: C_24  and  O_42
   12  A    between atoms: C_25  and  C_31
   13  A    between atoms: C_26  and  O_33
   14  A    between atoms: C_27  and  C_39
   15  A    between atoms: O_42  and  C_59
                            x       y       z     vdW  Elec       q    Type
                         _______ _______ _______ _____ _____    ______ ____

>  <TORSDO>
F 15

$$$$
