=
 OpenBabel10222416013D

 55 58  0  0  1  0  0  0  0  0999 V2000
  185.9200  179.5850  141.6470 S   0  0  0  0  0  0  0  0  0  0  0  0
  183.9390  177.9940  142.2890 N   0  0  0  0  0  0  0  0  0  0  0  0
  185.3730  178.3320  140.4430 C   0  0  1  0  0  3  0  0  0  0  0  0
  184.8090  178.8020  142.7990 C   0  0  0  0  0  0  0  0  0  0  0  0
  183.9500  177.9180  140.8430 C   0  0  2  0  0  3  0  0  0  0  0  0
  182.8260  178.7870  140.3190 C   0  0  0  0  0  0  0  0  0  0  0  0
  183.0660  179.8100  139.6170 O   0  0  0  0  0  0  0  0  0  0  0  0
  181.4290  178.4830  140.7120 C   0  0  0  0  0  0  0  0  0  0  0  0
  180.9040  177.4000  140.3530 O   0  0  0  0  0  0  0  0  0  0  0  0
  180.6120  179.4160  141.5570 C   0  0  1  0  0  3  0  0  0  0  0  0
  179.2380  179.6580  140.9480 C   0  0  0  0  0  1  0  0  0  0  0  0
  180.5110  178.9040  142.9850 C   0  0  0  0  0  2  0  0  0  0  0  0
  179.4500  178.0020  143.0920 O   0  0  0  0  0  1  0  0  0  0  0  0
  185.8160  178.5370  144.9910 N   0  0  0  0  0  0  0  0  0  0  0  0
  184.9270  179.0290  144.2120 N   0  0  0  0  0  0  0  0  0  0  0  0
  186.4510  176.3160  144.6400 O   0  0  0  0  0  1  0  0  0  0  0  0
  186.8920  177.6360  144.5830 C   0  0  2  0  0  3  0  0  0  0  0  0
  188.1410  177.8230  145.4660 C   0  0  2  0  0  3  0  0  0  0  0  0
  189.3250  176.9200  145.0350 C   0  0  2  0  0  3  0  0  0  0  0  0
  190.6980  177.4820  145.3110 C   0  0  0  0  0  2  0  0  0  0  0  0
  189.2970  176.5140  143.6220 N   0  0  0  0  0  0  0  0  0  0  0  0
  191.5890  176.6740  144.3970 C   0  0  0  0  0  2  0  0  0  0  0  0
  190.6660  176.0990  143.3300 C   0  0  0  0  0  2  0  0  0  0  0  0
  189.0310  177.6640  142.7560 C   0  0  0  0  0  2  0  0  0  0  0  0
  188.8570  177.1890  141.3270 C   0  0  0  0  0  2  0  0  0  0  0  0
  189.7560  177.9890  140.4140 C   0  0  0  0  0  2  0  0  0  0  0  0
  190.2330  176.0710  138.9380 N   0  0  0  0  0  0  0  0  0  0  0  0
  189.8060  177.3580  139.0650 C   0  0  0  0  0  0  0  0  0  0  0  0
  188.9300  179.3770  138.0290 O   0  0  0  0  0  1  0  0  0  0  0  0
  189.3830  178.0680  137.9290 C   0  0  0  0  0  0  0  0  0  0  0  0
  189.4230  177.4410  136.6810 C   0  0  0  0  0  3  0  0  0  0  0  0
  190.2690  175.4460  137.7280 C   0  0  0  0  0  3  0  0  0  0  0  0
  189.8660  176.1220  136.5750 C   0  0  0  0  0  3  0  0  0  0  0  0
  187.8150  177.7200  146.9660 C   0  0  1  0  0  3  0  0  0  0  0  0
  188.4290  176.4660  147.5700 C   0  0  0  0  0  1  0  0  0  0  0  0
  189.1280  178.3700  148.6340 C   0  0  0  0  0  1  0  0  0  0  0  0
  188.2450  178.8530  147.6680 O   0  0  0  0  0  0  0  0  0  0  0  0
  185.4830  178.8150  139.0740 N   0  0  0  0  0  2  0  0  0  0  0  0
  185.7840  177.7100  138.2710 N   0  0  0  0  0  2  0  0  0  0  0  0
  185.0930  177.8970  137.0000 C   0  0  2  0  0  3  0  0  0  0  0  0
  184.0750  176.7860  136.7430 C   0  0  1  0  0  3  0  0  0  0  0  0
  185.4250  176.7540  136.0610 C   0  0  0  0  0  2  0  0  0  0  0  0
  184.0550  175.8410  137.7770 O   0  0  0  0  0  0  0  0  0  0  0  0
  183.3270  174.7600  137.2680 C   0  0  1  0  0  3  0  0  0  0  0  0
  184.0450  173.4500  137.5710 C   0  0  0  0  0  2  0  0  0  0  0  0
  183.5890  171.1880  136.9520 O   0  0  0  0  0  1  0  0  0  0  0  0
  183.3760  172.7430  135.2720 O   0  0  0  0  0  0  0  0  0  0  0  0
  183.6460  172.3980  136.5920 C   0  0  0  0  0  0  0  0  0  0  0  0
  181.9290  174.7470  137.8650 C   0  0  0  0  0  2  0  0  0  0  0  0
  180.9640  174.9040  136.8670 O   0  0  0  0  0  0  0  0  0  0  0  0
  180.5410  176.2280  136.9890 C   0  0  0  0  0  2  0  0  0  0  0  0
  180.3010  176.8250  135.6090 C   0  0  0  0  0  2  0  0  0  0  0  0
  181.5200  178.7540  134.6060 C   0  0  0  0  0  1  0  0  0  0  0  0
  180.4830  178.3340  135.6310 C   0  0  0  0  0  3  0  0  0  0  0  0
  180.9310  178.7670  137.0070 C   0  0  0  0  0  1  0  0  0  0  0  0
  1  4  1  0  0  0  0
  2  4  2  0  0  0  0
  3 38  1  6  0  0  0
  3  5  1  0  0  0  0
  3  1  1  0  0  0  0
  4 15  1  0  0  0  0
  5  6  1  6  0  0  0
  5  2  1  0  0  0  0
  6  8  1  0  0  0  0
  7  6  2  0  0  0  0
  8 10  1  0  0  0  0
  9  8  2  0  0  0  0
 10 11  1  6  0  0  0
 10 12  1  0  0  0  0
 12 13  1  0  0  0  0
 15 14  2  0  0  0  0
 17 16  1  1  0  0  0
 17 14  1  0  0  0  0
 18 17  1  6  0  0  0
 18 34  1  0  0  0  0
 19 20  1  0  0  0  0
 19 18  1  6  0  0  0
 21 19  1  0  0  0  0
 22 20  1  0  0  0  0
 23 21  1  0  0  0  0
 23 22  1  0  0  0  0
 24 21  1  0  0  0  0
 25 24  1  0  0  0  0
 26 25  1  0  0  0  0
 27 28  1  0  0  0  0
 28 26  1  0  0  0  0
 30 29  1  0  0  0  0
 30 28  2  0  0  0  0
 31 30  1  0  0  0  0
 32 27  2  0  0  0  0
 33 31  2  0  0  0  0
 33 32  1  0  0  0  0
 34 35  1  1  0  0  0
 34 37  1  0  0  0  0
 37 36  1  0  0  0  0
 39 38  1  0  0  0  0
 40 39  1  1  0  0  0
 41 40  1  0  0  0  0
 41 43  1  1  0  0  0
 42 41  1  0  0  0  0
 42 40  1  0  0  0  0
 44 45  1  1  0  0  0
 44 43  1  0  0  0  0
 44 49  1  0  0  0  0
 47 48  2  0  0  0  0
 48 46  1  0  0  0  0
 48 45  1  0  0  0  0
 50 51  1  0  0  0  0
 50 49  1  0  0  0  0
 52 54  1  0  0  0  0
 52 51  1  0  0  0  0
 53 54  1  0  0  0  0
 54 55  1  0  0  0  0
M  END
>  <MODEL>
1

>  <REMARK>
 VINA RESULT:      -5.4      0.000      0.000
  Name = 
  26 active torsions:
  status: ('A' for Active; 'I' for Inactive)
    1  A    between atoms: C_4  and  C_54
    2  A    between atoms: C_5  and  O_26
    3  A    between atoms: C_5  and  C_44
    4  A    between atoms: C_7  and  C_20
    5  A    between atoms: C_8  and  C_15
    6  A    between atoms: C_8  and  C_50
    7  A    between atoms: O_9  and  C_32
    8  A    between atoms: O_9  and  C_49
    9  A    between atoms: C_11  and  O_45
   10  A    between atoms: C_11  and  C_54
   11  A    between atoms: C_12  and  C_18
   12  A    between atoms: C_12  and  C_41
   13  A    between atoms: N_14  and  C_33
   14  A    between atoms: C_15  and  C_20
   15  A    between atoms: C_16  and  C_44
   16  A    between atoms: C_18  and  C_19
   17  A    between atoms: C_24  and  N_25
   18  A    between atoms: N_25  and  N_31
   19  A    between atoms: O_26  and  C_47
   20  A    between atoms: N_31  and  C_36
   21  A    between atoms: C_32  and  C_47
   22  A    between atoms: C_32  and  C_52
   23  A    between atoms: C_33  and  C_54
   24  A    between atoms: N_39  and  C_41
   25  A    between atoms: C_40  and  N_53
   26  A    between atoms: C_48  and  C_52
                            x       y       z     vdW  Elec       q    Type
                         _______ _______ _______ _____ _____    ______ ____

>  <TORSDO>
F 26

$$$$
=
 OpenBabel10222416013D

 55 58  0  0  1  0  0  0  0  0999 V2000
  188.4810  179.0520  141.8320 S   0  0  0  0  0  0  0  0  0  0  0  0
  187.2500  177.9440  139.7990 N   0  0  0  0  0  0  0  0  0  0  0  0
  189.2020  177.5610  141.0730 C   0  0  1  0  0  3  0  0  0  0  0  0
  187.0730  178.7720  140.7760 C   0  0  0  0  0  0  0  0  0  0  0  0
  188.6010  177.4380  139.6660 C   0  0  2  0  0  3  0  0  0  0  0  0
  189.2910  178.2240  138.5700 C   0  0  0  0  0  0  0  0  0  0  0  0
  189.2330  179.4850  138.5380 O   0  0  0  0  0  0  0  0  0  0  0  0
  189.9660  177.4960  137.4700 C   0  0  0  0  0  0  0  0  0  0  0  0
  191.0580  176.9140  137.6880 O   0  0  0  0  0  0  0  0  0  0  0  0
  189.3790  177.4000  136.0910 C   0  0  1  0  0  3  0  0  0  0  0  0
  189.1920  175.9500  135.6680 C   0  0  0  0  0  1  0  0  0  0  0  0
  188.0800  178.1840  136.0010 C   0  0  0  0  0  2  0  0  0  0  0  0
  186.9950  177.3280  136.2010 O   0  0  0  0  0  1  0  0  0  0  0  0
  184.7600  179.3450  140.3120 N   0  0  0  0  0  0  0  0  0  0  0  0
  185.8090  179.3980  141.0460 N   0  0  0  0  0  0  0  0  0  0  0  0
  185.0160  179.4680  137.9930 O   0  0  0  0  0  1  0  0  0  0  0  0
  184.6520  178.6280  139.0430 C   0  0  2  0  0  3  0  0  0  0  0  0
  183.2250  178.0880  138.8280 C   0  0  2  0  0  3  0  0  0  0  0  0
  182.9130  177.7850  137.3400 C   0  0  2  0  0  3  0  0  0  0  0  0
  181.4920  177.3640  137.0530 C   0  0  0  0  0  2  0  0  0  0  0  0
  183.7970  176.7840  136.7260 N   0  0  0  0  0  0  0  0  0  0  0  0
  181.6000  176.6950  135.7020 C   0  0  0  0  0  2  0  0  0  0  0  0
  183.0690  176.3230  135.5460 C   0  0  0  0  0  2  0  0  0  0  0  0
  183.9380  175.6130  137.5930 C   0  0  0  0  0  2  0  0  0  0  0  0
  185.0140  174.7000  137.0360 C   0  0  0  0  0  2  0  0  0  0  0  0
  184.9400  173.3560  137.7190 C   0  0  0  0  0  2  0  0  0  0  0  0
  185.8120  171.7390  136.0720 N   0  0  0  0  0  0  0  0  0  0  0  0
  184.7360  172.2800  136.7090 C   0  0  0  0  0  0  0  0  0  0  0  0
  182.3310  172.3170  137.0770 O   0  0  0  0  0  1  0  0  0  0  0  0
  183.4470  171.7950  136.4340 C   0  0  0  0  0  0  0  0  0  0  0  0
  183.2910  170.7700  135.4970 C   0  0  0  0  0  3  0  0  0  0  0  0
  185.6740  170.7350  135.1630 C   0  0  0  0  0  3  0  0  0  0  0  0
  184.4080  170.2330  134.8560 C   0  0  0  0  0  3  0  0  0  0  0  0
  182.1600  178.9690  139.5040 C   0  0  1  0  0  3  0  0  0  0  0  0
  181.6210  180.0090  138.5320 C   0  0  0  0  0  1  0  0  0  0  0  0
  180.0360  179.0890  140.1390 C   0  0  0  0  0  1  0  0  0  0  0  0
  181.1080  178.2040  140.0230 O   0  0  0  0  0  0  0  0  0  0  0  0
  190.6570  177.5970  141.0900 N   0  0  0  0  0  2  0  0  0  0  0  0
  191.0590  177.3700  142.4120 N   0  0  0  0  0  2  0  0  0  0  0  0
  190.7910  175.9680  142.7110 C   0  0  2  0  0  3  0  0  0  0  0  0
  190.2100  175.7920  144.1140 C   0  0  1  0  0  3  0  0  0  0  0  0
  191.6730  175.5090  143.8550 C   0  0  0  0  0  2  0  0  0  0  0  0
  190.0860  177.0130  144.7890 O   0  0  0  0  0  0  0  0  0  0  0  0
  189.8360  176.6690  146.1220 C   0  0  1  0  0  3  0  0  0  0  0  0
  190.7120  177.4970  147.0550 C   0  0  0  0  0  2  0  0  0  0  0  0
  192.4850  177.1020  148.6060 O   0  0  0  0  0  1  0  0  0  0  0  0
  191.9930  175.3590  147.1900 O   0  0  0  0  0  0  0  0  0  0  0  0
  191.7690  176.6440  147.6710 C   0  0  0  0  0  0  0  0  0  0  0  0
  188.3660  176.8840  146.4480 C   0  0  0  0  0  2  0  0  0  0  0  0
  188.0730  178.2470  146.5270 O   0  0  0  0  0  0  0  0  0  0  0  0
  186.8200  178.3050  147.1390 C   0  0  0  0  0  2  0  0  0  0  0  0
  185.8760  179.1610  146.3060 C   0  0  0  0  0  2  0  0  0  0  0  0
  185.7490  177.9190  144.1490 C   0  0  0  0  0  1  0  0  0  0  0  0
  185.0010  178.2950  145.4140 C   0  0  0  0  0  3  0  0  0  0  0  0
  183.7460  179.0540  145.0500 C   0  0  0  0  0  1  0  0  0  0  0  0
  2  4  2  0  0  0  0
  3 38  1  6  0  0  0
  3  1  1  0  0  0  0
  4 15  1  0  0  0  0
  4  1  1  0  0  0  0
  5  6  1  6  0  0  0
  5  2  1  0  0  0  0
  5  3  1  0  0  0  0
  7  6  2  0  0  0  0
  8  9  2  0  0  0  0
  8  6  1  0  0  0  0
 10 11  1  1  0  0  0
 10  8  1  0  0  0  0
 12 10  1  0  0  0  0
 12 13  1  0  0  0  0
 14 15  2  0  0  0  0
 17 16  1  6  0  0  0
 17 14  1  0  0  0  0
 18 17  1  6  0  0  0
 18 34  1  0  0  0  0
 19 18  1  1  0  0  0
 20 19  1  0  0  0  0
 21 19  1  0  0  0  0
 21 24  1  0  0  0  0
 22 20  1  0  0  0  0
 23 22  1  0  0  0  0
 23 21  1  0  0  0  0
 25 24  1  0  0  0  0
 25 26  1  0  0  0  0
 27 28  1  0  0  0  0
 28 26  1  0  0  0  0
 30 28  2  0  0  0  0
 30 29  1  0  0  0  0
 31 30  1  0  0  0  0
 32 27  2  0  0  0  0
 33 32  1  0  0  0  0
 33 31  2  0  0  0  0
 34 35  1  6  0  0  0
 34 37  1  0  0  0  0
 37 36  1  0  0  0  0
 38 39  1  0  0  0  0
 40 39  1  1  0  0  0
 40 42  1  0  0  0  0
 40 41  1  0  0  0  0
 41 43  1  1  0  0  0
 42 41  1  0  0  0  0
 43 44  1  0  0  0  0
 44 49  1  1  0  0  0
 44 45  1  0  0  0  0
 45 48  1  0  0  0  0
 47 48  2  0  0  0  0
 48 46  1  0  0  0  0
 49 50  1  0  0  0  0
 50 51  1  0  0  0  0
 52 51  1  0  0  0  0
 53 54  1  0  0  0  0
 54 52  1  0  0  0  0
 55 54  1  0  0  0  0
M  END
>  <MODEL>
2

>  <REMARK>
 VINA RESULT:      -5.3      2.222      9.542
  Name = 
  26 active torsions:
  status: ('A' for Active; 'I' for Inactive)
    1  A    between atoms: C_4  and  C_54
    2  A    between atoms: C_5  and  O_26
    3  A    between atoms: C_5  and  C_44
    4  A    between atoms: C_7  and  C_20
    5  A    between atoms: C_8  and  C_15
    6  A    between atoms: C_8  and  C_50
    7  A    between atoms: O_9  and  C_32
    8  A    between atoms: O_9  and  C_49
    9  A    between atoms: C_11  and  O_45
   10  A    between atoms: C_11  and  C_54
   11  A    between atoms: C_12  and  C_18
   12  A    between atoms: C_12  and  C_41
   13  A    between atoms: N_14  and  C_33
   14  A    between atoms: C_15  and  C_20
   15  A    between atoms: C_16  and  C_44
   16  A    between atoms: C_18  and  C_19
   17  A    between atoms: C_24  and  N_25
   18  A    between atoms: N_25  and  N_31
   19  A    between atoms: O_26  and  C_47
   20  A    between atoms: N_31  and  C_36
   21  A    between atoms: C_32  and  C_47
   22  A    between atoms: C_32  and  C_52
   23  A    between atoms: C_33  and  C_54
   24  A    between atoms: N_39  and  C_41
   25  A    between atoms: C_40  and  N_53
   26  A    between atoms: C_48  and  C_52
                            x       y       z     vdW  Elec       q    Type
                         _______ _______ _______ _____ _____    ______ ____

>  <TORSDO>
F 26

$$$$
=
 OpenBabel10222416013D

 55 58  0  0  1  0  0  0  0  0999 V2000
  188.7680  178.8890  141.3450 S   0  0  0  0  0  0  0  0  0  0  0  0
  187.4040  177.6650  139.4710 N   0  0  0  0  0  0  0  0  0  0  0  0
  189.3480  177.2670  140.7520 C   0  0  1  0  0  3  0  0  0  0  0  0
  187.3170  178.6100  140.3490 C   0  0  0  0  0  0  0  0  0  0  0  0
  188.7050  177.0370  139.3770 C   0  0  2  0  0  3  0  0  0  0  0  0
  189.4300  177.6340  138.1880 C   0  0  0  0  0  0  0  0  0  0  0  0
  189.4520  178.8830  138.0000 O   0  0  0  0  0  0  0  0  0  0  0  0
  190.0450  176.7330  137.1840 C   0  0  0  0  0  0  0  0  0  0  0  0
  190.0350  177.0570  135.9710 O   0  0  0  0  0  0  0  0  0  0  0  0
  190.7120  175.4440  137.5650 C   0  0  1  0  0  3  0  0  0  0  0  0
  189.9110  174.2420  137.0850 C   0  0  0  0  0  1  0  0  0  0  0  0
  192.1440  175.4050  137.0550 C   0  0  0  0  0  2  0  0  0  0  0  0
  192.8490  174.3840  137.6950 O   0  0  0  0  0  1  0  0  0  0  0  0
  185.0490  179.3190  139.8540 N   0  0  0  0  0  0  0  0  0  0  0  0
  186.1140  179.3650  140.5630 N   0  0  0  0  0  0  0  0  0  0  0  0
  185.2440  179.1750  137.5300 O   0  0  0  0  0  1  0  0  0  0  0  0
  184.8550  178.4800  138.6730 C   0  0  2  0  0  3  0  0  0  0  0  0
  183.3900  178.0220  138.5490 C   0  0  2  0  0  3  0  0  0  0  0  0
  182.9990  177.6340  137.1000 C   0  0  2  0  0  3  0  0  0  0  0  0
  181.6060  177.0770  136.9350 C   0  0  0  0  0  2  0  0  0  0  0  0
  183.9250  176.6920  136.4530 N   0  0  0  0  0  0  0  0  0  0  0  0
  181.6760  176.3680  135.6030 C   0  0  0  0  0  2  0  0  0  0  0  0
  183.1590  176.1230  135.3480 C   0  0  0  0  0  2  0  0  0  0  0  0
  184.2350  175.5740  137.3440 C   0  0  0  0  0  2  0  0  0  0  0  0
  185.4060  174.7910  136.7820 C   0  0  0  0  0  2  0  0  0  0  0  0
  185.6070  173.5310  137.5890 C   0  0  0  0  0  2  0  0  0  0  0  0
  183.8160  171.8870  137.1650 N   0  0  0  0  0  0  0  0  0  0  0  0
  185.0550  172.3580  136.8520 C   0  0  0  0  0  0  0  0  0  0  0  0
  187.0490  172.2240  135.4640 O   0  0  0  0  0  1  0  0  0  0  0  0
  185.7880  171.7590  135.8150 C   0  0  0  0  0  0  0  0  0  0  0  0
  185.2340  170.6740  135.1290 C   0  0  0  0  0  3  0  0  0  0  0  0
  183.2620  170.8370  136.4990 C   0  0  0  0  0  3  0  0  0  0  0  0
  183.9630  170.2080  135.4680 C   0  0  0  0  0  3  0  0  0  0  0  0
  182.4110  179.0180  139.1940 C   0  0  1  0  0  3  0  0  0  0  0  0
  181.8890  180.0100  138.1650 C   0  0  0  0  0  1  0  0  0  0  0  0
  180.6860  179.3520  140.5510 C   0  0  0  0  0  1  0  0  0  0  0  0
  181.3410  178.3630  139.8170 O   0  0  0  0  0  0  0  0  0  0  0  0
  190.8010  177.1840  140.7430 N   0  0  0  0  0  2  0  0  0  0  0  0
  191.2260  177.2790  142.0740 N   0  0  0  0  0  2  0  0  0  0  0  0
  190.9500  175.9950  142.7090 C   0  0  2  0  0  3  0  0  0  0  0  0
  190.1360  176.1650  143.9920 C   0  0  1  0  0  3  0  0  0  0  0  0
  191.6300  175.9340  144.0630 C   0  0  0  0  0  2  0  0  0  0  0  0
  189.8610  177.5100  144.2670 O   0  0  0  0  0  0  0  0  0  0  0  0
  188.7940  177.4860  145.1710 C   0  0  1  0  0  3  0  0  0  0  0  0
  189.1260  178.3210  146.4030 C   0  0  0  0  0  2  0  0  0  0  0  0
  188.6890  177.6880  148.6640 O   0  0  0  0  0  1  0  0  0  0  0  0
  190.2030  176.3760  147.5380 O   0  0  0  0  0  0  0  0  0  0  0  0
  189.3130  177.4420  147.5930 C   0  0  0  0  0  0  0  0  0  0  0  0
  187.5330  178.0110  144.5020 C   0  0  0  0  0  2  0  0  0  0  0  0
  186.4340  177.8870  145.3560 O   0  0  0  0  0  0  0  0  0  0  0  0
  185.3250  177.9040  144.5100 C   0  0  0  0  0  2  0  0  0  0  0  0
  184.3010  178.9110  145.0180 C   0  0  0  0  0  2  0  0  0  0  0  0
  181.8870  178.7530  144.4180 C   0  0  0  0  0  1  0  0  0  0  0  0
  183.2580  179.2080  143.9530 C   0  0  0  0  0  3  0  0  0  0  0  0
  183.6210  178.4860  142.6760 C   0  0  0  0  0  1  0  0  0  0  0  0
  2  4  2  0  0  0  0
  3 38  1  6  0  0  0
  3  1  1  0  0  0  0
  4 15  1  0  0  0  0
  4  1  1  0  0  0  0
  5  6  1  6  0  0  0
  5  2  1  0  0  0  0
  5  3  1  0  0  0  0
  7  6  2  0  0  0  0
  8 10  1  0  0  0  0
  8  6  1  0  0  0  0
  9  8  2  0  0  0  0
 10 11  1  6  0  0  0
 12 10  1  0  0  0  0
 12 13  1  0  0  0  0
 14 15  2  0  0  0  0
 17 16  1  6  0  0  0
 17 14  1  0  0  0  0
 18 17  1  6  0  0  0
 18 34  1  0  0  0  0
 19 18  1  1  0  0  0
 20 19  1  0  0  0  0
 21 19  1  0  0  0  0
 21 24  1  0  0  0  0
 22 20  1  0  0  0  0
 23 22  1  0  0  0  0
 23 21  1  0  0  0  0
 25 24  1  0  0  0  0
 25 26  1  0  0  0  0
 28 27  1  0  0  0  0
 28 26  1  0  0  0  0
 29 30  1  0  0  0  0
 30 28  2  0  0  0  0
 31 33  2  0  0  0  0
 31 30  1  0  0  0  0
 32 27  2  0  0  0  0
 33 32  1  0  0  0  0
 34 35  1  6  0  0  0
 34 37  1  0  0  0  0
 37 36  1  0  0  0  0
 38 39  1  0  0  0  0
 40 39  1  6  0  0  0
 40 41  1  0  0  0  0
 40 42  1  0  0  0  0
 41 42  1  0  0  0  0
 41 43  1  6  0  0  0
 43 44  1  0  0  0  0
 44 49  1  6  0  0  0
 44 45  1  0  0  0  0
 45 48  1  0  0  0  0
 47 48  2  0  0  0  0
 48 46  1  0  0  0  0
 49 50  1  0  0  0  0
 51 52  1  0  0  0  0
 51 50  1  0  0  0  0
 54 53  1  0  0  0  0
 54 52  1  0  0  0  0
 55 54  1  0  0  0  0
M  END
>  <MODEL>
3

>  <REMARK>
 VINA RESULT:      -5.2      2.225      9.360
  Name = 
  26 active torsions:
  status: ('A' for Active; 'I' for Inactive)
    1  A    between atoms: C_4  and  C_54
    2  A    between atoms: C_5  and  O_26
    3  A    between atoms: C_5  and  C_44
    4  A    between atoms: C_7  and  C_20
    5  A    between atoms: C_8  and  C_15
    6  A    between atoms: C_8  and  C_50
    7  A    between atoms: O_9  and  C_32
    8  A    between atoms: O_9  and  C_49
    9  A    between atoms: C_11  and  O_45
   10  A    between atoms: C_11  and  C_54
   11  A    between atoms: C_12  and  C_18
   12  A    between atoms: C_12  and  C_41
   13  A    between atoms: N_14  and  C_33
   14  A    between atoms: C_15  and  C_20
   15  A    between atoms: C_16  and  C_44
   16  A    between atoms: C_18  and  C_19
   17  A    between atoms: C_24  and  N_25
   18  A    between atoms: N_25  and  N_31
   19  A    between atoms: O_26  and  C_47
   20  A    between atoms: N_31  and  C_36
   21  A    between atoms: C_32  and  C_47
   22  A    between atoms: C_32  and  C_52
   23  A    between atoms: C_33  and  C_54
   24  A    between atoms: N_39  and  C_41
   25  A    between atoms: C_40  and  N_53
   26  A    between atoms: C_48  and  C_52
                            x       y       z     vdW  Elec       q    Type
                         _______ _______ _______ _____ _____    ______ ____

>  <TORSDO>
F 26

$$$$
=
 OpenBabel10222416013D

 55 58  0  0  1  0  0  0  0  0999 V2000
  189.4660  178.2130  139.9980 S   0  0  0  0  0  0  0  0  0  0  0  0
  190.8670  176.6220  141.5390 N   0  0  0  0  0  0  0  0  0  0  0  0
  188.5880  177.1070  141.1480 C   0  0  1  0  0  3  0  0  0  0  0  0
  190.9500  177.3490  140.4740 C   0  0  0  0  0  0  0  0  0  0  0  0
  189.5960  176.6950  142.2300 C   0  0  2  0  0  3  0  0  0  0  0  0
  189.7510  177.6450  143.4000 C   0  0  0  0  0  0  0  0  0  0  0  0
  190.3810  178.7330  143.2750 O   0  0  0  0  0  0  0  0  0  0  0  0
  189.2350  177.2490  144.7320 C   0  0  0  0  0  0  0  0  0  0  0  0
  188.1650  176.5970  144.8140 O   0  0  0  0  0  0  0  0  0  0  0  0
  189.9630  177.5740  146.0040 C   0  0  1  0  0  3  0  0  0  0  0  0
  189.0110  177.6190  147.1910 C   0  0  0  0  0  1  0  0  0  0  0  0
  191.1060  176.5990  146.2370 C   0  0  0  0  0  2  0  0  0  0  0  0
  191.8430  176.9920  147.3560 O   0  0  0  0  0  1  0  0  0  0  0  0
  192.3200  176.9000  138.5220 N   0  0  0  0  0  0  0  0  0  0  0  0
  192.1410  177.4270  139.6750 N   0  0  0  0  0  0  0  0  0  0  0  0
  190.9460  175.0100  138.5610 O   0  0  0  0  0  1  0  0  0  0  0  0
  191.3330  176.1060  137.7930 C   0  0  2  0  0  3  0  0  0  0  0  0
  191.8870  175.6390  136.4330 C   0  0  2  0  0  3  0  0  0  0  0  0
  193.2690  176.2560  136.1000 C   0  0  2  0  0  3  0  0  0  0  0  0
  193.5660  176.4160  134.6290 C   0  0  0  0  0  2  0  0  0  0  0  0
  194.4100  175.5500  136.7000 N   0  0  0  0  0  0  0  0  0  0  0  0
  195.0690  176.5600  134.5960 C   0  0  0  0  0  2  0  0  0  0  0  0
  195.5640  175.9790  135.9150 C   0  0  0  0  0  2  0  0  0  0  0  0
  194.2960  174.1060  136.4910 C   0  0  0  0  0  2  0  0  0  0  0  0
  194.1330  173.4140  137.8310 C   0  0  0  0  0  2  0  0  0  0  0  0
  195.4660  173.3590  138.5380 C   0  0  0  0  0  2  0  0  0  0  0  0
  197.4480  173.0520  137.1000 N   0  0  0  0  0  0  0  0  0  0  0  0
  196.4110  172.4890  137.7810 C   0  0  0  0  0  0  0  0  0  0  0  0
  195.2200  170.4880  138.4890 O   0  0  0  0  0  1  0  0  0  0  0  0
  196.2600  171.0930  137.7930 C   0  0  0  0  0  0  0  0  0  0  0  0
  197.1750  170.3030  137.0910 C   0  0  0  0  0  3  0  0  0  0  0  0
  198.3500  172.2940  136.4200 C   0  0  0  0  0  3  0  0  0  0  0  0
  198.2290  170.9020  136.4000 C   0  0  0  0  0  3  0  0  0  0  0  0
  190.8610  175.8030  135.2980 C   0  0  1  0  0  3  0  0  0  0  0  0
  190.4560  174.4490  134.7330 C   0  0  0  0  0  1  0  0  0  0  0  0
  188.6410  175.7420  135.2890 C   0  0  0  0  0  1  0  0  0  0  0  0
  189.7250  176.5050  135.7240 O   0  0  0  0  0  0  0  0  0  0  0  0
  187.3790  177.7240  141.6740 N   0  0  0  0  0  2  0  0  0  0  0  0
  187.1090  178.8420  140.8770 N   0  0  0  0  0  2  0  0  0  0  0  0
  185.7160  178.7460  140.4550 C   0  0  2  0  0  3  0  0  0  0  0  0
  184.7610  179.2170  141.5530 C   0  0  1  0  0  3  0  0  0  0  0  0
  184.9850  177.7390  141.3210 C   0  0  0  0  0  2  0  0  0  0  0  0
  185.4440  179.6140  142.7090 O   0  0  0  0  0  0  0  0  0  0  0  0
  184.6460  179.1770  143.7720 C   0  0  1  0  0  3  0  0  0  0  0  0
  184.9880  179.9460  145.0420 C   0  0  0  0  0  2  0  0  0  0  0  0
  185.8010  179.4620  147.2360 O   0  0  0  0  0  1  0  0  0  0  0  0
  185.4850  177.6430  145.8670 O   0  0  0  0  0  0  0  0  0  0  0  0
  185.4340  179.0110  146.1140 C   0  0  0  0  0  0  0  0  0  0  0  0
  183.1750  179.3560  143.4260 C   0  0  0  0  0  2  0  0  0  0  0  0
  182.3640  178.8430  144.4410 O   0  0  0  0  0  0  0  0  0  0  0  0
  181.1670  178.5130  143.8040 C   0  0  0  0  0  2  0  0  0  0  0  0
  180.9820  179.3810  142.5670 C   0  0  0  0  0  2  0  0  0  0  0  0
  180.8120  179.4000  140.0800 C   0  0  0  0  0  1  0  0  0  0  0  0
  180.8340  178.5250  141.3200 C   0  0  0  0  0  3  0  0  0  0  0  0
  179.5470  177.7360  141.4010 C   0  0  0  0  0  1  0  0  0  0  0  0
  1  4  1  0  0  0  0
  1  3  1  0  0  0  0
  2  5  1  0  0  0  0
  3 38  1  1  0  0  0
  3  5  1  0  0  0  0
  4  2  2  0  0  0  0
  5  6  1  1  0  0  0
  6  8  1  0  0  0  0
  7  6  2  0  0  0  0
  8  9  2  0  0  0  0
  8 10  1  0  0  0  0
 10 12  1  0  0  0  0
 10 11  1  1  0  0  0
 12 13  1  0  0  0  0
 14 15  2  0  0  0  0
 15  4  1  0  0  0  0
 17 14  1  0  0  0  0
 17 16  1  1  0  0  0
 18 34  1  6  0  0  0
 18 17  1  0  0  0  0
 19 18  1  6  0  0  0
 19 21  1  0  0  0  0
 20 19  1  0  0  0  0
 22 20  1  0  0  0  0
 22 23  1  0  0  0  0
 23 21  1  0  0  0  0
 24 21  1  0  0  0  0
 24 25  1  0  0  0  0
 25 26  1  0  0  0  0
 27 28  1  0  0  0  0
 28 30  2  0  0  0  0
 28 26  1  0  0  0  0
 30 29  1  0  0  0  0
 31 30  1  0  0  0  0
 32 27  2  0  0  0  0
 33 32  1  0  0  0  0
 33 31  2  0  0  0  0
 34 35  1  1  0  0  0
 34 37  1  0  0  0  0
 36 37  1  0  0  0  0
 39 38  1  0  0  0  0
 40 39  1  1  0  0  0
 40 42  1  0  0  0  0
 40 41  1  0  0  0  0
 41 43  1  1  0  0  0
 42 41  1  0  0  0  0
 43 44  1  0  0  0  0
 44 49  1  6  0  0  0
 44 45  1  0  0  0  0
 45 48  1  0  0  0  0
 47 48  2  0  0  0  0
 48 46  1  0  0  0  0
 49 50  1  0  0  0  0
 51 50  1  0  0  0  0
 52 51  1  0  0  0  0
 53 54  1  0  0  0  0
 54 55  1  0  0  0  0
 54 52  1  0  0  0  0
M  END
>  <MODEL>
4

>  <REMARK>
 VINA RESULT:      -5.1      4.114      8.962
  Name = 
  26 active torsions:
  status: ('A' for Active; 'I' for Inactive)
    1  A    between atoms: C_4  and  C_54
    2  A    between atoms: C_5  and  O_26
    3  A    between atoms: C_5  and  C_44
    4  A    between atoms: C_7  and  C_20
    5  A    between atoms: C_8  and  C_15
    6  A    between atoms: C_8  and  C_50
    7  A    between atoms: O_9  and  C_32
    8  A    between atoms: O_9  and  C_49
    9  A    between atoms: C_11  and  O_45
   10  A    between atoms: C_11  and  C_54
   11  A    between atoms: C_12  and  C_18
   12  A    between atoms: C_12  and  C_41
   13  A    between atoms: N_14  and  C_33
   14  A    between atoms: C_15  and  C_20
   15  A    between atoms: C_16  and  C_44
   16  A    between atoms: C_18  and  C_19
   17  A    between atoms: C_24  and  N_25
   18  A    between atoms: N_25  and  N_31
   19  A    between atoms: O_26  and  C_47
   20  A    between atoms: N_31  and  C_36
   21  A    between atoms: C_32  and  C_47
   22  A    between atoms: C_32  and  C_52
   23  A    between atoms: C_33  and  C_54
   24  A    between atoms: N_39  and  C_41
   25  A    between atoms: C_40  and  N_53
   26  A    between atoms: C_48  and  C_52
                            x       y       z     vdW  Elec       q    Type
                         _______ _______ _______ _____ _____    ______ ____

>  <TORSDO>
F 26

$$$$
=
 OpenBabel10222416013D

 55 58  0  0  1  0  0  0  0  0999 V2000
  185.0780  176.9360  137.3140 S   0  0  0  0  0  0  0  0  0  0  0  0
  184.1240  176.9550  134.8730 N   0  0  0  0  0  0  0  0  0  0  0  0
  183.3220  177.3480  137.0600 C   0  0  1  0  0  3  0  0  0  0  0  0
  185.2310  176.9810  135.5390 C   0  0  0  0  0  0  0  0  0  0  0  0
  182.9300  176.8040  135.6790 C   0  0  2  0  0  3  0  0  0  0  0  0
  182.5070  175.3510  135.6250 C   0  0  0  0  0  0  0  0  0  0  0  0
  183.3340  174.4430  135.3270 O   0  0  0  0  0  0  0  0  0  0  0  0
  181.0820  175.0000  135.8350 C   0  0  0  0  0  0  0  0  0  0  0  0
  180.1860  175.8140  135.4980 O   0  0  0  0  0  0  0  0  0  0  0  0
  180.6570  173.6830  136.4160 C   0  0  1  0  0  3  0  0  0  0  0  0
  180.7460  173.6930  137.9350 C   0  0  0  0  0  1  0  0  0  0  0  0
  179.2640  173.3050  135.9360 C   0  0  0  0  0  2  0  0  0  0  0  0
  178.9310  172.0320  136.4030 O   0  0  0  0  0  1  0  0  0  0  0  0
  187.6560  177.0740  135.4940 N   0  0  0  0  0  0  0  0  0  0  0  0
  186.5170  177.0950  134.9090 N   0  0  0  0  0  0  0  0  0  0  0  0
  188.3420  178.1250  137.4640 O   0  0  0  0  0  1  0  0  0  0  0  0
  187.8650  176.9290  136.9330 C   0  0  2  0  0  3  0  0  0  0  0  0
  188.8420  175.7780  137.2420 C   0  0  2  0  0  3  0  0  0  0  0  0
  190.3200  176.1490  136.9620 C   0  0  2  0  0  3  0  0  0  0  0  0
  191.2170  174.9920  136.5960 C   0  0  0  0  0  2  0  0  0  0  0  0
  190.9790  176.8830  138.0530 N   0  0  0  0  0  0  0  0  0  0  0  0
  192.6020  175.5370  136.8550 C   0  0  0  0  0  2  0  0  0  0  0  0
  192.4080  176.7170  137.7990 C   0  0  0  0  0  2  0  0  0  0  0  0
  190.7220  176.2390  139.3420 C   0  0  0  0  0  2  0  0  0  0  0  0
  190.8930  177.2540  140.4560 C   0  0  0  0  0  2  0  0  0  0  0  0
  191.7280  176.6560  141.5620 C   0  0  0  0  0  2  0  0  0  0  0  0
  190.6950  178.4040  142.9640 N   0  0  0  0  0  0  0  0  0  0  0  0
  191.2700  177.1720  142.8840 C   0  0  0  0  0  0  0  0  0  0  0  0
  191.9650  175.1170  143.9860 O   0  0  0  0  0  1  0  0  0  0  0  0
  191.3940  176.3830  144.0390 C   0  0  0  0  0  0  0  0  0  0  0  0
  190.9360  176.8860  145.2590 C   0  0  0  0  0  3  0  0  0  0  0  0
  190.2370  178.9020  144.1460 C   0  0  0  0  0  3  0  0  0  0  0  0
  190.3520  178.1520  145.3180 C   0  0  0  0  0  3  0  0  0  0  0  0
  188.4130  174.4570  136.5810 C   0  0  1  0  0  3  0  0  0  0  0  0
  189.3270  173.3170  137.0050 C   0  0  0  0  0  1  0  0  0  0  0  0
  186.6720  173.2950  135.8410 C   0  0  0  0  0  1  0  0  0  0  0  0
  187.0800  174.1400  136.8730 O   0  0  0  0  0  0  0  0  0  0  0  0
  182.4890  176.8520  138.1460 N   0  0  0  0  0  2  0  0  0  0  0  0
  183.1500  177.1550  139.3420 N   0  0  0  0  0  2  0  0  0  0  0  0
  182.4660  178.2970  139.9380 C   0  0  2  0  0  3  0  0  0  0  0  0
  183.0110  178.6170  141.3290 C   0  0  1  0  0  3  0  0  0  0  0  0
  181.7140  177.8550  141.1780 C   0  0  0  0  0  2  0  0  0  0  0  0
  184.0270  177.7330  141.7130 O   0  0  0  0  0  0  0  0  0  0  0  0
  184.9320  178.5120  142.4430 C   0  0  1  0  0  3  0  0  0  0  0  0
  185.8670  179.2590  141.5000 C   0  0  0  0  0  2  0  0  0  0  0  0
  187.3910  177.5140  142.0790 O   0  0  0  0  0  1  0  0  0  0  0  0
  188.1670  179.0480  140.5530 O   0  0  0  0  0  0  0  0  0  0  0  0
  187.1730  178.5490  141.3880 C   0  0  0  0  0  0  0  0  0  0  0  0
  184.1780  179.4930  143.3270 C   0  0  0  0  0  2  0  0  0  0  0  0
  184.8660  179.7070  144.5240 O   0  0  0  0  0  0  0  0  0  0  0  0
  184.5240  178.6200  145.3280 C   0  0  0  0  0  2  0  0  0  0  0  0
  185.2780  178.6950  146.6490 C   0  0  0  0  0  2  0  0  0  0  0  0
  187.5580  178.1840  147.5170 C   0  0  0  0  0  1  0  0  0  0  0  0
  186.3920  177.6630  146.6980 C   0  0  0  0  0  3  0  0  0  0  0  0
  186.8600  177.3600  145.2930 C   0  0  0  0  0  1  0  0  0  0  0  0
  2  4  2  0  0  0  0
  2  5  1  0  0  0  0
  3  1  1  0  0  0  0
  3 38  1  1  0  0  0
  4  1  1  0  0  0  0
  5  6  1  1  0  0  0
  5  3  1  0  0  0  0
  6  8  1  0  0  0  0
  7  6  2  0  0  0  0
  8 10  1  0  0  0  0
  9  8  2  0  0  0  0
 10 11  1  1  0  0  0
 12 13  1  0  0  0  0
 12 10  1  0  0  0  0
 14 17  1  0  0  0  0
 15 14  2  0  0  0  0
 15  4  1  0  0  0  0
 17 18  1  0  0  0  0
 17 16  1  6  0  0  0
 18 34  1  6  0  0  0
 19 18  1  1  0  0  0
 19 21  1  0  0  0  0
 20 22  1  0  0  0  0
 20 19  1  0  0  0  0
 21 24  1  0  0  0  0
 22 23  1  0  0  0  0
 23 21  1  0  0  0  0
 24 25  1  0  0  0  0
 25 26  1  0  0  0  0
 26 28  1  0  0  0  0
 27 32  1  0  0  0  0
 28 27  2  0  0  0  0
 28 30  1  0  0  0  0
 29 30  1  0  0  0  0
 30 31  2  0  0  0  0
 31 33  1  0  0  0  0
 32 33  2  0  0  0  0
 34 37  1  0  0  0  0
 34 35  1  1  0  0  0
 36 37  1  0  0  0  0
 38 39  1  0  0  0  0
 40 39  1  6  0  0  0
 40 42  1  0  0  0  0
 40 41  1  0  0  0  0
 41 43  1  6  0  0  0
 42 41  1  0  0  0  0
 43 44  1  0  0  0  0
 44 45  1  6  0  0  0
 44 49  1  0  0  0  0
 47 48  2  0  0  0  0
 48 45  1  0  0  0  0
 48 46  1  0  0  0  0
 49 50  1  0  0  0  0
 50 51  1  0  0  0  0
 51 52  1  0  0  0  0
 52 54  1  0  0  0  0
 54 53  1  0  0  0  0
 55 54  1  0  0  0  0
M  END
>  <MODEL>
5

>  <REMARK>
 VINA RESULT:      -5.0      2.513      8.024
  Name = 
  26 active torsions:
  status: ('A' for Active; 'I' for Inactive)
    1  A    between atoms: C_4  and  C_54
    2  A    between atoms: C_5  and  O_26
    3  A    between atoms: C_5  and  C_44
    4  A    between atoms: C_7  and  C_20
    5  A    between atoms: C_8  and  C_15
    6  A    between atoms: C_8  and  C_50
    7  A    between atoms: O_9  and  C_32
    8  A    between atoms: O_9  and  C_49
    9  A    between atoms: C_11  and  O_45
   10  A    between atoms: C_11  and  C_54
   11  A    between atoms: C_12  and  C_18
   12  A    between atoms: C_12  and  C_41
   13  A    between atoms: N_14  and  C_33
   14  A    between atoms: C_15  and  C_20
   15  A    between atoms: C_16  and  C_44
   16  A    between atoms: C_18  and  C_19
   17  A    between atoms: C_24  and  N_25
   18  A    between atoms: N_25  and  N_31
   19  A    between atoms: O_26  and  C_47
   20  A    between atoms: N_31  and  C_36
   21  A    between atoms: C_32  and  C_47
   22  A    between atoms: C_32  and  C_52
   23  A    between atoms: C_33  and  C_54
   24  A    between atoms: N_39  and  C_41
   25  A    between atoms: C_40  and  N_53
   26  A    between atoms: C_48  and  C_52
                            x       y       z     vdW  Elec       q    Type
                         _______ _______ _______ _____ _____    ______ ____

>  <TORSDO>
F 26

$$$$
=
 OpenBabel10222416013D

 55 58  0  0  1  0  0  0  0  0999 V2000
  188.8890  177.9100  141.3590 S   0  0  0  0  0  0  0  0  0  0  0  0
  190.8430  176.8530  142.7500 N   0  0  0  0  0  0  0  0  0  0  0  0
  188.4870  176.7040  142.6640 C   0  0  1  0  0  3  0  0  0  0  0  0
  190.5960  177.4940  141.6560 C   0  0  0  0  0  0  0  0  0  0  0  0
  189.6950  176.6480  143.6100 C   0  0  2  0  0  3  0  0  0  0  0  0
  189.7380  177.6910  144.7070 C   0  0  0  0  0  0  0  0  0  0  0  0
  190.2510  178.8280  144.5050 O   0  0  0  0  0  0  0  0  0  0  0  0
  189.2520  177.3400  146.0630 C   0  0  0  0  0  0  0  0  0  0  0  0
  188.0930  176.8790  146.2080 O   0  0  0  0  0  0  0  0  0  0  0  0
  190.1110  177.4880  147.2860 C   0  0  1  0  0  3  0  0  0  0  0  0
  189.2870  177.9130  148.4930 C   0  0  0  0  0  1  0  0  0  0  0  0
  190.8890  176.2100  147.5580 C   0  0  0  0  0  2  0  0  0  0  0  0
  192.2560  176.4890  147.6090 O   0  0  0  0  0  1  0  0  0  0  0  0
  191.6150  177.5020  139.4530 N   0  0  0  0  0  0  0  0  0  0  0  0
  191.6140  177.8150  140.6950 N   0  0  0  0  0  0  0  0  0  0  0  0
  190.6930  175.3910  139.0650 O   0  0  0  0  0  1  0  0  0  0  0  0
  190.5670  176.7470  138.7710 C   0  0  2  0  0  3  0  0  0  0  0  0
  190.6190  176.9720  137.2480 C   0  0  2  0  0  3  0  0  0  0  0  0
  189.3070  177.5730  136.6820 C   0  0  2  0  0  3  0  0  0  0  0  0
  188.5100  178.4100  137.6530 C   0  0  0  0  0  2  0  0  0  0  0  0
  188.3860  176.5850  136.1010 N   0  0  0  0  0  0  0  0  0  0  0  0
  187.1350  178.4450  137.0270 C   0  0  0  0  0  2  0  0  0  0  0  0
  187.0920  177.2600  136.0710 C   0  0  0  0  0  2  0  0  0  0  0  0
  188.2210  175.4390  136.9970 C   0  0  0  0  0  2  0  0  0  0  0  0
  187.1150  174.5440  136.4730 C   0  0  0  0  0  2  0  0  0  0  0  0
  187.4520  174.0900  135.0730 C   0  0  0  0  0  2  0  0  0  0  0  0
  186.5870  171.7840  135.2320 N   0  0  0  0  0  0  0  0  0  0  0  0
  187.6530  172.6130  135.0500 C   0  0  0  0  0  0  0  0  0  0  0  0
  190.0290  172.8900  134.6060 O   0  0  0  0  0  1  0  0  0  0  0  0
  188.9250  172.0700  134.8080 C   0  0  0  0  0  0  0  0  0  0  0  0
  189.0780  170.6820  134.7720 C   0  0  0  0  0  3  0  0  0  0  0  0
  186.7210  170.4300  135.1900 C   0  0  0  0  0  3  0  0  0  0  0  0
  187.9720  169.8520  134.9620 C   0  0  0  0  0  3  0  0  0  0  0  0
  191.0870  175.7180  136.4890 C   0  0  1  0  0  3  0  0  0  0  0  0
  191.3840  176.0440  135.0330 C   0  0  0  0  0  1  0  0  0  0  0  0
  193.2720  175.4200  136.2310 C   0  0  0  0  0  1  0  0  0  0  0  0
  192.2110  175.1370  137.0910 O   0  0  0  0  0  0  0  0  0  0  0  0
  187.2330  177.0280  143.3290 N   0  0  0  0  0  2  0  0  0  0  0  0
  186.5020  177.8410  142.4560 N   0  0  0  0  0  2  0  0  0  0  0  0
  185.3500  178.3440  143.1950 C   0  0  2  0  0  3  0  0  0  0  0  0
  184.1200  178.4800  142.2970 C   0  0  1  0  0  3  0  0  0  0  0  0
  184.9420  179.6990  142.6510 C   0  0  0  0  0  2  0  0  0  0  0  0
  184.3900  178.1060  140.9750 O   0  0  0  0  0  0  0  0  0  0  0  0
  183.1670  177.6550  140.4670 C   0  0  1  0  0  3  0  0  0  0  0  0
  182.0150  178.4290  141.0970 C   0  0  0  0  0  2  0  0  0  0  0  0
  179.9130  179.1160  140.1920 O   0  0  0  0  0  1  0  0  0  0  0  0
  180.4690  176.9110  139.8570 O   0  0  0  0  0  0  0  0  0  0  0  0
  180.7490  178.1810  140.3490 C   0  0  0  0  0  0  0  0  0  0  0  0
  183.1420  177.8110  138.9540 C   0  0  0  0  0  2  0  0  0  0  0  0
  184.2550  177.1940  138.3770 O   0  0  0  0  0  0  0  0  0  0  0  0
  183.7400  176.4610  137.3070 C   0  0  0  0  0  2  0  0  0  0  0  0
  183.1820  175.1360  137.8080 C   0  0  0  0  0  2  0  0  0  0  0  0
  183.8080  172.8440  137.0540 C   0  0  0  0  0  1  0  0  0  0  0  0
  183.0870  174.1240  136.6780 C   0  0  0  0  0  3  0  0  0  0  0  0
  183.7120  174.7040  135.4300 C   0  0  0  0  0  1  0  0  0  0  0  0
  1  4  1  0  0  0  0
  1  3  1  0  0  0  0
  2  5  1  0  0  0  0
  3 38  1  1  0  0  0
  3  5  1  0  0  0  0
  4  2  2  0  0  0  0
  5  6  1  1  0  0  0
  6  8  1  0  0  0  0
  7  6  2  0  0  0  0
  8  9  2  0  0  0  0
  8 10  1  0  0  0  0
 10 12  1  0  0  0  0
 10 11  1  1  0  0  0
 12 13  1  0  0  0  0
 14 15  2  0  0  0  0
 15  4  1  0  0  0  0
 17 16  1  6  0  0  0
 17 14  1  0  0  0  0
 18 34  1  6  0  0  0
 18 17  1  0  0  0  0
 19 18  1  1  0  0  0
 19 20  1  0  0  0  0
 21 19  1  0  0  0  0
 21 24  1  0  0  0  0
 22 20  1  0  0  0  0
 23 21  1  0  0  0  0
 23 22  1  0  0  0  0
 25 24  1  0  0  0  0
 26 25  1  0  0  0  0
 28 26  1  0  0  0  0
 28 27  2  0  0  0  0
 29 30  1  0  0  0  0
 30 28  1  0  0  0  0
 31 30  2  0  0  0  0
 31 33  1  0  0  0  0
 32 27  1  0  0  0  0
 33 32  2  0  0  0  0
 34 35  1  6  0  0  0
 34 37  1  0  0  0  0
 36 37  1  0  0  0  0
 39 38  1  0  0  0  0
 40 39  1  6  0  0  0
 41 43  1  6  0  0  0
 41 42  1  0  0  0  0
 41 40  1  0  0  0  0
 42 40  1  0  0  0  0
 44 49  1  6  0  0  0
 44 43  1  0  0  0  0
 44 45  1  0  0  0  0
 46 48  1  0  0  0  0
 47 48  2  0  0  0  0
 48 45  1  0  0  0  0
 50 49  1  0  0  0  0
 51 52  1  0  0  0  0
 51 50  1  0  0  0  0
 54 53  1  0  0  0  0
 54 52  1  0  0  0  0
 55 54  1  0  0  0  0
M  END
>  <MODEL>
6

>  <REMARK>
 VINA RESULT:      -4.8      2.833      7.829
  Name = 
  26 active torsions:
  status: ('A' for Active; 'I' for Inactive)
    1  A    between atoms: C_4  and  C_54
    2  A    between atoms: C_5  and  O_26
    3  A    between atoms: C_5  and  C_44
    4  A    between atoms: C_7  and  C_20
    5  A    between atoms: C_8  and  C_15
    6  A    between atoms: C_8  and  C_50
    7  A    between atoms: O_9  and  C_32
    8  A    between atoms: O_9  and  C_49
    9  A    between atoms: C_11  and  O_45
   10  A    between atoms: C_11  and  C_54
   11  A    between atoms: C_12  and  C_18
   12  A    between atoms: C_12  and  C_41
   13  A    between atoms: N_14  and  C_33
   14  A    between atoms: C_15  and  C_20
   15  A    between atoms: C_16  and  C_44
   16  A    between atoms: C_18  and  C_19
   17  A    between atoms: C_24  and  N_25
   18  A    between atoms: N_25  and  N_31
   19  A    between atoms: O_26  and  C_47
   20  A    between atoms: N_31  and  C_36
   21  A    between atoms: C_32  and  C_47
   22  A    between atoms: C_32  and  C_52
   23  A    between atoms: C_33  and  C_54
   24  A    between atoms: N_39  and  C_41
   25  A    between atoms: C_40  and  N_53
   26  A    between atoms: C_48  and  C_52
                            x       y       z     vdW  Elec       q    Type
                         _______ _______ _______ _____ _____    ______ ____

>  <TORSDO>
F 26

$$$$
=
 OpenBabel10222416013D

 55 58  0  0  1  0  0  0  0  0999 V2000
  188.9770  177.6730  141.5430 S   0  0  0  0  0  0  0  0  0  0  0  0
  191.0520  176.7060  142.8200 N   0  0  0  0  0  0  0  0  0  0  0  0
  188.7090  176.4100  142.8280 C   0  0  1  0  0  3  0  0  0  0  0  0
  190.7190  177.3590  141.7560 C   0  0  0  0  0  0  0  0  0  0  0  0
  189.9580  176.4050  143.7200 C   0  0  2  0  0  3  0  0  0  0  0  0
  189.9830  177.4190  144.8450 C   0  0  0  0  0  0  0  0  0  0  0  0
  190.3220  178.6180  144.6330 O   0  0  0  0  0  0  0  0  0  0  0  0
  189.6940  176.9760  146.2300 C   0  0  0  0  0  0  0  0  0  0  0  0
  190.4740  176.1750  146.8010 O   0  0  0  0  0  0  0  0  0  0  0  0
  188.5050  177.4730  147.0000 C   0  0  1  0  0  3  0  0  0  0  0  0
  187.9440  176.3920  147.9130 C   0  0  0  0  0  1  0  0  0  0  0  0
  188.8500  178.7370  147.7710 C   0  0  0  0  0  2  0  0  0  0  0  0
  189.6700  178.4210  148.8560 O   0  0  0  0  0  1  0  0  0  0  0  0
  191.5760  177.5980  139.4980 N   0  0  0  0  0  0  0  0  0  0  0  0
  191.6720  177.7700  140.7640 N   0  0  0  0  0  0  0  0  0  0  0  0
  190.4400  175.5870  139.1490 O   0  0  0  0  0  1  0  0  0  0  0  0
  190.4640  176.9400  138.8170 C   0  0  2  0  0  3  0  0  0  0  0  0
  190.5630  177.1150  137.2890 C   0  0  2  0  0  3  0  0  0  0  0  0
  189.2760  177.7140  136.6660 C   0  0  2  0  0  3  0  0  0  0  0  0
  188.4410  178.5580  137.5980 C   0  0  0  0  0  2  0  0  0  0  0  0
  188.3790  176.7220  136.0550 N   0  0  0  0  0  0  0  0  0  0  0  0
  187.0930  178.5890  136.9160 C   0  0  0  0  0  2  0  0  0  0  0  0
  187.0870  177.3980  135.9660 C   0  0  0  0  0  2  0  0  0  0  0  0
  188.1760  175.5830  136.9500 C   0  0  0  0  0  2  0  0  0  0  0  0
  187.3250  174.5390  136.2540 C   0  0  0  0  0  2  0  0  0  0  0  0
  186.4340  173.8560  137.2630 C   0  0  0  0  0  2  0  0  0  0  0  0
  186.3490  171.8030  135.8960 N   0  0  0  0  0  0  0  0  0  0  0  0
  185.6780  172.7490  136.6110 C   0  0  0  0  0  0  0  0  0  0  0  0
  183.5740  173.5960  137.4910 O   0  0  0  0  0  1  0  0  0  0  0  0
  184.2840  172.6540  136.7580 C   0  0  0  0  0  0  0  0  0  0  0  0
  183.6070  171.5930  136.1510 C   0  0  0  0  0  3  0  0  0  0  0  0
  185.7020  170.7590  135.3080 C   0  0  0  0  0  3  0  0  0  0  0  0
  184.3160  170.6360  135.4230 C   0  0  0  0  0  3  0  0  0  0  0  0
  191.0360  175.8320  136.5850 C   0  0  1  0  0  3  0  0  0  0  0  0
  191.2870  176.0870  135.1060 C   0  0  0  0  0  1  0  0  0  0  0  0
  192.7980  174.5380  136.1930 C   0  0  0  0  0  1  0  0  0  0  0  0
  192.1880  175.3060  137.1850 O   0  0  0  0  0  0  0  0  0  0  0  0
  187.4680  176.6340  143.5540 N   0  0  0  0  0  2  0  0  0  0  0  0
  186.7930  177.6740  142.9030 N   0  0  0  0  0  2  0  0  0  0  0  0
  185.6850  178.0760  143.7630 C   0  0  2  0  0  3  0  0  0  0  0  0
  184.3990  178.2860  142.9640 C   0  0  1  0  0  3  0  0  0  0  0  0
  185.2300  179.4750  143.3940 C   0  0  0  0  0  2  0  0  0  0  0  0
  184.5880  178.0600  141.5950 O   0  0  0  0  0  0  0  0  0  0  0  0
  183.3130  177.7760  141.0940 C   0  0  1  0  0  3  0  0  0  0  0  0
  182.5000  179.0590  140.9570 C   0  0  0  0  0  2  0  0  0  0  0  0
  180.3200  178.1410  141.2900 O   0  0  0  0  0  0  0  0  0  0  0  0
  180.9710  179.7390  142.8090 O   0  0  0  0  0  1  0  0  0  0  0  0
  181.2100  178.9400  141.6960 C   0  0  0  0  0  0  0  0  0  0  0  0
  183.4260  177.0770  139.7480 C   0  0  0  0  0  2  0  0  0  0  0  0
  182.5540  177.6500  138.8190 O   0  0  0  0  0  0  0  0  0  0  0  0
  181.8060  176.5790  138.3280 C   0  0  0  0  0  2  0  0  0  0  0  0
  181.0960  176.9890  137.0450 C   0  0  0  0  0  2  0  0  0  0  0  0
  180.6890  179.3540  136.3710 C   0  0  0  0  0  1  0  0  0  0  0  0
  181.7190  178.2440  136.4560 C   0  0  0  0  0  3  0  0  0  0  0  0
  182.2480  177.9410  135.0730 C   0  0  0  0  0  1  0  0  0  0  0  0
  1  4  1  0  0  0  0
  1  3  1  0  0  0  0
  2  5  1  0  0  0  0
  3 38  1  1  0  0  0
  3  5  1  0  0  0  0
  4  2  2  0  0  0  0
  5  6  1  1  0  0  0
  6  8  1  0  0  0  0
  7  6  2  0  0  0  0
  8  9  2  0  0  0  0
  8 10  1  0  0  0  0
 10 12  1  0  0  0  0
 10 11  1  1  0  0  0
 12 13  1  0  0  0  0
 14 15  2  0  0  0  0
 15  4  1  0  0  0  0
 17 16  1  6  0  0  0
 17 14  1  0  0  0  0
 18 34  1  6  0  0  0
 18 17  1  0  0  0  0
 19 18  1  1  0  0  0
 19 20  1  0  0  0  0
 21 19  1  0  0  0  0
 21 24  1  0  0  0  0
 22 20  1  0  0  0  0
 23 21  1  0  0  0  0
 23 22  1  0  0  0  0
 25 24  1  0  0  0  0
 25 26  1  0  0  0  0
 27 28  1  0  0  0  0
 28 30  2  0  0  0  0
 28 26  1  0  0  0  0
 30 29  1  0  0  0  0
 31 30  1  0  0  0  0
 32 33  1  0  0  0  0
 32 27  2  0  0  0  0
 33 31  2  0  0  0  0
 34 35  1  6  0  0  0
 34 37  1  0  0  0  0
 36 37  1  0  0  0  0
 39 38  1  0  0  0  0
 40 39  1  6  0  0  0
 41 43  1  6  0  0  0
 41 42  1  0  0  0  0
 41 40  1  0  0  0  0
 42 40  1  0  0  0  0
 44 49  1  6  0  0  0
 44 43  1  0  0  0  0
 45 44  1  0  0  0  0
 45 48  1  0  0  0  0
 46 48  2  0  0  0  0
 48 47  1  0  0  0  0
 50 49  1  0  0  0  0
 51 50  1  0  0  0  0
 52 51  1  0  0  0  0
 53 54  1  0  0  0  0
 54 52  1  0  0  0  0
 55 54  1  0  0  0  0
M  END
>  <MODEL>
7

>  <REMARK>
 VINA RESULT:      -4.6      2.269      7.808
  Name = 
  26 active torsions:
  status: ('A' for Active; 'I' for Inactive)
    1  A    between atoms: C_4  and  C_54
    2  A    between atoms: C_5  and  O_26
    3  A    between atoms: C_5  and  C_44
    4  A    between atoms: C_7  and  C_20
    5  A    between atoms: C_8  and  C_15
    6  A    between atoms: C_8  and  C_50
    7  A    between atoms: O_9  and  C_32
    8  A    between atoms: O_9  and  C_49
    9  A    between atoms: C_11  and  O_45
   10  A    between atoms: C_11  and  C_54
   11  A    between atoms: C_12  and  C_18
   12  A    between atoms: C_12  and  C_41
   13  A    between atoms: N_14  and  C_33
   14  A    between atoms: C_15  and  C_20
   15  A    between atoms: C_16  and  C_44
   16  A    between atoms: C_18  and  C_19
   17  A    between atoms: C_24  and  N_25
   18  A    between atoms: N_25  and  N_31
   19  A    between atoms: O_26  and  C_47
   20  A    between atoms: N_31  and  C_36
   21  A    between atoms: C_32  and  C_47
   22  A    between atoms: C_32  and  C_52
   23  A    between atoms: C_33  and  C_54
   24  A    between atoms: N_39  and  C_41
   25  A    between atoms: C_40  and  N_53
   26  A    between atoms: C_48  and  C_52
                            x       y       z     vdW  Elec       q    Type
                         _______ _______ _______ _____ _____    ______ ____

>  <TORSDO>
F 26

$$$$
=
 OpenBabel10222416013D

 55 58  0  0  1  0  0  0  0  0999 V2000
  185.7510  179.2850  141.3400 S   0  0  0  0  0  0  0  0  0  0  0  0
  183.5650  177.9010  141.7550 N   0  0  0  0  0  0  0  0  0  0  0  0
  185.1710  178.1470  140.0410 C   0  0  1  0  0  3  0  0  0  0  0  0
  184.4720  178.5880  142.3660 C   0  0  0  0  0  0  0  0  0  0  0  0
  183.6850  177.8790  140.3120 C   0  0  2  0  0  3  0  0  0  0  0  0
  182.7060  178.8870  139.7440 C   0  0  0  0  0  0  0  0  0  0  0  0
  182.7650  180.1050  140.0700 O   0  0  0  0  0  0  0  0  0  0  0  0
  181.6100  178.4180  138.8630 C   0  0  0  0  0  0  0  0  0  0  0  0
  181.8080  178.3110  137.6270 O   0  0  0  0  0  0  0  0  0  0  0  0
  180.2600  178.0340  139.3970 C   0  0  1  0  0  3  0  0  0  0  0  0
  180.3460  177.5800  140.8470 C   0  0  0  0  0  1  0  0  0  0  0  0
  179.2660  179.1700  139.2210 C   0  0  0  0  0  2  0  0  0  0  0  0
  179.2210  179.9450  140.3820 O   0  0  0  0  0  1  0  0  0  0  0  0
  185.4270  178.3580  144.5860 N   0  0  0  0  0  0  0  0  0  0  0  0
  184.4990  178.7480  143.7930 N   0  0  0  0  0  0  0  0  0  0  0  0
  186.4520  176.2890  144.2340 O   0  0  0  0  0  1  0  0  0  0  0  0
  186.6490  177.6670  144.1820 C   0  0  2  0  0  3  0  0  0  0  0  0
  187.8390  178.0730  145.0710 C   0  0  2  0  0  3  0  0  0  0  0  0
  189.0480  177.1120  144.9360 C   0  0  2  0  0  3  0  0  0  0  0  0
  190.3220  177.5830  145.5960 C   0  0  0  0  0  2  0  0  0  0  0  0
  189.3840  176.7490  143.5510 N   0  0  0  0  0  0  0  0  0  0  0  0
  191.3860  176.7490  144.9200 C   0  0  0  0  0  2  0  0  0  0  0  0
  190.7580  176.2610  143.6200 C   0  0  0  0  0  2  0  0  0  0  0  0
  189.4220  177.9370  142.6970 C   0  0  0  0  0  2  0  0  0  0  0  0
  189.1320  177.5370  141.2630 C   0  0  0  0  0  2  0  0  0  0  0  0
  190.3140  177.8860  140.3910 C   0  0  0  0  0  2  0  0  0  0  0  0
  190.5450  176.0290  138.7820 N   0  0  0  0  0  0  0  0  0  0  0  0
  190.1340  177.3040  139.0300 C   0  0  0  0  0  0  0  0  0  0  0  0
  189.0730  179.3460  138.2390 O   0  0  0  0  0  1  0  0  0  0  0  0
  189.5140  178.0480  138.0130 C   0  0  0  0  0  0  0  0  0  0  0  0
  189.3420  177.4670  136.7540 C   0  0  0  0  0  3  0  0  0  0  0  0
  190.3750  175.4480  137.5630 C   0  0  0  0  0  3  0  0  0  0  0  0
  189.7710  176.1590  136.5230 C   0  0  0  0  0  3  0  0  0  0  0  0
  187.4200  178.3170  146.5310 C   0  0  1  0  0  3  0  0  0  0  0  0
  186.0210  178.9120  146.6010 C   0  0  0  0  0  1  0  0  0  0  0  0
  187.9540  177.5400  148.5410 C   0  0  0  0  0  1  0  0  0  0  0  0
  187.4810  177.1410  147.2910 O   0  0  0  0  0  0  0  0  0  0  0  0
  185.4430  178.6660  138.7090 N   0  0  0  0  0  2  0  0  0  0  0  0
  185.9350  177.6010  137.9450 N   0  0  0  0  0  2  0  0  0  0  0  0
  185.1190  177.5210  136.7380 C   0  0  2  0  0  3  0  0  0  0  0  0
  185.2970  176.1800  136.0260 C   0  0  1  0  0  3  0  0  0  0  0  0
  186.0140  177.4120  135.5190 C   0  0  0  0  0  2  0  0  0  0  0  0
  186.2110  175.3500  136.6870 O   0  0  0  0  0  0  0  0  0  0  0  0
  185.9900  174.0730  136.1600 C   0  0  1  0  0  3  0  0  0  0  0  0
  187.0880  173.7150  135.1650 C   0  0  0  0  0  2  0  0  0  0  0  0
  187.2330  171.3310  135.1280 O   0  0  0  0  0  0  0  0  0  0  0  0
  188.8420  172.4070  136.3660 O   0  0  0  0  0  1  0  0  0  0  0  0
  187.7260  172.4190  135.5360 C   0  0  0  0  0  0  0  0  0  0  0  0
  185.9400  173.0480  137.2820 C   0  0  0  0  0  2  0  0  0  0  0  0
  184.6230  172.6540  137.5320 O   0  0  0  0  0  0  0  0  0  0  0  0
  184.0860  172.3950  136.2700 C   0  0  0  0  0  2  0  0  0  0  0  0
  182.5660  172.4000  136.3430 C   0  0  0  0  0  2  0  0  0  0  0  0
  180.6780  173.2590  137.7260 C   0  0  0  0  0  1  0  0  0  0  0  0
  182.0670  173.5570  137.1930 C   0  0  0  0  0  3  0  0  0  0  0  0
  182.0240  174.8150  136.3560 C   0  0  0  0  0  1  0  0  0  0  0  0
  1  4  1  0  0  0  0
  2  4  2  0  0  0  0
  3 38  1  6  0  0  0
  3  5  1  0  0  0  0
  3  1  1  0  0  0  0
  4 15  1  0  0  0  0
  5  6  1  6  0  0  0
  5  2  1  0  0  0  0
  6  7  2  0  0  0  0
  8 10  1  0  0  0  0
  8  6  1  0  0  0  0
  9  8  2  0  0  0  0
 10 11  1  1  0  0  0
 12 10  1  0  0  0  0
 12 13  1  0  0  0  0
 15 14  2  0  0  0  0
 17 16  1  1  0  0  0
 17 14  1  0  0  0  0
 18 17  1  6  0  0  0
 18 34  1  0  0  0  0
 19 18  1  6  0  0  0
 19 20  1  0  0  0  0
 21 23  1  0  0  0  0
 21 19  1  0  0  0  0
 22 20  1  0  0  0  0
 23 22  1  0  0  0  0
 24 21  1  0  0  0  0
 25 24  1  0  0  0  0
 26 25  1  0  0  0  0
 27 28  1  0  0  0  0
 28 26  1  0  0  0  0
 30 29  1  0  0  0  0
 30 28  2  0  0  0  0
 31 30  1  0  0  0  0
 32 27  2  0  0  0  0
 33 31  2  0  0  0  0
 33 32  1  0  0  0  0
 34 35  1  6  0  0  0
 34 37  1  0  0  0  0
 37 36  1  0  0  0  0
 39 38  1  0  0  0  0
 40 39  1  1  0  0  0
 41 43  1  1  0  0  0
 41 40  1  0  0  0  0
 42 41  1  0  0  0  0
 42 40  1  0  0  0  0
 44 45  1  6  0  0  0
 44 43  1  0  0  0  0
 44 49  1  0  0  0  0
 45 48  1  0  0  0  0
 46 48  2  0  0  0  0
 48 47  1  0  0  0  0
 49 50  1  0  0  0  0
 51 52  1  0  0  0  0
 51 50  1  0  0  0  0
 52 54  1  0  0  0  0
 54 53  1  0  0  0  0
 55 54  1  0  0  0  0
M  END
>  <MODEL>
8

>  <REMARK>
 VINA RESULT:      -4.5      1.672      2.534
  Name = 
  26 active torsions:
  status: ('A' for Active; 'I' for Inactive)
    1  A    between atoms: C_4  and  C_54
    2  A    between atoms: C_5  and  O_26
    3  A    between atoms: C_5  and  C_44
    4  A    between atoms: C_7  and  C_20
    5  A    between atoms: C_8  and  C_15
    6  A    between atoms: C_8  and  C_50
    7  A    between atoms: O_9  and  C_32
    8  A    between atoms: O_9  and  C_49
    9  A    between atoms: C_11  and  O_45
   10  A    between atoms: C_11  and  C_54
   11  A    between atoms: C_12  and  C_18
   12  A    between atoms: C_12  and  C_41
   13  A    between atoms: N_14  and  C_33
   14  A    between atoms: C_15  and  C_20
   15  A    between atoms: C_16  and  C_44
   16  A    between atoms: C_18  and  C_19
   17  A    between atoms: C_24  and  N_25
   18  A    between atoms: N_25  and  N_31
   19  A    between atoms: O_26  and  C_47
   20  A    between atoms: N_31  and  C_36
   21  A    between atoms: C_32  and  C_47
   22  A    between atoms: C_32  and  C_52
   23  A    between atoms: C_33  and  C_54
   24  A    between atoms: N_39  and  C_41
   25  A    between atoms: C_40  and  N_53
   26  A    between atoms: C_48  and  C_52
                            x       y       z     vdW  Elec       q    Type
                         _______ _______ _______ _____ _____    ______ ____

>  <TORSDO>
F 26

$$$$
=
 OpenBabel10222416013D

 55 58  0  0  1  0  0  0  0  0999 V2000
  185.9560  179.3960  141.8460 S   0  0  0  0  0  0  0  0  0  0  0  0
  184.3520  177.7900  143.1570 N   0  0  0  0  0  0  0  0  0  0  0  0
  184.5480  178.6480  140.9650 C   0  0  1  0  0  3  0  0  0  0  0  0
  185.5220  178.3350  143.2100 C   0  0  0  0  0  0  0  0  0  0  0  0
  183.5380  178.2010  142.0310 C   0  0  2  0  0  3  0  0  0  0  0  0
  182.5630  179.2540  142.5160 C   0  0  0  0  0  0  0  0  0  0  0  0
  182.9170  180.1340  143.3510 O   0  0  0  0  0  0  0  0  0  0  0  0
  181.1500  179.1960  142.0730 C   0  0  0  0  0  0  0  0  0  0  0  0
  180.7800  179.8790  141.0860 O   0  0  0  0  0  0  0  0  0  0  0  0
  180.1340  178.3190  142.7450 C   0  0  1  0  0  3  0  0  0  0  0  0
  179.3150  179.1000  143.7630 C   0  0  0  0  0  1  0  0  0  0  0  0
  179.2470  177.6330  141.7180 C   0  0  0  0  0  2  0  0  0  0  0  0
  180.0040  176.7390  140.9600 O   0  0  0  0  0  1  0  0  0  0  0  0
  187.5890  177.4830  144.1550 N   0  0  0  0  0  0  0  0  0  0  0  0
  186.4570  178.0700  144.2680 N   0  0  0  0  0  0  0  0  0  0  0  0
  188.4040  175.5990  143.0400 O   0  0  0  0  0  1  0  0  0  0  0  0
  188.1510  176.9620  142.9110 C   0  0  2  0  0  3  0  0  0  0  0  0
  189.4400  177.7120  142.5240 C   0  0  2  0  0  3  0  0  0  0  0  0
  190.2490  176.9900  141.4160 C   0  0  2  0  0  3  0  0  0  0  0  0
  191.6400  177.5270  141.1800 C   0  0  0  0  0  2  0  0  0  0  0  0
  189.5760  176.9370  140.1100 N   0  0  0  0  0  0  0  0  0  0  0  0
  191.9810  177.0020  139.8050 C   0  0  0  0  0  2  0  0  0  0  0  0
  190.6450  176.6630  139.1540 C   0  0  0  0  0  2  0  0  0  0  0  0
  189.0390  178.2490  139.7470 C   0  0  0  0  0  2  0  0  0  0  0  0
  189.0290  178.3900  138.2370 C   0  0  0  0  0  2  0  0  0  0  0  0
  187.8270  177.6740  137.6700 C   0  0  0  0  0  2  0  0  0  0  0  0
  189.2750  177.0850  135.7600 N   0  0  0  0  0  0  0  0  0  0  0  0
  188.2530  176.7370  136.5910 C   0  0  0  0  0  0  0  0  0  0  0  0
  186.5970  175.0970  137.2890 O   0  0  0  0  0  1  0  0  0  0  0  0
  187.6330  175.4860  136.4480 C   0  0  0  0  0  0  0  0  0  0  0  0
  188.0690  174.6210  135.4400 C   0  0  0  0  0  3  0  0  0  0  0  0
  189.7150  176.2490  134.7800 C   0  0  0  0  0  3  0  0  0  0  0  0
  189.1170  175.0000  134.6000 C   0  0  0  0  0  3  0  0  0  0  0  0
  190.2900  178.0820  143.7520 C   0  0  1  0  0  3  0  0  0  0  0  0
  191.4090  177.0710  143.9600 C   0  0  0  0  0  1  0  0  0  0  0  0
  192.0610  179.3110  144.2820 C   0  0  0  0  0  1  0  0  0  0  0  0
  190.8220  179.3730  143.6450 O   0  0  0  0  0  0  0  0  0  0  0  0
  183.9920  179.5540  139.9700 N   0  0  0  0  0  2  0  0  0  0  0  0
  183.1140  178.8050  139.1770 N   0  0  0  0  0  2  0  0  0  0  0  0
  183.9100  178.1680  138.1340 C   0  0  2  0  0  3  0  0  0  0  0  0
  183.0360  177.6770  136.9800 C   0  0  1  0  0  3  0  0  0  0  0  0
  183.5340  176.7030  138.0240 C   0  0  0  0  0  2  0  0  0  0  0  0
  181.6780  177.9390  137.1990 O   0  0  0  0  0  0  0  0  0  0  0  0
  181.1060  177.9880  135.9230 C   0  0  1  0  0  3  0  0  0  0  0  0
  181.4000  179.3290  135.2620 C   0  0  0  0  0  2  0  0  0  0  0  0
  180.2680  180.2090  137.1730 O   0  0  0  0  0  1  0  0  0  0  0  0
  180.7660  181.7300  135.5230 O   0  0  0  0  0  0  0  0  0  0  0  0
  180.7920  180.4420  136.0470 C   0  0  0  0  0  0  0  0  0  0  0  0
  181.6430  176.8490  135.0690 C   0  0  0  0  0  2  0  0  0  0  0  0
  180.7680  175.7610  135.0930 O   0  0  0  0  0  0  0  0  0  0  0  0
  181.5210  174.7120  135.6210 C   0  0  0  0  0  2  0  0  0  0  0  0
  180.6080  173.5500  135.9850 C   0  0  0  0  0  2  0  0  0  0  0  0
  182.4370  171.8610  136.1130 C   0  0  0  0  0  1  0  0  0  0  0  0
  181.3260  172.5530  136.8800 C   0  0  0  0  0  3  0  0  0  0  0  0
  180.3400  171.5220  137.3780 C   0  0  0  0  0  1  0  0  0  0  0  0
  1  4  1  0  0  0  0
  2  4  2  0  0  0  0
  3 38  1  6  0  0  0
  3  1  1  0  0  0  0
  3  5  1  0  0  0  0
  4 15  1  0  0  0  0
  5  6  1  1  0  0  0
  5  2  1  0  0  0  0
  6  7  2  0  0  0  0
  8  6  1  0  0  0  0
  8 10  1  0  0  0  0
  9  8  2  0  0  0  0
 10 11  1  1  0  0  0
 12 10  1  0  0  0  0
 13 12  1  0  0  0  0
 14 15  2  0  0  0  0
 17 16  1  1  0  0  0
 17 14  1  0  0  0  0
 18 17  1  1  0  0  0
 18 34  1  0  0  0  0
 19 18  1  1  0  0  0
 20 19  1  0  0  0  0
 21 19  1  0  0  0  0
 22 20  1  0  0  0  0
 23 22  1  0  0  0  0
 23 21  1  0  0  0  0
 24 21  1  0  0  0  0
 25 24  1  0  0  0  0
 26 25  1  0  0  0  0
 27 28  1  0  0  0  0
 28 26  1  0  0  0  0
 30 28  2  0  0  0  0
 30 29  1  0  0  0  0
 31 30  1  0  0  0  0
 32 27  2  0  0  0  0
 33 32  1  0  0  0  0
 33 31  2  0  0  0  0
 34 35  1  6  0  0  0
 37 34  1  0  0  0  0
 37 36  1  0  0  0  0
 39 38  1  0  0  0  0
 40 39  1  1  0  0  0
 41 43  1  1  0  0  0
 41 42  1  0  0  0  0
 41 40  1  0  0  0  0
 42 40  1  0  0  0  0
 44 49  1  6  0  0  0
 44 43  1  0  0  0  0
 45 44  1  0  0  0  0
 45 48  1  0  0  0  0
 47 48  2  0  0  0  0
 48 46  1  0  0  0  0
 49 50  1  0  0  0  0
 50 51  1  0  0  0  0
 51 52  1  0  0  0  0
 52 54  1  0  0  0  0
 53 54  1  0  0  0  0
 54 55  1  0  0  0  0
M  END
>  <MODEL>
9

>  <REMARK>
 VINA RESULT:      -4.4      2.321      4.044
  Name = 
  26 active torsions:
  status: ('A' for Active; 'I' for Inactive)
    1  A    between atoms: C_4  and  C_54
    2  A    between atoms: C_5  and  O_26
    3  A    between atoms: C_5  and  C_44
    4  A    between atoms: C_7  and  C_20
    5  A    between atoms: C_8  and  C_15
    6  A    between atoms: C_8  and  C_50
    7  A    between atoms: O_9  and  C_32
    8  A    between atoms: O_9  and  C_49
    9  A    between atoms: C_11  and  O_45
   10  A    between atoms: C_11  and  C_54
   11  A    between atoms: C_12  and  C_18
   12  A    between atoms: C_12  and  C_41
   13  A    between atoms: N_14  and  C_33
   14  A    between atoms: C_15  and  C_20
   15  A    between atoms: C_16  and  C_44
   16  A    between atoms: C_18  and  C_19
   17  A    between atoms: C_24  and  N_25
   18  A    between atoms: N_25  and  N_31
   19  A    between atoms: O_26  and  C_47
   20  A    between atoms: N_31  and  C_36
   21  A    between atoms: C_32  and  C_47
   22  A    between atoms: C_32  and  C_52
   23  A    between atoms: C_33  and  C_54
   24  A    between atoms: N_39  and  C_41
   25  A    between atoms: C_40  and  N_53
   26  A    between atoms: C_48  and  C_52
                            x       y       z     vdW  Elec       q    Type
                         _______ _______ _______ _____ _____    ______ ____

>  <TORSDO>
F 26

$$$$
