=
 OpenBabel10222421123D

 37 38  0  0  1  0  0  0  0  0999 V2000
  190.0120  177.7760  141.8920 C   0  0  0  0  0  2  0  0  0  0  0  0
  190.6790  175.6880  143.0080 C   0  0  0  0  0  1  0  0  0  0  0  0
  188.3420  176.4190  143.1410 C   0  0  0  0  0  1  0  0  0  0  0  0
  189.7830  176.9080  143.1310 C   0  0  0  0  0  0  0  0  0  0  0  0
  190.8810  178.9740  144.2260 C   0  0  0  0  0  1  0  0  0  0  0  0
  190.0770  177.6940  144.4320 C   0  0  1  0  0  3  0  0  0  0  0  0
  188.7550  177.6000  146.6450 C   0  0  0  0  0  0  0  0  0  0  0  0
  188.8890  177.9300  145.2570 N   0  0  0  0  0  2  0  0  0  0  0  0
  189.6750  176.9990  147.2580 O   0  0  0  0  0  0  0  0  0  0  0  0
  187.4860  177.9220  147.3620 C   0  0  0  0  0  2  0  0  0  0  0  0
  186.2800  177.7910  146.4360 C   0  0  0  0  0  2  0  0  0  0  0  0
  185.5040  179.0960  146.3400 C   0  0  0  0  0  2  0  0  0  0  0  0
  182.6140  178.8480  144.1080 O   0  0  0  0  0  0  0  0  0  0  0  0
  183.8010  179.0520  144.4740 C   0  0  0  0  0  0  0  0  0  0  0  0
  184.1590  178.8480  145.8410 N   0  0  0  0  0  2  0  0  0  0  0  0
  184.8090  179.5210  143.4750 C   0  0  0  0  0  2  0  0  0  0  0  0
  185.0050  179.4840  141.1110 O   0  0  0  0  0  0  0  0  0  0  0  0
  184.7270  178.6940  142.2040 C   0  0  0  0  0  3  0  0  0  0  0  0
  185.9610  178.6770  141.5960 O   0  0  0  0  0  0  0  0  0  0  0  0
  191.3990  177.1930  140.8570 S   0  0  0  0  0  0  0  0  0  0  0  0
  190.3070  176.8920  139.4210 C   0  0  2  0  0  3  0  0  0  0  0  0
  192.2690  174.6930  136.9120 C   0  0  0  0  0  0  0  0  0  0  0  0
  192.6040  176.4460  138.4610 C   0  0  0  0  0  2  0  0  0  0  0  0
  190.6020  174.9170  137.5000 S   0  0  0  0  0  0  0  0  0  0  0  0
  192.5520  173.7330  135.8060 C   0  0  0  0  0  1  0  0  0  0  0  0
  193.1720  175.4990  137.4660 C   0  0  0  0  0  0  0  0  0  0  0  0
  191.1100  176.5380  138.1670 C   0  0  1  0  0  3  0  0  0  0  0  0
  195.0500  176.0430  136.0930 O   0  0  0  0  0  0  0  0  0  0  0  0
  194.6190  175.5190  137.1570 C   0  0  0  0  0  0  0  0  0  0  0  0
  195.5130  174.9340  138.0580 O   0  0  0  0  0  0  0  0  0  0  0  0
  195.6620  172.5710  137.6820 C   0  0  0  0  0  1  0  0  0  0  0  0
  195.2610  173.6680  138.6480 C   0  0  0  0  0  2  0  0  0  0  0  0
  189.4170  178.1100  139.1800 C   0  0  0  0  0  2  0  0  0  0  0  0
  188.0790  177.7280  139.0530 O   0  0  0  0  0  0  0  0  0  0  0  0
  187.6370  176.9010  136.4380 O   0  0  0  0  0  0  0  0  0  0  0  0
  187.4120  179.4520  136.9820 O   0  0  0  0  0  0  0  0  0  0  0  0
  187.6950  178.0380  137.4340 P   0  0  0  0  0  0  0  0  0  0  0  0
  1  4  1  0  0  0  0
  2  4  1  0  0  0  0
  4  3  1  0  0  0  0
  4  6  1  0  0  0  0
  6  5  1  6  0  0  0
  6  8  1  0  0  0  0
  7  9  2  0  0  0  0
  7 10  1  0  0  0  0
  8  7  1  0  0  0  0
 11 10  1  0  0  0  0
 12 11  1  0  0  0  0
 13 14  2  0  0  0  0
 14 15  1  0  0  0  0
 15 12  1  0  0  0  0
 16 14  1  0  0  0  0
 17 19  1  0  0  0  0
 17 18  1  0  0  0  0
 18 16  1  0  0  0  0
 19 18  1  0  0  0  0
 20  1  1  0  0  0  0
 21 33  1  6  0  0  0
 21 20  1  0  0  0  0
 22 26  2  0  0  0  0
 22 24  1  0  0  0  0
 24 27  1  0  0  0  0
 25 22  1  0  0  0  0
 26 23  1  0  0  0  0
 27 23  1  0  0  0  0
 27 21  1  1  0  0  0
 28 29  2  0  0  0  0
 29 26  1  0  0  0  0
 29 30  1  0  0  0  0
 30 32  1  0  0  0  0
 31 32  1  0  0  0  0
 34 33  1  0  0  0  0
 35 37  2  0  0  0  0
 36 37  2  0  0  0  0
 37 34  1  0  0  0  0
M  END
>  <MODEL>
1

>  <REMARK>
 VINA RESULT:      -7.1      0.000      0.000
  Name = 
  18 active torsions:
  status: ('A' for Active; 'I' for Inactive)
    1  A    between atoms: C_1  and  C_28
    2  A    between atoms: S_4  and  C_13
    3  A    between atoms: S_4  and  C_34
    4  A    between atoms: C_6  and  C_10
    5  A    between atoms: C_6  and  C_22
    6  A    between atoms: N_7  and  C_32
    7  A    between atoms: C_9  and  C_21
    8  A    between atoms: C_9  and  N_31
    9  A    between atoms: O_11  and  C_36
   10  A    between atoms: O_11  and  C_37
   11  A    between atoms: C_13  and  C_30
   12  A    between atoms: C_21  and  C_28
   13  A    between atoms: C_24  and  C_36
   14  A    between atoms: C_25  and  C_34
   15  A    between atoms: P_26  and  O_33
   16  A    between atoms: C_30  and  C_32
   17  A    between atoms: O_33  and  C_35
   18  A    between atoms: C_34  and  C_35
                            x       y       z     vdW  Elec       q    Type
                         _______ _______ _______ _____ _____    ______ ____

>  <TORSDO>
F 18

$$$$
=
 OpenBabel10222421123D

 37 38  0  0  1  0  0  0  0  0999 V2000
  190.4380  177.3030  141.8450 C   0  0  0  0  0  2  0  0  0  0  0  0
  190.9250  175.4490  143.3860 C   0  0  0  0  0  1  0  0  0  0  0  0
  188.6190  176.2600  143.1840 C   0  0  0  0  0  1  0  0  0  0  0  0
  190.0770  176.6950  143.2020 C   0  0  0  0  0  0  0  0  0  0  0  0
  190.9400  179.0240  143.9130 C   0  0  0  0  0  1  0  0  0  0  0  0
  190.3050  177.7070  144.3510 C   0  0  1  0  0  3  0  0  0  0  0  0
  188.9650  177.5260  146.5470 C   0  0  0  0  0  0  0  0  0  0  0  0
  189.1190  177.9310  145.1820 N   0  0  0  0  0  2  0  0  0  0  0  0
  189.8620  176.8630  147.1300 O   0  0  0  0  0  0  0  0  0  0  0  0
  187.7010  177.8430  147.2740 C   0  0  0  0  0  2  0  0  0  0  0  0
  186.4930  177.7530  146.3470 C   0  0  0  0  0  2  0  0  0  0  0  0
  185.6020  178.9810  146.4670 C   0  0  0  0  0  2  0  0  0  0  0  0
  182.5560  178.7710  144.4480 O   0  0  0  0  0  0  0  0  0  0  0  0
  183.7460  179.0460  144.7540 C   0  0  0  0  0  0  0  0  0  0  0  0
  184.2480  178.6660  146.0360 N   0  0  0  0  0  2  0  0  0  0  0  0
  184.6060  179.7830  143.7770 C   0  0  0  0  0  2  0  0  0  0  0  0
  184.5060  179.0510  141.5230 O   0  0  0  0  0  0  0  0  0  0  0  0
  185.1470  178.8350  142.7210 C   0  0  0  0  0  3  0  0  0  0  0  0
  185.7290  179.5680  141.7120 O   0  0  0  0  0  0  0  0  0  0  0  0
  188.9790  177.8850  140.9120 S   0  0  0  0  0  0  0  0  0  0  0  0
  189.8430  177.7320  139.3080 C   0  0  2  0  0  3  0  0  0  0  0  0
  187.3600  177.9350  136.3460 C   0  0  0  0  0  0  0  0  0  0  0  0
  187.4390  177.3340  138.6290 C   0  0  0  0  0  2  0  0  0  0  0  0
  189.0790  178.2440  136.6940 S   0  0  0  0  0  0  0  0  0  0  0  0
  186.8390  178.0730  134.9550 C   0  0  0  0  0  1  0  0  0  0  0  0
  186.6480  177.4960  137.3820 C   0  0  0  0  0  0  0  0  0  0  0  0
  188.9010  177.2390  138.2070 C   0  0  1  0  0  3  0  0  0  0  0  0
  184.3450  177.9850  137.7850 O   0  0  0  0  0  0  0  0  0  0  0  0
  185.2060  177.1650  137.3620 C   0  0  0  0  0  0  0  0  0  0  0  0
  184.8030  175.9190  136.8760 O   0  0  0  0  0  0  0  0  0  0  0  0
  184.9050  173.6360  137.6000 C   0  0  0  0  0  1  0  0  0  0  0  0
  185.6480  174.7800  136.9410 C   0  0  0  0  0  2  0  0  0  0  0  0
  191.0510  176.8100  139.4530 C   0  0  0  0  0  2  0  0  0  0  0  0
  190.9580  175.7300  138.5730 O   0  0  0  0  0  0  0  0  0  0  0  0
  192.9100  174.3630  137.1440 O   0  0  0  0  0  0  0  0  0  0  0  0
  193.4190  176.8200  137.8920 O   0  0  0  0  0  0  0  0  0  0  0  0
  192.4820  175.6350  137.8430 P   0  0  0  0  0  0  0  0  0  0  0  0
  1  4  1  0  0  0  0
  3  4  1  0  0  0  0
  4  2  1  0  0  0  0
  4  6  1  0  0  0  0
  6  5  1  6  0  0  0
  6  8  1  0  0  0  0
  7  9  2  0  0  0  0
  7 10  1  0  0  0  0
  8  7  1  0  0  0  0
 11 12  1  0  0  0  0
 11 10  1  0  0  0  0
 13 14  2  0  0  0  0
 14 15  1  0  0  0  0
 15 12  1  0  0  0  0
 16 14  1  0  0  0  0
 17 19  1  0  0  0  0
 17 18  1  0  0  0  0
 18 16  1  0  0  0  0
 19 18  1  0  0  0  0
 20  1  1  0  0  0  0
 21 33  1  1  0  0  0
 21 20  1  0  0  0  0
 22 24  1  0  0  0  0
 22 26  2  0  0  0  0
 24 27  1  0  0  0  0
 25 22  1  0  0  0  0
 26 23  1  0  0  0  0
 27 23  1  0  0  0  0
 27 21  1  1  0  0  0
 29 26  1  0  0  0  0
 29 28  2  0  0  0  0
 30 32  1  0  0  0  0
 30 29  1  0  0  0  0
 32 31  1  0  0  0  0
 34 33  1  0  0  0  0
 35 37  2  0  0  0  0
 37 36  2  0  0  0  0
 37 34  1  0  0  0  0
M  END
>  <MODEL>
2

>  <REMARK>
 VINA RESULT:      -7.1      2.611      4.819
  Name = 
  18 active torsions:
  status: ('A' for Active; 'I' for Inactive)
    1  A    between atoms: C_1  and  C_28
    2  A    between atoms: S_4  and  C_13
    3  A    between atoms: S_4  and  C_34
    4  A    between atoms: C_6  and  C_10
    5  A    between atoms: C_6  and  C_22
    6  A    between atoms: N_7  and  C_32
    7  A    between atoms: C_9  and  C_21
    8  A    between atoms: C_9  and  N_31
    9  A    between atoms: O_11  and  C_36
   10  A    between atoms: O_11  and  C_37
   11  A    between atoms: C_13  and  C_30
   12  A    between atoms: C_21  and  C_28
   13  A    between atoms: C_24  and  C_36
   14  A    between atoms: C_25  and  C_34
   15  A    between atoms: P_26  and  O_33
   16  A    between atoms: C_30  and  C_32
   17  A    between atoms: O_33  and  C_35
   18  A    between atoms: C_34  and  C_35
                            x       y       z     vdW  Elec       q    Type
                         _______ _______ _______ _____ _____    ______ ____

>  <TORSDO>
F 18

$$$$
=
 OpenBabel10222421123D

 37 38  0  0  1  0  0  0  0  0999 V2000
  190.4350  177.5320  142.0210 C   0  0  0  0  0  2  0  0  0  0  0  0
  190.8320  175.5260  143.3890 C   0  0  0  0  0  1  0  0  0  0  0  0
  188.6210  176.5850  143.4360 C   0  0  0  0  0  1  0  0  0  0  0  0
  190.1150  176.8640  143.3610 C   0  0  0  0  0  0  0  0  0  0  0  0
  191.0040  179.1560  144.1540 C   0  0  0  0  0  1  0  0  0  0  0  0
  190.5390  177.7580  144.5510 C   0  0  1  0  0  3  0  0  0  0  0  0
  189.6790  177.1730  146.9110 C   0  0  0  0  0  0  0  0  0  0  0  0
  189.5510  177.8050  145.6330 N   0  0  0  0  0  2  0  0  0  0  0  0
  190.6730  176.4470  147.1770 O   0  0  0  0  0  0  0  0  0  0  0  0
  188.5950  177.3270  147.9250 C   0  0  0  0  0  2  0  0  0  0  0  0
  187.5370  178.3200  147.4540 C   0  0  0  0  0  2  0  0  0  0  0  0
  186.5940  177.6930  146.4370 C   0  0  0  0  0  2  0  0  0  0  0  0
  183.4450  179.2500  145.4080 O   0  0  0  0  0  0  0  0  0  0  0  0
  184.5520  178.6590  145.3050 C   0  0  0  0  0  0  0  0  0  0  0  0
  185.2930  178.3450  146.4850 N   0  0  0  0  0  2  0  0  0  0  0  0
  185.0780  178.3130  143.9490 C   0  0  0  0  0  2  0  0  0  0  0  0
  185.6290  179.6380  142.0600 O   0  0  0  0  0  0  0  0  0  0  0  0
  184.6000  179.3210  142.9180 C   0  0  0  0  0  3  0  0  0  0  0  0
  184.6930  178.7620  141.6640 O   0  0  0  0  0  0  0  0  0  0  0  0
  188.9410  177.9460  141.0550 S   0  0  0  0  0  0  0  0  0  0  0  0
  189.8230  177.7690  139.4630 C   0  0  2  0  0  3  0  0  0  0  0  0
  187.4410  178.0300  136.4240 C   0  0  0  0  0  0  0  0  0  0  0  0
  187.4200  177.4940  138.7250 C   0  0  0  0  0  2  0  0  0  0  0  0
  189.1650  178.2480  136.8140 S   0  0  0  0  0  0  0  0  0  0  0  0
  186.9680  178.1580  135.0150 C   0  0  0  0  0  1  0  0  0  0  0  0
  186.6750  177.6660  137.4500 C   0  0  0  0  0  0  0  0  0  0  0  0
  188.8850  177.3000  138.3490 C   0  0  1  0  0  3  0  0  0  0  0  0
  184.7450  176.4420  136.7530 O   0  0  0  0  0  0  0  0  0  0  0  0
  185.2170  177.4200  137.3960 C   0  0  0  0  0  0  0  0  0  0  0  0
  184.3570  178.2980  138.0620 O   0  0  0  0  0  0  0  0  0  0  0  0
  182.0020  178.5670  137.7090 C   0  0  0  0  0  1  0  0  0  0  0  0
  183.0810  177.8880  138.5270 C   0  0  0  0  0  2  0  0  0  0  0  0
  191.0050  176.8160  139.6260 C   0  0  0  0  0  2  0  0  0  0  0  0
  190.9310  175.7730  138.7000 O   0  0  0  0  0  0  0  0  0  0  0  0
  192.2550  175.6740  136.2600 O   0  0  0  0  0  0  0  0  0  0  0  0
  193.6250  176.3600  138.3820 O   0  0  0  0  0  0  0  0  0  0  0  0
  192.3200  175.9430  137.7470 P   0  0  0  0  0  0  0  0  0  0  0  0
  1  4  1  0  0  0  0
  4  2  1  0  0  0  0
  4  3  1  0  0  0  0
  4  6  1  0  0  0  0
  6  5  1  6  0  0  0
  6  8  1  0  0  0  0
  7  9  2  0  0  0  0
  7 10  1  0  0  0  0
  8  7  1  0  0  0  0
 11 10  1  0  0  0  0
 12 15  1  0  0  0  0
 12 11  1  0  0  0  0
 14 13  2  0  0  0  0
 14 15  1  0  0  0  0
 16 14  1  0  0  0  0
 17 18  1  0  0  0  0
 18 16  1  0  0  0  0
 19 17  1  0  0  0  0
 19 18  1  0  0  0  0
 20  1  1  0  0  0  0
 21 33  1  1  0  0  0
 21 20  1  0  0  0  0
 22 24  1  0  0  0  0
 22 26  2  0  0  0  0
 24 27  1  0  0  0  0
 25 22  1  0  0  0  0
 26 23  1  0  0  0  0
 27 23  1  0  0  0  0
 27 21  1  1  0  0  0
 28 29  2  0  0  0  0
 29 26  1  0  0  0  0
 29 30  1  0  0  0  0
 30 32  1  0  0  0  0
 31 32  1  0  0  0  0
 34 33  1  0  0  0  0
 35 37  2  0  0  0  0
 37 36  2  0  0  0  0
 37 34  1  0  0  0  0
M  END
>  <MODEL>
3

>  <REMARK>
 VINA RESULT:      -6.7      2.647      5.328
  Name = 
  18 active torsions:
  status: ('A' for Active; 'I' for Inactive)
    1  A    between atoms: C_1  and  C_28
    2  A    between atoms: S_4  and  C_13
    3  A    between atoms: S_4  and  C_34
    4  A    between atoms: C_6  and  C_10
    5  A    between atoms: C_6  and  C_22
    6  A    between atoms: N_7  and  C_32
    7  A    between atoms: C_9  and  C_21
    8  A    between atoms: C_9  and  N_31
    9  A    between atoms: O_11  and  C_36
   10  A    between atoms: O_11  and  C_37
   11  A    between atoms: C_13  and  C_30
   12  A    between atoms: C_21  and  C_28
   13  A    between atoms: C_24  and  C_36
   14  A    between atoms: C_25  and  C_34
   15  A    between atoms: P_26  and  O_33
   16  A    between atoms: C_30  and  C_32
   17  A    between atoms: O_33  and  C_35
   18  A    between atoms: C_34  and  C_35
                            x       y       z     vdW  Elec       q    Type
                         _______ _______ _______ _____ _____    ______ ____

>  <TORSDO>
F 18

$$$$
=
 OpenBabel10222421123D

 37 38  0  0  1  0  0  0  0  0999 V2000
  189.8540  177.7290  141.5120 C   0  0  0  0  0  2  0  0  0  0  0  0
  190.3440  175.6250  142.6890 C   0  0  0  0  0  1  0  0  0  0  0  0
  188.4590  177.0010  143.4390 C   0  0  0  0  0  1  0  0  0  0  0  0
  189.8750  177.0560  142.8860 C   0  0  0  0  0  0  0  0  0  0  0  0
  190.9740  179.2980  143.5470 C   0  0  0  0  0  1  0  0  0  0  0  0
  190.7920  177.8180  143.8730 C   0  0  1  0  0  3  0  0  0  0  0  0
  191.0880  176.7170  146.1870 C   0  0  0  0  0  0  0  0  0  0  0  0
  190.4380  177.6170  145.2810 N   0  0  0  0  0  2  0  0  0  0  0  0
  192.0130  175.9600  145.7930 O   0  0  0  0  0  0  0  0  0  0  0  0
  190.6280  176.6340  147.6040 C   0  0  0  0  0  2  0  0  0  0  0  0
  189.5700  177.6920  147.9040 C   0  0  0  0  0  2  0  0  0  0  0  0
  188.1630  177.1250  147.7940 C   0  0  0  0  0  2  0  0  0  0  0  0
  185.4360  179.5280  147.3600 O   0  0  0  0  0  0  0  0  0  0  0  0
  186.2460  178.6060  147.0770 C   0  0  0  0  0  0  0  0  0  0  0  0
  187.1770  178.1620  148.0640 N   0  0  0  0  0  2  0  0  0  0  0  0
  186.2300  178.0080  145.7060 C   0  0  0  0  0  2  0  0  0  0  0  0
  184.9370  178.0910  143.7200 O   0  0  0  0  0  0  0  0  0  0  0  0
  185.4050  178.8620  144.7600 C   0  0  0  0  0  3  0  0  0  0  0  0
  184.1130  178.3890  144.7360 O   0  0  0  0  0  0  0  0  0  0  0  0
  190.5650  176.6840  140.1930 S   0  0  0  0  0  0  0  0  0  0  0  0
  189.6800  177.5970  138.8810 C   0  0  2  0  0  3  0  0  0  0  0  0
  186.0040  177.6030  137.6690 C   0  0  0  0  0  0  0  0  0  0  0  0
  187.3470  178.3930  139.4450 C   0  0  0  0  0  2  0  0  0  0  0  0
  187.5930  176.9760  137.1660 S   0  0  0  0  0  0  0  0  0  0  0  0
  184.7800  177.2570  136.8900 C   0  0  0  0  0  1  0  0  0  0  0  0
  186.0080  178.2950  138.8060 C   0  0  0  0  0  0  0  0  0  0  0  0
  188.1870  177.2590  138.8680 C   0  0  1  0  0  3  0  0  0  0  0  0
  184.4370  180.0700  139.0980 O   0  0  0  0  0  0  0  0  0  0  0  0
  184.8280  178.9210  139.4420 C   0  0  0  0  0  0  0  0  0  0  0  0
  184.1500  178.2240  140.4460 O   0  0  0  0  0  0  0  0  0  0  0  0
  181.7800  178.1630  140.8020 C   0  0  0  0  0  1  0  0  0  0  0  0
  182.9760  177.4740  140.1760 C   0  0  0  0  0  2  0  0  0  0  0  0
  190.3210  177.3110  137.5240 C   0  0  0  0  0  2  0  0  0  0  0  0
  191.4660  176.5250  137.6740 O   0  0  0  0  0  0  0  0  0  0  0  0
  190.6200  175.5870  135.2000 O   0  0  0  0  0  0  0  0  0  0  0  0
  191.8300  173.9130  136.8070 O   0  0  0  0  0  0  0  0  0  0  0  0
  191.3010  175.2980  136.5200 P   0  0  0  0  0  0  0  0  0  0  0  0
  1  4  1  0  0  0  0
  2  4  1  0  0  0  0
  4  3  1  0  0  0  0
  4  6  1  0  0  0  0
  6  5  1  6  0  0  0
  6  8  1  0  0  0  0
  7 10  1  0  0  0  0
  8  7  1  0  0  0  0
  9  7  2  0  0  0  0
 10 11  1  0  0  0  0
 12 11  1  0  0  0  0
 12 15  1  0  0  0  0
 14 13  2  0  0  0  0
 14 15  1  0  0  0  0
 16 14  1  0  0  0  0
 17 19  1  0  0  0  0
 17 18  1  0  0  0  0
 18 16  1  0  0  0  0
 19 18  1  0  0  0  0
 20  1  1  0  0  0  0
 21 33  1  6  0  0  0
 21 20  1  0  0  0  0
 22 26  2  0  0  0  0
 24 22  1  0  0  0  0
 24 27  1  0  0  0  0
 25 22  1  0  0  0  0
 26 29  1  0  0  0  0
 26 23  1  0  0  0  0
 27 21  1  6  0  0  0
 27 23  1  0  0  0  0
 28 29  2  0  0  0  0
 29 30  1  0  0  0  0
 32 30  1  0  0  0  0
 32 31  1  0  0  0  0
 33 34  1  0  0  0  0
 35 37  2  0  0  0  0
 37 36  2  0  0  0  0
 37 34  1  0  0  0  0
M  END
>  <MODEL>
4

>  <REMARK>
 VINA RESULT:      -6.3      2.969      5.891
  Name = 
  18 active torsions:
  status: ('A' for Active; 'I' for Inactive)
    1  A    between atoms: C_1  and  C_28
    2  A    between atoms: S_4  and  C_13
    3  A    between atoms: S_4  and  C_34
    4  A    between atoms: C_6  and  C_10
    5  A    between atoms: C_6  and  C_22
    6  A    between atoms: N_7  and  C_32
    7  A    between atoms: C_9  and  C_21
    8  A    between atoms: C_9  and  N_31
    9  A    between atoms: O_11  and  C_36
   10  A    between atoms: O_11  and  C_37
   11  A    between atoms: C_13  and  C_30
   12  A    between atoms: C_21  and  C_28
   13  A    between atoms: C_24  and  C_36
   14  A    between atoms: C_25  and  C_34
   15  A    between atoms: P_26  and  O_33
   16  A    between atoms: C_30  and  C_32
   17  A    between atoms: O_33  and  C_35
   18  A    between atoms: C_34  and  C_35
                            x       y       z     vdW  Elec       q    Type
                         _______ _______ _______ _____ _____    ______ ____

>  <TORSDO>
F 18

$$$$
=
 OpenBabel10222421123D

 37 38  0  0  1  0  0  0  0  0999 V2000
  184.1760  177.9390  141.4520 C   0  0  0  0  0  2  0  0  0  0  0  0
  184.1970  179.4270  139.4930 C   0  0  0  0  0  1  0  0  0  0  0  0
  182.0570  178.8940  140.5650 C   0  0  0  0  0  1  0  0  0  0  0  0
  183.4140  178.3230  140.1810 C   0  0  0  0  0  0  0  0  0  0  0  0
  181.7750  176.6420  139.1040 C   0  0  0  0  0  1  0  0  0  0  0  0
  183.2220  177.1020  139.2500 C   0  0  1  0  0  3  0  0  0  0  0  0
  184.4460  176.1860  137.1720 C   0  0  0  0  0  0  0  0  0  0  0  0
  183.8750  177.2480  137.9460 N   0  0  0  0  0  2  0  0  0  0  0  0
  184.4780  175.0080  137.6150 O   0  0  0  0  0  0  0  0  0  0  0  0
  185.0620  176.4860  135.8460 C   0  0  0  0  0  2  0  0  0  0  0  0
  186.0670  175.4090  135.4480 C   0  0  0  0  0  2  0  0  0  0  0  0
  187.4510  175.9950  135.2100 C   0  0  0  0  0  2  0  0  0  0  0  0
  189.7380  175.2770  137.9750 O   0  0  0  0  0  0  0  0  0  0  0  0
  188.8640  175.8820  137.3010 C   0  0  0  0  0  0  0  0  0  0  0  0
  188.4330  175.3330  136.0550 N   0  0  0  0  0  2  0  0  0  0  0  0
  188.3070  177.1740  137.8080 C   0  0  0  0  0  2  0  0  0  0  0  0
  188.6650  179.4530  137.2570 O   0  0  0  0  0  0  0  0  0  0  0  0
  189.3130  178.2970  137.6280 C   0  0  0  0  0  3  0  0  0  0  0  0
  189.0420  179.2950  138.5350 O   0  0  0  0  0  0  0  0  0  0  0  0
  185.5290  179.1000  141.8510 S   0  0  0  0  0  0  0  0  0  0  0  0
  186.6320  177.7510  142.4030 C   0  0  2  0  0  3  0  0  0  0  0  0
  186.4790  178.4610  146.2050 C   0  0  0  0  0  0  0  0  0  0  0  0
  187.8140  177.3500  144.6030 C   0  0  0  0  0  2  0  0  0  0  0  0
  185.5480  178.8040  144.7250 S   0  0  0  0  0  0  0  0  0  0  0  0
  185.9550  178.8840  147.5360 C   0  0  0  0  0  1  0  0  0  0  0  0
  187.5840  177.7420  146.0180 C   0  0  0  0  0  0  0  0  0  0  0  0
  186.4660  177.4630  143.8970 C   0  0  1  0  0  3  0  0  0  0  0  0
  188.1460  176.6220  148.0510 O   0  0  0  0  0  0  0  0  0  0  0  0
  188.5310  177.3220  147.0740 C   0  0  0  0  0  0  0  0  0  0  0  0
  189.8670  177.7210  146.9850 O   0  0  0  0  0  0  0  0  0  0  0  0
  191.6430  176.5150  145.9190 C   0  0  0  0  0  1  0  0  0  0  0  0
  190.9360  176.8190  147.2240 C   0  0  0  0  0  2  0  0  0  0  0  0
  188.0820  178.0930  142.0660 C   0  0  0  0  0  2  0  0  0  0  0  0
  188.5550  177.2800  141.0330 O   0  0  0  0  0  0  0  0  0  0  0  0
  190.4190  175.9680  142.6200 O   0  0  0  0  0  0  0  0  0  0  0  0
  191.3020  177.5270  140.7120 O   0  0  0  0  0  0  0  0  0  0  0  0
  190.1480  176.9110  141.4690 P   0  0  0  0  0  0  0  0  0  0  0  0
  1 20  1  0  0  0  0
  2  4  1  0  0  0  0
  4  3  1  0  0  0  0
  4  1  1  0  0  0  0
  6  5  1  6  0  0  0
  6  4  1  0  0  0  0
  7  9  2  0  0  0  0
  7  8  1  0  0  0  0
  8  6  1  0  0  0  0
 10  7  1  0  0  0  0
 11 10  1  0  0  0  0
 12 11  1  0  0  0  0
 12 15  1  0  0  0  0
 14 16  1  0  0  0  0
 14 13  2  0  0  0  0
 15 14  1  0  0  0  0
 17 18  1  0  0  0  0
 17 19  1  0  0  0  0
 18 16  1  0  0  0  0
 18 19  1  0  0  0  0
 20 21  1  0  0  0  0
 21 33  1  1  0  0  0
 22 25  1  0  0  0  0
 23 26  1  0  0  0  0
 24 22  1  0  0  0  0
 26 22  2  0  0  0  0
 26 29  1  0  0  0  0
 27 21  1  6  0  0  0
 27 23  1  0  0  0  0
 27 24  1  0  0  0  0
 29 28  2  0  0  0  0
 30 29  1  0  0  0  0
 30 32  1  0  0  0  0
 31 32  1  0  0  0  0
 34 37  1  0  0  0  0
 34 33  1  0  0  0  0
 36 37  2  0  0  0  0
 37 35  2  0  0  0  0
M  END
>  <MODEL>
5

>  <REMARK>
 VINA RESULT:      -6.3      4.351      9.091
  Name = 
  18 active torsions:
  status: ('A' for Active; 'I' for Inactive)
    1  A    between atoms: C_1  and  C_28
    2  A    between atoms: S_4  and  C_13
    3  A    between atoms: S_4  and  C_34
    4  A    between atoms: C_6  and  C_10
    5  A    between atoms: C_6  and  C_22
    6  A    between atoms: N_7  and  C_32
    7  A    between atoms: C_9  and  C_21
    8  A    between atoms: C_9  and  N_31
    9  A    between atoms: O_11  and  C_36
   10  A    between atoms: O_11  and  C_37
   11  A    between atoms: C_13  and  C_30
   12  A    between atoms: C_21  and  C_28
   13  A    between atoms: C_24  and  C_36
   14  A    between atoms: C_25  and  C_34
   15  A    between atoms: P_26  and  O_33
   16  A    between atoms: C_30  and  C_32
   17  A    between atoms: O_33  and  C_35
   18  A    between atoms: C_34  and  C_35
                            x       y       z     vdW  Elec       q    Type
                         _______ _______ _______ _____ _____    ______ ____

>  <TORSDO>
F 18

$$$$
=
 OpenBabel10222421123D

 37 38  0  0  1  0  0  0  0  0999 V2000
  188.9740  177.6660  143.4120 C   0  0  0  0  0  2  0  0  0  0  0  0
  190.5930  175.8440  143.0780 C   0  0  0  0  0  1  0  0  0  0  0  0
  191.3600  178.1670  142.9190 C   0  0  0  0  0  1  0  0  0  0  0  0
  190.2010  177.2330  142.6060 C   0  0  0  0  0  0  0  0  0  0  0  0
  188.8500  178.2610  140.6590 C   0  0  0  0  0  1  0  0  0  0  0  0
  189.9110  177.2510  141.0860 C   0  0  1  0  0  3  0  0  0  0  0  0
  191.4120  176.5560  139.1070 C   0  0  0  0  0  0  0  0  0  0  0  0
  191.1170  177.3550  140.2590 N   0  0  0  0  0  2  0  0  0  0  0  0
  190.6430  175.6260  138.7500 O   0  0  0  0  0  0  0  0  0  0  0  0
  192.6760  176.7910  138.3490 C   0  0  0  0  0  2  0  0  0  0  0  0
  192.6820  176.0170  137.0340 C   0  0  0  0  0  2  0  0  0  0  0  0
  194.0260  175.3480  136.7830 C   0  0  0  0  0  2  0  0  0  0  0  0
  196.0400  173.3620  139.1070 O   0  0  0  0  0  0  0  0  0  0  0  0
  195.6850  173.9040  138.0270 C   0  0  0  0  0  0  0  0  0  0  0  0
  194.5120  174.7180  138.0030 N   0  0  0  0  0  2  0  0  0  0  0  0
  196.4880  173.6720  136.7880 C   0  0  0  0  0  2  0  0  0  0  0  0
  197.7110  175.6520  136.3320 O   0  0  0  0  0  0  0  0  0  0  0  0
  197.8230  174.3920  136.8730 C   0  0  0  0  0  3  0  0  0  0  0  0
  197.6840  175.5070  137.6660 O   0  0  0  0  0  0  0  0  0  0  0  0
  187.7150  176.3500  143.5590 S   0  0  0  0  0  0  0  0  0  0  0  0
  186.7650  177.2880  144.8080 C   0  0  2  0  0  3  0  0  0  0  0  0
  183.4800  178.7460  143.3700 C   0  0  0  0  0  0  0  0  0  0  0  0
  185.6140  178.0100  142.6750 C   0  0  0  0  0  2  0  0  0  0  0  0
  184.1820  178.2840  144.9410 S   0  0  0  0  0  0  0  0  0  0  0  0
  182.1350  179.3900  143.3100 C   0  0  0  0  0  1  0  0  0  0  0  0
  184.2780  178.5570  142.3220 C   0  0  0  0  0  0  0  0  0  0  0  0
  185.8290  178.3070  144.1550 C   0  0  1  0  0  3  0  0  0  0  0  0
  184.6620  179.6280  140.2220 O   0  0  0  0  0  0  0  0  0  0  0  0
  183.9400  178.8570  140.9130 C   0  0  0  0  0  0  0  0  0  0  0  0
  182.7970  178.2820  140.3530 O   0  0  0  0  0  0  0  0  0  0  0  0
  181.4620  176.5940  139.2980 C   0  0  0  0  0  1  0  0  0  0  0  0
  182.6910  176.8840  140.1350 C   0  0  0  0  0  2  0  0  0  0  0  0
  187.7200  177.9650  145.7880 C   0  0  0  0  0  2  0  0  0  0  0  0
  187.6800  177.3350  147.0340 O   0  0  0  0  0  0  0  0  0  0  0  0
  190.4010  176.7800  146.9770 O   0  0  0  0  0  0  0  0  0  0  0  0
  189.4990  178.3460  148.8710 O   0  0  0  0  0  0  0  0  0  0  0  0
  189.2490  177.4940  147.6490 P   0  0  0  0  0  0  0  0  0  0  0  0
  1 20  1  0  0  0  0
  4  3  1  0  0  0  0
  4  2  1  0  0  0  0
  4  1  1  0  0  0  0
  6  5  1  1  0  0  0
  6  4  1  0  0  0  0
  7  8  1  0  0  0  0
  8  6  1  0  0  0  0
  9  7  2  0  0  0  0
 10  7  1  0  0  0  0
 11 10  1  0  0  0  0
 12 11  1  0  0  0  0
 12 15  1  0  0  0  0
 14 13  2  0  0  0  0
 15 14  1  0  0  0  0
 16 18  1  0  0  0  0
 16 14  1  0  0  0  0
 17 18  1  0  0  0  0
 17 19  1  0  0  0  0
 18 19  1  0  0  0  0
 20 21  1  0  0  0  0
 21 33  1  1  0  0  0
 22 24  1  0  0  0  0
 23 27  1  0  0  0  0
 25 22  1  0  0  0  0
 26 23  1  0  0  0  0
 26 22  2  0  0  0  0
 27 21  1  1  0  0  0
 27 24  1  0  0  0  0
 28 29  2  0  0  0  0
 29 26  1  0  0  0  0
 30 29  1  0  0  0  0
 31 32  1  0  0  0  0
 32 30  1  0  0  0  0
 33 34  1  0  0  0  0
 34 37  1  0  0  0  0
 35 37  2  0  0  0  0
 37 36  2  0  0  0  0
M  END
>  <MODEL>
6

>  <REMARK>
 VINA RESULT:      -6.2      3.461     10.581
  Name = 
  18 active torsions:
  status: ('A' for Active; 'I' for Inactive)
    1  A    between atoms: C_1  and  C_28
    2  A    between atoms: S_4  and  C_13
    3  A    between atoms: S_4  and  C_34
    4  A    between atoms: C_6  and  C_10
    5  A    between atoms: C_6  and  C_22
    6  A    between atoms: N_7  and  C_32
    7  A    between atoms: C_9  and  C_21
    8  A    between atoms: C_9  and  N_31
    9  A    between atoms: O_11  and  C_36
   10  A    between atoms: O_11  and  C_37
   11  A    between atoms: C_13  and  C_30
   12  A    between atoms: C_21  and  C_28
   13  A    between atoms: C_24  and  C_36
   14  A    between atoms: C_25  and  C_34
   15  A    between atoms: P_26  and  O_33
   16  A    between atoms: C_30  and  C_32
   17  A    between atoms: O_33  and  C_35
   18  A    between atoms: C_34  and  C_35
                            x       y       z     vdW  Elec       q    Type
                         _______ _______ _______ _____ _____    ______ ____

>  <TORSDO>
F 18

$$$$
=
 OpenBabel10222421123D

 37 38  0  0  1  0  0  0  0  0999 V2000
  190.1710  176.7130  140.5500 C   0  0  0  0  0  2  0  0  0  0  0  0
  191.6980  177.4700  142.3250 C   0  0  0  0  0  1  0  0  0  0  0  0
  190.0480  175.7280  142.8320 C   0  0  0  0  0  1  0  0  0  0  0  0
  190.2770  177.0120  142.0480 C   0  0  0  0  0  0  0  0  0  0  0  0
  188.3170  178.5500  141.3660 C   0  0  0  0  0  1  0  0  0  0  0  0
  189.2450  178.0800  142.4830 C   0  0  1  0  0  3  0  0  0  0  0  0
  188.9140  177.9590  145.0380 C   0  0  0  0  0  0  0  0  0  0  0  0
  188.4960  177.7180  143.6890 N   0  0  0  0  0  2  0  0  0  0  0  0
  190.0380  178.4690  145.2850 O   0  0  0  0  0  0  0  0  0  0  0  0
  188.0320  177.5500  146.1700 C   0  0  0  0  0  2  0  0  0  0  0  0
  186.5650  177.5370  145.7500 C   0  0  0  0  0  2  0  0  0  0  0  0
  185.8480  178.8100  146.1760 C   0  0  0  0  0  2  0  0  0  0  0  0
  182.4920  178.8800  144.7180 O   0  0  0  0  0  0  0  0  0  0  0  0
  183.7430  179.0040  144.7930 C   0  0  0  0  0  0  0  0  0  0  0  0
  184.4100  178.6610  146.0080 N   0  0  0  0  0  2  0  0  0  0  0  0
  184.5030  179.5260  143.6170 C   0  0  0  0  0  2  0  0  0  0  0  0
  184.8810  179.1380  141.3070 O   0  0  0  0  0  0  0  0  0  0  0  0
  183.9910  178.9030  142.3300 C   0  0  0  0  0  3  0  0  0  0  0  0
  184.8790  177.9400  141.9100 O   0  0  0  0  0  0  0  0  0  0  0  0
  191.6780  177.1690  139.6230 S   0  0  0  0  0  0  0  0  0  0  0  0
  190.8560  176.9230  138.0090 C   0  0  2  0  0  3  0  0  0  0  0  0
  187.4510  175.3570  137.0400 C   0  0  0  0  0  0  0  0  0  0  0  0
  188.4150  177.4410  137.5970 C   0  0  0  0  0  2  0  0  0  0  0  0
  189.1400  174.8610  137.3140 S   0  0  0  0  0  0  0  0  0  0  0  0
  186.4040  174.3320  136.7590 C   0  0  0  0  0  1  0  0  0  0  0  0
  187.2160  176.6570  137.2010 C   0  0  0  0  0  0  0  0  0  0  0  0
  189.4120  176.4440  138.1790 C   0  0  1  0  0  3  0  0  0  0  0  0
  185.4380  177.5630  135.8880 O   0  0  0  0  0  0  0  0  0  0  0  0
  185.9060  177.3260  137.0350 C   0  0  0  0  0  0  0  0  0  0  0  0
  185.1900  177.7070  138.1730 O   0  0  0  0  0  0  0  0  0  0  0  0
  182.9210  178.4720  138.0760 C   0  0  0  0  0  1  0  0  0  0  0  0
  183.8440  177.3100  138.3800 C   0  0  0  0  0  2  0  0  0  0  0  0
  191.6630  175.9460  137.1570 C   0  0  0  0  0  2  0  0  0  0  0  0
  192.9980  175.9160  137.5690 O   0  0  0  0  0  0  0  0  0  0  0  0
  193.1840  176.2540  134.8180 O   0  0  0  0  0  0  0  0  0  0  0  0
  195.4020  175.9920  136.1830 O   0  0  0  0  0  0  0  0  0  0  0  0
  193.8940  176.0600  136.1400 P   0  0  0  0  0  0  0  0  0  0  0  0
  1  4  1  0  0  0  0
  4  2  1  0  0  0  0
  4  6  1  0  0  0  0
  4  3  1  0  0  0  0
  6  5  1  6  0  0  0
  6  8  1  0  0  0  0
  7  9  2  0  0  0  0
  7 10  1  0  0  0  0
  8  7  1  0  0  0  0
 11 10  1  0  0  0  0
 11 12  1  0  0  0  0
 13 14  2  0  0  0  0
 14 15  1  0  0  0  0
 15 12  1  0  0  0  0
 16 14  1  0  0  0  0
 17 19  1  0  0  0  0
 17 18  1  0  0  0  0
 18 16  1  0  0  0  0
 19 18  1  0  0  0  0
 20  1  1  0  0  0  0
 21 33  1  6  0  0  0
 21 20  1  0  0  0  0
 22 26  2  0  0  0  0
 22 24  1  0  0  0  0
 23 27  1  0  0  0  0
 24 27  1  0  0  0  0
 25 22  1  0  0  0  0
 26 23  1  0  0  0  0
 27 21  1  6  0  0  0
 28 29  2  0  0  0  0
 29 26  1  0  0  0  0
 29 30  1  0  0  0  0
 30 32  1  0  0  0  0
 31 32  1  0  0  0  0
 33 34  1  0  0  0  0
 35 37  2  0  0  0  0
 37 36  2  0  0  0  0
 37 34  1  0  0  0  0
M  END
>  <MODEL>
7

>  <REMARK>
 VINA RESULT:      -6.2      2.435      5.211
  Name = 
  18 active torsions:
  status: ('A' for Active; 'I' for Inactive)
    1  A    between atoms: C_1  and  C_28
    2  A    between atoms: S_4  and  C_13
    3  A    between atoms: S_4  and  C_34
    4  A    between atoms: C_6  and  C_10
    5  A    between atoms: C_6  and  C_22
    6  A    between atoms: N_7  and  C_32
    7  A    between atoms: C_9  and  C_21
    8  A    between atoms: C_9  and  N_31
    9  A    between atoms: O_11  and  C_36
   10  A    between atoms: O_11  and  C_37
   11  A    between atoms: C_13  and  C_30
   12  A    between atoms: C_21  and  C_28
   13  A    between atoms: C_24  and  C_36
   14  A    between atoms: C_25  and  C_34
   15  A    between atoms: P_26  and  O_33
   16  A    between atoms: C_30  and  C_32
   17  A    between atoms: O_33  and  C_35
   18  A    between atoms: C_34  and  C_35
                            x       y       z     vdW  Elec       q    Type
                         _______ _______ _______ _____ _____    ______ ____

>  <TORSDO>
F 18

$$$$
=
 OpenBabel10222421123D

 37 38  0  0  1  0  0  0  0  0999 V2000
  188.8870  177.9450  139.6290 C   0  0  0  0  0  2  0  0  0  0  0  0
  189.0420  179.1410  137.4850 C   0  0  0  0  0  1  0  0  0  0  0  0
  186.9330  178.0480  138.0930 C   0  0  0  0  0  1  0  0  0  0  0  0
  188.4470  177.9190  138.1630 C   0  0  0  0  0  0  0  0  0  0  0  0
  188.2290  176.3630  136.1130 C   0  0  0  0  0  1  0  0  0  0  0  0
  188.8930  176.6130  137.4640 C   0  0  1  0  0  3  0  0  0  0  0  0
  191.0700  175.2360  137.6090 C   0  0  0  0  0  0  0  0  0  0  0  0
  190.3480  176.4530  137.3870 N   0  0  0  0  0  2  0  0  0  0  0  0
  190.4720  174.1850  137.9610 O   0  0  0  0  0  0  0  0  0  0  0  0
  192.5550  175.2220  137.4740 C   0  0  0  0  0  2  0  0  0  0  0  0
  193.0440  173.9030  136.8850 C   0  0  0  0  0  2  0  0  0  0  0  0
  194.5450  173.7270  137.0700 C   0  0  0  0  0  2  0  0  0  0  0  0
  196.6140  174.7200  139.9210 O   0  0  0  0  0  0  0  0  0  0  0  0
  196.3130  174.2150  138.8080 C   0  0  0  0  0  0  0  0  0  0  0  0
  194.9700  174.3160  138.3320 N   0  0  0  0  0  2  0  0  0  0  0  0
  197.3610  173.5020  138.0150 C   0  0  0  0  0  2  0  0  0  0  0  0
  197.7640  174.7930  136.0670 O   0  0  0  0  0  0  0  0  0  0  0  0
  198.2680  174.4970  137.3130 C   0  0  0  0  0  3  0  0  0  0  0  0
  197.5680  175.6560  137.0750 O   0  0  0  0  0  0  0  0  0  0  0  0
  187.5960  178.5850  140.7510 S   0  0  0  0  0  0  0  0  0  0  0  0
  188.1300  177.4960  142.1190 C   0  0  2  0  0  3  0  0  0  0  0  0
  185.2400  178.5630  144.4610 C   0  0  0  0  0  0  0  0  0  0  0  0
  187.5070  177.9030  144.5360 C   0  0  0  0  0  2  0  0  0  0  0  0
  185.5480  178.2990  142.7270 S   0  0  0  0  0  0  0  0  0  0  0  0
  183.8660  178.9000  144.9360 C   0  0  0  0  0  1  0  0  0  0  0  0
  186.2840  178.3450  145.2570 C   0  0  0  0  0  0  0  0  0  0  0  0
  187.0440  177.3600  143.1880 C   0  0  1  0  0  3  0  0  0  0  0  0
  185.6790  179.4360  147.2930 O   0  0  0  0  0  0  0  0  0  0  0  0
  186.2960  178.4910  146.7290 C   0  0  0  0  0  0  0  0  0  0  0  0
  187.0130  177.5690  147.4960 O   0  0  0  0  0  0  0  0  0  0  0  0
  189.0970  178.1980  148.5000 C   0  0  0  0  0  1  0  0  0  0  0  0
  188.4210  177.4330  147.3810 C   0  0  0  0  0  2  0  0  0  0  0  0
  189.4330  178.0170  142.7210 C   0  0  0  0  0  2  0  0  0  0  0  0
  190.3430  176.9740  142.9100 O   0  0  0  0  0  0  0  0  0  0  0  0
  191.6290  176.5470  145.3350 O   0  0  0  0  0  0  0  0  0  0  0  0
  191.9040  178.8830  144.1850 O   0  0  0  0  0  0  0  0  0  0  0  0
  191.3280  177.4860  144.1870 P   0  0  0  0  0  0  0  0  0  0  0  0
  1 20  1  0  0  0  0
  2  4  1  0  0  0  0
  3  4  1  0  0  0  0
  4  1  1  0  0  0  0
  6  5  1  6  0  0  0
  6  4  1  0  0  0  0
  7  9  2  0  0  0  0
  8  6  1  0  0  0  0
  8  7  1  0  0  0  0
 10  7  1  0  0  0  0
 11 12  1  0  0  0  0
 11 10  1  0  0  0  0
 12 15  1  0  0  0  0
 14 13  2  0  0  0  0
 15 14  1  0  0  0  0
 16 14  1  0  0  0  0
 17 19  1  0  0  0  0
 17 18  1  0  0  0  0
 18 16  1  0  0  0  0
 19 18  1  0  0  0  0
 20 21  1  0  0  0  0
 21 33  1  1  0  0  0
 22 25  1  0  0  0  0
 22 26  2  0  0  0  0
 23 26  1  0  0  0  0
 24 27  1  0  0  0  0
 24 22  1  0  0  0  0
 26 29  1  0  0  0  0
 27 21  1  6  0  0  0
 27 23  1  0  0  0  0
 29 28  2  0  0  0  0
 29 30  1  0  0  0  0
 32 30  1  0  0  0  0
 32 31  1  0  0  0  0
 33 34  1  0  0  0  0
 34 37  1  0  0  0  0
 36 37  2  0  0  0  0
 37 35  2  0  0  0  0
M  END
>  <MODEL>
8

>  <REMARK>
 VINA RESULT:      -6.1      3.739     10.664
  Name = 
  18 active torsions:
  status: ('A' for Active; 'I' for Inactive)
    1  A    between atoms: C_1  and  C_28
    2  A    between atoms: S_4  and  C_13
    3  A    between atoms: S_4  and  C_34
    4  A    between atoms: C_6  and  C_10
    5  A    between atoms: C_6  and  C_22
    6  A    between atoms: N_7  and  C_32
    7  A    between atoms: C_9  and  C_21
    8  A    between atoms: C_9  and  N_31
    9  A    between atoms: O_11  and  C_36
   10  A    between atoms: O_11  and  C_37
   11  A    between atoms: C_13  and  C_30
   12  A    between atoms: C_21  and  C_28
   13  A    between atoms: C_24  and  C_36
   14  A    between atoms: C_25  and  C_34
   15  A    between atoms: P_26  and  O_33
   16  A    between atoms: C_30  and  C_32
   17  A    between atoms: O_33  and  C_35
   18  A    between atoms: C_34  and  C_35
                            x       y       z     vdW  Elec       q    Type
                         _______ _______ _______ _____ _____    ______ ____

>  <TORSDO>
F 18

$$$$
=
 OpenBabel10222421123D

 37 38  0  0  1  0  0  0  0  0999 V2000
  188.1190  177.0300  138.1700 C   0  0  0  0  0  2  0  0  0  0  0  0
  189.3960  177.4970  136.1200 C   0  0  0  0  0  1  0  0  0  0  0  0
  187.3450  178.7660  136.5650 C   0  0  0  0  0  1  0  0  0  0  0  0
  187.9920  177.3940  136.6890 C   0  0  0  0  0  0  0  0  0  0  0  0
  187.9650  175.3780  135.0750 C   0  0  0  0  0  1  0  0  0  0  0  0
  187.1480  176.3480  135.9220 C   0  0  1  0  0  3  0  0  0  0  0  0
  184.7890  175.9690  136.8950 C   0  0  0  0  0  0  0  0  0  0  0  0
  186.1780  175.6430  136.7640 N   0  0  0  0  0  2  0  0  0  0  0  0
  184.3030  176.9720  136.3100 O   0  0  0  0  0  0  0  0  0  0  0  0
  183.9160  175.1430  137.7790 C   0  0  0  0  0  2  0  0  0  0  0  0
  182.6070  175.8630  138.0900 C   0  0  0  0  0  2  0  0  0  0  0  0
  182.3700  175.9730  139.5890 C   0  0  0  0  0  2  0  0  0  0  0  0
  181.0770  179.1750  140.8000 O   0  0  0  0  0  0  0  0  0  0  0  0
  181.9080  178.2630  140.5510 C   0  0  0  0  0  0  0  0  0  0  0  0
  181.4710  177.0810  139.8790 N   0  0  0  0  0  2  0  0  0  0  0  0
  183.3300  178.4240  140.9820 C   0  0  0  0  0  2  0  0  0  0  0  0
  185.4030  179.4140  140.3900 O   0  0  0  0  0  0  0  0  0  0  0  0
  184.1110  179.2260  139.9550 C   0  0  0  0  0  3  0  0  0  0  0  0
  185.1520  178.4610  139.4810 O   0  0  0  0  0  0  0  0  0  0  0  0
  188.7590  178.4030  139.1910 S   0  0  0  0  0  0  0  0  0  0  0  0
  189.2070  177.2810  140.5630 C   0  0  2  0  0  3  0  0  0  0  0  0
  188.9400  177.5550  144.4150 C   0  0  0  0  0  0  0  0  0  0  0  0
  187.5760  177.4440  142.4890 C   0  0  0  0  0  2  0  0  0  0  0  0
  190.1890  177.4560  143.1480 S   0  0  0  0  0  0  0  0  0  0  0  0
  189.3320  177.7530  145.8410 C   0  0  0  0  0  1  0  0  0  0  0  0
  187.6860  177.5310  143.9690 C   0  0  0  0  0  0  0  0  0  0  0  0
  188.9140  177.9130  141.9260 C   0  0  1  0  0  3  0  0  0  0  0  0
  186.5070  177.3030  146.0340 O   0  0  0  0  0  0  0  0  0  0  0  0
  186.4690  177.5990  144.8070 C   0  0  0  0  0  0  0  0  0  0  0  0
  185.2620  177.9870  144.2200 O   0  0  0  0  0  0  0  0  0  0  0  0
  183.1670  179.0710  144.6460 C   0  0  0  0  0  1  0  0  0  0  0  0
  184.6640  179.2440  144.4950 C   0  0  0  0  0  2  0  0  0  0  0  0
  190.6750  176.8770  140.4470 C   0  0  0  0  0  2  0  0  0  0  0  0
  191.2830  177.5230  139.3680 O   0  0  0  0  0  0  0  0  0  0  0  0
  193.4700  176.4700  138.0180 O   0  0  0  0  0  0  0  0  0  0  0  0
  191.3090  175.0040  138.2030 O   0  0  0  0  0  0  0  0  0  0  0  0
  192.0470  176.2880  138.5000 P   0  0  0  0  0  0  0  0  0  0  0  0
  1 20  1  0  0  0  0
  2  4  1  0  0  0  0
  3  4  1  0  0  0  0
  4  1  1  0  0  0  0
  6  5  1  1  0  0  0
  6  4  1  0  0  0  0
  6  8  1  0  0  0  0
  7 10  1  0  0  0  0
  8  7  1  0  0  0  0
  9  7  2  0  0  0  0
 10 11  1  0  0  0  0
 11 12  1  0  0  0  0
 12 15  1  0  0  0  0
 14 13  2  0  0  0  0
 14 16  1  0  0  0  0
 15 14  1  0  0  0  0
 18 17  1  0  0  0  0
 18 16  1  0  0  0  0
 19 18  1  0  0  0  0
 19 17  1  0  0  0  0
 20 21  1  0  0  0  0
 21 33  1  1  0  0  0
 22 25  1  0  0  0  0
 23 26  1  0  0  0  0
 24 22  1  0  0  0  0
 26 22  2  0  0  0  0
 26 29  1  0  0  0  0
 27 21  1  6  0  0  0
 27 23  1  0  0  0  0
 27 24  1  0  0  0  0
 29 28  2  0  0  0  0
 30 32  1  0  0  0  0
 30 29  1  0  0  0  0
 32 31  1  0  0  0  0
 34 33  1  0  0  0  0
 35 37  2  0  0  0  0
 36 37  2  0  0  0  0
 37 34  1  0  0  0  0
M  END
>  <MODEL>
9

>  <REMARK>
 VINA RESULT:      -6.1      3.586      8.138
  Name = 
  18 active torsions:
  status: ('A' for Active; 'I' for Inactive)
    1  A    between atoms: C_1  and  C_28
    2  A    between atoms: S_4  and  C_13
    3  A    between atoms: S_4  and  C_34
    4  A    between atoms: C_6  and  C_10
    5  A    between atoms: C_6  and  C_22
    6  A    between atoms: N_7  and  C_32
    7  A    between atoms: C_9  and  C_21
    8  A    between atoms: C_9  and  N_31
    9  A    between atoms: O_11  and  C_36
   10  A    between atoms: O_11  and  C_37
   11  A    between atoms: C_13  and  C_30
   12  A    between atoms: C_21  and  C_28
   13  A    between atoms: C_24  and  C_36
   14  A    between atoms: C_25  and  C_34
   15  A    between atoms: P_26  and  O_33
   16  A    between atoms: C_30  and  C_32
   17  A    between atoms: O_33  and  C_35
   18  A    between atoms: C_34  and  C_35
                            x       y       z     vdW  Elec       q    Type
                         _______ _______ _______ _____ _____    ______ ____

>  <TORSDO>
F 18

$$$$
