=
 OpenBabel10222415493D

 31 34  0  0  1  0  0  0  0  0999 V2000
  190.3740  174.3530  137.1920 C   0  0  0  0  0  3  0  0  0  0  0  0
  188.4320  179.2000  137.2620 C   0  0  0  0  0  3  0  0  0  0  0  0
  189.2450  178.4260  138.1590 N   0  0  0  0  0  0  0  0  0  0  0  0
  187.2890  176.4270  137.1460 N   0  0  0  0  0  0  0  0  0  0  0  0
  191.5410  175.1200  137.5340 N   0  0  0  0  0  0  0  0  0  0  0  0
  185.1580  177.5000  136.9320 C   0  0  0  0  0  1  0  0  0  0  0  0
  190.3340  176.5010  139.1330 C   0  0  2  0  0  3  0  0  0  0  0  0
  191.5840  176.0960  138.3930 C   0  0  0  0  0  0  0  0  0  0  0  0
  189.1210  174.8230  137.0790 C   0  0  0  0  0  0  0  0  0  0  0  0
  189.3590  177.1320  138.1880 C   0  0  0  0  0  0  0  0  0  0  0  0
  188.1240  173.8890  136.8150 O   0  0  0  0  0  1  0  0  0  0  0  0
  188.7390  176.2950  137.1020 C   0  0  2  0  0  3  0  0  0  0  0  0
  186.6430  177.5400  136.9810 C   0  0  0  0  0  0  0  0  0  0  0  0
  187.3030  178.7940  136.7580 N   0  0  0  0  0  0  0  0  0  0  0  0
  189.2330  177.2660  141.1110 C   0  0  0  0  0  2  0  0  0  0  0  0
  189.3380  178.1660  142.3420 C   0  0  0  0  0  2  0  0  0  0  0  0
  191.7580  177.4880  142.5020 C   0  0  0  0  0  2  0  0  0  0  0  0
  190.4510  177.6800  143.2720 C   0  0  2  0  0  3  0  0  0  0  0  0
  191.5280  176.6190  141.2670 C   0  0  0  0  0  2  0  0  0  0  0  0
  190.5130  177.2340  140.4020 N   0  0  1  0  0  0  0  0  0  0  0  0
  190.0760  176.4850  143.8910 O   0  0  0  0  0  0  0  0  0  0  0  0
  189.1060  176.8250  144.7130 O   0  0  0  0  0  1  0  0  0  0  0  0
  192.7890  176.7620  138.6130 O   0  0  0  0  0  0  0  0  0  0  0  0
  193.9340  176.3270  138.0690 O   0  0  0  0  0  0  0  0  0  0  0  0
  194.2040  175.1270  138.7300 C   0  0  0  0  0  2  0  0  0  0  0  0
  195.5460  174.5750  138.2810 C   0  0  0  0  0  2  0  0  0  0  0  0
  196.2950  174.0990  139.4340 N   0  0  0  0  0  2  0  0  0  0  0  0
  198.1550  175.5270  138.6480 O   0  0  0  0  0  1  0  0  0  0  0  0
  197.0910  175.9610  140.6730 O   0  0  0  0  0  0  0  0  0  0  0  0
  197.3670  175.0450  139.6940 C   0  0  0  0  0  0  0  0  0  0  0  0
  197.9670  174.9640  140.9230 O   0  0  0  0  0  0  0  0  0  0  0  0
  1  5  1  0  0  0  0
  2  3  1  0  0  0  0
  3 10  2  0  0  0  0
  5  8  2  0  0  0  0
  6 13  1  0  0  0  0
  7 10  1  6  0  0  0
  7 20  1  0  0  0  0
  8 23  1  0  0  0  0
  8  7  1  0  0  0  0
  9  1  2  0  0  0  0
 11  9  1  0  0  0  0
 12  9  1  1  0  0  0
 12  4  1  0  0  0  0
 12 10  1  0  0  0  0
 13  4  2  0  0  0  0
 14 13  1  0  0  0  0
 14  2  2  0  0  0  0
 15 16  1  0  0  0  0
 16 18  1  0  0  0  0
 17 18  1  0  0  0  0
 18 21  1  6  0  0  0
 19 17  1  0  0  0  0
 20 15  1  1  0  0  0
 20 19  1  0  0  0  0
 21 22  1  0  0  0  0
 24 23  1  0  0  0  0
 24 25  1  0  0  0  0
 26 25  1  0  0  0  0
 26 27  1  0  0  0  0
 27 30  1  0  0  0  0
 28 30  1  0  0  0  0
 29 31  1  0  0  0  0
 30 29  1  0  0  0  0
 30 31  1  0  0  0  0
M  END
>  <MODEL>
1

>  <REMARK>
 VINA RESULT:      -6.3      0.000      0.000
  Name = 
  8 active torsions:
  status: ('A' for Active; 'I' for Inactive)
    1  A    between atoms: C_7  and  O_15
    2  A    between atoms: C_7  and  C_20
    3  A    between atoms: O_9  and  C_21
    4  A    between atoms: O_10  and  O_15
    5  A    between atoms: O_10  and  C_16
    6  A    between atoms: C_12  and  N_30
    7  A    between atoms: C_20  and  N_28
    8  A    between atoms: C_22  and  N_28
                            x       y       z     vdW  Elec       q    Type
                         _______ _______ _______ _____ _____    ______ ____

>  <TORSDO>
F 8

$$$$
=
 OpenBabel10222415493D

 31 34  0  0  1  0  0  0  0  0999 V2000
  180.9280  179.5250  143.2130 C   0  0  0  0  0  3  0  0  0  0  0  0
  185.2360  179.1670  140.2840 C   0  0  0  0  0  3  0  0  0  0  0  0
  183.8750  178.7330  140.1330 N   0  0  0  0  0  0  0  0  0  0  0  0
  184.4100  178.2380  143.0160 N   0  0  0  0  0  0  0  0  0  0  0  0
  180.4400  179.9750  141.9380 N   0  0  0  0  0  0  0  0  0  0  0  0
  186.6610  177.4470  143.2390 C   0  0  0  0  0  1  0  0  0  0  0  0
  181.5900  178.2080  140.7210 C   0  0  2  0  0  3  0  0  0  0  0  0
  180.7050  179.4290  140.7880 C   0  0  0  0  0  0  0  0  0  0  0  0
  182.1490  179.0240  143.4650 C   0  0  0  0  0  0  0  0  0  0  0  0
  182.9980  178.5740  141.0780 C   0  0  0  0  0  0  0  0  0  0  0  0
  182.3870  178.5750  144.7600 O   0  0  0  0  0  1  0  0  0  0  0  0
  183.3080  179.0240  142.4800 C   0  0  2  0  0  3  0  0  0  0  0  0
  185.6050  178.2010  142.5120 C   0  0  0  0  0  0  0  0  0  0  0  0
  185.9710  178.9260  141.3310 N   0  0  0  0  0  0  0  0  0  0  0  0
  182.2510  176.1360  139.7310 C   0  0  0  0  0  2  0  0  0  0  0  0
  182.2910  175.3130  138.4440 C   0  0  0  0  0  2  0  0  0  0  0  0
  180.0010  176.2180  137.9170 C   0  0  0  0  0  2  0  0  0  0  0  0
  180.8750  174.9650  137.9820 C   0  0  2  0  0  3  0  0  0  0  0  0
  180.0760  176.9910  139.2320 C   0  0  0  0  0  2  0  0  0  0  0  0
  181.4680  177.3560  139.5220 N   0  0  1  0  0  0  0  0  0  0  0  0
  180.3030  174.0230  138.8410 O   0  0  0  0  0  0  0  0  0  0  0  0
  179.5380  173.2860  138.0650 O   0  0  0  0  0  1  0  0  0  0  0  0
  180.1710  179.9850  139.6260 O   0  0  0  0  0  0  0  0  0  0  0  0
  180.3130  181.2880  139.3510 O   0  0  0  0  0  0  0  0  0  0  0  0
  181.3940  181.3460  138.4680 C   0  0  0  0  0  2  0  0  0  0  0  0
  180.9890  182.0700  137.1950 C   0  0  0  0  0  2  0  0  0  0  0  0
  180.3380  183.3280  137.5280 N   0  0  0  0  0  2  0  0  0  0  0  0
  182.4220  184.6590  137.5970 O   0  0  0  0  0  1  0  0  0  0  0  0
  181.1100  184.5970  135.6750 O   0  0  0  0  0  0  0  0  0  0  0  0
  181.1720  184.4090  137.0300 C   0  0  0  0  0  0  0  0  0  0  0  0
  180.5160  185.4880  136.4980 O   0  0  0  0  0  0  0  0  0  0  0  0
  1  9  2  0  0  0  0
  2 14  2  0  0  0  0
  3  2  1  0  0  0  0
  3 10  2  0  0  0  0
  5  1  1  0  0  0  0
  7  8  1  6  0  0  0
  7 10  1  0  0  0  0
  8  5  2  0  0  0  0
  9 11  1  0  0  0  0
 12 10  1  6  0  0  0
 12  4  1  0  0  0  0
 12  9  1  0  0  0  0
 13  4  2  0  0  0  0
 13  6  1  0  0  0  0
 14 13  1  0  0  0  0
 16 15  1  0  0  0  0
 17 18  1  0  0  0  0
 17 19  1  0  0  0  0
 18 16  1  0  0  0  0
 18 21  1  1  0  0  0
 20 19  1  1  0  0  0
 20 15  1  0  0  0  0
 20  7  1  0  0  0  0
 22 21  1  0  0  0  0
 23  8  1  0  0  0  0
 24 23  1  0  0  0  0
 25 24  1  0  0  0  0
 26 27  1  0  0  0  0
 26 25  1  0  0  0  0
 29 31  1  0  0  0  0
 29 30  1  0  0  0  0
 30 27  1  0  0  0  0
 30 28  1  0  0  0  0
 31 30  1  0  0  0  0
M  END
>  <MODEL>
2

>  <REMARK>
 VINA RESULT:      -6.2      8.629     12.255
  Name = 
  8 active torsions:
  status: ('A' for Active; 'I' for Inactive)
    1  A    between atoms: C_7  and  O_15
    2  A    between atoms: C_7  and  C_20
    3  A    between atoms: O_9  and  C_21
    4  A    between atoms: O_10  and  O_15
    5  A    between atoms: O_10  and  C_16
    6  A    between atoms: C_12  and  N_30
    7  A    between atoms: C_20  and  N_28
    8  A    between atoms: C_22  and  N_28
                            x       y       z     vdW  Elec       q    Type
                         _______ _______ _______ _____ _____    ______ ____

>  <TORSDO>
F 8

$$$$
=
 OpenBabel10222415493D

 31 34  0  0  1  0  0  0  0  0999 V2000
  187.1160  178.3550  141.2010 C   0  0  0  0  0  3  0  0  0  0  0  0
  192.0500  178.1580  142.8960 C   0  0  0  0  0  3  0  0  0  0  0  0
  191.3660  177.6810  141.7260 N   0  0  0  0  0  0  0  0  0  0  0  0
  189.3930  177.1860  143.8960 N   0  0  0  0  0  0  0  0  0  0  0  0
  187.8320  178.7980  140.0350 N   0  0  0  0  0  0  0  0  0  0  0  0
  190.5840  176.4680  145.8470 C   0  0  0  0  0  1  0  0  0  0  0  0
  189.5390  177.0780  140.2640 C   0  0  2  0  0  3  0  0  0  0  0  0
  188.9250  178.2680  139.5690 C   0  0  0  0  0  0  0  0  0  0  0  0
  187.6590  177.8940  142.3390 C   0  0  0  0  0  0  0  0  0  0  0  0
  190.0880  177.4870  141.5960 C   0  0  0  0  0  0  0  0  0  0  0  0
  186.7770  177.4440  143.3160 O   0  0  0  0  0  1  0  0  0  0  0  0
  189.1420  177.9380  142.6750 C   0  0  2  0  0  3  0  0  0  0  0  0
  190.5140  177.1910  144.5500 C   0  0  0  0  0  0  0  0  0  0  0  0
  191.6600  177.9360  144.1170 N   0  0  0  0  0  0  0  0  0  0  0  0
  189.6990  175.6790  138.3330 C   0  0  0  0  0  2  0  0  0  0  0  0
  190.5570  174.6570  137.5870 C   0  0  0  0  0  2  0  0  0  0  0  0
  192.5700  176.0160  138.2550 C   0  0  0  0  0  2  0  0  0  0  0  0
  191.8600  175.2970  137.1070 C   0  0  2  0  0  3  0  0  0  0  0  0
  191.6090  176.9700  138.9620 C   0  0  0  0  0  2  0  0  0  0  0  0
  190.4460  176.2290  139.4660 N   0  0  1  0  0  0  0  0  0  0  0  0
  191.6060  176.1900  136.0630 O   0  0  0  0  0  0  0  0  0  0  0  0
  192.6280  176.0500  135.2470 O   0  0  0  0  0  1  0  0  0  0  0  0
  189.5200  178.8130  138.4330 O   0  0  0  0  0  0  0  0  0  0  0  0
  188.7890  179.4210  137.4890 O   0  0  0  0  0  0  0  0  0  0  0  0
  188.5960  178.4450  136.5090 C   0  0  0  0  0  2  0  0  0  0  0  0
  187.1110  178.2510  136.2530 C   0  0  0  0  0  2  0  0  0  0  0  0
  186.6320  177.0860  136.9810 N   0  0  0  0  0  2  0  0  0  0  0  0
  185.0140  178.4480  138.2640 O   0  0  0  0  0  1  0  0  0  0  0  0
  184.3080  177.1140  136.4910 O   0  0  0  0  0  0  0  0  0  0  0  0
  185.2760  177.3630  137.4270 C   0  0  0  0  0  0  0  0  0  0  0  0
  184.4420  176.2830  137.5480 O   0  0  0  0  0  0  0  0  0  0  0  0
  1  9  2  0  0  0  0
  2 14  2  0  0  0  0
  3  2  1  0  0  0  0
  4 13  2  0  0  0  0
  5  1  1  0  0  0  0
  7  8  1  6  0  0  0
  7 10  1  0  0  0  0
  8  5  2  0  0  0  0
  9 12  1  0  0  0  0
  9 11  1  0  0  0  0
 10  3  2  0  0  0  0
 12 10  1  6  0  0  0
 12  4  1  0  0  0  0
 13  6  1  0  0  0  0
 14 13  1  0  0  0  0
 16 15  1  0  0  0  0
 17 19  1  0  0  0  0
 18 21  1  6  0  0  0
 18 16  1  0  0  0  0
 18 17  1  0  0  0  0
 19 20  1  0  0  0  0
 20 15  1  6  0  0  0
 20  7  1  0  0  0  0
 22 21  1  0  0  0  0
 23  8  1  0  0  0  0
 24 23  1  0  0  0  0
 25 24  1  0  0  0  0
 26 25  1  0  0  0  0
 26 27  1  0  0  0  0
 27 30  1  0  0  0  0
 29 30  1  0  0  0  0
 29 31  1  0  0  0  0
 30 31  1  0  0  0  0
 30 28  1  0  0  0  0
M  END
>  <MODEL>
3

>  <REMARK>
 VINA RESULT:      -6.2      3.244      7.836
  Name = 
  8 active torsions:
  status: ('A' for Active; 'I' for Inactive)
    1  A    between atoms: C_7  and  O_15
    2  A    between atoms: C_7  and  C_20
    3  A    between atoms: O_9  and  C_21
    4  A    between atoms: O_10  and  O_15
    5  A    between atoms: O_10  and  C_16
    6  A    between atoms: C_12  and  N_30
    7  A    between atoms: C_20  and  N_28
    8  A    between atoms: C_22  and  N_28
                            x       y       z     vdW  Elec       q    Type
                         _______ _______ _______ _____ _____    ______ ____

>  <TORSDO>
F 8

$$$$
=
 OpenBabel10222415493D

 31 34  0  0  1  0  0  0  0  0999 V2000
  182.2510  180.6220  138.3680 C   0  0  0  0  0  3  0  0  0  0  0  0
  181.7690  175.5840  139.6520 C   0  0  0  0  0  3  0  0  0  0  0  0
  182.8480  176.4030  139.1750 N   0  0  0  0  0  0  0  0  0  0  0  0
  180.5130  177.4180  137.6360 N   0  0  0  0  0  0  0  0  0  0  0  0
  183.3850  180.4410  139.2340 N   0  0  0  0  0  0  0  0  0  0  0  0
  179.1220  175.5540  137.0620 C   0  0  0  0  0  1  0  0  0  0  0  0
  183.9890  178.3100  138.2250 C   0  0  2  0  0  3  0  0  0  0  0  0
  184.1980  179.4260  139.2190 C   0  0  0  0  0  0  0  0  0  0  0  0
  181.4190  179.6590  137.9400 C   0  0  0  0  0  0  0  0  0  0  0  0
  182.7470  177.5460  138.5640 C   0  0  0  0  0  0  0  0  0  0  0  0
  180.4280  180.0420  137.0410 O   0  0  0  0  0  1  0  0  0  0  0  0
  181.4090  178.2270  138.4510 C   0  0  2  0  0  3  0  0  0  0  0  0
  180.1370  176.2110  137.9270 C   0  0  0  0  0  0  0  0  0  0  0  0
  180.5950  175.5170  139.0950 N   0  0  0  0  0  0  0  0  0  0  0  0
  184.9330  176.8170  136.6160 C   0  0  0  0  0  2  0  0  0  0  0  0
  186.0400  175.7990  136.3410 C   0  0  0  0  0  2  0  0  0  0  0  0
  187.5910  177.2900  137.6490 C   0  0  0  0  0  2  0  0  0  0  0  0
  187.4110  176.4750  136.3680 C   0  0  2  0  0  3  0  0  0  0  0  0
  186.4070  178.2330  137.8530 C   0  0  0  0  0  2  0  0  0  0  0  0
  185.1570  177.4650  137.9100 N   0  0  1  0  0  0  0  0  0  0  0  0
  187.5690  177.2950  135.2490 O   0  0  0  0  0  0  0  0  0  0  0  0
  188.7960  177.7620  135.3470 O   0  0  0  0  0  1  0  0  0  0  0  0
  185.2510  179.3780  140.1310 O   0  0  0  0  0  0  0  0  0  0  0  0
  185.0530  179.6130  141.4350 O   0  0  0  0  0  0  0  0  0  0  0  0
  185.4510  178.4350  142.0700 C   0  0  0  0  0  2  0  0  0  0  0  0
  184.6940  178.2650  143.3750 C   0  0  0  0  0  2  0  0  0  0  0  0
  185.5930  178.4800  144.5000 N   0  0  0  0  0  2  0  0  0  0  0  0
  183.4900  179.3540  145.4640 O   0  0  0  0  0  1  0  0  0  0  0  0
  184.9780  178.1240  146.7660 O   0  0  0  0  0  0  0  0  0  0  0  0
  184.7920  178.8850  145.6430 C   0  0  0  0  0  0  0  0  0  0  0  0
  185.4760  179.3790  146.7220 O   0  0  0  0  0  0  0  0  0  0  0  0
  1  5  1  0  0  0  0
  3  2  1  0  0  0  0
  4 13  2  0  0  0  0
  6 13  1  0  0  0  0
  7 10  1  1  0  0  0
  7  8  1  0  0  0  0
  8  5  2  0  0  0  0
  8 23  1  0  0  0  0
  9  1  2  0  0  0  0
  9 12  1  0  0  0  0
 10  3  2  0  0  0  0
 11  9  1  0  0  0  0
 12  4  1  6  0  0  0
 12 10  1  0  0  0  0
 13 14  1  0  0  0  0
 14  2  2  0  0  0  0
 16 18  1  0  0  0  0
 16 15  1  0  0  0  0
 17 19  1  0  0  0  0
 18 21  1  6  0  0  0
 18 17  1  0  0  0  0
 19 20  1  0  0  0  0
 20 15  1  6  0  0  0
 20  7  1  0  0  0  0
 21 22  1  0  0  0  0
 23 24  1  0  0  0  0
 24 25  1  0  0  0  0
 25 26  1  0  0  0  0
 26 27  1  0  0  0  0
 27 30  1  0  0  0  0
 28 30  1  0  0  0  0
 30 31  1  0  0  0  0
 30 29  1  0  0  0  0
 31 29  1  0  0  0  0
M  END
>  <MODEL>
4

>  <REMARK>
 VINA RESULT:      -6.2      6.033      9.509
  Name = 
  8 active torsions:
  status: ('A' for Active; 'I' for Inactive)
    1  A    between atoms: C_7  and  O_15
    2  A    between atoms: C_7  and  C_20
    3  A    between atoms: O_9  and  C_21
    4  A    between atoms: O_10  and  O_15
    5  A    between atoms: O_10  and  C_16
    6  A    between atoms: C_12  and  N_30
    7  A    between atoms: C_20  and  N_28
    8  A    between atoms: C_22  and  N_28
                            x       y       z     vdW  Elec       q    Type
                         _______ _______ _______ _____ _____    ______ ____

>  <TORSDO>
F 8

$$$$
=
 OpenBabel10222415493D

 31 34  0  0  1  0  0  0  0  0999 V2000
  186.0470  178.8260  141.6300 C   0  0  0  0  0  3  0  0  0  0  0  0
  188.5490  178.8620  137.0480 C   0  0  0  0  0  3  0  0  0  0  0  0
  187.2110  178.5470  137.4630 N   0  0  0  0  0  0  0  0  0  0  0  0
  188.8680  177.4200  139.6610 N   0  0  0  0  0  0  0  0  0  0  0  0
  185.1240  179.5640  140.8110 N   0  0  0  0  0  0  0  0  0  0  0  0
  190.8500  176.4760  138.7010 C   0  0  0  0  0  1  0  0  0  0  0  0
  185.3600  178.0370  138.9310 C   0  0  2  0  0  3  0  0  0  0  0  0
  184.7800  179.2620  139.5940 C   0  0  0  0  0  0  0  0  0  0  0  0
  187.1680  178.2170  141.2120 C   0  0  0  0  0  0  0  0  0  0  0  0
  186.8190  178.2390  138.6630 C   0  0  0  0  0  0  0  0  0  0  0  0
  187.8770  177.4900  142.1630 O   0  0  0  0  0  1  0  0  0  0  0  0
  187.7700  178.3620  139.8230 C   0  0  2  0  0  3  0  0  0  0  0  0
  189.7060  177.4250  138.6690 C   0  0  0  0  0  0  0  0  0  0  0  0
  189.6230  178.3640  137.5890 N   0  0  0  0  0  0  0  0  0  0  0  0
  185.3840  176.3690  137.2190 C   0  0  0  0  0  2  0  0  0  0  0  0
  184.7170  175.8730  135.9360 C   0  0  0  0  0  2  0  0  0  0  0  0
  182.5070  176.5040  136.9650 C   0  0  0  0  0  2  0  0  0  0  0  0
  183.2830  175.4210  136.2150 C   0  0  2  0  0  3  0  0  0  0  0  0
  183.2860  176.9630  138.1960 C   0  0  0  0  0  2  0  0  0  0  0  0
  184.6060  177.4670  137.7970 N   0  0  1  0  0  0  0  0  0  0  0  0
  183.2840  174.2330  136.9490 O   0  0  0  0  0  0  0  0  0  0  0  0
  182.0310  173.8320  136.9360 O   0  0  0  0  0  1  0  0  0  0  0  0
  183.8810  180.0810  138.9120 O   0  0  0  0  0  0  0  0  0  0  0  0
  182.6110  180.2080  139.3180 O   0  0  0  0  0  0  0  0  0  0  0  0
  181.9320  180.7010  138.2010 C   0  0  0  0  0  2  0  0  0  0  0  0
  181.7470  182.2030  138.3250 C   0  0  0  0  0  2  0  0  0  0  0  0
  180.8870  182.6850  137.2540 N   0  0  0  0  0  2  0  0  0  0  0  0
  182.3760  184.6340  137.5760 O   0  0  0  0  0  1  0  0  0  0  0  0
  181.0630  184.4400  135.6630 O   0  0  0  0  0  0  0  0  0  0  0  0
  181.2610  184.0590  136.9630 C   0  0  0  0  0  0  0  0  0  0  0  0
  180.2420  184.9100  136.6280 O   0  0  0  0  0  0  0  0  0  0  0  0
  2  3  1  0  0  0  0
  2 14  2  0  0  0  0
  3 10  2  0  0  0  0
  4 12  1  0  0  0  0
  5  1  1  0  0  0  0
  7 10  1  6  0  0  0
  7  8  1  0  0  0  0
  8  5  2  0  0  0  0
  9  1  2  0  0  0  0
  9 11  1  0  0  0  0
 12 10  1  6  0  0  0
 12  9  1  0  0  0  0
 13  6  1  0  0  0  0
 13  4  2  0  0  0  0
 14 13  1  0  0  0  0
 16 18  1  0  0  0  0
 16 15  1  0  0  0  0
 17 19  1  0  0  0  0
 18 21  1  1  0  0  0
 18 17  1  0  0  0  0
 20 15  1  1  0  0  0
 20 19  1  0  0  0  0
 20  7  1  0  0  0  0
 22 21  1  0  0  0  0
 23 24  1  0  0  0  0
 23  8  1  0  0  0  0
 25 26  1  0  0  0  0
 25 24  1  0  0  0  0
 27 26  1  0  0  0  0
 29 31  1  0  0  0  0
 29 30  1  0  0  0  0
 30 27  1  0  0  0  0
 30 28  1  0  0  0  0
 31 30  1  0  0  0  0
M  END
>  <MODEL>
5

>  <REMARK>
 VINA RESULT:      -6.2      5.615     10.607
  Name = 
  8 active torsions:
  status: ('A' for Active; 'I' for Inactive)
    1  A    between atoms: C_7  and  O_15
    2  A    between atoms: C_7  and  C_20
    3  A    between atoms: O_9  and  C_21
    4  A    between atoms: O_10  and  O_15
    5  A    between atoms: O_10  and  C_16
    6  A    between atoms: C_12  and  N_30
    7  A    between atoms: C_20  and  N_28
    8  A    between atoms: C_22  and  N_28
                            x       y       z     vdW  Elec       q    Type
                         _______ _______ _______ _____ _____    ______ ____

>  <TORSDO>
F 8

$$$$
=
 OpenBabel10222415493D

 31 34  0  0  1  0  0  0  0  0999 V2000
  184.0970  177.1030  137.6890 C   0  0  0  0  0  3  0  0  0  0  0  0
  180.9890  181.2340  136.9570 C   0  0  0  0  0  3  0  0  0  0  0  0
  181.4800  180.5340  138.1110 N   0  0  0  0  0  0  0  0  0  0  0  0
  180.9280  178.3340  136.1870 N   0  0  0  0  0  0  0  0  0  0  0  0
  184.6780  178.0560  138.5950 N   0  0  0  0  0  0  0  0  0  0  0  0
  178.9320  178.8750  134.9780 C   0  0  0  0  0  1  0  0  0  0  0  0
  182.5120  178.7900  139.4280 C   0  0  2  0  0  3  0  0  0  0  0  0
  184.0190  178.8420  139.3950 C   0  0  0  0  0  0  0  0  0  0  0  0
  182.9660  177.2650  136.9840 C   0  0  0  0  0  0  0  0  0  0  0  0
  181.9510  179.3230  138.1460 C   0  0  0  0  0  0  0  0  0  0  0  0
  182.5410  176.1790  136.2240 O   0  0  0  0  0  1  0  0  0  0  0  0
  182.1940  178.5690  136.8670 C   0  0  2  0  0  3  0  0  0  0  0  0
  180.1320  179.2670  135.7620 C   0  0  0  0  0  0  0  0  0  0  0  0
  180.4080  180.6620  135.9430 N   0  0  0  0  0  0  0  0  0  0  0  0
  180.3990  179.2570  140.4420 C   0  0  0  0  0  2  0  0  0  0  0  0
  179.6870  179.9440  141.6070 C   0  0  0  0  0  2  0  0  0  0  0  0
  181.5820  179.1790  143.0790 C   0  0  0  0  0  2  0  0  0  0  0  0
  180.0630  179.2820  142.9340 C   0  0  2  0  0  3  0  0  0  0  0  0
  182.1940  178.5280  141.8410 C   0  0  0  0  0  2  0  0  0  0  0  0
  181.8490  179.3030  140.6430 N   0  0  1  0  0  0  0  0  0  0  0  0
  179.4830  178.0140  143.0240 O   0  0  0  0  0  0  0  0  0  0  0  0
  179.7070  177.6330  144.2640 O   0  0  0  0  0  1  0  0  0  0  0  0
  184.7180  179.7310  140.2110 O   0  0  0  0  0  0  0  0  0  0  0  0
  185.8720  179.3800  140.7930 O   0  0  0  0  0  0  0  0  0  0  0  0
  185.5820  179.3480  142.1590 C   0  0  0  0  0  2  0  0  0  0  0  0
  185.7870  177.9450  142.7030 C   0  0  0  0  0  2  0  0  0  0  0  0
  186.2480  178.0110  144.0820 N   0  0  0  0  0  2  0  0  0  0  0  0
  187.7920  176.2470  143.2930 O   0  0  0  0  0  1  0  0  0  0  0  0
  188.5870  178.0840  144.4820 O   0  0  0  0  0  0  0  0  0  0  0  0
  187.5120  177.2990  144.1680 C   0  0  0  0  0  0  0  0  0  0  0  0
  188.0920  177.2330  145.4070 O   0  0  0  0  0  0  0  0  0  0  0  0
  1  5  1  0  0  0  0
  2  3  1  0  0  0  0
  3 10  2  0  0  0  0
  5  8  2  0  0  0  0
  6 13  1  0  0  0  0
  7 10  1  6  0  0  0
  7 20  1  0  0  0  0
  8  7  1  0  0  0  0
  8 23  1  0  0  0  0
  9  1  2  0  0  0  0
 11  9  1  0  0  0  0
 12  4  1  1  0  0  0
 12  9  1  0  0  0  0
 12 10  1  0  0  0  0
 13 14  1  0  0  0  0
 13  4  2  0  0  0  0
 14  2  2  0  0  0  0
 15 16  1  0  0  0  0
 16 18  1  0  0  0  0
 18 21  1  6  0  0  0
 18 17  1  0  0  0  0
 19 17  1  0  0  0  0
 20 15  1  6  0  0  0
 20 19  1  0  0  0  0
 21 22  1  0  0  0  0
 23 24  1  0  0  0  0
 24 25  1  0  0  0  0
 25 26  1  0  0  0  0
 26 27  1  0  0  0  0
 27 30  1  0  0  0  0
 28 30  1  0  0  0  0
 29 31  1  0  0  0  0
 30 29  1  0  0  0  0
 30 31  1  0  0  0  0
M  END
>  <MODEL>
6

>  <REMARK>
 VINA RESULT:      -6.1      6.689      8.982
  Name = 
  8 active torsions:
  status: ('A' for Active; 'I' for Inactive)
    1  A    between atoms: C_7  and  O_15
    2  A    between atoms: C_7  and  C_20
    3  A    between atoms: O_9  and  C_21
    4  A    between atoms: O_10  and  O_15
    5  A    between atoms: O_10  and  C_16
    6  A    between atoms: C_12  and  N_30
    7  A    between atoms: C_20  and  N_28
    8  A    between atoms: C_22  and  N_28
                            x       y       z     vdW  Elec       q    Type
                         _______ _______ _______ _____ _____    ______ ____

>  <TORSDO>
F 8

$$$$
=
 OpenBabel10222415493D

 31 34  0  0  1  0  0  0  0  0999 V2000
  183.8950  176.6260  136.7600 C   0  0  0  0  0  3  0  0  0  0  0  0
  182.1790  181.2040  138.5940 C   0  0  0  0  0  3  0  0  0  0  0  0
  183.2700  180.3310  138.9250 N   0  0  0  0  0  0  0  0  0  0  0  0
  181.0570  178.4320  138.3420 N   0  0  0  0  0  0  0  0  0  0  0  0
  185.1100  177.3950  136.7820 N   0  0  0  0  0  0  0  0  0  0  0  0
  179.0210  179.3650  139.1940 C   0  0  0  0  0  1  0  0  0  0  0  0
  184.6360  178.3380  138.9750 C   0  0  2  0  0  3  0  0  0  0  0  0
  185.4940  178.1820  137.7440 C   0  0  0  0  0  0  0  0  0  0  0  0
  182.7020  177.0150  137.2390 C   0  0  0  0  0  0  0  0  0  0  0  0
  183.3750  179.0690  138.6330 C   0  0  0  0  0  0  0  0  0  0  0  0
  181.6730  176.0800  137.1870 O   0  0  0  0  0  1  0  0  0  0  0  0
  182.3720  178.4200  137.7180 C   0  0  2  0  0  3  0  0  0  0  0  0
  180.4070  179.5050  138.6770 C   0  0  0  0  0  0  0  0  0  0  0  0
  180.9390  180.8230  138.4880 N   0  0  0  0  0  0  0  0  0  0  0  0
  184.4700  178.4700  141.3550 C   0  0  0  0  0  2  0  0  0  0  0  0
  185.0420  179.1040  142.6230 C   0  0  0  0  0  2  0  0  0  0  0  0
  187.3260  178.8550  141.5910 C   0  0  0  0  0  2  0  0  0  0  0  0
  186.4840  178.6470  142.8510 C   0  0  2  0  0  3  0  0  0  0  0  0
  186.6380  178.2300  140.3790 C   0  0  0  0  0  2  0  0  0  0  0  0
  185.3040  178.8160  140.2020 N   0  0  1  0  0  0  0  0  0  0  0  0
  186.5110  177.3030  143.2320 O   0  0  0  0  0  0  0  0  0  0  0  0
  187.7630  177.0760  143.5670 O   0  0  0  0  0  1  0  0  0  0  0  0
  186.6950  178.8790  137.6210 O   0  0  0  0  0  0  0  0  0  0  0  0
  187.5190  178.6670  136.5850 O   0  0  0  0  0  0  0  0  0  0  0  0
  188.7960  178.9130  137.0950 C   0  0  0  0  0  2  0  0  0  0  0  0
  189.3110  177.6840  137.8250 C   0  0  0  0  0  2  0  0  0  0  0  0
  189.8930  178.0750  139.1000 N   0  0  0  0  0  2  0  0  0  0  0  0
  190.7300  175.7510  138.9680 O   0  0  0  0  0  1  0  0  0  0  0  0
  191.3060  177.1260  140.7570 O   0  0  0  0  0  0  0  0  0  0  0  0
  190.4330  176.8820  139.7310 C   0  0  0  0  0  0  0  0  0  0  0  0
  190.0680  176.6610  141.0320 O   0  0  0  0  0  0  0  0  0  0  0  0
  1  5  1  0  0  0  0
  1  9  2  0  0  0  0
  2  3  1  0  0  0  0
  4 13  2  0  0  0  0
  5  8  2  0  0  0  0
  7  8  1  6  0  0  0
  7 20  1  0  0  0  0
 10  3  2  0  0  0  0
 10  7  1  0  0  0  0
 11  9  1  0  0  0  0
 12  9  1  1  0  0  0
 12  4  1  0  0  0  0
 12 10  1  0  0  0  0
 13  6  1  0  0  0  0
 14  2  2  0  0  0  0
 14 13  1  0  0  0  0
 15 16  1  0  0  0  0
 16 18  1  0  0  0  0
 17 18  1  0  0  0  0
 18 21  1  6  0  0  0
 19 17  1  0  0  0  0
 20 19  1  1  0  0  0
 20 15  1  0  0  0  0
 21 22  1  0  0  0  0
 23  8  1  0  0  0  0
 24 25  1  0  0  0  0
 24 23  1  0  0  0  0
 25 26  1  0  0  0  0
 26 27  1  0  0  0  0
 27 30  1  0  0  0  0
 28 30  1  0  0  0  0
 29 31  1  0  0  0  0
 30 29  1  0  0  0  0
 30 31  1  0  0  0  0
M  END
>  <MODEL>
7

>  <REMARK>
 VINA RESULT:      -6.0      3.867      6.287
  Name = 
  8 active torsions:
  status: ('A' for Active; 'I' for Inactive)
    1  A    between atoms: C_7  and  O_15
    2  A    between atoms: C_7  and  C_20
    3  A    between atoms: O_9  and  C_21
    4  A    between atoms: O_10  and  O_15
    5  A    between atoms: O_10  and  C_16
    6  A    between atoms: C_12  and  N_30
    7  A    between atoms: C_20  and  N_28
    8  A    between atoms: C_22  and  N_28
                            x       y       z     vdW  Elec       q    Type
                         _______ _______ _______ _____ _____    ______ ____

>  <TORSDO>
F 8

$$$$
=
 OpenBabel10222415493D

 31 34  0  0  1  0  0  0  0  0999 V2000
  188.5890  178.7090  139.0550 C   0  0  0  0  0  3  0  0  0  0  0  0
  187.7020  173.8490  137.3640 C   0  0  0  0  0  3  0  0  0  0  0  0
  188.8810  174.6150  137.6560 N   0  0  0  0  0  0  0  0  0  0  0  0
  187.0920  176.6160  136.3720 N   0  0  0  0  0  0  0  0  0  0  0  0
  189.4280  177.9450  139.9380 N   0  0  0  0  0  0  0  0  0  0  0  0
  185.9000  175.5310  134.5990 C   0  0  0  0  0  1  0  0  0  0  0  0
  190.2680  176.5340  138.1420 C   0  0  2  0  0  3  0  0  0  0  0  0
  190.1990  176.9580  139.5880 C   0  0  0  0  0  0  0  0  0  0  0  0
  187.9010  178.2320  138.0040 C   0  0  0  0  0  0  0  0  0  0  0  0
  188.9720  175.9100  137.7270 C   0  0  0  0  0  0  0  0  0  0  0  0
  187.2110  179.1630  137.2340 O   0  0  0  0  0  1  0  0  0  0  0  0
  187.7300  176.7580  137.6740 C   0  0  2  0  0  3  0  0  0  0  0  0
  186.6350  175.5010  135.8910 C   0  0  0  0  0  0  0  0  0  0  0  0
  186.7340  174.2550  136.5950 N   0  0  0  0  0  0  0  0  0  0  0  0
  191.4570  175.6660  136.2590 C   0  0  0  0  0  2  0  0  0  0  0  0
  192.5880  174.7470  135.8010 C   0  0  0  0  0  2  0  0  0  0  0  0
  193.9100  175.5560  137.7850 C   0  0  0  0  0  2  0  0  0  0  0  0
  193.9400  175.2740  136.2830 C   0  0  2  0  0  3  0  0  0  0  0  0
  192.7140  176.4370  138.1400 C   0  0  0  0  0  2  0  0  0  0  0  0
  191.4680  175.7850  137.7190 N   0  0  1  0  0  0  0  0  0  0  0  0
  194.2860  176.4330  135.5820 O   0  0  0  0  0  0  0  0  0  0  0  0
  195.5560  176.6280  135.8660 O   0  0  0  0  0  1  0  0  0  0  0  0
  190.9490  176.2970  140.5600 O   0  0  0  0  0  0  0  0  0  0  0  0
  190.4310  176.0080  141.7610 O   0  0  0  0  0  0  0  0  0  0  0  0
  191.1260  176.8290  142.6520 C   0  0  0  0  0  2  0  0  0  0  0  0
  190.6480  176.5800  144.0720 C   0  0  0  0  0  2  0  0  0  0  0  0
  191.5870  177.1640  145.0180 N   0  0  0  0  0  2  0  0  0  0  0  0
  189.8860  176.7540  146.7660 O   0  0  0  0  0  1  0  0  0  0  0  0
  191.9290  175.6380  146.8050 O   0  0  0  0  0  0  0  0  0  0  0  0
  191.2180  176.7150  146.3510 C   0  0  0  0  0  0  0  0  0  0  0  0
  192.1670  176.8610  147.3270 O   0  0  0  0  0  0  0  0  0  0  0  0
  1  5  1  0  0  0  0
  2  3  1  0  0  0  0
  3 10  2  0  0  0  0
  6 13  1  0  0  0  0
  7 10  1  1  0  0  0
  7  8  1  0  0  0  0
  8  5  2  0  0  0  0
  8 23  1  0  0  0  0
  9  1  2  0  0  0  0
 11  9  1  0  0  0  0
 12  4  1  6  0  0  0
 12 10  1  0  0  0  0
 12  9  1  0  0  0  0
 13  4  2  0  0  0  0
 13 14  1  0  0  0  0
 14  2  2  0  0  0  0
 16 15  1  0  0  0  0
 16 18  1  0  0  0  0
 17 19  1  0  0  0  0
 18 21  1  6  0  0  0
 18 17  1  0  0  0  0
 20 15  1  6  0  0  0
 20 19  1  0  0  0  0
 20  7  1  0  0  0  0
 21 22  1  0  0  0  0
 23 24  1  0  0  0  0
 24 25  1  0  0  0  0
 25 26  1  0  0  0  0
 26 27  1  0  0  0  0
 27 30  1  0  0  0  0
 29 31  1  0  0  0  0
 30 28  1  0  0  0  0
 30 29  1  0  0  0  0
 30 31  1  0  0  0  0
M  END
>  <MODEL>
8

>  <REMARK>
 VINA RESULT:      -6.0      2.675      6.081
  Name = 
  8 active torsions:
  status: ('A' for Active; 'I' for Inactive)
    1  A    between atoms: C_7  and  O_15
    2  A    between atoms: C_7  and  C_20
    3  A    between atoms: O_9  and  C_21
    4  A    between atoms: O_10  and  O_15
    5  A    between atoms: O_10  and  C_16
    6  A    between atoms: C_12  and  N_30
    7  A    between atoms: C_20  and  N_28
    8  A    between atoms: C_22  and  N_28
                            x       y       z     vdW  Elec       q    Type
                         _______ _______ _______ _____ _____    ______ ____

>  <TORSDO>
F 8

$$$$
=
 OpenBabel10222415493D

 31 34  0  0  1  0  0  0  0  0999 V2000
  181.2700  175.8300  138.4680 C   0  0  0  0  0  3  0  0  0  0  0  0
  184.8380  179.1760  140.2970 C   0  0  0  0  0  3  0  0  0  0  0  0
  183.4490  179.2770  139.9420 N   0  0  0  0  0  0  0  0  0  0  0  0
  184.5420  177.4790  137.8390 N   0  0  0  0  0  0  0  0  0  0  0  0
  180.5570  176.4330  139.5620 N   0  0  0  0  0  0  0  0  0  0  0  0
  186.7320  178.2510  137.2510 C   0  0  0  0  0  1  0  0  0  0  0  0
  181.3080  178.6780  138.9940 C   0  0  2  0  0  3  0  0  0  0  0  0
  180.5390  177.7010  139.8500 C   0  0  0  0  0  0  0  0  0  0  0  0
  182.4810  176.1930  138.0140 C   0  0  0  0  0  0  0  0  0  0  0  0
  182.7810  178.4700  139.1740 C   0  0  0  0  0  0  0  0  0  0  0  0
  182.9530  175.5230  136.8900 O   0  0  0  0  0  1  0  0  0  0  0  0
  183.4060  177.1850  138.7010 C   0  0  2  0  0  3  0  0  0  0  0  0
  185.6000  178.1330  138.2070 C   0  0  0  0  0  0  0  0  0  0  0  0
  185.7580  178.6710  139.5270 N   0  0  0  0  0  0  0  0  0  0  0  0
  181.5540  180.8180  137.9610 C   0  0  0  0  0  2  0  0  0  0  0  0
  181.2750  182.3160  138.0870 C   0  0  0  0  0  2  0  0  0  0  0  0
  179.0390  181.7090  139.0730 C   0  0  0  0  0  2  0  0  0  0  0  0
  179.7710  182.5870  138.0570 C   0  0  2  0  0  3  0  0  0  0  0  0
  179.4300  180.2440  138.8920 C   0  0  0  0  0  2  0  0  0  0  0  0
  180.8830  180.0900  139.0390 N   0  0  1  0  0  0  0  0  0  0  0  0
  179.2630  182.3650  136.7750 O   0  0  0  0  0  0  0  0  0  0  0  0
  179.8440  183.2760  136.0240 O   0  0  0  0  0  1  0  0  0  0  0  0
  179.8120  178.1430  140.9540 O   0  0  0  0  0  0  0  0  0  0  0  0
  180.2480  177.9310  142.2030 O   0  0  0  0  0  0  0  0  0  0  0  0
  180.7480  179.1680  142.6170 C   0  0  0  0  0  2  0  0  0  0  0  0
  181.6760  178.9850  143.8050 C   0  0  0  0  0  2  0  0  0  0  0  0
  183.0080  178.6270  143.3410 N   0  0  0  0  0  2  0  0  0  0  0  0
  183.5770  179.0030  145.7180 O   0  0  0  0  0  1  0  0  0  0  0  0
  185.2420  178.5820  144.1460 O   0  0  0  0  0  0  0  0  0  0  0  0
  183.9580  178.9990  144.3760 C   0  0  0  0  0  0  0  0  0  0  0  0
  184.9330  179.8910  144.0160 O   0  0  0  0  0  0  0  0  0  0  0  0
  1  5  1  0  0  0  0
  3  2  1  0  0  0  0
  4 13  2  0  0  0  0
  5  8  2  0  0  0  0
  6 13  1  0  0  0  0
  7 20  1  0  0  0  0
  7 10  1  1  0  0  0
  7  8  1  0  0  0  0
  8 23  1  0  0  0  0
  9  1  2  0  0  0  0
  9 12  1  0  0  0  0
 10  3  2  0  0  0  0
 11  9  1  0  0  0  0
 12  4  1  6  0  0  0
 12 10  1  0  0  0  0
 13 14  1  0  0  0  0
 14  2  2  0  0  0  0
 15 16  1  0  0  0  0
 18 21  1  6  0  0  0
 18 16  1  0  0  0  0
 18 17  1  0  0  0  0
 19 20  1  0  0  0  0
 19 17  1  0  0  0  0
 20 15  1  6  0  0  0
 22 21  1  0  0  0  0
 23 24  1  0  0  0  0
 24 25  1  0  0  0  0
 25 26  1  0  0  0  0
 27 26  1  0  0  0  0
 27 30  1  0  0  0  0
 29 30  1  0  0  0  0
 30 28  1  0  0  0  0
 31 29  1  0  0  0  0
 31 30  1  0  0  0  0
M  END
>  <MODEL>
9

>  <REMARK>
 VINA RESULT:      -5.9      7.338     11.045
  Name = 
  8 active torsions:
  status: ('A' for Active; 'I' for Inactive)
    1  A    between atoms: C_7  and  O_15
    2  A    between atoms: C_7  and  C_20
    3  A    between atoms: O_9  and  C_21
    4  A    between atoms: O_10  and  O_15
    5  A    between atoms: O_10  and  C_16
    6  A    between atoms: C_12  and  N_30
    7  A    between atoms: C_20  and  N_28
    8  A    between atoms: C_22  and  N_28
                            x       y       z     vdW  Elec       q    Type
                         _______ _______ _______ _____ _____    ______ ____

>  <TORSDO>
F 8

$$$$
