=
 OpenBabel10222419173D

 35 40  0  0  1  0  0  0  0  0999 V2000
  189.8850  177.2960  146.7730 N   0  0  0  0  0  2  0  0  0  0  0  0
  186.1610  178.8190  140.9530 C   0  0  0  0  0  0  0  0  0  0  0  0
  188.1180  176.7330  145.0180 N   0  0  0  0  0  0  0  0  0  0  0  0
  187.7160  178.3140  146.7590 C   0  0  0  0  0  3  0  0  0  0  0  0
  191.6520  177.0370  144.8110 C   0  0  0  0  0  2  0  0  0  0  0  0
  189.4020  177.4460  142.0200 C   0  0  0  0  0  3  0  0  0  0  0  0
  186.4200  178.6310  146.1260 C   0  0  0  0  0  0  0  0  0  0  0  0
  185.6430  179.1280  142.1150 C   0  0  0  0  0  0  0  0  0  0  0  0
  189.7470  176.2610  142.8640 C   0  0  2  0  0  3  0  0  0  0  0  0
  186.0000  177.9550  145.0410 C   0  0  0  0  0  0  0  0  0  0  0  0
  188.1640  177.5360  141.5320 C   0  0  0  0  0  3  0  0  0  0  0  0
  192.0520  176.5050  147.0850 O   0  0  0  0  0  0  0  0  0  0  0  0
  185.6700  179.6840  146.6340 O   0  0  0  0  0  1  0  0  0  0  0  0
  189.1400  176.4930  144.0990 C   0  0  0  0  0  0  0  0  0  0  0  0
  191.1930  176.9000  146.2570 C   0  0  0  0  0  0  0  0  0  0  0  0
  185.2560  178.1840  139.9200 C   0  0  0  0  0  2  0  0  0  0  0  0
  184.7800  178.3850  144.2860 C   0  0  0  0  0  2  0  0  0  0  0  0
  189.3740  177.9810  137.5400 C   0  0  0  0  0  2  0  0  0  0  0  0
  190.5400  176.6160  143.9630 C   0  0  0  0  0  0  0  0  0  0  0  0
  185.1160  179.4360  143.2720 C   0  0  0  0  0  3  0  0  0  0  0  0
  188.0050  178.7180  139.3160 C   0  0  2  0  0  3  0  0  0  0  0  0
  186.7250  176.7220  144.5790 C   0  0  0  0  0  2  0  0  0  0  0  0
  187.9090  177.5860  137.3420 C   0  0  2  0  0  3  0  0  0  0  0  0
  189.4560  178.5640  138.9370 C   0  0  0  0  0  2  0  0  0  0  0  0
  188.5510  177.4350  146.2040 C   0  0  0  0  0  0  0  0  0  0  0  0
  185.9050  178.1290  138.5280 C   0  0  0  0  0  2  0  0  0  0  0  0
  187.6670  178.7490  140.8070 C   0  0  1  0  0  3  0  0  0  0  0  0
  187.2770  177.6560  138.6500 N   0  0  2  0  0  0  0  0  0  0  0  0
  187.8110  176.1680  136.7970 C   0  0  0  0  0  2  0  0  0  0  0  0
  184.3170  174.5360  136.4090 C   0  0  0  0  0  0  0  0  0  0  0  0
  183.7550  175.1470  135.4630 O   0  0  0  0  0  0  0  0  0  0  0  0
  186.0190  176.6150  135.2980 O   0  0  0  0  0  0  0  0  0  0  0  0
  185.6430  174.8770  136.8270 N   0  0  0  0  0  2  0  0  0  0  0  0
  183.5930  173.4400  137.1040 C   0  0  0  0  0  1  0  0  0  0  0  0
  186.4500  175.9080  136.2480 C   0  0  0  0  0  0  0  0  0  0  0  0
  2  8  2  0  0  0  0
  3 25  1  0  0  0  0
  5 15  1  0  0  0  0
  7 13  1  0  0  0  0
  7  4  1  0  0  0  0
  8 20  2  0  0  0  0
  9  6  1  6  0  0  0
  9 19  1  0  0  0  0
  9 14  1  0  0  0  0
 10  7  2  0  0  0  0
 11  6  2  0  0  0  0
 14  3  1  0  0  0  0
 15  1  1  0  0  0  0
 15 12  2  0  0  0  0
 16  2  1  0  0  0  0
 17 10  1  0  0  0  0
 18 24  1  0  0  0  0
 19 14  2  0  0  0  0
 19  5  1  0  0  0  0
 20 17  1  0  0  0  0
 21 24  1  1  0  0  0
 21 27  1  0  0  0  0
 22  3  1  0  0  0  0
 22 10  1  0  0  0  0
 23 29  1  1  0  0  0
 23 18  1  0  0  0  0
 23 28  1  0  0  0  0
 25  4  2  0  0  0  0
 25  1  1  0  0  0  0
 26 16  1  0  0  0  0
 27  2  1  0  0  0  0
 27 11  1  1  0  0  0
 28 26  1  6  0  0  0
 28 21  1  0  0  0  0
 30 33  1  0  0  0  0
 30 34  1  0  0  0  0
 31 30  2  0  0  0  0
 32 35  2  0  0  0  0
 35 29  1  0  0  0  0
 35 33  1  0  0  0  0
M  END
>  <MODEL>
1

>  <REMARK>
 VINA RESULT:      -9.9      0.000      0.000
  Name = 
  2 active torsions:
  status: ('A' for Active; 'I' for Inactive)
    1  A    between atoms: C_27  and  C_32
    2  A    between atoms: C_29  and  C_32
                            x       y       z     vdW  Elec       q    Type
                         _______ _______ _______ _____ _____    ______ ____

>  <TORSDO>
F 2

$$$$
=
 OpenBabel10222419173D

 35 40  0  0  1  0  0  0  0  0999 V2000
  189.8840  177.2910  146.8730 N   0  0  0  0  0  2  0  0  0  0  0  0
  186.1440  178.8840  141.0810 C   0  0  0  0  0  0  0  0  0  0  0  0
  188.1060  176.7530  145.1210 N   0  0  0  0  0  0  0  0  0  0  0  0
  187.7190  178.3210  146.8760 C   0  0  0  0  0  3  0  0  0  0  0  0
  191.6410  177.0390  144.9020 C   0  0  0  0  0  2  0  0  0  0  0  0
  189.3830  177.4840  142.1240 C   0  0  0  0  0  3  0  0  0  0  0  0
  186.4230  178.6500  146.2510 C   0  0  0  0  0  0  0  0  0  0  0  0
  185.6330  179.1860  142.2480 C   0  0  0  0  0  0  0  0  0  0  0  0
  189.7240  176.2900  142.9570 C   0  0  2  0  0  3  0  0  0  0  0  0
  185.9950  177.9860  145.1630 C   0  0  0  0  0  0  0  0  0  0  0  0
  188.1420  177.5850  141.6410 C   0  0  0  0  0  3  0  0  0  0  0  0
  192.0470  176.4860  147.1700 O   0  0  0  0  0  0  0  0  0  0  0  0
  185.6810  179.7040  146.7720 O   0  0  0  0  0  1  0  0  0  0  0  0
  189.1230  176.5140  144.1960 C   0  0  0  0  0  0  0  0  0  0  0  0
  191.1870  176.8930  146.3480 C   0  0  0  0  0  0  0  0  0  0  0  0
  185.2320  178.2620  140.0460 C   0  0  0  0  0  2  0  0  0  0  0  0
  184.7740  178.4300  144.4160 C   0  0  0  0  0  2  0  0  0  0  0  0
  189.3400  178.0560  137.6480 C   0  0  0  0  0  2  0  0  0  0  0  0
  190.5230  176.6310  144.0550 C   0  0  0  0  0  0  0  0  0  0  0  0
  185.1120  179.4870  143.4090 C   0  0  0  0  0  3  0  0  0  0  0  0
  187.9820  178.7860  139.4360 C   0  0  2  0  0  3  0  0  0  0  0  0
  186.7120  176.7530  144.6880 C   0  0  0  0  0  2  0  0  0  0  0  0
  187.8710  177.6710  137.4530 C   0  0  2  0  0  3  0  0  0  0  0  0
  189.4310  178.6280  139.0500 C   0  0  0  0  0  2  0  0  0  0  0  0
  188.5480  177.4420  146.3110 C   0  0  0  0  0  0  0  0  0  0  0  0
  185.8750  178.2150  138.6520 C   0  0  0  0  0  2  0  0  0  0  0  0
  187.6490  178.8070  140.9280 C   0  0  1  0  0  3  0  0  0  0  0  0
  187.2450  177.7340  138.7640 N   0  0  2  0  0  0  0  0  0  0  0  0
  187.7630  176.2590  136.8970 C   0  0  0  0  0  2  0  0  0  0  0  0
  191.1890  174.6360  136.0890 C   0  0  0  0  0  0  0  0  0  0  0  0
  191.4650  174.9840  134.9110 O   0  0  0  0  0  0  0  0  0  0  0  0
  189.1180  176.3240  134.9430 O   0  0  0  0  0  0  0  0  0  0  0  0
  189.9800  175.0660  136.7240 N   0  0  0  0  0  2  0  0  0  0  0  0
  192.1340  173.7640  136.8340 C   0  0  0  0  0  1  0  0  0  0  0  0
  188.9860  175.9030  136.1230 C   0  0  0  0  0  0  0  0  0  0  0  0
  2  8  2  0  0  0  0
  3 25  1  0  0  0  0
  5 15  1  0  0  0  0
  7 13  1  0  0  0  0
  7  4  1  0  0  0  0
  8 20  2  0  0  0  0
  9  6  1  6  0  0  0
  9 19  1  0  0  0  0
  9 14  1  0  0  0  0
 10  7  2  0  0  0  0
 11  6  2  0  0  0  0
 14  3  1  0  0  0  0
 15  1  1  0  0  0  0
 15 12  2  0  0  0  0
 16  2  1  0  0  0  0
 17 10  1  0  0  0  0
 18 24  1  0  0  0  0
 19 14  2  0  0  0  0
 19  5  1  0  0  0  0
 20 17  1  0  0  0  0
 21 24  1  1  0  0  0
 21 27  1  0  0  0  0
 22  3  1  0  0  0  0
 22 10  1  0  0  0  0
 23 29  1  1  0  0  0
 23 18  1  0  0  0  0
 23 28  1  0  0  0  0
 25  1  1  0  0  0  0
 25  4  2  0  0  0  0
 26 16  1  0  0  0  0
 27  2  1  0  0  0  0
 27 11  1  1  0  0  0
 28 26  1  6  0  0  0
 28 21  1  0  0  0  0
 30 33  1  0  0  0  0
 30 34  1  0  0  0  0
 31 30  2  0  0  0  0
 32 35  2  0  0  0  0
 35 33  1  0  0  0  0
 35 29  1  0  0  0  0
M  END
>  <MODEL>
2

>  <REMARK>
 VINA RESULT:      -9.9      1.700      2.483
  Name = 
  2 active torsions:
  status: ('A' for Active; 'I' for Inactive)
    1  A    between atoms: C_27  and  C_32
    2  A    between atoms: C_29  and  C_32
                            x       y       z     vdW  Elec       q    Type
                         _______ _______ _______ _____ _____    ______ ____

>  <TORSDO>
F 2

$$$$
=
 OpenBabel10222419173D

 35 40  0  0  1  0  0  0  0  0999 V2000
  189.8760  177.5160  146.6330 N   0  0  0  0  0  2  0  0  0  0  0  0
  184.6530  179.0180  142.1010 C   0  0  0  0  0  0  0  0  0  0  0  0
  187.6690  176.9600  145.4750 N   0  0  0  0  0  0  0  0  0  0  0  0
  187.8090  178.5790  147.2220 C   0  0  0  0  0  3  0  0  0  0  0  0
  190.9970  177.1870  144.2510 C   0  0  0  0  0  2  0  0  0  0  0  0
  188.0440  177.5960  142.2190 C   0  0  0  0  0  3  0  0  0  0  0  0
  186.3920  178.9110  146.9820 C   0  0  0  0  0  0  0  0  0  0  0  0
  184.4980  179.3570  143.3560 C   0  0  0  0  0  0  0  0  0  0  0  0
  188.5990  176.4190  142.9540 C   0  0  2  0  0  3  0  0  0  0  0  0
  185.6660  178.2270  146.0810 C   0  0  0  0  0  0  0  0  0  0  0  0
  186.7190  177.7030  142.1060 C   0  0  0  0  0  3  0  0  0  0  0  0
  192.0280  176.6850  146.3250 O   0  0  0  0  0  0  0  0  0  0  0  0
  185.8360  179.9890  147.6620 O   0  0  0  0  0  1  0  0  0  0  0  0
  188.3780  176.6830  144.3060 C   0  0  0  0  0  0  0  0  0  0  0  0
  190.9720  177.0840  145.7710 C   0  0  0  0  0  0  0  0  0  0  0  0
  183.4790  178.3850  141.3870 C   0  0  0  0  0  2  0  0  0  0  0  0
  184.2870  178.6690  145.6990 C   0  0  0  0  0  2  0  0  0  0  0  0
  186.7330  178.0550  137.9260 C   0  0  0  0  0  2  0  0  0  0  0  0
  189.6820  176.7750  143.7700 C   0  0  0  0  0  0  0  0  0  0  0  0
  184.3320  179.6950  144.6090 C   0  0  0  0  0  3  0  0  0  0  0  0
  185.9460  178.8510  140.0050 C   0  0  2  0  0  3  0  0  0  0  0  0
  186.2090  176.9710  145.4570 C   0  0  0  0  0  2  0  0  0  0  0  0
  185.2670  177.6880  138.1670 C   0  0  2  0  0  3  0  0  0  0  0  0
  187.2230  178.6610  139.2280 C   0  0  0  0  0  2  0  0  0  0  0  0
  188.4360  177.6730  146.4700 C   0  0  0  0  0  0  0  0  0  0  0  0
  183.6980  178.2920  139.8690 C   0  0  0  0  0  2  0  0  0  0  0  0
  186.0520  178.9150  141.5290 C   0  0  1  0  0  3  0  0  0  0  0  0
  185.0400  177.7940  139.6010 N   0  0  2  0  0  0  0  0  0  0  0  0
  184.9940  176.2640  137.7060 C   0  0  0  0  0  2  0  0  0  0  0  0
  188.1510  174.4860  136.3290 C   0  0  0  0  0  0  0  0  0  0  0  0
  188.1870  174.7520  135.0990 O   0  0  0  0  0  0  0  0  0  0  0  0
  185.9210  176.1650  135.5170 O   0  0  0  0  0  0  0  0  0  0  0  0
  187.1070  174.9930  137.1660 N   0  0  0  0  0  2  0  0  0  0  0  0
  189.2120  173.6320  136.9230 C   0  0  0  0  0  1  0  0  0  0  0  0
  186.0260  175.8220  136.7250 C   0  0  0  0  0  0  0  0  0  0  0  0
  2  8  2  0  0  0  0
  3 25  1  0  0  0  0
  5 15  1  0  0  0  0
  7  4  1  0  0  0  0
  7 13  1  0  0  0  0
  8 20  2  0  0  0  0
  9  6  1  6  0  0  0
  9 19  1  0  0  0  0
  9 14  1  0  0  0  0
 10  7  2  0  0  0  0
 11  6  2  0  0  0  0
 14  3  1  0  0  0  0
 15 12  2  0  0  0  0
 15  1  1  0  0  0  0
 16  2  1  0  0  0  0
 17 10  1  0  0  0  0
 18 23  1  0  0  0  0
 18 24  1  0  0  0  0
 19  5  1  0  0  0  0
 19 14  2  0  0  0  0
 20 17  1  0  0  0  0
 21 24  1  6  0  0  0
 21 27  1  0  0  0  0
 22  3  1  0  0  0  0
 22 10  1  0  0  0  0
 23 29  1  1  0  0  0
 23 28  1  0  0  0  0
 25  1  1  0  0  0  0
 25  4  2  0  0  0  0
 26 16  1  0  0  0  0
 27  2  1  0  0  0  0
 27 11  1  1  0  0  0
 28 26  1  6  0  0  0
 28 21  1  0  0  0  0
 30 34  1  0  0  0  0
 30 33  1  0  0  0  0
 31 30  2  0  0  0  0
 32 35  2  0  0  0  0
 35 33  1  0  0  0  0
 35 29  1  0  0  0  0
M  END
>  <MODEL>
3

>  <REMARK>
 VINA RESULT:      -9.2      1.379      2.065
  Name = 
  2 active torsions:
  status: ('A' for Active; 'I' for Inactive)
    1  A    between atoms: C_27  and  C_32
    2  A    between atoms: C_29  and  C_32
                            x       y       z     vdW  Elec       q    Type
                         _______ _______ _______ _____ _____    ______ ____

>  <TORSDO>
F 2

$$$$
=
 OpenBabel10222419173D

 35 40  0  0  1  0  0  0  0  0999 V2000
  189.8550  177.5230  146.5240 N   0  0  0  0  0  2  0  0  0  0  0  0
  184.4330  179.0590  142.2450 C   0  0  0  0  0  0  0  0  0  0  0  0
  187.5980  176.9760  145.4630 N   0  0  0  0  0  0  0  0  0  0  0  0
  187.8190  178.5830  147.2140 C   0  0  0  0  0  3  0  0  0  0  0  0
  190.8670  177.2100  144.0910 C   0  0  0  0  0  2  0  0  0  0  0  0
  187.8250  177.6340  142.1990 C   0  0  0  0  0  3  0  0  0  0  0  0
  186.3920  178.9180  147.0410 C   0  0  0  0  0  0  0  0  0  0  0  0
  184.3350  179.3890  143.5080 C   0  0  0  0  0  0  0  0  0  0  0  0
  188.4120  176.4510  142.8990 C   0  0  2  0  0  3  0  0  0  0  0  0
  185.6250  178.2390  146.1690 C   0  0  0  0  0  0  0  0  0  0  0  0
  186.4950  177.7430  142.1470 C   0  0  0  0  0  3  0  0  0  0  0  0
  191.9910  176.6930  146.1120 O   0  0  0  0  0  0  0  0  0  0  0  0
  185.8680  179.9910  147.7530 O   0  0  0  0  0  1  0  0  0  0  0  0
  188.2530  176.7070  144.2620 C   0  0  0  0  0  0  0  0  0  0  0  0
  190.9110  177.0970  145.6090 C   0  0  0  0  0  0  0  0  0  0  0  0
  183.2270  178.4310  141.5800 C   0  0  0  0  0  2  0  0  0  0  0  0
  184.2300  178.6860  145.8540 C   0  0  0  0  0  2  0  0  0  0  0  0
  186.3190  178.1230  137.9730 C   0  0  0  0  0  2  0  0  0  0  0  0
  189.5300  176.8010  143.6670 C   0  0  0  0  0  0  0  0  0  0  0  0
  184.2270  179.7190  144.7690 C   0  0  0  0  0  3  0  0  0  0  0  0
  185.6280  178.9040  140.0910 C   0  0  2  0  0  3  0  0  0  0  0  0
  186.1380  176.9880  145.5120 C   0  0  0  0  0  2  0  0  0  0  0  0
  184.8650  177.7550  138.2780 C   0  0  2  0  0  3  0  0  0  0  0  0
  186.8690  178.7190  139.2550 C   0  0  0  0  0  2  0  0  0  0  0  0
  188.4100  177.6820  146.4270 C   0  0  0  0  0  0  0  0  0  0  0  0
  183.3770  178.3480  140.0540 C   0  0  0  0  0  2  0  0  0  0  0  0
  185.8040  178.9580  141.6090 C   0  0  1  0  0  3  0  0  0  0  0  0
  184.7050  177.8510  139.7210 N   0  0  2  0  0  0  0  0  0  0  0  0
  184.5710  176.3340  137.8200 C   0  0  0  0  0  2  0  0  0  0  0  0
  181.6800  177.6670  135.6100 C   0  0  0  0  0  0  0  0  0  0  0  0
  181.1770  176.6560  135.0540 O   0  0  0  0  0  0  0  0  0  0  0  0
  183.0320  175.2150  136.3930 O   0  0  0  0  0  0  0  0  0  0  0  0
  182.7820  177.5440  136.5150 N   0  0  0  0  0  2  0  0  0  0  0  0
  181.1190  179.0130  135.3240 C   0  0  0  0  0  1  0  0  0  0  0  0
  183.4170  176.3130  136.8770 C   0  0  0  0  0  0  0  0  0  0  0  0
  2  8  2  0  0  0  0
  3 22  1  0  0  0  0
  3 25  1  0  0  0  0
  5 15  1  0  0  0  0
  7  4  1  0  0  0  0
  7 13  1  0  0  0  0
  8 20  2  0  0  0  0
  9  6  1  6  0  0  0
  9 19  1  0  0  0  0
  9 14  1  0  0  0  0
 10  7  2  0  0  0  0
 11  6  2  0  0  0  0
 14  3  1  0  0  0  0
 15 12  2  0  0  0  0
 15  1  1  0  0  0  0
 16  2  1  0  0  0  0
 17 10  1  0  0  0  0
 18 23  1  0  0  0  0
 18 24  1  0  0  0  0
 19  5  1  0  0  0  0
 19 14  2  0  0  0  0
 20 17  1  0  0  0  0
 21 24  1  6  0  0  0
 21 27  1  0  0  0  0
 22 10  1  0  0  0  0
 23 29  1  1  0  0  0
 23 28  1  0  0  0  0
 25  1  1  0  0  0  0
 25  4  2  0  0  0  0
 26 16  1  0  0  0  0
 27 11  1  1  0  0  0
 27  2  1  0  0  0  0
 28 26  1  6  0  0  0
 28 21  1  0  0  0  0
 30 33  1  0  0  0  0
 31 30  2  0  0  0  0
 32 35  2  0  0  0  0
 33 35  1  0  0  0  0
 34 30  1  0  0  0  0
 35 29  1  0  0  0  0
M  END
>  <MODEL>
4

>  <REMARK>
 VINA RESULT:      -9.1      1.907      2.443
  Name = 
  2 active torsions:
  status: ('A' for Active; 'I' for Inactive)
    1  A    between atoms: C_27  and  C_32
    2  A    between atoms: C_29  and  C_32
                            x       y       z     vdW  Elec       q    Type
                         _______ _______ _______ _____ _____    ______ ____

>  <TORSDO>
F 2

$$$$
=
 OpenBabel10222419173D

 35 40  0  0  1  0  0  0  0  0999 V2000
  187.5440  178.2060  146.9100 N   0  0  0  0  0  2  0  0  0  0  0  0
  187.7010  178.1370  139.8360 C   0  0  0  0  0  0  0  0  0  0  0  0
  187.0190  177.1280  144.6550 N   0  0  0  0  0  0  0  0  0  0  0  0
  185.7780  178.9880  145.4890 C   0  0  0  0  0  3  0  0  0  0  0  0
  190.0890  177.7190  146.3430 C   0  0  0  0  0  2  0  0  0  0  0  0
  189.7670  177.3290  142.7710 C   0  0  0  0  0  3  0  0  0  0  0  0
  185.0590  179.0420  144.2020 C   0  0  0  0  0  0  0  0  0  0  0  0
  186.6390  178.6280  140.4250 C   0  0  0  0  0  0  0  0  0  0  0  0
  189.5470  176.3810  143.9060 C   0  0  2  0  0  3  0  0  0  0  0  0
  185.2830  178.1210  143.2480 C   0  0  0  0  0  0  0  0  0  0  0  0
  189.0070  177.1980  141.6820 C   0  0  0  0  0  3  0  0  0  0  0  0
  189.1500  177.7060  148.5190 O   0  0  0  0  0  0  0  0  0  0  0  0
  184.1890  180.1010  143.9680 O   0  0  0  0  0  1  0  0  0  0  0  0
  188.3690  176.8020  144.5220 C   0  0  0  0  0  0  0  0  0  0  0  0
  188.9040  177.8390  147.2930 C   0  0  0  0  0  0  0  0  0  0  0  0
  187.4950  177.2200  138.6510 C   0  0  0  0  0  2  0  0  0  0  0  0
  184.6970  178.2680  141.8760 C   0  0  0  0  0  2  0  0  0  0  0  0
  192.2330  176.9250  139.0140 C   0  0  0  0  0  2  0  0  0  0  0  0
  189.6150  177.0280  145.1470 C   0  0  0  0  0  0  0  0  0  0  0  0
  185.5730  179.1150  141.0040 C   0  0  0  0  0  3  0  0  0  0  0  0
  190.1380  177.8780  139.5400 C   0  0  2  0  0  3  0  0  0  0  0  0
  186.0990  176.8940  143.5450 C   0  0  0  0  0  2  0  0  0  0  0  0
  191.1070  176.3600  138.1440 C   0  0  2  0  0  3  0  0  0  0  0  0
  191.5510  177.7890  140.0570 C   0  0  0  0  0  2  0  0  0  0  0  0
  186.7500  178.0960  145.6920 C   0  0  0  0  0  0  0  0  0  0  0  0
  188.8010  176.9420  137.8910 C   0  0  0  0  0  2  0  0  0  0  0  0
  189.0350  178.1830  140.5530 C   0  0  1  0  0  3  0  0  0  0  0  0
  189.8610  176.6380  138.8420 N   0  0  2  0  0  0  0  0  0  0  0  0
  191.2760  174.8590  137.9690 C   0  0  0  0  0  2  0  0  0  0  0  0
  194.8050  173.5230  137.0810 C   0  0  0  0  0  0  0  0  0  0  0  0
  194.9750  173.7850  135.8620 O   0  0  0  0  0  0  0  0  0  0  0  0
  192.5030  174.8770  135.9310 O   0  0  0  0  0  0  0  0  0  0  0  0
  193.5950  173.8860  137.7550 N   0  0  0  0  0  2  0  0  0  0  0  0
  195.8780  172.8250  137.8350 C   0  0  0  0  0  1  0  0  0  0  0  0
  192.4850  174.5570  137.1500 C   0  0  0  0  0  0  0  0  0  0  0  0
  1 15  1  0  0  0  0
  2  8  2  0  0  0  0
  2 27  1  0  0  0  0
  3 25  1  0  0  0  0
  4 25  2  0  0  0  0
  5 15  1  0  0  0  0
  7  4  1  0  0  0  0
  8 20  2  0  0  0  0
  9  6  1  6  0  0  0
  9 14  1  0  0  0  0
  9 19  1  0  0  0  0
 10 22  1  0  0  0  0
 10  7  2  0  0  0  0
 11  6  2  0  0  0  0
 13  7  1  0  0  0  0
 14  3  1  0  0  0  0
 14 19  2  0  0  0  0
 15 12  2  0  0  0  0
 16  2  1  0  0  0  0
 17 10  1  0  0  0  0
 18 24  1  0  0  0  0
 19  5  1  0  0  0  0
 20 17  1  0  0  0  0
 21 24  1  1  0  0  0
 21 27  1  0  0  0  0
 22  3  1  0  0  0  0
 23 29  1  1  0  0  0
 23 28  1  0  0  0  0
 23 18  1  0  0  0  0
 25  1  1  0  0  0  0
 26 16  1  0  0  0  0
 27 11  1  1  0  0  0
 28 26  1  6  0  0  0
 28 21  1  0  0  0  0
 30 33  1  0  0  0  0
 30 34  1  0  0  0  0
 31 30  2  0  0  0  0
 32 35  2  0  0  0  0
 35 33  1  0  0  0  0
 35 29  1  0  0  0  0
M  END
>  <MODEL>
5

>  <REMARK>
 VINA RESULT:      -8.9      3.482      4.494
  Name = 
  2 active torsions:
  status: ('A' for Active; 'I' for Inactive)
    1  A    between atoms: C_27  and  C_32
    2  A    between atoms: C_29  and  C_32
                            x       y       z     vdW  Elec       q    Type
                         _______ _______ _______ _____ _____    ______ ____

>  <TORSDO>
F 2

$$$$
=
 OpenBabel10222419173D

 35 40  0  0  1  0  0  0  0  0999 V2000
  187.1750  178.3300  146.9750 N   0  0  0  0  0  2  0  0  0  0  0  0
  187.4490  178.2320  139.9050 C   0  0  0  0  0  0  0  0  0  0  0  0
  186.6570  177.2600  144.7150 N   0  0  0  0  0  0  0  0  0  0  0  0
  185.4570  179.1570  145.5230 C   0  0  0  0  0  3  0  0  0  0  0  0
  189.7150  177.7680  146.4520 C   0  0  0  0  0  2  0  0  0  0  0  0
  189.4410  177.3750  142.8770 C   0  0  0  0  0  3  0  0  0  0  0  0
  184.7610  179.2280  144.2230 C   0  0  0  0  0  0  0  0  0  0  0  0
  186.3920  178.7550  140.4740 C   0  0  0  0  0  0  0  0  0  0  0  0
  189.1760  176.4380  144.0100 C   0  0  2  0  0  3  0  0  0  0  0  0
  184.9740  178.2970  143.2760 C   0  0  0  0  0  0  0  0  0  0  0  0
  188.6960  177.2620  141.7750 C   0  0  0  0  0  3  0  0  0  0  0  0
  188.7400  177.7900  148.6120 O   0  0  0  0  0  0  0  0  0  0  0  0
  183.9270  180.3100  143.9720 O   0  0  0  0  0  1  0  0  0  0  0  0
  187.9990  176.8950  144.6060 C   0  0  0  0  0  0  0  0  0  0  0  0
  188.5180  177.9250  147.3810 C   0  0  0  0  0  0  0  0  0  0  0  0
  187.2360  177.3170  138.7190 C   0  0  0  0  0  2  0  0  0  0  0  0
  184.4170  178.4570  141.8940 C   0  0  0  0  0  2  0  0  0  0  0  0
  191.9570  176.8880  139.1620 C   0  0  0  0  0  2  0  0  0  0  0  0
  189.2410  177.0870  145.2510 C   0  0  0  0  0  0  0  0  0  0  0  0
  185.3310  179.2750  141.0350 C   0  0  0  0  0  3  0  0  0  0  0  0
  189.8820  177.9020  139.6500 C   0  0  2  0  0  3  0  0  0  0  0  0
  185.7500  177.0490  143.5910 C   0  0  0  0  0  2  0  0  0  0  0  0
  190.8300  176.3520  138.2760 C   0  0  2  0  0  3  0  0  0  0  0  0
  191.2830  177.7740  140.1920 C   0  0  0  0  0  2  0  0  0  0  0  0
  186.3990  178.2390  145.7450 C   0  0  0  0  0  0  0  0  0  0  0  0
  188.5460  176.9990  137.9830 C   0  0  0  0  0  2  0  0  0  0  0  0
  188.7710  178.2420  140.6440 C   0  0  1  0  0  3  0  0  0  0  0  0
  189.5810  176.6680  138.9520 N   0  0  2  0  0  0  0  0  0  0  0  0
  190.9590  174.8460  138.1070 C   0  0  0  0  0  2  0  0  0  0  0  0
  188.7190  172.7500  135.7370 C   0  0  0  0  0  0  0  0  0  0  0  0
  188.8390  173.2740  134.5990 O   0  0  0  0  0  0  0  0  0  0  0  0
  190.5160  175.0350  135.7780 O   0  0  0  0  0  0  0  0  0  0  0  0
  189.4230  173.2710  136.8700 N   0  0  0  0  0  2  0  0  0  0  0  0
  187.8340  171.5690  135.9090 C   0  0  0  0  0  1  0  0  0  0  0  0
  190.3040  174.3990  136.8450 C   0  0  0  0  0  0  0  0  0  0  0  0
  1 15  1  0  0  0  0
  2  8  2  0  0  0  0
  2 27  1  0  0  0  0
  3 25  1  0  0  0  0
  4 25  2  0  0  0  0
  5 15  1  0  0  0  0
  7  4  1  0  0  0  0
  8 20  2  0  0  0  0
  9  6  1  6  0  0  0
  9 14  1  0  0  0  0
  9 19  1  0  0  0  0
 10 22  1  0  0  0  0
 10  7  2  0  0  0  0
 11  6  2  0  0  0  0
 13  7  1  0  0  0  0
 14  3  1  0  0  0  0
 14 19  2  0  0  0  0
 15 12  2  0  0  0  0
 16  2  1  0  0  0  0
 17 10  1  0  0  0  0
 18 24  1  0  0  0  0
 19  5  1  0  0  0  0
 20 17  1  0  0  0  0
 21 24  1  1  0  0  0
 21 27  1  0  0  0  0
 22  3  1  0  0  0  0
 23 29  1  1  0  0  0
 23 28  1  0  0  0  0
 23 18  1  0  0  0  0
 25  1  1  0  0  0  0
 26 16  1  0  0  0  0
 27 11  1  1  0  0  0
 28 26  1  6  0  0  0
 28 21  1  0  0  0  0
 30 34  1  0  0  0  0
 30 33  1  0  0  0  0
 31 30  2  0  0  0  0
 32 35  2  0  0  0  0
 35 33  1  0  0  0  0
 35 29  1  0  0  0  0
M  END
>  <MODEL>
6

>  <REMARK>
 VINA RESULT:      -8.7      2.394      2.951
  Name = 
  2 active torsions:
  status: ('A' for Active; 'I' for Inactive)
    1  A    between atoms: C_27  and  C_32
    2  A    between atoms: C_29  and  C_32
                            x       y       z     vdW  Elec       q    Type
                         _______ _______ _______ _____ _____    ______ ____

>  <TORSDO>
F 2

$$$$
=
 OpenBabel10222419173D

 35 40  0  0  1  0  0  0  0  0999 V2000
  190.7170  177.3110  144.8170 N   0  0  0  0  0  2  0  0  0  0  0  0
  183.9230  179.0600  143.8920 C   0  0  0  0  0  0  0  0  0  0  0  0
  188.2270  176.7440  144.7990 N   0  0  0  0  0  0  0  0  0  0  0  0
  189.2270  178.0030  146.5630 C   0  0  0  0  0  3  0  0  0  0  0  0
  190.4890  177.5730  142.1870 C   0  0  0  0  0  2  0  0  0  0  0  0
  186.9140  178.0300  142.0130 C   0  0  0  0  0  3  0  0  0  0  0  0
  187.8810  178.2140  147.1300 C   0  0  0  0  0  0  0  0  0  0  0  0
  184.4200  179.1320  145.1010 C   0  0  0  0  0  0  0  0  0  0  0  0
  187.7640  176.8030  142.0980 C   0  0  2  0  0  3  0  0  0  0  0  0
  186.8000  177.6380  146.5730 C   0  0  0  0  0  0  0  0  0  0  0  0
  185.7120  178.0080  142.5910 C   0  0  0  0  0  3  0  0  0  0  0  0
  192.4230  176.8010  143.3180 O   0  0  0  0  0  0  0  0  0  0  0  0
  187.7410  179.0720  148.2140 O   0  0  0  0  0  1  0  0  0  0  0  0
  188.2520  176.7770  143.4050 C   0  0  0  0  0  0  0  0  0  0  0  0
  191.2310  177.1780  143.4570 C   0  0  0  0  0  0  0  0  0  0  0  0
  182.5500  178.4480  143.7240 C   0  0  0  0  0  2  0  0  0  0  0  0
  185.4160  177.9890  147.0260 C   0  0  0  0  0  2  0  0  0  0  0  0
  183.6210  179.1540  139.1400 C   0  0  0  0  0  2  0  0  0  0  0  0
  189.1090  177.1150  142.3350 C   0  0  0  0  0  0  0  0  0  0  0  0
  184.9060  179.2030  146.3130 C   0  0  0  0  0  3  0  0  0  0  0  0
  183.9860  179.4430  141.4540 C   0  0  2  0  0  3  0  0  0  0  0  0
  186.9560  176.5940  145.5020 C   0  0  0  0  0  2  0  0  0  0  0  0
  182.4760  178.5860  139.9800 C   0  0  2  0  0  3  0  0  0  0  0  0
  184.7000  179.5500  140.1300 C   0  0  0  0  0  2  0  0  0  0  0  0
  189.3900  177.3340  145.4200 C   0  0  0  0  0  0  0  0  0  0  0  0
  181.9760  178.6730  142.3170 C   0  0  0  0  0  2  0  0  0  0  0  0
  184.8440  179.2250  142.7010 C   0  0  1  0  0  3  0  0  0  0  0  0
  183.0010  178.3890  141.3220 N   0  0  2  0  0  0  0  0  0  0  0  0
  182.0090  177.2550  139.4080 C   0  0  0  0  0  2  0  0  0  0  0  0
  184.4760  175.8770  136.7550 C   0  0  0  0  0  0  0  0  0  0  0  0
  184.0620  176.3050  135.6460 O   0  0  0  0  0  0  0  0  0  0  0  0
  182.0840  177.5050  137.0440 O   0  0  0  0  0  0  0  0  0  0  0  0
  183.7980  176.2020  137.9740 N   0  0  0  0  0  2  0  0  0  0  0  0
  185.6890  175.0210  136.8020 C   0  0  0  0  0  1  0  0  0  0  0  0
  182.6220  177.0130  138.0720 C   0  0  0  0  0  0  0  0  0  0  0  0
  1 25  1  0  0  0  0
  2  8  2  0  0  0  0
  3 25  1  0  0  0  0
  3 22  1  0  0  0  0
  4  7  1  0  0  0  0
  5 19  1  0  0  0  0
  5 15  1  0  0  0  0
  6 11  2  0  0  0  0
  7 13  1  0  0  0  0
  8 20  2  0  0  0  0
  9  6  1  1  0  0  0
  9 19  1  0  0  0  0
  9 14  1  0  0  0  0
 10 17  1  0  0  0  0
 10  7  2  0  0  0  0
 12 15  2  0  0  0  0
 14  3  1  0  0  0  0
 15  1  1  0  0  0  0
 16  2  1  0  0  0  0
 18 23  1  0  0  0  0
 18 24  1  0  0  0  0
 19 14  2  0  0  0  0
 20 17  1  0  0  0  0
 21 24  1  6  0  0  0
 21 27  1  0  0  0  0
 22 10  1  0  0  0  0
 23 29  1  6  0  0  0
 23 28  1  0  0  0  0
 25  4  2  0  0  0  0
 26 16  1  0  0  0  0
 27 11  1  6  0  0  0
 27  2  1  0  0  0  0
 28 21  1  0  0  0  0
 28 26  1  1  0  0  0
 30 34  1  0  0  0  0
 30 33  1  0  0  0  0
 31 30  2  0  0  0  0
 32 35  2  0  0  0  0
 33 35  1  0  0  0  0
 35 29  1  0  0  0  0
M  END
>  <MODEL>
7

>  <REMARK>
 VINA RESULT:      -7.3      2.130      3.496
  Name = 
  2 active torsions:
  status: ('A' for Active; 'I' for Inactive)
    1  A    between atoms: C_27  and  C_32
    2  A    between atoms: C_29  and  C_32
                            x       y       z     vdW  Elec       q    Type
                         _______ _______ _______ _____ _____    ______ ____

>  <TORSDO>
F 2

$$$$
=
 OpenBabel10222419173D

 35 40  0  0  1  0  0  0  0  0999 V2000
  180.0020  179.2710  138.8340 N   0  0  0  0  0  2  0  0  0  0  0  0
  185.6610  175.5980  136.7020 C   0  0  0  0  0  0  0  0  0  0  0  0
  181.8510  177.5540  139.2250 N   0  0  0  0  0  0  0  0  0  0  0  0
  179.9340  177.0690  137.8900 C   0  0  0  0  0  3  0  0  0  0  0  0
  181.9430  181.0790  138.7880 C   0  0  0  0  0  2  0  0  0  0  0  0
  184.7070  178.8650  138.0990 C   0  0  0  0  0  3  0  0  0  0  0  0
  180.5490  175.7750  137.5360 C   0  0  0  0  0  0  0  0  0  0  0  0
  184.4810  175.0500  136.5590 C   0  0  0  0  0  0  0  0  0  0  0  0
  184.0120  179.2340  139.3700 C   0  0  2  0  0  3  0  0  0  0  0  0
  181.7190  175.3960  138.0810 C   0  0  0  0  0  0  0  0  0  0  0  0
  185.2070  177.6330  137.9860 C   0  0  0  0  0  3  0  0  0  0  0  0
  179.7460  181.4580  139.5910 O   0  0  0  0  0  0  0  0  0  0  0  0
  179.9280  174.9810  136.5790 O   0  0  0  0  0  1  0  0  0  0  0  0
  182.7710  178.5990  139.3150 C   0  0  0  0  0  0  0  0  0  0  0  0
  180.5360  180.6000  139.1210 C   0  0  0  0  0  0  0  0  0  0  0  0
  186.7860  174.7330  137.2290 C   0  0  0  0  0  2  0  0  0  0  0  0
  182.4400  174.1760  137.5970 C   0  0  0  0  0  2  0  0  0  0  0  0
  189.0840  178.8960  137.0020 C   0  0  0  0  0  2  0  0  0  0  0  0
  182.8610  179.9960  139.1330 C   0  0  0  0  0  0  0  0  0  0  0  0
  183.3060  174.4940  136.4170 C   0  0  0  0  0  3  0  0  0  0  0  0
  187.2590  177.4730  136.5390 C   0  0  2  0  0  3  0  0  0  0  0  0
  182.3170  176.1700  139.2230 C   0  0  0  0  0  2  0  0  0  0  0  0
  189.3620  177.4480  137.4140 C   0  0  2  0  0  3  0  0  0  0  0  0
  187.6230  178.9350  136.5980 C   0  0  0  0  0  2  0  0  0  0  0  0
  180.5770  177.9430  138.6660 C   0  0  0  0  0  0  0  0  0  0  0  0
  188.1590  175.4070  137.0880 C   0  0  0  0  0  2  0  0  0  0  0  0
  185.7830  177.1080  136.7060 C   0  0  1  0  0  3  0  0  0  0  0  0
  188.0680  176.7920  137.5290 N   0  0  2  0  0  0  0  0  0  0  0  0
  190.0820  177.4070  138.7530 C   0  0  0  0  0  2  0  0  0  0  0  0
  188.2260  177.2250  142.1510 C   0  0  0  0  0  0  0  0  0  0  0  0
  187.5040  178.2550  142.2040 O   0  0  0  0  0  0  0  0  0  0  0  0
  188.5070  178.8700  139.7700 O   0  0  0  0  0  0  0  0  0  0  0  0
  189.0560  176.9600  141.0150 N   0  0  0  0  0  2  0  0  0  0  0  0
  188.2150  176.2660  143.2860 C   0  0  0  0  0  1  0  0  0  0  0  0
  189.1610  177.7970  139.8580 C   0  0  0  0  0  0  0  0  0  0  0  0
  1 15  1  0  0  0  0
  2 27  1  0  0  0  0
  2 16  1  0  0  0  0
  3 14  1  0  0  0  0
  4 25  2  0  0  0  0
  5 15  1  0  0  0  0
  5 19  1  0  0  0  0
  7  4  1  0  0  0  0
  7 10  2  0  0  0  0
  8  2  2  0  0  0  0
  9  6  1  6  0  0  0
 10 22  1  0  0  0  0
 11  6  2  0  0  0  0
 13  7  1  0  0  0  0
 14  9  1  0  0  0  0
 15 12  2  0  0  0  0
 17 10  1  0  0  0  0
 18 23  1  0  0  0  0
 19 14  2  0  0  0  0
 19  9  1  0  0  0  0
 20  8  2  0  0  0  0
 20 17  1  0  0  0  0
 21 24  1  1  0  0  0
 21 27  1  0  0  0  0
 21 28  1  0  0  0  0
 22  3  1  0  0  0  0
 23 28  1  0  0  0  0
 23 29  1  1  0  0  0
 24 18  1  0  0  0  0
 25  1  1  0  0  0  0
 25  3  1  0  0  0  0
 26 16  1  0  0  0  0
 27 11  1  1  0  0  0
 28 26  1  6  0  0  0
 29 35  1  0  0  0  0
 30 31  2  0  0  0  0
 30 34  1  0  0  0  0
 32 35  2  0  0  0  0
 33 30  1  0  0  0  0
 35 33  1  0  0  0  0
M  END
>  <MODEL>
8

>  <REMARK>
 VINA RESULT:      -7.3      3.458      8.147
  Name = 
  2 active torsions:
  status: ('A' for Active; 'I' for Inactive)
    1  A    between atoms: C_27  and  C_32
    2  A    between atoms: C_29  and  C_32
                            x       y       z     vdW  Elec       q    Type
                         _______ _______ _______ _____ _____    ______ ____

>  <TORSDO>
F 2

$$$$
=
 OpenBabel10222419173D

 35 40  0  0  1  0  0  0  0  0999 V2000
  191.0730  177.2500  144.4420 N   0  0  0  0  0  2  0  0  0  0  0  0
  184.2460  179.0920  144.1830 C   0  0  0  0  0  0  0  0  0  0  0  0
  188.5860  176.7160  144.6640 N   0  0  0  0  0  0  0  0  0  0  0  0
  189.7680  177.9550  146.3260 C   0  0  0  0  0  3  0  0  0  0  0  0
  190.5950  177.5260  141.8470 C   0  0  0  0  0  2  0  0  0  0  0  0
  187.0270  178.0310  142.0210 C   0  0  0  0  0  3  0  0  0  0  0  0
  188.4860  178.1820  147.0210 C   0  0  0  0  0  0  0  0  0  0  0  0
  184.8580  179.1540  145.3390 C   0  0  0  0  0  0  0  0  0  0  0  0
  187.8650  176.7930  142.0210 C   0  0  2  0  0  3  0  0  0  0  0  0
  187.3490  177.6220  146.5700 C   0  0  0  0  0  0  0  0  0  0  0  0
  185.8860  178.0220  142.7130 C   0  0  0  0  0  3  0  0  0  0  0  0
  192.6190  176.7240  142.7840 O   0  0  0  0  0  0  0  0  0  0  0  0
  188.4640  179.0370  148.1160 O   0  0  0  0  0  1  0  0  0  0  0  0
  188.4770  176.7550  143.2740 C   0  0  0  0  0  0  0  0  0  0  0  0
  191.4520  177.1160  143.0380 C   0  0  0  0  0  0  0  0  0  0  0  0
  182.8550  178.4990  144.1470 C   0  0  0  0  0  2  0  0  0  0  0  0
  186.0200  177.9890  147.1560 C   0  0  0  0  0  2  0  0  0  0  0  0
  183.4880  179.2100  139.4830 C   0  0  0  0  0  2  0  0  0  0  0  0
  189.2310  177.0860  142.1260 C   0  0  0  0  0  0  0  0  0  0  0  0
  185.4600  179.2130  146.4980 C   0  0  0  0  0  3  0  0  0  0  0  0
  184.0780  179.4840  141.7520 C   0  0  2  0  0  3  0  0  0  0  0  0
  187.3870  176.5810  145.4860 C   0  0  0  0  0  2  0  0  0  0  0  0
  182.4210  178.6530  140.4290 C   0  0  2  0  0  3  0  0  0  0  0  0
  184.6620  179.5880  140.3650 C   0  0  0  0  0  2  0  0  0  0  0  0
  189.8120  177.2880  145.1710 C   0  0  0  0  0  0  0  0  0  0  0  0
  182.1510  178.7380  142.8030 C   0  0  0  0  0  2  0  0  0  0  0  0
  185.0500  179.2500  142.9090 C   0  0  1  0  0  3  0  0  0  0  0  0
  183.0710  178.4440  141.7130 N   0  0  2  0  0  0  0  0  0  0  0  0
  181.8830  177.3310  139.9010 C   0  0  0  0  0  2  0  0  0  0  0  0
  181.9330  177.8130  136.0550 C   0  0  0  0  0  0  0  0  0  0  0  0
  182.8170  177.0290  135.6220 O   0  0  0  0  0  0  0  0  0  0  0  0
  183.1960  176.3110  138.2000 O   0  0  0  0  0  0  0  0  0  0  0  0
  181.6360  177.8940  137.4540 N   0  0  0  0  0  2  0  0  0  0  0  0
  181.1830  178.6680  135.1000 C   0  0  0  0  0  1  0  0  0  0  0  0
  182.2810  177.1310  138.4790 C   0  0  0  0  0  0  0  0  0  0  0  0
  1 25  1  0  0  0  0
  2  8  2  0  0  0  0
  3 25  1  0  0  0  0
  3 22  1  0  0  0  0
  4  7  1  0  0  0  0
  5 19  1  0  0  0  0
  5 15  1  0  0  0  0
  6 11  2  0  0  0  0
  7 13  1  0  0  0  0
  8 20  2  0  0  0  0
  9  6  1  1  0  0  0
  9 19  1  0  0  0  0
  9 14  1  0  0  0  0
 10  7  2  0  0  0  0
 10 17  1  0  0  0  0
 12 15  2  0  0  0  0
 14  3  1  0  0  0  0
 15  1  1  0  0  0  0
 16  2  1  0  0  0  0
 18 24  1  0  0  0  0
 18 23  1  0  0  0  0
 19 14  2  0  0  0  0
 20 17  1  0  0  0  0
 21 24  1  6  0  0  0
 21 27  1  0  0  0  0
 22 10  1  0  0  0  0
 23 29  1  6  0  0  0
 23 28  1  0  0  0  0
 25  4  2  0  0  0  0
 26 16  1  0  0  0  0
 27 11  1  6  0  0  0
 27  2  1  0  0  0  0
 28 21  1  0  0  0  0
 28 26  1  1  0  0  0
 30 33  1  0  0  0  0
 31 30  2  0  0  0  0
 32 35  2  0  0  0  0
 33 35  1  0  0  0  0
 34 30  1  0  0  0  0
 35 29  1  0  0  0  0
M  END
>  <MODEL>
9

>  <REMARK>
 VINA RESULT:      -7.1      2.861      3.925
  Name = 
  2 active torsions:
  status: ('A' for Active; 'I' for Inactive)
    1  A    between atoms: C_27  and  C_32
    2  A    between atoms: C_29  and  C_32
                            x       y       z     vdW  Elec       q    Type
                         _______ _______ _______ _____ _____    ______ ____

>  <TORSDO>
F 2

$$$$
