=
 OpenBabel10222416053D

 32 34  0  0  1  0  0  0  0  0999 V2000
  191.4550  174.7060  136.0480 C   0  0  0  0  0  3  0  0  0  0  0  0
  189.5520  175.4920  137.3380 C   0  0  0  0  0  0  0  0  0  0  0  0
  188.6390  178.2260  137.8290 N   0  0  0  0  0  0  0  0  0  0  0  0
  190.4770  177.2180  141.8840 C   0  0  0  0  0  3  0  0  0  0  0  0
  187.0100  177.5660  136.2850 O   0  0  0  0  0  0  0  0  0  0  0  0
  190.4270  176.0370  138.2980 C   0  0  0  0  0  0  0  0  0  0  0  0
  187.8470  177.2230  137.1640 C   0  0  0  0  0  0  0  0  0  0  0  0
  191.8140  175.9110  138.1150 C   0  0  0  0  0  3  0  0  0  0  0  0
  192.3290  175.2440  136.9950 C   0  0  0  0  0  0  0  0  0  0  0  0
  188.0790  175.7660  137.4560 C   0  0  1  0  0  3  0  0  0  0  0  0
  189.0530  177.4720  142.2940 C   0  0  2  0  0  3  0  0  0  0  0  0
  190.0750  174.8390  136.2110 C   0  0  0  0  0  3  0  0  0  0  0  0
  189.1310  178.0850  139.2060 C   0  0  2  0  0  3  0  0  0  0  0  0
  190.8340  176.8920  140.6360 C   0  0  0  0  0  3  0  0  0  0  0  0
  189.8480  176.7470  139.5050 C   0  0  2  0  0  3  0  0  0  0  0  0
  188.9120  179.4810  137.1500 C   0  0  0  0  0  1  0  0  0  0  0  0
  187.9760  178.3000  140.1790 C   0  0  0  0  0  2  0  0  0  0  0  0
  188.4660  178.6800  141.5700 C   0  0  0  0  0  2  0  0  0  0  0  0
  194.4240  176.3390  136.7930 O   0  0  0  0  0  1  0  0  0  0  0  0
  193.8020  175.0890  136.8030 C   0  0  1  0  0  3  0  0  0  0  0  0
  194.3950  174.2170  137.8980 C   0  0  0  0  0  2  0  0  0  0  0  0
  195.2840  175.0060  138.7320 N   0  0  0  0  0  1  0  0  0  0  0  0
  188.9540  177.6470  143.8070 C   0  0  0  0  0  2  0  0  0  0  0  0
  190.2040  177.3350  144.4510 N   0  0  0  0  0  0  0  0  0  0  0  0
  190.2220  176.9960  145.6860 C   0  0  0  0  0  3  0  0  0  0  0  0
  191.5130  176.6740  146.3520 C   0  0  0  0  0  1  0  0  0  0  0  0
  187.3210  174.9220  136.5970 O   0  0  0  0  0  0  0  0  0  0  0  0
  186.4680  172.8440  137.3410 C   0  0  0  0  0  3  0  0  0  0  0  0
  186.2880  174.1360  137.1020 C   0  0  0  0  0  3  0  0  0  0  0  0
  187.7220  172.2180  137.0890 N   0  0  0  0  0  2  0  0  0  0  0  0
  187.9390  171.5220  135.8680 C   0  0  0  0  0  3  0  0  0  0  0  0
  186.9510  170.8420  135.3100 C   0  0  0  0  0  2  0  0  0  0  0  0
  1 12  2  0  0  0  0
  1  9  1  0  0  0  0
  2 10  1  0  0  0  0
  2  6  2  0  0  0  0
  3 13  1  0  0  0  0
  4 11  1  0  0  0  0
  5  7  2  0  0  0  0
  6 15  1  0  0  0  0
  7 10  1  0  0  0  0
  7  3  1  0  0  0  0
  8  6  1  0  0  0  0
  9  8  2  0  0  0  0
 10 27  1  6  0  0  0
 11 23  1  1  0  0  0
 12  2  1  0  0  0  0
 13 15  1  0  0  0  0
 13 17  1  1  0  0  0
 14  4  2  0  0  0  0
 15 14  1  1  0  0  0
 16  3  1  0  0  0  0
 17 18  1  0  0  0  0
 18 11  1  0  0  0  0
 20 19  1  1  0  0  0
 20  9  1  0  0  0  0
 20 21  1  0  0  0  0
 21 22  1  0  0  0  0
 23 24  1  0  0  0  0
 24 25  2  0  0  0  0
 25 26  1  0  0  0  0
 27 29  1  0  0  0  0
 29 28  2  0  0  0  0
 30 28  1  0  0  0  0
 31 30  1  0  0  0  0
 32 31  2  0  0  0  0
M  END
>  <MODEL>
1

>  <REMARK>
 VINA RESULT:      -6.6      0.000      0.000
  Name = 
  8 active torsions:
  status: ('A' for Active; 'I' for Inactive)
    1  A    between atoms: C_1  and  N_16
    2  A    between atoms: N_3  and  C_12
    3  A    between atoms: C_5  and  N_16
    4  A    between atoms: C_10  and  C_15
    5  A    between atoms: C_10  and  C_20
    6  A    between atoms: C_12  and  C_24
    7  A    between atoms: C_13  and  O_22
    8  A    between atoms: O_22  and  C_23
                            x       y       z     vdW  Elec       q    Type
                         _______ _______ _______ _____ _____    ______ ____

>  <TORSDO>
F 8

$$$$
=
 OpenBabel10222416053D

 32 34  0  0  1  0  0  0  0  0999 V2000
  191.5120  174.6810  136.0790 C   0  0  0  0  0  3  0  0  0  0  0  0
  189.5970  175.4340  137.3700 C   0  0  0  0  0  0  0  0  0  0  0  0
  188.6200  178.1510  137.8340 N   0  0  0  0  0  0  0  0  0  0  0  0
  190.5040  177.2370  141.8900 C   0  0  0  0  0  3  0  0  0  0  0  0
  186.9990  177.4330  136.3080 O   0  0  0  0  0  0  0  0  0  0  0  0
  190.4630  176.0120  138.3190 C   0  0  0  0  0  0  0  0  0  0  0  0
  187.8490  177.1220  137.1850 C   0  0  0  0  0  0  0  0  0  0  0  0
  191.8520  175.9180  138.1290 C   0  0  0  0  0  3  0  0  0  0  0  0
  192.3770  175.2510  137.0150 C   0  0  0  0  0  0  0  0  0  0  0  0
  188.1180  175.6740  137.4940 C   0  0  1  0  0  3  0  0  0  0  0  0
  189.0760  177.4600  142.3060 C   0  0  2  0  0  3  0  0  0  0  0  0
  190.1290  174.7810  136.2480 C   0  0  0  0  0  3  0  0  0  0  0  0
  189.1220  178.0390  139.2100 C   0  0  2  0  0  3  0  0  0  0  0  0
  190.8620  176.9050  140.6440 C   0  0  0  0  0  3  0  0  0  0  0  0
  189.8740  176.7220  139.5210 C   0  0  2  0  0  3  0  0  0  0  0  0
  188.8580  179.4040  137.1390 C   0  0  0  0  0  1  0  0  0  0  0  0
  187.9680  178.2370  140.1870 C   0  0  0  0  0  2  0  0  0  0  0  0
  188.4560  178.6450  141.5700 C   0  0  0  0  0  2  0  0  0  0  0  0
  194.4530  176.3900  136.8580 O   0  0  0  0  0  1  0  0  0  0  0  0
  193.8530  175.1290  136.8160 C   0  0  1  0  0  3  0  0  0  0  0  0
  194.4620  174.2230  137.8730 C   0  0  0  0  0  2  0  0  0  0  0  0
  195.4640  174.9500  138.6310 N   0  0  0  0  0  1  0  0  0  0  0  0
  188.9820  177.6520  143.8170 C   0  0  0  0  0  2  0  0  0  0  0  0
  187.6110  177.6280  144.2610 N   0  0  0  0  0  0  0  0  0  0  0  0
  187.3220  177.9550  145.4650 C   0  0  0  0  0  3  0  0  0  0  0  0
  185.9060  177.9300  145.9230 C   0  0  0  0  0  1  0  0  0  0  0  0
  187.3760  174.8010  136.6490 O   0  0  0  0  0  0  0  0  0  0  0  0
  185.3110  173.8010  137.2270 C   0  0  0  0  0  3  0  0  0  0  0  0
  186.6360  173.7510  137.1850 C   0  0  0  0  0  3  0  0  0  0  0  0
  184.6030  174.9310  136.7250 N   0  0  0  0  0  2  0  0  0  0  0  0
  184.0370  175.8750  137.6250 C   0  0  0  0  0  3  0  0  0  0  0  0
  183.0690  175.5060  138.4480 C   0  0  0  0  0  2  0  0  0  0  0  0
  1 12  2  0  0  0  0
  1  9  1  0  0  0  0
  2 10  1  0  0  0  0
  2  6  2  0  0  0  0
  3 13  1  0  0  0  0
  4 11  1  0  0  0  0
  5  7  2  0  0  0  0
  6 15  1  0  0  0  0
  7 10  1  0  0  0  0
  7  3  1  0  0  0  0
  8  6  1  0  0  0  0
  9  8  2  0  0  0  0
 10 27  1  6  0  0  0
 11 23  1  1  0  0  0
 12  2  1  0  0  0  0
 13 15  1  0  0  0  0
 13 17  1  1  0  0  0
 14  4  2  0  0  0  0
 15 14  1  1  0  0  0
 16  3  1  0  0  0  0
 17 18  1  0  0  0  0
 18 11  1  0  0  0  0
 20 19  1  1  0  0  0
 20  9  1  0  0  0  0
 20 21  1  0  0  0  0
 21 22  1  0  0  0  0
 23 24  1  0  0  0  0
 24 25  2  0  0  0  0
 25 26  1  0  0  0  0
 27 29  1  0  0  0  0
 29 28  2  0  0  0  0
 30 28  1  0  0  0  0
 30 31  1  0  0  0  0
 31 32  2  0  0  0  0
M  END
>  <MODEL>
2

>  <REMARK>
 VINA RESULT:      -6.5      1.451      2.189
  Name = 
  8 active torsions:
  status: ('A' for Active; 'I' for Inactive)
    1  A    between atoms: C_1  and  N_16
    2  A    between atoms: N_3  and  C_12
    3  A    between atoms: C_5  and  N_16
    4  A    between atoms: C_10  and  C_15
    5  A    between atoms: C_10  and  C_20
    6  A    between atoms: C_12  and  C_24
    7  A    between atoms: C_13  and  O_22
    8  A    between atoms: O_22  and  C_23
                            x       y       z     vdW  Elec       q    Type
                         _______ _______ _______ _____ _____    ______ ____

>  <TORSDO>
F 8

$$$$
=
 OpenBabel10222416053D

 32 34  0  0  1  0  0  0  0  0999 V2000
  186.7680  177.6220  146.0970 C   0  0  0  0  0  3  0  0  0  0  0  0
  188.8740  177.0380  145.0360 C   0  0  0  0  0  0  0  0  0  0  0  0
  190.8780  178.7720  143.8010 N   0  0  0  0  0  0  0  0  0  0  0  0
  188.9500  176.9470  140.0880 C   0  0  0  0  0  3  0  0  0  0  0  0
  192.0120  178.2530  145.7810 O   0  0  0  0  0  0  0  0  0  0  0  0
  188.3520  177.4210  143.7860 C   0  0  0  0  0  0  0  0  0  0  0  0
  191.1440  177.9180  144.9290 C   0  0  0  0  0  0  0  0  0  0  0  0
  187.0360  177.9070  143.7100 C   0  0  0  0  0  3  0  0  0  0  0  0
  186.2440  178.0040  144.8610 C   0  0  0  0  0  0  0  0  0  0  0  0
  190.3290  176.6700  145.1360 C   0  0  1  0  0  3  0  0  0  0  0  0
  190.3630  176.4610  139.9190 C   0  0  2  0  0  3  0  0  0  0  0  0
  188.0800  177.1530  146.1880 C   0  0  0  0  0  3  0  0  0  0  0  0
  190.4290  178.2710  142.4960 C   0  0  2  0  0  3  0  0  0  0  0  0
  188.4390  177.3220  141.2670 C   0  0  0  0  0  3  0  0  0  0  0  0
  189.2250  177.3010  142.5530 C   0  0  2  0  0  3  0  0  0  0  0  0
  191.1360  180.1980  143.9140 C   0  0  0  0  0  1  0  0  0  0  0  0
  191.6040  177.6200  141.7720 C   0  0  0  0  0  2  0  0  0  0  0  0
  191.3760  177.5470  140.2690 C   0  0  0  0  0  2  0  0  0  0  0  0
  184.4700  179.1030  145.9910 O   0  0  0  0  0  1  0  0  0  0  0  0
  184.8360  178.5010  144.7860 C   0  0  1  0  0  3  0  0  0  0  0  0
  184.6770  179.4840  143.6380 C   0  0  0  0  0  2  0  0  0  0  0  0
  183.7580  178.9480  142.6500 N   0  0  0  0  0  1  0  0  0  0  0  0
  190.5870  175.9480  138.4990 C   0  0  0  0  0  2  0  0  0  0  0  0
  191.8160  176.4590  137.9480 N   0  0  0  0  0  0  0  0  0  0  0  0
  192.4830  175.7560  137.1110 C   0  0  0  0  0  3  0  0  0  0  0  0
  193.7530  176.2830  136.5410 C   0  0  0  0  0  1  0  0  0  0  0  0
  190.6230  176.0400  146.3780 O   0  0  0  0  0  0  0  0  0  0  0  0
  192.6150  175.3480  147.4510 C   0  0  0  0  0  3  0  0  0  0  0  0
  191.7090  175.1780  146.4970 C   0  0  0  0  0  3  0  0  0  0  0  0
  192.5070  176.4200  148.3830 N   0  0  0  0  0  0  0  0  0  0  0  0
  193.4340  176.5300  149.4550 C   0  0  0  0  0  3  0  0  0  0  0  0
  193.4490  177.6180  150.2080 C   0  0  0  0  0  1  0  0  0  0  0  0
  1 12  1  0  0  0  0
  2 10  1  0  0  0  0
  2 12  2  0  0  0  0
  3 16  1  0  0  0  0
  3  7  1  0  0  0  0
  4 14  2  0  0  0  0
  6  2  1  0  0  0  0
  7 10  1  0  0  0  0
  7  5  2  0  0  0  0
  8  6  2  0  0  0  0
  8  9  1  0  0  0  0
  9  1  2  0  0  0  0
 10 27  1  1  0  0  0
 11 23  1  6  0  0  0
 11  4  1  0  0  0  0
 11 18  1  0  0  0  0
 13 17  1  1  0  0  0
 13 15  1  0  0  0  0
 13  3  1  0  0  0  0
 15 14  1  6  0  0  0
 15  6  1  0  0  0  0
 18 17  1  0  0  0  0
 20  9  1  0  0  0  0
 20 19  1  1  0  0  0
 21 20  1  0  0  0  0
 22 21  1  0  0  0  0
 24 23  1  0  0  0  0
 25 24  2  0  0  0  0
 26 25  1  0  0  0  0
 27 29  1  0  0  0  0
 28 30  1  0  0  0  0
 29 28  2  0  0  0  0
 30 31  2  0  0  0  0
 31 32  1  0  0  0  0
M  END
>  <MODEL>
3

>  <REMARK>
 VINA RESULT:      -5.9      4.218      9.579
  Name = 
  8 active torsions:
  status: ('A' for Active; 'I' for Inactive)
    1  A    between atoms: C_1  and  N_16
    2  A    between atoms: N_3  and  C_12
    3  A    between atoms: C_5  and  N_16
    4  A    between atoms: C_10  and  C_15
    5  A    between atoms: C_10  and  C_20
    6  A    between atoms: C_12  and  C_24
    7  A    between atoms: C_13  and  O_22
    8  A    between atoms: O_22  and  C_23
                            x       y       z     vdW  Elec       q    Type
                         _______ _______ _______ _____ _____    ______ ____

>  <TORSDO>
F 8

$$$$
=
 OpenBabel10222416053D

 32 34  0  0  1  0  0  0  0  0999 V2000
  181.6930  179.1250  143.7380 C   0  0  0  0  0  3  0  0  0  0  0  0
  183.3850  178.1690  142.2800 C   0  0  0  0  0  0  0  0  0  0  0  0
  184.2850  179.0570  139.6440 N   0  0  0  0  0  0  0  0  0  0  0  0
  181.7900  175.4120  138.4920 C   0  0  0  0  0  3  0  0  0  0  0  0
  186.1220  179.7550  140.9130 O   0  0  0  0  0  0  0  0  0  0  0  0
  182.3840  177.7850  141.3680 C   0  0  0  0  0  0  0  0  0  0  0  0
  185.1450  178.9670  140.7960 C   0  0  0  0  0  0  0  0  0  0  0  0
  181.0410  178.0830  141.6550 C   0  0  0  0  0  3  0  0  0  0  0  0
  180.6950  178.7480  142.8380 C   0  0  0  0  0  0  0  0  0  0  0  0
  184.8280  177.9910  141.8960 C   0  0  1  0  0  3  0  0  0  0  0  0
  183.1360  174.9860  137.9750 C   0  0  2  0  0  3  0  0  0  0  0  0
  183.0330  178.8490  143.4560 C   0  0  0  0  0  3  0  0  0  0  0  0
  183.5750  177.9050  139.0730 C   0  0  2  0  0  3  0  0  0  0  0  0
  181.6300  176.3390  139.4430 C   0  0  0  0  0  3  0  0  0  0  0  0
  182.7800  177.0600  140.0980 C   0  0  2  0  0  3  0  0  0  0  0  0
  184.1610  180.3270  138.9480 C   0  0  0  0  0  1  0  0  0  0  0  0
  184.5630  177.0280  138.3120 C   0  0  0  0  0  2  0  0  0  0  0  0
  183.8660  176.1380  137.2910 C   0  0  0  0  0  2  0  0  0  0  0  0
  178.9310  178.5260  144.4110 O   0  0  0  0  0  1  0  0  0  0  0  0
  179.2670  179.0510  143.1610 C   0  0  1  0  0  3  0  0  0  0  0  0
  179.0200  180.5500  143.1380 C   0  0  0  0  0  2  0  0  0  0  0  0
  179.2480  181.0690  141.8010 N   0  0  0  0  0  1  0  0  0  0  0  0
  182.9950  173.7970  137.0290 C   0  0  0  0  0  2  0  0  0  0  0  0
  181.6430  173.2990  137.0150 N   0  0  0  0  0  0  0  0  0  0  0  0
  181.4210  172.0430  137.1340 C   0  0  0  0  0  3  0  0  0  0  0  0
  180.0240  171.5290  137.1190 C   0  0  0  0  0  1  0  0  0  0  0  0
  185.6900  178.1520  143.0170 O   0  0  0  0  0  0  0  0  0  0  0  0
  187.3910  177.2710  144.4060 C   0  0  0  0  0  3  0  0  0  0  0  0
  186.7020  177.2300  143.2730 C   0  0  0  0  0  3  0  0  0  0  0  0
  187.1200  178.2590  145.3950 N   0  0  0  0  0  2  0  0  0  0  0  0
  186.3360  177.9300  146.5350 C   0  0  0  0  0  3  0  0  0  0  0  0
  185.0550  178.2590  146.5740 C   0  0  0  0  0  2  0  0  0  0  0  0
  2 12  2  0  0  0  0
  3  7  1  0  0  0  0
  4 14  2  0  0  0  0
  6  8  2  0  0  0  0
  6  2  1  0  0  0  0
  7  5  2  0  0  0  0
  7 10  1  0  0  0  0
  8  9  1  0  0  0  0
  9 20  1  0  0  0  0
  9  1  2  0  0  0  0
 10  2  1  0  0  0  0
 10 27  1  1  0  0  0
 11 23  1  6  0  0  0
 11  4  1  0  0  0  0
 12  1  1  0  0  0  0
 13 17  1  1  0  0  0
 13  3  1  0  0  0  0
 13 15  1  0  0  0  0
 15 14  1  6  0  0  0
 15  6  1  0  0  0  0
 16  3  1  0  0  0  0
 18 11  1  0  0  0  0
 18 17  1  0  0  0  0
 20 19  1  1  0  0  0
 21 20  1  0  0  0  0
 22 21  1  0  0  0  0
 24 23  1  0  0  0  0
 24 25  2  0  0  0  0
 26 25  1  0  0  0  0
 27 29  1  0  0  0  0
 28 30  1  0  0  0  0
 29 28  2  0  0  0  0
 30 31  1  0  0  0  0
 31 32  2  0  0  0  0
M  END
>  <MODEL>
4

>  <REMARK>
 VINA RESULT:      -5.6      5.943     10.794
  Name = 
  8 active torsions:
  status: ('A' for Active; 'I' for Inactive)
    1  A    between atoms: C_1  and  N_16
    2  A    between atoms: N_3  and  C_12
    3  A    between atoms: C_5  and  N_16
    4  A    between atoms: C_10  and  C_15
    5  A    between atoms: C_10  and  C_20
    6  A    between atoms: C_12  and  C_24
    7  A    between atoms: C_13  and  O_22
    8  A    between atoms: O_22  and  C_23
                            x       y       z     vdW  Elec       q    Type
                         _______ _______ _______ _____ _____    ______ ____

>  <TORSDO>
F 8

$$$$
=
 OpenBabel10222416053D

 32 34  0  0  1  0  0  0  0  0999 V2000
  188.7300  177.4950  141.2400 C   0  0  0  0  0  3  0  0  0  0  0  0
  189.0870  177.5070  138.8370 C   0  0  0  0  0  0  0  0  0  0  0  0
  189.1750  175.2680  136.9590 N   0  0  0  0  0  0  0  0  0  0  0  0
  193.6120  176.3050  137.2310 C   0  0  0  0  0  3  0  0  0  0  0  0
  187.0720  176.1300  136.4060 O   0  0  0  0  0  0  0  0  0  0  0  0
  190.3370  176.8850  139.0190 C   0  0  0  0  0  0  0  0  0  0  0  0
  188.2200  176.3430  136.8810 C   0  0  0  0  0  0  0  0  0  0  0  0
  190.7670  176.5710  140.3190 C   0  0  0  0  0  3  0  0  0  0  0  0
  189.9680  176.8780  141.4280 C   0  0  0  0  0  0  0  0  0  0  0  0
  188.5640  177.6970  137.4410 C   0  0  1  0  0  3  0  0  0  0  0  0
  193.3730  176.5440  135.7660 C   0  0  2  0  0  3  0  0  0  0  0  0
  188.2850  177.7980  139.9520 C   0  0  0  0  0  3  0  0  0  0  0  0
  190.6270  175.4680  136.8720 C   0  0  2  0  0  3  0  0  0  0  0  0
  192.6350  176.3180  138.1450 C   0  0  0  0  0  3  0  0  0  0  0  0
  191.1880  176.5690  137.8050 C   0  0  2  0  0  3  0  0  0  0  0  0
  188.6960  173.8990  137.0520 C   0  0  0  0  0  1  0  0  0  0  0  0
  191.0120  175.7520  135.4230 C   0  0  0  0  0  2  0  0  0  0  0  0
  192.4830  175.4640  135.1580 C   0  0  0  0  0  2  0  0  0  0  0  0
  190.5200  175.1830  142.9950 O   0  0  0  0  0  1  0  0  0  0  0  0
  190.4270  176.5650  142.8160 C   0  0  1  0  0  3  0  0  0  0  0  0
  191.7680  177.2230  143.0970 C   0  0  0  0  0  2  0  0  0  0  0  0
  191.6160  178.2370  144.1260 N   0  0  0  0  0  1  0  0  0  0  0  0
  194.6990  176.6390  135.0150 C   0  0  0  0  0  2  0  0  0  0  0  0
  195.7840  176.1150  135.8050 N   0  0  0  0  0  0  0  0  0  0  0  0
  196.7900  175.5700  135.2290 C   0  0  0  0  0  3  0  0  0  0  0  0
  197.9110  175.0280  136.0450 C   0  0  0  0  0  1  0  0  0  0  0  0
  187.4500  178.5830  137.4170 O   0  0  0  0  0  0  0  0  0  0  0  0
  185.2030  178.3550  138.1230 C   0  0  0  0  0  3  0  0  0  0  0  0
  186.1580  178.0960  137.2400 C   0  0  0  0  0  3  0  0  0  0  0  0
  185.4690  179.1400  139.2820 N   0  0  0  0  0  2  0  0  0  0  0  0
  184.7090  178.9420  140.4670 C   0  0  0  0  0  3  0  0  0  0  0  0
  185.2530  179.1810  141.6490 C   0  0  0  0  0  2  0  0  0  0  0  0
  1  9  1  0  0  0  0
  2  6  2  0  0  0  0
  2 12  1  0  0  0  0
  3 16  1  0  0  0  0
  4 14  2  0  0  0  0
  5  7  2  0  0  0  0
  6  8  1  0  0  0  0
  7  3  1  0  0  0  0
  7 10  1  0  0  0  0
  8  9  2  0  0  0  0
  9 20  1  0  0  0  0
 10 27  1  1  0  0  0
 10  2  1  0  0  0  0
 11 23  1  6  0  0  0
 11  4  1  0  0  0  0
 12  1  2  0  0  0  0
 13 17  1  6  0  0  0
 13  3  1  0  0  0  0
 13 15  1  0  0  0  0
 15 14  1  1  0  0  0
 15  6  1  0  0  0  0
 18 17  1  0  0  0  0
 18 11  1  0  0  0  0
 20 19  1  6  0  0  0
 20 21  1  0  0  0  0
 21 22  1  0  0  0  0
 23 24  1  0  0  0  0
 25 24  2  0  0  0  0
 25 26  1  0  0  0  0
 28 30  1  0  0  0  0
 29 27  1  0  0  0  0
 29 28  2  0  0  0  0
 30 31  1  0  0  0  0
 31 32  2  0  0  0  0
M  END
>  <MODEL>
5

>  <REMARK>
 VINA RESULT:      -5.5      2.402      6.687
  Name = 
  8 active torsions:
  status: ('A' for Active; 'I' for Inactive)
    1  A    between atoms: C_1  and  N_16
    2  A    between atoms: N_3  and  C_12
    3  A    between atoms: C_5  and  N_16
    4  A    between atoms: C_10  and  C_15
    5  A    between atoms: C_10  and  C_20
    6  A    between atoms: C_12  and  C_24
    7  A    between atoms: C_13  and  O_22
    8  A    between atoms: O_22  and  C_23
                            x       y       z     vdW  Elec       q    Type
                         _______ _______ _______ _____ _____    ______ ____

>  <TORSDO>
F 8

$$$$
=
 OpenBabel10222416053D

 32 34  0  0  1  0  0  0  0  0999 V2000
  179.7290  179.9310  140.1000 C   0  0  0  0  0  3  0  0  0  0  0  0
  181.0820  179.4470  138.1410 C   0  0  0  0  0  0  0  0  0  0  0  0
  181.9290  176.8670  137.0570 N   0  0  0  0  0  0  0  0  0  0  0  0
  185.8380  178.3160  138.9170 C   0  0  0  0  0  3  0  0  0  0  0  0
  180.2810  177.4020  135.4860 O   0  0  0  0  0  0  0  0  0  0  0  0
  182.1230  178.9890  138.9710 C   0  0  0  0  0  0  0  0  0  0  0  0
  181.1180  177.8130  136.3350 C   0  0  0  0  0  0  0  0  0  0  0  0
  181.9480  179.0060  140.3650 C   0  0  0  0  0  3  0  0  0  0  0  0
  180.7570  179.4790  140.9300 C   0  0  0  0  0  0  0  0  0  0  0  0
  181.2110  179.2800  136.6520 C   0  0  1  0  0  3  0  0  0  0  0  0
  186.2540  178.2070  137.4760 C   0  0  2  0  0  3  0  0  0  0  0  0
  179.8850  179.9050  138.7120 C   0  0  0  0  0  3  0  0  0  0  0  0
  183.2820  177.1670  137.5440 C   0  0  2  0  0  3  0  0  0  0  0  0
  184.5640  178.4440  139.3040 C   0  0  0  0  0  3  0  0  0  0  0  0
  183.4060  178.4890  138.3400 C   0  0  2  0  0  3  0  0  0  0  0  0
  181.4340  175.5160  137.2590 C   0  0  0  0  0  1  0  0  0  0  0  0
  184.2550  177.1590  136.3690 C   0  0  0  0  0  2  0  0  0  0  0  0
  185.6930  176.9470  136.8230 C   0  0  0  0  0  2  0  0  0  0  0  0
  179.9500  180.7110  142.7910 O   0  0  0  0  0  1  0  0  0  0  0  0
  180.5710  179.5190  142.4120 C   0  0  1  0  0  3  0  0  0  0  0  0
  179.7500  178.3280  142.8800 C   0  0  0  0  0  2  0  0  0  0  0  0
  179.3760  178.5010  144.2730 N   0  0  0  0  0  1  0  0  0  0  0  0
  187.7750  178.2490  137.3530 C   0  0  0  0  0  2  0  0  0  0  0  0
  188.4080  177.6200  138.4850 N   0  0  0  0  0  0  0  0  0  0  0  0
  189.5850  177.9780  138.8410 C   0  0  0  0  0  3  0  0  0  0  0  0
  190.2380  177.3280  140.0100 C   0  0  0  0  0  1  0  0  0  0  0  0
  180.2300  180.0400  135.9550 O   0  0  0  0  0  0  0  0  0  0  0  0
  180.5300  182.2700  135.2200 C   0  0  0  0  0  3  0  0  0  0  0  0
  180.6060  180.9660  134.9860 C   0  0  0  0  0  3  0  0  0  0  0  0
  180.0600  182.7640  136.4710 N   0  0  0  0  0  2  0  0  0  0  0  0
  180.9640  183.3810  137.3790 C   0  0  0  0  0  3  0  0  0  0  0  0
  181.4950  184.5570  137.0860 C   0  0  0  0  0  2  0  0  0  0  0  0
  1  9  1  0  0  0  0
  2 12  1  0  0  0  0
  2  6  2  0  0  0  0
  3 16  1  0  0  0  0
  3 13  1  0  0  0  0
  4 14  2  0  0  0  0
  5  7  2  0  0  0  0
  6  8  1  0  0  0  0
  7 10  1  0  0  0  0
  7  3  1  0  0  0  0
  8  9  2  0  0  0  0
  9 20  1  0  0  0  0
 10 27  1  6  0  0  0
 10  2  1  0  0  0  0
 11 23  1  1  0  0  0
 11  4  1  0  0  0  0
 12  1  2  0  0  0  0
 13 17  1  6  0  0  0
 13 15  1  0  0  0  0
 15  6  1  0  0  0  0
 15 14  1  1  0  0  0
 17 18  1  0  0  0  0
 18 11  1  0  0  0  0
 20 19  1  6  0  0  0
 20 21  1  0  0  0  0
 21 22  1  0  0  0  0
 23 24  1  0  0  0  0
 24 25  2  0  0  0  0
 25 26  1  0  0  0  0
 28 30  1  0  0  0  0
 29 28  2  0  0  0  0
 29 27  1  0  0  0  0
 30 31  1  0  0  0  0
 32 31  2  0  0  0  0
M  END
>  <MODEL>
6

>  <REMARK>
 VINA RESULT:      -5.5      6.685     10.269
  Name = 
  8 active torsions:
  status: ('A' for Active; 'I' for Inactive)
    1  A    between atoms: C_1  and  N_16
    2  A    between atoms: N_3  and  C_12
    3  A    between atoms: C_5  and  N_16
    4  A    between atoms: C_10  and  C_15
    5  A    between atoms: C_10  and  C_20
    6  A    between atoms: C_12  and  C_24
    7  A    between atoms: C_13  and  O_22
    8  A    between atoms: O_22  and  C_23
                            x       y       z     vdW  Elec       q    Type
                         _______ _______ _______ _____ _____    ______ ____

>  <TORSDO>
F 8

$$$$
=
 OpenBabel10222416053D

 32 34  0  0  1  0  0  0  0  0999 V2000
  182.7520  175.4250  138.1460 C   0  0  0  0  0  3  0  0  0  0  0  0
  182.5850  177.6440  139.1200 C   0  0  0  0  0  0  0  0  0  0  0  0
  180.2670  178.9950  140.2840 N   0  0  0  0  0  0  0  0  0  0  0  0
  180.6000  181.1930  136.2980 C   0  0  0  0  0  3  0  0  0  0  0  0
  181.4220  178.4840  142.2530 O   0  0  0  0  0  0  0  0  0  0  0  0
  181.7820  178.0590  138.0400 C   0  0  0  0  0  0  0  0  0  0  0  0
  181.4750  178.7030  141.0130 C   0  0  0  0  0  0  0  0  0  0  0  0
  181.4700  177.1410  137.0230 C   0  0  0  0  0  3  0  0  0  0  0  0
  181.9560  175.8280  137.0720 C   0  0  0  0  0  0  0  0  0  0  0  0
  182.7830  178.5790  140.2810 C   0  0  1  0  0  3  0  0  0  0  0  0
  180.7990  182.3390  137.2500 C   0  0  2  0  0  3  0  0  0  0  0  0
  183.0550  176.3230  139.1720 C   0  0  0  0  0  3  0  0  0  0  0  0
  180.2300  179.8460  139.0880 C   0  0  2  0  0  3  0  0  0  0  0  0
  180.8140  179.9150  136.6330 C   0  0  0  0  0  3  0  0  0  0  0  0
  181.2730  179.4850  138.0030 C   0  0  2  0  0  3  0  0  0  0  0  0
  178.9980  178.4940  140.7850 C   0  0  0  0  0  1  0  0  0  0  0  0
  180.3750  181.3070  139.5020 C   0  0  0  0  0  2  0  0  0  0  0  0
  179.8440  182.2560  138.4370 C   0  0  0  0  0  2  0  0  0  0  0  0
  182.4980  173.7470  136.0680 O   0  0  0  0  0  1  0  0  0  0  0  0
  181.6460  174.8510  135.9840 C   0  0  1  0  0  3  0  0  0  0  0  0
  180.1960  174.4030  136.0660 C   0  0  0  0  0  2  0  0  0  0  0  0
  180.0930  173.2040  136.8790 N   0  0  0  0  0  1  0  0  0  0  0  0
  180.6440  183.6720  136.5230 C   0  0  0  0  0  2  0  0  0  0  0  0
  179.6570  184.5040  137.1630 N   0  0  0  0  0  0  0  0  0  0  0  0
  180.0180  185.5670  137.7810 C   0  0  0  0  0  3  0  0  0  0  0  0
  178.9980  186.4250  138.4420 C   0  0  0  0  0  1  0  0  0  0  0  0
  183.8320  178.1350  141.1340 O   0  0  0  0  0  0  0  0  0  0  0  0
  185.2270  179.1260  142.7690 C   0  0  0  0  0  3  0  0  0  0  0  0
  184.8630  178.9970  141.5000 C   0  0  0  0  0  3  0  0  0  0  0  0
  184.5740  178.3880  143.7980 N   0  0  0  0  0  2  0  0  0  0  0  0
  184.4090  178.9590  145.0900 C   0  0  0  0  0  3  0  0  0  0  0  0
  185.3630  178.8320  145.9970 C   0  0  0  0  0  2  0  0  0  0  0  0
  1 12  1  0  0  0  0
  2 12  2  0  0  0  0
  2 10  1  0  0  0  0
  3 16  1  0  0  0  0
  3  7  1  0  0  0  0
  4 14  2  0  0  0  0
  4 11  1  0  0  0  0
  6  2  1  0  0  0  0
  7  5  2  0  0  0  0
  8  9  1  0  0  0  0
  8  6  2  0  0  0  0
  9  1  2  0  0  0  0
 10  7  1  0  0  0  0
 10 27  1  1  0  0  0
 11 23  1  6  0  0  0
 11 18  1  0  0  0  0
 13 17  1  1  0  0  0
 13  3  1  0  0  0  0
 15 14  1  6  0  0  0
 15  6  1  0  0  0  0
 15 13  1  0  0  0  0
 18 17  1  0  0  0  0
 20 21  1  0  0  0  0
 20 19  1  1  0  0  0
 20  9  1  0  0  0  0
 21 22  1  0  0  0  0
 23 24  1  0  0  0  0
 24 25  2  0  0  0  0
 25 26  1  0  0  0  0
 27 29  1  0  0  0  0
 28 30  1  0  0  0  0
 29 28  2  0  0  0  0
 30 31  1  0  0  0  0
 31 32  2  0  0  0  0
M  END
>  <MODEL>
7

>  <REMARK>
 VINA RESULT:      -5.4      7.218     10.931
  Name = 
  8 active torsions:
  status: ('A' for Active; 'I' for Inactive)
    1  A    between atoms: C_1  and  N_16
    2  A    between atoms: N_3  and  C_12
    3  A    between atoms: C_5  and  N_16
    4  A    between atoms: C_10  and  C_15
    5  A    between atoms: C_10  and  C_20
    6  A    between atoms: C_12  and  C_24
    7  A    between atoms: C_13  and  O_22
    8  A    between atoms: O_22  and  C_23
                            x       y       z     vdW  Elec       q    Type
                         _______ _______ _______ _____ _____    ______ ____

>  <TORSDO>
F 8

$$$$
=
 OpenBabel10222416053D

 32 34  0  0  1  0  0  0  0  0999 V2000
  182.6160  180.3200  138.6240 C   0  0  0  0  0  3  0  0  0  0  0  0
  184.3150  178.5840  138.6690 C   0  0  0  0  0  0  0  0  0  0  0  0
  185.9840  177.5600  136.4980 N   0  0  0  0  0  0  0  0  0  0  0  0
  183.0150  174.1240  136.9620 C   0  0  0  0  0  3  0  0  0  0  0  0
  187.5930  178.8230  137.6340 O   0  0  0  0  0  0  0  0  0  0  0  0
  183.4880  177.7530  137.8890 C   0  0  0  0  0  0  0  0  0  0  0  0
  186.5080  178.1830  137.6860 C   0  0  0  0  0  0  0  0  0  0  0  0
  182.2280  178.2240  137.4820 C   0  0  0  0  0  3  0  0  0  0  0  0
  181.7900  179.5030  137.8510 C   0  0  0  0  0  0  0  0  0  0  0  0
  185.7200  178.1400  138.9670 C   0  0  1  0  0  3  0  0  0  0  0  0
  184.3000  173.4080  137.2760 C   0  0  2  0  0  3  0  0  0  0  0  0
  183.8770  179.8700  139.0220 C   0  0  0  0  0  3  0  0  0  0  0  0
  185.1670  176.3400  136.5170 C   0  0  2  0  0  3  0  0  0  0  0  0
  182.8700  175.4500  137.0670 C   0  0  0  0  0  3  0  0  0  0  0  0
  183.9780  176.3710  137.5080 C   0  0  2  0  0  3  0  0  0  0  0  0
  186.3350  178.1050  135.1980 C   0  0  0  0  0  1  0  0  0  0  0  0
  186.0620  175.1360  136.7970 C   0  0  0  0  0  2  0  0  0  0  0  0
  185.4240  173.8330  136.3350 C   0  0  0  0  0  2  0  0  0  0  0  0
  180.2930  181.3430  137.8020 O   0  0  0  0  0  1  0  0  0  0  0  0
  180.4440  180.0030  137.4390 C   0  0  1  0  0  3  0  0  0  0  0  0
  180.2480  179.8400  135.9400 C   0  0  0  0  0  2  0  0  0  0  0  0
  180.7610  181.0060  135.2440 N   0  0  0  0  0  1  0  0  0  0  0  0
  184.0970  171.8970  137.2280 C   0  0  0  0  0  2  0  0  0  0  0  0
  182.7610  171.5630  136.8020 N   0  0  0  0  0  0  0  0  0  0  0  0
  182.5830  170.7070  135.8660 C   0  0  0  0  0  3  0  0  0  0  0  0
  181.2030  170.3630  135.4250 C   0  0  0  0  0  1  0  0  0  0  0  0
  186.3140  178.9370  139.9860 O   0  0  0  0  0  0  0  0  0  0  0  0
  186.3490  178.4630  142.3040 C   0  0  0  0  0  3  0  0  0  0  0  0
  186.8970  178.3440  141.1020 C   0  0  0  0  0  3  0  0  0  0  0  0
  185.1460  179.2020  142.4920 N   0  0  0  0  0  2  0  0  0  0  0  0
  183.9510  178.5340  142.8780 C   0  0  0  0  0  3  0  0  0  0  0  0
  183.1730  179.0580  143.8110 C   0  0  0  0  0  2  0  0  0  0  0  0
  1 12  1  0  0  0  0
  2 10  1  0  0  0  0
  2 12  2  0  0  0  0
  3 13  1  0  0  0  0
  3  7  1  0  0  0  0
  4 14  2  0  0  0  0
  4 11  1  0  0  0  0
  5  7  2  0  0  0  0
  6  2  1  0  0  0  0
  7 10  1  0  0  0  0
  8  9  1  0  0  0  0
  8  6  2  0  0  0  0
  9  1  2  0  0  0  0
 10 27  1  1  0  0  0
 11 23  1  6  0  0  0
 13 17  1  1  0  0  0
 13 15  1  0  0  0  0
 15 14  1  6  0  0  0
 15  6  1  0  0  0  0
 16  3  1  0  0  0  0
 18 17  1  0  0  0  0
 18 11  1  0  0  0  0
 20 19  1  6  0  0  0
 20  9  1  0  0  0  0
 21 20  1  0  0  0  0
 22 21  1  0  0  0  0
 24 23  1  0  0  0  0
 25 24  2  0  0  0  0
 26 25  1  0  0  0  0
 27 29  1  0  0  0  0
 28 30  1  0  0  0  0
 29 28  2  0  0  0  0
 30 31  1  0  0  0  0
 31 32  2  0  0  0  0
M  END
>  <MODEL>
8

>  <REMARK>
 VINA RESULT:      -5.3      4.736      9.733
  Name = 
  8 active torsions:
  status: ('A' for Active; 'I' for Inactive)
    1  A    between atoms: C_1  and  N_16
    2  A    between atoms: N_3  and  C_12
    3  A    between atoms: C_5  and  N_16
    4  A    between atoms: C_10  and  C_15
    5  A    between atoms: C_10  and  C_20
    6  A    between atoms: C_12  and  C_24
    7  A    between atoms: C_13  and  O_22
    8  A    between atoms: O_22  and  C_23
                            x       y       z     vdW  Elec       q    Type
                         _______ _______ _______ _____ _____    ______ ____

>  <TORSDO>
F 8

$$$$
=
 OpenBabel10222416053D

 32 34  0  0  1  0  0  0  0  0999 V2000
  183.4760  179.7210  138.9590 C   0  0  0  0  0  3  0  0  0  0  0  0
  185.2970  178.1980  138.4420 C   0  0  0  0  0  0  0  0  0  0  0  0
  186.5390  177.5920  135.8650 N   0  0  0  0  0  0  0  0  0  0  0  0
  184.0750  173.8050  136.5160 C   0  0  0  0  0  3  0  0  0  0  0  0
  188.2330  178.9160  136.7870 O   0  0  0  0  0  0  0  0  0  0  0  0
  184.4000  177.3570  137.7560 C   0  0  0  0  0  0  0  0  0  0  0  0
  187.2500  178.1520  136.9860 C   0  0  0  0  0  0  0  0  0  0  0  0
  183.0440  177.7150  137.6780 C   0  0  0  0  0  3  0  0  0  0  0  0
  182.5810  178.8920  138.2810 C   0  0  0  0  0  0  0  0  0  0  0  0
  186.7690  177.8930  138.3870 C   0  0  1  0  0  3  0  0  0  0  0  0
  185.4580  173.2170  136.4690 C   0  0  2  0  0  3  0  0  0  0  0  0
  184.8290  179.3830  139.0300 C   0  0  0  0  0  3  0  0  0  0  0  0
  185.8630  176.2890  135.9060 C   0  0  2  0  0  3  0  0  0  0  0  0
  183.8340  175.0890  136.8080 C   0  0  0  0  0  3  0  0  0  0  0  0
  184.9210  176.0850  137.1180 C   0  0  2  0  0  3  0  0  0  0  0  0
  186.5450  178.2990  134.5960 C   0  0  0  0  0  1  0  0  0  0  0  0
  186.9050  175.1760  135.8480 C   0  0  0  0  0  2  0  0  0  0  0  0
  186.3050  173.8590  135.3750 C   0  0  0  0  0  2  0  0  0  0  0  0
  180.3600  178.1630  137.8700 O   0  0  0  0  0  1  0  0  0  0  0  0
  181.1360  179.2700  138.2200 C   0  0  1  0  0  3  0  0  0  0  0  0
  180.6750  179.8350  139.5530 C   0  0  0  0  0  2  0  0  0  0  0  0
  179.8180  178.8750  140.2270 N   0  0  0  0  0  1  0  0  0  0  0  0
  185.3900  171.7030  136.2830 C   0  0  0  0  0  2  0  0  0  0  0  0
  184.0280  171.2550  136.1440 N   0  0  0  0  0  0  0  0  0  0  0  0
  183.7520  170.2770  135.3650 C   0  0  0  0  0  3  0  0  0  0  0  0
  182.3440  169.8140  135.2210 C   0  0  0  0  0  1  0  0  0  0  0  0
  187.4940  178.6500  139.3500 O   0  0  0  0  0  0  0  0  0  0  0  0
  187.9660  178.0600  141.5920 C   0  0  0  0  0  3  0  0  0  0  0  0
  188.2830  178.0150  140.3050 C   0  0  0  0  0  3  0  0  0  0  0  0
  186.8080  178.7590  142.0390 N   0  0  0  0  0  2  0  0  0  0  0  0
  185.7830  178.0670  142.7400 C   0  0  0  0  0  3  0  0  0  0  0  0
  184.5120  178.3280  142.4810 C   0  0  0  0  0  2  0  0  0  0  0  0
  1 12  1  0  0  0  0
  2 12  2  0  0  0  0
  3 13  1  0  0  0  0
  3  7  1  0  0  0  0
  4 14  2  0  0  0  0
  5  7  2  0  0  0  0
  6  2  1  0  0  0  0
  7 10  1  0  0  0  0
  8  6  2  0  0  0  0
  8  9  1  0  0  0  0
  9  1  2  0  0  0  0
 10  2  1  0  0  0  0
 10 27  1  1  0  0  0
 11 23  1  6  0  0  0
 11  4  1  0  0  0  0
 13 17  1  1  0  0  0
 13 15  1  0  0  0  0
 15 14  1  6  0  0  0
 15  6  1  0  0  0  0
 16  3  1  0  0  0  0
 18 17  1  0  0  0  0
 18 11  1  0  0  0  0
 20 19  1  1  0  0  0
 20  9  1  0  0  0  0
 20 21  1  0  0  0  0
 21 22  1  0  0  0  0
 24 23  1  0  0  0  0
 25 24  2  0  0  0  0
 26 25  1  0  0  0  0
 27 29  1  0  0  0  0
 28 30  1  0  0  0  0
 29 28  2  0  0  0  0
 30 31  1  0  0  0  0
 32 31  2  0  0  0  0
M  END
>  <MODEL>
9

>  <REMARK>
 VINA RESULT:      -5.2      4.059      9.254
  Name = 
  8 active torsions:
  status: ('A' for Active; 'I' for Inactive)
    1  A    between atoms: C_1  and  N_16
    2  A    between atoms: N_3  and  C_12
    3  A    between atoms: C_5  and  N_16
    4  A    between atoms: C_10  and  C_15
    5  A    between atoms: C_10  and  C_20
    6  A    between atoms: C_12  and  C_24
    7  A    between atoms: C_13  and  O_22
    8  A    between atoms: O_22  and  C_23
                            x       y       z     vdW  Elec       q    Type
                         _______ _______ _______ _____ _____    ______ ____

>  <TORSDO>
F 8

$$$$
