=
 OpenBabel10222415303D

 31 33  0  0  1  0  0  0  0  0999 V2000
  188.8650  177.2970  139.0630 C   0  0  0  0  0  2  0  0  0  0  0  0
  188.0190  177.5470  140.2840 C   0  0  0  0  0  3  0  0  0  0  0  0
  190.2570  176.4500  142.8760 N   0  0  0  0  0  0  0  0  0  0  0  0
  190.7160  176.7620  140.5820 N   0  0  0  0  0  0  0  0  0  0  0  0
  189.8280  176.7970  141.7020 C   0  0  0  0  0  0  0  0  0  0  0  0
  192.6490  176.7330  138.3700 C   0  0  0  0  0  0  0  0  0  0  0  0
  187.5610  177.5110  142.7120 C   0  0  1  0  0  3  0  0  0  0  0  0
  191.2410  176.9840  138.2750 N   0  0  0  0  0  2  0  0  0  0  0  0
  189.4030  176.4260  144.0640 C   0  0  2  0  0  3  0  0  0  0  0  0
  190.3180  177.0250  139.3700 C   0  0  0  0  0  0  0  0  0  0  0  0
  193.2020  176.5330  139.4840 O   0  0  0  0  0  0  0  0  0  0  0  0
  193.4700  176.7110  137.1320 C   0  0  0  0  0  1  0  0  0  0  0  0
  188.4580  177.3040  141.5210 C   0  0  0  0  0  0  0  0  0  0  0  0
  188.3590  177.5570  144.0230 C   0  0  2  0  0  3  0  0  0  0  0  0
  191.7900  176.6850  147.4320 C   0  0  0  0  0  1  0  0  0  0  0  0
  190.2510  176.5170  145.2590 C   0  0  0  0  0  0  0  0  0  0  0  0
  190.9470  176.5930  146.2410 C   0  0  0  0  0  0  0  0  0  0  0  0
  186.8190  178.7210  142.5620 O   0  0  0  0  0  0  0  0  0  0  0  0
  184.7930  179.1070  143.8770 C   0  0  0  0  0  3  0  0  0  0  0  0
  184.6500  178.4950  141.5390 C   0  0  0  0  0  3  0  0  0  0  0  0
  182.6280  178.8910  142.8150 C   0  0  0  0  0  0  0  0  0  0  0  0
  185.4270  178.7790  142.6670 C   0  0  0  0  0  0  0  0  0  0  0  0
  183.2560  178.5470  141.6130 C   0  0  0  0  0  3  0  0  0  0  0  0
  183.3990  179.1590  143.9500 C   0  0  0  0  0  3  0  0  0  0  0  0
  180.3990  178.3190  144.2320 O   0  0  0  0  0  1  0  0  0  0  0  0
  180.1500  177.9460  141.5510 C   0  0  0  0  0  1  0  0  0  0  0  0
  180.2860  180.5100  142.8090 O   0  0  0  0  0  0  0  0  0  0  0  0
  180.8430  178.9160  142.9170 P   0  0  2  0  0  0  0  0  0  0  0  0
  187.3940  177.4430  145.1960 C   0  0  0  0  0  2  0  0  0  0  0  0
  187.6740  177.8630  147.6160 C   0  0  0  0  0  1  0  0  0  0  0  0
  187.7190  178.4920  146.2400 C   0  0  0  0  0  2  0  0  0  0  0  0
  1 10  1  0  0  0  0
  1  2  1  0  0  0  0
  2 13  2  0  0  0  0
  3  9  1  0  0  0  0
  4  5  1  0  0  0  0
  5  3  2  0  0  0  0
  6 11  2  0  0  0  0
  7 18  1  6  0  0  0
  7 14  1  0  0  0  0
  8  6  1  0  0  0  0
  8 10  1  0  0  0  0
  9 16  1  1  0  0  0
 10  4  2  0  0  0  0
 12  6  1  0  0  0  0
 13  5  1  0  0  0  0
 13  7  1  0  0  0  0
 14  9  1  0  0  0  0
 14 29  1  1  0  0  0
 16 17  3  0  0  0  0
 17 15  1  0  0  0  0
 18 22  1  0  0  0  0
 19 24  1  0  0  0  0
 20 23  2  0  0  0  0
 20 22  1  0  0  0  0
 21 28  1  0  0  0  0
 21 24  2  0  0  0  0
 22 19  2  0  0  0  0
 23 21  1  0  0  0  0
 27 28  2  0  0  0  0
 28 26  1  6  0  0  0
 28 25  1  0  0  0  0
 29 31  1  0  0  0  0
 31 30  1  0  0  0  0
M  END
>  <MODEL>
1

>  <REMARK>
 VINA RESULT:      -8.1      0.000      0.000
  Name = 
  6 active torsions:
  status: ('A' for Active; 'I' for Inactive)
    1  A    between atoms: O_1  and  C_19
    2  A    between atoms: O_1  and  C_21
    3  A    between atoms: C_12  and  C_25
    4  A    between atoms: C_16  and  P_17
    5  A    between atoms: C_18  and  C_30
    6  A    between atoms: C_18  and  C_31
                            x       y       z     vdW  Elec       q    Type
                         _______ _______ _______ _____ _____    ______ ____

>  <TORSDO>
F 6

$$$$
=
 OpenBabel10222415303D

 31 33  0  0  1  0  0  0  0  0999 V2000
  188.3390  177.4930  143.8670 C   0  0  0  0  0  2  0  0  0  0  0  0
  187.6640  177.7160  142.5390 C   0  0  0  0  0  3  0  0  0  0  0  0
  184.2640  178.2160  143.5960 N   0  0  0  0  0  0  0  0  0  0  0  0
  186.2060  178.0810  144.9300 N   0  0  0  0  0  0  0  0  0  0  0  0
  185.5520  178.0700  143.6590 C   0  0  0  0  0  0  0  0  0  0  0  0
  187.4550  178.2030  147.5860 C   0  0  0  0  0  0  0  0  0  0  0  0
  185.7120  178.1320  141.0820 C   0  0  1  0  0  3  0  0  0  0  0  0
  188.1040  177.8870  146.3480 N   0  0  0  0  0  2  0  0  0  0  0  0
  183.5160  178.1820  142.3380 C   0  0  2  0  0  3  0  0  0  0  0  0
  187.4840  177.8620  145.0560 C   0  0  0  0  0  0  0  0  0  0  0  0
  186.2340  178.5110  147.6240 O   0  0  0  0  0  0  0  0  0  0  0  0
  188.2390  178.1710  148.8480 C   0  0  0  0  0  1  0  0  0  0  0  0
  186.3590  177.9740  142.4320 C   0  0  0  0  0  0  0  0  0  0  0  0
  184.3330  178.8000  141.1880 C   0  0  2  0  0  3  0  0  0  0  0  0
  179.9150  180.1440  142.8750 C   0  0  0  0  0  1  0  0  0  0  0  0
  182.2380  178.8790  142.5280 C   0  0  0  0  0  0  0  0  0  0  0  0
  181.1890  179.4510  142.6840 C   0  0  0  0  0  0  0  0  0  0  0  0
  186.5510  178.9030  140.2250 O   0  0  0  0  0  0  0  0  0  0  0  0
  186.6100  177.8610  138.0120 C   0  0  0  0  0  3  0  0  0  0  0  0
  188.6560  178.2790  139.2350 C   0  0  0  0  0  3  0  0  0  0  0  0
  188.7440  177.2620  137.0370 C   0  0  0  0  0  0  0  0  0  0  0  0
  187.2620  178.3510  139.1560 C   0  0  0  0  0  0  0  0  0  0  0  0
  189.3950  177.7330  138.1810 C   0  0  0  0  0  3  0  0  0  0  0  0
  187.3490  177.3150  136.9590 C   0  0  0  0  0  3  0  0  0  0  0  0
  189.8690  177.5320  134.5940 O   0  0  0  0  0  0  0  0  0  0  0  0
  188.8010  175.0790  135.0720 C   0  0  0  0  0  1  0  0  0  0  0  0
  191.2040  176.0470  136.2810 O   0  0  0  0  0  1  0  0  0  0  0  0
  189.6870  176.5270  135.7080 P   0  0  2  0  0  0  0  0  0  0  0  0
  183.6010  178.6410  139.8620 C   0  0  0  0  0  2  0  0  0  0  0  0
  182.1420  180.3050  138.7590 C   0  0  0  0  0  1  0  0  0  0  0  0
  183.5720  179.9640  139.1230 C   0  0  0  0  0  2  0  0  0  0  0  0
  1 10  1  0  0  0  0
  2  1  1  0  0  0  0
  3  5  2  0  0  0  0
  4 10  2  0  0  0  0
  5  4  1  0  0  0  0
  6 11  2  0  0  0  0
  6 12  1  0  0  0  0
  7 18  1  6  0  0  0
  7 14  1  0  0  0  0
  7 13  1  0  0  0  0
  8  6  1  0  0  0  0
  9 16  1  1  0  0  0
  9  3  1  0  0  0  0
 10  8  1  0  0  0  0
 13  2  2  0  0  0  0
 13  5  1  0  0  0  0
 14 29  1  6  0  0  0
 14  9  1  0  0  0  0
 16 17  3  0  0  0  0
 17 15  1  0  0  0  0
 19 22  1  0  0  0  0
 21 23  2  0  0  0  0
 22 20  2  0  0  0  0
 22 18  1  0  0  0  0
 23 20  1  0  0  0  0
 24 21  1  0  0  0  0
 24 19  2  0  0  0  0
 25 28  2  0  0  0  0
 28 26  1  6  0  0  0
 28 27  1  0  0  0  0
 28 21  1  0  0  0  0
 30 31  1  0  0  0  0
 31 29  1  0  0  0  0
M  END
>  <MODEL>
2

>  <REMARK>
 VINA RESULT:      -7.4      3.930      8.470
  Name = 
  6 active torsions:
  status: ('A' for Active; 'I' for Inactive)
    1  A    between atoms: O_1  and  C_19
    2  A    between atoms: O_1  and  C_21
    3  A    between atoms: C_12  and  C_25
    4  A    between atoms: C_16  and  P_17
    5  A    between atoms: C_18  and  C_30
    6  A    between atoms: C_18  and  C_31
                            x       y       z     vdW  Elec       q    Type
                         _______ _______ _______ _____ _____    ______ ____

>  <TORSDO>
F 6

$$$$
=
 OpenBabel10222415303D

 31 33  0  0  1  0  0  0  0  0999 V2000
  186.8260  178.2690  137.7610 C   0  0  0  0  0  2  0  0  0  0  0  0
  188.0900  177.7400  138.3860 C   0  0  0  0  0  3  0  0  0  0  0  0
  187.4780  178.4820  141.8510 N   0  0  0  0  0  0  0  0  0  0  0  0
  185.9790  178.6350  140.0340 N   0  0  0  0  0  0  0  0  0  0  0  0
  187.2650  178.3320  140.5800 C   0  0  0  0  0  0  0  0  0  0  0  0
  183.2750  179.2060  139.0370 C   0  0  0  0  0  0  0  0  0  0  0  0
  189.6100  177.2920  140.2820 C   0  0  1  0  0  3  0  0  0  0  0  0
  184.4280  178.8820  138.2500 N   0  0  0  0  0  2  0  0  0  0  0  0
  188.7750  178.2270  142.4790 C   0  0  2  0  0  3  0  0  0  0  0  0
  185.7330  178.5760  138.7560 C   0  0  0  0  0  0  0  0  0  0  0  0
  183.3300  179.2320  140.2950 O   0  0  0  0  0  0  0  0  0  0  0  0
  181.9910  179.5130  138.3560 C   0  0  0  0  0  1  0  0  0  0  0  0
  188.3080  177.7770  139.7020 C   0  0  0  0  0  0  0  0  0  0  0  0
  189.5040  177.0550  141.7960 C   0  0  2  0  0  3  0  0  0  0  0  0
  188.1880  177.5070  146.5090 C   0  0  0  0  0  1  0  0  0  0  0  0
  188.5660  177.9720  143.9100 C   0  0  0  0  0  0  0  0  0  0  0  0
  188.3950  177.7620  145.0840 C   0  0  0  0  0  0  0  0  0  0  0  0
  190.0120  176.0840  139.6370 O   0  0  0  0  0  0  0  0  0  0  0  0
  190.8520  175.3060  137.4750 C   0  0  0  0  0  3  0  0  0  0  0  0
  192.2080  176.7310  138.8860 C   0  0  0  0  0  3  0  0  0  0  0  0
  193.0550  175.9910  136.7400 C   0  0  0  0  0  0  0  0  0  0  0  0
  191.0140  176.0370  138.6640 C   0  0  0  0  0  0  0  0  0  0  0  0
  193.2270  176.7050  137.9310 C   0  0  0  0  0  3  0  0  0  0  0  0
  191.8720  175.2810  136.5200 C   0  0  0  0  0  3  0  0  0  0  0  0
  194.2660  177.1000  134.5940 O   0  0  0  0  0  0  0  0  0  0  0  0
  194.2530  174.3820  134.5940 C   0  0  0  0  0  1  0  0  0  0  0  0
  195.8720  175.9800  136.3260 O   0  0  0  0  0  1  0  0  0  0  0  0
  194.3770  175.9250  135.5380 P   0  0  2  0  0  0  0  0  0  0  0  0
  190.9050  176.8840  142.3710 C   0  0  0  0  0  2  0  0  0  0  0  0
  191.6960  176.0390  144.5550 C   0  0  0  0  0  1  0  0  0  0  0  0
  190.9440  175.6800  143.2900 C   0  0  0  0  0  2  0  0  0  0  0  0
  1  2  1  0  0  0  0
  1 10  1  0  0  0  0
  2 13  2  0  0  0  0
  3  9  1  0  0  0  0
  4  5  1  0  0  0  0
  5  3  2  0  0  0  0
  6 11  2  0  0  0  0
  7 18  1  6  0  0  0
  7 14  1  0  0  0  0
  8 10  1  0  0  0  0
  8  6  1  0  0  0  0
  9 16  1  1  0  0  0
 10  4  2  0  0  0  0
 12  6  1  0  0  0  0
 13  7  1  0  0  0  0
 13  5  1  0  0  0  0
 14 29  1  1  0  0  0
 14  9  1  0  0  0  0
 16 17  3  0  0  0  0
 17 15  1  0  0  0  0
 19 22  1  0  0  0  0
 21 23  2  0  0  0  0
 22 20  2  0  0  0  0
 22 18  1  0  0  0  0
 23 20  1  0  0  0  0
 24 21  1  0  0  0  0
 24 19  2  0  0  0  0
 25 28  2  0  0  0  0
 28 26  1  6  0  0  0
 28 27  1  0  0  0  0
 28 21  1  0  0  0  0
 29 31  1  0  0  0  0
 31 30  1  0  0  0  0
M  END
>  <MODEL>
3

>  <REMARK>
 VINA RESULT:      -7.3      4.004      8.723
  Name = 
  6 active torsions:
  status: ('A' for Active; 'I' for Inactive)
    1  A    between atoms: O_1  and  C_19
    2  A    between atoms: O_1  and  C_21
    3  A    between atoms: C_12  and  C_25
    4  A    between atoms: C_16  and  P_17
    5  A    between atoms: C_18  and  C_30
    6  A    between atoms: C_18  and  C_31
                            x       y       z     vdW  Elec       q    Type
                         _______ _______ _______ _____ _____    ______ ____

>  <TORSDO>
F 6

$$$$
=
 OpenBabel10222415303D

 31 33  0  0  1  0  0  0  0  0999 V2000
  187.8450  177.6210  146.1700 C   0  0  0  0  0  2  0  0  0  0  0  0
  186.9350  177.8690  144.9960 C   0  0  0  0  0  3  0  0  0  0  0  0
  189.3300  178.0180  142.3180 N   0  0  0  0  0  0  0  0  0  0  0  0
  189.6800  177.3680  144.5600 N   0  0  0  0  0  0  0  0  0  0  0  0
  188.8330  177.8190  143.5000 C   0  0  0  0  0  0  0  0  0  0  0  0
  191.4940  176.3610  146.6400 C   0  0  0  0  0  0  0  0  0  0  0  0
  186.4540  178.2830  142.6080 C   0  0  1  0  0  3  0  0  0  0  0  0
  190.1300  176.7670  146.8150 N   0  0  0  0  0  2  0  0  0  0  0  0
  188.5380  178.5110  141.1900 C   0  0  2  0  0  3  0  0  0  0  0  0
  189.2500  177.2270  145.7820 C   0  0  0  0  0  0  0  0  0  0  0  0
  192.0360  176.3690  145.5030 O   0  0  0  0  0  0  0  0  0  0  0  0
  192.2790  175.9200  147.8210 C   0  0  0  0  0  1  0  0  0  0  0  0
  187.3900  177.9750  143.7460 C   0  0  0  0  0  0  0  0  0  0  0  0
  187.0960  177.9740  141.2460 C   0  0  2  0  0  3  0  0  0  0  0  0
  190.4240  177.4410  137.6690 C   0  0  0  0  0  1  0  0  0  0  0  0
  189.2070  178.1320  139.9400 C   0  0  0  0  0  0  0  0  0  0  0  0
  189.7570  177.8200  138.9130 C   0  0  0  0  0  0  0  0  0  0  0  0
  185.2490  177.5320  142.7480 O   0  0  0  0  0  0  0  0  0  0  0  0
  183.2980  178.6970  143.6560 C   0  0  0  0  0  3  0  0  0  0  0  0
  183.3730  178.0410  141.3270 C   0  0  0  0  0  3  0  0  0  0  0  0
  181.4360  179.2100  142.1960 C   0  0  0  0  0  0  0  0  0  0  0  0
  183.9800  178.0920  142.5860 C   0  0  0  0  0  0  0  0  0  0  0  0
  182.1040  178.5940  141.1330 C   0  0  0  0  0  3  0  0  0  0  0  0
  182.0300  179.2490  143.4610 C   0  0  0  0  0  3  0  0  0  0  0  0
  179.8950  181.2790  141.3900 O   0  0  0  0  0  1  0  0  0  0  0  0
  178.9310  179.9360  143.5470 C   0  0  0  0  0  1  0  0  0  0  0  0
  178.9310  178.9030  140.8800 O   0  0  0  0  0  0  0  0  0  0  0  0
  179.7970  179.8810  141.9550 P   0  0  2  0  0  0  0  0  0  0  0  0
  186.2460  178.5970  140.1450 C   0  0  0  0  0  2  0  0  0  0  0  0
  185.6930  178.2800  137.7570 C   0  0  0  0  0  1  0  0  0  0  0  0
  185.9600  177.5710  139.0680 C   0  0  0  0  0  2  0  0  0  0  0  0
  2  1  1  0  0  0  0
  3  5  2  0  0  0  0
  4 10  2  0  0  0  0
  5 13  1  0  0  0  0
  5  4  1  0  0  0  0
  6  8  1  0  0  0  0
  6 12  1  0  0  0  0
  7 18  1  1  0  0  0
  7 13  1  0  0  0  0
  9 16  1  6  0  0  0
  9 14  1  0  0  0  0
  9  3  1  0  0  0  0
 10  1  1  0  0  0  0
 10  8  1  0  0  0  0
 11  6  2  0  0  0  0
 13  2  2  0  0  0  0
 14 29  1  6  0  0  0
 14  7  1  0  0  0  0
 15 17  1  0  0  0  0
 17 16  3  0  0  0  0
 20 22  1  0  0  0  0
 21 24  2  0  0  0  0
 22 18  1  0  0  0  0
 22 19  2  0  0  0  0
 23 20  2  0  0  0  0
 23 21  1  0  0  0  0
 24 19  1  0  0  0  0
 25 28  1  0  0  0  0
 27 28  2  0  0  0  0
 28 21  1  0  0  0  0
 28 26  1  1  0  0  0
 30 31  1  0  0  0  0
 31 29  1  0  0  0  0
M  END
>  <MODEL>
4

>  <REMARK>
 VINA RESULT:      -7.2      2.129      5.382
  Name = 
  6 active torsions:
  status: ('A' for Active; 'I' for Inactive)
    1  A    between atoms: O_1  and  C_19
    2  A    between atoms: O_1  and  C_21
    3  A    between atoms: C_12  and  C_25
    4  A    between atoms: C_16  and  P_17
    5  A    between atoms: C_18  and  C_30
    6  A    between atoms: C_18  and  C_31
                            x       y       z     vdW  Elec       q    Type
                         _______ _______ _______ _____ _____    ______ ____

>  <TORSDO>
F 6

$$$$
=
 OpenBabel10222415303D

 31 33  0  0  1  0  0  0  0  0999 V2000
  188.7720  177.4910  139.1880 C   0  0  0  0  0  2  0  0  0  0  0  0
  187.6290  177.7940  140.1200 C   0  0  0  0  0  3  0  0  0  0  0  0
  189.1370  177.0270  143.2930 N   0  0  0  0  0  0  0  0  0  0  0  0
  190.1740  177.1760  141.1780 N   0  0  0  0  0  0  0  0  0  0  0  0
  189.0220  177.2550  142.0210 C   0  0  0  0  0  0  0  0  0  0  0  0
  192.6200  177.0670  139.5540 C   0  0  0  0  0  0  0  0  0  0  0  0
  186.5500  177.9300  142.3390 C   0  0  1  0  0  3  0  0  0  0  0  0
  191.2800  177.2380  139.0750 N   0  0  0  0  0  2  0  0  0  0  0  0
  188.0020  177.0540  144.2160 C   0  0  2  0  0  3  0  0  0  0  0  0
  190.1010  177.3190  139.8850 C   0  0  0  0  0  0  0  0  0  0  0  0
  192.8670  176.9860  140.7870 O   0  0  0  0  0  0  0  0  0  0  0  0
  193.7380  176.9880  138.5790 C   0  0  0  0  0  1  0  0  0  0  0  0
  187.7340  177.6750  141.4450 C   0  0  0  0  0  0  0  0  0  0  0  0
  186.9740  178.1240  143.8030 C   0  0  2  0  0  3  0  0  0  0  0  0
  189.4160  177.7080  148.0480 C   0  0  0  0  0  1  0  0  0  0  0  0
  188.5040  177.2850  145.5760 C   0  0  0  0  0  0  0  0  0  0  0  0
  188.9160  177.4750  146.6930 C   0  0  0  0  0  0  0  0  0  0  0  0
  185.8400  179.0850  141.8920 O   0  0  0  0  0  0  0  0  0  0  0  0
  183.4380  178.6760  142.1140 C   0  0  0  0  0  3  0  0  0  0  0  0
  184.3910  179.3090  139.9810 C   0  0  0  0  0  3  0  0  0  0  0  0
  182.0060  178.9290  140.1780 C   0  0  0  0  0  0  0  0  0  0  0  0
  184.5580  179.0240  141.3400 C   0  0  0  0  0  0  0  0  0  0  0  0
  183.1210  179.2580  139.4000 C   0  0  0  0  0  3  0  0  0  0  0  0
  182.1680  178.6260  141.5330 C   0  0  0  0  0  3  0  0  0  0  0  0
  179.8420  180.2140  139.1940 O   0  0  0  0  0  1  0  0  0  0  0  0
  179.2710  177.9140  140.5230 C   0  0  0  0  0  1  0  0  0  0  0  0
  180.4980  178.0150  137.9430 O   0  0  0  0  0  0  0  0  0  0  0  0
  180.3890  178.8240  139.4230 P   0  0  2  0  0  0  0  0  0  0  0  0
  185.7380  178.0550  144.6910 C   0  0  0  0  0  2  0  0  0  0  0  0
  185.3640  178.6480  147.0610 C   0  0  0  0  0  1  0  0  0  0  0  0
  185.7620  179.1830  145.7020 C   0  0  0  0  0  2  0  0  0  0  0  0
  1 10  1  0  0  0  0
  1  2  1  0  0  0  0
  2 13  2  0  0  0  0
  3  9  1  0  0  0  0
  4  5  1  0  0  0  0
  5  3  2  0  0  0  0
  6 11  2  0  0  0  0
  7 18  1  6  0  0  0
  7 14  1  0  0  0  0
  8  6  1  0  0  0  0
  8 10  1  0  0  0  0
  9 16  1  1  0  0  0
 10  4  2  0  0  0  0
 12  6  1  0  0  0  0
 13  5  1  0  0  0  0
 13  7  1  0  0  0  0
 14  9  1  0  0  0  0
 14 29  1  1  0  0  0
 16 17  3  0  0  0  0
 17 15  1  0  0  0  0
 20 22  1  0  0  0  0
 21 24  2  0  0  0  0
 22 18  1  0  0  0  0
 22 19  2  0  0  0  0
 23 20  2  0  0  0  0
 23 21  1  0  0  0  0
 24 19  1  0  0  0  0
 25 28  1  0  0  0  0
 27 28  2  0  0  0  0
 28 21  1  0  0  0  0
 28 26  1  1  0  0  0
 29 31  1  0  0  0  0
 31 30  1  0  0  0  0
M  END
>  <MODEL>
5

>  <REMARK>
 VINA RESULT:      -7.2      1.861      2.228
  Name = 
  6 active torsions:
  status: ('A' for Active; 'I' for Inactive)
    1  A    between atoms: O_1  and  C_19
    2  A    between atoms: O_1  and  C_21
    3  A    between atoms: C_12  and  C_25
    4  A    between atoms: C_16  and  P_17
    5  A    between atoms: C_18  and  C_30
    6  A    between atoms: C_18  and  C_31
                            x       y       z     vdW  Elec       q    Type
                         _______ _______ _______ _____ _____    ______ ____

>  <TORSDO>
F 6

$$$$
=
 OpenBabel10222415303D

 31 33  0  0  1  0  0  0  0  0999 V2000
  185.4660  178.7220  144.4780 C   0  0  0  0  0  2  0  0  0  0  0  0
  185.2290  178.7460  142.9910 C   0  0  0  0  0  3  0  0  0  0  0  0
  188.5350  178.0160  141.7780 N   0  0  0  0  0  0  0  0  0  0  0  0
  187.7350  177.9200  143.9970 N   0  0  0  0  0  0  0  0  0  0  0  0
  187.5430  178.1620  142.6020 C   0  0  0  0  0  0  0  0  0  0  0  0
  188.2240  177.3130  146.8300 C   0  0  0  0  0  0  0  0  0  0  0  0
  185.9330  178.5890  140.6280 C   0  0  1  0  0  3  0  0  0  0  0  0
  187.0280  177.8650  146.2650 N   0  0  0  0  0  2  0  0  0  0  0  0
  188.4270  178.2780  140.3420 C   0  0  2  0  0  3  0  0  0  0  0  0
  186.7950  178.1260  144.8750 C   0  0  0  0  0  0  0  0  0  0  0  0
  189.2000  176.9910  146.1030 O   0  0  0  0  0  0  0  0  0  0  0  0
  188.3120  177.1160  148.3000 C   0  0  0  0  0  1  0  0  0  0  0  0
  186.1970  178.4970  142.1060 C   0  0  0  0  0  0  0  0  0  0  0  0
  187.0340  177.8960  139.8100 C   0  0  2  0  0  3  0  0  0  0  0  0
  191.4210  176.2070  138.3800 C   0  0  0  0  0  1  0  0  0  0  0  0
  189.4910  177.5430  139.6470 C   0  0  0  0  0  0  0  0  0  0  0  0
  190.3630  176.9390  139.0740 C   0  0  0  0  0  0  0  0  0  0  0  0
  184.6690  178.0020  140.3190 O   0  0  0  0  0  0  0  0  0  0  0  0
  182.2990  178.5210  140.6350 C   0  0  0  0  0  3  0  0  0  0  0  0
  183.6350  179.7650  139.0450 C   0  0  0  0  0  3  0  0  0  0  0  0
  181.2940  180.3120  139.3530 C   0  0  0  0  0  0  0  0  0  0  0  0
  183.5350  178.7560  140.0090 C   0  0  0  0  0  0  0  0  0  0  0  0
  182.5180  180.5380  138.7150 C   0  0  0  0  0  3  0  0  0  0  0  0
  181.1830  179.2940  140.3050 C   0  0  0  0  0  3  0  0  0  0  0  0
  178.9310  180.4380  138.0470 O   0  0  0  0  0  0  0  0  0  0  0  0
  180.3840  182.7330  137.9600 C   0  0  0  0  0  1  0  0  0  0  0  0
  179.0380  181.7720  140.2930 O   0  0  0  0  0  1  0  0  0  0  0  0
  179.8570  181.2740  138.8990 P   0  0  2  0  0  0  0  0  0  0  0  0
  186.8900  178.2940  138.3460 C   0  0  0  0  0  2  0  0  0  0  0  0
  185.2180  177.1200  136.9540 C   0  0  0  0  0  1  0  0  0  0  0  0
  186.6300  177.0660  137.4980 C   0  0  0  0  0  2  0  0  0  0  0  0
  1 10  1  0  0  0  0
  2  1  1  0  0  0  0
  3  5  2  0  0  0  0
  4 10  2  0  0  0  0
  5  4  1  0  0  0  0
  6 12  1  0  0  0  0
  7 18  1  1  0  0  0
  7 13  1  0  0  0  0
  8  6  1  0  0  0  0
  9 16  1  6  0  0  0
  9  3  1  0  0  0  0
 10  8  1  0  0  0  0
 11  6  2  0  0  0  0
 13  5  1  0  0  0  0
 13  2  2  0  0  0  0
 14 29  1  6  0  0  0
 14  9  1  0  0  0  0
 14  7  1  0  0  0  0
 15 17  1  0  0  0  0
 17 16  3  0  0  0  0
 20 22  1  0  0  0  0
 21 24  2  0  0  0  0
 22 18  1  0  0  0  0
 22 19  2  0  0  0  0
 23 20  2  0  0  0  0
 23 21  1  0  0  0  0
 24 19  1  0  0  0  0
 25 28  2  0  0  0  0
 28 26  1  6  0  0  0
 28 21  1  0  0  0  0
 28 27  1  0  0  0  0
 30 31  1  0  0  0  0
 31 29  1  0  0  0  0
M  END
>  <MODEL>
6

>  <REMARK>
 VINA RESULT:      -7.0      2.840      6.221
  Name = 
  6 active torsions:
  status: ('A' for Active; 'I' for Inactive)
    1  A    between atoms: O_1  and  C_19
    2  A    between atoms: O_1  and  C_21
    3  A    between atoms: C_12  and  C_25
    4  A    between atoms: C_16  and  P_17
    5  A    between atoms: C_18  and  C_30
    6  A    between atoms: C_18  and  C_31
                            x       y       z     vdW  Elec       q    Type
                         _______ _______ _______ _____ _____    ______ ____

>  <TORSDO>
F 6

$$$$
=
 OpenBabel10222415303D

 31 33  0  0  1  0  0  0  0  0999 V2000
  185.6010  178.6400  143.4220 C   0  0  0  0  0  2  0  0  0  0  0  0
  185.3510  178.6590  141.9370 C   0  0  0  0  0  3  0  0  0  0  0  0
  188.6730  178.0630  140.6970 N   0  0  0  0  0  0  0  0  0  0  0  0
  187.8960  177.9290  142.9210 N   0  0  0  0  0  0  0  0  0  0  0  0
  187.6830  178.1680  141.5280 C   0  0  0  0  0  0  0  0  0  0  0  0
  188.4300  177.3330  145.7480 C   0  0  0  0  0  0  0  0  0  0  0  0
  186.0420  178.5370  139.5680 C   0  0  1  0  0  3  0  0  0  0  0  0
  187.2080  177.8390  145.1940 N   0  0  0  0  0  2  0  0  0  0  0  0
  188.5440  178.3250  139.2630 C   0  0  2  0  0  3  0  0  0  0  0  0
  186.9550  178.0950  143.8080 C   0  0  0  0  0  0  0  0  0  0  0  0
  189.4120  177.0510  145.0120 O   0  0  0  0  0  0  0  0  0  0  0  0
  188.5370  177.1350  147.2170 C   0  0  0  0  0  1  0  0  0  0  0  0
  186.3210  178.4510  141.0440 C   0  0  0  0  0  0  0  0  0  0  0  0
  187.1630  177.8910  138.7390 C   0  0  2  0  0  3  0  0  0  0  0  0
  191.6020  176.3770  137.2720 C   0  0  0  0  0  1  0  0  0  0  0  0
  189.6300  177.6350  138.5560 C   0  0  0  0  0  0  0  0  0  0  0  0
  190.5220  177.0670  137.9760 C   0  0  0  0  0  0  0  0  0  0  0  0
  184.8000  177.9030  139.2670 O   0  0  0  0  0  0  0  0  0  0  0  0
  183.3930  179.8970  139.0970 C   0  0  0  0  0  3  0  0  0  0  0  0
  182.9160  177.9320  137.7660 C   0  0  0  0  0  3  0  0  0  0  0  0
  181.5190  179.9020  137.5650 C   0  0  0  0  0  0  0  0  0  0  0  0
  183.7110  178.5830  138.7160 C   0  0  0  0  0  0  0  0  0  0  0  0
  181.8220  178.5870  137.1960 C   0  0  0  0  0  3  0  0  0  0  0  0
  182.2990  180.5510  138.5260 C   0  0  0  0  0  3  0  0  0  0  0  0
  179.0840  181.0100  137.9510 O   0  0  0  0  0  1  0  0  0  0  0  0
  179.3380  179.6500  135.6120 C   0  0  0  0  0  1  0  0  0  0  0  0
  180.5680  182.1760  136.1420 O   0  0  0  0  0  0  0  0  0  0  0  0
  180.0930  180.7220  136.8640 P   0  0  2  0  0  0  0  0  0  0  0  0
  186.9920  178.2880  137.2780 C   0  0  0  0  0  2  0  0  0  0  0  0
  187.6870  176.6740  135.5400 C   0  0  0  0  0  1  0  0  0  0  0  0
  186.5590  177.0870  136.4620 C   0  0  0  0  0  2  0  0  0  0  0  0
  1 10  1  0  0  0  0
  2  1  1  0  0  0  0
  3  5  2  0  0  0  0
  4 10  2  0  0  0  0
  5  4  1  0  0  0  0
  6 12  1  0  0  0  0
  7 18  1  1  0  0  0
  7 13  1  0  0  0  0
  8  6  1  0  0  0  0
  9 16  1  6  0  0  0
  9  3  1  0  0  0  0
 10  8  1  0  0  0  0
 11  6  2  0  0  0  0
 13  5  1  0  0  0  0
 13  2  2  0  0  0  0
 14 29  1  6  0  0  0
 14  9  1  0  0  0  0
 14  7  1  0  0  0  0
 15 17  1  0  0  0  0
 17 16  3  0  0  0  0
 20 22  2  0  0  0  0
 21 24  1  0  0  0  0
 22 19  1  0  0  0  0
 22 18  1  0  0  0  0
 23 21  2  0  0  0  0
 23 20  1  0  0  0  0
 24 19  2  0  0  0  0
 27 28  2  0  0  0  0
 28 26  1  6  0  0  0
 28 21  1  0  0  0  0
 28 25  1  0  0  0  0
 30 31  1  0  0  0  0
 31 29  1  0  0  0  0
M  END
>  <MODEL>
7

>  <REMARK>
 VINA RESULT:      -6.7      3.418      6.612
  Name = 
  6 active torsions:
  status: ('A' for Active; 'I' for Inactive)
    1  A    between atoms: O_1  and  C_19
    2  A    between atoms: O_1  and  C_21
    3  A    between atoms: C_12  and  C_25
    4  A    between atoms: C_16  and  P_17
    5  A    between atoms: C_18  and  C_30
    6  A    between atoms: C_18  and  C_31
                            x       y       z     vdW  Elec       q    Type
                         _______ _______ _______ _____ _____    ______ ____

>  <TORSDO>
F 6

$$$$
=
 OpenBabel10222415303D

 31 33  0  0  1  0  0  0  0  0999 V2000
  189.8660  176.7370  143.9520 C   0  0  0  0  0  2  0  0  0  0  0  0
  189.9090  176.8640  142.4520 C   0  0  0  0  0  3  0  0  0  0  0  0
  186.5420  177.9340  141.7780 N   0  0  0  0  0  0  0  0  0  0  0  0
  187.6240  177.7320  143.8670 N   0  0  0  0  0  0  0  0  0  0  0  0
  187.6170  177.6340  142.4410 C   0  0  0  0  0  0  0  0  0  0  0  0
  187.5500  178.0500  146.7860 C   0  0  0  0  0  0  0  0  0  0  0  0
  188.9230  177.3270  140.2340 C   0  0  1  0  0  3  0  0  0  0  0  0
  188.6170  177.4890  146.0120 N   0  0  0  0  0  2  0  0  0  0  0  0
  186.4450  177.8270  140.3220 C   0  0  2  0  0  3  0  0  0  0  0  0
  188.6490  177.3700  144.5840 C   0  0  0  0  0  0  0  0  0  0  0  0
  186.5170  178.5130  146.2340 O   0  0  0  0  0  0  0  0  0  0  0  0
  187.6660  178.0880  148.2670 C   0  0  0  0  0  1  0  0  0  0  0  0
  188.8580  177.2710  141.7360 C   0  0  0  0  0  0  0  0  0  0  0  0
  187.7840  178.1750  139.6470 C   0  0  2  0  0  3  0  0  0  0  0  0
  183.3930  180.2890  139.0060 C   0  0  0  0  0  1  0  0  0  0  0  0
  185.3620  178.7020  139.8550 C   0  0  0  0  0  0  0  0  0  0  0  0
  184.4730  179.4190  139.4710 C   0  0  0  0  0  0  0  0  0  0  0  0
  190.1790  177.8620  139.8180 O   0  0  0  0  0  0  0  0  0  0  0  0
  192.5470  177.3020  139.5580 C   0  0  0  0  0  3  0  0  0  0  0  0
  190.8450  176.0550  138.3720 C   0  0  0  0  0  3  0  0  0  0  0  0
  193.1820  175.4680  138.1110 C   0  0  0  0  0  0  0  0  0  0  0  0
  191.1920  177.0790  139.2580 C   0  0  0  0  0  0  0  0  0  0  0  0
  191.8360  175.2540  137.7970 C   0  0  0  0  0  3  0  0  0  0  0  0
  193.5360  176.5010  138.9830 C   0  0  0  0  0  3  0  0  0  0  0  0
  195.4690  175.3630  136.6750 O   0  0  0  0  0  0  0  0  0  0  0  0
  193.6920  173.3890  136.0990 C   0  0  0  0  0  1  0  0  0  0  0  0
  195.2190  173.5200  138.5130 O   0  0  0  0  0  1  0  0  0  0  0  0
  194.4500  174.4690  137.3430 P   0  0  2  0  0  0  0  0  0  0  0  0
  187.7090  177.9340  138.1450 C   0  0  0  0  0  2  0  0  0  0  0  0
  189.1420  178.2910  136.1630 C   0  0  0  0  0  1  0  0  0  0  0  0
  188.5830  178.9340  137.4140 C   0  0  0  0  0  2  0  0  0  0  0  0
  1 10  1  0  0  0  0
  2  1  1  0  0  0  0
  3  5  2  0  0  0  0
  4 10  2  0  0  0  0
  5  4  1  0  0  0  0
  6 12  1  0  0  0  0
  7 18  1  1  0  0  0
  7 13  1  0  0  0  0
  8  6  1  0  0  0  0
  9 16  1  6  0  0  0
  9  3  1  0  0  0  0
 10  8  1  0  0  0  0
 11  6  2  0  0  0  0
 13  5  1  0  0  0  0
 13  2  2  0  0  0  0
 14 29  1  6  0  0  0
 14  7  1  0  0  0  0
 14  9  1  0  0  0  0
 15 17  1  0  0  0  0
 17 16  3  0  0  0  0
 20 22  2  0  0  0  0
 21 24  1  0  0  0  0
 22 19  1  0  0  0  0
 22 18  1  0  0  0  0
 23 21  2  0  0  0  0
 23 20  1  0  0  0  0
 24 19  2  0  0  0  0
 25 28  2  0  0  0  0
 28 26  1  6  0  0  0
 28 21  1  0  0  0  0
 28 27  1  0  0  0  0
 30 31  1  0  0  0  0
 31 29  1  0  0  0  0
M  END
>  <MODEL>
8

>  <REMARK>
 VINA RESULT:      -6.4      4.189      9.482
  Name = 
  6 active torsions:
  status: ('A' for Active; 'I' for Inactive)
    1  A    between atoms: O_1  and  C_19
    2  A    between atoms: O_1  and  C_21
    3  A    between atoms: C_12  and  C_25
    4  A    between atoms: C_16  and  P_17
    5  A    between atoms: C_18  and  C_30
    6  A    between atoms: C_18  and  C_31
                            x       y       z     vdW  Elec       q    Type
                         _______ _______ _______ _____ _____    ______ ____

>  <TORSDO>
F 6

$$$$
=
 OpenBabel10222415303D

 31 33  0  0  1  0  0  0  0  0999 V2000
  188.0990  177.5340  143.4330 C   0  0  0  0  0  2  0  0  0  0  0  0
  188.1540  177.6550  141.9320 C   0  0  0  0  0  3  0  0  0  0  0  0
  184.7510  178.5720  141.2160 N   0  0  0  0  0  0  0  0  0  0  0  0
  185.8160  178.4280  143.3170 N   0  0  0  0  0  0  0  0  0  0  0  0
  185.8300  178.3230  141.8920 C   0  0  0  0  0  0  0  0  0  0  0  0
  185.6950  178.7560  146.2340 C   0  0  0  0  0  0  0  0  0  0  0  0
  187.1740  178.0640  139.7010 C   0  0  1  0  0  3  0  0  0  0  0  0
  186.7960  178.2390  145.4750 N   0  0  0  0  0  2  0  0  0  0  0  0
  184.6750  178.4540  139.7590 C   0  0  2  0  0  3  0  0  0  0  0  0
  186.8490  178.1150  144.0480 C   0  0  0  0  0  0  0  0  0  0  0  0
  184.6490  179.1710  145.6690 O   0  0  0  0  0  0  0  0  0  0  0  0
  185.7930  178.8060  147.7160 C   0  0  0  0  0  1  0  0  0  0  0  0
  187.0940  178.0120  141.2030 C   0  0  0  0  0  0  0  0  0  0  0  0
  186.0050  178.8580  139.0980 C   0  0  2  0  0  3  0  0  0  0  0  0
  181.5350  180.7760  138.3970 C   0  0  0  0  0  1  0  0  0  0  0  0
  183.5600  179.2770  139.2760 C   0  0  0  0  0  0  0  0  0  0  0  0
  182.6440  179.9540  138.8790 C   0  0  0  0  0  0  0  0  0  0  0  0
  188.4090  178.6520  139.2970 O   0  0  0  0  0  0  0  0  0  0  0  0
  189.5270  177.8600  137.2690 C   0  0  0  0  0  3  0  0  0  0  0  0
  190.3630  177.2530  139.4580 C   0  0  0  0  0  3  0  0  0  0  0  0
  191.5000  176.4720  137.4660 C   0  0  0  0  0  0  0  0  0  0  0  0
  189.4270  177.9290  138.6690 C   0  0  0  0  0  0  0  0  0  0  0  0
  191.3940  176.5240  138.8590 C   0  0  0  0  0  3  0  0  0  0  0  0
  190.5570  177.1310  136.6710 C   0  0  0  0  0  3  0  0  0  0  0  0
  192.7440  175.6760  135.2020 O   0  0  0  0  0  0  0  0  0  0  0  0
  192.5600  173.7540  137.1150 C   0  0  0  0  0  1  0  0  0  0  0  0
  194.3040  176.0150  137.2730 O   0  0  0  0  0  1  0  0  0  0  0  0
  192.7950  175.5040  136.7020 P   0  0  2  0  0  0  0  0  0  0  0  0
  185.9580  178.6060  137.5960 C   0  0  0  0  0  2  0  0  0  0  0  0
  186.2200  176.7320  136.0050 C   0  0  0  0  0  1  0  0  0  0  0  0
  185.6080  177.1580  137.3230 C   0  0  0  0  0  2  0  0  0  0  0  0
  1 10  1  0  0  0  0
  2  1  1  0  0  0  0
  3  5  2  0  0  0  0
  4 10  2  0  0  0  0
  5  4  1  0  0  0  0
  6 12  1  0  0  0  0
  7 18  1  1  0  0  0
  7 13  1  0  0  0  0
  8  6  1  0  0  0  0
  9 16  1  6  0  0  0
  9  3  1  0  0  0  0
 10  8  1  0  0  0  0
 11  6  2  0  0  0  0
 13  5  1  0  0  0  0
 13  2  2  0  0  0  0
 14 29  1  6  0  0  0
 14  7  1  0  0  0  0
 14  9  1  0  0  0  0
 15 17  1  0  0  0  0
 17 16  3  0  0  0  0
 19 22  1  0  0  0  0
 21 23  2  0  0  0  0
 22 18  1  0  0  0  0
 22 20  2  0  0  0  0
 23 20  1  0  0  0  0
 24 19  2  0  0  0  0
 24 21  1  0  0  0  0
 25 28  2  0  0  0  0
 28 26  1  1  0  0  0
 28 27  1  0  0  0  0
 28 21  1  0  0  0  0
 30 31  1  0  0  0  0
 31 29  1  0  0  0  0
M  END
>  <MODEL>
9

>  <REMARK>
 VINA RESULT:      -6.2      4.049      9.423
  Name = 
  6 active torsions:
  status: ('A' for Active; 'I' for Inactive)
    1  A    between atoms: O_1  and  C_19
    2  A    between atoms: O_1  and  C_21
    3  A    between atoms: C_12  and  C_25
    4  A    between atoms: C_16  and  P_17
    5  A    between atoms: C_18  and  C_30
    6  A    between atoms: C_18  and  C_31
                            x       y       z     vdW  Elec       q    Type
                         _______ _______ _______ _____ _____    ______ ____

>  <TORSDO>
F 6

$$$$
