=
 OpenBabel10222420173D

 27 30  0  0  0  0  0  0  0  0999 V2000
  190.0750  176.8060  144.4330 C   0  0  0  0  0  0  0  0  0  0  0  0
  191.3570  176.4190  144.8390 C   0  0  0  0  0  3  0  0  0  0  0  0
  187.4330  178.1560  147.9710 C   0  0  0  0  0  3  0  0  0  0  0  0
  189.1240  177.2520  145.3870 C   0  0  0  0  0  0  0  0  0  0  0  0
  185.5460  178.4220  144.9710 C   0  0  0  0  0  0  0  0  0  0  0  0
  190.8000  176.9000  147.1240 C   0  0  0  0  0  3  0  0  0  0  0  0
  185.1970  178.3580  143.5240 C   0  0  0  0  0  1  0  0  0  0  0  0
  187.8740  177.6130  144.8700 C   0  0  0  0  0  3  0  0  0  0  0  0
  186.7580  178.0800  145.5340 C   0  0  0  0  0  0  0  0  0  0  0  0
  186.5460  178.3290  146.9360 C   0  0  0  0  0  0  0  0  0  0  0  0
  188.7390  177.6970  147.8670 C   0  0  0  0  0  3  0  0  0  0  0  0
  191.7190  176.4650  146.1770 C   0  0  0  0  0  3  0  0  0  0  0  0
  189.5060  177.2960  146.7680 C   0  0  0  0  0  0  0  0  0  0  0  0
  184.6880  178.8360  145.9260 N   0  0  0  0  0  0  0  0  0  0  0  0
  185.2890  178.7800  147.1070 N   0  0  0  0  0  0  0  0  0  0  0  0
  190.3410  177.4390  142.1620 N   0  0  0  0  0  0  0  0  0  0  0  0
  189.7280  176.7490  143.0400 N   0  0  0  0  0  0  0  0  0  0  0  0
  190.5270  176.8410  138.4710 C   0  0  0  0  0  3  0  0  0  0  0  0
  189.2540  177.2610  138.0740 C   0  0  0  0  0  0  0  0  0  0  0  0
  189.9890  177.3750  140.7790 C   0  0  0  0  0  0  0  0  0  0  0  0
  188.3480  177.7450  139.0290 C   0  0  0  0  0  0  0  0  0  0  0  0
  188.9100  177.1960  136.7640 F   0  0  0  0  0  0  0  0  0  0  0  0
  188.7170  177.7940  140.3770 C   0  0  0  0  0  3  0  0  0  0  0  0
  190.8950  176.8980  139.8180 C   0  0  0  0  0  3  0  0  0  0  0  0
  186.9770  178.1750  138.6300 C   0  0  0  0  0  2  0  0  0  0  0  0
  186.2930  178.6630  139.7430 O   0  0  0  0  0  0  0  0  0  0  0  0
  184.9570  178.6920  139.3470 C   0  0  0  0  0  1  0  0  0  0  0  0
  1  2  2  0  0  0  0
  1  4  1  0  0  0  0
  2 12  1  0  0  0  0
  4 13  1  0  0  0  0
  5  9  2  0  0  0  0
  5 14  1  0  0  0  0
  7  5  1  0  0  0  0
  8  4  2  0  0  0  0
  8  9  1  0  0  0  0
  9 10  1  0  0  0  0
 10 15  1  0  0  0  0
 10  3  2  0  0  0  0
 11  3  1  0  0  0  0
 12  6  2  0  0  0  0
 13  6  1  0  0  0  0
 13 11  2  0  0  0  0
 14 15  2  0  0  0  0
 16 17  2  0  0  0  0
 17  1  1  0  0  0  0
 18 24  1  0  0  0  0
 19 18  2  0  0  0  0
 19 21  1  0  0  0  0
 20 16  1  0  0  0  0
 21 23  2  0  0  0  0
 22 19  1  0  0  0  0
 23 20  1  0  0  0  0
 24 20  2  0  0  0  0
 25 21  1  0  0  0  0
 25 26  1  0  0  0  0
 27 26  1  0  0  0  0
M  END
>  <MODEL>
1

>  <REMARK>
 VINA RESULT:     -10.6      0.000      0.000
  Name = 
  4 active torsions:
  status: ('A' for Active; 'I' for Inactive)
    1  A    between atoms: N_2  and  C_13
    2  A    between atoms: C_3  and  N_9
    3  A    between atoms: C_16  and  C_21
    4  A    between atoms: C_21  and  O_22
                            x       y       z     vdW  Elec       q    Type
                         _______ _______ _______ _____ _____    ______ ____

>  <TORSDO>
F 4

$$$$
=
 OpenBabel10222420173D

 27 30  0  0  0  0  0  0  0  0999 V2000
  190.0330  176.7910  144.4560 C   0  0  0  0  0  0  0  0  0  0  0  0
  191.3210  176.4040  144.8400 C   0  0  0  0  0  3  0  0  0  0  0  0
  187.4640  178.1760  148.0340 C   0  0  0  0  0  3  0  0  0  0  0  0
  189.1020  177.2470  145.4250 C   0  0  0  0  0  0  0  0  0  0  0  0
  185.5190  178.4240  145.0710 C   0  0  0  0  0  0  0  0  0  0  0  0
  190.8100  176.9040  147.1320 C   0  0  0  0  0  3  0  0  0  0  0  0
  185.1420  178.3500  143.6310 C   0  0  0  0  0  1  0  0  0  0  0  0
  187.8430  177.6080  144.9300 C   0  0  0  0  0  3  0  0  0  0  0  0
  186.7410  178.0820  145.6120 C   0  0  0  0  0  0  0  0  0  0  0  0
  186.5570  178.3430  147.0160 C   0  0  0  0  0  0  0  0  0  0  0  0
  188.7660  177.7120  147.9090 C   0  0  0  0  0  3  0  0  0  0  0  0
  191.7100  176.4600  146.1710 C   0  0  0  0  0  3  0  0  0  0  0  0
  189.5110  177.3010  146.7980 C   0  0  0  0  0  0  0  0  0  0  0  0
  184.6810  178.8470  146.0390 N   0  0  0  0  0  0  0  0  0  0  0  0
  185.3050  178.7990  147.2090 N   0  0  0  0  0  0  0  0  0  0  0  0
  190.1470  177.5160  142.2000 N   0  0  0  0  0  0  0  0  0  0  0  0
  189.6580  176.7240  143.0710 N   0  0  0  0  0  0  0  0  0  0  0  0
  188.2870  178.0290  138.9920 C   0  0  0  0  0  3  0  0  0  0  0  0
  189.0670  177.2710  138.1130 C   0  0  0  0  0  0  0  0  0  0  0  0
  189.7690  177.4410  140.8240 C   0  0  0  0  0  0  0  0  0  0  0  0
  190.1960  176.5910  138.5910 C   0  0  0  0  0  0  0  0  0  0  0  0
  188.7190  177.2020  136.8050 F   0  0  0  0  0  0  0  0  0  0  0  0
  190.5460  176.6840  139.9420 C   0  0  0  0  0  3  0  0  0  0  0  0
  188.6350  178.1140  140.3430 C   0  0  0  0  0  3  0  0  0  0  0  0
  191.0550  175.7970  137.6660 C   0  0  0  0  0  2  0  0  0  0  0  0
  190.9780  174.4440  137.9960 O   0  0  0  0  0  0  0  0  0  0  0  0
  190.1810  173.8850  136.9990 C   0  0  0  0  0  1  0  0  0  0  0  0
  1  2  2  0  0  0  0
  1  4  1  0  0  0  0
  2 12  1  0  0  0  0
  4 13  1  0  0  0  0
  5  9  2  0  0  0  0
  5 14  1  0  0  0  0
  7  5  1  0  0  0  0
  8  4  2  0  0  0  0
  8  9  1  0  0  0  0
  9 10  1  0  0  0  0
 10 15  1  0  0  0  0
 10  3  2  0  0  0  0
 11  3  1  0  0  0  0
 12  6  2  0  0  0  0
 13  6  1  0  0  0  0
 13 11  2  0  0  0  0
 14 15  2  0  0  0  0
 16 17  2  0  0  0  0
 17  1  1  0  0  0  0
 18 24  1  0  0  0  0
 19 21  1  0  0  0  0
 19 18  2  0  0  0  0
 20 16  1  0  0  0  0
 21 23  2  0  0  0  0
 22 19  1  0  0  0  0
 23 20  1  0  0  0  0
 24 20  2  0  0  0  0
 25 26  1  0  0  0  0
 25 21  1  0  0  0  0
 27 26  1  0  0  0  0
M  END
>  <MODEL>
2

>  <REMARK>
 VINA RESULT:     -10.6      1.455      2.321
  Name = 
  4 active torsions:
  status: ('A' for Active; 'I' for Inactive)
    1  A    between atoms: N_2  and  C_13
    2  A    between atoms: C_3  and  N_9
    3  A    between atoms: C_16  and  C_21
    4  A    between atoms: C_21  and  O_22
                            x       y       z     vdW  Elec       q    Type
                         _______ _______ _______ _____ _____    ______ ____

>  <TORSDO>
F 4

$$$$
=
 OpenBabel10222420173D

 27 30  0  0  0  0  0  0  0  0999 V2000
  186.6180  177.8960  144.0860 C   0  0  0  0  0  0  0  0  0  0  0  0
  185.2940  178.3230  144.2380 C   0  0  0  0  0  3  0  0  0  0  0  0
  188.8880  177.7150  148.1020 C   0  0  0  0  0  3  0  0  0  0  0  0
  187.4690  177.7800  145.2160 C   0  0  0  0  0  0  0  0  0  0  0  0
  191.0880  176.7010  145.5020 C   0  0  0  0  0  0  0  0  0  0  0  0
  185.6120  178.5310  146.6080 C   0  0  0  0  0  3  0  0  0  0  0  0
  191.5880  176.3710  144.1380 C   0  0  0  0  0  1  0  0  0  0  0  0
  188.7710  177.3440  144.9480 C   0  0  0  0  0  3  0  0  0  0  0  0
  189.8180  177.1340  145.8230 C   0  0  0  0  0  0  0  0  0  0  0  0
  189.8830  177.2990  147.2510 C   0  0  0  0  0  0  0  0  0  0  0  0
  187.5940  178.0680  147.7450 C   0  0  0  0  0  3  0  0  0  0  0  0
  184.7920  178.6390  145.4920 C   0  0  0  0  0  3  0  0  0  0  0  0
  186.9420  178.1090  146.5080 C   0  0  0  0  0  0  0  0  0  0  0  0
  191.8450  176.6120  146.6140 N   0  0  0  0  0  0  0  0  0  0  0  0
  191.1210  176.9710  147.6660 N   0  0  0  0  0  0  0  0  0  0  0  0
  187.3390  178.4720  141.9010 N   0  0  0  0  0  0  0  0  0  0  0  0
  187.1100  177.5740  142.7750 N   0  0  0  0  0  0  0  0  0  0  0  0
  187.5560  178.0380  138.1880 C   0  0  0  0  0  3  0  0  0  0  0  0
  188.8330  177.4840  138.0640 C   0  0  0  0  0  0  0  0  0  0  0  0
  187.8290  178.1420  140.6000 C   0  0  0  0  0  0  0  0  0  0  0  0
  189.6090  177.2530  139.2090 C   0  0  0  0  0  0  0  0  0  0  0  0
  189.3080  177.1760  136.8320 F   0  0  0  0  0  0  0  0  0  0  0  0
  189.1060  177.5880  140.4700 C   0  0  0  0  0  3  0  0  0  0  0  0
  187.0530  178.3650  139.4510 C   0  0  0  0  0  3  0  0  0  0  0  0
  190.9840  176.6860  139.0960 C   0  0  0  0  0  2  0  0  0  0  0  0
  190.9110  175.3420  138.7290 O   0  0  0  0  0  0  0  0  0  0  0  0
  191.9060  175.1890  137.7660 C   0  0  0  0  0  1  0  0  0  0  0  0
  1  2  2  0  0  0  0
  1  4  1  0  0  0  0
  2 12  1  0  0  0  0
  4 13  1  0  0  0  0
  5  9  2  0  0  0  0
  5 14  1  0  0  0  0
  7  5  1  0  0  0  0
  8  4  2  0  0  0  0
  8  9  1  0  0  0  0
  9 10  1  0  0  0  0
 10 15  1  0  0  0  0
 10  3  2  0  0  0  0
 11  3  1  0  0  0  0
 12  6  2  0  0  0  0
 13  6  1  0  0  0  0
 13 11  2  0  0  0  0
 14 15  2  0  0  0  0
 16 17  2  0  0  0  0
 17  1  1  0  0  0  0
 18 24  1  0  0  0  0
 19 18  2  0  0  0  0
 19 21  1  0  0  0  0
 20 16  1  0  0  0  0
 21 23  2  0  0  0  0
 22 19  1  0  0  0  0
 23 20  1  0  0  0  0
 24 20  2  0  0  0  0
 25 21  1  0  0  0  0
 26 25  1  0  0  0  0
 27 26  1  0  0  0  0
M  END
>  <MODEL>
3

>  <REMARK>
 VINA RESULT:     -10.4      2.014      4.371
  Name = 
  4 active torsions:
  status: ('A' for Active; 'I' for Inactive)
    1  A    between atoms: N_2  and  C_13
    2  A    between atoms: C_3  and  N_9
    3  A    between atoms: C_16  and  C_21
    4  A    between atoms: C_21  and  O_22
                            x       y       z     vdW  Elec       q    Type
                         _______ _______ _______ _____ _____    ______ ____

>  <TORSDO>
F 4

$$$$
=
 OpenBabel10222420173D

 27 30  0  0  0  0  0  0  0  0999 V2000
  189.0410  177.1420  144.3070 C   0  0  0  0  0  0  0  0  0  0  0  0
  190.2060  176.8680  145.0330 C   0  0  0  0  0  3  0  0  0  0  0  0
  185.5790  178.5840  147.0000 C   0  0  0  0  0  3  0  0  0  0  0  0
  187.8730  177.5970  144.9710 C   0  0  0  0  0  0  0  0  0  0  0  0
  184.4490  178.5070  143.6320 C   0  0  0  0  0  0  0  0  0  0  0  0
  189.1020  177.4810  147.0740 C   0  0  0  0  0  3  0  0  0  0  0  0
  184.4560  178.3130  142.1540 C   0  0  0  0  0  1  0  0  0  0  0  0
  186.7670  177.8400  144.1470 C   0  0  0  0  0  3  0  0  0  0  0  0
  185.5050  178.2840  144.4890 C   0  0  0  0  0  0  0  0  0  0  0  0
  184.9560  178.6230  145.7760 C   0  0  0  0  0  0  0  0  0  0  0  0
  186.8900  178.2010  147.2440 C   0  0  0  0  0  3  0  0  0  0  0  0
  190.2370  177.0360  146.4100 C   0  0  0  0  0  3  0  0  0  0  0  0
  187.9140  177.7680  146.3930 C   0  0  0  0  0  0  0  0  0  0  0  0
  183.3720  178.9360  144.3200 N   0  0  0  0  0  0  0  0  0  0  0  0
  183.6770  179.0060  145.6100 N   0  0  0  0  0  0  0  0  0  0  0  0
  189.5810  177.7980  142.0920 N   0  0  0  0  0  0  0  0  0  0  0  0
  189.0380  176.9590  142.8820 N   0  0  0  0  0  0  0  0  0  0  0  0
  188.6840  178.0990  138.4700 C   0  0  0  0  0  3  0  0  0  0  0  0
  189.5960  177.2070  137.9000 C   0  0  0  0  0  0  0  0  0  0  0  0
  189.5730  177.6080  140.6760 C   0  0  0  0  0  0  0  0  0  0  0  0
  190.4950  176.5080  138.7190 C   0  0  0  0  0  0  0  0  0  0  0  0
  189.6000  177.0260  136.5560 F   0  0  0  0  0  0  0  0  0  0  0  0
  190.4840  176.7170  140.1010 C   0  0  0  0  0  3  0  0  0  0  0  0
  188.6700  178.2990  139.8530 C   0  0  0  0  0  3  0  0  0  0  0  0
  191.4930  175.5710  138.1270 C   0  0  0  0  0  2  0  0  0  0  0  0
  190.8980  174.3300  137.9020 O   0  0  0  0  0  0  0  0  0  0  0  0
  191.5670  173.8190  136.7910 C   0  0  0  0  0  1  0  0  0  0  0  0
  1  4  2  0  0  0  0
  1  2  1  0  0  0  0
  2 12  2  0  0  0  0
  3 11  2  0  0  0  0
  4 13  1  0  0  0  0
  5 14  2  0  0  0  0
  5  9  1  0  0  0  0
  7  5  1  0  0  0  0
  8  9  2  0  0  0  0
  8  4  1  0  0  0  0
  9 10  1  0  0  0  0
 10  3  1  0  0  0  0
 12  6  1  0  0  0  0
 13  6  2  0  0  0  0
 13 11  1  0  0  0  0
 14 15  1  0  0  0  0
 15 10  2  0  0  0  0
 16 17  2  0  0  0  0
 17  1  1  0  0  0  0
 18 24  1  0  0  0  0
 19 18  2  0  0  0  0
 19 21  1  0  0  0  0
 20 16  1  0  0  0  0
 21 23  2  0  0  0  0
 22 19  1  0  0  0  0
 23 20  1  0  0  0  0
 24 20  2  0  0  0  0
 25 21  1  0  0  0  0
 26 25  1  0  0  0  0
 27 26  1  0  0  0  0
M  END
>  <MODEL>
4

>  <REMARK>
 VINA RESULT:     -10.4      1.726      2.819
  Name = 
  4 active torsions:
  status: ('A' for Active; 'I' for Inactive)
    1  A    between atoms: N_2  and  C_13
    2  A    between atoms: C_3  and  N_9
    3  A    between atoms: C_16  and  C_21
    4  A    between atoms: C_21  and  O_22
                            x       y       z     vdW  Elec       q    Type
                         _______ _______ _______ _____ _____    ______ ____

>  <TORSDO>
F 4

$$$$
=
 OpenBabel10222420173D

 27 30  0  0  0  0  0  0  0  0999 V2000
  189.1190  177.1830  144.5020 C   0  0  0  0  0  0  0  0  0  0  0  0
  190.2470  176.9360  145.2930 C   0  0  0  0  0  3  0  0  0  0  0  0
  185.5050  178.6270  146.9860 C   0  0  0  0  0  3  0  0  0  0  0  0
  187.9120  177.6350  145.0960 C   0  0  0  0  0  0  0  0  0  0  0  0
  184.5530  178.4800  143.5650 C   0  0  0  0  0  0  0  0  0  0  0  0
  189.0310  177.5690  147.2630 C   0  0  0  0  0  3  0  0  0  0  0  0
  184.6410  178.2620  142.0930 C   0  0  0  0  0  1  0  0  0  0  0  0
  186.8490  177.8500  144.2120 C   0  0  0  0  0  3  0  0  0  0  0  0
  185.5660  178.2840  144.4800 C   0  0  0  0  0  0  0  0  0  0  0  0
  184.9460  178.6380  145.7300 C   0  0  0  0  0  0  0  0  0  0  0  0
  186.8050  178.2640  147.3050 C   0  0  0  0  0  3  0  0  0  0  0  0
  190.2050  177.1270  146.6670 C   0  0  0  0  0  3  0  0  0  0  0  0
  187.8770  177.8300  146.5160 C   0  0  0  0  0  0  0  0  0  0  0  0
  183.4360  178.9070  144.1890 N   0  0  0  0  0  0  0  0  0  0  0  0
  183.6730  179.0030  145.4910 N   0  0  0  0  0  0  0  0  0  0  0  0
  190.0180  177.6120  142.3500 N   0  0  0  0  0  0  0  0  0  0  0  0
  189.1930  176.9770  143.0830 N   0  0  0  0  0  0  0  0  0  0  0  0
  191.3430  176.9200  138.9170 C   0  0  0  0  0  3  0  0  0  0  0  0
  190.1660  176.9830  138.1650 C   0  0  0  0  0  0  0  0  0  0  0  0
  190.0840  177.4000  140.9390 C   0  0  0  0  0  0  0  0  0  0  0  0
  188.9470  177.2620  138.7990 C   0  0  0  0  0  0  0  0  0  0  0  0
  190.2200  176.7750  136.8270 F   0  0  0  0  0  0  0  0  0  0  0  0
  188.9100  177.4620  140.1820 C   0  0  0  0  0  3  0  0  0  0  0  0
  191.3050  177.1280  140.2990 C   0  0  0  0  0  3  0  0  0  0  0  0
  187.6770  177.3100  138.0180 C   0  0  0  0  0  2  0  0  0  0  0  0
  187.3850  178.6290  137.6740 O   0  0  0  0  0  0  0  0  0  0  0  0
  187.3500  178.6280  136.2810 C   0  0  0  0  0  1  0  0  0  0  0  0
  1  4  2  0  0  0  0
  1  2  1  0  0  0  0
  2 12  2  0  0  0  0
  3 11  2  0  0  0  0
  4 13  1  0  0  0  0
  5 14  2  0  0  0  0
  5  9  1  0  0  0  0
  7  5  1  0  0  0  0
  8  9  2  0  0  0  0
  8  4  1  0  0  0  0
  9 10  1  0  0  0  0
 10  3  1  0  0  0  0
 12  6  1  0  0  0  0
 13  6  2  0  0  0  0
 13 11  1  0  0  0  0
 14 15  1  0  0  0  0
 15 10  2  0  0  0  0
 16 17  2  0  0  0  0
 17  1  1  0  0  0  0
 18 24  1  0  0  0  0
 19 21  1  0  0  0  0
 19 18  2  0  0  0  0
 20 16  1  0  0  0  0
 21 23  2  0  0  0  0
 22 19  1  0  0  0  0
 23 20  1  0  0  0  0
 24 20  2  0  0  0  0
 25 21  1  0  0  0  0
 26 25  1  0  0  0  0
 27 26  1  0  0  0  0
M  END
>  <MODEL>
5

>  <REMARK>
 VINA RESULT:     -10.3      1.177      1.661
  Name = 
  4 active torsions:
  status: ('A' for Active; 'I' for Inactive)
    1  A    between atoms: N_2  and  C_13
    2  A    between atoms: C_3  and  N_9
    3  A    between atoms: C_16  and  C_21
    4  A    between atoms: C_21  and  O_22
                            x       y       z     vdW  Elec       q    Type
                         _______ _______ _______ _____ _____    ______ ____

>  <TORSDO>
F 4

$$$$
=
 OpenBabel10222420173D

 27 30  0  0  0  0  0  0  0  0999 V2000
  186.7390  177.8690  143.7690 C   0  0  0  0  0  0  0  0  0  0  0  0
  185.4010  178.2790  143.7420 C   0  0  0  0  0  3  0  0  0  0  0  0
  188.4960  177.8540  148.0390 C   0  0  0  0  0  3  0  0  0  0  0  0
  187.4440  177.8030  144.9990 C   0  0  0  0  0  0  0  0  0  0  0  0
  191.0130  176.7940  145.7660 C   0  0  0  0  0  0  0  0  0  0  0  0
  185.4200  178.5670  146.1250 C   0  0  0  0  0  3  0  0  0  0  0  0
  191.6820  176.4290  144.4860 C   0  0  0  0  0  1  0  0  0  0  0  0
  188.7760  177.3800  144.9090 C   0  0  0  0  0  3  0  0  0  0  0  0
  189.7080  177.2150  145.9130 C   0  0  0  0  0  0  0  0  0  0  0  0
  189.5940  177.4270  147.3320 C   0  0  0  0  0  0  0  0  0  0  0  0
  187.2520  178.1740  147.5140 C   0  0  0  0  0  3  0  0  0  0  0  0
  184.7440  178.6270  144.9140 C   0  0  0  0  0  3  0  0  0  0  0  0
  186.7580  178.1640  146.2040 C   0  0  0  0  0  0  0  0  0  0  0  0
  191.6280  176.7520  146.9650 N   0  0  0  0  0  0  0  0  0  0  0  0
  190.7750  177.1330  147.9070 N   0  0  0  0  0  0  0  0  0  0  0  0
  188.3280  178.2230  142.0450 N   0  0  0  0  0  0  0  0  0  0  0  0
  187.3930  177.5140  142.5410 N   0  0  0  0  0  0  0  0  0  0  0  0
  190.5100  176.4640  139.5620 C   0  0  0  0  0  3  0  0  0  0  0  0
  190.2140  177.1810  138.3990 C   0  0  0  0  0  0  0  0  0  0  0  0
  188.9740  177.8610  140.8220 C   0  0  0  0  0  0  0  0  0  0  0  0
  189.3010  178.2450  138.4480 C   0  0  0  0  0  0  0  0  0  0  0  0
  190.8160  176.8390  137.2340 F   0  0  0  0  0  0  0  0  0  0  0  0
  188.6800  178.5750  139.6570 C   0  0  0  0  0  3  0  0  0  0  0  0
  189.8940  176.8020  140.7700 C   0  0  0  0  0  3  0  0  0  0  0  0
  188.9520  179.0060  137.2140 C   0  0  0  0  0  2  0  0  0  0  0  0
  187.5680  179.0210  137.0440 O   0  0  0  0  0  0  0  0  0  0  0  0
  187.3150  177.9890  136.1440 C   0  0  0  0  0  1  0  0  0  0  0  0
  1  4  1  0  0  0  0
  2  1  2  0  0  0  0
  2 12  1  0  0  0  0
  4 13  1  0  0  0  0
  5  9  2  0  0  0  0
  5 14  1  0  0  0  0
  6 13  1  0  0  0  0
  7  5  1  0  0  0  0
  8  4  2  0  0  0  0
  8  9  1  0  0  0  0
  9 10  1  0  0  0  0
 10 15  1  0  0  0  0
 10  3  2  0  0  0  0
 11  3  1  0  0  0  0
 12  6  2  0  0  0  0
 13 11  2  0  0  0  0
 14 15  2  0  0  0  0
 16 17  2  0  0  0  0
 17  1  1  0  0  0  0
 18 24  1  0  0  0  0
 19 21  1  0  0  0  0
 19 18  2  0  0  0  0
 20 16  1  0  0  0  0
 21 23  2  0  0  0  0
 22 19  1  0  0  0  0
 23 20  1  0  0  0  0
 24 20  2  0  0  0  0
 25 21  1  0  0  0  0
 26 25  1  0  0  0  0
 27 26  1  0  0  0  0
M  END
>  <MODEL>
6

>  <REMARK>
 VINA RESULT:     -10.3      1.924      3.844
  Name = 
  4 active torsions:
  status: ('A' for Active; 'I' for Inactive)
    1  A    between atoms: N_2  and  C_13
    2  A    between atoms: C_3  and  N_9
    3  A    between atoms: C_16  and  C_21
    4  A    between atoms: C_21  and  O_22
                            x       y       z     vdW  Elec       q    Type
                         _______ _______ _______ _____ _____    ______ ____

>  <TORSDO>
F 4

$$$$
=
 OpenBabel10222420173D

 27 30  0  0  0  0  0  0  0  0999 V2000
  187.1350  177.8570  145.6850 C   0  0  0  0  0  0  0  0  0  0  0  0
  186.7980  177.9220  147.0410 C   0  0  0  0  0  3  0  0  0  0  0  0
  191.6410  177.1050  145.0170 C   0  0  0  0  0  3  0  0  0  0  0  0
  188.4790  177.6310  145.2890 C   0  0  0  0  0  0  0  0  0  0  0  0
  190.0450  177.3480  141.8520 C   0  0  0  0  0  0  0  0  0  0  0  0
  189.0900  177.5450  147.6490 C   0  0  0  0  0  3  0  0  0  0  0  0
  188.9710  177.5200  140.8330 C   0  0  0  0  0  1  0  0  0  0  0  0
  188.7020  177.5850  143.9080 C   0  0  0  0  0  3  0  0  0  0  0  0
  189.8820  177.3840  143.2210 C   0  0  0  0  0  0  0  0  0  0  0  0
  191.2180  177.1660  143.7120 C   0  0  0  0  0  0  0  0  0  0  0  0
  190.8480  177.2440  146.1470 C   0  0  0  0  0  3  0  0  0  0  0  0
  187.7690  177.7670  148.0200 C   0  0  0  0  0  3  0  0  0  0  0  0
  189.4760  177.4720  146.3060 C   0  0  0  0  0  0  0  0  0  0  0  0
  191.3390  177.1310  141.5410 N   0  0  0  0  0  0  0  0  0  0  0  0
  192.0440  177.0220  142.6590 N   0  0  0  0  0  0  0  0  0  0  0  0
  184.9530  178.4720  144.9850 N   0  0  0  0  0  0  0  0  0  0  0  0
  186.1080  178.0200  144.6930 N   0  0  0  0  0  0  0  0  0  0  0  0
  181.6230  179.0030  143.3590 C   0  0  0  0  0  3  0  0  0  0  0  0
  181.9790  178.9440  142.0090 C   0  0  0  0  0  0  0  0  0  0  0  0
  183.9380  178.6310  143.9920 C   0  0  0  0  0  0  0  0  0  0  0  0
  183.3160  178.7220  141.6480 C   0  0  0  0  0  0  0  0  0  0  0  0
  181.0230  179.1020  141.0600 F   0  0  0  0  0  0  0  0  0  0  0  0
  184.2900  178.5730  142.6400 C   0  0  0  0  0  3  0  0  0  0  0  0
  182.5970  178.8470  144.3490 C   0  0  0  0  0  3  0  0  0  0  0  0
  183.7210  178.6800  140.2130 C   0  0  0  0  0  2  0  0  0  0  0  0
  184.9150  179.3790  140.0390 O   0  0  0  0  0  0  0  0  0  0  0  0
  185.6280  178.6260  139.1080 C   0  0  0  0  0  1  0  0  0  0  0  0
  1  2  1  0  0  0  0
  2 12  2  0  0  0  0
  3 11  2  0  0  0  0
  4  1  2  0  0  0  0
  4 13  1  0  0  0  0
  5  9  1  0  0  0  0
  6 12  1  0  0  0  0
  7  5  1  0  0  0  0
  8  4  1  0  0  0  0
  9 10  1  0  0  0  0
  9  8  2  0  0  0  0
 10  3  1  0  0  0  0
 11 13  1  0  0  0  0
 13  6  2  0  0  0  0
 14  5  2  0  0  0  0
 14 15  1  0  0  0  0
 15 10  2  0  0  0  0
 17 16  2  0  0  0  0
 17  1  1  0  0  0  0
 18 24  1  0  0  0  0
 19 18  2  0  0  0  0
 20 24  2  0  0  0  0
 20 16  1  0  0  0  0
 21 19  1  0  0  0  0
 21 23  2  0  0  0  0
 22 19  1  0  0  0  0
 23 20  1  0  0  0  0
 25 21  1  0  0  0  0
 26 25  1  0  0  0  0
 27 26  1  0  0  0  0
M  END
>  <MODEL>
7

>  <REMARK>
 VINA RESULT:      -9.9      2.392      5.689
  Name = 
  4 active torsions:
  status: ('A' for Active; 'I' for Inactive)
    1  A    between atoms: N_2  and  C_13
    2  A    between atoms: C_3  and  N_9
    3  A    between atoms: C_16  and  C_21
    4  A    between atoms: C_21  and  O_22
                            x       y       z     vdW  Elec       q    Type
                         _______ _______ _______ _____ _____    ______ ____

>  <TORSDO>
F 4

$$$$
=
 OpenBabel10222420173D

 27 30  0  0  0  0  0  0  0  0999 V2000
  184.7140  178.7720  144.2000 C   0  0  0  0  0  0  0  0  0  0  0  0
  183.5460  178.8880  144.9610 C   0  0  0  0  0  3  0  0  0  0  0  0
  183.8770  178.8260  139.6600 C   0  0  0  0  0  3  0  0  0  0  0  0
  184.6500  178.7700  142.7820 C   0  0  0  0  0  0  0  0  0  0  0  0
  187.3780  178.4960  140.1710 C   0  0  0  0  0  0  0  0  0  0  0  0
  182.2280  179.0030  142.9580 C   0  0  0  0  0  3  0  0  0  0  0  0
  188.6880  178.3750  140.8720 C   0  0  0  0  0  1  0  0  0  0  0  0
  185.8780  178.6490  142.1230 C   0  0  0  0  0  3  0  0  0  0  0  0
  186.1420  178.6170  140.7680 C   0  0  0  0  0  0  0  0  0  0  0  0
  185.2450  178.6960  139.6450 C   0  0  0  0  0  0  0  0  0  0  0  0
  183.0710  178.9090  140.7860 C   0  0  0  0  0  3  0  0  0  0  0  0
  182.3080  179.0030  144.3450 C   0  0  0  0  0  3  0  0  0  0  0  0
  183.3670  178.8890  142.1540 C   0  0  0  0  0  0  0  0  0  0  0  0
  187.2510  178.5000  138.8280 N   0  0  0  0  0  0  0  0  0  0  0  0
  185.9680  178.6200  138.5120 N   0  0  0  0  0  0  0  0  0  0  0  0
  186.3560  177.5730  145.4210 N   0  0  0  0  0  0  0  0  0  0  0  0
  185.9820  178.6560  144.8660 N   0  0  0  0  0  0  0  0  0  0  0  0
  188.9780  177.5240  148.0930 C   0  0  0  0  0  3  0  0  0  0  0  0
  190.1190  177.2440  147.3340 C   0  0  0  0  0  0  0  0  0  0  0  0
  187.6190  177.4660  146.0800 C   0  0  0  0  0  0  0  0  0  0  0  0
  190.0120  177.0810  145.9460 C   0  0  0  0  0  0  0  0  0  0  0  0
  191.3200  177.1340  147.9540 F   0  0  0  0  0  0  0  0  0  0  0  0
  188.7630  177.1860  145.3260 C   0  0  0  0  0  3  0  0  0  0  0  0
  187.7330  177.6360  147.4700 C   0  0  0  0  0  3  0  0  0  0  0  0
  191.2120  176.7580  145.1220 C   0  0  0  0  0  2  0  0  0  0  0  0
  190.8440  176.6220  143.7840 O   0  0  0  0  0  0  0  0  0  0  0  0
  191.6800  177.5030  143.1000 C   0  0  0  0  0  1  0  0  0  0  0  0
  1 17  1  0  0  0  0
  1  2  1  0  0  0  0
  3 11  2  0  0  0  0
  4  1  2  0  0  0  0
  5  9  1  0  0  0  0
  5  7  1  0  0  0  0
  6 12  1  0  0  0  0
  8  4  1  0  0  0  0
  9  8  2  0  0  0  0
 10  3  1  0  0  0  0
 10  9  1  0  0  0  0
 11 13  1  0  0  0  0
 12  2  2  0  0  0  0
 13  4  1  0  0  0  0
 13  6  2  0  0  0  0
 14  5  2  0  0  0  0
 15 14  1  0  0  0  0
 15 10  2  0  0  0  0
 16 20  1  0  0  0  0
 17 16  2  0  0  0  0
 19 22  1  0  0  0  0
 19 18  2  0  0  0  0
 20 24  2  0  0  0  0
 21 19  1  0  0  0  0
 23 21  2  0  0  0  0
 23 20  1  0  0  0  0
 24 18  1  0  0  0  0
 25 21  1  0  0  0  0
 26 25  1  0  0  0  0
 27 26  1  0  0  0  0
M  END
>  <MODEL>
8

>  <REMARK>
 VINA RESULT:      -9.7      3.279      7.506
  Name = 
  4 active torsions:
  status: ('A' for Active; 'I' for Inactive)
    1  A    between atoms: N_2  and  C_13
    2  A    between atoms: C_3  and  N_9
    3  A    between atoms: C_16  and  C_21
    4  A    between atoms: C_21  and  O_22
                            x       y       z     vdW  Elec       q    Type
                         _______ _______ _______ _____ _____    ______ ____

>  <TORSDO>
F 4

$$$$
=
 OpenBabel10222420173D

 27 30  0  0  0  0  0  0  0  0999 V2000
  186.0560  178.1550  144.3580 C   0  0  0  0  0  0  0  0  0  0  0  0
  184.8400  178.5940  144.8930 C   0  0  0  0  0  3  0  0  0  0  0  0
  189.2570  177.4330  147.6070 C   0  0  0  0  0  3  0  0  0  0  0  0
  187.1580  177.8820  145.2100 C   0  0  0  0  0  0  0  0  0  0  0  0
  190.6650  176.6850  144.4310 C   0  0  0  0  0  0  0  0  0  0  0  0
  185.7590  178.5050  147.1090 C   0  0  0  0  0  3  0  0  0  0  0  0
  190.7840  176.5100  142.9560 C   0  0  0  0  0  1  0  0  0  0  0  0
  188.3240  177.4490  144.5690 C   0  0  0  0  0  3  0  0  0  0  0  0
  189.5450  177.1080  145.1150 C   0  0  0  0  0  0  0  0  0  0  0  0
  189.9790  177.0970  146.4870 C   0  0  0  0  0  0  0  0  0  0  0  0
  187.9360  177.8590  147.6380 C   0  0  0  0  0  3  0  0  0  0  0  0
  184.6910  178.7690  146.2620 C   0  0  0  0  0  3  0  0  0  0  0  0
  186.9950  178.0650  146.6220 C   0  0  0  0  0  0  0  0  0  0  0  0
  191.6740  176.4430  145.2930 N   0  0  0  0  0  0  0  0  0  0  0  0
  191.2610  176.6900  146.5290 N   0  0  0  0  0  0  0  0  0  0  0  0
  185.7290  178.8390  142.1110 N   0  0  0  0  0  0  0  0  0  0  0  0
  186.1810  177.9820  142.9380 N   0  0  0  0  0  0  0  0  0  0  0  0
  184.9170  178.6580  138.4600 C   0  0  0  0  0  3  0  0  0  0  0  0
  186.1610  178.2980  137.9330 C   0  0  0  0  0  0  0  0  0  0  0  0
  185.8590  178.6580  140.6990 C   0  0  0  0  0  0  0  0  0  0  0  0
  187.2550  178.1110  138.7900 C   0  0  0  0  0  0  0  0  0  0  0  0
  186.2940  178.1320  136.5940 F   0  0  0  0  0  0  0  0  0  0  0  0
  187.1010  178.2980  140.1680 C   0  0  0  0  0  3  0  0  0  0  0  0
  184.7640  178.8370  139.8380 C   0  0  0  0  0  3  0  0  0  0  0  0
  188.5960  177.7510  138.2460 C   0  0  0  0  0  2  0  0  0  0  0  0
  189.0400  178.7550  137.3860 O   0  0  0  0  0  0  0  0  0  0  0  0
  189.4820  178.0740  136.2520 C   0  0  0  0  0  1  0  0  0  0  0  0
  1  2  2  0  0  0  0
  1  4  1  0  0  0  0
  2 12  1  0  0  0  0
  3 11  1  0  0  0  0
  4 13  1  0  0  0  0
  5  9  2  0  0  0  0
  5 14  1  0  0  0  0
  7  5  1  0  0  0  0
  8  9  1  0  0  0  0
  8  4  2  0  0  0  0
  9 10  1  0  0  0  0
 10 15  1  0  0  0  0
 10  3  2  0  0  0  0
 12  6  2  0  0  0  0
 13  6  1  0  0  0  0
 13 11  2  0  0  0  0
 14 15  2  0  0  0  0
 16 17  2  0  0  0  0
 17  1  1  0  0  0  0
 18 24  1  0  0  0  0
 19 18  2  0  0  0  0
 19 21  1  0  0  0  0
 20 16  1  0  0  0  0
 21 23  2  0  0  0  0
 22 19  1  0  0  0  0
 23 20  1  0  0  0  0
 24 20  2  0  0  0  0
 25 21  1  0  0  0  0
 26 25  1  0  0  0  0
 27 26  1  0  0  0  0
M  END
>  <MODEL>
9

>  <REMARK>
 VINA RESULT:      -9.5      1.992      4.504
  Name = 
  4 active torsions:
  status: ('A' for Active; 'I' for Inactive)
    1  A    between atoms: N_2  and  C_13
    2  A    between atoms: C_3  and  N_9
    3  A    between atoms: C_16  and  C_21
    4  A    between atoms: C_21  and  O_22
                            x       y       z     vdW  Elec       q    Type
                         _______ _______ _______ _____ _____    ______ ____

>  <TORSDO>
F 4

$$$$
