=
 OpenBabel10222421083D

 29 30  0  0  1  0  0  0  0  0999 V2000
  189.2750  177.5700  141.0290 C   0  0  0  0  0  3  0  0  0  0  0  0
  188.2750  178.3740  140.5850 N   0  0  0  0  0  0  0  0  0  0  0  0
  187.1840  178.5990  141.3190 N   0  0  0  0  0  0  0  0  0  0  0  0
  189.1690  176.9600  142.2820 C   0  0  0  0  0  0  0  0  0  0  0  0
  187.0190  178.0370  142.5480 C   0  0  0  0  0  0  0  0  0  0  0  0
  188.0220  177.1980  143.0420 C   0  0  0  0  0  3  0  0  0  0  0  0
  185.8620  178.4550  144.7400 C   0  0  0  0  0  0  0  0  0  0  0  0
  183.4710  178.8180  144.8560 C   0  0  0  0  0  3  0  0  0  0  0  0
  184.7080  178.7080  145.4860 C   0  0  0  0  0  3  0  0  0  0  0  0
  184.5260  178.4170  142.7020 C   0  0  0  0  0  0  0  0  0  0  0  0
  187.0780  178.3720  145.4090 O   0  0  0  0  0  1  0  0  0  0  0  0
  185.7880  178.3090  143.3370 C   0  0  0  0  0  0  0  0  0  0  0  0
  183.3810  178.6740  143.4730 C   0  0  0  0  0  3  0  0  0  0  0  0
  184.4210  178.2500  141.3160 O   0  0  0  0  0  0  0  0  0  0  0  0
  183.3250  178.7400  140.5550 C   0  0  0  0  0  2  0  0  0  0  0  0
  183.7910  179.0910  139.1560 C   0  0  1  0  0  3  0  0  0  0  0  0
  184.3650  180.3630  139.1580 O   0  0  0  0  0  1  0  0  0  0  0  0
  184.8150  178.0690  138.6980 C   0  0  0  0  0  2  0  0  0  0  0  0
  185.8960  178.7340  137.9930 N   0  0  0  0  0  1  0  0  0  0  0  0
  190.0940  174.8330  142.7880 O   0  0  0  0  0  0  0  0  0  0  0  0
  190.2400  176.0860  142.7980 C   0  0  0  0  0  0  0  0  0  0  0  0
  191.4970  176.6590  143.3710 C   0  0  0  0  0  2  0  0  0  0  0  0
  191.3130  176.4270  145.8770 N   0  0  0  0  0  2  0  0  0  0  0  0
  191.2300  177.2490  144.7130 C   0  0  0  0  0  0  0  0  0  0  0  0
  190.9580  178.4770  144.8120 O   0  0  0  0  0  0  0  0  0  0  0  0
  191.0780  176.9540  147.2120 C   0  0  0  0  0  2  0  0  0  0  0  0
  189.5890  176.9570  147.5150 C   0  0  0  0  0  2  0  0  0  0  0  0
  187.9230  177.9820  148.8880 O   0  0  0  0  0  1  0  0  0  0  0  0
  189.2130  178.1480  148.3820 C   0  0  0  0  0  2  0  0  0  0  0  0
  1  4  1  0  0  0  0
  2  1  2  0  0  0  0
  2  3  1  0  0  0  0
  3  5  2  0  0  0  0
  4 21  1  0  0  0  0
  4  6  2  0  0  0  0
  5  6  1  0  0  0  0
  5 12  1  0  0  0  0
  7 11  1  0  0  0  0
  7  9  1  0  0  0  0
  8  9  2  0  0  0  0
 10 12  1  0  0  0  0
 10 13  2  0  0  0  0
 12  7  2  0  0  0  0
 13  8  1  0  0  0  0
 14 10  1  0  0  0  0
 15 14  1  0  0  0  0
 16 17  1  1  0  0  0
 16 15  1  0  0  0  0
 18 16  1  0  0  0  0
 19 18  1  0  0  0  0
 20 21  2  0  0  0  0
 21 22  1  0  0  0  0
 22 24  1  0  0  0  0
 23 26  1  0  0  0  0
 24 25  2  0  0  0  0
 24 23  1  0  0  0  0
 26 27  1  0  0  0  0
 27 29  1  0  0  0  0
 29 28  1  0  0  0  0
M  END
>  <MODEL>
1

>  <REMARK>
 VINA RESULT:      -7.9      0.000      0.000
  Name = 
  11 active torsions:
  status: ('A' for Active; 'I' for Inactive)
    1  A    between atoms: C_3  and  C_19
    2  A    between atoms: C_5  and  O_6
    3  A    between atoms: C_5  and  C_9
    4  A    between atoms: O_6  and  C_14
    5  A    between atoms: C_9  and  C_25
    6  A    between atoms: C_11  and  C_18
    7  A    between atoms: C_11  and  C_24
    8  A    between atoms: C_13  and  N_17
    9  A    between atoms: C_13  and  C_19
   10  A    between atoms: C_15  and  C_24
   11  A    between atoms: C_20  and  C_22
                            x       y       z     vdW  Elec       q    Type
                         _______ _______ _______ _____ _____    ______ ____

>  <TORSDO>
F 11

$$$$
=
 OpenBabel10222421083D

 29 30  0  0  1  0  0  0  0  0999 V2000
  184.1250  178.8760  139.5660 C   0  0  0  0  0  3  0  0  0  0  0  0
  185.1120  179.6240  140.1230 N   0  0  0  0  0  0  0  0  0  0  0  0
  185.4770  179.4610  141.3960 N   0  0  0  0  0  0  0  0  0  0  0  0
  183.4700  177.9110  140.3350 C   0  0  0  0  0  0  0  0  0  0  0  0
  184.8800  178.5370  142.1990 C   0  0  0  0  0  0  0  0  0  0  0  0
  183.8550  177.7490  141.6670 C   0  0  0  0  0  3  0  0  0  0  0  0
  184.5550  178.9700  144.6540 C   0  0  0  0  0  0  0  0  0  0  0  0
  186.1090  178.1160  146.3020 C   0  0  0  0  0  3  0  0  0  0  0  0
  184.9570  178.8320  145.9840 C   0  0  0  0  0  3  0  0  0  0  0  0
  186.4850  177.6620  143.9430 C   0  0  0  0  0  0  0  0  0  0  0  0
  183.3880  179.6770  144.3840 O   0  0  0  0  0  1  0  0  0  0  0  0
  185.3110  178.3840  143.6140 C   0  0  0  0  0  0  0  0  0  0  0  0
  186.8660  177.5350  145.2880 C   0  0  0  0  0  3  0  0  0  0  0  0
  187.2670  177.0940  142.9300 O   0  0  0  0  0  0  0  0  0  0  0  0
  188.4950  176.4240  143.1800 C   0  0  0  0  0  2  0  0  0  0  0  0
  189.6380  177.2080  142.5660 C   0  0  1  0  0  3  0  0  0  0  0  0
  189.1740  177.9300  141.4650 O   0  0  0  0  0  1  0  0  0  0  0  0
  190.2050  178.1600  143.6010 C   0  0  0  0  0  2  0  0  0  0  0  0
  191.6560  178.0830  143.6020 N   0  0  0  0  0  1  0  0  0  0  0  0
  182.5360  175.8250  139.6950 O   0  0  0  0  0  0  0  0  0  0  0  0
  182.3970  177.0760  139.7600 C   0  0  0  0  0  0  0  0  0  0  0  0
  181.1480  177.6910  139.2140 C   0  0  0  0  0  2  0  0  0  0  0  0
  180.1160  179.3590  140.7990 N   0  0  0  0  0  2  0  0  0  0  0  0
  180.2060  178.0180  140.3210 C   0  0  0  0  0  0  0  0  0  0  0  0
  179.4780  177.1110  140.8090 O   0  0  0  0  0  0  0  0  0  0  0  0
  179.2030  179.7380  141.8660 C   0  0  0  0  0  2  0  0  0  0  0  0
  179.9570  179.8440  143.1820 C   0  0  0  0  0  2  0  0  0  0  0  0
  179.7650  177.6630  144.1390 O   0  0  0  0  0  1  0  0  0  0  0  0
  179.3110  178.9770  144.2510 C   0  0  0  0  0  2  0  0  0  0  0  0
  1  2  2  0  0  0  0
  1  4  1  0  0  0  0
  2  3  1  0  0  0  0
  3  5  2  0  0  0  0
  4  6  2  0  0  0  0
  5 12  1  0  0  0  0
  6  5  1  0  0  0  0
  7  9  1  0  0  0  0
  9  8  2  0  0  0  0
 10 13  2  0  0  0  0
 11  7  1  0  0  0  0
 12 10  1  0  0  0  0
 12  7  2  0  0  0  0
 13  8  1  0  0  0  0
 14 15  1  0  0  0  0
 14 10  1  0  0  0  0
 16 17  1  6  0  0  0
 16 15  1  0  0  0  0
 16 18  1  0  0  0  0
 18 19  1  0  0  0  0
 20 21  2  0  0  0  0
 21  4  1  0  0  0  0
 22 21  1  0  0  0  0
 22 24  1  0  0  0  0
 23 26  1  0  0  0  0
 24 23  1  0  0  0  0
 24 25  2  0  0  0  0
 26 27  1  0  0  0  0
 27 29  1  0  0  0  0
 28 29  1  0  0  0  0
M  END
>  <MODEL>
2

>  <REMARK>
 VINA RESULT:      -7.6      2.921      7.496
  Name = 
  11 active torsions:
  status: ('A' for Active; 'I' for Inactive)
    1  A    between atoms: C_3  and  C_19
    2  A    between atoms: C_5  and  O_6
    3  A    between atoms: C_5  and  C_9
    4  A    between atoms: O_6  and  C_14
    5  A    between atoms: C_9  and  C_25
    6  A    between atoms: C_11  and  C_18
    7  A    between atoms: C_11  and  C_24
    8  A    between atoms: C_13  and  N_17
    9  A    between atoms: C_13  and  C_19
   10  A    between atoms: C_15  and  C_24
   11  A    between atoms: C_20  and  C_22
                            x       y       z     vdW  Elec       q    Type
                         _______ _______ _______ _____ _____    ______ ____

>  <TORSDO>
F 11

$$$$
=
 OpenBabel10222421083D

 29 30  0  0  1  0  0  0  0  0999 V2000
  183.8870  179.2020  139.9040 C   0  0  0  0  0  3  0  0  0  0  0  0
  185.1150  179.6290  140.2930 N   0  0  0  0  0  0  0  0  0  0  0  0
  185.5940  179.3580  141.5080 N   0  0  0  0  0  0  0  0  0  0  0  0
  183.0970  178.4630  140.7880 C   0  0  0  0  0  0  0  0  0  0  0  0
  184.8780  178.6410  142.4170 C   0  0  0  0  0  0  0  0  0  0  0  0
  183.6050  178.1870  142.0590 C   0  0  0  0  0  3  0  0  0  0  0  0
  184.7370  178.7460  144.9250 C   0  0  0  0  0  0  0  0  0  0  0  0
  186.4950  177.8470  146.3260 C   0  0  0  0  0  3  0  0  0  0  0  0
  185.2650  178.4870  146.1920 C   0  0  0  0  0  3  0  0  0  0  0  0
  186.6960  177.7140  143.9070 C   0  0  0  0  0  0  0  0  0  0  0  0
  183.4970  179.3700  144.8380 O   0  0  0  0  0  1  0  0  0  0  0  0
  185.4430  178.3600  143.7630 C   0  0  0  0  0  0  0  0  0  0  0  0
  187.2040  177.4630  145.1910 C   0  0  0  0  0  3  0  0  0  0  0  0
  187.4290  177.3460  142.7720 O   0  0  0  0  0  0  0  0  0  0  0  0
  188.7870  177.7140  142.5710 C   0  0  0  0  0  2  0  0  0  0  0  0
  189.6760  176.4980  142.7380 C   0  0  1  0  0  3  0  0  0  0  0  0
  190.1740  176.1050  141.4940 O   0  0  0  0  0  1  0  0  0  0  0  0
  190.8270  176.8430  143.6640 C   0  0  0  0  0  2  0  0  0  0  0  0
  191.7210  175.7050  143.7880 N   0  0  0  0  0  1  0  0  0  0  0  0
  181.6430  177.1240  139.4750 O   0  0  0  0  0  0  0  0  0  0  0  0
  181.7600  177.9780  140.3950 C   0  0  0  0  0  0  0  0  0  0  0  0
  180.5230  178.5060  141.0490 C   0  0  0  0  0  2  0  0  0  0  0  0
  180.3970  180.3380  139.3190 N   0  0  0  0  0  2  0  0  0  0  0  0
  180.3190  179.9370  140.6860 C   0  0  0  0  0  0  0  0  0  0  0  0
  180.0510  180.7770  141.5880 O   0  0  0  0  0  0  0  0  0  0  0  0
  180.1900  181.7170  138.9070 C   0  0  0  0  0  2  0  0  0  0  0  0
  181.3880  182.2070  138.1090 C   0  0  0  0  0  2  0  0  0  0  0  0
  182.1140  184.3480  137.3350 O   0  0  0  0  0  1  0  0  0  0  0  0
  181.0400  183.4570  137.3170 C   0  0  0  0  0  2  0  0  0  0  0  0
  1  2  2  0  0  0  0
  1  4  1  0  0  0  0
  2  3  1  0  0  0  0
  3  5  2  0  0  0  0
  4  6  2  0  0  0  0
  5 12  1  0  0  0  0
  6  5  1  0  0  0  0
  7  9  1  0  0  0  0
  9  8  2  0  0  0  0
 10 13  2  0  0  0  0
 11  7  1  0  0  0  0
 12 10  1  0  0  0  0
 12  7  2  0  0  0  0
 13  8  1  0  0  0  0
 14 10  1  0  0  0  0
 15 16  1  0  0  0  0
 15 14  1  0  0  0  0
 16 17  1  6  0  0  0
 16 18  1  0  0  0  0
 18 19  1  0  0  0  0
 20 21  2  0  0  0  0
 21  4  1  0  0  0  0
 21 22  1  0  0  0  0
 23 24  1  0  0  0  0
 24 22  1  0  0  0  0
 24 25  2  0  0  0  0
 26 23  1  0  0  0  0
 27 26  1  0  0  0  0
 29 28  1  0  0  0  0
 29 27  1  0  0  0  0
M  END
>  <MODEL>
3

>  <REMARK>
 VINA RESULT:      -7.4      2.863      8.385
  Name = 
  11 active torsions:
  status: ('A' for Active; 'I' for Inactive)
    1  A    between atoms: C_3  and  C_19
    2  A    between atoms: C_5  and  O_6
    3  A    between atoms: C_5  and  C_9
    4  A    between atoms: O_6  and  C_14
    5  A    between atoms: C_9  and  C_25
    6  A    between atoms: C_11  and  C_18
    7  A    between atoms: C_11  and  C_24
    8  A    between atoms: C_13  and  N_17
    9  A    between atoms: C_13  and  C_19
   10  A    between atoms: C_15  and  C_24
   11  A    between atoms: C_20  and  C_22
                            x       y       z     vdW  Elec       q    Type
                         _______ _______ _______ _____ _____    ______ ____

>  <TORSDO>
F 11

$$$$
=
 OpenBabel10222421083D

 29 30  0  0  1  0  0  0  0  0999 V2000
  184.5160  178.7980  146.0300 C   0  0  0  0  0  3  0  0  0  0  0  0
  185.2560  178.7330  147.1660 N   0  0  0  0  0  0  0  0  0  0  0  0
  186.5260  178.3250  147.1480 N   0  0  0  0  0  0  0  0  0  0  0  0
  185.0870  178.4320  144.8090 C   0  0  0  0  0  0  0  0  0  0  0  0
  187.1440  177.9560  145.9920 C   0  0  0  0  0  0  0  0  0  0  0  0
  186.4160  178.0030  144.7990 C   0  0  0  0  0  3  0  0  0  0  0  0
  189.2100  177.2540  147.2390 C   0  0  0  0  0  0  0  0  0  0  0  0
  191.2450  176.6540  146.0730 C   0  0  0  0  0  3  0  0  0  0  0  0
  190.5420  176.8330  147.2610 C   0  0  0  0  0  3  0  0  0  0  0  0
  189.2830  177.3250  144.8040 C   0  0  0  0  0  0  0  0  0  0  0  0
  188.5410  177.4010  148.4490 O   0  0  0  0  0  1  0  0  0  0  0  0
  188.5600  177.5040  146.0100 C   0  0  0  0  0  0  0  0  0  0  0  0
  190.6190  176.8980  144.8530 C   0  0  0  0  0  3  0  0  0  0  0  0
  188.6700  177.5920  143.5730 O   0  0  0  0  0  0  0  0  0  0  0  0
  189.3630  178.1530  142.4660 C   0  0  0  0  0  2  0  0  0  0  0  0
  189.1570  177.2830  141.2410 C   0  0  1  0  0  3  0  0  0  0  0  0
  188.3860  177.9710  140.3020 O   0  0  0  0  0  1  0  0  0  0  0  0
  190.5060  176.9360  140.6410 C   0  0  0  0  0  2  0  0  0  0  0  0
  191.5690  177.4800  141.4670 N   0  0  0  0  0  1  0  0  0  0  0  0
  183.1920  179.0740  143.5320 O   0  0  0  0  0  0  0  0  0  0  0  0
  184.3130  178.4970  143.5540 C   0  0  0  0  0  0  0  0  0  0  0  0
  184.8190  177.8590  142.2990 C   0  0  0  0  0  2  0  0  0  0  0  0
  183.8090  178.7930  140.1850 N   0  0  0  0  0  2  0  0  0  0  0  0
  184.8260  178.8480  141.1840 C   0  0  0  0  0  0  0  0  0  0  0  0
  185.7150  179.7400  141.1480 O   0  0  0  0  0  0  0  0  0  0  0  0
  183.7580  179.7420  139.0830 C   0  0  0  0  0  2  0  0  0  0  0  0
  182.3130  180.0670  138.7420 C   0  0  0  0  0  2  0  0  0  0  0  0
  180.6130  180.1330  140.4200 O   0  0  0  0  0  1  0  0  0  0  0  0
  181.3550  179.2700  139.6140 C   0  0  0  0  0  2  0  0  0  0  0  0
  1  2  1  0  0  0  0
  3  2  2  0  0  0  0
  4  1  2  0  0  0  0
  5 12  1  0  0  0  0
  5  3  1  0  0  0  0
  6  4  1  0  0  0  0
  6  5  2  0  0  0  0
  7  9  1  0  0  0  0
  7 11  1  0  0  0  0
  8  9  2  0  0  0  0
 10 13  2  0  0  0  0
 10 12  1  0  0  0  0
 12  7  2  0  0  0  0
 13  8  1  0  0  0  0
 14 10  1  0  0  0  0
 15 14  1  0  0  0  0
 16 17  1  6  0  0  0
 16 15  1  0  0  0  0
 18 16  1  0  0  0  0
 18 19  1  0  0  0  0
 20 21  2  0  0  0  0
 21  4  1  0  0  0  0
 22 21  1  0  0  0  0
 23 24  1  0  0  0  0
 24 22  1  0  0  0  0
 25 24  2  0  0  0  0
 26 23  1  0  0  0  0
 27 26  1  0  0  0  0
 27 29  1  0  0  0  0
 29 28  1  0  0  0  0
M  END
>  <MODEL>
4

>  <REMARK>
 VINA RESULT:      -7.3      2.421      7.217
  Name = 
  11 active torsions:
  status: ('A' for Active; 'I' for Inactive)
    1  A    between atoms: C_3  and  C_19
    2  A    between atoms: C_5  and  O_6
    3  A    between atoms: C_5  and  C_9
    4  A    between atoms: O_6  and  C_14
    5  A    between atoms: C_9  and  C_25
    6  A    between atoms: C_11  and  C_18
    7  A    between atoms: C_11  and  C_24
    8  A    between atoms: C_13  and  N_17
    9  A    between atoms: C_13  and  C_19
   10  A    between atoms: C_15  and  C_24
   11  A    between atoms: C_20  and  C_22
                            x       y       z     vdW  Elec       q    Type
                         _______ _______ _______ _____ _____    ______ ____

>  <TORSDO>
F 11

$$$$
=
 OpenBabel10222421083D

 29 30  0  0  1  0  0  0  0  0999 V2000
  184.1410  178.9660  139.7540 C   0  0  0  0  0  3  0  0  0  0  0  0
  185.1390  179.7070  140.3010 N   0  0  0  0  0  0  0  0  0  0  0  0
  185.5590  179.4950  141.5500 N   0  0  0  0  0  0  0  0  0  0  0  0
  183.5330  177.9580  140.5070 C   0  0  0  0  0  0  0  0  0  0  0  0
  185.0110  178.5280  142.3360 C   0  0  0  0  0  0  0  0  0  0  0  0
  183.9770  177.7460  141.8130 C   0  0  0  0  0  3  0  0  0  0  0  0
  184.7840  178.8520  144.8180 C   0  0  0  0  0  0  0  0  0  0  0  0
  186.4180  177.9540  146.3630 C   0  0  0  0  0  3  0  0  0  0  0  0
  185.2440  178.6640  146.1240 C   0  0  0  0  0  3  0  0  0  0  0  0
  186.7000  177.6050  143.9730 C   0  0  0  0  0  0  0  0  0  0  0  0
  183.5980  179.5520  144.6280 O   0  0  0  0  0  1  0  0  0  0  0  0
  185.5040  178.3230  143.7230 C   0  0  0  0  0  0  0  0  0  0  0  0
  187.1400  177.4280  145.2940 C   0  0  0  0  0  3  0  0  0  0  0  0
  187.4470  177.0930  142.9040 O   0  0  0  0  0  0  0  0  0  0  0  0
  188.6410  177.7000  142.4300 C   0  0  0  0  0  2  0  0  0  0  0  0
  188.8220  177.3870  140.9570 C   0  0  1  0  0  3  0  0  0  0  0  0
  188.7000  178.5590  140.2100 O   0  0  0  0  0  1  0  0  0  0  0  0
  190.1960  176.7820  140.7390 C   0  0  0  0  0  2  0  0  0  0  0  0
  191.1980  177.5660  141.4380 N   0  0  0  0  0  1  0  0  0  0  0  0
  181.2480  177.4840  140.0750 O   0  0  0  0  0  0  0  0  0  0  0  0
  182.4510  177.1300  139.9400 C   0  0  0  0  0  0  0  0  0  0  0  0
  182.7480  175.8480  139.2310 C   0  0  0  0  0  2  0  0  0  0  0  0
  184.4490  175.9030  137.3680 N   0  0  0  0  0  2  0  0  0  0  0  0
  183.1090  176.1160  137.8100 C   0  0  0  0  0  0  0  0  0  0  0  0
  182.2210  176.5040  137.0040 O   0  0  0  0  0  0  0  0  0  0  0  0
  184.8530  176.1330  135.9900 C   0  0  0  0  0  2  0  0  0  0  0  0
  185.8380  177.2880  135.9230 C   0  0  0  0  0  2  0  0  0  0  0  0
  186.8450  178.8450  137.4300 O   0  0  0  0  0  1  0  0  0  0  0  0
  186.5250  177.4980  137.2630 C   0  0  0  0  0  2  0  0  0  0  0  0
  1  2  2  0  0  0  0
  1  4  1  0  0  0  0
  2  3  1  0  0  0  0
  3  5  2  0  0  0  0
  4  6  2  0  0  0  0
  5 12  1  0  0  0  0
  6  5  1  0  0  0  0
  7  9  1  0  0  0  0
  9  8  2  0  0  0  0
 10 13  2  0  0  0  0
 11  7  1  0  0  0  0
 12 10  1  0  0  0  0
 12  7  2  0  0  0  0
 13  8  1  0  0  0  0
 14 10  1  0  0  0  0
 15 14  1  0  0  0  0
 16 17  1  6  0  0  0
 16 15  1  0  0  0  0
 18 16  1  0  0  0  0
 18 19  1  0  0  0  0
 21 20  2  0  0  0  0
 21  4  1  0  0  0  0
 22 21  1  0  0  0  0
 23 24  1  0  0  0  0
 24 22  1  0  0  0  0
 25 24  2  0  0  0  0
 26 23  1  0  0  0  0
 27 26  1  0  0  0  0
 27 29  1  0  0  0  0
 29 28  1  0  0  0  0
M  END
>  <MODEL>
5

>  <REMARK>
 VINA RESULT:      -7.3      2.774      7.300
  Name = 
  11 active torsions:
  status: ('A' for Active; 'I' for Inactive)
    1  A    between atoms: C_3  and  C_19
    2  A    between atoms: C_5  and  O_6
    3  A    between atoms: C_5  and  C_9
    4  A    between atoms: O_6  and  C_14
    5  A    between atoms: C_9  and  C_25
    6  A    between atoms: C_11  and  C_18
    7  A    between atoms: C_11  and  C_24
    8  A    between atoms: C_13  and  N_17
    9  A    between atoms: C_13  and  C_19
   10  A    between atoms: C_15  and  C_24
   11  A    between atoms: C_20  and  C_22
                            x       y       z     vdW  Elec       q    Type
                         _______ _______ _______ _____ _____    ______ ____

>  <TORSDO>
F 11

$$$$
=
 OpenBabel10222421083D

 29 30  0  0  1  0  0  0  0  0999 V2000
  189.9030  176.5740  141.3480 C   0  0  0  0  0  3  0  0  0  0  0  0
  190.4140  175.8620  142.3860 N   0  0  0  0  0  0  0  0  0  0  0  0
  190.0700  176.1270  143.6480 N   0  0  0  0  0  0  0  0  0  0  0  0
  188.9970  177.6080  141.5970 C   0  0  0  0  0  0  0  0  0  0  0  0
  189.1910  177.1190  143.9580 C   0  0  0  0  0  0  0  0  0  0  0  0
  188.6460  177.8800  142.9200 C   0  0  0  0  0  3  0  0  0  0  0  0
  189.8450  177.4770  146.3590 C   0  0  0  0  0  0  0  0  0  0  0  0
  188.1830  177.8850  148.0720 C   0  0  0  0  0  3  0  0  0  0  0  0
  189.5140  177.7250  147.6930 C   0  0  0  0  0  3  0  0  0  0  0  0
  187.4810  177.5450  145.7690 C   0  0  0  0  0  0  0  0  0  0  0  0
  191.1870  177.3430  146.0230 O   0  0  0  0  0  1  0  0  0  0  0  0
  188.8340  177.3860  145.3760 C   0  0  0  0  0  0  0  0  0  0  0  0
  187.1740  177.7960  147.1150 C   0  0  0  0  0  3  0  0  0  0  0  0
  186.4570  177.4330  144.8200 O   0  0  0  0  0  0  0  0  0  0  0  0
  185.6400  178.5260  144.4260 C   0  0  0  0  0  2  0  0  0  0  0  0
  184.2390  178.3390  144.9740 C   0  0  1  0  0  3  0  0  0  0  0  0
  184.1230  178.9970  146.2010 O   0  0  0  0  0  1  0  0  0  0  0  0
  183.2360  178.9110  143.9910 C   0  0  0  0  0  2  0  0  0  0  0  0
  183.8340  179.0000  142.6700 N   0  0  0  0  0  1  0  0  0  0  0  0
  187.3010  178.9660  140.6390 O   0  0  0  0  0  0  0  0  0  0  0  0
  188.4170  178.3970  140.4920 C   0  0  0  0  0  0  0  0  0  0  0  0
  189.1150  178.5110  139.1740 C   0  0  0  0  0  2  0  0  0  0  0  0
  187.8880  176.6690  137.9630 N   0  0  0  0  0  2  0  0  0  0  0  0
  188.2200  178.0520  138.0740 C   0  0  0  0  0  0  0  0  0  0  0  0
  187.7420  178.8940  137.2670 O   0  0  0  0  0  0  0  0  0  0  0  0
  187.0070  176.1680  136.9200 C   0  0  0  0  0  2  0  0  0  0  0  0
  187.1000  174.6530  136.8440 C   0  0  0  0  0  2  0  0  0  0  0  0
  185.7390  173.0410  137.9660 O   0  0  0  0  0  1  0  0  0  0  0  0
  185.7250  174.0160  136.9680 C   0  0  0  0  0  2  0  0  0  0  0  0
  1  4  2  0  0  0  0
  1  2  1  0  0  0  0
  2  3  2  0  0  0  0
  3  5  1  0  0  0  0
  4  6  1  0  0  0  0
  5 12  1  0  0  0  0
  6  5  2  0  0  0  0
  7  9  1  0  0  0  0
  9  8  2  0  0  0  0
 10 13  2  0  0  0  0
 11  7  1  0  0  0  0
 12 10  1  0  0  0  0
 12  7  2  0  0  0  0
 13  8  1  0  0  0  0
 14 10  1  0  0  0  0
 15 14  1  0  0  0  0
 15 16  1  0  0  0  0
 16 17  1  1  0  0  0
 18 16  1  0  0  0  0
 19 18  1  0  0  0  0
 21 20  2  0  0  0  0
 21  4  1  0  0  0  0
 22 21  1  0  0  0  0
 23 24  1  0  0  0  0
 24 22  1  0  0  0  0
 25 24  2  0  0  0  0
 26 23  1  0  0  0  0
 27 26  1  0  0  0  0
 27 29  1  0  0  0  0
 29 28  1  0  0  0  0
M  END
>  <MODEL>
6

>  <REMARK>
 VINA RESULT:      -7.3      2.727      6.459
  Name = 
  11 active torsions:
  status: ('A' for Active; 'I' for Inactive)
    1  A    between atoms: C_3  and  C_19
    2  A    between atoms: C_5  and  O_6
    3  A    between atoms: C_5  and  C_9
    4  A    between atoms: O_6  and  C_14
    5  A    between atoms: C_9  and  C_25
    6  A    between atoms: C_11  and  C_18
    7  A    between atoms: C_11  and  C_24
    8  A    between atoms: C_13  and  N_17
    9  A    between atoms: C_13  and  C_19
   10  A    between atoms: C_15  and  C_24
   11  A    between atoms: C_20  and  C_22
                            x       y       z     vdW  Elec       q    Type
                         _______ _______ _______ _____ _____    ______ ____

>  <TORSDO>
F 11

$$$$
=
 OpenBabel10222421083D

 29 30  0  0  1  0  0  0  0  0999 V2000
  189.9750  176.4550  141.1600 C   0  0  0  0  0  3  0  0  0  0  0  0
  189.9420  175.8880  142.3940 N   0  0  0  0  0  0  0  0  0  0  0  0
  189.0860  176.3040  143.3280 N   0  0  0  0  0  0  0  0  0  0  0  0
  189.0970  177.4970  140.8530 C   0  0  0  0  0  0  0  0  0  0  0  0
  188.2020  177.3130  143.0930 C   0  0  0  0  0  0  0  0  0  0  0  0
  188.2060  177.9280  141.8380 C   0  0  0  0  0  3  0  0  0  0  0  0
  185.9110  178.0150  143.8510 C   0  0  0  0  0  0  0  0  0  0  0  0
  185.4660  178.5890  146.1610 C   0  0  0  0  0  3  0  0  0  0  0  0
  185.0260  178.4290  144.8490 C   0  0  0  0  0  3  0  0  0  0  0  0
  187.7070  177.9210  145.4950 C   0  0  0  0  0  0  0  0  0  0  0  0
  185.4230  177.8500  142.5600 O   0  0  0  0  0  1  0  0  0  0  0  0
  187.2640  177.7510  144.1600 C   0  0  0  0  0  0  0  0  0  0  0  0
  186.7980  178.3350  146.4810 C   0  0  0  0  0  3  0  0  0  0  0  0
  189.0500  177.6920  145.8230 O   0  0  0  0  0  0  0  0  0  0  0  0
  189.4640  177.1550  147.0720 C   0  0  0  0  0  2  0  0  0  0  0  0
  190.7880  176.4370  146.9040 C   0  0  1  0  0  3  0  0  0  0  0  0
  191.4040  176.8570  145.7230 O   0  0  0  0  0  1  0  0  0  0  0  0
  191.6830  176.7530  148.0880 C   0  0  0  0  0  2  0  0  0  0  0  0
  192.9010  175.9660  148.0110 N   0  0  0  0  0  1  0  0  0  0  0  0
  188.9410  179.3770  139.4110 O   0  0  0  0  0  0  0  0  0  0  0  0
  189.1010  178.1310  139.5190 C   0  0  0  0  0  0  0  0  0  0  0  0
  189.2600  177.3150  138.2760 C   0  0  0  0  0  2  0  0  0  0  0  0
  186.8070  177.6300  137.7780 N   0  0  0  0  0  2  0  0  0  0  0  0
  187.9420  176.7680  137.8460 C   0  0  0  0  0  0  0  0  0  0  0  0
  187.8470  175.5540  137.5200 O   0  0  0  0  0  0  0  0  0  0  0  0
  185.5010  177.1540  137.3500 C   0  0  0  0  0  2  0  0  0  0  0  0
  184.4070  178.0040  137.9750 C   0  0  0  0  0  2  0  0  0  0  0  0
  184.5550  180.1110  139.0930 O   0  0  0  0  0  1  0  0  0  0  0  0
  184.9320  178.7700  139.1790 C   0  0  0  0  0  2  0  0  0  0  0  0
  1  2  1  0  0  0  0
  2  3  2  0  0  0  0
  4  1  2  0  0  0  0
  4  6  1  0  0  0  0
  5  3  1  0  0  0  0
  5 12  1  0  0  0  0
  6  5  2  0  0  0  0
  7 12  2  0  0  0  0
  7  9  1  0  0  0  0
  8 13  1  0  0  0  0
  9  8  2  0  0  0  0
 10 14  1  0  0  0  0
 10 13  2  0  0  0  0
 11  7  1  0  0  0  0
 12 10  1  0  0  0  0
 14 15  1  0  0  0  0
 16 17  1  6  0  0  0
 16 15  1  0  0  0  0
 16 18  1  0  0  0  0
 19 18  1  0  0  0  0
 20 21  2  0  0  0  0
 21  4  1  0  0  0  0
 22 21  1  0  0  0  0
 23 24  1  0  0  0  0
 24 22  1  0  0  0  0
 25 24  2  0  0  0  0
 26 23  1  0  0  0  0
 26 27  1  0  0  0  0
 27 29  1  0  0  0  0
 28 29  1  0  0  0  0
M  END
>  <MODEL>
7

>  <REMARK>
 VINA RESULT:      -7.1      2.231      7.179
  Name = 
  11 active torsions:
  status: ('A' for Active; 'I' for Inactive)
    1  A    between atoms: C_3  and  C_19
    2  A    between atoms: C_5  and  O_6
    3  A    between atoms: C_5  and  C_9
    4  A    between atoms: O_6  and  C_14
    5  A    between atoms: C_9  and  C_25
    6  A    between atoms: C_11  and  C_18
    7  A    between atoms: C_11  and  C_24
    8  A    between atoms: C_13  and  N_17
    9  A    between atoms: C_13  and  C_19
   10  A    between atoms: C_15  and  C_24
   11  A    between atoms: C_20  and  C_22
                            x       y       z     vdW  Elec       q    Type
                         _______ _______ _______ _____ _____    ______ ____

>  <TORSDO>
F 11

$$$$
=
 OpenBabel10222421083D

 29 30  0  0  1  0  0  0  0  0999 V2000
  183.2320  178.9700  144.1300 C   0  0  0  0  0  3  0  0  0  0  0  0
  183.3400  179.0030  145.4830 N   0  0  0  0  0  0  0  0  0  0  0  0
  184.4910  178.7200  146.0970 N   0  0  0  0  0  0  0  0  0  0  0  0
  184.3440  178.6320  143.3540 C   0  0  0  0  0  0  0  0  0  0  0  0
  185.6120  178.3850  145.4000 C   0  0  0  0  0  0  0  0  0  0  0  0
  185.5430  178.3340  144.0050 C   0  0  0  0  0  3  0  0  0  0  0  0
  187.1050  178.5960  147.4110 C   0  0  0  0  0  0  0  0  0  0  0  0
  189.2640  177.5040  147.4990 C   0  0  0  0  0  3  0  0  0  0  0  0
  188.2920  178.3090  148.0890 C   0  0  0  0  0  3  0  0  0  0  0  0
  187.8710  177.2610  145.5210 C   0  0  0  0  0  0  0  0  0  0  0  0
  186.1540  179.3870  148.0460 O   0  0  0  0  0  1  0  0  0  0  0  0
  186.8750  178.0740  146.1190 C   0  0  0  0  0  0  0  0  0  0  0  0
  189.0540  176.9840  146.2240 C   0  0  0  0  0  3  0  0  0  0  0  0
  187.6810  176.7520  144.2310 O   0  0  0  0  0  0  0  0  0  0  0  0
  188.7490  176.5090  143.3260 C   0  0  0  0  0  2  0  0  0  0  0  0
  189.0620  177.7750  142.5540 C   0  0  1  0  0  3  0  0  0  0  0  0
  190.3200  178.2530  142.9270 O   0  0  0  0  0  1  0  0  0  0  0  0
  189.0500  177.4710  141.0680 C   0  0  0  0  0  2  0  0  0  0  0  0
  190.4040  177.2230  140.6030 N   0  0  0  0  0  1  0  0  0  0  0  0
  183.2130  178.1820  141.3160 O   0  0  0  0  0  0  0  0  0  0  0  0
  184.2630  178.5930  141.8800 C   0  0  0  0  0  0  0  0  0  0  0  0
  185.4240  179.0030  141.0310 C   0  0  0  0  0  2  0  0  0  0  0  0
  185.1640  177.8440  138.8060 N   0  0  0  0  0  2  0  0  0  0  0  0
  185.0300  179.0250  139.5940 C   0  0  0  0  0  0  0  0  0  0  0  0
  184.5550  180.0810  139.0940 O   0  0  0  0  0  0  0  0  0  0  0  0
  184.7800  177.8040  137.4040 C   0  0  0  0  0  2  0  0  0  0  0  0
  185.9940  177.5030  136.5400 C   0  0  0  0  0  2  0  0  0  0  0  0
  188.3720  177.6120  136.7480 O   0  0  0  0  0  1  0  0  0  0  0  0
  187.2100  177.1950  137.3980 C   0  0  0  0  0  2  0  0  0  0  0  0
  1  2  1  0  0  0  0
  2  3  2  0  0  0  0
  4  6  1  0  0  0  0
  4  1  2  0  0  0  0
  5  3  1  0  0  0  0
  5 12  1  0  0  0  0
  6  5  2  0  0  0  0
  7 11  1  0  0  0  0
  7  9  1  0  0  0  0
  8  9  2  0  0  0  0
 10 12  1  0  0  0  0
 10 13  2  0  0  0  0
 12  7  2  0  0  0  0
 13  8  1  0  0  0  0
 14 10  1  0  0  0  0
 15 14  1  0  0  0  0
 16 17  1  1  0  0  0
 16 15  1  0  0  0  0
 18 16  1  0  0  0  0
 19 18  1  0  0  0  0
 20 21  2  0  0  0  0
 21  4  1  0  0  0  0
 22 21  1  0  0  0  0
 23 24  1  0  0  0  0
 24 22  1  0  0  0  0
 25 24  2  0  0  0  0
 26 23  1  0  0  0  0
 27 29  1  0  0  0  0
 27 26  1  0  0  0  0
 28 29  1  0  0  0  0
M  END
>  <MODEL>
8

>  <REMARK>
 VINA RESULT:      -7.0      2.350      7.108
  Name = 
  11 active torsions:
  status: ('A' for Active; 'I' for Inactive)
    1  A    between atoms: C_3  and  C_19
    2  A    between atoms: C_5  and  O_6
    3  A    between atoms: C_5  and  C_9
    4  A    between atoms: O_6  and  C_14
    5  A    between atoms: C_9  and  C_25
    6  A    between atoms: C_11  and  C_18
    7  A    between atoms: C_11  and  C_24
    8  A    between atoms: C_13  and  N_17
    9  A    between atoms: C_13  and  C_19
   10  A    between atoms: C_15  and  C_24
   11  A    between atoms: C_20  and  C_22
                            x       y       z     vdW  Elec       q    Type
                         _______ _______ _______ _____ _____    ______ ____

>  <TORSDO>
F 11

$$$$
=
 OpenBabel10222421083D

 29 30  0  0  1  0  0  0  0  0999 V2000
  189.9410  176.3800  141.6460 C   0  0  0  0  0  3  0  0  0  0  0  0
  190.3160  175.6760  142.7450 N   0  0  0  0  0  0  0  0  0  0  0  0
  189.9160  176.0290  143.9680 N   0  0  0  0  0  0  0  0  0  0  0  0
  189.1180  177.5000  141.7870 C   0  0  0  0  0  0  0  0  0  0  0  0
  189.1120  177.1090  144.1750 C   0  0  0  0  0  0  0  0  0  0  0  0
  188.7070  177.8640  143.0710 C   0  0  0  0  0  3  0  0  0  0  0  0
  189.6360  177.5160  146.6000 C   0  0  0  0  0  0  0  0  0  0  0  0
  187.9100  178.1550  148.1730 C   0  0  0  0  0  3  0  0  0  0  0  0
  189.2420  177.8560  147.8960 C   0  0  0  0  0  3  0  0  0  0  0  0
  187.3340  177.7740  145.8420 C   0  0  0  0  0  0  0  0  0  0  0  0
  190.9790  177.2440  146.3650 O   0  0  0  0  0  1  0  0  0  0  0  0
  188.6880  177.4730  145.5530 C   0  0  0  0  0  0  0  0  0  0  0  0
  186.9630  178.1150  147.1520 C   0  0  0  0  0  3  0  0  0  0  0  0
  186.3690  177.7120  144.8280 O   0  0  0  0  0  0  0  0  0  0  0  0
  185.4790  178.7810  144.5370 C   0  0  0  0  0  2  0  0  0  0  0  0
  184.2820  178.2530  143.7720 C   0  0  1  0  0  3  0  0  0  0  0  0
  183.1700  179.0580  144.0270 O   0  0  0  0  0  1  0  0  0  0  0  0
  184.5920  178.2640  142.2870 C   0  0  0  0  0  2  0  0  0  0  0  0
  183.3720  178.4750  141.5280 N   0  0  0  0  0  1  0  0  0  0  0  0
  187.6310  178.9710  140.6660 O   0  0  0  0  0  0  0  0  0  0  0  0
  188.6860  178.2830  140.6130 C   0  0  0  0  0  0  0  0  0  0  0  0
  189.4610  178.2520  139.3350 C   0  0  0  0  0  2  0  0  0  0  0  0
  187.8890  176.9650  137.8400 N   0  0  0  0  0  2  0  0  0  0  0  0
  188.5340  178.1940  138.1700 C   0  0  0  0  0  0  0  0  0  0  0  0
  188.3070  179.2390  137.5020 O   0  0  0  0  0  0  0  0  0  0  0  0
  186.9630  176.8550  136.7230 C   0  0  0  0  0  2  0  0  0  0  0  0
  185.6130  176.3590  137.2140 C   0  0  0  0  0  2  0  0  0  0  0  0
  184.9630  178.3370  138.3860 O   0  0  0  0  0  1  0  0  0  0  0  0
  184.6180  177.5030  137.3220 C   0  0  0  0  0  2  0  0  0  0  0  0
  1  4  2  0  0  0  0
  1  2  1  0  0  0  0
  2  3  2  0  0  0  0
  3  5  1  0  0  0  0
  4  6  1  0  0  0  0
  5 12  1  0  0  0  0
  6  5  2  0  0  0  0
  7  9  1  0  0  0  0
  9  8  2  0  0  0  0
 10 13  2  0  0  0  0
 11  7  1  0  0  0  0
 12 10  1  0  0  0  0
 12  7  2  0  0  0  0
 13  8  1  0  0  0  0
 14 10  1  0  0  0  0
 15 14  1  0  0  0  0
 16 17  1  6  0  0  0
 16 15  1  0  0  0  0
 18 16  1  0  0  0  0
 19 18  1  0  0  0  0
 21 20  2  0  0  0  0
 21  4  1  0  0  0  0
 22 21  1  0  0  0  0
 23 24  1  0  0  0  0
 24 22  1  0  0  0  0
 25 24  2  0  0  0  0
 26 27  1  0  0  0  0
 26 23  1  0  0  0  0
 27 29  1  0  0  0  0
 29 28  1  0  0  0  0
M  END
>  <MODEL>
9

>  <REMARK>
 VINA RESULT:      -7.0      2.247      6.112
  Name = 
  11 active torsions:
  status: ('A' for Active; 'I' for Inactive)
    1  A    between atoms: C_3  and  C_19
    2  A    between atoms: C_5  and  O_6
    3  A    between atoms: C_5  and  C_9
    4  A    between atoms: O_6  and  C_14
    5  A    between atoms: C_9  and  C_25
    6  A    between atoms: C_11  and  C_18
    7  A    between atoms: C_11  and  C_24
    8  A    between atoms: C_13  and  N_17
    9  A    between atoms: C_13  and  C_19
   10  A    between atoms: C_15  and  C_24
   11  A    between atoms: C_20  and  C_22
                            x       y       z     vdW  Elec       q    Type
                         _______ _______ _______ _____ _____    ______ ____

>  <TORSDO>
F 11

$$$$
