=
 OpenBabel10222416103D

 26 30  0  0  1  0  0  0  0  0999 V2000
  184.9070  178.7390  141.5180 C   0  0  0  0  0  0  0  0  0  0  0  0
  186.9200  177.5340  144.6560 C   0  0  0  0  0  0  0  0  0  0  0  0
  188.0050  178.5040  141.2120 C   0  0  1  0  0  3  0  0  0  0  0  0
  189.2490  176.8850  145.1030 C   0  0  0  0  0  3  0  0  0  0  0  0
  183.7010  179.2170  142.2550 C   0  0  0  0  0  2  0  0  0  0  0  0
  187.9370  177.8660  146.8600 C   0  0  0  0  0  3  0  0  0  0  0  0
  187.4960  178.2040  139.8270 C   0  0  0  0  0  0  0  0  0  0  0  0
  186.2230  178.4360  139.4110 C   0  0  0  0  0  3  0  0  0  0  0  0
  188.1740  176.9750  144.2150 C   0  0  0  0  0  0  0  0  0  0  0  0
  187.1990  178.8480  142.1510 N   0  0  0  0  0  2  0  0  0  0  0  0
  185.0340  178.8830  140.1960 C   0  0  0  0  0  3  0  0  0  0  0  0
  189.1350  177.3260  146.4130 C   0  0  0  0  0  0  0  0  0  0  0  0
  185.9910  178.0760  142.2540 C   0  0  1  0  0  3  0  0  0  0  0  0
  184.8020  180.2380  144.1530 O   0  0  0  0  0  1  0  0  0  0  0  0
  189.4630  177.6660  141.8350 S   0  0  0  0  0  0  0  0  0  0  0  0
  186.8300  177.9770  146.0090 C   0  0  0  0  0  0  0  0  0  0  0  0
  183.9540  179.1920  143.7690 C   0  0  2  0  0  3  0  0  0  0  0  0
  184.4360  177.9370  144.2260 O   0  0  0  0  0  0  0  0  0  0  0  0
  185.7200  177.6320  143.6910 C   0  0  2  0  0  3  0  0  0  0  0  0
  190.4990  177.2010  147.5020 Cl  0  0  0  0  0  0  0  0  0  0  0  0
  188.4480  176.4680  142.8160 C   0  0  0  0  0  2  0  0  0  0  0  0
  188.4770  178.5060  137.5790 C   0  0  0  0  0  2  0  0  0  0  0  0
  189.4710  178.6210  138.5630 O   0  0  0  0  0  0  0  0  0  0  0  0
  188.4600  177.6690  138.8050 C   0  0  1  0  0  3  0  0  0  0  0  0
  185.6230  179.5930  147.2890 O   0  0  0  0  0  0  0  0  0  0  0  0
  185.6010  178.5550  146.5740 C   0  0  0  0  0  3  0  0  0  0  0  0
  1  5  1  0  0  0  0
  2 16  1  0  0  0  0
  3  7  1  6  0  0  0
  3 15  1  0  0  0  0
  3 10  1  0  0  0  0
  4 12  2  0  0  0  0
  5 17  1  0  0  0  0
  8  7  2  0  0  0  0
  8 11  1  0  0  0  0
  9  2  2  0  0  0  0
  9  4  1  0  0  0  0
 10 13  1  0  0  0  0
 11  1  2  0  0  0  0
 12  6  1  0  0  0  0
 12 20  1  0  0  0  0
 13  1  1  1  0  0  0
 13 19  1  0  0  0  0
 15 21  1  0  0  0  0
 16 26  1  0  0  0  0
 16  6  2  0  0  0  0
 17 14  1  6  0  0  0
 17 18  1  0  0  0  0
 19 18  1  1  0  0  0
 19  2  1  0  0  0  0
 21  9  1  0  0  0  0
 22 23  1  0  0  0  0
 22 24  1  0  0  0  0
 23 24  1  0  0  0  0
 24  7  1  1  0  0  0
 26 25  2  0  0  0  0
M  END
>  <MODEL>
1

>  <REMARK>
 VINA RESULT:      -9.0      0.000      0.000
  Name = 
  2 active torsions:
  status: ('A' for Active; 'I' for Inactive)
    1  A    between atoms: C_9  and  C_17
    2  A    between atoms: C_19  and  C_23
                            x       y       z     vdW  Elec       q    Type
                         _______ _______ _______ _____ _____    ______ ____

>  <TORSDO>
F 2

$$$$
=
 OpenBabel10222416103D

 26 30  0  0  1  0  0  0  0  0999 V2000
  187.0780  178.2570  140.6460 C   0  0  0  0  0  0  0  0  0  0  0  0
  186.8970  177.7190  144.5220 C   0  0  0  0  0  0  0  0  0  0  0  0
  189.7890  178.0880  142.1830 C   0  0  1  0  0  3  0  0  0  0  0  0
  188.5220  177.2510  146.3060 C   0  0  0  0  0  3  0  0  0  0  0  0
  185.7040  178.8150  140.4810 C   0  0  0  0  0  2  0  0  0  0  0  0
  186.5260  178.4840  146.8200 C   0  0  0  0  0  3  0  0  0  0  0  0
  190.1230  177.5220  140.8280 C   0  0  0  0  0  0  0  0  0  0  0  0
  189.3220  177.6260  139.7350 C   0  0  0  0  0  3  0  0  0  0  0  0
  188.1380  177.1370  144.9680 C   0  0  0  0  0  0  0  0  0  0  0  0
  188.6230  178.5660  142.4290 N   0  0  0  0  0  2  0  0  0  0  0  0
  187.9330  178.1630  139.6240 C   0  0  0  0  0  3  0  0  0  0  0  0
  187.7250  177.9170  147.2260 C   0  0  0  0  0  0  0  0  0  0  0  0
  187.5130  177.7800  141.9650 C   0  0  1  0  0  3  0  0  0  0  0  0
  185.6230  180.2040  142.4600 O   0  0  0  0  0  1  0  0  0  0  0  0
  190.5840  177.4330  143.6520 S   0  0  0  0  0  0  0  0  0  0  0  0
  186.0960  178.3970  145.4890 C   0  0  0  0  0  0  0  0  0  0  0  0
  185.0640  179.0740  141.8510 C   0  0  2  0  0  3  0  0  0  0  0  0
  185.1160  177.9420  142.7070 O   0  0  0  0  0  0  0  0  0  0  0  0
  186.4530  177.5940  143.0500 C   0  0  2  0  0  3  0  0  0  0  0  0
  188.2330  178.0440  148.8960 Cl  0  0  0  0  0  0  0  0  0  0  0  0
  189.1110  176.3960  144.0780 C   0  0  0  0  0  2  0  0  0  0  0  0
  192.0210  177.1310  139.2950 C   0  0  0  0  0  2  0  0  0  0  0  0
  192.4540  177.8190  140.4390 O   0  0  0  0  0  0  0  0  0  0  0  0
  191.4530  176.8470  140.6370 C   0  0  1  0  0  3  0  0  0  0  0  0
  183.8530  179.0580  145.9790 O   0  0  0  0  0  0  0  0  0  0  0  0
  184.8070  179.0210  145.1550 C   0  0  0  0  0  3  0  0  0  0  0  0
  2  9  2  0  0  0  0
  2 16  1  0  0  0  0
  3  7  1  6  0  0  0
  3 10  1  0  0  0  0
  3 15  1  0  0  0  0
  4 12  2  0  0  0  0
  5  1  1  0  0  0  0
  5 17  1  0  0  0  0
  6 12  1  0  0  0  0
  8  7  2  0  0  0  0
  9  4  1  0  0  0  0
 11  8  1  0  0  0  0
 11  1  2  0  0  0  0
 12 20  1  0  0  0  0
 13  1  1  6  0  0  0
 13 10  1  0  0  0  0
 13 19  1  0  0  0  0
 15 21  1  0  0  0  0
 16  6  2  0  0  0  0
 17 14  1  1  0  0  0
 17 18  1  0  0  0  0
 19 18  1  6  0  0  0
 19  2  1  0  0  0  0
 21  9  1  0  0  0  0
 22 23  1  0  0  0  0
 22 24  1  0  0  0  0
 23 24  1  0  0  0  0
 24  7  1  6  0  0  0
 26 16  1  0  0  0  0
 26 25  2  0  0  0  0
M  END
>  <MODEL>
2

>  <REMARK>
 VINA RESULT:      -8.9      1.835      2.297
  Name = 
  2 active torsions:
  status: ('A' for Active; 'I' for Inactive)
    1  A    between atoms: C_9  and  C_17
    2  A    between atoms: C_19  and  C_23
                            x       y       z     vdW  Elec       q    Type
                         _______ _______ _______ _____ _____    ______ ____

>  <TORSDO>
F 2

$$$$
=
 OpenBabel10222416103D

 26 30  0  0  1  0  0  0  0  0999 V2000
  185.3080  178.5310  143.9670 C   0  0  0  0  0  0  0  0  0  0  0  0
  187.4220  178.3910  140.6720 C   0  0  0  0  0  0  0  0  0  0  0  0
  187.9120  176.8120  144.0240 C   0  0  1  0  0  3  0  0  0  0  0  0
  189.6240  177.5010  140.0370 C   0  0  0  0  0  3  0  0  0  0  0  0
  184.0160  178.9230  143.3310 C   0  0  0  0  0  2  0  0  0  0  0  0
  187.8730  177.6040  138.3960 C   0  0  0  0  0  3  0  0  0  0  0  0
  187.7870  177.2990  145.4430 C   0  0  0  0  0  0  0  0  0  0  0  0
  186.6710  177.8750  145.9610 C   0  0  0  0  0  3  0  0  0  0  0  0
  188.7820  178.0480  141.0080 C   0  0  0  0  0  0  0  0  0  0  0  0
  187.0040  177.0730  143.1550 N   0  0  0  0  0  2  0  0  0  0  0  0
  185.4080  178.2830  145.2750 C   0  0  0  0  0  3  0  0  0  0  0  0
  189.1770  177.2800  138.7420 C   0  0  0  0  0  0  0  0  0  0  0  0
  186.5190  178.4260  143.1430 C   0  0  1  0  0  3  0  0  0  0  0  0
  184.1310  177.5270  141.3580 O   0  0  0  0  0  1  0  0  0  0  0  0
  189.5320  176.6100  143.2820 S   0  0  0  0  0  0  0  0  0  0  0  0
  186.9890  178.1560  139.3330 C   0  0  0  0  0  0  0  0  0  0  0  0
  184.1300  178.8540  141.8020 C   0  0  2  0  0  3  0  0  0  0  0  0
  185.2480  179.5720  141.3000 O   0  0  0  0  0  0  0  0  0  0  0  0
  186.4820  179.0050  141.7290 C   0  0  2  0  0  3  0  0  0  0  0  0
  190.2560  176.5920  137.5480 Cl  0  0  0  0  0  0  0  0  0  0  0  0
  189.4010  178.2200  142.3780 C   0  0  0  0  0  2  0  0  0  0  0  0
  188.9070  178.0460  147.5150 C   0  0  0  0  0  2  0  0  0  0  0  0
  188.4590  176.7240  147.6550 O   0  0  0  0  0  0  0  0  0  0  0  0
  188.9430  177.0880  146.3820 C   0  0  1  0  0  3  0  0  0  0  0  0
  185.0620  177.8040  137.9660 O   0  0  0  0  0  0  0  0  0  0  0  0
  185.6300  178.4740  138.8710 C   0  0  0  0  0  3  0  0  0  0  0  0
  1 11  2  0  0  0  0
  2  9  1  0  0  0  0
  3 10  1  6  0  0  0
  3  7  1  0  0  0  0
  4  9  2  0  0  0  0
  5  1  1  0  0  0  0
  6 12  2  0  0  0  0
  6 16  1  0  0  0  0
  7  8  2  0  0  0  0
  9 21  1  0  0  0  0
 11  8  1  0  0  0  0
 12  4  1  0  0  0  0
 13 10  1  6  0  0  0
 13  1  1  0  0  0  0
 15  3  1  0  0  0  0
 16  2  2  0  0  0  0
 17 14  1  1  0  0  0
 17  5  1  0  0  0  0
 18 19  1  0  0  0  0
 18 17  1  0  0  0  0
 19  2  1  6  0  0  0
 19 13  1  0  0  0  0
 20 12  1  0  0  0  0
 21 15  1  0  0  0  0
 22 23  1  0  0  0  0
 24  7  1  6  0  0  0
 24 22  1  0  0  0  0
 24 23  1  0  0  0  0
 25 26  2  0  0  0  0
 26 16  1  0  0  0  0
M  END
>  <MODEL>
3

>  <REMARK>
 VINA RESULT:      -8.8      2.635      5.866
  Name = 
  2 active torsions:
  status: ('A' for Active; 'I' for Inactive)
    1  A    between atoms: C_9  and  C_17
    2  A    between atoms: C_19  and  C_23
                            x       y       z     vdW  Elec       q    Type
                         _______ _______ _______ _____ _____    ______ ____

>  <TORSDO>
F 2

$$$$
=
 OpenBabel10222416103D

 26 30  0  0  1  0  0  0  0  0999 V2000
  190.6190  176.9750  142.9300 C   0  0  0  0  0  0  0  0  0  0  0  0
  186.7690  177.6580  143.1760 C   0  0  0  0  0  0  0  0  0  0  0  0
  189.5110  177.8660  145.7090 C   0  0  1  0  0  3  0  0  0  0  0  0
  185.1830  178.1230  144.9960 C   0  0  0  0  0  3  0  0  0  0  0  0
  190.7360  177.1540  141.4530 C   0  0  0  0  0  2  0  0  0  0  0  0
  184.7610  179.0120  142.8040 C   0  0  0  0  0  3  0  0  0  0  0  0
  190.6790  176.9860  146.0670 C   0  0  0  0  0  0  0  0  0  0  0  0
  191.6260  176.5710  145.1850 C   0  0  0  0  0  3  0  0  0  0  0  0
  186.3610  177.5180  144.5520 C   0  0  0  0  0  0  0  0  0  0  0  0
  189.2460  178.1430  144.4830 N   0  0  0  0  0  2  0  0  0  0  0  0
  191.6840  176.7440  143.7030 C   0  0  0  0  0  3  0  0  0  0  0  0
  184.3890  178.8640  144.1330 C   0  0  0  0  0  0  0  0  0  0  0  0
  189.2970  177.0380  143.5660 C   0  0  1  0  0  3  0  0  0  0  0  0
  189.2520  179.0460  141.1860 O   0  0  0  0  0  1  0  0  0  0  0  0
  188.0490  177.8870  146.7470 S   0  0  0  0  0  0  0  0  0  0  0  0
  185.9330  178.4230  142.3100 C   0  0  0  0  0  0  0  0  0  0  0  0
  189.4210  177.6920  140.8740 C   0  0  2  0  0  3  0  0  0  0  0  0
  188.2920  176.9230  141.2630 O   0  0  0  0  0  0  0  0  0  0  0  0
  188.0620  176.9870  142.6670 C   0  0  2  0  0  3  0  0  0  0  0  0
  182.9190  179.6130  144.7190 Cl  0  0  0  0  0  0  0  0  0  0  0  0
  187.1310  176.7530  145.6060 C   0  0  0  0  0  2  0  0  0  0  0  0
  192.0850  175.7610  147.6880 C   0  0  0  0  0  2  0  0  0  0  0  0
  192.0550  177.1270  148.0060 O   0  0  0  0  0  0  0  0  0  0  0  0
  190.8590  176.5770  147.5030 C   0  0  1  0  0  3  0  0  0  0  0  0
  185.5270  179.3620  140.1510 O   0  0  0  0  0  0  0  0  0  0  0  0
  186.2410  178.6280  140.8870 C   0  0  0  0  0  3  0  0  0  0  0  0
  1 11  2  0  0  0  0
  2  9  1  0  0  0  0
  3 10  1  6  0  0  0
  3  7  1  0  0  0  0
  3 15  1  0  0  0  0
  5  1  1  0  0  0  0
  6 12  2  0  0  0  0
  8  7  2  0  0  0  0
  9  4  2  0  0  0  0
  9 21  1  0  0  0  0
 11  8  1  0  0  0  0
 12 20  1  0  0  0  0
 12  4  1  0  0  0  0
 13  1  1  6  0  0  0
 13 10  1  0  0  0  0
 16  6  1  0  0  0  0
 16  2  2  0  0  0  0
 17 14  1  1  0  0  0
 17 18  1  0  0  0  0
 17  5  1  0  0  0  0
 19 18  1  6  0  0  0
 19  2  1  0  0  0  0
 19 13  1  0  0  0  0
 21 15  1  0  0  0  0
 22 23  1  0  0  0  0
 24  7  1  6  0  0  0
 24 22  1  0  0  0  0
 24 23  1  0  0  0  0
 25 26  2  0  0  0  0
 26 16  1  0  0  0  0
M  END
>  <MODEL>
4

>  <REMARK>
 VINA RESULT:      -8.7      3.119      6.230
  Name = 
  2 active torsions:
  status: ('A' for Active; 'I' for Inactive)
    1  A    between atoms: C_9  and  C_17
    2  A    between atoms: C_19  and  C_23
                            x       y       z     vdW  Elec       q    Type
                         _______ _______ _______ _____ _____    ______ ____

>  <TORSDO>
F 2

$$$$
=
 OpenBabel10222416103D

 26 30  0  0  1  0  0  0  0  0999 V2000
  183.9530  178.6370  144.3000 C   0  0  0  0  0  0  0  0  0  0  0  0
  187.7020  177.5810  144.7240 C   0  0  0  0  0  0  0  0  0  0  0  0
  185.8610  179.1750  141.8880 C   0  0  1  0  0  3  0  0  0  0  0  0
  189.6650  177.4510  143.2510 C   0  0  0  0  0  3  0  0  0  0  0  0
  183.6300  178.7280  145.7530 C   0  0  0  0  0  2  0  0  0  0  0  0
  189.9720  177.8830  145.5930 C   0  0  0  0  0  3  0  0  0  0  0  0
  184.5300  178.9280  141.2290 C   0  0  0  0  0  0  0  0  0  0  0  0
  183.3410  178.9000  141.8870 C   0  0  0  0  0  3  0  0  0  0  0  0
  188.2800  177.3880  143.4170 C   0  0  0  0  0  0  0  0  0  0  0  0
  185.9670  179.2070  143.1670 N   0  0  0  0  0  2  0  0  0  0  0  0
  183.0670  178.9600  143.3540 C   0  0  0  0  0  3  0  0  0  0  0  0
  190.5060  177.6950  144.3260 C   0  0  0  0  0  0  0  0  0  0  0  0
  185.2790  178.1660  143.8800 C   0  0  1  0  0  3  0  0  0  0  0  0
  185.6800  179.7490  146.5300 O   0  0  0  0  0  1  0  0  0  0  0  0
  187.3740  178.6370  141.0890 S   0  0  0  0  0  0  0  0  0  0  0  0
  188.5900  177.8290  145.8130 C   0  0  0  0  0  0  0  0  0  0  0  0
  184.9050  178.5860  146.5950 C   0  0  2  0  0  3  0  0  0  0  0  0
  185.6640  177.4350  146.2550 O   0  0  0  0  0  0  0  0  0  0  0  0
  186.1740  177.5050  144.9280 C   0  0  2  0  0  3  0  0  0  0  0  0
  192.2380  177.7690  144.0860 Cl  0  0  0  0  0  0  0  0  0  0  0  0
  187.4880  177.1280  142.1540 C   0  0  0  0  0  2  0  0  0  0  0  0
  183.2910  179.4130  139.1470 C   0  0  0  0  0  2  0  0  0  0  0  0
  184.5560  180.0200  139.1130 O   0  0  0  0  0  0  0  0  0  0  0  0
  184.4860  178.7580  139.7360 C   0  0  1  0  0  3  0  0  0  0  0  0
  188.9180  178.2380  148.1440 O   0  0  0  0  0  0  0  0  0  0  0  0
  188.1180  178.0310  147.1910 C   0  0  0  0  0  3  0  0  0  0  0  0
  1  5  1  0  0  0  0
  2 16  1  0  0  0  0
  3 15  1  1  0  0  0
  3 10  1  0  0  0  0
  4  9  1  0  0  0  0
  4 12  2  0  0  0  0
  5 17  1  0  0  0  0
  6 16  2  0  0  0  0
  7  8  2  0  0  0  0
  7  3  1  0  0  0  0
  8 11  1  0  0  0  0
  9  2  2  0  0  0  0
 11  1  2  0  0  0  0
 12  6  1  0  0  0  0
 13 10  1  1  0  0  0
 13  1  1  0  0  0  0
 13 19  1  0  0  0  0
 15 21  1  0  0  0  0
 16 26  1  0  0  0  0
 17 14  1  6  0  0  0
 18 17  1  0  0  0  0
 19  2  1  1  0  0  0
 19 18  1  0  0  0  0
 20 12  1  0  0  0  0
 21  9  1  0  0  0  0
 22 24  1  0  0  0  0
 23 22  1  0  0  0  0
 23 24  1  0  0  0  0
 24  7  1  1  0  0  0
 26 25  2  0  0  0  0
M  END
>  <MODEL>
5

>  <REMARK>
 VINA RESULT:      -8.6      2.153      3.000
  Name = 
  2 active torsions:
  status: ('A' for Active; 'I' for Inactive)
    1  A    between atoms: C_9  and  C_17
    2  A    between atoms: C_19  and  C_23
                            x       y       z     vdW  Elec       q    Type
                         _______ _______ _______ _____ _____    ______ ____

>  <TORSDO>
F 2

$$$$
=
 OpenBabel10222416103D

 26 30  0  0  1  0  0  0  0  0999 V2000
  187.4400  178.0080  146.4180 C   0  0  0  0  0  0  0  0  0  0  0  0
  185.2590  178.8740  143.2800 C   0  0  0  0  0  0  0  0  0  0  0  0
  188.3350  176.7890  143.6870 C   0  0  1  0  0  3  0  0  0  0  0  0
  185.4550  178.5200  140.8560 C   0  0  0  0  0  3  0  0  0  0  0  0
  186.3920  178.2840  147.4430 C   0  0  0  0  0  2  0  0  0  0  0  0
  183.2770  178.6300  141.8620 C   0  0  0  0  0  3  0  0  0  0  0  0
  189.6330  176.9650  144.4290 C   0  0  0  0  0  0  0  0  0  0  0  0
  189.7260  177.2280  145.7600 C   0  0  0  0  0  3  0  0  0  0  0  0
  186.0660  178.7140  142.0960 C   0  0  0  0  0  0  0  0  0  0  0  0
  187.2120  177.0510  144.2510 N   0  0  0  0  0  2  0  0  0  0  0  0
  188.6450  177.5340  146.7450 C   0  0  0  0  0  3  0  0  0  0  0  0
  184.0740  178.4770  140.7360 C   0  0  0  0  0  0  0  0  0  0  0  0
  187.1580  178.2750  145.0010 C   0  0  1  0  0  3  0  0  0  0  0  0
  184.4860  177.3350  146.2940 O   0  0  0  0  0  1  0  0  0  0  0  0
  188.2790  177.0190  141.9090 S   0  0  0  0  0  0  0  0  0  0  0  0
  183.8410  178.8290  143.1290 C   0  0  0  0  0  0  0  0  0  0  0  0
  185.0360  178.5310  146.7680 C   0  0  2  0  0  3  0  0  0  0  0  0
  185.1010  179.5160  145.7460 O   0  0  0  0  0  0  0  0  0  0  0  0
  185.9180  179.1000  144.6570 C   0  0  2  0  0  3  0  0  0  0  0  0
  183.3370  178.2310  139.1680 Cl  0  0  0  0  0  0  0  0  0  0  0  0
  187.5800  178.7250  142.0770 C   0  0  0  0  0  2  0  0  0  0  0  0
  191.4780  178.0810  143.2210 C   0  0  0  0  0  2  0  0  0  0  0  0
  191.9670  177.4340  144.3670 O   0  0  0  0  0  0  0  0  0  0  0  0
  190.9230  176.7820  143.6800 C   0  0  1  0  0  3  0  0  0  0  0  0
  181.7080  178.6370  144.1870 O   0  0  0  0  0  0  0  0  0  0  0  0
  182.9170  178.9890  144.2610 C   0  0  0  0  0  3  0  0  0  0  0  0
  1 11  2  0  0  0  0
  1  5  1  0  0  0  0
  3 15  1  6  0  0  0
  3 10  1  0  0  0  0
  3  7  1  0  0  0  0
  4  9  1  0  0  0  0
  6 16  2  0  0  0  0
  7  8  2  0  0  0  0
  8 11  1  0  0  0  0
  9  2  2  0  0  0  0
 12  4  2  0  0  0  0
 12  6  1  0  0  0  0
 13 10  1  6  0  0  0
 13  1  1  0  0  0  0
 15 21  1  0  0  0  0
 16  2  1  0  0  0  0
 16 26  1  0  0  0  0
 17 14  1  6  0  0  0
 17  5  1  0  0  0  0
 18 17  1  0  0  0  0
 19  2  1  6  0  0  0
 19 13  1  0  0  0  0
 19 18  1  0  0  0  0
 20 12  1  0  0  0  0
 21  9  1  0  0  0  0
 22 24  1  0  0  0  0
 22 23  1  0  0  0  0
 24 23  1  0  0  0  0
 24  7  1  1  0  0  0
 25 26  2  0  0  0  0
M  END
>  <MODEL>
6

>  <REMARK>
 VINA RESULT:      -8.0      3.000      5.271
  Name = 
  2 active torsions:
  status: ('A' for Active; 'I' for Inactive)
    1  A    between atoms: C_9  and  C_17
    2  A    between atoms: C_19  and  C_23
                            x       y       z     vdW  Elec       q    Type
                         _______ _______ _______ _____ _____    ______ ____

>  <TORSDO>
F 2

$$$$
=
 OpenBabel10222416103D

 26 30  0  0  1  0  0  0  0  0999 V2000
  191.0010  176.6340  144.6000 C   0  0  0  0  0  0  0  0  0  0  0  0
  188.0240  177.3310  142.1510 C   0  0  0  0  0  0  0  0  0  0  0  0
  188.5180  178.1190  145.7710 C   0  0  1  0  0  3  0  0  0  0  0  0
  185.7290  178.1830  142.3770 C   0  0  0  0  0  3  0  0  0  0  0  0
  192.0550  176.4780  143.5550 C   0  0  0  0  0  2  0  0  0  0  0  0
  186.9310  178.5540  140.3310 C   0  0  0  0  0  3  0  0  0  0  0  0
  189.0490  177.3490  146.9510 C   0  0  0  0  0  0  0  0  0  0  0  0
  190.2700  176.7530  146.9910 C   0  0  0  0  0  3  0  0  0  0  0  0
  186.8180  177.5000  142.9230 C   0  0  0  0  0  0  0  0  0  0  0  0
  189.1370  178.1130  144.6460 N   0  0  0  0  0  2  0  0  0  0  0  0
  191.2830  176.5900  145.9040 C   0  0  0  0  0  3  0  0  0  0  0  0
  185.7810  178.7060  141.0930 C   0  0  0  0  0  0  0  0  0  0  0  0
  189.6030  176.8300  144.1950 C   0  0  1  0  0  3  0  0  0  0  0  0
  191.3690  178.2530  142.0610 O   0  0  0  0  0  1  0  0  0  0  0  0
  186.7510  178.3630  145.5790 S   0  0  0  0  0  0  0  0  0  0  0  0
  188.0500  177.8770  140.8330 C   0  0  0  0  0  0  0  0  0  0  0  0
  191.5040  176.8640  142.1760 C   0  0  2  0  0  3  0  0  0  0  0  0
  190.2920  176.1960  141.8610 O   0  0  0  0  0  0  0  0  0  0  0  0
  189.2320  176.5710  142.7350 C   0  0  2  0  0  3  0  0  0  0  0  0
  184.4010  179.5580  140.4370 Cl  0  0  0  0  0  0  0  0  0  0  0  0
  186.6220  176.9970  144.3370 C   0  0  0  0  0  2  0  0  0  0  0  0
  188.6660  178.2520  149.2190 C   0  0  0  0  0  2  0  0  0  0  0  0
  187.5530  178.5010  148.4010 O   0  0  0  0  0  0  0  0  0  0  0  0
  188.2140  177.2730  148.1990 C   0  0  1  0  0  3  0  0  0  0  0  0
  189.4280  178.5780  139.0120 O   0  0  0  0  0  0  0  0  0  0  0  0
  189.2190  177.7600  139.9490 C   0  0  0  0  0  3  0  0  0  0  0  0
  1 11  2  0  0  0  0
  2 19  1  0  0  0  0
  2  9  1  0  0  0  0
  3 10  1  6  0  0  0
  3  7  1  0  0  0  0
  4  9  2  0  0  0  0
  5  1  1  0  0  0  0
  6 16  1  0  0  0  0
  6 12  2  0  0  0  0
  7  8  2  0  0  0  0
  9 21  1  0  0  0  0
 11  8  1  0  0  0  0
 12  4  1  0  0  0  0
 13  1  1  6  0  0  0
 13 10  1  0  0  0  0
 15  3  1  0  0  0  0
 16  2  2  0  0  0  0
 17 14  1  1  0  0  0
 17  5  1  0  0  0  0
 18 17  1  0  0  0  0
 19 18  1  6  0  0  0
 19 13  1  0  0  0  0
 20 12  1  0  0  0  0
 21 15  1  0  0  0  0
 23 22  1  0  0  0  0
 24  7  1  6  0  0  0
 24 23  1  0  0  0  0
 24 22  1  0  0  0  0
 25 26  2  0  0  0  0
 26 16  1  0  0  0  0
M  END
>  <MODEL>
7

>  <REMARK>
 VINA RESULT:      -7.9      2.983      7.056
  Name = 
  2 active torsions:
  status: ('A' for Active; 'I' for Inactive)
    1  A    between atoms: C_9  and  C_17
    2  A    between atoms: C_19  and  C_23
                            x       y       z     vdW  Elec       q    Type
                         _______ _______ _______ _____ _____    ______ ____

>  <TORSDO>
F 2

$$$$
=
 OpenBabel10222416103D

 26 30  0  0  1  0  0  0  0  0999 V2000
  184.1490  178.5920  145.0850 C   0  0  0  0  0  0  0  0  0  0  0  0
  187.8840  177.5260  144.5680 C   0  0  0  0  0  0  0  0  0  0  0  0
  185.4350  179.2240  142.3120 C   0  0  1  0  0  3  0  0  0  0  0  0
  189.4410  177.4550  142.6670 C   0  0  0  0  0  3  0  0  0  0  0  0
  184.1810  178.6260  146.5760 C   0  0  0  0  0  2  0  0  0  0  0  0
  190.2980  177.7970  144.8850 C   0  0  0  0  0  3  0  0  0  0  0  0
  183.9840  179.0010  141.9780 C   0  0  0  0  0  0  0  0  0  0  0  0
  182.9850  178.9470  142.8980 C   0  0  0  0  0  3  0  0  0  0  0  0
  188.1340  177.3840  143.1550 C   0  0  0  0  0  0  0  0  0  0  0  0
  185.8420  179.2080  143.5290 N   0  0  0  0  0  2  0  0  0  0  0  0
  183.0670  178.9490  144.3890 C   0  0  0  0  0  3  0  0  0  0  0  0
  190.5150  177.6590  143.5210 C   0  0  0  0  0  0  0  0  0  0  0  0
  185.3350  178.1390  144.3450 C   0  0  1  0  0  3  0  0  0  0  0  0
  186.3650  179.6200  146.8820 O   0  0  0  0  0  1  0  0  0  0  0  0
  186.7110  178.7200  141.1570 S   0  0  0  0  0  0  0  0  0  0  0  0
  189.0060  177.7320  145.4240 C   0  0  0  0  0  0  0  0  0  0  0  0
  185.6180  178.4540  147.0850 C   0  0  2  0  0  3  0  0  0  0  0  0
  186.2660  177.3180  146.5320 O   0  0  0  0  0  0  0  0  0  0  0  0
  186.4470  177.4400  145.1250 C   0  0  2  0  0  3  0  0  0  0  0  0
  192.1410  177.7440  142.8800 Cl  0  0  0  0  0  0  0  0  0  0  0  0
  187.0640  177.1710  142.1070 C   0  0  0  0  0  2  0  0  0  0  0  0
  183.2130  177.4970  140.1750 C   0  0  0  0  0  2  0  0  0  0  0  0
  182.2420  178.4740  140.4420 O   0  0  0  0  0  0  0  0  0  0  0  0
  183.5860  178.8890  140.5320 C   0  0  1  0  0  3  0  0  0  0  0  0
  189.5090  177.1420  147.6830 O   0  0  0  0  0  0  0  0  0  0  0  0
  188.8760  177.8810  146.8810 C   0  0  0  0  0  3  0  0  0  0  0  0
  1  5  1  0  0  0  0
  2 16  1  0  0  0  0
  3 15  1  6  0  0  0
  3 10  1  0  0  0  0
  4  9  1  0  0  0  0
  4 12  2  0  0  0  0
  5 17  1  0  0  0  0
  6 16  2  0  0  0  0
  7  3  1  0  0  0  0
  7  8  2  0  0  0  0
  8 11  1  0  0  0  0
  9  2  2  0  0  0  0
 11  1  2  0  0  0  0
 12  6  1  0  0  0  0
 13 10  1  1  0  0  0
 13  1  1  0  0  0  0
 13 19  1  0  0  0  0
 15 21  1  0  0  0  0
 16 26  1  0  0  0  0
 17 14  1  6  0  0  0
 18 17  1  0  0  0  0
 19  2  1  1  0  0  0
 19 18  1  0  0  0  0
 20 12  1  0  0  0  0
 21  9  1  0  0  0  0
 22 23  1  0  0  0  0
 22 24  1  0  0  0  0
 23 24  1  0  0  0  0
 24  7  1  1  0  0  0
 26 25  2  0  0  0  0
M  END
>  <MODEL>
8

>  <REMARK>
 VINA RESULT:      -7.8      2.646      3.771
  Name = 
  2 active torsions:
  status: ('A' for Active; 'I' for Inactive)
    1  A    between atoms: C_9  and  C_17
    2  A    between atoms: C_19  and  C_23
                            x       y       z     vdW  Elec       q    Type
                         _______ _______ _______ _____ _____    ______ ____

>  <TORSDO>
F 2

$$$$
=
 OpenBabel10222416103D

 26 30  0  0  1  0  0  0  0  0999 V2000
  186.7140  177.8880  147.2350 C   0  0  0  0  0  0  0  0  0  0  0  0
  189.5250  176.8960  144.6940 C   0  0  0  0  0  0  0  0  0  0  0  0
  186.2950  178.7260  144.2580 C   0  0  1  0  0  3  0  0  0  0  0  0
  189.7890  176.9730  142.2510 C   0  0  0  0  0  3  0  0  0  0  0  0
  187.5550  177.8180  148.4660 C   0  0  0  0  0  2  0  0  0  0  0  0
  191.7280  177.1670  143.6550 C   0  0  0  0  0  3  0  0  0  0  0  0
  184.8910  178.5130  144.7580 C   0  0  0  0  0  0  0  0  0  0  0  0
  184.5560  178.3850  146.0690 C   0  0  0  0  0  3  0  0  0  0  0  0
  188.9590  176.8560  143.3680 C   0  0  0  0  0  0  0  0  0  0  0  0
  187.3000  178.6280  145.0510 N   0  0  0  0  0  2  0  0  0  0  0  0
  185.4390  178.2840  147.2700 C   0  0  0  0  0  3  0  0  0  0  0  0
  191.1610  177.1270  142.3900 C   0  0  0  0  0  0  0  0  0  0  0  0
  187.2880  177.4990  145.9410 C   0  0  1  0  0  3  0  0  0  0  0  0
  189.5820  178.8080  147.5900 O   0  0  0  0  0  1  0  0  0  0  0  0
  186.7180  178.3160  142.5640 S   0  0  0  0  0  0  0  0  0  0  0  0
  190.9390  177.0530  144.8080 C   0  0  0  0  0  0  0  0  0  0  0  0
  189.0320  177.6240  148.0940 C   0  0  2  0  0  3  0  0  0  0  0  0
  189.2370  176.5350  147.2050 O   0  0  0  0  0  0  0  0  0  0  0  0
  188.6240  176.7580  145.9390 C   0  0  2  0  0  3  0  0  0  0  0  0
  192.1740  177.2730  140.9710 Cl  0  0  0  0  0  0  0  0  0  0  0  0
  187.4840  176.7070  143.0650 C   0  0  0  0  0  2  0  0  0  0  0  0
  182.5030  179.0030  144.3580 C   0  0  0  0  0  2  0  0  0  0  0  0
  183.3080  179.8140  143.5450 O   0  0  0  0  0  0  0  0  0  0  0  0
  183.7650  178.4990  143.7630 C   0  0  1  0  0  3  0  0  0  0  0  0
  192.1970  176.0810  146.5910 O   0  0  0  0  0  0  0  0  0  0  0  0
  191.6300  177.0970  146.1050 C   0  0  0  0  0  3  0  0  0  0  0  0
  1 11  2  0  0  0  0
  1  5  1  0  0  0  0
  2 16  1  0  0  0  0
  3 15  1  6  0  0  0
  3  7  1  0  0  0  0
  3 10  1  0  0  0  0
  4 12  2  0  0  0  0
  4  9  1  0  0  0  0
  6 16  2  0  0  0  0
  7  8  2  0  0  0  0
  8 11  1  0  0  0  0
  9  2  2  0  0  0  0
 12  6  1  0  0  0  0
 13 10  1  6  0  0  0
 13  1  1  0  0  0  0
 15 21  1  0  0  0  0
 16 26  1  0  0  0  0
 17 14  1  6  0  0  0
 17  5  1  0  0  0  0
 18 17  1  0  0  0  0
 19  2  1  6  0  0  0
 19 13  1  0  0  0  0
 19 18  1  0  0  0  0
 20 12  1  0  0  0  0
 21  9  1  0  0  0  0
 23 24  1  0  0  0  0
 23 22  1  0  0  0  0
 24 22  1  0  0  0  0
 24  7  1  1  0  0  0
 26 25  2  0  0  0  0
M  END
>  <MODEL>
9

>  <REMARK>
 VINA RESULT:      -7.6      3.200      5.595
  Name = 
  2 active torsions:
  status: ('A' for Active; 'I' for Inactive)
    1  A    between atoms: C_9  and  C_17
    2  A    between atoms: C_19  and  C_23
                            x       y       z     vdW  Elec       q    Type
                         _______ _______ _______ _____ _____    ______ ____

>  <TORSDO>
F 2

$$$$
