=
 OpenBabel10222421093D

 29 34  0  0  1  0  0  0  0  0999 V2000
  186.2060  178.6410  139.0150 N   0  0  0  0  0  0  0  0  0  0  0  0
  188.5480  178.1300  139.4000 C   0  0  0  0  0  0  0  0  0  0  0  0
  185.4510  178.0140  143.1760 C   0  0  0  0  0  3  0  0  0  0  0  0
  184.8760  176.0570  137.6850 C   0  0  0  0  0  0  0  0  0  0  0  0
  184.5910  178.7510  141.0000 C   0  0  0  0  0  0  0  0  0  0  0  0
  185.8800  178.4540  140.4240 C   0  0  0  0  0  0  0  0  0  0  0  0
  186.1990  175.9230  136.9960 C   0  0  0  0  0  1  0  0  0  0  0  0
  183.4890  179.4990  140.2340 C   0  0  2  0  0  3  0  0  0  0  0  0
  190.8740  177.5190  139.6860 C   0  0  0  0  0  3  0  0  0  0  0  0
  182.4220  176.2750  138.9780 C   0  0  0  0  0  3  0  0  0  0  0  0
  189.8420  178.0110  138.8840 C   0  0  0  0  0  3  0  0  0  0  0  0
  182.1210  178.8690  140.5180 C   0  0  0  0  0  2  0  0  0  0  0  0
  185.2250  178.5630  137.9460 C   0  0  0  0  0  2  0  0  0  0  0  0
  187.5200  178.5930  138.5850 O   0  0  0  0  0  0  0  0  0  0  0  0
  184.4080  177.3180  138.0960 C   0  0  0  0  0  0  0  0  0  0  0  0
  188.2790  177.7660  140.7230 C   0  0  0  0  0  0  0  0  0  0  0  0
  189.3220  177.2730  141.5260 C   0  0  0  0  0  3  0  0  0  0  0  0
  183.1900  177.4230  138.7720 C   0  0  0  0  0  0  0  0  0  0  0  0
  182.8820  175.0640  138.5670 N   0  0  0  0  0  0  0  0  0  0  0  0
  190.6140  177.1470  141.0070 C   0  0  0  0  0  3  0  0  0  0  0  0
  184.5170  173.5600  137.5220 C   0  0  0  0  0  1  0  0  0  0  0  0
  186.9150  177.9620  141.2600 C   0  0  0  0  0  0  0  0  0  0  0  0
  184.4270  178.5540  142.4050 C   0  0  0  0  0  0  0  0  0  0  0  0
  186.6770  177.7200  142.6110 C   0  0  0  0  0  3  0  0  0  0  0  0
  182.6750  178.7860  139.1270 C   0  0  2  0  0  3  0  0  0  0  0  0
  184.0790  174.9240  137.9360 C   0  0  0  0  0  0  0  0  0  0  0  0
  183.2130  178.9990  143.1630 C   0  0  0  0  0  2  0  0  0  0  0  0
  183.4870  179.0100  144.6040 C   0  0  0  0  0  0  0  0  0  0  0  0
  183.7030  179.0190  145.7410 N   0  0  0  0  0  0  0  0  0  0  0  0
  1  6  1  0  0  0  0
  2 16  1  0  0  0  0
  4 26  2  0  0  0  0
  4 15  1  0  0  0  0
  5 23  1  0  0  0  0
  6  5  2  0  0  0  0
  6 22  1  0  0  0  0
  7  4  1  0  0  0  0
  8 12  1  1  0  0  0
  8  5  1  0  0  0  0
  9 20  2  0  0  0  0
 11  2  2  0  0  0  0
 11  9  1  0  0  0  0
 13 15  1  0  0  0  0
 13  1  1  0  0  0  0
 14  1  1  0  0  0  0
 14  2  1  0  0  0  0
 15 18  2  0  0  0  0
 16 22  1  0  0  0  0
 16 17  2  0  0  0  0
 18 10  1  0  0  0  0
 18 25  1  0  0  0  0
 19 10  2  0  0  0  0
 20 17  1  0  0  0  0
 21 26  1  0  0  0  0
 22 24  2  0  0  0  0
 23 27  1  0  0  0  0
 23  3  2  0  0  0  0
 24  3  1  0  0  0  0
 25  8  1  0  0  0  0
 25 12  1  1  0  0  0
 26 19  1  0  0  0  0
 27 28  1  0  0  0  0
 28 29  3  0  0  0  0
M  END
>  <MODEL>
1

>  <REMARK>
 VINA RESULT:      -7.2      0.000      0.000
  Name = 
  2 active torsions:
  status: ('A' for Active; 'I' for Inactive)
    1  A    between atoms: C_6  and  C_11
    2  A    between atoms: C_11  and  C_26
                            x       y       z     vdW  Elec       q    Type
                         _______ _______ _______ _____ _____    ______ ____

>  <TORSDO>
F 2

$$$$
=
 OpenBabel10222421093D

 29 34  0  0  1  0  0  0  0  0999 V2000
  187.9740  177.8800  138.0280 N   0  0  0  0  0  0  0  0  0  0  0  0
  185.6220  177.6040  137.4920 C   0  0  0  0  0  0  0  0  0  0  0  0
  188.6320  173.7940  136.9600 C   0  0  0  0  0  3  0  0  0  0  0  0
  188.2370  177.8020  141.2130 C   0  0  0  0  0  0  0  0  0  0  0  0
  189.6040  175.9520  137.6020 C   0  0  0  0  0  0  0  0  0  0  0  0
  188.2710  176.4990  137.6700 C   0  0  0  0  0  0  0  0  0  0  0  0
  186.9260  178.5230  141.1830 C   0  0  0  0  0  1  0  0  0  0  0  0
  190.8670  176.8230  137.6920 C   0  0  2  0  0  3  0  0  0  0  0  0
  183.2450  177.3710  137.0890 C   0  0  0  0  0  3  0  0  0  0  0  0
  190.6610  176.4370  141.2860 C   0  0  0  0  0  3  0  0  0  0  0  0
  184.3490  178.1730  137.3840 C   0  0  0  0  0  3  0  0  0  0  0  0
  191.9310  176.1320  138.5500 C   0  0  0  0  0  2  0  0  0  0  0  0
  188.8150  178.6840  138.8980 C   0  0  0  0  0  2  0  0  0  0  0  0
  186.7110  178.4050  137.8160 O   0  0  0  0  0  0  0  0  0  0  0  0
  189.1410  177.9160  140.1410 C   0  0  0  0  0  0  0  0  0  0  0  0
  185.8000  176.2290  137.2990 C   0  0  0  0  0  0  0  0  0  0  0  0
  184.6840  175.4280  137.0010 C   0  0  0  0  0  3  0  0  0  0  0  0
  190.3440  177.2080  140.1650 C   0  0  0  0  0  0  0  0  0  0  0  0
  189.7830  176.3430  142.3190 N   0  0  0  0  0  0  0  0  0  0  0  0
  183.4120  175.9960  136.9000 C   0  0  0  0  0  3  0  0  0  0  0  0
  187.6770  176.8350  143.4800 C   0  0  0  0  0  1  0  0  0  0  0  0
  187.1660  175.6660  137.3580 C   0  0  0  0  0  0  0  0  0  0  0  0
  189.7470  174.5900  137.1980 C   0  0  0  0  0  0  0  0  0  0  0  0
  187.3590  174.3240  137.0410 C   0  0  0  0  0  3  0  0  0  0  0  0
  191.3250  177.4100  139.0490 C   0  0  2  0  0  3  0  0  0  0  0  0
  188.5890  176.9950  142.3110 C   0  0  0  0  0  0  0  0  0  0  0  0
  191.0710  173.9520  136.9020 C   0  0  0  0  0  2  0  0  0  0  0  0
  191.0260  173.2570  135.6120 C   0  0  0  0  0  0  0  0  0  0  0  0
  190.9900  172.7080  134.5940 N   0  0  0  0  0  0  0  0  0  0  0  0
  1 13  1  0  0  0  0
  2 14  1  0  0  0  0
  3 24  2  0  0  0  0
  3 23  1  0  0  0  0
  4 26  1  0  0  0  0
  5  6  1  0  0  0  0
  5  8  1  0  0  0  0
  6  1  1  0  0  0  0
  7  4  1  0  0  0  0
  8 12  1  1  0  0  0
  8 25  1  0  0  0  0
  9 11  2  0  0  0  0
 10 19  1  0  0  0  0
 11  2  1  0  0  0  0
 13 15  1  0  0  0  0
 14  1  1  0  0  0  0
 15 18  1  0  0  0  0
 15  4  2  0  0  0  0
 16 22  1  0  0  0  0
 16  2  2  0  0  0  0
 17 16  1  0  0  0  0
 18 10  2  0  0  0  0
 20 17  2  0  0  0  0
 20  9  1  0  0  0  0
 22  6  2  0  0  0  0
 23  5  2  0  0  0  0
 24 22  1  0  0  0  0
 25 12  1  1  0  0  0
 25 18  1  0  0  0  0
 26 19  2  0  0  0  0
 26 21  1  0  0  0  0
 27 23  1  0  0  0  0
 28 27  1  0  0  0  0
 29 28  3  0  0  0  0
M  END
>  <MODEL>
2

>  <REMARK>
 VINA RESULT:      -6.8      2.823      7.573
  Name = 
  2 active torsions:
  status: ('A' for Active; 'I' for Inactive)
    1  A    between atoms: C_6  and  C_11
    2  A    between atoms: C_11  and  C_26
                            x       y       z     vdW  Elec       q    Type
                         _______ _______ _______ _____ _____    ______ ____

>  <TORSDO>
F 2

$$$$
=
 OpenBabel10222421093D

 29 34  0  0  1  0  0  0  0  0999 V2000
  185.4370  178.6550  138.9280 N   0  0  0  0  0  0  0  0  0  0  0  0
  187.3150  178.3790  140.4430 C   0  0  0  0  0  0  0  0  0  0  0  0
  182.7950  178.5540  142.2870 C   0  0  0  0  0  3  0  0  0  0  0  0
  184.9000  175.8200  137.5540 C   0  0  0  0  0  0  0  0  0  0  0  0
  183.0730  178.9170  139.8770 C   0  0  0  0  0  0  0  0  0  0  0  0
  184.4810  178.6400  140.0280 C   0  0  0  0  0  0  0  0  0  0  0  0
  186.3910  175.6920  137.5970 C   0  0  0  0  0  1  0  0  0  0  0  0
  182.4680  179.4680  138.5770 C   0  0  2  0  0  3  0  0  0  0  0  0
  189.2250  177.9880  141.8790 C   0  0  0  0  0  3  0  0  0  0  0  0
  182.1260  176.0310  137.4910 C   0  0  0  0  0  3  0  0  0  0  0  0
  188.6990  178.2860  140.6200 C   0  0  0  0  0  3  0  0  0  0  0  0
  181.1290  178.7830  138.2800 C   0  0  0  0  0  2  0  0  0  0  0  0
  185.0830  178.3570  137.5510 C   0  0  0  0  0  2  0  0  0  0  0  0
  186.7970  178.6460  139.1790 O   0  0  0  0  0  0  0  0  0  0  0  0
  184.2920  177.0870  137.4930 C   0  0  0  0  0  0  0  0  0  0  0  0
  186.4490  178.1820  141.5230 C   0  0  0  0  0  0  0  0  0  0  0  0
  186.9850  177.8840  142.7880 C   0  0  0  0  0  3  0  0  0  0  0  0
  182.9000  177.1940  137.4920 C   0  0  0  0  0  0  0  0  0  0  0  0
  182.7260  174.8130  137.5390 N   0  0  0  0  0  0  0  0  0  0  0  0
  188.3680  177.7840  142.9630 C   0  0  0  0  0  3  0  0  0  0  0  0
  184.6610  173.3050  137.6360 C   0  0  0  0  0  1  0  0  0  0  0  0
  184.9940  178.3480  141.3180 C   0  0  0  0  0  0  0  0  0  0  0  0
  182.2610  178.9050  141.0520 C   0  0  0  0  0  0  0  0  0  0  0  0
  184.1420  178.2780  142.4180 C   0  0  0  0  0  3  0  0  0  0  0  0
  182.2780  178.5500  137.3450 C   0  0  2  0  0  3  0  0  0  0  0  0
  184.0790  174.6770  137.5750 C   0  0  0  0  0  0  0  0  0  0  0  0
  180.8320  179.3580  141.0710 C   0  0  0  0  0  2  0  0  0  0  0  0
  180.0240  178.4640  141.9070 C   0  0  0  0  0  0  0  0  0  0  0  0
  179.3860  177.7590  142.5660 N   0  0  0  0  0  0  0  0  0  0  0  0
  1 14  1  0  0  0  0
  1  6  1  0  0  0  0
  2 11  2  0  0  0  0
  2 16  1  0  0  0  0
  3 24  1  0  0  0  0
  4 26  1  0  0  0  0
  4  7  1  0  0  0  0
  5  6  2  0  0  0  0
  5 23  1  0  0  0  0
  6 22  1  0  0  0  0
  8 12  1  1  0  0  0
  8  5  1  0  0  0  0
  9 20  2  0  0  0  0
 10 18  2  0  0  0  0
 10 19  1  0  0  0  0
 11  9  1  0  0  0  0
 13  1  1  0  0  0  0
 14  2  1  0  0  0  0
 15 13  1  0  0  0  0
 15  4  2  0  0  0  0
 16 17  2  0  0  0  0
 17 20  1  0  0  0  0
 18 15  1  0  0  0  0
 19 26  2  0  0  0  0
 22 16  1  0  0  0  0
 22 24  2  0  0  0  0
 23 27  1  0  0  0  0
 23  3  2  0  0  0  0
 25 18  1  0  0  0  0
 25 12  1  1  0  0  0
 25  8  1  0  0  0  0
 26 21  1  0  0  0  0
 27 28  1  0  0  0  0
 28 29  3  0  0  0  0
M  END
>  <MODEL>
3

>  <REMARK>
 VINA RESULT:      -6.7      1.540      2.261
  Name = 
  2 active torsions:
  status: ('A' for Active; 'I' for Inactive)
    1  A    between atoms: C_6  and  C_11
    2  A    between atoms: C_11  and  C_26
                            x       y       z     vdW  Elec       q    Type
                         _______ _______ _______ _____ _____    ______ ____

>  <TORSDO>
F 2

$$$$
=
 OpenBabel10222421093D

 29 34  0  0  1  0  0  0  0  0999 V2000
  187.0590  178.0050  137.4720 N   0  0  0  0  0  0  0  0  0  0  0  0
  189.3720  177.2680  137.4070 C   0  0  0  0  0  0  0  0  0  0  0  0
  187.2840  178.1320  141.7380 C   0  0  0  0  0  3  0  0  0  0  0  0
  185.2290  175.4340  136.9630 C   0  0  0  0  0  0  0  0  0  0  0  0
  185.9890  178.6240  139.7140 C   0  0  0  0  0  0  0  0  0  0  0  0
  187.0690  178.0810  138.9270 C   0  0  0  0  0  0  0  0  0  0  0  0
  186.3290  175.0290  136.0310 C   0  0  0  0  0  1  0  0  0  0  0  0
  184.8030  179.3780  139.0930 C   0  0  2  0  0  3  0  0  0  0  0  0
  191.6360  176.4200  137.2700 C   0  0  0  0  0  3  0  0  0  0  0  0
  183.1900  176.1580  138.7120 C   0  0  0  0  0  3  0  0  0  0  0  0
  190.4870  176.9070  136.6440 C   0  0  0  0  0  3  0  0  0  0  0  0
  183.4960  178.9770  139.7850 C   0  0  0  0  0  2  0  0  0  0  0  0
  185.8450  177.8860  136.6820 C   0  0  0  0  0  2  0  0  0  0  0  0
  188.2200  177.7240  136.7740 O   0  0  0  0  0  0  0  0  0  0  0  0
  184.9850  176.7920  137.2340 C   0  0  0  0  0  0  0  0  0  0  0  0
  189.4010  177.1510  138.8010 C   0  0  0  0  0  0  0  0  0  0  0  0
  190.5610  176.6610  139.4250 C   0  0  0  0  0  3  0  0  0  0  0  0
  183.9810  177.1550  138.1340 C   0  0  0  0  0  0  0  0  0  0  0  0
  183.4300  174.8500  138.4340 N   0  0  0  0  0  0  0  0  0  0  0  0
  191.6730  176.2940  138.6610 C   0  0  0  0  0  3  0  0  0  0  0  0
  184.6270  173.0080  137.3390 C   0  0  0  0  0  1  0  0  0  0  0  0
  188.2300  177.5990  139.5850 C   0  0  0  0  0  0  0  0  0  0  0  0
  186.1550  178.6710  141.1320 C   0  0  0  0  0  0  0  0  0  0  0  0
  188.3070  177.6020  140.9760 C   0  0  0  0  0  3  0  0  0  0  0  0
  183.6870  178.6100  138.3440 C   0  0  2  0  0  3  0  0  0  0  0  0
  184.4220  174.4640  137.5870 C   0  0  0  0  0  0  0  0  0  0  0  0
  185.2040  179.3780  142.0500 C   0  0  0  0  0  2  0  0  0  0  0  0
  185.2100  178.7490  143.3750 C   0  0  0  0  0  0  0  0  0  0  0  0
  185.2150  178.2530  144.4200 N   0  0  0  0  0  0  0  0  0  0  0  0
  1  6  1  0  0  0  0
  2 16  1  0  0  0  0
  4 15  2  0  0  0  0
  4 26  1  0  0  0  0
  5 23  2  0  0  0  0
  6 22  2  0  0  0  0
  6  5  1  0  0  0  0
  7  4  1  0  0  0  0
  8  5  1  0  0  0  0
  8 12  1  1  0  0  0
  9 20  2  0  0  0  0
 11  9  1  0  0  0  0
 11  2  2  0  0  0  0
 13 15  1  0  0  0  0
 13  1  1  0  0  0  0
 14  2  1  0  0  0  0
 14  1  1  0  0  0  0
 15 18  1  0  0  0  0
 16 17  2  0  0  0  0
 16 22  1  0  0  0  0
 18 25  1  0  0  0  0
 18 10  2  0  0  0  0
 19 10  1  0  0  0  0
 20 17  1  0  0  0  0
 21 26  1  0  0  0  0
 22 24  1  0  0  0  0
 23  3  1  0  0  0  0
 23 27  1  0  0  0  0
 24  3  2  0  0  0  0
 25  8  1  0  0  0  0
 25 12  1  1  0  0  0
 26 19  2  0  0  0  0
 27 28  1  0  0  0  0
 28 29  3  0  0  0  0
M  END
>  <MODEL>
4

>  <REMARK>
 VINA RESULT:      -6.6      1.362      1.906
  Name = 
  2 active torsions:
  status: ('A' for Active; 'I' for Inactive)
    1  A    between atoms: C_6  and  C_11
    2  A    between atoms: C_11  and  C_26
                            x       y       z     vdW  Elec       q    Type
                         _______ _______ _______ _____ _____    ______ ____

>  <TORSDO>
F 2

$$$$
=
 OpenBabel10222421093D

 29 34  0  0  1  0  0  0  0  0999 V2000
  181.7340  177.9860  140.1060 N   0  0  0  0  0  0  0  0  0  0  0  0
  182.6290  178.6280  142.2700 C   0  0  0  0  0  0  0  0  0  0  0  0
  185.6730  178.2530  138.4670 C   0  0  0  0  0  3  0  0  0  0  0  0
  180.3050  180.5640  138.8670 C   0  0  0  0  0  0  0  0  0  0  0  0
  183.3260  177.6200  138.1340 C   0  0  0  0  0  0  0  0  0  0  0  0
  183.0510  178.0470  139.4850 C   0  0  0  0  0  0  0  0  0  0  0  0
  179.9180  180.8380  140.2870 C   0  0  0  0  0  1  0  0  0  0  0  0
  182.3050  176.8560  137.2780 C   0  0  2  0  0  3  0  0  0  0  0  0
  183.4300  179.3760  144.4290 C   0  0  0  0  0  3  0  0  0  0  0  0
  181.0410  180.0820  136.2270 C   0  0  0  0  0  3  0  0  0  0  0  0
  182.4030  178.8740  143.6270 C   0  0  0  0  0  3  0  0  0  0  0  0
  182.3320  177.3670  135.8340 C   0  0  0  0  0  2  0  0  0  0  0  0
  180.4890  178.0750  139.3610 C   0  0  0  0  0  2  0  0  0  0  0  0
  181.5920  178.1570  141.4710 O   0  0  0  0  0  0  0  0  0  0  0  0
  180.5360  179.2460  138.4300 C   0  0  0  0  0  0  0  0  0  0  0  0
  183.8860  178.8750  141.7060 C   0  0  0  0  0  0  0  0  0  0  0  0
  184.9160  179.3780  142.5190 C   0  0  0  0  0  3  0  0  0  0  0  0
  180.9340  179.0080  137.1130 C   0  0  0  0  0  0  0  0  0  0  0  0
  180.8050  181.3480  136.6590 N   0  0  0  0  0  0  0  0  0  0  0  0
  184.6870  179.6300  143.8740 C   0  0  0  0  0  3  0  0  0  0  0  0
  180.2150  183.0340  138.3430 C   0  0  0  0  0  1  0  0  0  0  0  0
  184.1120  178.5460  140.2820 C   0  0  0  0  0  0  0  0  0  0  0  0
  184.6750  177.7010  137.6710 C   0  0  0  0  0  0  0  0  0  0  0  0
  185.3950  178.6710  139.7540 C   0  0  0  0  0  3  0  0  0  0  0  0
  181.0950  177.5900  136.6510 C   0  0  2  0  0  3  0  0  0  0  0  0
  180.4490  181.6170  137.9440 C   0  0  0  0  0  0  0  0  0  0  0  0
  185.1350  177.1190  136.3690 C   0  0  0  0  0  2  0  0  0  0  0  0
  186.1170  176.0550  136.6030 C   0  0  0  0  0  0  0  0  0  0  0  0
  186.8920  175.2160  136.7890 N   0  0  0  0  0  0  0  0  0  0  0  0
  1 14  1  0  0  0  0
  2 11  1  0  0  0  0
  3 24  1  0  0  0  0
  4  7  1  0  0  0  0
  5  6  2  0  0  0  0
  6  1  1  0  0  0  0
  6 22  1  0  0  0  0
  8 12  1  6  0  0  0
  8  5  1  0  0  0  0
 10 19  2  0  0  0  0
 10 18  1  0  0  0  0
 11  9  2  0  0  0  0
 13  1  1  0  0  0  0
 14  2  1  0  0  0  0
 15  4  1  0  0  0  0
 15 13  1  0  0  0  0
 16  2  2  0  0  0  0
 16 17  1  0  0  0  0
 17 20  2  0  0  0  0
 18 15  2  0  0  0  0
 19 26  1  0  0  0  0
 20  9  1  0  0  0  0
 22 16  1  0  0  0  0
 23  5  1  0  0  0  0
 23  3  2  0  0  0  0
 24 22  2  0  0  0  0
 25 12  1  6  0  0  0
 25 18  1  0  0  0  0
 25  8  1  0  0  0  0
 26 21  1  0  0  0  0
 26  4  2  0  0  0  0
 27 28  1  0  0  0  0
 27 23  1  0  0  0  0
 28 29  3  0  0  0  0
M  END
>  <MODEL>
5

>  <REMARK>
 VINA RESULT:      -6.5      3.070      6.293
  Name = 
  2 active torsions:
  status: ('A' for Active; 'I' for Inactive)
    1  A    between atoms: C_6  and  C_11
    2  A    between atoms: C_11  and  C_26
                            x       y       z     vdW  Elec       q    Type
                         _______ _______ _______ _____ _____    ______ ____

>  <TORSDO>
F 2

$$$$
=
 OpenBabel10222421093D

 29 34  0  0  1  0  0  0  0  0999 V2000
  190.1280  176.6690  135.7290 N   0  0  0  0  0  0  0  0  0  0  0  0
  192.4180  175.8600  135.7020 C   0  0  0  0  0  0  0  0  0  0  0  0
  190.4320  177.1980  139.9600 C   0  0  0  0  0  3  0  0  0  0  0  0
  188.2170  174.1170  135.4980 C   0  0  0  0  0  0  0  0  0  0  0  0
  189.1160  177.5320  137.9180 C   0  0  0  0  0  0  0  0  0  0  0  0
  190.1660  176.8840  137.1710 C   0  0  0  0  0  0  0  0  0  0  0  0
  189.2880  173.5920  134.5940 C   0  0  0  0  0  1  0  0  0  0  0  0
  187.9410  178.2580  137.2440 C   0  0  2  0  0  3  0  0  0  0  0  0
  194.6540  174.9350  135.6140 C   0  0  0  0  0  3  0  0  0  0  0  0
  186.2300  175.0660  137.1990 C   0  0  0  0  0  3  0  0  0  0  0  0
  193.5080  175.3950  134.9610 C   0  0  0  0  0  3  0  0  0  0  0  0
  186.6360  177.9650  137.9910 C   0  0  0  0  0  2  0  0  0  0  0  0
  188.8980  176.5110  134.9730 C   0  0  0  0  0  2  0  0  0  0  0  0
  191.2690  176.2880  135.0450 O   0  0  0  0  0  0  0  0  0  0  0  0
  188.0160  175.5020  135.6410 C   0  0  0  0  0  0  0  0  0  0  0  0
  192.4680  175.8760  137.1000 C   0  0  0  0  0  0  0  0  0  0  0  0
  193.6250  175.4140  137.7510 C   0  0  0  0  0  3  0  0  0  0  0  0
  187.0390  175.9790  136.5170 C   0  0  0  0  0  0  0  0  0  0  0  0
  186.4290  173.7310  137.0450 N   0  0  0  0  0  0  0  0  0  0  0  0
  194.7120  174.9420  137.0100 C   0  0  0  0  0  3  0  0  0  0  0  0
  187.5530  171.7570  136.1150 C   0  0  0  0  0  1  0  0  0  0  0  0
  191.3240  176.4330  137.8550 C   0  0  0  0  0  0  0  0  0  0  0  0
  189.3080  177.7100  139.3220 C   0  0  0  0  0  0  0  0  0  0  0  0
  191.4260  176.5660  139.2370 C   0  0  0  0  0  3  0  0  0  0  0  0
  186.7910  177.4560  136.5890 C   0  0  2  0  0  3  0  0  0  0  0  0
  187.3940  173.2360  136.2250 C   0  0  0  0  0  0  0  0  0  0  0  0
  188.3940  178.5300  140.1810 C   0  0  0  0  0  2  0  0  0  0  0  0
  188.2020  177.8830  141.4840 C   0  0  0  0  0  0  0  0  0  0  0  0
  188.0510  177.3740  142.5120 N   0  0  0  0  0  0  0  0  0  0  0  0
  1  6  1  0  0  0  0
  2 16  1  0  0  0  0
  4 15  2  0  0  0  0
  4 26  1  0  0  0  0
  5 23  2  0  0  0  0
  6 22  2  0  0  0  0
  6  5  1  0  0  0  0
  7  4  1  0  0  0  0
  8  5  1  0  0  0  0
  8 12  1  1  0  0  0
  9 20  2  0  0  0  0
 11  9  1  0  0  0  0
 11  2  2  0  0  0  0
 13 15  1  0  0  0  0
 13  1  1  0  0  0  0
 14  2  1  0  0  0  0
 14  1  1  0  0  0  0
 15 18  1  0  0  0  0
 16 17  2  0  0  0  0
 16 22  1  0  0  0  0
 18 25  1  0  0  0  0
 18 10  2  0  0  0  0
 19 10  1  0  0  0  0
 20 17  1  0  0  0  0
 21 26  1  0  0  0  0
 22 24  1  0  0  0  0
 23  3  1  0  0  0  0
 23 27  1  0  0  0  0
 24  3  2  0  0  0  0
 25  8  1  0  0  0  0
 25 12  1  1  0  0  0
 26 19  2  0  0  0  0
 27 28  1  0  0  0  0
 28 29  3  0  0  0  0
M  END
>  <MODEL>
6

>  <REMARK>
 VINA RESULT:      -6.4      3.434      5.385
  Name = 
  2 active torsions:
  status: ('A' for Active; 'I' for Inactive)
    1  A    between atoms: C_6  and  C_11
    2  A    between atoms: C_11  and  C_26
                            x       y       z     vdW  Elec       q    Type
                         _______ _______ _______ _____ _____    ______ ____

>  <TORSDO>
F 2

$$$$
=
 OpenBabel10222421093D

 29 34  0  0  1  0  0  0  0  0999 V2000
  186.9780  178.1910  137.2080 N   0  0  0  0  0  0  0  0  0  0  0  0
  184.8990  178.5040  138.4240 C   0  0  0  0  0  0  0  0  0  0  0  0
  185.7690  174.1930  136.2960 C   0  0  0  0  0  3  0  0  0  0  0  0
  189.2830  177.7280  139.3740 C   0  0  0  0  0  0  0  0  0  0  0  0
  187.3880  176.0020  135.9440 C   0  0  0  0  0  0  0  0  0  0  0  0
  186.6230  176.8230  136.8520 C   0  0  0  0  0  0  0  0  0  0  0  0
  188.5090  178.7230  140.1810 C   0  0  0  0  0  1  0  0  0  0  0  0
  188.5390  176.5550  135.0910 C   0  0  2  0  0  3  0  0  0  0  0  0
  182.9020  178.8500  139.7500 C   0  0  0  0  0  3  0  0  0  0  0  0
  190.7180  175.8560  137.8970 C   0  0  0  0  0  3  0  0  0  0  0  0
  184.0640  179.3510  139.1590 C   0  0  0  0  0  3  0  0  0  0  0  0
  189.7030  175.5590  135.0560 C   0  0  0  0  0  2  0  0  0  0  0  0
  188.3410  178.6920  137.2160 C   0  0  0  0  0  2  0  0  0  0  0  0
  186.0700  179.0040  137.8640 O   0  0  0  0  0  0  0  0  0  0  0  0
  189.2260  177.7470  137.9680 C   0  0  0  0  0  0  0  0  0  0  0  0
  184.5730  177.1520  138.2680 C   0  0  0  0  0  0  0  0  0  0  0  0
  183.4010  176.6550  138.8640 C   0  0  0  0  0  3  0  0  0  0  0  0
  189.9220  176.7890  137.2280 C   0  0  0  0  0  0  0  0  0  0  0  0
  190.7720  175.8550  139.2550 N   0  0  0  0  0  0  0  0  0  0  0  0
  182.5710  177.5000  139.6050 C   0  0  0  0  0  3  0  0  0  0  0  0
  190.1840  176.6820  141.4900 C   0  0  0  0  0  1  0  0  0  0  0  0
  185.4420  176.2950  137.4330 C   0  0  0  0  0  0  0  0  0  0  0  0
  186.8990  174.6910  135.6570 C   0  0  0  0  0  0  0  0  0  0  0  0
  185.0510  174.9830  137.1740 C   0  0  0  0  0  3  0  0  0  0  0  0
  189.9100  176.8810  135.7320 C   0  0  2  0  0  3  0  0  0  0  0  0
  190.0790  176.7530  140.0050 C   0  0  0  0  0  0  0  0  0  0  0  0
  187.4830  173.8090  134.5950 C   0  0  0  0  0  2  0  0  0  0  0  0
  187.7280  172.4640  135.1270 C   0  0  0  0  0  0  0  0  0  0  0  0
  187.9210  171.4030  135.5470 N   0  0  0  0  0  0  0  0  0  0  0  0
  1 13  1  0  0  0  0
  1 14  1  0  0  0  0
  2 11  1  0  0  0  0
  3 24  1  0  0  0  0
  4 26  1  0  0  0  0
  4  7  1  0  0  0  0
  5  6  2  0  0  0  0
  6  1  1  0  0  0  0
  6 22  1  0  0  0  0
  8 12  1  6  0  0  0
  8 25  1  0  0  0  0
  8  5  1  0  0  0  0
 10 19  1  0  0  0  0
 11  9  2  0  0  0  0
 13 15  1  0  0  0  0
 14  2  1  0  0  0  0
 15  4  2  0  0  0  0
 16  2  2  0  0  0  0
 16 17  1  0  0  0  0
 17 20  2  0  0  0  0
 18 10  2  0  0  0  0
 18 15  1  0  0  0  0
 19 26  2  0  0  0  0
 20  9  1  0  0  0  0
 22 16  1  0  0  0  0
 23  5  1  0  0  0  0
 23  3  2  0  0  0  0
 24 22  2  0  0  0  0
 25 12  1  6  0  0  0
 25 18  1  0  0  0  0
 26 21  1  0  0  0  0
 27 28  1  0  0  0  0
 27 23  1  0  0  0  0
 28 29  3  0  0  0  0
M  END
>  <MODEL>
7

>  <REMARK>
 VINA RESULT:      -6.2      2.772      7.278
  Name = 
  2 active torsions:
  status: ('A' for Active; 'I' for Inactive)
    1  A    between atoms: C_6  and  C_11
    2  A    between atoms: C_11  and  C_26
                            x       y       z     vdW  Elec       q    Type
                         _______ _______ _______ _____ _____    ______ ____

>  <TORSDO>
F 2

$$$$
=
 OpenBabel10222421093D

 29 34  0  0  1  0  0  0  0  0999 V2000
  186.2040  176.4180  136.0200 N   0  0  0  0  0  0  0  0  0  0  0  0
  184.1070  175.2040  136.1770 C   0  0  0  0  0  0  0  0  0  0  0  0
  188.2710  172.8730  137.2190 C   0  0  0  0  0  3  0  0  0  0  0  0
  186.4360  178.2550  138.6260 C   0  0  0  0  0  0  0  0  0  0  0  0
  188.4140  175.1800  136.3980 C   0  0  0  0  0  0  0  0  0  0  0  0
  186.9730  175.2430  136.4130 C   0  0  0  0  0  0  0  0  0  0  0  0
  184.9550  178.4020  138.4630 C   0  0  0  0  0  1  0  0  0  0  0  0
  189.2880  176.2720  135.7620 C   0  0  2  0  0  3  0  0  0  0  0  0
  181.9690  174.0930  136.4250 C   0  0  0  0  0  3  0  0  0  0  0  0
  189.1840  177.9680  138.9600 C   0  0  0  0  0  3  0  0  0  0  0  0
  182.7170  175.2030  136.0250 C   0  0  0  0  0  3  0  0  0  0  0  0
  190.5160  176.5480  136.6360 C   0  0  0  0  0  2  0  0  0  0  0  0
  186.6980  177.7790  136.1410 C   0  0  0  0  0  2  0  0  0  0  0  0
  184.8410  176.3250  135.8040 O   0  0  0  0  0  0  0  0  0  0  0  0
  187.2570  177.9970  137.5130 C   0  0  0  0  0  0  0  0  0  0  0  0
  184.7590  174.0950  136.7250 C   0  0  0  0  0  0  0  0  0  0  0  0
  184.0010  172.9800  137.1240 C   0  0  0  0  0  3  0  0  0  0  0  0
  188.6310  177.8240  137.6840 C   0  0  0  0  0  0  0  0  0  0  0  0
  188.3810  178.2260  140.0250 N   0  0  0  0  0  0  0  0  0  0  0  0
  182.6110  172.9820  136.9780 C   0  0  0  0  0  3  0  0  0  0  0  0
  186.2210  178.6430  141.1140 C   0  0  0  0  0  1  0  0  0  0  0  0
  186.2350  174.1010  136.8160 C   0  0  0  0  0  0  0  0  0  0  0  0
  189.0320  173.9480  136.7730 C   0  0  0  0  0  0  0  0  0  0  0  0
  186.8920  172.9490  137.2420 C   0  0  0  0  0  3  0  0  0  0  0  0
  189.4930  177.6320  136.4730 C   0  0  2  0  0  3  0  0  0  0  0  0
  187.0340  178.3670  139.8950 C   0  0  0  0  0  0  0  0  0  0  0  0
  190.4990  173.6830  136.6200 C   0  0  0  0  0  2  0  0  0  0  0  0
  190.7400  172.7820  135.4890 C   0  0  0  0  0  0  0  0  0  0  0  0
  190.9310  172.0700  134.5960 N   0  0  0  0  0  0  0  0  0  0  0  0
  1 13  1  0  0  0  0
  1  6  1  0  0  0  0
  2 16  1  0  0  0  0
  3 24  1  0  0  0  0
  4 26  1  0  0  0  0
  5  6  2  0  0  0  0
  5 23  1  0  0  0  0
  6 22  1  0  0  0  0
  7  4  1  0  0  0  0
  8  5  1  0  0  0  0
  8 25  1  0  0  0  0
  8 12  1  1  0  0  0
  9 20  2  0  0  0  0
 10 19  1  0  0  0  0
 11  2  2  0  0  0  0
 11  9  1  0  0  0  0
 13 15  1  0  0  0  0
 14  1  1  0  0  0  0
 14  2  1  0  0  0  0
 15 18  1  0  0  0  0
 15  4  2  0  0  0  0
 16 22  1  0  0  0  0
 16 17  2  0  0  0  0
 18 10  2  0  0  0  0
 20 17  1  0  0  0  0
 22 24  2  0  0  0  0
 23  3  2  0  0  0  0
 25 12  1  1  0  0  0
 25 18  1  0  0  0  0
 26 19  2  0  0  0  0
 26 21  1  0  0  0  0
 27 23  1  0  0  0  0
 28 27  1  0  0  0  0
 29 28  3  0  0  0  0
M  END
>  <MODEL>
8

>  <REMARK>
 VINA RESULT:      -5.7      3.150      7.674
  Name = 
  2 active torsions:
  status: ('A' for Active; 'I' for Inactive)
    1  A    between atoms: C_6  and  C_11
    2  A    between atoms: C_11  and  C_26
                            x       y       z     vdW  Elec       q    Type
                         _______ _______ _______ _____ _____    ______ ____

>  <TORSDO>
F 2

$$$$
=
 OpenBabel10222421093D

 29 34  0  0  1  0  0  0  0  0999 V2000
  189.1070  177.3170  137.3340 N   0  0  0  0  0  0  0  0  0  0  0  0
  191.1460  177.2820  138.6510 C   0  0  0  0  0  0  0  0  0  0  0  0
  186.9140  178.2890  140.8720 C   0  0  0  0  0  3  0  0  0  0  0  0
  188.2570  174.2780  136.8200 C   0  0  0  0  0  0  0  0  0  0  0  0
  186.9000  178.0030  138.4360 C   0  0  0  0  0  0  0  0  0  0  0  0
  188.3000  177.6600  138.4980 C   0  0  0  0  0  0  0  0  0  0  0  0
  189.7330  174.0440  136.7310 C   0  0  0  0  0  1  0  0  0  0  0  0
  186.1620  178.2530  137.1110 C   0  0  2  0  0  3  0  0  0  0  0  0
  193.2020  177.1150  139.9200 C   0  0  0  0  0  3  0  0  0  0  0  0
  185.5120  174.6920  137.0100 C   0  0  0  0  0  3  0  0  0  0  0  0
  192.5350  177.1250  138.6940 C   0  0  0  0  0  3  0  0  0  0  0  0
  184.7640  177.6260  137.1540 C   0  0  0  0  0  2  0  0  0  0  0  0
  188.5650  176.7080  136.1310 C   0  0  0  0  0  2  0  0  0  0  0  0
  190.4860  177.2610  137.4270 O   0  0  0  0  0  0  0  0  0  0  0  0
  187.7110  175.5340  136.4960 C   0  0  0  0  0  0  0  0  0  0  0  0
  190.4160  177.4380  139.8350 C   0  0  0  0  0  0  0  0  0  0  0  0
  191.0940  177.4290  141.0660 C   0  0  0  0  0  3  0  0  0  0  0  0
  186.3370  175.7500  136.6200 C   0  0  0  0  0  0  0  0  0  0  0  0
  186.0520  173.4820  137.3100 N   0  0  0  0  0  0  0  0  0  0  0  0
  192.4810  177.2650  141.1080 C   0  0  0  0  0  3  0  0  0  0  0  0
  187.9050  171.8950  137.5850 C   0  0  0  0  0  1  0  0  0  0  0  0
  188.9570  177.6650  139.7550 C   0  0  0  0  0  0  0  0  0  0  0  0
  186.2440  178.3570  139.6550 C   0  0  0  0  0  0  0  0  0  0  0  0
  188.2510  177.9460  140.9210 C   0  0  0  0  0  3  0  0  0  0  0  0
  185.7710  177.0700  136.1920 C   0  0  2  0  0  3  0  0  0  0  0  0
  187.3890  173.2490  137.2310 C   0  0  0  0  0  0  0  0  0  0  0  0
  184.8540  178.9150  139.7110 C   0  0  0  0  0  2  0  0  0  0  0  0
  184.2560  178.6620  141.0260 C   0  0  0  0  0  0  0  0  0  0  0  0
  183.7840  178.4620  142.0630 N   0  0  0  0  0  0  0  0  0  0  0  0
  1 14  1  0  0  0  0
  1  6  1  0  0  0  0
  2 11  2  0  0  0  0
  2 16  1  0  0  0  0
  3 24  1  0  0  0  0
  4 26  1  0  0  0  0
  5  6  2  0  0  0  0
  5 23  1  0  0  0  0
  6 22  1  0  0  0  0
  7  4  1  0  0  0  0
  8 12  1  1  0  0  0
  8  5  1  0  0  0  0
  9 20  2  0  0  0  0
 10 19  1  0  0  0  0
 11  9  1  0  0  0  0
 13 15  1  0  0  0  0
 13  1  1  0  0  0  0
 14  2  1  0  0  0  0
 15 18  1  0  0  0  0
 15  4  2  0  0  0  0
 16 17  2  0  0  0  0
 17 20  1  0  0  0  0
 18 10  2  0  0  0  0
 22 16  1  0  0  0  0
 22 24  2  0  0  0  0
 23 27  1  0  0  0  0
 23  3  2  0  0  0  0
 25 18  1  0  0  0  0
 25  8  1  0  0  0  0
 25 12  1  1  0  0  0
 26 19  2  0  0  0  0
 26 21  1  0  0  0  0
 27 28  1  0  0  0  0
 28 29  3  0  0  0  0
M  END
>  <MODEL>
9

>  <REMARK>
 VINA RESULT:      -5.6      2.182      3.500
  Name = 
  2 active torsions:
  status: ('A' for Active; 'I' for Inactive)
    1  A    between atoms: C_6  and  C_11
    2  A    between atoms: C_11  and  C_26
                            x       y       z     vdW  Elec       q    Type
                         _______ _______ _______ _____ _____    ______ ____

>  <TORSDO>
F 2

$$$$
